
 OpenBabel10282417072D

 46 49  0  0  1  0  0  0  0  0999 V2000
    4.9524   -2.0625    0.0000 C   0  0  0  0  0  0  0  0  0  0  0  0
    4.1274   -2.0625    0.0000 C   0  0  0  0  0  0  0  0  0  0  0  0
    3.6425   -1.3951    0.0000 C   0  0  0  0  0  0  0  0  0  0  0  0
    2.8579   -1.6500    0.0000 C   0  0  0  0  0  0  0  0  0  0  0  0
    2.8579   -2.4750    0.0000 C   0  0  0  0  0  0  0  0  0  0  0  0
    3.6425   -2.7299    0.0000 N   0  0  0  0  0  0  0  0  0  0  0  0
    2.1434   -2.8875    0.0000 C   0  0  0  0  0  0  0  0  0  0  0  0
    1.4289   -2.4750    0.0000 C   0  0  0  0  0  0  0  0  0  0  0  0
    1.4289   -1.6500    0.0000 C   0  0  0  0  0  0  0  0  0  0  0  0
    2.1434   -1.2375    0.0000 C   0  0  0  0  0  0  0  0  0  0  0  0
    2.1434   -0.4125    0.0000 F   0  0  0  0  0  0  0  0  0  0  0  0
    0.7145   -1.2375    0.0000 O   0  0  0  0  0  0  0  0  0  0  0  0
    0.7145   -0.4125    0.0000 C   0  0  0  0  0  0  0  0  0  0  0  0
    0.0000    0.0000    0.0000 C   0  0  0  0  0  0  0  0  0  0  0  0
   -0.7846   -0.2549    0.0000 C   0  0  0  0  0  0  0  0  0  0  0  0
   -1.2695    0.4125    0.0000 C   0  0  0  0  0  0  0  0  0  0  0  0
   -0.7846    1.0799    0.0000 C   0  0  0  0  0  0  0  0  0  0  0  0
    0.0000    0.8250    0.0000 N   0  0  0  0  0  0  0  0  0  0  0  0
    0.7145    1.2375    0.0000 N   0  0  0  0  0  0  0  0  0  0  0  0
    1.4289    0.8250    0.0000 C   0  0  0  0  0  0  0  0  0  0  0  0
    1.4289    0.0000    0.0000 N   0  0  0  0  0  0  0  0  0  0  0  0
   -2.0945    0.4125    0.0000 O   0  0  0  0  0  0  0  0  0  0  0  0
   -2.5070   -0.3020    0.0000 C   0  0  0  0  0  0  0  0  0  0  0  0
   -3.3320   -0.3020    0.0000 C   0  0  1  0  0  0  0  0  0  0  0  0
   -3.7445   -1.0164    0.0000 C   0  0  0  0  0  0  0  0  0  0  0  0
   -3.7445    0.4125    0.0000 O   0  0  0  0  0  0  0  0  0  0  0  0
   -1.0396   -1.0396    0.0000 C   0  0  0  0  0  0  0  0  0  0  0  0
    5.4874   -2.9891    0.0000 H   0  0  0  0  0  0  0  0  0  0  0  0
    5.4874   -1.1359    0.0000 H   0  0  0  0  0  0  0  0  0  0  0  0
    6.0224   -2.0625    0.0000 H   0  0  0  0  0  0  0  0  0  0  0  0
    3.9614   -0.4136    0.0000 H   0  0  0  0  0  0  0  0  0  0  0  0
    3.9467   -3.6662    0.0000 H   0  0  0  0  0  0  0  0  0  0  0  0
    2.1434   -3.9195    0.0000 H   0  0  0  0  0  0  0  0  0  0  0  0
    0.5352   -2.9910    0.0000 H   0  0  0  0  0  0  0  0  0  0  0  0
   -1.1035    2.0614    0.0000 H   0  0  0  0  0  0  0  0  0  0  0  0
    2.3226    1.3410    0.0000 H   0  0  0  0  0  0  0  0  0  0  0  0
   -1.9720   -1.2286    0.0000 H   0  0  0  0  0  0  0  0  0  0  0  0
   -3.0420   -1.2286    0.0000 H   0  0  0  0  0  0  0  0  0  0  0  0
   -2.7970    0.6246    0.0000 H   0  0  0  0  0  0  0  0  0  0  0  0
   -4.8145   -1.0164    0.0000 H   0  0  0  0  0  0  0  0  0  0  0  0
   -3.2095   -1.9431    0.0000 H   0  0  0  0  0  0  0  0  0  0  0  0
   -4.2795   -1.9430    0.0000 H   0  0  0  0  0  0  0  0  0  0  0  0
   -3.2595    1.2525    0.0000 H   0  0  0  0  0  0  0  0  0  0  0  0
   -2.0862   -1.2620    0.0000 H   0  0  0  0  0  0  0  0  0  0  0  0
   -0.3237   -1.8348    0.0000 H   0  0  0  0  0  0  0  0  0  0  0  0
   -1.3703   -2.0572    0.0000 H   0  0  0  0  0  0  0  0  0  0  0  0
  1  2  1  0  0  0  0
  1 28  1  0  0  0  0
  1 29  1  0  0  0  0
  1 30  1  0  0  0  0
  2  3  2  0  0  0  0
  2  6  1  0  0  0  0
  3  4  1  0  0  0  0
  3 31  1  0  0  0  0
  4  5  1  0  0  0  0
  4 10  2  0  0  0  0
  5  6  1  0  0  0  0
  5  7  2  0  0  0  0
  6 32  1  0  0  0  0
  7  8  1  0  0  0  0
  7 33  1  0  0  0  0
  8  9  2  0  0  0  0
  8 34  1  0  0  0  0
  9 10  1  0  0  0  0
  9 12  1  0  0  0  0
 10 11  1  0  0  0  0
 12 13  1  0  0  0  0
 13 14  1  0  0  0  0
 13 21  2  0  0  0  0
 14 15  2  0  0  0  0
 14 18  1  0  0  0  0
 15 16  1  0  0  0  0
 15 27  1  0  0  0  0
 16 17  2  0  0  0  0
 16 22  1  0  0  0  0
 17 18  1  0  0  0  0
 17 35  1  0  0  0  0
 18 19  1  0  0  0  0
 19 20  2  0  0  0  0
 20 21  1  0  0  0  0
 20 36  1  0  0  0  0
 22 23  1  0  0  0  0
 23 24  1  0  0  0  0
 23 37  1  0  0  0  0
 23 38  1  0  0  0  0
 24 25  1  0  0  0  0
 24 26  1  0  0  0  0
 24 39  1  6  0  0  0
 25 40  1  0  0  0  0
 25 41  1  0  0  0  0
 25 42  1  0  0  0  0
 26 43  1  0  0  0  0
 27 44  1  0  0  0  0
 27 45  1  0  0  0  0
 27 46  1  0  0  0  0
M  END
>  <DRUGBANK_ID>
DB11958

>  <COMMON_NAME>
Brivanib

>  <CAS_NUMBER>
649735-46-6

>  <UNII>
DDU33B674I

>  <SYNONYMS>
Brivanib

$$$$
