
 OpenBabel10282417072D

 50 52  0  0  0  0  0  0  0  0999 V2000
   -1.8414    2.3793    0.0000 F   0  0  0  0  0  0  0  0  0  0  0  0
   -1.0164    3.8082    0.0000 F   0  0  0  0  0  0  0  0  0  0  0  0
    3.5724   -3.0938    0.0000 F   0  0  0  0  0  0  0  0  0  0  0  0
   -0.7145    0.2062    0.0000 O   0  0  0  0  0  0  0  0  0  0  0  0
    2.1434   -0.6187    0.0000 O   0  0  0  0  0  0  0  0  0  0  0  0
    0.7145    0.2062    0.0000 N   0  0  0  0  0  0  0  0  0  0  0  0
   -0.7145    1.8562    0.0000 N   0  0  0  0  0  0  0  0  0  0  0  0
    0.7145    1.8562    0.0000 N   0  0  0  0  0  0  0  0  0  0  0  0
    1.4289   -1.8562    0.0000 N   0  0  0  0  0  0  0  0  0  0  0  0
   -2.8579    3.0938    0.0000 N   0  0  0  0  0  0  0  0  0  0  0  0
    1.4289   -3.5063    0.0000 N   0  0  0  0  0  0  0  0  0  0  0  0
    0.7145   -0.6187    0.0000 C   0  0  0  0  0  0  0  0  0  0  0  0
    1.4289    0.6187    0.0000 C   0  0  0  0  0  0  0  0  0  0  0  0
   -0.7145    2.6813    0.0000 C   0  0  0  0  0  0  0  0  0  0  0  0
    0.0000    1.4437    0.0000 C   0  0  0  0  0  0  0  0  0  0  0  0
    0.0000    0.6187    0.0000 C   0  0  0  0  0  0  0  0  0  0  0  0
   -1.4289    3.0938    0.0000 C   0  0  0  0  0  0  0  0  0  0  0  0
    1.4289   -1.0312    0.0000 C   0  0  0  0  0  0  0  0  0  0  0  0
    1.4289    1.4437    0.0000 C   0  0  0  0  0  0  0  0  0  0  0  0
    2.1434    0.2062    0.0000 C   0  0  0  0  0  0  0  0  0  0  0  0
   -2.1434    3.5063    0.0000 C   0  0  0  0  0  0  0  0  0  0  0  0
    2.1434   -2.2687    0.0000 C   0  0  0  0  0  0  0  0  0  0  0  0
   -2.1434    4.3313    0.0000 C   0  0  0  0  0  0  0  0  0  0  0  0
    2.1434   -3.0938    0.0000 C   0  0  0  0  0  0  0  0  0  0  0  0
   -2.8579    4.7438    0.0000 C   0  0  0  0  0  0  0  0  0  0  0  0
    2.8579   -3.5063    0.0000 C   0  0  0  0  0  0  0  0  0  0  0  0
   -3.5724    3.5063    0.0000 C   0  0  0  0  0  0  0  0  0  0  0  0
   -3.5724    4.3313    0.0000 C   0  0  0  0  0  0  0  0  0  0  0  0
    2.8579   -4.3313    0.0000 C   0  0  0  0  0  0  0  0  0  0  0  0
    1.4289   -4.3313    0.0000 C   0  0  0  0  0  0  0  0  0  0  0  0
    2.1434   -4.7438    0.0000 C   0  0  0  0  0  0  0  0  0  0  0  0
   -1.1574    1.6005    0.0000 H   0  0  0  0  0  0  0  0  0  0  0  0
    0.9859   -2.1120    0.0000 H   0  0  0  0  0  0  0  0  0  0  0  0
   -0.2122   -1.1537    0.0000 H   0  0  0  0  0  0  0  0  0  0  0  0
    0.7145   -1.6887    0.0000 H   0  0  0  0  0  0  0  0  0  0  0  0
    0.2122    3.2163    0.0000 H   0  0  0  0  0  0  0  0  0  0  0  0
   -0.7145    3.7513    0.0000 H   0  0  0  0  0  0  0  0  0  0  0  0
    2.3226    1.9597    0.0000 H   0  0  0  0  0  0  0  0  0  0  0  0
    2.1434   -0.8638    0.0000 H   0  0  0  0  0  0  0  0  0  0  0  0
    3.0700    0.7412    0.0000 H   0  0  0  0  0  0  0  0  0  0  0  0
    3.0701   -0.3288    0.0000 H   0  0  0  0  0  0  0  0  0  0  0  0
    3.0700   -1.7337    0.0000 H   0  0  0  0  0  0  0  0  0  0  0  0
    3.0700   -2.8037    0.0000 H   0  0  0  0  0  0  0  0  0  0  0  0
   -1.2497    4.8473    0.0000 H   0  0  0  0  0  0  0  0  0  0  0  0
   -2.8579    5.7758    0.0000 H   0  0  0  0  0  0  0  0  0  0  0  0
   -4.4661    2.9903    0.0000 H   0  0  0  0  0  0  0  0  0  0  0  0
   -4.4661    4.8473    0.0000 H   0  0  0  0  0  0  0  0  0  0  0  0
    3.7516   -4.8473    0.0000 H   0  0  0  0  0  0  0  0  0  0  0  0
    0.5352   -4.8473    0.0000 H   0  0  0  0  0  0  0  0  0  0  0  0
    2.1434   -5.7758    0.0000 H   0  0  0  0  0  0  0  0  0  0  0  0
  1 17  1  0  0  0  0
  2 17  1  0  0  0  0
  3 26  1  0  0  0  0
  4 16  2  0  0  0  0
  5 18  2  0  0  0  0
  6 12  1  0  0  0  0
  6 13  1  0  0  0  0
  6 16  1  0  0  0  0
  7 14  1  0  0  0  0
  7 15  1  0  0  0  0
  7 32  1  0  0  0  0
  8 15  2  0  0  0  0
  8 19  1  0  0  0  0
  9 18  1  0  0  0  0
  9 22  1  0  0  0  0
  9 33  1  0  0  0  0
 10 21  1  0  0  0  0
 10 27  2  0  0  0  0
 11 24  1  0  0  0  0
 11 30  2  0  0  0  0
 12 18  1  0  0  0  0
 12 34  1  0  0  0  0
 12 35  1  0  0  0  0
 13 19  2  0  0  0  0
 13 20  1  0  0  0  0
 14 17  1  0  0  0  0
 14 36  1  0  0  0  0
 14 37  1  0  0  0  0
 15 16  1  0  0  0  0
 17 21  1  0  0  0  0
 19 38  1  0  0  0  0
 20 39  1  0  0  0  0
 20 40  1  0  0  0  0
 20 41  1  0  0  0  0
 21 23  2  0  0  0  0
 22 24  1  0  0  0  0
 22 42  1  0  0  0  0
 22 43  1  0  0  0  0
 23 25  1  0  0  0  0
 23 44  1  0  0  0  0
 24 26  2  0  0  0  0
 25 28  2  0  0  0  0
 25 45  1  0  0  0  0
 26 29  1  0  0  0  0
 27 28  1  0  0  0  0
 27 46  1  0  0  0  0
 28 47  1  0  0  0  0
 29 31  2  0  0  0  0
 29 48  1  0  0  0  0
 30 31  1  0  0  0  0
 30 49  1  0  0  0  0
 31 50  1  0  0  0  0
M  END
>  <DRUGBANK_ID>
DB07548

>  <COMMON_NAME>
2-(6-Chloro-3-{[2,2-difluoro-2-(2-pyridinyl)ethyl]amino}-2-oxo-1(2H)-pyrazinyl)-N-[(2-fluoro-6-pyridinyl)methyl]acetamide

>  <CAS_NUMBER>
312904-60-2

$$$$
