
 OpenBabel10282417072D

132143  0  0  1  0  0  0  0  0999 V2000
   13.3658    1.4005    0.0000 O   0  0  0  0  0  0  0  0  0  0  0  0
   13.6211    0.6161    0.0000 C   0  0  1  0  0  0  0  0  0  0  0  0
   13.0621    0.0158    0.0000 C   0  0  0  0  0  0  0  0  0  0  0  0
   13.3750   -0.7253    0.0000 C   0  0  0  0  0  0  0  0  0  0  0  0
   14.3489   -0.8724    0.0000 C   0  0  1  0  0  0  0  0  0  0  0  0
   13.9260   -1.5808    0.0000 O   0  0  0  0  0  0  0  0  0  0  0  0
   14.9391   -1.6578    0.0000 C   0  0  1  0  0  0  0  0  0  0  0  0
   15.7576   -1.6472    0.0000 C   0  0  0  0  0  0  0  0  0  0  0  0
   16.0563   -0.8984    0.0000 C   0  0  0  0  0  0  0  0  0  0  0  0
   16.8810   -0.8125    0.0000 C   0  0  0  0  0  0  0  0  0  0  0  0
   17.1927   -0.0470    0.0000 C   0  0  0  0  0  0  0  0  0  0  0  0
   16.6727    0.6091    0.0000 C   0  0  0  0  0  0  0  0  0  0  0  0
   16.9902    1.3706    0.0000 O   0  0  0  0  0  0  0  0  0  0  0  0
   17.8084    1.4763    0.0000 C   0  0  0  0  0  0  0  0  0  0  0  0
   18.3091    0.8206    0.0000 O   0  0  0  0  0  0  0  0  0  0  0  0
   18.1259    2.2378    0.0000 C   0  0  0  0  0  0  0  0  0  0  0  0
   18.9441    2.3435    0.0000 C   0  0  0  0  0  0  0  0  0  0  0  0
   19.2616    3.1050    0.0000 C   0  0  0  0  0  0  0  0  0  0  0  0
   20.0798    3.2107    0.0000 C   0  0  0  0  0  0  0  0  0  0  0  0
   20.3974    3.9721    0.0000 C   0  0  0  0  0  0  0  0  0  0  0  0
   21.2156    4.0779    0.0000 C   0  0  0  0  0  0  0  0  0  0  0  0
   21.5331    4.8393    0.0000 C   0  0  0  0  0  0  0  0  0  0  0  0
   22.3513    4.9451    0.0000 C   0  0  0  0  0  0  0  0  0  0  0  0
   22.6688    5.7065    0.0000 C   0  0  0  0  0  0  0  0  0  0  0  0
   22.1681    6.3622    0.0000 O   0  0  0  0  0  0  0  0  0  0  0  0
   23.4870    5.8123    0.0000 O   0  0  0  0  0  0  0  0  0  0  0  0
   23.8045    6.5737    0.0000 C   0  0  0  0  0  0  0  0  0  0  0  0
   23.2743    7.2427    0.0000 C   0  0  0  0  0  0  0  0  0  0  0  0
   22.4583    7.4359    0.0000 O   0  0  0  0  0  0  0  0  0  0  0  0
   22.3469    8.2624    0.0000 C   0  0  1  0  0  0  0  0  0  0  0  0
   21.6517    8.7362    0.0000 C   0  0  1  0  0  0  0  0  0  0  0  0
   20.9147    8.3653    0.0000 O   0  0  0  0  0  0  0  0  0  0  0  0
   21.6848    9.5558    0.0000 C   0  0  0  0  0  0  0  0  0  0  0  0
   22.4312    9.8554    0.0000 C   0  0  0  0  0  0  0  0  0  0  0  0
   23.2211    9.2670    0.0000 C   0  0  1  0  0  0  0  0  0  0  0  0
   23.4267   10.0660    0.0000 O   0  0  0  0  0  0  0  0  0  0  0  0
   24.1945    9.4007    0.0000 C   0  0  1  0  0  0  0  0  0  0  0  0
   24.7632    8.8121    0.0000 C   0  0  0  0  0  0  0  0  0  0  0  0
   24.4420    8.0727    0.0000 C   0  0  0  0  0  0  0  0  0  0  0  0
   24.9612    7.4261    0.0000 C   0  0  0  0  0  0  0  0  0  0  0  0
   24.6367    6.6660    0.0000 C   0  0  0  0  0  0  0  0  0  0  0  0
   23.6151    7.9894    0.0000 C   0  0  0  0  0  0  0  0  0  0  0  0
   23.0888    8.6952    0.0000 C   0  0  1  0  0  0  0  0  0  0  0  0
   22.9190    9.7167    0.0000 C   0  0  0  0  0  0  0  0  0  0  0  0
   23.4488   10.4427    0.0000 C   0  0  0  0  0  0  0  0  0  0  0  0
   24.2294   10.2009    0.0000 N   0  0  0  0  0  0  0  0  0  0  0  0
   24.9040   10.6758    0.0000 C   0  0  0  0  0  0  0  0  0  0  0  0
   24.8300   11.4975    0.0000 C   0  0  0  0  0  0  0  0  0  0  0  0
   24.1967   12.0262    0.0000 C   0  0  0  0  0  0  0  0  0  0  0  0
   24.7254   12.6595    0.0000 C   0  0  0  0  0  0  0  0  0  0  0  0
   25.3587   12.1308    0.0000 C   0  0  0  0  0  0  0  0  0  0  0  0
   15.8241    0.5150    0.0000 C   0  0  0  0  0  0  0  0  0  0  0  0
   15.5335   -0.2526    0.0000 C   0  0  0  0  0  0  0  0  0  0  0  0
   14.6615   -0.3762    0.0000 C   0  0  2  0  0  0  0  0  0  0  0  0
   13.8164   -0.9749    0.0000 C   0  0  0  0  0  0  0  0  0  0  0  0
   13.6741   -1.8623    0.0000 C   0  0  0  0  0  0  0  0  0  0  0  0
   14.3955   -2.2461    0.0000 N   0  0  0  0  0  0  0  0  0  0  0  0
   14.5334   -3.0595    0.0000 C   0  0  0  0  0  0  0  0  0  0  0  0
   13.8979   -3.5856    0.0000 C   0  0  0  0  0  0  0  0  0  0  0  0
   13.8205   -4.4070    0.0000 C   0  0  0  0  0  0  0  0  0  0  0  0
   12.9992   -4.3296    0.0000 C   0  0  0  0  0  0  0  0  0  0  0  0
   13.0765   -3.5083    0.0000 C   0  0  0  0  0  0  0  0  0  0  0  0
   14.4469    0.4558    0.0000 C   0  0  1  0  0  0  0  0  0  0  0  0
   15.1124    0.9585    0.0000 O   0  0  0  0  0  0  0  0  0  0  0  0
   14.0145    2.1217    0.0000 H   0  0  0  0  0  0  0  0  0  0  0  0
   12.5763    0.8471    0.0000 H   0  0  0  0  0  0  0  0  0  0  0  0
   12.0085    0.2022    0.0000 H   0  0  0  0  0  0  0  0  0  0  0  0
   12.3950   -0.8207    0.0000 H   0  0  0  0  0  0  0  0  0  0  0  0
   12.7185   -1.5702    0.0000 H   0  0  0  0  0  0  0  0  0  0  0  0
   13.7720   -1.7189    0.0000 H   0  0  0  0  0  0  0  0  0  0  0  0
   12.9561   -1.5666    0.0000 H   0  0  0  0  0  0  0  0  0  0  0  0
   13.8705   -1.6035    0.0000 H   0  0  0  0  0  0  0  0  0  0  0  0
   16.3636   -2.5290    0.0000 H   0  0  0  0  0  0  0  0  0  0  0  0
   16.8210   -1.5284    0.0000 H   0  0  0  0  0  0  0  0  0  0  0  0
   17.5006   -1.6378    0.0000 H   0  0  0  0  0  0  0  0  0  0  0  0
   18.2143    0.0988    0.0000 H   0  0  0  0  0  0  0  0  0  0  0  0
   17.4765    3.0882    0.0000 H   0  0  0  0  0  0  0  0  0  0  0  0
   18.5377    3.2254    0.0000 H   0  0  0  0  0  0  0  0  0  0  0  0
   19.5935    1.4931    0.0000 H   0  0  0  0  0  0  0  0  0  0  0  0
   20.0053    2.4807    0.0000 H   0  0  0  0  0  0  0  0  0  0  0  0
   18.6122    3.9554    0.0000 H   0  0  0  0  0  0  0  0  0  0  0  0
   19.6734    4.0926    0.0000 H   0  0  0  0  0  0  0  0  0  0  0  0
   20.7291    2.3602    0.0000 H   0  0  0  0  0  0  0  0  0  0  0  0
   21.1410    3.3477    0.0000 H   0  0  0  0  0  0  0  0  0  0  0  0
   19.7481    4.8225    0.0000 H   0  0  0  0  0  0  0  0  0  0  0  0
   20.8092    4.9597    0.0000 H   0  0  0  0  0  0  0  0  0  0  0  0
   21.8650    3.2275    0.0000 H   0  0  0  0  0  0  0  0  0  0  0  0
   22.2768    4.2151    0.0000 H   0  0  0  0  0  0  0  0  0  0  0  0
   20.8837    5.6897    0.0000 H   0  0  0  0  0  0  0  0  0  0  0  0
   21.9449    5.8269    0.0000 H   0  0  0  0  0  0  0  0  0  0  0  0
   23.0007    4.0947    0.0000 H   0  0  0  0  0  0  0  0  0  0  0  0
   23.4125    5.0823    0.0000 H   0  0  0  0  0  0  0  0  0  0  0  0
   21.4365    7.7001    0.0000 H   0  0  0  0  0  0  0  0  0  0  0  0
   21.5811    7.6685    0.0000 H   0  0  0  0  0  0  0  0  0  0  0  0
   20.1038    8.8977    0.0000 H   0  0  0  0  0  0  0  0  0  0  0  0
   20.8107   10.1729    0.0000 H   0  0  0  0  0  0  0  0  0  0  0  0
   21.8092   10.6185    0.0000 H   0  0  0  0  0  0  0  0  0  0  0  0
   22.5691   10.9165    0.0000 H   0  0  0  0  0  0  0  0  0  0  0  0
   23.4165   10.2727    0.0000 H   0  0  0  0  0  0  0  0  0  0  0  0
   24.3611   10.3264    0.0000 H   0  0  0  0  0  0  0  0  0  0  0  0
   23.4036   10.1214    0.0000 H   0  0  0  0  0  0  0  0  0  0  0  0
   25.8161    9.0028    0.0000 H   0  0  0  0  0  0  0  0  0  0  0  0
   25.4277    7.9735    0.0000 H   0  0  0  0  0  0  0  0  0  0  0  0
   25.9836    7.5666    0.0000 H   0  0  0  0  0  0  0  0  0  0  0  0
   25.2521    5.8375    0.0000 H   0  0  0  0  0  0  0  0  0  0  0  0
   21.8779    9.9636    0.0000 H   0  0  0  0  0  0  0  0  0  0  0  0
   22.5483   10.7204    0.0000 H   0  0  0  0  0  0  0  0  0  0  0  0
   23.1122   11.4584    0.0000 H   0  0  0  0  0  0  0  0  0  0  0  0
   24.1980   11.2067    0.0000 H   0  0  0  0  0  0  0  0  0  0  0  0
   25.8749   10.2261    0.0000 H   0  0  0  0  0  0  0  0  0  0  0  0
   25.7789   11.2918    0.0000 H   0  0  0  0  0  0  0  0  0  0  0  0
   24.7341   12.5632    0.0000 H   0  0  0  0  0  0  0  0  0  0  0  0
   23.1310   11.9303    0.0000 H   0  0  0  0  0  0  0  0  0  0  0  0
   23.7002   12.9741    0.0000 H   0  0  0  0  0  0  0  0  0  0  0  0
   24.6295   13.7252    0.0000 H   0  0  0  0  0  0  0  0  0  0  0  0
   25.6733   13.1560    0.0000 H   0  0  0  0  0  0  0  0  0  0  0  0
   26.4244   12.2267    0.0000 H   0  0  0  0  0  0  0  0  0  0  0  0
   25.8552   11.1829    0.0000 H   0  0  0  0  0  0  0  0  0  0  0  0
   12.9080   -0.4095    0.0000 H   0  0  0  0  0  0  0  0  0  0  0  0
   12.8427   -1.4186    0.0000 H   0  0  0  0  0  0  0  0  0  0  0  0
   12.7160   -2.3387    0.0000 H   0  0  0  0  0  0  0  0  0  0  0  0
   13.6594   -2.9322    0.0000 H   0  0  0  0  0  0  0  0  0  0  0  0
   15.5364   -3.4321    0.0000 H   0  0  0  0  0  0  0  0  0  0  0  0
   14.7122   -4.1145    0.0000 H   0  0  0  0  0  0  0  0  0  0  0  0
   13.0737   -4.2679    0.0000 H   0  0  0  0  0  0  0  0  0  0  0  0
   14.5028   -5.2313    0.0000 H   0  0  0  0  0  0  0  0  0  0  0  0
   13.3201   -5.3528    0.0000 H   0  0  0  0  0  0  0  0  0  0  0  0
   12.1750   -5.0119    0.0000 H   0  0  0  0  0  0  0  0  0  0  0  0
   12.0534   -3.8293    0.0000 H   0  0  0  0  0  0  0  0  0  0  0  0
   12.3941   -2.6841    0.0000 H   0  0  0  0  0  0  0  0  0  0  0  0
   13.5768   -2.5625    0.0000 H   0  0  0  0  0  0  0  0  0  0  0  0
   15.4572    0.1033    0.0000 H   0  0  0  0  0  0  0  0  0  0  0  0
  1 65  1  0  0  0  0
  2  1  1  0  0  0  0
  2  3  1  0  0  0  0
  2 66  1  1  0  0  0
  3  4  1  0  0  0  0
  3 67  1  0  0  0  0
  3 68  1  0  0  0  0
  4 69  1  0  0  0  0
  4 70  1  0  0  0  0
  5  4  1  0  0  0  0
  5  6  1  1  0  0  0
  5  7  1  0  0  0  0
  5 54  1  0  0  0  0
  6 71  1  0  0  0  0
  7  8  1  0  0  0  0
  7 57  1  0  0  0  0
  7 72  1  6  0  0  0
  8  9  1  0  0  0  0
  8 73  1  0  0  0  0
  8 74  1  0  0  0  0
  9 10  2  0  0  0  0
  9 53  1  0  0  0  0
 10 11  1  0  0  0  0
 10 75  1  0  0  0  0
 11 12  2  0  0  0  0
 11 76  1  0  0  0  0
 12 13  1  0  0  0  0
 12 52  1  0  0  0  0
 13 14  1  0  0  0  0
 14 15  2  0  0  0  0
 14 16  1  0  0  0  0
 16 17  1  0  0  0  0
 16 77  1  0  0  0  0
 16 78  1  0  0  0  0
 17 18  1  0  0  0  0
 17 79  1  0  0  0  0
 17 80  1  0  0  0  0
 18 19  1  0  0  0  0
 18 81  1  0  0  0  0
 18 82  1  0  0  0  0
 19 20  1  0  0  0  0
 19 83  1  0  0  0  0
 19 84  1  0  0  0  0
 20 21  1  0  0  0  0
 20 85  1  0  0  0  0
 20 86  1  0  0  0  0
 21 22  1  0  0  0  0
 21 87  1  0  0  0  0
 21 88  1  0  0  0  0
 22 23  1  0  0  0  0
 22 89  1  0  0  0  0
 22 90  1  0  0  0  0
 23 24  1  0  0  0  0
 23 91  1  0  0  0  0
 23 92  1  0  0  0  0
 24 25  2  0  0  0  0
 24 26  1  0  0  0  0
 26 27  1  0  0  0  0
 27 28  2  0  0  0  0
 27 41  1  0  0  0  0
 28 29  1  0  0  0  0
 28 42  1  0  0  0  0
 30 29  1  0  0  0  0
 30 31  1  0  0  0  0
 30 43  1  0  0  0  0
 30 93  1  6  0  0  0
 31 32  1  0  0  0  0
 31 33  1  0  0  0  0
 31 94  1  6  0  0  0
 32 95  1  0  0  0  0
 33 34  1  0  0  0  0
 33 96  1  0  0  0  0
 33 97  1  0  0  0  0
 34 98  1  0  0  0  0
 34 99  1  0  0  0  0
 35 34  1  0  0  0  0
 35 36  1  6  0  0  0
 35 37  1  0  0  0  0
 36100  1  0  0  0  0
 37 38  1  0  0  0  0
 37 46  1  0  0  0  0
 37101  1  1  0  0  0
 38 39  1  0  0  0  0
 38102  1  0  0  0  0
 38103  1  0  0  0  0
 39 40  1  0  0  0  0
 39 42  2  0  0  0  0
 40 41  2  0  0  0  0
 40104  1  0  0  0  0
 41105  1  0  0  0  0
 43 42  1  6  0  0  0
 43 35  1  0  0  0  0
 43 44  1  0  0  0  0
 44 45  1  0  0  0  0
 44106  1  0  0  0  0
 44107  1  0  0  0  0
 45 46  1  0  0  0  0
 45108  1  0  0  0  0
 45109  1  0  0  0  0
 46 47  1  0  0  0  0
 47 48  1  0  0  0  0
 47110  1  0  0  0  0
 47111  1  0  0  0  0
 48 49  1  0  0  0  0
 48 51  1  0  0  0  0
 48112  1  0  0  0  0
 49 50  1  0  0  0  0
 49113  1  0  0  0  0
 49114  1  0  0  0  0
 50 51  1  0  0  0  0
 50115  1  0  0  0  0
 50116  1  0  0  0  0
 51117  1  0  0  0  0
 51118  1  0  0  0  0
 52 53  2  0  0  0  0
 52 64  1  0  0  0  0
 54 53  1  1  0  0  0
 54 55  1  0  0  0  0
 54 63  1  0  0  0  0
 55 56  1  0  0  0  0
 55119  1  0  0  0  0
 55120  1  0  0  0  0
 56 57  1  0  0  0  0
 56121  1  0  0  0  0
 56122  1  0  0  0  0
 57 58  1  0  0  0  0
 58 59  1  0  0  0  0
 58123  1  0  0  0  0
 58124  1  0  0  0  0
 59 60  1  0  0  0  0
 59 62  1  0  0  0  0
 59125  1  0  0  0  0
 60 61  1  0  0  0  0
 60126  1  0  0  0  0
 60127  1  0  0  0  0
 61 62  1  0  0  0  0
 61128  1  0  0  0  0
 61129  1  0  0  0  0
 62130  1  0  0  0  0
 62131  1  0  0  0  0
 63  2  1  0  0  0  0
 63 64  1  0  0  0  0
 63132  1  1  0  0  0
M  END
>  <DRUGBANK_ID>
DB15341

>  <COMMON_NAME>
Dinalbuphine sebacate

>  <CAS_NUMBER>
311768-81-7

>  <UNII>
464OXX39Y6

>  <SYNONYMS>
Dinalbuphine sebacate; NALBUPHINE SEBACATE

$$$$
