
 OpenBabel10282417072D

 32 33  0  0  0  0  0  0  0  0999 V2000
    2.5387    2.3320    0.0000 Br  0  0  0  0  0  0  0  0  0  0  0  0
   -0.8443   -0.3930    0.0000 O   0  0  0  0  0  0  0  0  0  0  0  0
    1.0947   -2.0002    0.0000 O   0  0  0  0  0  0  0  0  0  0  0  0
   -1.7527   -2.3320    0.0000 O   0  0  0  0  0  0  0  0  0  0  0  0
    2.9114    0.1891    0.0000 O   0  0  0  0  0  0  0  0  0  0  0  0
   -2.9114   -1.2199    0.0000 O   0  0  0  0  0  0  0  0  0  0  0  0
    0.5998   -0.6784    0.0000 N   0  0  0  0  0  0  0  0  0  0  0  0
    2.0030   -0.9287    0.0000 N   0  0  0  0  0  0  0  0  0  0  0  0
   -0.1863   -0.9287    0.0000 C   0  0  1  0  0  0  0  0  0  0  0  0
    1.2169   -1.1733    0.0000 C   0  0  0  0  0  0  0  0  0  0  0  0
   -1.5081   -0.8880    0.0000 C   0  0  1  0  0  0  0  0  0  0  0  0
    0.7628    0.1484    0.0000 C   0  0  0  0  0  0  0  0  0  0  0  0
   -1.2577   -1.6741    0.0000 C   0  0  2  0  0  0  0  0  0  0  0  0
   -0.4308   -1.6741    0.0000 C   0  0  0  0  0  0  0  0  0  0  0  0
    1.5488    0.4337    0.0000 C   0  0  0  0  0  0  0  0  0  0  0  0
    2.1661   -0.1018    0.0000 C   0  0  0  0  0  0  0  0  0  0  0  0
   -2.2942   -0.6376    0.0000 C   0  0  0  0  0  0  0  0  0  0  0  0
    1.6712    1.2606    0.0000 C   0  0  0  0  0  0  0  0  0  0  0  0
    2.4572    1.5109    0.0000 C   0  0  0  0  0  0  0  0  0  0  0  0
   -2.7156   -2.2145    0.0000 H   0  0  0  0  0  0  0  0  0  0  0  0
   -3.8407   -0.9417    0.0000 H   0  0  0  0  0  0  0  0  0  0  0  0
    2.7353   -1.5867    0.0000 H   0  0  0  0  0  0  0  0  0  0  0  0
    0.0132    0.1225    0.0000 H   0  0  0  0  0  0  0  0  0  0  0  0
   -1.6851    0.1673    0.0000 H   0  0  0  0  0  0  0  0  0  0  0  0
   -0.0208    0.8200    0.0000 H   0  0  0  0  0  0  0  0  0  0  0  0
   -2.3126   -1.4948    0.0000 H   0  0  0  0  0  0  0  0  0  0  0  0
    0.1969   -2.5406    0.0000 H   0  0  0  0  0  0  0  0  0  0  0  0
   -0.9172   -2.6271    0.0000 H   0  0  0  0  0  0  0  0  0  0  0  0
   -2.5318    0.4057    0.0000 H   0  0  0  0  0  0  0  0  0  0  0  0
   -1.5063    0.0864    0.0000 H   0  0  0  0  0  0  0  0  0  0  0  0
    0.8850    1.9292    0.0000 H   0  0  0  0  0  0  0  0  0  0  0  0
    3.2592    0.8614    0.0000 H   0  0  0  0  0  0  0  0  0  0  0  0
  1 19  1  0  0  0  0
  2  9  1  0  0  0  0
  2 11  1  0  0  0  0
  3 10  2  0  0  0  0
  4 20  1  0  0  0  0
  5 16  2  0  0  0  0
  6 17  1  0  0  0  0
  6 21  1  0  0  0  0
  7 10  1  0  0  0  0
  7 12  1  0  0  0  0
  8 10  1  0  0  0  0
  8 16  1  0  0  0  0
  8 22  1  0  0  0  0
  9  7  1  0  0  0  0
  9 14  1  0  0  0  0
  9 23  1  6  0  0  0
 11 13  1  0  0  0  0
 11 17  1  0  0  0  0
 11 24  1  6  0  0  0
 12 15  2  0  0  0  0
 12 25  1  0  0  0  0
 13  4  1  0  0  0  0
 13 14  1  0  0  0  0
 13 26  1  1  0  0  0
 14 27  1  0  0  0  0
 14 28  1  0  0  0  0
 15 16  1  0  0  0  0
 15 18  1  0  0  0  0
 17 29  1  0  0  0  0
 17 30  1  0  0  0  0
 18 19  2  0  0  0  0
 18 31  1  0  0  0  0
 19 32  1  0  0  0  0
M  END
>  <DRUGBANK_ID>
DB03312

>  <SECONDARY_ACCESSION_NUMBERS>
EXPT00783; DB05041

>  <COMMON_NAME>
Brivudine

>  <CAS_NUMBER>
69304-47-8

>  <UNII>
2M3055079H

>  <SYNONYMS>
(E)-5-(2-Bromovinyl)-deoxyuridine; Brivudina; Brivudine; Brivudinum; BVdU

$$$$
