LZK
 OpenBabel10282417072D

 37 39  0  0  0  0  0  0  0  0999 V2000
   -1.3623  -10.2636    0.0000 N   0  0  0  0  0  0  0  0  0  0  0  0
   -0.6478  -10.6761    0.0000 C   0  0  0  0  0  0  0  0  0  0  0  0
    0.0667  -10.2636    0.0000 N   0  0  0  0  0  0  0  0  0  0  0  0
   -0.6478  -11.5011    0.0000 N   0  0  0  0  0  0  0  0  0  0  0  0
    0.0667  -11.9136    0.0000 C   0  0  0  0  0  0  0  0  0  0  0  0
    0.7811  -11.5011    0.0000 C   0  0  0  0  0  0  0  0  0  0  0  0
    0.7811  -10.6761    0.0000 C   0  0  0  0  0  0  0  0  0  0  0  0
    1.4956  -10.2636    0.0000 N   0  0  0  0  0  0  0  0  0  0  0  0
    2.2101  -10.6761    0.0000 C   0  0  0  0  0  0  0  0  0  0  0  0
    2.9246  -10.2636    0.0000 N   0  0  0  0  0  0  0  0  0  0  0  0
    1.4956  -11.9136    0.0000 C   0  0  0  0  0  0  0  0  0  0  0  0
    2.2101  -11.5011    0.0000 C   0  0  0  0  0  0  0  0  0  0  0  0
    2.9246  -11.9136    0.0000 C   0  0  0  0  0  0  0  0  0  0  0  0
    3.6390  -11.5011    0.0000 C   0  0  0  0  0  0  0  0  0  0  0  0
    3.6390  -10.6761    0.0000 O   0  0  0  0  0  0  0  0  0  0  0  0
    4.3535  -10.2636    0.0000 C   0  0  0  0  0  0  0  0  0  0  0  0
    2.9246  -12.7386    0.0000 C   0  0  0  0  0  0  0  0  0  0  0  0
    2.2101  -13.1511    0.0000 O   0  0  0  0  0  0  0  0  0  0  0  0
    2.2101  -13.9761    0.0000 C   0  0  0  0  0  0  0  0  0  0  0  0
    3.6390  -13.1511    0.0000 C   0  0  0  0  0  0  0  0  0  0  0  0
    4.3535  -12.7386    0.0000 C   0  0  0  0  0  0  0  0  0  0  0  0
    4.3535  -11.9136    0.0000 C   0  0  0  0  0  0  0  0  0  0  0  0
   -1.3623   -9.2791    0.0000 H   0  0  0  0  0  0  0  0  0  0  0  0
   -2.2149  -10.7559    0.0000 H   0  0  0  0  0  0  0  0  0  0  0  0
    0.0667  -12.9456    0.0000 H   0  0  0  0  0  0  0  0  0  0  0  0
    3.7772  -10.7559    0.0000 H   0  0  0  0  0  0  0  0  0  0  0  0
    2.9246   -9.2791    0.0000 H   0  0  0  0  0  0  0  0  0  0  0  0
    1.4956  -12.9456    0.0000 H   0  0  0  0  0  0  0  0  0  0  0  0
    5.2801  -10.7986    0.0000 H   0  0  0  0  0  0  0  0  0  0  0  0
    4.3535   -9.1936    0.0000 H   0  0  0  0  0  0  0  0  0  0  0  0
    5.2802   -9.7286    0.0000 H   0  0  0  0  0  0  0  0  0  0  0  0
    1.2835  -14.5111    0.0000 H   0  0  0  0  0  0  0  0  0  0  0  0
    3.1367  -14.5111    0.0000 H   0  0  0  0  0  0  0  0  0  0  0  0
    2.2101  -15.0461    0.0000 H   0  0  0  0  0  0  0  0  0  0  0  0
    3.6390  -14.1831    0.0000 H   0  0  0  0  0  0  0  0  0  0  0  0
    5.2472  -13.2546    0.0000 H   0  0  0  0  0  0  0  0  0  0  0  0
    5.2472  -11.3976    0.0000 H   0  0  0  0  0  0  0  0  0  0  0  0
  1  2  1  0  0  0  0
  1 23  1  0  0  0  0
  1 24  1  0  0  0  0
  2  3  1  0  0  0  0
  2  4  2  0  0  0  0
  3  7  2  0  0  0  0
  4  5  1  0  0  0  0
  5  6  2  0  0  0  0
  5 25  1  0  0  0  0
  6  7  1  0  0  0  0
  6 11  1  0  0  0  0
  7  8  1  0  0  0  0
  8  9  2  0  0  0  0
  9 10  1  0  0  0  0
  9 12  1  0  0  0  0
 10 26  1  0  0  0  0
 10 27  1  0  0  0  0
 11 12  2  0  0  0  0
 11 28  1  0  0  0  0
 12 13  1  0  0  0  0
 13 14  1  0  0  0  0
 13 17  2  0  0  0  0
 14 15  1  0  0  0  0
 14 22  2  0  0  0  0
 15 16  1  0  0  0  0
 16 29  1  0  0  0  0
 16 30  1  0  0  0  0
 16 31  1  0  0  0  0
 17 18  1  0  0  0  0
 17 20  1  0  0  0  0
 18 19  1  0  0  0  0
 19 32  1  0  0  0  0
 19 33  1  0  0  0  0
 19 34  1  0  0  0  0
 20 21  2  0  0  0  0
 20 35  1  0  0  0  0
 21 22  1  0  0  0  0
 21 36  1  0  0  0  0
 22 37  1  0  0  0  0
M  END
>  <DRUGBANK_ID>
DB08145

>  <COMMON_NAME>
6-(2,6-DIMETHOXYPHENYL)PYRIDO[2,3-D]PYRIMIDINE-2,7-DIAMINE

$$$$
