
 OpenBabel10282417072D

 29 28  0  0  0  0  0  0  0  0999 V2000
    1.9520    1.9520    0.0000 C   0  0  0  0  0  0  0  0  0  0  0  0
    1.9520    1.1270    0.0000 C   0  0  3  0  0  0  0  0  0  0  0  0
    1.2375    0.7145    0.0000 C   0  0  0  0  0  0  0  0  0  0  0  0
    0.5230    1.1270    0.0000 C   0  0  0  0  0  0  0  0  0  0  0  0
   -0.1914    0.7145    0.0000 C   0  0  0  0  0  0  0  0  0  0  0  0
   -0.9059    1.1270    0.0000 C   0  0  0  0  0  0  0  0  0  0  0  0
   -1.6204    0.7145    0.0000 C   0  0  0  0  0  0  0  0  0  0  0  0
   -0.9059    1.9520    0.0000 C   0  0  0  0  0  0  0  0  0  0  0  0
    2.6664    0.7145    0.0000 N   0  0  0  0  0  0  0  0  0  0  0  0
    3.3809    1.1270    0.0000 C   0  0  0  0  0  0  0  0  0  0  0  0
    2.8786    2.4870    0.0000 H   0  0  0  0  0  0  0  0  0  0  0  0
    1.0254    2.4870    0.0000 H   0  0  0  0  0  0  0  0  0  0  0  0
    1.9520    3.0220    0.0000 H   0  0  0  0  0  0  0  0  0  0  0  0
    1.0254    1.6620    0.0000 H   0  0  0  0  0  0  0  0  0  0  0  0
    1.2375   -0.3555    0.0000 H   0  0  0  0  0  0  0  0  0  0  0  0
    0.3109    0.1795    0.0000 H   0  0  0  0  0  0  0  0  0  0  0  0
    0.5230    2.1970    0.0000 H   0  0  0  0  0  0  0  0  0  0  0  0
   -0.4037    1.6620    0.0000 H   0  0  0  0  0  0  0  0  0  0  0  0
   -0.1914   -0.3175    0.0000 H   0  0  0  0  0  0  0  0  0  0  0  0
   -2.5470    1.2495    0.0000 H   0  0  0  0  0  0  0  0  0  0  0  0
   -1.6204   -0.3555    0.0000 H   0  0  0  0  0  0  0  0  0  0  0  0
   -2.5471    0.1795    0.0000 H   0  0  0  0  0  0  0  0  0  0  0  0
    0.0207    2.4870    0.0000 H   0  0  0  0  0  0  0  0  0  0  0  0
   -1.8325    2.4870    0.0000 H   0  0  0  0  0  0  0  0  0  0  0  0
   -0.9059    3.0220    0.0000 H   0  0  0  0  0  0  0  0  0  0  0  0
    2.6664   -0.3055    0.0000 H   0  0  0  0  0  0  0  0  0  0  0  0
    4.3075    0.5920    0.0000 H   0  0  0  0  0  0  0  0  0  0  0  0
    3.3809    2.1970    0.0000 H   0  0  0  0  0  0  0  0  0  0  0  0
    4.3076    1.6620    0.0000 H   0  0  0  0  0  0  0  0  0  0  0  0
  1  2  1  0  0  0  0
  1 11  1  0  0  0  0
  1 12  1  0  0  0  0
  1 13  1  0  0  0  0
  2  3  1  0  0  0  0
  2  9  1  0  0  0  0
  2 14  1  0  0  0  0
  3  4  1  0  0  0  0
  3 15  1  0  0  0  0
  3 16  1  0  0  0  0
  4  5  1  0  0  0  0
  4 17  1  0  0  0  0
  4 18  1  0  0  0  0
  5  6  2  0  0  0  0
  5 19  1  0  0  0  0
  6  7  1  0  0  0  0
  6  8  1  0  0  0  0
  7 20  1  0  0  0  0
  7 21  1  0  0  0  0
  7 22  1  0  0  0  0
  8 23  1  0  0  0  0
  8 24  1  0  0  0  0
  8 25  1  0  0  0  0
  9 10  1  0  0  0  0
  9 26  1  0  0  0  0
 10 27  1  0  0  0  0
 10 28  1  0  0  0  0
 10 29  1  0  0  0  0
M  END
>  <DRUGBANK_ID>
DB06706

>  <COMMON_NAME>
Isometheptene

>  <CAS_NUMBER>
503-01-5

>  <UNII>
Y7L24THH6T

>  <SYNONYMS>
Isometepteno; Isometheptene; Isometheptenum

$$$$
