
 OpenBabel10282417072D

 27 27  0  0  1  0  0  0  0  0999 V2000
    2.3907    0.2063    0.0000 C   0  0  0  0  0  0  0  0  0  0  0  0
    1.6763    0.6188    0.0000 O   0  0  0  0  0  0  0  0  0  0  0  0
    0.9618    0.2063    0.0000 C   0  0  2  0  0  0  0  0  0  0  0  0
    0.2473    0.6188    0.0000 O   0  0  0  0  0  0  0  0  0  0  0  0
   -0.4672    0.2063    0.0000 C   0  0  2  0  0  0  0  0  0  0  0  0
   -1.1816    0.6188    0.0000 C   0  0  0  0  0  0  0  0  0  0  0  0
   -1.1816    1.4438    0.0000 O   0  0  0  0  0  0  0  0  0  0  0  0
   -0.4672   -0.6187    0.0000 C   0  0  2  0  0  0  0  0  0  0  0  0
   -1.1816   -1.0312    0.0000 O   0  0  0  0  0  0  0  0  0  0  0  0
    0.2473   -1.0312    0.0000 C   0  0  2  0  0  0  0  0  0  0  0  0
    0.2473   -1.8562    0.0000 O   0  0  0  0  0  0  0  0  0  0  0  0
    0.9618   -0.6187    0.0000 C   0  0  1  0  0  0  0  0  0  0  0  0
    1.6763   -1.0312    0.0000 O   0  0  0  0  0  0  0  0  0  0  0  0
    2.3907   -0.8637    0.0000 H   0  0  0  0  0  0  0  0  0  0  0  0
    3.3174    0.7413    0.0000 H   0  0  0  0  0  0  0  0  0  0  0  0
    3.3173   -0.3287    0.0000 H   0  0  0  0  0  0  0  0  0  0  0  0
    0.9618    1.2763    0.0000 H   0  0  0  0  0  0  0  0  0  0  0  0
   -0.4672    1.2763    0.0000 H   0  0  0  0  0  0  0  0  0  0  0  0
   -2.1083    0.0838    0.0000 H   0  0  0  0  0  0  0  0  0  0  0  0
   -2.1082    1.1538    0.0000 H   0  0  0  0  0  0  0  0  0  0  0  0
   -0.3416    1.9288    0.0000 H   0  0  0  0  0  0  0  0  0  0  0  0
   -1.3939   -0.0837    0.0000 H   0  0  0  0  0  0  0  0  0  0  0  0
   -2.0217   -0.5462    0.0000 H   0  0  0  0  0  0  0  0  0  0  0  0
   -0.6793   -1.5662    0.0000 H   0  0  0  0  0  0  0  0  0  0  0  0
   -0.5927   -2.3412    0.0000 H   0  0  0  0  0  0  0  0  0  0  0  0
    0.9618   -1.6887    0.0000 H   0  0  0  0  0  0  0  0  0  0  0  0
    1.6763   -2.0012    0.0000 H   0  0  0  0  0  0  0  0  0  0  0  0
  1  2  1  0  0  0  0
  1 14  1  0  0  0  0
  1 15  1  0  0  0  0
  1 16  1  0  0  0  0
  3  2  1  0  0  0  0
  3  4  1  0  0  0  0
  3 12  1  0  0  0  0
  3 17  1  6  0  0  0
  4  5  1  0  0  0  0
  5  6  1  0  0  0  0
  5  8  1  0  0  0  0
  5 18  1  6  0  0  0
  6  7  1  0  0  0  0
  6 19  1  0  0  0  0
  6 20  1  0  0  0  0
  7 21  1  0  0  0  0
  8  9  1  0  0  0  0
  8 10  1  0  0  0  0
  8 22  1  6  0  0  0
  9 23  1  0  0  0  0
 10 11  1  0  0  0  0
 10 12  1  0  0  0  0
 10 24  1  6  0  0  0
 11 25  1  0  0  0  0
 12 13  1  0  0  0  0
 12 26  1  1  0  0  0
 13 27  1  0  0  0  0
M  END
>  <DRUGBANK_ID>
DB04046

>  <SECONDARY_ACCESSION_NUMBERS>
EXPT02122; DB03324

>  <COMMON_NAME>
Methyl beta-galactoside

>  <UNII>
64RYD088RJ

$$$$
