
 OpenBabel10282417072D

 61 65  0  0  0  0  0  0  0  0999 V2000
    0.7145   -5.3625    0.0000 C   0  0  0  0  0  0  0  0  0  0  0  0
   -0.0231    1.0550    0.0000 C   0  0  0  0  0  0  0  0  0  0  0  0
   -0.7145   -0.4125    0.0000 C   0  0  0  0  0  0  0  0  0  0  0  0
   -0.7145   -1.2375    0.0000 C   0  0  0  0  0  0  0  0  0  0  0  0
    0.0000    0.0000    0.0000 C   0  0  0  0  0  0  0  0  0  0  0  0
    0.0000   -1.6500    0.0000 C   0  0  0  0  0  0  0  0  0  0  0  0
    1.4289   -7.4250    0.0000 C   0  0  0  0  0  0  0  0  0  0  0  0
    1.4289   -6.6000    0.0000 C   0  0  0  0  0  0  0  0  0  0  0  0
    2.0964    1.3099    0.0000 C   0  0  0  0  0  0  0  0  0  0  0  0
    2.1434   -3.7125    0.0000 C   0  0  0  0  0  0  0  0  0  0  0  0
    0.7145   -3.7125    0.0000 C   0  0  0  0  0  0  0  0  0  0  0  0
    1.8414    2.0945    0.0000 C   0  0  0  0  0  0  0  0  0  0  0  0
    2.1434   -2.8875    0.0000 C   0  0  0  0  0  0  0  0  0  0  0  0
    0.7145   -2.8875    0.0000 C   0  0  0  0  0  0  0  0  0  0  0  0
    2.8579   -7.4250    0.0000 C   0  0  0  0  0  0  0  0  0  0  0  0
    2.1434   -7.8375    0.0000 C   0  0  0  0  0  0  0  0  0  0  0  0
    1.4289   -4.1250    0.0000 C   0  0  0  0  0  0  0  0  0  0  0  0
    0.7145   -0.4125    0.0000 C   0  0  0  0  0  0  0  0  0  0  0  0
    0.7145   -1.2375    0.0000 C   0  0  0  0  0  0  0  0  0  0  0  0
    2.1434   -6.1875    0.0000 C   0  0  0  0  0  0  0  0  0  0  0  0
    2.8579   -6.6000    0.0000 C   0  0  0  0  0  0  0  0  0  0  0  0
    1.4289    0.8250    0.0000 C   0  0  0  0  0  0  0  0  0  0  0  0
    1.4289   -0.0000    0.0000 C   0  0  0  0  0  0  0  0  0  0  0  0
    1.4289   -1.6500    0.0000 C   0  0  0  0  0  0  0  0  0  0  0  0
    2.1434   -5.3625    0.0000 C   0  0  0  0  0  0  0  0  0  0  0  0
    3.5724   -6.1875    0.0000 C   0  0  0  0  0  0  0  0  0  0  0  0
    2.1434   -8.6625    0.0000 F   0  0  0  0  0  0  0  0  0  0  0  0
    4.2868   -5.7750    0.0000 F   0  0  0  0  0  0  0  0  0  0  0  0
    3.1599   -5.4730    0.0000 F   0  0  0  0  0  0  0  0  0  0  0  0
    3.9849   -6.9020    0.0000 F   0  0  0  0  0  0  0  0  0  0  0  0
    1.0164    2.0945    0.0000 N   0  0  0  0  0  0  0  0  0  0  0  0
    2.1434   -0.4125    0.0000 N   0  0  0  0  0  0  0  0  0  0  0  0
    2.1434   -1.2375    0.0000 N   0  0  0  0  0  0  0  0  0  0  0  0
    1.4289   -4.9500    0.0000 N   0  0  0  0  0  0  0  0  0  0  0  0
    0.7615    1.3099    0.0000 N   0  0  0  0  0  0  0  0  0  0  0  0
    1.4289   -2.4750    0.0000 N   0  0  0  0  0  0  0  0  0  0  0  0
    2.8579   -4.9500    0.0000 O   0  0  0  0  0  0  0  0  0  0  0  0
   -0.2122   -4.8275    0.0000 H   0  0  0  0  0  0  0  0  0  0  0  0
    0.7145   -6.4325    0.0000 H   0  0  0  0  0  0  0  0  0  0  0  0
   -0.2121   -5.8975    0.0000 H   0  0  0  0  0  0  0  0  0  0  0  0
   -0.8182    1.7710    0.0000 H   0  0  0  0  0  0  0  0  0  0  0  0
   -0.2456    0.0084    0.0000 H   0  0  0  0  0  0  0  0  0  0  0  0
   -1.0407    0.7244    0.0000 H   0  0  0  0  0  0  0  0  0  0  0  0
   -1.6082    0.1035    0.0000 H   0  0  0  0  0  0  0  0  0  0  0  0
   -1.6082   -1.7535    0.0000 H   0  0  0  0  0  0  0  0  0  0  0  0
    0.0000    1.0320    0.0000 H   0  0  0  0  0  0  0  0  0  0  0  0
    0.0000   -2.6820    0.0000 H   0  0  0  0  0  0  0  0  0  0  0  0
    0.5352   -7.9410    0.0000 H   0  0  0  0  0  0  0  0  0  0  0  0
    0.5352   -6.0840    0.0000 H   0  0  0  0  0  0  0  0  0  0  0  0
    3.0779    0.9910    0.0000 H   0  0  0  0  0  0  0  0  0  0  0  0
    3.0700   -4.2475    0.0000 H   0  0  0  0  0  0  0  0  0  0  0  0
    2.1434   -4.7825    0.0000 H   0  0  0  0  0  0  0  0  0  0  0  0
   -0.2122   -4.2475    0.0000 H   0  0  0  0  0  0  0  0  0  0  0  0
    0.7145   -4.7825    0.0000 H   0  0  0  0  0  0  0  0  0  0  0  0
    2.4480    2.9294    0.0000 H   0  0  0  0  0  0  0  0  0  0  0  0
    3.0700   -2.3525    0.0000 H   0  0  0  0  0  0  0  0  0  0  0  0
    2.1434   -1.8175    0.0000 H   0  0  0  0  0  0  0  0  0  0  0  0
   -0.2122   -2.3525    0.0000 H   0  0  0  0  0  0  0  0  0  0  0  0
    0.7145   -1.8175    0.0000 H   0  0  0  0  0  0  0  0  0  0  0  0
    3.7516   -7.9410    0.0000 H   0  0  0  0  0  0  0  0  0  0  0  0
    0.5022   -4.6600    0.0000 H   0  0  0  0  0  0  0  0  0  0  0  0
  1 38  1  0  0  0  0
  1 39  1  0  0  0  0
  1 40  1  0  0  0  0
  2 41  1  0  0  0  0
  2 42  1  0  0  0  0
  2 43  1  0  0  0  0
  3 44  1  0  0  0  0
  4  3  2  0  0  0  0
  4 45  1  0  0  0  0
  5  3  1  0  0  0  0
  5 46  1  0  0  0  0
  6  4  1  0  0  0  0
  6 47  1  0  0  0  0
  7 48  1  0  0  0  0
  8  7  2  0  0  0  0
  8 49  1  0  0  0  0
  9 50  1  0  0  0  0
 10 51  1  0  0  0  0
 10 52  1  0  0  0  0
 11 53  1  0  0  0  0
 11 54  1  0  0  0  0
 12  9  1  0  0  0  0
 12 55  1  0  0  0  0
 13 10  1  0  0  0  0
 13 56  1  0  0  0  0
 13 57  1  0  0  0  0
 14 11  1  0  0  0  0
 14 58  1  0  0  0  0
 14 59  1  0  0  0  0
 15 60  1  0  0  0  0
 16  7  1  0  0  0  0
 16 15  2  0  0  0  0
 17 10  1  0  0  0  0
 17 11  1  0  0  0  0
 17 61  1  0  0  0  0
 18  5  2  0  0  0  0
 19  6  2  0  0  0  0
 19 18  1  0  0  0  0
 20  8  1  0  0  0  0
 21 15  1  0  0  0  0
 21 20  2  0  0  0  0
 22  9  2  0  0  0  0
 23 18  1  0  0  0  0
 23 22  1  0  0  0  0
 24 19  1  0  0  0  0
 25 20  1  0  0  0  0
 26 21  1  0  0  0  0
 27 16  1  0  0  0  0
 28 26  1  0  0  0  0
 29 26  1  0  0  0  0
 30 26  1  0  0  0  0
 31 12  2  0  0  0  0
 32 23  2  0  0  0  0
 33 24  2  0  0  0  0
 33 32  1  0  0  0  0
 34  1  1  0  0  0  0
 34 17  1  0  0  0  0
 34 25  1  0  0  0  0
 35  2  1  0  0  0  0
 35 22  1  0  0  0  0
 35 31  1  0  0  0  0
 36 13  1  0  0  0  0
 36 14  1  0  0  0  0
 36 24  1  0  0  0  0
 37 25  2  0  0  0  0
M  END
>  <DRUGBANK_ID>
DB12550

>  <COMMON_NAME>
Taladegib

>  <CAS_NUMBER>
1258861-20-9

>  <UNII>
QY8BWX1LJ5

>  <SYNONYMS>
Taladegib

$$$$
