34O
 OpenBabel10282417072D

 38 41  0  0  0  0  0  0  0  0999 V2000
   -4.7466   -0.2806    0.0000 C   0  0  0  0  0  0  0  0  0  0  0  0
   -1.3337    0.5444    0.0000 C   0  0  0  0  0  0  0  0  0  0  0  0
   -3.4771   -0.6931    0.0000 C   0  0  0  0  0  0  0  0  0  0  0  0
   -3.4771    0.1319    0.0000 C   0  0  0  0  0  0  0  0  0  0  0  0
   -2.7626    0.5444    0.0000 C   0  0  0  0  0  0  0  0  0  0  0  0
   -2.7626   -1.1056    0.0000 C   0  0  0  0  0  0  0  0  0  0  0  0
   -2.0481   -0.6931    0.0000 C   0  0  0  0  0  0  0  0  0  0  0  0
   -2.0481    0.1319    0.0000 C   0  0  0  0  0  0  0  0  0  0  0  0
    3.7389    1.1445    0.0000 F   0  0  0  0  0  0  0  0  0  0  0  0
    3.2540    0.4770    0.0000 C   0  0  0  0  0  0  0  0  0  0  0  0
    3.5895   -0.2767    0.0000 C   0  0  0  0  0  0  0  0  0  0  0  0
    4.4100   -0.3629    0.0000 O   0  0  0  0  0  0  0  0  0  0  0  0
    4.8949    0.3045    0.0000 C   0  0  0  0  0  0  0  0  0  0  0  0
    3.1046   -0.9441    0.0000 C   0  0  0  0  0  0  0  0  0  0  0  0
    2.2841   -0.8579    0.0000 C   0  0  0  0  0  0  0  0  0  0  0  0
    2.4335    0.5632    0.0000 C   0  0  0  0  0  0  0  0  0  0  0  0
    1.9486   -0.1042    0.0000 C   0  0  0  0  0  0  0  0  0  0  0  0
    1.1281   -0.0180    0.0000 C   0  0  0  0  0  0  0  0  0  0  0  0
    0.7925    0.7357    0.0000 S   0  0  0  0  0  0  0  0  0  0  0  0
   -0.0279    0.8220    0.0000 C   0  0  0  0  0  0  0  0  0  0  0  0
   -0.4404    1.5364    0.0000 N   0  0  0  0  0  0  0  0  0  0  0  0
   -1.2474    1.3649    0.0000 N   0  0  0  0  0  0  0  0  0  0  0  0
   -0.5800    0.2089    0.0000 O   0  0  0  0  0  0  0  0  0  0  0  0
   -4.2617   -0.9480    0.0000 O   0  0  0  0  0  0  0  0  0  0  0  0
   -4.2617    0.3869    0.0000 O   0  0  0  0  0  0  0  0  0  0  0  0
   -5.8166   -0.2806    0.0000 H   0  0  0  0  0  0  0  0  0  0  0  0
   -5.2324    0.6728    0.0000 H   0  0  0  0  0  0  0  0  0  0  0  0
   -2.7626    1.5764    0.0000 H   0  0  0  0  0  0  0  0  0  0  0  0
   -2.7626   -2.1376    0.0000 H   0  0  0  0  0  0  0  0  0  0  0  0
   -1.1544   -1.2091    0.0000 H   0  0  0  0  0  0  0  0  0  0  0  0
    5.9590    0.1926    0.0000 H   0  0  0  0  0  0  0  0  0  0  0  0
    4.4597    1.2820    0.0000 H   0  0  0  0  0  0  0  0  0  0  0  0
    5.5238    1.1701    0.0000 H   0  0  0  0  0  0  0  0  0  0  0  0
    3.5244   -1.8869    0.0000 H   0  0  0  0  0  0  0  0  0  0  0  0
    1.6775   -1.6928    0.0000 H   0  0  0  0  0  0  0  0  0  0  0  0
    2.0137    1.5060    0.0000 H   0  0  0  0  0  0  0  0  0  0  0  0
    0.4992   -0.8837    0.0000 H   0  0  0  0  0  0  0  0  0  0  0  0
    0.0640    0.0938    0.0000 H   0  0  0  0  0  0  0  0  0  0  0  0
  1 24  1  0  0  0  0
  1 25  1  0  0  0  0
  1 26  1  0  0  0  0
  1 27  1  0  0  0  0
  2  8  1  0  0  0  0
  2 22  2  0  0  0  0
  2 23  1  0  0  0  0
  3  4  2  0  0  0  0
  3  6  1  0  0  0  0
  3 24  1  0  0  0  0
  4  5  1  0  0  0  0
  4 25  1  0  0  0  0
  5  8  2  0  0  0  0
  5 28  1  0  0  0  0
  6  7  2  0  0  0  0
  6 29  1  0  0  0  0
  7  8  1  0  0  0  0
  7 30  1  0  0  0  0
  9 10  1  0  0  0  0
 10 11  2  0  0  0  0
 10 16  1  0  0  0  0
 11 12  1  0  0  0  0
 11 14  1  0  0  0  0
 12 13  1  0  0  0  0
 13 31  1  0  0  0  0
 13 32  1  0  0  0  0
 13 33  1  0  0  0  0
 14 15  2  0  0  0  0
 14 34  1  0  0  0  0
 15 17  1  0  0  0  0
 15 35  1  0  0  0  0
 16 17  2  0  0  0  0
 16 36  1  0  0  0  0
 17 18  1  0  0  0  0
 18 19  1  0  0  0  0
 18 37  1  0  0  0  0
 18 38  1  0  0  0  0
 19 20  1  0  0  0  0
 20 21  2  0  0  0  0
 20 23  1  0  0  0  0
 21 22  1  0  0  0  0
M  END
>  <DRUGBANK_ID>
DB07014

>  <COMMON_NAME>
2-(1,3-benzodioxol-5-yl)-5-[(3-fluoro-4-methoxybenzyl)sulfanyl]-1,3,4-oxadiazole

$$$$
