990
 OpenBabel10282417072D

 46 49  0  0  1  0  0  0  0  0999 V2000
    7.1359    2.1963    0.0000 O   0  0  0  0  0  0  0  0  0  0  0  0
    1.6499   -1.3573    0.0000 O   0  0  0  0  0  0  0  0  0  0  0  0
    6.0989    0.3358    0.0000 C   0  0  1  0  0  0  0  0  0  0  0  0
    5.3846   -0.0767    0.0000 C   0  0  1  0  0  0  0  0  0  0  0  0
    6.0989    1.1607    0.0000 C   0  0  2  0  0  0  0  0  0  0  0  0
    4.6700    0.3358    0.0000 C   0  0  2  0  0  0  0  0  0  0  0  0
    5.3846    1.5732    0.0000 C   0  0  0  0  0  0  0  0  0  0  0  0
    4.6700    1.1607    0.0000 C   0  0  0  0  0  0  0  0  0  0  0  0
    3.9194   -0.0823    0.0000 C   0  0  1  0  0  0  0  0  0  0  0  0
    6.8795    0.0844    0.0000 C   0  0  0  0  0  0  0  0  0  0  0  0
    5.3978   -0.9359    0.0000 C   0  0  0  0  0  0  0  0  0  0  0  0
    6.8795    1.4121    0.0000 C   0  0  0  0  0  0  0  0  0  0  0  0
    7.3609    0.7483    0.0000 C   0  0  0  0  0  0  0  0  0  0  0  0
    6.0989    1.9857    0.0000 C   0  0  0  0  0  0  0  0  0  0  0  0
    3.9128   -0.9416    0.0000 C   0  0  0  0  0  0  0  0  0  0  0  0
    4.6569   -1.3713    0.0000 C   0  0  0  0  0  0  0  0  0  0  0  0
    3.9257    0.7426    0.0000 C   0  0  0  0  0  0  0  0  0  0  0  0
    3.1548    0.3830    0.0000 C   0  0  0  0  0  0  0  0  0  0  0  0
    3.1411   -1.3951    0.0000 C   0  0  0  0  0  0  0  0  0  0  0  0
    2.3728   -0.0526    0.0000 C   0  0  0  0  0  0  0  0  0  0  0  0
    4.6600   -2.1963    0.0000 C   0  0  0  0  0  0  0  0  0  0  0  0
    2.3659   -0.9476    0.0000 C   0  0  0  0  0  0  0  0  0  0  0  0
    6.1687   -0.3205    0.0000 H   0  0  0  0  0  0  0  0  0  0  0  0
    5.9585   -0.4023    0.0000 H   0  0  0  0  0  0  0  0  0  0  0  0
    5.2417    0.6658    0.0000 H   0  0  0  0  0  0  0  0  0  0  0  0
    5.3847    2.6432    0.0000 H   0  0  0  0  0  0  0  0  0  0  0  0
    4.4580    2.1083    0.0000 H   0  0  0  0  0  0  0  0  0  0  0  0
    3.7434    1.6957    0.0000 H   0  0  0  0  0  0  0  0  0  0  0  0
    4.6701    2.2307    0.0000 H   0  0  0  0  0  0  0  0  0  0  0  0
    7.2119   -0.9326    0.0000 H   0  0  0  0  0  0  0  0  0  0  0  0
    7.9366   -0.0816    0.0000 H   0  0  0  0  0  0  0  0  0  0  0  0
    6.3306   -1.4602    0.0000 H   0  0  0  0  0  0  0  0  0  0  0  0
    5.4081   -2.0059    0.0000 H   0  0  0  0  0  0  0  0  0  0  0  0
    8.4309    0.7483    0.0000 H   0  0  0  0  0  0  0  0  0  0  0  0
    7.8471    1.7015    0.0000 H   0  0  0  0  0  0  0  0  0  0  0  0
    7.0255    2.5207    0.0000 H   0  0  0  0  0  0  0  0  0  0  0  0
    5.1723    2.5207    0.0000 H   0  0  0  0  0  0  0  0  0  0  0  0
    6.0989    3.0557    0.0000 H   0  0  0  0  0  0  0  0  0  0  0  0
    4.8564    1.2705    0.0000 H   0  0  0  0  0  0  0  0  0  0  0  0
    3.0032    1.2847    0.0000 H   0  0  0  0  0  0  0  0  0  0  0  0
    3.9339    1.8126    0.0000 H   0  0  0  0  0  0  0  0  0  0  0  0
    3.1746    1.4148    0.0000 H   0  0  0  0  0  0  0  0  0  0  0  0
    3.1451   -2.4271    0.0000 H   0  0  0  0  0  0  0  0  0  0  0  0
    1.4851    0.4737    0.0000 H   0  0  0  0  0  0  0  0  0  0  0  0
    3.7682   -2.7157    0.0000 H   0  0  0  0  0  0  0  0  0  0  0  0
    5.5557   -2.7089    0.0000 H   0  0  0  0  0  0  0  0  0  0  0  0
  1 12  2  0  0  0  0
  2 22  2  0  0  0  0
  3  4  1  0  0  0  0
  3  5  1  0  0  0  0
  3 10  1  0  0  0  0
  3 23  1  6  0  0  0
  4  6  1  0  0  0  0
  4 11  1  0  0  0  0
  4 24  1  1  0  0  0
  5  7  1  0  0  0  0
  5 12  1  0  0  0  0
  5 14  1  1  0  0  0
  6  8  1  0  0  0  0
  6  9  1  0  0  0  0
  6 25  1  6  0  0  0
  7  8  1  0  0  0  0
  7 26  1  0  0  0  0
  7 27  1  0  0  0  0
  8 28  1  0  0  0  0
  8 29  1  0  0  0  0
  9 15  1  0  0  0  0
  9 17  1  1  0  0  0
  9 18  1  0  0  0  0
 10 13  1  0  0  0  0
 10 30  1  0  0  0  0
 10 31  1  0  0  0  0
 11 16  1  0  0  0  0
 11 32  1  0  0  0  0
 11 33  1  0  0  0  0
 12 13  1  0  0  0  0
 13 34  1  0  0  0  0
 13 35  1  0  0  0  0
 14 36  1  0  0  0  0
 14 37  1  0  0  0  0
 14 38  1  0  0  0  0
 15 16  1  0  0  0  0
 15 19  2  0  0  0  0
 16 21  2  0  0  0  0
 17 39  1  0  0  0  0
 17 40  1  0  0  0  0
 17 41  1  0  0  0  0
 18 20  2  0  0  0  0
 18 42  1  0  0  0  0
 19 22  1  0  0  0  0
 19 43  1  0  0  0  0
 20 22  1  0  0  0  0
 20 44  1  0  0  0  0
 21 45  1  0  0  0  0
 21 46  1  0  0  0  0
M  END
>  <DRUGBANK_ID>
DB00990

>  <SECONDARY_ACCESSION_NUMBERS>
APRD00144

>  <COMMON_NAME>
Exemestane

>  <CAS_NUMBER>
107868-30-4

>  <UNII>
NY22HMQ4BX

>  <SYNONYMS>
6-methyleneandrosta-1,4-diene-3,17-dione; Exemestane; Exemestano; Exemestanum

$$$$
