B77
 OpenBabel10282417072D

 32 33  0  0  0  0  0  0  0  0999 V2000
   -1.4107    2.2350    0.0000 C   0  0  0  0  0  0  0  0  0  0  0  0
   -1.4107    1.4100    0.0000 C   0  0  0  0  0  0  0  0  0  0  0  0
   -0.6963    0.9975    0.0000 C   0  0  0  0  0  0  0  0  0  0  0  0
   -0.6963    0.1725    0.0000 C   0  0  0  0  0  0  0  0  0  0  0  0
   -1.4107   -0.2400    0.0000 C   0  0  0  0  0  0  0  0  0  0  0  0
   -2.1252    0.1725    0.0000 C   0  0  0  0  0  0  0  0  0  0  0  0
   -2.1252    0.9975    0.0000 C   0  0  0  0  0  0  0  0  0  0  0  0
   -1.4107   -1.0650    0.0000 O   0  0  0  0  0  0  0  0  0  0  0  0
   -2.1252   -1.4775    0.0000 C   0  0  0  0  0  0  0  0  0  0  0  0
    0.0182   -0.2400    0.0000 O   0  0  0  0  0  0  0  0  0  0  0  0
    0.7327    0.1725    0.0000 C   0  0  0  0  0  0  0  0  0  0  0  0
    1.4471   -0.2400    0.0000 C   0  0  0  0  0  0  0  0  0  0  0  0
    2.1616    0.1725    0.0000 N   0  0  0  0  0  0  0  0  0  0  0  0
    2.8761   -0.2400    0.0000 C   0  0  0  0  0  0  0  0  0  0  0  0
    2.8761   -1.0650    0.0000 C   0  0  0  0  0  0  0  0  0  0  0  0
    2.1616   -1.4775    0.0000 C   0  0  0  0  0  0  0  0  0  0  0  0
    1.4471   -1.0650    0.0000 C   0  0  0  0  0  0  0  0  0  0  0  0
   -0.4841    2.7700    0.0000 H   0  0  0  0  0  0  0  0  0  0  0  0
   -2.3373    2.7700    0.0000 H   0  0  0  0  0  0  0  0  0  0  0  0
   -1.4107    3.3050    0.0000 H   0  0  0  0  0  0  0  0  0  0  0  0
    0.1974    1.5135    0.0000 H   0  0  0  0  0  0  0  0  0  0  0  0
   -3.0189   -0.3435    0.0000 H   0  0  0  0  0  0  0  0  0  0  0  0
   -3.0189    1.5135    0.0000 H   0  0  0  0  0  0  0  0  0  0  0  0
   -3.0518   -0.9425    0.0000 H   0  0  0  0  0  0  0  0  0  0  0  0
   -2.1252   -2.5475    0.0000 H   0  0  0  0  0  0  0  0  0  0  0  0
   -3.0519   -2.0125    0.0000 H   0  0  0  0  0  0  0  0  0  0  0  0
    0.7327    1.2425    0.0000 H   0  0  0  0  0  0  0  0  0  0  0  0
    1.6594    0.7075    0.0000 H   0  0  0  0  0  0  0  0  0  0  0  0
    3.7698    0.2760    0.0000 H   0  0  0  0  0  0  0  0  0  0  0  0
    3.7698   -1.5810    0.0000 H   0  0  0  0  0  0  0  0  0  0  0  0
    2.1616   -2.5095    0.0000 H   0  0  0  0  0  0  0  0  0  0  0  0
    0.5534   -1.5810    0.0000 H   0  0  0  0  0  0  0  0  0  0  0  0
  1  2  1  0  0  0  0
  1 18  1  0  0  0  0
  1 19  1  0  0  0  0
  1 20  1  0  0  0  0
  2  3  2  0  0  0  0
  2  7  1  0  0  0  0
  3  4  1  0  0  0  0
  3 21  1  0  0  0  0
  4  5  2  0  0  0  0
  4 10  1  0  0  0  0
  5  6  1  0  0  0  0
  5  8  1  0  0  0  0
  6  7  2  0  0  0  0
  6 22  1  0  0  0  0
  7 23  1  0  0  0  0
  8  9  1  0  0  0  0
  9 24  1  0  0  0  0
  9 25  1  0  0  0  0
  9 26  1  0  0  0  0
 10 11  1  0  0  0  0
 11 12  1  0  0  0  0
 11 27  1  0  0  0  0
 11 28  1  0  0  0  0
 12 13  2  0  0  0  0
 12 17  1  0  0  0  0
 13 14  1  0  0  0  0
 14 15  2  0  0  0  0
 14 29  1  0  0  0  0
 15 16  1  0  0  0  0
 15 30  1  0  0  0  0
 16 17  2  0  0  0  0
 16 31  1  0  0  0  0
 17 32  1  0  0  0  0
M  END
>  <DRUGBANK_ID>
DB07427

>  <COMMON_NAME>
2-[(2-methoxy-5-methylphenoxy)methyl]pyridine

$$$$
