
 OpenBabel10282417072D

 26 28  0  0  0  0  0  0  0  0999 V2000
    0.1163   -2.0322    0.0000 C   0  0  0  0  0  0  0  0  0  0  0  0
    0.8517   -1.6585    0.0000 C   0  0  1  0  0  0  0  0  0  0  0  0
    0.8517   -0.9111    0.0000 C   0  0  0  0  0  0  0  0  0  0  0  0
    1.3012   -0.1208    0.0000 C   0  0  1  0  0  0  0  0  0  0  0  0
    0.5657   -0.4945    0.0000 C   0  0  0  0  0  0  0  0  0  0  0  0
    0.5657   -1.2419    0.0000 C   0  0  2  0  0  0  0  0  0  0  0  0
    1.3012   -1.6156    0.0000 C   0  0  0  0  0  0  0  0  0  0  0  0
    2.0368   -1.2419    0.0000 C   0  0  1  0  0  0  0  0  0  0  0  0
    1.5873   -2.0322    0.0000 C   0  0  0  0  0  0  0  0  0  0  0  0
    2.0368   -0.4945    0.0000 C   0  0  0  0  0  0  0  0  0  0  0  0
   -0.6578   -2.7709    0.0000 H   0  0  0  0  0  0  0  0  0  0  0  0
   -0.7271   -1.3737    0.0000 H   0  0  0  0  0  0  0  0  0  0  0  0
    0.8518   -2.7285    0.0000 H   0  0  0  0  0  0  0  0  0  0  0  0
   -0.1827   -0.6375    0.0000 H   0  0  0  0  0  0  0  0  0  0  0  0
    0.0039   -1.5638    0.0000 H   0  0  0  0  0  0  0  0  0  0  0  0
    1.6090   -1.1456    0.0000 H   0  0  0  0  0  0  0  0  0  0  0  0
   -0.3463    0.0651    0.0000 H   0  0  0  0  0  0  0  0  0  0  0  0
   -0.3680   -1.0171    0.0000 H   0  0  0  0  0  0  0  0  0  0  0  0
   -0.4687   -0.9684    0.0000 H   0  0  0  0  0  0  0  0  0  0  0  0
    1.3012   -2.6856    0.0000 H   0  0  0  0  0  0  0  0  0  0  0  0
    2.2132   -2.1752    0.0000 H   0  0  0  0  0  0  0  0  0  0  0  0
    1.2626   -1.9805    0.0000 H   0  0  0  0  0  0  0  0  0  0  0  0
    1.8951   -3.0570    0.0000 H   0  0  0  0  0  0  0  0  0  0  0  0
    2.6505   -2.1525    0.0000 H   0  0  0  0  0  0  0  0  0  0  0  0
    2.9488    0.0651    0.0000 H   0  0  0  0  0  0  0  0  0  0  0  0
    2.9705   -1.0170    0.0000 H   0  0  0  0  0  0  0  0  0  0  0  0
  1  6  1  0  0  0  0
  1 11  1  0  0  0  0
  1 12  1  0  0  0  0
  2  1  1  0  0  0  0
  2  9  1  0  0  0  0
  2  3  1  0  0  0  0
  2 13  1  6  0  0  0
  3 14  1  0  0  0  0
  3 15  1  0  0  0  0
  4 10  1  0  0  0  0
  4  3  1  0  0  0  0
  4  5  1  0  0  0  0
  4 16  1  6  0  0  0
  5 17  1  0  0  0  0
  5 18  1  0  0  0  0
  6  7  1  0  0  0  0
  6  5  1  0  0  0  0
  6 19  1  1  0  0  0
  7 20  1  0  0  0  0
  7 21  1  0  0  0  0
  8  7  1  0  0  0  0
  8  9  1  0  0  0  0
  8 10  1  0  0  0  0
  8 22  1  1  0  0  0
  9 23  1  0  0  0  0
  9 24  1  0  0  0  0
 10 25  1  0  0  0  0
 10 26  1  0  0  0  0
M  END
>  <DRUGBANK_ID>
DB03627

>  <SECONDARY_ACCESSION_NUMBERS>
EXPT00433

>  <COMMON_NAME>
Adamantane

>  <UNII>
PJY633525U

$$$$
