
 OpenBabel10282417072D

 46 49  0  0  1  0  0  0  0  0999 V2000
   -0.7145   -1.2375    0.0000 C   0  0  0  0  0  0  0  0  0  0  0  0
    0.0000   -1.6500    0.0000 C   0  0  2  0  0  0  0  0  0  0  0  0
    0.0000   -2.4750    0.0000 C   0  0  2  0  0  0  0  0  0  0  0  0
    0.8250   -2.4750    0.0000 C   0  0  0  0  0  0  0  0  0  0  0  0
    1.2375   -3.1895    0.0000 N   0  0  0  0  0  0  0  0  0  0  0  0
    0.9019   -3.9431    0.0000 C   0  0  0  0  0  0  0  0  0  0  0  0
    1.5150   -4.4952    0.0000 N   0  0  0  0  0  0  0  0  0  0  0  0
    2.2295   -4.0827    0.0000 C   0  0  0  0  0  0  0  0  0  0  0  0
    2.0580   -3.2757    0.0000 N   0  0  0  0  0  0  0  0  0  0  0  0
   -0.8250   -2.4750    0.0000 C   0  0  0  0  0  0  0  0  0  0  0  0
   -1.2375   -1.7605    0.0000 C   0  0  0  0  0  0  0  0  0  0  0  0
   -2.0625   -1.7605    0.0000 C   0  0  0  0  0  0  0  0  0  0  0  0
   -2.4750   -2.4750    0.0000 C   0  0  0  0  0  0  0  0  0  0  0  0
   -2.0625   -3.1895    0.0000 C   0  0  0  0  0  0  0  0  0  0  0  0
   -1.2375   -3.1895    0.0000 C   0  0  0  0  0  0  0  0  0  0  0  0
   -0.8250   -3.9039    0.0000 F   0  0  0  0  0  0  0  0  0  0  0  0
   -3.3000   -2.4750    0.0000 F   0  0  0  0  0  0  0  0  0  0  0  0
    0.0000   -3.3000    0.0000 O   0  0  0  0  0  0  0  0  0  0  0  0
    0.7145   -1.2375    0.0000 N   0  0  0  0  0  0  0  0  0  0  0  0
    0.7145   -0.4125    0.0000 C   0  0  0  0  0  0  0  0  0  0  0  0
    1.4289    0.0000    0.0000 N   0  0  0  0  0  0  0  0  0  0  0  0
    2.1434   -0.4125    0.0000 C   0  0  0  0  0  0  0  0  0  0  0  0
    2.8579    0.0000    0.0000 C   0  0  0  0  0  0  0  0  0  0  0  0
    3.5724   -0.4125    0.0000 C   0  0  0  0  0  0  0  0  0  0  0  0
    3.5724   -1.2375    0.0000 C   0  0  0  0  0  0  0  0  0  0  0  0
    2.8579   -1.6500    0.0000 C   0  0  0  0  0  0  0  0  0  0  0  0
    2.1434   -1.2375    0.0000 C   0  0  0  0  0  0  0  0  0  0  0  0
    1.4289   -1.6500    0.0000 C   0  0  0  0  0  0  0  0  0  0  0  0
    1.4289   -2.4750    0.0000 O   0  0  0  0  0  0  0  0  0  0  0  0
    4.2868   -0.0000    0.0000 Cl  0  0  0  0  0  0  0  0  0  0  0  0
   -0.7145   -0.1675    0.0000 H   0  0  0  0  0  0  0  0  0  0  0  0
   -1.6411   -1.7725    0.0000 H   0  0  0  0  0  0  0  0  0  0  0  0
   -1.6412   -0.7025    0.0000 H   0  0  0  0  0  0  0  0  0  0  0  0
   -0.9266   -2.1850    0.0000 H   0  0  0  0  0  0  0  0  0  0  0  0
    1.3600   -1.5484    0.0000 H   0  0  0  0  0  0  0  0  0  0  0  0
    1.8950   -2.4750    0.0000 H   0  0  0  0  0  0  0  0  0  0  0  0
   -0.1076   -4.1576    0.0000 H   0  0  0  0  0  0  0  0  0  0  0  0
    3.1723   -4.5025    0.0000 H   0  0  0  0  0  0  0  0  0  0  0  0
   -0.7215   -0.8668    0.0000 H   0  0  0  0  0  0  0  0  0  0  0  0
   -2.5785   -0.8668    0.0000 H   0  0  0  0  0  0  0  0  0  0  0  0
   -2.5785   -4.0832    0.0000 H   0  0  0  0  0  0  0  0  0  0  0  0
   -0.8400   -3.7850    0.0000 H   0  0  0  0  0  0  0  0  0  0  0  0
   -0.1792    0.1035    0.0000 H   0  0  0  0  0  0  0  0  0  0  0  0
    2.8579    1.0320    0.0000 H   0  0  0  0  0  0  0  0  0  0  0  0
    4.4661   -1.7535    0.0000 H   0  0  0  0  0  0  0  0  0  0  0  0
    2.8579   -2.6820    0.0000 H   0  0  0  0  0  0  0  0  0  0  0  0
  1 31  1  0  0  0  0
  1 32  1  0  0  0  0
  1 33  1  0  0  0  0
  2  1  1  0  0  0  0
  2  3  1  0  0  0  0
  2 19  1  0  0  0  0
  2 34  1  6  0  0  0
  3  4  1  0  0  0  0
  3 10  1  0  0  0  0
  3 18  1  1  0  0  0
  4  5  1  0  0  0  0
  4 35  1  0  0  0  0
  4 36  1  0  0  0  0
  5  6  1  0  0  0  0
  5  9  1  0  0  0  0
  6  7  2  0  0  0  0
  6 37  1  0  0  0  0
  7  8  1  0  0  0  0
  8  9  2  0  0  0  0
  8 38  1  0  0  0  0
 10 11  2  0  0  0  0
 10 15  1  0  0  0  0
 11 12  1  0  0  0  0
 11 39  1  0  0  0  0
 12 13  2  0  0  0  0
 12 40  1  0  0  0  0
 13 14  1  0  0  0  0
 13 17  1  0  0  0  0
 14 15  2  0  0  0  0
 14 41  1  0  0  0  0
 15 16  1  0  0  0  0
 18 42  1  0  0  0  0
 19 20  1  0  0  0  0
 19 28  1  0  0  0  0
 20 21  2  0  0  0  0
 20 43  1  0  0  0  0
 21 22  1  0  0  0  0
 22 23  2  0  0  0  0
 22 27  1  0  0  0  0
 23 24  1  0  0  0  0
 23 44  1  0  0  0  0
 24 25  2  0  0  0  0
 24 30  1  0  0  0  0
 25 26  1  0  0  0  0
 25 45  1  0  0  0  0
 26 27  2  0  0  0  0
 26 46  1  0  0  0  0
 27 28  1  0  0  0  0
 28 29  2  0  0  0  0
M  END
>  <DRUGBANK_ID>
DB12073

>  <COMMON_NAME>
Albaconazole

>  <CAS_NUMBER>
187949-02-6

>  <UNII>
YDW24Y8IAB

>  <SYNONYMS>
Albaconazole

$$$$
