[NO NAME]
 OpenBabel10282417072D
Created with ChemWriter - http://chemwriter.com
 67 65  0  0  0  0  0  0  0  0999 V2000
    1.2964   -0.2041    0.0000 C   0  0  0  0  0  0  0  0  0  0  0  0
    0.4714   -0.2041    0.0000 N   0  3  0  0  0  0  0  0  0  0  0  0
    0.4714    0.6209    0.0000 C   0  0  0  0  0  0  0  0  0  0  0  0
    0.4714   -1.0291    0.0000 C   0  0  0  0  0  0  0  0  0  0  0  0
   -0.3536   -0.2041    0.0000 C   0  0  0  0  0  0  0  0  0  0  0  0
   -0.7661    0.5103    0.0000 C   0  0  0  0  0  0  0  0  0  0  0  0
   -1.5911    0.5103    0.0000 O   0  0  0  0  0  0  0  0  0  0  0  0
    5.7764    0.8574    0.0000 C   0  0  0  0  0  0  0  0  0  0  0  0
    6.1889    0.1429    0.0000 C   0  0  0  0  0  0  0  0  0  0  0  0
    5.7764   -0.5716    0.0000 C   0  0  0  0  0  0  0  0  0  0  0  0
    4.9514   -0.5716    0.0000 C   0  0  0  0  0  0  0  0  0  0  0  0
    4.5389    0.1429    0.0000 C   0  0  0  0  0  0  0  0  0  0  0  0
    4.9514    0.8574    0.0000 C   0  0  0  0  0  0  0  0  0  0  0  0
    3.7139    0.1429    0.0000 C   0  0  0  0  0  0  0  0  0  0  0  0
    3.3014   -0.5716    0.0000 O   0  0  0  0  0  0  0  0  0  0  0  0
    3.3014    0.8574    0.0000 O   0  5  0  0  0  0  0  0  0  0  0  0
    4.5389   -1.2860    0.0000 O   0  0  0  0  0  0  0  0  0  0  0  0
   -1.8091   -5.0119    0.0000 C   0  0  0  0  0  0  0  0  0  0  0  0
   -2.2216   -4.2974    0.0000 C   0  0  0  0  0  0  0  0  0  0  0  0
   -1.8091   -3.5829    0.0000 C   0  0  0  0  0  0  0  0  0  0  0  0
   -0.9841   -3.5829    0.0000 C   0  0  0  0  0  0  0  0  0  0  0  0
   -0.5716   -4.2974    0.0000 C   0  0  0  0  0  0  0  0  0  0  0  0
   -0.9841   -5.0119    0.0000 C   0  0  0  0  0  0  0  0  0  0  0  0
    0.2534   -4.2974    0.0000 C   0  0  0  0  0  0  0  0  0  0  0  0
    0.6659   -3.5829    0.0000 O   0  0  0  0  0  0  0  0  0  0  0  0
    0.6659   -5.0119    0.0000 O   0  5  0  0  0  0  0  0  0  0  0  0
   -0.5716   -2.8685    0.0000 O   0  0  0  0  0  0  0  0  0  0  0  0
    2.4779   -4.1545    0.0000 Mg  0  2  0  0  0  0  0  0  0  0  0  0
    6.7886   -3.3560    0.0000 C   0  0  0  0  0  0  0  0  0  0  0  0
    7.2011   -4.0705    0.0000 C   0  0  0  0  0  0  0  0  0  0  0  0
    6.7886   -4.7850    0.0000 C   0  0  0  0  0  0  0  0  0  0  0  0
    5.9636   -4.7850    0.0000 C   0  0  0  0  0  0  0  0  0  0  0  0
    5.5511   -4.0705    0.0000 C   0  0  0  0  0  0  0  0  0  0  0  0
    5.9636   -3.3560    0.0000 C   0  0  0  0  0  0  0  0  0  0  0  0
    4.7261   -4.0705    0.0000 C   0  0  0  0  0  0  0  0  0  0  0  0
    4.3136   -4.7850    0.0000 O   0  0  0  0  0  0  0  0  0  0  0  0
    4.3136   -3.3560    0.0000 O   0  5  0  0  0  0  0  0  0  0  0  0
    5.5511   -5.4994    0.0000 O   0  0  0  0  0  0  0  0  0  0  0  0
    1.8314   -1.1307    0.0000 H   0  0  0  0  0  0  0  0  0  0  0  0
    1.8314    0.7225    0.0000 H   0  0  0  0  0  0  0  0  0  0  0  0
    2.3664   -0.2041    0.0000 H   0  0  0  0  0  0  0  0  0  0  0  0
    1.3980    1.1559    0.0000 H   0  0  0  0  0  0  0  0  0  0  0  0
   -0.4552    1.1559    0.0000 H   0  0  0  0  0  0  0  0  0  0  0  0
    0.4714    1.6909    0.0000 H   0  0  0  0  0  0  0  0  0  0  0  0
   -0.4552   -1.5641    0.0000 H   0  0  0  0  0  0  0  0  0  0  0  0
    1.3980   -1.5641    0.0000 H   0  0  0  0  0  0  0  0  0  0  0  0
    0.4714   -2.0991    0.0000 H   0  0  0  0  0  0  0  0  0  0  0  0
   -0.8886   -1.1308    0.0000 H   0  0  0  0  0  0  0  0  0  0  0  0
   -1.4236   -0.2041    0.0000 H   0  0  0  0  0  0  0  0  0  0  0  0
   -0.2311    1.4370    0.0000 H   0  0  0  0  0  0  0  0  0  0  0  0
   -1.3011    1.4369    0.0000 H   0  0  0  0  0  0  0  0  0  0  0  0
   -2.0761    1.3503    0.0000 H   0  0  0  0  0  0  0  0  0  0  0  0
    6.2924    1.7511    0.0000 H   0  0  0  0  0  0  0  0  0  0  0  0
    7.2209    0.1429    0.0000 H   0  0  0  0  0  0  0  0  0  0  0  0
    6.2924   -1.4653    0.0000 H   0  0  0  0  0  0  0  0  0  0  0  0
    4.4354    1.7511    0.0000 H   0  0  0  0  0  0  0  0  0  0  0  0
    3.6019   -1.2860    0.0000 H   0  0  0  0  0  0  0  0  0  0  0  0
   -2.3251   -5.9056    0.0000 H   0  0  0  0  0  0  0  0  0  0  0  0
   -3.2536   -4.2974    0.0000 H   0  0  0  0  0  0  0  0  0  0  0  0
   -2.3251   -2.6892    0.0000 H   0  0  0  0  0  0  0  0  0  0  0  0
   -0.4681   -5.9056    0.0000 H   0  0  0  0  0  0  0  0  0  0  0  0
    0.3654   -2.8685    0.0000 H   0  0  0  0  0  0  0  0  0  0  0  0
    7.3046   -2.4623    0.0000 H   0  0  0  0  0  0  0  0  0  0  0  0
    8.2331   -4.0705    0.0000 H   0  0  0  0  0  0  0  0  0  0  0  0
    7.3046   -5.6787    0.0000 H   0  0  0  0  0  0  0  0  0  0  0  0
    5.4476   -2.4623    0.0000 H   0  0  0  0  0  0  0  0  0  0  0  0
    4.6141   -5.4994    0.0000 H   0  0  0  0  0  0  0  0  0  0  0  0
  1  2  1  0  0  0  0
  1 39  1  0  0  0  0
  1 40  1  0  0  0  0
  1 41  1  0  0  0  0
  2  3  1  0  0  0  0
  2  4  1  0  0  0  0
  2  5  1  0  0  0  0
  3 42  1  0  0  0  0
  3 43  1  0  0  0  0
  3 44  1  0  0  0  0
  4 45  1  0  0  0  0
  4 46  1  0  0  0  0
  4 47  1  0  0  0  0
  5  6  1  0  0  0  0
  5 48  1  0  0  0  0
  5 49  1  0  0  0  0
  6  7  1  0  0  0  0
  6 50  1  0  0  0  0
  6 51  1  0  0  0  0
  7 52  1  0  0  0  0
  8  9  2  0  0  0  0
  8 13  1  0  0  0  0
  8 53  1  0  0  0  0
  9 10  1  0  0  0  0
  9 54  1  0  0  0  0
 10 11  2  0  0  0  0
 10 55  1  0  0  0  0
 11 12  1  0  0  0  0
 11 17  1  0  0  0  0
 12 13  2  0  0  0  0
 12 14  1  0  0  0  0
 13 56  1  0  0  0  0
 14 15  2  0  0  0  0
 14 16  1  0  0  0  0
 17 57  1  0  0  0  0
 18 19  2  0  0  0  0
 18 23  1  0  0  0  0
 18 58  1  0  0  0  0
 19 20  1  0  0  0  0
 19 59  1  0  0  0  0
 20 21  2  0  0  0  0
 20 60  1  0  0  0  0
 21 22  1  0  0  0  0
 21 27  1  0  0  0  0
 22 23  2  0  0  0  0
 22 24  1  0  0  0  0
 23 61  1  0  0  0  0
 24 25  2  0  0  0  0
 24 26  1  0  0  0  0
 27 62  1  0  0  0  0
 29 30  2  0  0  0  0
 29 34  1  0  0  0  0
 29 63  1  0  0  0  0
 30 31  1  0  0  0  0
 30 64  1  0  0  0  0
 31 32  2  0  0  0  0
 31 65  1  0  0  0  0
 32 33  1  0  0  0  0
 32 38  1  0  0  0  0
 33 34  2  0  0  0  0
 33 35  1  0  0  0  0
 34 66  1  0  0  0  0
 35 36  2  0  0  0  0
 35 37  1  0  0  0  0
 38 67  1  0  0  0  0
M  CHG  5   2   1  16  -1  26  -1  28   2  37  -1
M  END
>  <DRUGBANK_ID>
DB01401

>  <COMMON_NAME>
Choline magnesium trisalicylate

>  <CAS_NUMBER>
64425-90-7

$$$$
