697
 OpenBabel10282417072D

 28 30  0  0  0  0  0  0  0  0999 V2000
   -2.8062    0.0140    0.0000 C   0  0  0  0  0  0  0  0  0  0  0  0
   -2.3937    0.7284    0.0000 C   0  0  0  0  0  0  0  0  0  0  0  0
   -1.5687    0.7284    0.0000 C   0  0  0  0  0  0  0  0  0  0  0  0
   -1.1562    0.0140    0.0000 C   0  0  0  0  0  0  0  0  0  0  0  0
   -1.5687   -0.7005    0.0000 C   0  0  0  0  0  0  0  0  0  0  0  0
   -2.3937   -0.7005    0.0000 C   0  0  0  0  0  0  0  0  0  0  0  0
   -3.6312    0.0140    0.0000 O   0  0  0  0  0  0  0  0  0  0  0  0
   -0.3312    0.0140    0.0000 C   0  0  0  0  0  0  0  0  0  0  0  0
    0.1537   -0.6535    0.0000 C   0  0  0  0  0  0  0  0  0  0  0  0
    0.9383   -0.3985    0.0000 C   0  0  0  0  0  0  0  0  0  0  0  0
    0.9383    0.4265    0.0000 C   0  0  0  0  0  0  0  0  0  0  0  0
    0.1537    0.6814    0.0000 O   0  0  0  0  0  0  0  0  0  0  0  0
    1.6528   -0.8110    0.0000 C   0  0  0  0  0  0  0  0  0  0  0  0
    2.3672   -0.3985    0.0000 C   0  0  0  0  0  0  0  0  0  0  0  0
    2.3672    0.4265    0.0000 C   0  0  0  0  0  0  0  0  0  0  0  0
    1.6528    0.8390    0.0000 C   0  0  0  0  0  0  0  0  0  0  0  0
    3.0817   -0.8110    0.0000 O   0  0  0  0  0  0  0  0  0  0  0  0
    1.6528    1.6640    0.0000 C   0  0  0  0  0  0  0  0  0  0  0  0
    1.6528    2.4890    0.0000 N   0  0  0  0  0  0  0  0  0  0  0  0
   -2.9097    1.6221    0.0000 H   0  0  0  0  0  0  0  0  0  0  0  0
   -1.0527    1.6221    0.0000 H   0  0  0  0  0  0  0  0  0  0  0  0
   -1.0527   -1.5942    0.0000 H   0  0  0  0  0  0  0  0  0  0  0  0
   -2.9097   -1.5942    0.0000 H   0  0  0  0  0  0  0  0  0  0  0  0
   -4.0997    0.8255    0.0000 H   0  0  0  0  0  0  0  0  0  0  0  0
   -0.1652   -1.6350    0.0000 H   0  0  0  0  0  0  0  0  0  0  0  0
    1.6528   -1.8430    0.0000 H   0  0  0  0  0  0  0  0  0  0  0  0
    3.2609    0.9425    0.0000 H   0  0  0  0  0  0  0  0  0  0  0  0
    3.0817   -1.7480    0.0000 H   0  0  0  0  0  0  0  0  0  0  0  0
  1  2  2  0  0  0  0
  1  6  1  0  0  0  0
  1  7  1  0  0  0  0
  2  3  1  0  0  0  0
  2 20  1  0  0  0  0
  3  4  2  0  0  0  0
  3 21  1  0  0  0  0
  4  5  1  0  0  0  0
  4  8  1  0  0  0  0
  5  6  2  0  0  0  0
  5 22  1  0  0  0  0
  6 23  1  0  0  0  0
  7 24  1  0  0  0  0
  8  9  2  0  0  0  0
  8 12  1  0  0  0  0
  9 10  1  0  0  0  0
  9 25  1  0  0  0  0
 10 11  2  0  0  0  0
 10 13  1  0  0  0  0
 11 12  1  0  0  0  0
 11 16  1  0  0  0  0
 13 14  2  0  0  0  0
 13 26  1  0  0  0  0
 14 15  1  0  0  0  0
 14 17  1  0  0  0  0
 15 16  2  0  0  0  0
 15 27  1  0  0  0  0
 16 18  1  0  0  0  0
 17 28  1  0  0  0  0
 18 19  3  0  0  0  0
M  END
>  <DRUGBANK_ID>
DB07198

>  <COMMON_NAME>
5-HYDROXY-2-(4-HYDROXYPHENYL)-1-BENZOFURAN-7-CARBONITRILE

$$$$
