
 OpenBabel10282417072D

 23 23  0  0  0  0  0  0  0  0999 V2000
    1.4226    1.0439    0.0000 C   0  0  0  0  0  0  0  0  0  0  0  0
    1.4274    0.2189    0.0000 O   0  0  0  0  0  0  0  0  0  0  0  0
    0.7028    1.4618    0.0000 C   0  0  0  0  0  0  0  0  0  0  0  0
    2.1414    1.4488    0.0000 O   0  0  0  0  0  0  0  0  0  0  0  0
   -0.7234   -0.2112    0.0000 C   0  0  0  0  0  0  0  0  0  0  0  0
   -1.4346    0.2070    0.0000 C   0  0  0  0  0  0  0  0  0  0  0  0
   -0.0124    0.2070    0.0000 C   0  0  0  0  0  0  0  0  0  0  0  0
   -0.0124    1.0435    0.0000 O   0  0  0  0  0  0  0  0  0  0  0  0
   -1.4346    1.0435    0.0000 O   0  0  0  0  0  0  0  0  0  0  0  0
   -2.1414   -0.2112    0.0000 N   0  0  0  0  0  0  0  0  0  0  0  0
   -0.7234   -1.0477    0.0000 C   0  0  0  0  0  0  0  0  0  0  0  0
    0.6985   -0.2112    0.0000 C   0  0  0  0  0  0  0  0  0  0  0  0
   -0.0124   -1.4618    0.0000 C   0  0  0  0  0  0  0  0  0  0  0  0
    0.6985   -1.0477    0.0000 C   0  0  0  0  0  0  0  0  0  0  0  0
    0.7011    2.5318    0.0000 H   0  0  0  0  0  0  0  0  0  0  0  0
   -0.2258    1.9934    0.0000 H   0  0  0  0  0  0  0  0  0  0  0  0
    2.9479    0.9717    0.0000 H   0  0  0  0  0  0  0  0  0  0  0  0
   -2.9992    0.2719    0.0000 H   0  0  0  0  0  0  0  0  0  0  0  0
   -2.1309   -1.1956    0.0000 H   0  0  0  0  0  0  0  0  0  0  0  0
   -1.6181   -1.5620    0.0000 H   0  0  0  0  0  0  0  0  0  0  0  0
    1.5943    0.3012    0.0000 H   0  0  0  0  0  0  0  0  0  0  0  0
   -0.0124   -2.4938    0.0000 H   0  0  0  0  0  0  0  0  0  0  0  0
    1.5932   -1.5620    0.0000 H   0  0  0  0  0  0  0  0  0  0  0  0
  1  3  1  0  0  0  0
  2  1  2  0  0  0  0
  3 15  1  0  0  0  0
  3 16  1  0  0  0  0
  4  1  1  0  0  0  0
  4 17  1  0  0  0  0
  6  5  1  0  0  0  0
  7  5  2  0  0  0  0
  8  7  1  0  0  0  0
  8  3  1  0  0  0  0
  9  6  2  0  0  0  0
 10  6  1  0  0  0  0
 10 18  1  0  0  0  0
 10 19  1  0  0  0  0
 11  5  1  0  0  0  0
 11 20  1  0  0  0  0
 12  7  1  0  0  0  0
 12 14  2  0  0  0  0
 12 21  1  0  0  0  0
 13 11  2  0  0  0  0
 13 22  1  0  0  0  0
 14 13  1  0  0  0  0
 14 23  1  0  0  0  0
M  END
>  <DRUGBANK_ID>
DB16000

>  <COMMON_NAME>
Salicylamide O-acetic acid

>  <CAS_NUMBER>
25395-22-6

>  <UNII>
5LB8V0RHJV

>  <SYNONYMS>
2-Carbamoylphenoxyacetic acid; Salamidacetic acid; Salicylamide-2-acetic acid

$$$$
