415
 OpenBabel10282417072D

 43 45  0  0  1  0  0  0  0  0999 V2000
    7.6201    0.6772    0.0000 S   0  0  0  0  0  0  0  0  0  0  0  0
    5.4215   -0.9907    0.0000 O   0  0  0  0  0  0  0  0  0  0  0  0
    7.3230   -2.0553    0.0000 O   0  0  0  0  0  0  0  0  0  0  0  0
    8.6819   -1.6138    0.0000 O   0  0  0  0  0  0  0  0  0  0  0  0
    4.4089    0.0020    0.0000 O   0  0  0  0  0  0  0  0  0  0  0  0
    6.8354   -0.4027    0.0000 N   0  0  0  0  0  0  0  0  0  0  0  0
    5.4215    1.0103    0.0000 N   0  0  0  0  0  0  0  0  0  0  0  0
    4.2571    2.1794    0.0000 N   0  0  0  0  0  0  0  0  0  0  0  0
    6.8354    0.4223    0.0000 C   0  0  1  0  0  0  0  0  0  0  0  0
    8.1049    0.0098    0.0000 C   0  0  0  0  0  0  0  0  0  0  0  0
    7.6201   -0.6576    0.0000 C   0  0  2  0  0  0  0  0  0  0  0  0
    6.0036    0.4257    0.0000 C   0  0  1  0  0  0  0  0  0  0  0  0
    6.0036   -0.4061    0.0000 C   0  0  0  0  0  0  0  0  0  0  0  0
    8.7724   -0.4751    0.0000 C   0  0  0  0  0  0  0  0  0  0  0  0
    8.7724    0.4947    0.0000 C   0  0  0  0  0  0  0  0  0  0  0  0
    7.8750   -1.4423    0.0000 C   0  0  0  0  0  0  0  0  0  0  0  0
    4.6241    0.7983    0.0000 C   0  0  0  0  0  0  0  0  0  0  0  0
    4.0420    1.3829    0.0000 C   0  0  1  0  0  0  0  0  0  0  0  0
    3.2446    1.1711    0.0000 C   0  0  0  0  0  0  0  0  0  0  0  0
    3.0295    0.3746    0.0000 C   0  0  0  0  0  0  0  0  0  0  0  0
    2.6625    1.7556    0.0000 C   0  0  0  0  0  0  0  0  0  0  0  0
    2.2322    0.1627    0.0000 C   0  0  0  0  0  0  0  0  0  0  0  0
    1.8651    1.5437    0.0000 C   0  0  0  0  0  0  0  0  0  0  0  0
    1.6500    0.7473    0.0000 C   0  0  0  0  0  0  0  0  0  0  0  0
    6.7335    1.0744    0.0000 H   0  0  0  0  0  0  0  0  0  0  0  0
    6.4065   -1.8604    0.0000 H   0  0  0  0  0  0  0  0  0  0  0  0
    5.6783    1.9607    0.0000 H   0  0  0  0  0  0  0  0  0  0  0  0
    5.2429    2.4415    0.0000 H   0  0  0  0  0  0  0  0  0  0  0  0
    3.5373    2.9021    0.0000 H   0  0  0  0  0  0  0  0  0  0  0  0
    6.8635   -1.4142    0.0000 H   0  0  0  0  0  0  0  0  0  0  0  0
    6.4161    1.4130    0.0000 H   0  0  0  0  0  0  0  0  0  0  0  0
    8.6606   -1.5392    0.0000 H   0  0  0  0  0  0  0  0  0  0  0  0
    9.7499   -0.0398    0.0000 H   0  0  0  0  0  0  0  0  0  0  0  0
    9.6381   -1.1040    0.0000 H   0  0  0  0  0  0  0  0  0  0  0  0
    9.7499    0.0594    0.0000 H   0  0  0  0  0  0  0  0  0  0  0  0
    8.6606    1.5588    0.0000 H   0  0  0  0  0  0  0  0  0  0  0  0
    9.6381    1.1236    0.0000 H   0  0  0  0  0  0  0  0  0  0  0  0
    5.0761    1.6577    0.0000 H   0  0  0  0  0  0  0  0  0  0  0  0
    3.7578   -0.3566    0.0000 H   0  0  0  0  0  0  0  0  0  0  0  0
    2.9317    2.7519    0.0000 H   0  0  0  0  0  0  0  0  0  0  0  0
    1.9631   -0.8336    0.0000 H   0  0  0  0  0  0  0  0  0  0  0  0
    1.1368    2.2749    0.0000 H   0  0  0  0  0  0  0  0  0  0  0  0
    0.6526    0.4822    0.0000 H   0  0  0  0  0  0  0  0  0  0  0  0
  1  9  1  0  0  0  0
  1 10  1  0  0  0  0
  2 13  2  0  0  0  0
  3 16  1  0  0  0  0
  3 26  1  0  0  0  0
  4 16  2  0  0  0  0
  5 17  2  0  0  0  0
  6  9  1  0  0  0  0
  6 11  1  0  0  0  0
  6 13  1  0  0  0  0
  7 17  1  0  0  0  0
  7 27  1  0  0  0  0
  8 28  1  0  0  0  0
  8 29  1  0  0  0  0
  9 12  1  0  0  0  0
  9 25  1  6  0  0  0
 10 11  1  0  0  0  0
 10 14  1  0  0  0  0
 10 15  1  0  0  0  0
 11 16  1  0  0  0  0
 11 30  1  1  0  0  0
 12  7  1  0  0  0  0
 12 13  1  0  0  0  0
 12 31  1  6  0  0  0
 14 32  1  0  0  0  0
 14 33  1  0  0  0  0
 14 34  1  0  0  0  0
 15 35  1  0  0  0  0
 15 36  1  0  0  0  0
 15 37  1  0  0  0  0
 17 18  1  0  0  0  0
 18  8  1  0  0  0  0
 18 19  1  0  0  0  0
 18 38  1  6  0  0  0
 19 20  2  0  0  0  0
 19 21  1  0  0  0  0
 20 22  1  0  0  0  0
 20 39  1  0  0  0  0
 21 23  2  0  0  0  0
 21 40  1  0  0  0  0
 22 24  2  0  0  0  0
 22 41  1  0  0  0  0
 23 24  1  0  0  0  0
 23 42  1  0  0  0  0
 24 43  1  0  0  0  0
M  END
>  <DRUGBANK_ID>
DB00415

>  <SECONDARY_ACCESSION_NUMBERS>
APRD00320

>  <COMMON_NAME>
Ampicillin

>  <CAS_NUMBER>
69-53-4

>  <UNII>
7C782967RD

>  <SYNONYMS>
ABPC; Aminobenzylpenicillin; Ampicilina; Ampicillin; Ampicillin (anhydrous); Ampicillin acid; Ampicillin anhydrous; Ampicillin, anhydrous; Ampicilline; Ampicillinum; Anhydrous ampicillin; AP; D-(−)-6-(α-aminophenylacetamido)penicillanic acid; D-(−)-ampicillin

$$$$
