
 OpenBabel10282417072D

 58 59  0  0  0  0  0  0  0  0999 V2000
   -1.8005   -0.8684    0.0000 O   0  0  0  0  0  0  0  0  0  0  0  0
   -1.2498    2.1606    0.0000 O   0  0  0  0  0  0  0  0  0  0  0  0
    5.2958   -3.0185    0.0000 O   0  0  0  0  0  0  0  0  0  0  0  0
    5.2958   -1.5887    0.0000 O   0  0  0  0  0  0  0  0  0  0  0  0
    0.3071   -0.4554    0.0000 C   0  0  1  0  0  0  0  0  0  0  0  0
    0.3071   -1.2815    0.0000 C   0  0  2  0  0  0  0  0  0  0  0  0
   -0.4766   -0.2012    0.0000 C   0  0  2  0  0  0  0  0  0  0  0  0
   -0.4766   -1.5358    0.0000 C   0  0  0  0  0  0  0  0  0  0  0  0
   -0.9638   -0.8684    0.0000 C   0  0  1  0  0  0  0  0  0  0  0  0
    1.0909   -0.2012    0.0000 C   0  0  0  0  0  0  0  0  0  0  0  0
    1.0909   -1.5358    0.0000 C   0  0  0  0  0  0  0  0  0  0  0  0
    1.5675   -0.8684    0.0000 C   0  0  0  0  0  0  0  0  0  0  0  0
   -0.7414    0.5931    0.0000 C   0  0  0  0  0  0  0  0  0  0  0  0
    2.4042   -0.8684    0.0000 C   0  0  0  0  0  0  0  0  0  0  0  0
   -1.5463    0.7626    0.0000 C   0  0  0  0  0  0  0  0  0  0  0  0
    2.8173   -1.5887    0.0000 C   0  0  0  0  0  0  0  0  0  0  0  0
   -1.8005    1.5463    0.0000 C   0  0  2  0  0  0  0  0  0  0  0  0
    3.6435   -1.5887    0.0000 C   0  0  0  0  0  0  0  0  0  0  0  0
   -2.6161    1.7158    0.0000 C   0  0  3  0  0  0  0  0  0  0  0  0
    4.0565   -2.2983    0.0000 C   0  0  0  0  0  0  0  0  0  0  0  0
   -2.8702    2.5101    0.0000 C   0  0  0  0  0  0  0  0  0  0  0  0
   -3.1668    1.1015    0.0000 C   0  0  0  0  0  0  0  0  0  0  0  0
    4.8827   -2.2983    0.0000 C   0  0  0  0  0  0  0  0  0  0  0  0
   -3.6753    2.6797    0.0000 C   0  0  0  0  0  0  0  0  0  0  0  0
   -4.4908    2.8490    0.0000 C   0  0  0  0  0  0  0  0  0  0  0  0
   -5.2958    3.0185    0.0000 C   0  0  0  0  0  0  0  0  0  0  0  0
    0.3071    0.2436    0.0000 H   0  0  0  0  0  0  0  0  0  0  0  0
    0.3071   -1.9806    0.0000 H   0  0  0  0  0  0  0  0  0  0  0  0
   -2.2855   -0.0284    0.0000 H   0  0  0  0  0  0  0  0  0  0  0  0
   -0.3006    1.9610    0.0000 H   0  0  0  0  0  0  0  0  0  0  0  0
    4.8250   -3.8286    0.0000 H   0  0  0  0  0  0  0  0  0  0  0  0
    0.2769    0.5585    0.0000 H   0  0  0  0  0  0  0  0  0  0  0  0
   -0.8063   -2.5537    0.0000 H   0  0  0  0  0  0  0  0  0  0  0  0
   -1.5332   -1.7049    0.0000 H   0  0  0  0  0  0  0  0  0  0  0  0
   -1.4484    0.0856    0.0000 H   0  0  0  0  0  0  0  0  0  0  0  0
    1.4259    0.8150    0.0000 H   0  0  0  0  0  0  0  0  0  0  0  0
    2.1487   -0.0403    0.0000 H   0  0  0  0  0  0  0  0  0  0  0  0
    1.4259   -2.5520    0.0000 H   0  0  0  0  0  0  0  0  0  0  0  0
    2.1488   -1.6966    0.0000 H   0  0  0  0  0  0  0  0  0  0  0  0
   -0.0545    1.3633    0.0000 H   0  0  0  0  0  0  0  0  0  0  0  0
    2.9215    0.0246    0.0000 H   0  0  0  0  0  0  0  0  0  0  0  0
   -2.2363   -0.0048    0.0000 H   0  0  0  0  0  0  0  0  0  0  0  0
    2.2810   -2.5146    0.0000 H   0  0  0  0  0  0  0  0  0  0  0  0
    3.3516   -2.5157    0.0000 H   0  0  0  0  0  0  0  0  0  0  0  0
   -0.7537    1.3247    0.0000 H   0  0  0  0  0  0  0  0  0  0  0  0
    4.1769   -0.6611    0.0000 H   0  0  0  0  0  0  0  0  0  0  0  0
    4.7135   -1.5859    0.0000 H   0  0  0  0  0  0  0  0  0  0  0  0
   -1.9001    2.5110    0.0000 H   0  0  0  0  0  0  0  0  0  0  0  0
    3.5231   -3.2259    0.0000 H   0  0  0  0  0  0  0  0  0  0  0  0
    4.5923   -3.2245    0.0000 H   0  0  0  0  0  0  0  0  0  0  0  0
   -2.1531    3.3043    0.0000 H   0  0  0  0  0  0  0  0  0  0  0  0
   -3.2011    3.5277    0.0000 H   0  0  0  0  0  0  0  0  0  0  0  0
   -4.2139    1.3217    0.0000 H   0  0  0  0  0  0  0  0  0  0  0  0
   -2.8339    0.0846    0.0000 H   0  0  0  0  0  0  0  0  0  0  0  0
   -3.8810    0.3048    0.0000 H   0  0  0  0  0  0  0  0  0  0  0  0
   -5.6284    4.0355    0.0000 H   0  0  0  0  0  0  0  0  0  0  0  0
   -6.0102    2.2220    0.0000 H   0  0  0  0  0  0  0  0  0  0  0  0
   -6.3428    3.2390    0.0000 H   0  0  0  0  0  0  0  0  0  0  0  0
  1 29  1  0  0  0  0
  2 30  1  0  0  0  0
  3 23  1  0  0  0  0
  3 31  1  0  0  0  0
  4 23  2  0  0  0  0
  5  6  1  0  0  0  0
  5  7  1  0  0  0  0
  5 10  1  0  0  0  0
  5 27  1  6  0  0  0
  6  8  1  0  0  0  0
  6 11  1  0  0  0  0
  6 28  1  6  0  0  0
  7  9  1  0  0  0  0
  7 13  1  0  0  0  0
  7 32  1  1  0  0  0
  8  9  1  0  0  0  0
  8 33  1  0  0  0  0
  8 34  1  0  0  0  0
  9  1  1  0  0  0  0
  9 35  1  6  0  0  0
 10 12  1  0  0  0  0
 10 36  1  0  0  0  0
 10 37  1  0  0  0  0
 11 12  1  0  0  0  0
 11 38  1  0  0  0  0
 11 39  1  0  0  0  0
 12 14  2  0  0  0  0
 13 15  2  0  0  0  0
 13 40  1  0  0  0  0
 14 16  1  0  0  0  0
 14 41  1  0  0  0  0
 15 17  1  0  0  0  0
 15 42  1  0  0  0  0
 16 18  1  0  0  0  0
 16 43  1  0  0  0  0
 16 44  1  0  0  0  0
 17  2  1  0  0  0  0
 17 19  1  0  0  0  0
 17 45  1  1  0  0  0
 18 20  1  0  0  0  0
 18 46  1  0  0  0  0
 18 47  1  0  0  0  0
 19 21  1  0  0  0  0
 19 22  1  0  0  0  0
 19 48  1  0  0  0  0
 20 23  1  0  0  0  0
 20 49  1  0  0  0  0
 20 50  1  0  0  0  0
 21 24  1  0  0  0  0
 21 51  1  0  0  0  0
 21 52  1  0  0  0  0
 22 53  1  0  0  0  0
 22 54  1  0  0  0  0
 22 55  1  0  0  0  0
 24 25  3  0  0  0  0
 25 26  1  0  0  0  0
 26 56  1  0  0  0  0
 26 57  1  0  0  0  0
 26 58  1  0  0  0  0
M  END
>  <DRUGBANK_ID>
DB01088

>  <SECONDARY_ACCESSION_NUMBERS>
APRD01027

>  <COMMON_NAME>
Iloprost

>  <CAS_NUMBER>
78919-13-8

>  <UNII>
JED5K35YGL

>  <SYNONYMS>
(5E)-[3aS,4R,5R,6aS)-5-Hydroxy-4-[(1E)-(3S,4RS)-3-hydroxy-4-methyloct-1-en-6-ynyl]-hexahydropentalen-2(1H)-ylidene]pentanoic acid; (E)-(3aS, 4R, 5R, 6aS)-hexahydro-5-hydroxy-4-[(E)-(3S,4RS)­ 3-hydroxy-4-methyl-1-octen-6-ynyl]-Δ2(1H),Δ-pentalenevaleric acid; Iloprost; PENTANOIC ACID, 5-((3AS,4R,5R,6AS)-HEXAHYDRO-5-HYDROXY-4-((1E,3S)-3-HYDROXY-4-METHYL-1-OCTEN-6-YNYL)-2(1H)-PENTALENYLIDENE)-, (5E)-

$$$$
