
 OpenBabel10282417072D

 25 20  0  0  0  0  0  0  0  0999 V2000
    1.9393   -0.6482    0.0000 O   0  6  0  0  0  0  0  0  0  0  0  0
    7.3973   -0.6482    0.0000 O   0  6  0  0  0  0  0  0  0  0  0  0
    0.0000   -2.2982    0.0000 O   0  6  0  0  0  0  0  0  0  0  0  0
   -1.6331   -0.2357    0.0000 O   0  0  0  0  0  0  0  0  0  0  0  0
   -0.9186    0.1768    0.0000 C   0  0  0  0  0  0  0  0  0  0  0  0
   -0.9186    1.0018    0.0000 O   0  0  0  0  0  0  0  0  0  0  0  0
   -0.2041   -0.2357    0.0000 C   0  0  0  0  0  0  0  0  0  0  0  0
    0.5103    0.1768    0.0000 C   0  0  0  0  0  0  0  0  0  0  0  0
    1.2248   -0.2357    0.0000 Ge  0  1  0  0  0  0  0  0  0  0  0  0
    3.8250   -0.2357    0.0000 O   0  0  0  0  0  0  0  0  0  0  0  0
    4.5395    0.1768    0.0000 C   0  0  0  0  0  0  0  0  0  0  0  0
    4.5395    1.0018    0.0000 O   0  0  0  0  0  0  0  0  0  0  0  0
    5.2539   -0.2357    0.0000 C   0  0  0  0  0  0  0  0  0  0  0  0
    5.9684    0.1768    0.0000 C   0  0  0  0  0  0  0  0  0  0  0  0
    6.6829   -0.2357    0.0000 Ge  0  1  0  0  0  0  0  0  0  0  0  0
   -2.4446    0.2328    0.0000 H   0  0  0  0  0  0  0  0  0  0  0  0
   -0.2041   -1.3057    0.0000 H   0  0  0  0  0  0  0  0  0  0  0  0
    0.7226   -0.7707    0.0000 H   0  0  0  0  0  0  0  0  0  0  0  0
    0.5103    1.2468    0.0000 H   0  0  0  0  0  0  0  0  0  0  0  0
    1.4369    0.7118    0.0000 H   0  0  0  0  0  0  0  0  0  0  0  0
    3.0135    0.2328    0.0000 H   0  0  0  0  0  0  0  0  0  0  0  0
    5.2539   -1.3057    0.0000 H   0  0  0  0  0  0  0  0  0  0  0  0
    6.1805   -0.7707    0.0000 H   0  0  0  0  0  0  0  0  0  0  0  0
    5.9684    1.2468    0.0000 H   0  0  0  0  0  0  0  0  0  0  0  0
    6.8950    0.7118    0.0000 H   0  0  0  0  0  0  0  0  0  0  0  0
  4  5  1  0  0  0  0
  4 16  1  0  0  0  0
  5  6  2  0  0  0  0
  5  7  1  0  0  0  0
  7  8  1  0  0  0  0
  7 17  1  0  0  0  0
  7 18  1  0  0  0  0
  8  9  1  0  0  0  0
  8 19  1  0  0  0  0
  8 20  1  0  0  0  0
 10 11  1  0  0  0  0
 10 21  1  0  0  0  0
 11 12  2  0  0  0  0
 11 13  1  0  0  0  0
 13 14  1  0  0  0  0
 13 22  1  0  0  0  0
 13 23  1  0  0  0  0
 14 15  1  0  0  0  0
 14 24  1  0  0  0  0
 14 25  1  0  0  0  0
M  CHG  5   1  -2   2  -2   3  -2   9   3  15   3
M  END
>  <DRUGBANK_ID>
DB17608

>  <COMMON_NAME>
Propagermanium

>  <CAS_NUMBER>
12758-40-6

>  <UNII>
1Q2P9TO9Q7

>  <SYNONYMS>
3-[[2-carboxyethyl(oxo)germyl]oxy-oxogermyl]propanoic acid; Arlamol geo; beta-carboxyethylgermanium sesquioxide; Bis (2-carboxyethylgermanium)sesquioxide; Bis(carboxyethyl)germanium sesquioxide; Carboxyethylgermanium sesquioxide; Organic germanium; Propagermanium; Propanoic acid, 3,3'-(1,3-dioxo-1,3-digermoxanediyl)bis-; Proxigermanium; Rapagermanium; Repagermanium; Serocion; SK 818; SK-818

$$$$
