
 OpenBabel10282417072D

 49 52  0  0  1  0  0  0  0  0999 V2000
   -3.1806   -4.8803    0.0000 C   0  0  0  0  0  0  0  0  0  0  0  0
   -3.7936   -4.3283    0.0000 C   0  0  0  0  0  0  0  0  0  0  0  0
   -3.6221   -3.5213    0.0000 C   0  0  0  0  0  0  0  0  0  0  0  0
   -2.8375   -3.2664    0.0000 C   0  0  0  0  0  0  0  0  0  0  0  0
   -2.2244   -3.8184    0.0000 C   0  0  0  0  0  0  0  0  0  0  0  0
   -2.3959   -4.6254    0.0000 C   0  0  0  0  0  0  0  0  0  0  0  0
   -2.6660   -2.4594    0.0000 C   0  0  0  0  0  0  0  0  0  0  0  0
   -1.8814   -2.2044    0.0000 N   0  0  0  0  0  0  0  0  0  0  0  0
   -1.7098   -1.3975    0.0000 C   0  0  0  0  0  0  0  0  0  0  0  0
   -0.9252   -1.1425    0.0000 C   0  0  0  0  0  0  0  0  0  0  0  0
   -0.7537   -0.3356    0.0000 C   0  0  0  0  0  0  0  0  0  0  0  0
   -1.3057    0.2775    0.0000 C   0  0  0  0  0  0  0  0  0  0  0  0
   -0.8932    0.9920    0.0000 N   0  0  0  0  0  0  0  0  0  0  0  0
   -0.0862    0.8205    0.0000 C   0  0  0  0  0  0  0  0  0  0  0  0
    0.5269    1.3725    0.0000 S   0  0  0  0  0  0  0  0  0  0  0  0
    0.0000    0.0000    0.0000 N   0  0  0  0  0  0  0  0  0  0  0  0
    0.7145   -0.4125    0.0000 C   0  0  2  0  0  0  0  0  0  0  0  0
    1.4289    0.0000    0.0000 C   0  0  0  0  0  0  0  0  0  0  0  0
    2.1434   -0.4125    0.0000 C   0  0  0  0  0  0  0  0  0  0  0  0
    2.8579    0.0000    0.0000 C   0  0  0  0  0  0  0  0  0  0  0  0
    3.5724   -0.4125    0.0000 C   0  0  0  0  0  0  0  0  0  0  0  0
    3.5724   -1.2375    0.0000 C   0  0  0  0  0  0  0  0  0  0  0  0
    2.8579   -1.6500    0.0000 C   0  0  0  0  0  0  0  0  0  0  0  0
    2.1434   -1.2375    0.0000 C   0  0  0  0  0  0  0  0  0  0  0  0
    1.4289   -1.6500    0.0000 O   0  0  0  0  0  0  0  0  0  0  0  0
    0.7145   -1.2375    0.0000 C   0  0  0  0  0  0  0  0  0  0  0  0
    2.8579   -2.4750    0.0000 F   0  0  0  0  0  0  0  0  0  0  0  0
    4.2868   -0.0000    0.0000 F   0  0  0  0  0  0  0  0  0  0  0  0
   -3.3952   -5.8897    0.0000 H   0  0  0  0  0  0  0  0  0  0  0  0
   -4.7751   -4.6472    0.0000 H   0  0  0  0  0  0  0  0  0  0  0  0
   -4.3890   -2.8308    0.0000 H   0  0  0  0  0  0  0  0  0  0  0  0
   -1.2429   -3.4995    0.0000 H   0  0  0  0  0  0  0  0  0  0  0  0
   -1.6290   -5.3160    0.0000 H   0  0  0  0  0  0  0  0  0  0  0  0
   -3.4612   -1.7435    0.0000 H   0  0  0  0  0  0  0  0  0  0  0  0
   -2.4436   -1.4128    0.0000 H   0  0  0  0  0  0  0  0  0  0  0  0
   -1.1234   -2.8869    0.0000 H   0  0  0  0  0  0  0  0  0  0  0  0
   -2.5050   -0.6815    0.0000 H   0  0  0  0  0  0  0  0  0  0  0  0
   -1.4874   -0.3509    0.0000 H   0  0  0  0  0  0  0  0  0  0  0  0
   -0.1300   -1.8584    0.0000 H   0  0  0  0  0  0  0  0  0  0  0  0
    0.0924   -0.8118    0.0000 H   0  0  0  0  0  0  0  0  0  0  0  0
   -2.3320    0.1696    0.0000 H   0  0  0  0  0  0  0  0  0  0  0  0
   -1.2937    1.8914    0.0000 H   0  0  0  0  0  0  0  0  0  0  0  0
    0.7145    0.6575    0.0000 H   0  0  0  0  0  0  0  0  0  0  0  0
    1.4289    1.0700    0.0000 H   0  0  0  0  0  0  0  0  0  0  0  0
    2.3555    0.5350    0.0000 H   0  0  0  0  0  0  0  0  0  0  0  0
    2.8579    1.0320    0.0000 H   0  0  0  0  0  0  0  0  0  0  0  0
    4.4661   -1.7535    0.0000 H   0  0  0  0  0  0  0  0  0  0  0  0
   -0.2122   -1.7725    0.0000 H   0  0  0  0  0  0  0  0  0  0  0  0
   -0.2121   -0.7025    0.0000 H   0  0  0  0  0  0  0  0  0  0  0  0
  1  2  2  0  0  0  0
  1  6  1  0  0  0  0
  1 29  1  0  0  0  0
  2  3  1  0  0  0  0
  2 30  1  0  0  0  0
  3  4  2  0  0  0  0
  3 31  1  0  0  0  0
  4  5  1  0  0  0  0
  4  7  1  0  0  0  0
  5  6  2  0  0  0  0
  5 32  1  0  0  0  0
  6 33  1  0  0  0  0
  7  8  1  0  0  0  0
  7 34  1  0  0  0  0
  7 35  1  0  0  0  0
  8  9  1  0  0  0  0
  8 36  1  0  0  0  0
  9 10  1  0  0  0  0
  9 37  1  0  0  0  0
  9 38  1  0  0  0  0
 10 11  1  0  0  0  0
 10 39  1  0  0  0  0
 10 40  1  0  0  0  0
 11 12  2  0  0  0  0
 11 16  1  0  0  0  0
 12 13  1  0  0  0  0
 12 41  1  0  0  0  0
 13 14  1  0  0  0  0
 13 42  1  0  0  0  0
 14 15  2  0  0  0  0
 14 16  1  0  0  0  0
 17 16  1  0  0  0  0
 17 18  1  0  0  0  0
 17 26  1  0  0  0  0
 17 43  1  1  0  0  0
 18 19  1  0  0  0  0
 18 44  1  0  0  0  0
 18 45  1  0  0  0  0
 19 20  2  0  0  0  0
 19 24  1  0  0  0  0
 20 21  1  0  0  0  0
 20 46  1  0  0  0  0
 21 22  2  0  0  0  0
 21 28  1  0  0  0  0
 22 23  1  0  0  0  0
 22 47  1  0  0  0  0
 23 24  2  0  0  0  0
 23 27  1  0  0  0  0
 24 25  1  0  0  0  0
 25 26  1  0  0  0  0
 26 48  1  0  0  0  0
 26 49  1  0  0  0  0
M  END
>  <DRUGBANK_ID>
DB12389

>  <COMMON_NAME>
Zamicastat

>  <CAS_NUMBER>
1080028-80-3

>  <UNII>
YLU32D0DNV

>  <SYNONYMS>
Zamicastat

$$$$
