
 OpenBabel10282417072D

 17 17  0  0  0  0  0  0  0  0999 V2000
    2.1434    1.2375    0.0000 C   0  0  0  0  0  0  0  0  0  0  0  0
    1.4289    0.8250    0.0000 C   0  0  0  0  0  0  0  0  0  0  0  0
    1.4289    0.0000    0.0000 C   0  0  0  0  0  0  0  0  0  0  0  0
    0.7145   -0.4125    0.0000 C   0  0  0  0  0  0  0  0  0  0  0  0
    0.0000    0.0000    0.0000 C   0  0  0  0  0  0  0  0  0  0  0  0
    0.0000    0.8250    0.0000 C   0  0  0  0  0  0  0  0  0  0  0  0
   -0.7145    1.2375    0.0000 O   0  0  0  0  0  0  0  0  0  0  0  0
    0.7145    1.2375    0.0000 C   0  0  0  0  0  0  0  0  0  0  0  0
    0.7145    2.0625    0.0000 O   0  0  0  0  0  0  0  0  0  0  0  0
    3.0700    0.7025    0.0000 H   0  0  0  0  0  0  0  0  0  0  0  0
    2.1434    2.3075    0.0000 H   0  0  0  0  0  0  0  0  0  0  0  0
    3.0701    1.7725    0.0000 H   0  0  0  0  0  0  0  0  0  0  0  0
    2.3226   -0.5160    0.0000 H   0  0  0  0  0  0  0  0  0  0  0  0
    0.7145   -1.4445    0.0000 H   0  0  0  0  0  0  0  0  0  0  0  0
   -0.8937   -0.5160    0.0000 H   0  0  0  0  0  0  0  0  0  0  0  0
   -0.7145    2.1745    0.0000 H   0  0  0  0  0  0  0  0  0  0  0  0
    1.5260    2.5310    0.0000 H   0  0  0  0  0  0  0  0  0  0  0  0
  1  2  1  0  0  0  0
  1 10  1  0  0  0  0
  1 11  1  0  0  0  0
  1 12  1  0  0  0  0
  2  3  2  0  0  0  0
  2  8  1  0  0  0  0
  3  4  1  0  0  0  0
  3 13  1  0  0  0  0
  4  5  2  0  0  0  0
  4 14  1  0  0  0  0
  5  6  1  0  0  0  0
  5 15  1  0  0  0  0
  6  7  1  0  0  0  0
  6  8  2  0  0  0  0
  7 16  1  0  0  0  0
  8  9  1  0  0  0  0
  9 17  1  0  0  0  0
M  END
>  <DRUGBANK_ID>
DB03454

>  <SECONDARY_ACCESSION_NUMBERS>
EXPT02120

>  <COMMON_NAME>
3-methyl-benzene-1,2-diol

>  <CAS_NUMBER>
488-17-5

>  <UNII>
0HUZ4Q9R8C

$$$$
