
 OpenBabel10282417072D

 54 56  0  0  1  0  0  0  0  0999 V2000
    2.7221   -0.2654    0.0000 Cl  0  0  0  0  0  0  0  0  0  0  0  0
   -2.2792    3.4471    0.0000 Cl  0  0  0  0  0  0  0  0  0  0  0  0
    1.2932    3.8596    0.0000 F   0  0  0  0  0  0  0  0  0  0  0  0
    2.1182    3.0346    0.0000 F   0  0  0  0  0  0  0  0  0  0  0  0
    0.4682    3.0346    0.0000 F   0  0  0  0  0  0  0  0  0  0  0  0
   -2.2792   -1.5029    0.0000 O   0  0  0  0  0  0  0  0  0  0  0  0
   -1.5646   -2.7404    0.0000 O   0  0  0  0  0  0  0  0  0  0  0  0
   -0.1357    0.5596    0.0000 O   0  0  0  0  0  0  0  0  0  0  0  0
    1.2932    0.5596    0.0000 N   0  0  0  0  0  0  0  0  0  0  0  0
   -0.1357   -2.7404    0.0000 C   0  0  0  0  0  0  0  0  0  0  0  0
   -0.5482   -3.4549    0.0000 C   0  0  0  0  0  0  0  0  0  0  0  0
    0.2767   -3.4549    0.0000 C   0  0  0  0  0  0  0  0  0  0  0  0
   -0.1357   -1.9154    0.0000 C   0  0  2  0  0  0  0  0  0  0  0  0
   -0.8502   -1.5029    0.0000 C   0  0  0  0  0  0  0  0  0  0  0  0
    0.5787   -1.5029    0.0000 C   0  0  0  0  0  0  0  0  0  0  0  0
    0.5787   -0.6779    0.0000 C   0  0  0  0  0  0  0  0  0  0  0  0
    1.2932   -1.9154    0.0000 C   0  0  0  0  0  0  0  0  0  0  0  0
   -1.5646   -1.9154    0.0000 C   0  0  0  0  0  0  0  0  0  0  0  0
    1.2932   -0.2654    0.0000 C   0  0  0  0  0  0  0  0  0  0  0  0
    2.0077   -1.5029    0.0000 C   0  0  0  0  0  0  0  0  0  0  0  0
    2.0077   -0.6779    0.0000 C   0  0  0  0  0  0  0  0  0  0  0  0
    0.5787    1.7971    0.0000 C   0  0  2  0  0  0  0  0  0  0  0  0
    1.2932    2.2096    0.0000 C   0  0  2  0  0  0  0  0  0  0  0  0
    0.5787    0.9721    0.0000 C   0  0  0  0  0  0  0  0  0  0  0  0
   -0.1357    2.2096    0.0000 C   0  0  0  0  0  0  0  0  0  0  0  0
    1.2932    3.0346    0.0000 C   0  0  0  0  0  0  0  0  0  0  0  0
    2.0077    1.7971    0.0000 C   0  0  0  0  0  0  0  0  0  0  0  0
   -0.8502    1.7971    0.0000 C   0  0  0  0  0  0  0  0  0  0  0  0
   -0.1357    3.0346    0.0000 C   0  0  0  0  0  0  0  0  0  0  0  0
   -1.5646    2.2096    0.0000 C   0  0  0  0  0  0  0  0  0  0  0  0
   -0.8502    3.4471    0.0000 C   0  0  0  0  0  0  0  0  0  0  0  0
   -1.5646    3.0346    0.0000 C   0  0  0  0  0  0  0  0  0  0  0  0
   -2.2793   -0.5659    0.0000 H   0  0  0  0  0  0  0  0  0  0  0  0
    2.1458    1.0519    0.0000 H   0  0  0  0  0  0  0  0  0  0  0  0
    0.8979   -2.4635    0.0000 H   0  0  0  0  0  0  0  0  0  0  0  0
   -1.4748   -3.9899    0.0000 H   0  0  0  0  0  0  0  0  0  0  0  0
   -0.2713   -4.4884    0.0000 H   0  0  0  0  0  0  0  0  0  0  0  0
    1.2033   -3.9900    0.0000 H   0  0  0  0  0  0  0  0  0  0  0  0
   -0.0003   -4.4884    0.0000 H   0  0  0  0  0  0  0  0  0  0  0  0
   -1.0623   -2.4504    0.0000 H   0  0  0  0  0  0  0  0  0  0  0  0
   -0.8502   -0.4329    0.0000 H   0  0  0  0  0  0  0  0  0  0  0  0
   -1.7769   -0.9679    0.0000 H   0  0  0  0  0  0  0  0  0  0  0  0
   -0.3150   -0.1619    0.0000 H   0  0  0  0  0  0  0  0  0  0  0  0
    1.2932   -2.9474    0.0000 H   0  0  0  0  0  0  0  0  0  0  0  0
    2.9014   -2.0189    0.0000 H   0  0  0  0  0  0  0  0  0  0  0  0
    1.5053    1.2621    0.0000 H   0  0  0  0  0  0  0  0  0  0  0  0
    1.2932    1.1396    0.0000 H   0  0  0  0  0  0  0  0  0  0  0  0
    2.0077    0.7271    0.0000 H   0  0  0  0  0  0  0  0  0  0  0  0
    2.9343    2.3321    0.0000 H   0  0  0  0  0  0  0  0  0  0  0  0
    2.9344    1.2621    0.0000 H   0  0  0  0  0  0  0  0  0  0  0  0
   -0.8502    0.7651    0.0000 H   0  0  0  0  0  0  0  0  0  0  0  0
    0.7580    3.5506    0.0000 H   0  0  0  0  0  0  0  0  0  0  0  0
   -2.4583    1.6936    0.0000 H   0  0  0  0  0  0  0  0  0  0  0  0
   -0.8502    4.4791    0.0000 H   0  0  0  0  0  0  0  0  0  0  0  0
  1 21  1  0  0  0  0
  2 32  1  0  0  0  0
  3 26  1  0  0  0  0
  4 26  1  0  0  0  0
  5 26  1  0  0  0  0
  6 18  1  0  0  0  0
  6 33  1  0  0  0  0
  7 18  2  0  0  0  0
  8 24  2  0  0  0  0
  9 19  1  0  0  0  0
  9 24  1  0  0  0  0
  9 34  1  0  0  0  0
 10 11  1  0  0  0  0
 10 12  1  0  0  0  0
 10 13  1  0  0  0  0
 10 35  1  0  0  0  0
 11 12  1  0  0  0  0
 11 36  1  0  0  0  0
 11 37  1  0  0  0  0
 12 38  1  0  0  0  0
 12 39  1  0  0  0  0
 13 14  1  0  0  0  0
 13 15  1  0  0  0  0
 13 40  1  1  0  0  0
 14 18  1  0  0  0  0
 14 41  1  0  0  0  0
 14 42  1  0  0  0  0
 15 16  2  0  0  0  0
 15 17  1  0  0  0  0
 16 19  1  0  0  0  0
 16 43  1  0  0  0  0
 17 20  2  0  0  0  0
 17 44  1  0  0  0  0
 19 21  2  0  0  0  0
 20 21  1  0  0  0  0
 20 45  1  0  0  0  0
 22 23  1  0  0  0  0
 22 24  1  0  0  0  0
 22 25  1  0  0  0  0
 22 46  1  1  0  0  0
 23 26  1  0  0  0  0
 23 27  1  0  0  0  0
 23 47  1  1  0  0  0
 25 28  2  0  0  0  0
 25 29  1  0  0  0  0
 27 48  1  0  0  0  0
 27 49  1  0  0  0  0
 27 50  1  0  0  0  0
 28 30  1  0  0  0  0
 28 51  1  0  0  0  0
 29 31  2  0  0  0  0
 29 52  1  0  0  0  0
 30 32  2  0  0  0  0
 30 53  1  0  0  0  0
 31 32  1  0  0  0  0
 31 54  1  0  0  0  0
M  END
>  <DRUGBANK_ID>
DB16700

>  <COMMON_NAME>
Runcaciguat

>  <CAS_NUMBER>
1402936-61-1

>  <UNII>
5EZ01YDT5S

>  <SYNONYMS>
Cyclopropylpropanoic acid; Runcaciguat

$$$$
