
 OpenBabel10282417072D

 27 26  0  0  1  0  0  0  0  0999 V2000
   13.7124  -11.6928    0.0000 C   0  0  0  0  0  0  0  0  0  0  0  0
   14.4269  -11.2803    0.0000 C   0  0  2  0  0  0  0  0  0  0  0  0
   15.1414  -11.6928    0.0000 C   0  0  0  0  0  0  0  0  0  0  0  0
   14.4269  -10.4553    0.0000 N   0  0  0  0  0  0  0  0  0  0  0  0
   12.9980  -11.2803    0.0000 O   0  0  0  0  0  0  0  0  0  0  0  0
   13.7124  -12.5178    0.0000 O   0  0  0  0  0  0  0  0  0  0  0  0
   15.8559  -11.2803    0.0000 C   0  0  0  0  0  0  0  0  0  0  0  0
   16.5704  -11.6928    0.0000 C   0  0  0  0  0  0  0  0  0  0  0  0
   17.2848  -11.2803    0.0000 C   0  0  0  0  0  0  0  0  0  0  0  0
   17.9993  -11.6928    0.0000 N   0  0  0  0  0  0  0  0  0  0  0  0
   18.7138  -11.2803    0.0000 C   0  0  0  0  0  0  0  0  0  0  0  0
   13.5003  -10.7453    0.0000 H   0  0  0  0  0  0  0  0  0  0  0  0
   15.1414  -12.7628    0.0000 H   0  0  0  0  0  0  0  0  0  0  0  0
   16.0680  -12.2278    0.0000 H   0  0  0  0  0  0  0  0  0  0  0  0
   15.3102   -9.9453    0.0000 H   0  0  0  0  0  0  0  0  0  0  0  0
   13.5436   -9.9453    0.0000 H   0  0  0  0  0  0  0  0  0  0  0  0
   12.9009  -12.9863    0.0000 H   0  0  0  0  0  0  0  0  0  0  0  0
   15.8559  -10.2103    0.0000 H   0  0  0  0  0  0  0  0  0  0  0  0
   16.7825  -10.7453    0.0000 H   0  0  0  0  0  0  0  0  0  0  0  0
   16.5704  -12.7628    0.0000 H   0  0  0  0  0  0  0  0  0  0  0  0
   17.4971  -12.2278    0.0000 H   0  0  0  0  0  0  0  0  0  0  0  0
   17.2848  -10.2103    0.0000 H   0  0  0  0  0  0  0  0  0  0  0  0
   18.2114  -10.7453    0.0000 H   0  0  0  0  0  0  0  0  0  0  0  0
   17.9993  -12.7128    0.0000 H   0  0  0  0  0  0  0  0  0  0  0  0
   19.6404  -11.8153    0.0000 H   0  0  0  0  0  0  0  0  0  0  0  0
   18.7138  -10.2103    0.0000 H   0  0  0  0  0  0  0  0  0  0  0  0
   19.6405  -10.7453    0.0000 H   0  0  0  0  0  0  0  0  0  0  0  0
  1  2  1  0  0  0  0
  1  5  2  0  0  0  0
  1  6  1  0  0  0  0
  2  3  1  0  0  0  0
  2  4  1  0  0  0  0
  2 12  1  6  0  0  0
  3  7  1  0  0  0  0
  3 13  1  0  0  0  0
  3 14  1  0  0  0  0
  4 15  1  0  0  0  0
  4 16  1  0  0  0  0
  6 17  1  0  0  0  0
  7  8  1  0  0  0  0
  7 18  1  0  0  0  0
  7 19  1  0  0  0  0
  8  9  1  0  0  0  0
  8 20  1  0  0  0  0
  8 21  1  0  0  0  0
  9 10  1  0  0  0  0
  9 22  1  0  0  0  0
  9 23  1  0  0  0  0
 10 11  1  0  0  0  0
 10 24  1  0  0  0  0
 11 25  1  0  0  0  0
 11 26  1  0  0  0  0
 11 27  1  0  0  0  0
M  END
>  <DRUGBANK_ID>
DB01714

>  <SECONDARY_ACCESSION_NUMBERS>
EXPT02190

>  <COMMON_NAME>
Epsilon-N-methyllysine

>  <CAS_NUMBER>
1188-07-4

>  <UNII>
FCR6T2IYVU

>  <SYNONYMS>
N-Epsilon-methyllysine; N(6)-Methyllysine

$$$$
