
 OpenBabel10282417072D

 71 74  0  0  1  0  0  0  0  0999 V2000
   10.3236    0.4746    0.0000 C   0  0  0  0  0  0  0  0  0  0  0  0
   10.7361   -0.2399    0.0000 C   0  0  0  0  0  0  0  0  0  0  0  0
   11.5611   -0.2399    0.0000 C   0  0  0  0  0  0  0  0  0  0  0  0
   10.3236   -0.9544    0.0000 N   0  0  0  0  0  0  0  0  0  0  0  0
   10.7361   -1.6688    0.0000 C   0  0  0  0  0  0  0  0  0  0  0  0
   11.5611   -1.6688    0.0000 C   0  0  0  0  0  0  0  0  0  0  0  0
   11.9736   -2.3833    0.0000 C   0  0  0  0  0  0  0  0  0  0  0  0
   11.5611   -3.0978    0.0000 C   0  0  0  0  0  0  0  0  0  0  0  0
   10.7361   -3.0978    0.0000 C   0  0  0  0  0  0  0  0  0  0  0  0
   10.3236   -2.3833    0.0000 C   0  0  0  0  0  0  0  0  0  0  0  0
    9.4986   -2.3833    0.0000 C   0  0  0  0  0  0  0  0  0  0  0  0
    9.0861   -1.6688    0.0000 C   0  0  0  0  0  0  0  0  0  0  0  0
    9.4986   -0.9544    0.0000 C   0  0  0  0  0  0  0  0  0  0  0  0
    9.0861   -0.2399    0.0000 O   0  0  0  0  0  0  0  0  0  0  0  0
    8.2611   -1.6688    0.0000 C   0  0  0  0  0  0  0  0  0  0  0  0
    7.8486   -0.9544    0.0000 O   0  0  0  0  0  0  0  0  0  0  0  0
    7.8486   -2.3833    0.0000 N   0  0  0  0  0  0  0  0  0  0  0  0
    7.0236   -2.3833    0.0000 C   0  0  1  0  0  0  0  0  0  0  0  0
    6.6656   -1.6400    0.0000 C   0  0  0  0  0  0  0  0  0  0  0  0
    5.8613   -1.4564    0.0000 C   0  0  1  0  0  0  0  0  0  0  0  0
    5.2163   -1.9708    0.0000 C   0  0  0  0  0  0  0  0  0  0  0  0
    5.2163   -2.7958    0.0000 C   0  0  0  0  0  0  0  0  0  0  0  0
    5.8613   -3.3102    0.0000 C   0  0  1  0  0  0  0  0  0  0  0  0
    6.6656   -3.1266    0.0000 C   0  0  0  0  0  0  0  0  0  0  0  0
    5.6296   -2.3833    0.0000 N   0  0  0  0  0  0  0  0  0  0  0  0
    4.8046   -2.3833    0.0000 C   0  0  0  0  0  0  0  0  0  0  0  0
    4.3921   -3.0978    0.0000 C   0  0  2  0  0  0  0  0  0  0  0  0
    4.8046   -3.8123    0.0000 C   0  0  0  0  0  0  0  0  0  0  0  0
    4.3921   -4.5267    0.0000 N   0  0  0  0  0  0  0  0  0  0  0  0
    3.5671   -4.5267    0.0000 C   0  0  0  0  0  0  0  0  0  0  0  0
    4.8046   -5.2412    0.0000 S   0  0  0  0  0  0  0  0  0  0  0  0
    5.2171   -5.9557    0.0000 O   0  0  0  0  0  0  0  0  0  0  0  0
    4.0901   -5.6537    0.0000 O   0  0  0  0  0  0  0  0  0  0  0  0
    5.5191   -4.8287    0.0000 C   0  0  0  0  0  0  0  0  0  0  0  0
    3.5671   -3.0978    0.0000 O   0  0  0  0  0  0  0  0  0  0  0  0
   10.8586    1.4012    0.0000 H   0  0  0  0  0  0  0  0  0  0  0  0
    9.2536    0.4746    0.0000 H   0  0  0  0  0  0  0  0  0  0  0  0
    9.7886    1.4013    0.0000 H   0  0  0  0  0  0  0  0  0  0  0  0
   11.2711   -1.1665    0.0000 H   0  0  0  0  0  0  0  0  0  0  0  0
   12.0961   -1.1665    0.0000 H   0  0  0  0  0  0  0  0  0  0  0  0
   12.0961    0.6867    0.0000 H   0  0  0  0  0  0  0  0  0  0  0  0
   12.6311   -0.2399    0.0000 H   0  0  0  0  0  0  0  0  0  0  0  0
   12.0771   -0.7751    0.0000 H   0  0  0  0  0  0  0  0  0  0  0  0
   13.0056   -2.3833    0.0000 H   0  0  0  0  0  0  0  0  0  0  0  0
   12.0771   -3.9915    0.0000 H   0  0  0  0  0  0  0  0  0  0  0  0
   10.2201   -3.9915    0.0000 H   0  0  0  0  0  0  0  0  0  0  0  0
    8.9826   -3.2770    0.0000 H   0  0  0  0  0  0  0  0  0  0  0  0
    8.3409   -3.2359    0.0000 H   0  0  0  0  0  0  0  0  0  0  0  0
    7.5929   -1.4773    0.0000 H   0  0  0  0  0  0  0  0  0  0  0  0
    7.3327   -0.8034    0.0000 H   0  0  0  0  0  0  0  0  0  0  0  0
    6.3122   -0.6300    0.0000 H   0  0  0  0  0  0  0  0  0  0  0  0
    6.4212   -2.3682    0.0000 H   0  0  0  0  0  0  0  0  0  0  0  0
    4.2523   -1.5066    0.0000 H   0  0  0  0  0  0  0  0  0  0  0  0
    4.3103   -2.5401    0.0000 H   0  0  0  0  0  0  0  0  0  0  0  0
    4.2523   -3.2600    0.0000 H   0  0  0  0  0  0  0  0  0  0  0  0
    5.0965   -3.8591    0.0000 H   0  0  0  0  0  0  0  0  0  0  0  0
    5.2828   -2.4101    0.0000 H   0  0  0  0  0  0  0  0  0  0  0  0
    7.3327   -3.9632    0.0000 H   0  0  0  0  0  0  0  0  0  0  0  0
    7.7289   -3.0068    0.0000 H   0  0  0  0  0  0  0  0  0  0  0  0
    4.2696   -1.4567    0.0000 H   0  0  0  0  0  0  0  0  0  0  0  0
    3.7346   -2.3833    0.0000 H   0  0  0  0  0  0  0  0  0  0  0  0
    3.8571   -2.1712    0.0000 H   0  0  0  0  0  0  0  0  0  0  0  0
    5.8746   -3.8123    0.0000 H   0  0  0  0  0  0  0  0  0  0  0  0
    5.3396   -4.7390    0.0000 H   0  0  0  0  0  0  0  0  0  0  0  0
    3.0321   -3.6001    0.0000 H   0  0  0  0  0  0  0  0  0  0  0  0
    3.0321   -5.4533    0.0000 H   0  0  0  0  0  0  0  0  0  0  0  0
    2.4971   -4.5267    0.0000 H   0  0  0  0  0  0  0  0  0  0  0  0
    6.4457   -5.3637    0.0000 H   0  0  0  0  0  0  0  0  0  0  0  0
    5.5191   -3.7587    0.0000 H   0  0  0  0  0  0  0  0  0  0  0  0
    6.4458   -4.2937    0.0000 H   0  0  0  0  0  0  0  0  0  0  0  0
    3.0821   -2.2578    0.0000 H   0  0  0  0  0  0  0  0  0  0  0  0
  1  2  1  0  0  0  0
  1 36  1  0  0  0  0
  1 37  1  0  0  0  0
  1 38  1  0  0  0  0
  2  3  1  0  0  0  0
  2  4  1  0  0  0  0
  2 39  1  0  0  0  0
  3 40  1  0  0  0  0
  3 41  1  0  0  0  0
  3 42  1  0  0  0  0
  4  5  1  0  0  0  0
  4 13  1  0  0  0  0
  5  6  2  0  0  0  0
  5 10  1  0  0  0  0
  6  7  1  0  0  0  0
  6 43  1  0  0  0  0
  7  8  2  0  0  0  0
  7 44  1  0  0  0  0
  8  9  1  0  0  0  0
  8 45  1  0  0  0  0
  9 10  2  0  0  0  0
  9 46  1  0  0  0  0
 10 11  1  0  0  0  0
 11 12  2  0  0  0  0
 11 47  1  0  0  0  0
 12 13  1  0  0  0  0
 12 15  1  0  0  0  0
 13 14  2  0  0  0  0
 15 16  2  0  0  0  0
 15 17  1  0  0  0  0
 17 48  1  0  0  0  0
 18 17  1  0  0  0  0
 18 19  1  0  0  0  0
 18 24  1  0  0  0  0
 18 49  1  1  0  0  0
 19 20  1  0  0  0  0
 19 50  1  0  0  0  0
 19 51  1  0  0  0  0
 20 21  1  0  0  0  0
 20 25  1  0  0  0  0
 20 52  1  1  0  0  0
 21 22  1  0  0  0  0
 21 53  1  0  0  0  0
 21 54  1  0  0  0  0
 22 23  1  0  0  0  0
 22 55  1  0  0  0  0
 22 56  1  0  0  0  0
 23 24  1  0  0  0  0
 23 25  1  0  0  0  0
 23 57  1  1  0  0  0
 24 58  1  0  0  0  0
 24 59  1  0  0  0  0
 25 26  1  0  0  0  0
 26 27  1  0  0  0  0
 26 60  1  0  0  0  0
 26 61  1  0  0  0  0
 27 28  1  0  0  0  0
 27 35  1  0  0  0  0
 27 62  1  1  0  0  0
 28 29  1  0  0  0  0
 28 63  1  0  0  0  0
 28 64  1  0  0  0  0
 29 30  1  0  0  0  0
 29 31  1  0  0  0  0
 30 65  1  0  0  0  0
 30 66  1  0  0  0  0
 30 67  1  0  0  0  0
 31 32  2  0  0  0  0
 31 33  2  0  0  0  0
 31 34  1  0  0  0  0
 34 68  1  0  0  0  0
 34 69  1  0  0  0  0
 34 70  1  0  0  0  0
 35 71  1  0  0  0  0
M  END
>  <DRUGBANK_ID>
DB12702

>  <SECONDARY_ACCESSION_NUMBERS>
DB05655

>  <COMMON_NAME>
Velusetrag

>  <CAS_NUMBER>
866933-46-2

>  <UNII>
J4VNV64ARB

>  <SYNONYMS>
Velusetrag

$$$$
