
 OpenBabel10282417072D

 40 41  0  0  1  0  0  0  0  0999 V2000
    1.6500   -1.0313    0.0000 Cl  0  0  0  0  0  0  0  0  0  0  0  0
    3.0791    1.4438    0.0000 O   0  0  0  0  0  0  0  0  0  0  0  0
    3.0791   -0.2063    0.0000 O   0  0  0  0  0  0  0  0  0  0  0  0
    4.5080    2.2688    0.0000 N   0  0  0  0  0  0  0  0  0  0  0  0
    3.0791   -1.0313    0.0000 N   0  0  0  0  0  0  0  0  0  0  0  0
    3.0791   -3.5063    0.0000 N   0  0  0  0  0  0  0  0  0  0  0  0
    3.7935    2.6813    0.0000 C   0  0  0  0  0  0  0  0  0  0  0  0
    5.2224    2.6813    0.0000 C   0  0  0  0  0  0  0  0  0  0  0  0
    3.7935    3.5063    0.0000 C   0  0  0  0  0  0  0  0  0  0  0  0
    5.2224    3.5063    0.0000 C   0  0  0  0  0  0  0  0  0  0  0  0
    4.5080    3.9188    0.0000 C   0  0  0  0  0  0  0  0  0  0  0  0
    4.5080    1.4438    0.0000 C   0  0  0  0  0  0  0  0  0  0  0  0
    3.7935    1.0313    0.0000 C   0  0  3  0  0  0  0  0  0  0  0  0
    3.7935    0.2063    0.0000 C   0  0  0  0  0  0  0  0  0  0  0  0
    2.3645   -1.4438    0.0000 C   0  0  0  0  0  0  0  0  0  0  0  0
    2.3645   -2.2688    0.0000 C   0  0  0  0  0  0  0  0  0  0  0  0
    1.6500   -2.6813    0.0000 C   0  0  0  0  0  0  0  0  0  0  0  0
    3.0791   -2.6813    0.0000 C   0  0  0  0  0  0  0  0  0  0  0  0
    1.6500   -3.5063    0.0000 C   0  0  0  0  0  0  0  0  0  0  0  0
    2.3645   -3.9188    0.0000 C   0  0  0  0  0  0  0  0  0  0  0  0
    3.0791    2.4138    0.0000 H   0  0  0  0  0  0  0  0  0  0  0  0
    2.8669    2.1463    0.0000 H   0  0  0  0  0  0  0  0  0  0  0  0
    2.8669    3.2163    0.0000 H   0  0  0  0  0  0  0  0  0  0  0  0
    6.1491    2.1463    0.0000 H   0  0  0  0  0  0  0  0  0  0  0  0
    6.1490    3.2163    0.0000 H   0  0  0  0  0  0  0  0  0  0  0  0
    2.8669    4.0413    0.0000 H   0  0  0  0  0  0  0  0  0  0  0  0
    3.7935    4.5763    0.0000 H   0  0  0  0  0  0  0  0  0  0  0  0
    6.1491    4.0413    0.0000 H   0  0  0  0  0  0  0  0  0  0  0  0
    5.2224    4.5763    0.0000 H   0  0  0  0  0  0  0  0  0  0  0  0
    4.5080    4.9888    0.0000 H   0  0  0  0  0  0  0  0  0  0  0  0
    5.4347    4.4538    0.0000 H   0  0  0  0  0  0  0  0  0  0  0  0
    5.4346    0.9088    0.0000 H   0  0  0  0  0  0  0  0  0  0  0  0
    4.5080    0.3738    0.0000 H   0  0  0  0  0  0  0  0  0  0  0  0
    3.7935    2.1013    0.0000 H   0  0  0  0  0  0  0  0  0  0  0  0
    4.7202   -0.3286    0.0000 H   0  0  0  0  0  0  0  0  0  0  0  0
    4.7201    0.7413    0.0000 H   0  0  0  0  0  0  0  0  0  0  0  0
    0.7563   -2.1653    0.0000 H   0  0  0  0  0  0  0  0  0  0  0  0
    3.9728   -2.1653    0.0000 H   0  0  0  0  0  0  0  0  0  0  0  0
    0.7563   -4.0223    0.0000 H   0  0  0  0  0  0  0  0  0  0  0  0
    2.3645   -4.9508    0.0000 H   0  0  0  0  0  0  0  0  0  0  0  0
  1 15  1  0  0  0  0
  2 13  1  0  0  0  0
  2 21  1  0  0  0  0
  3  5  1  0  0  0  0
  3 14  1  0  0  0  0
  4  7  1  0  0  0  0
  4  8  1  0  0  0  0
  4 12  1  0  0  0  0
  5 15  2  0  0  0  0
  6 18  1  0  0  0  0
  6 20  2  0  0  0  0
  7  9  1  0  0  0  0
  7 22  1  0  0  0  0
  7 23  1  0  0  0  0
  8 10  1  0  0  0  0
  8 24  1  0  0  0  0
  8 25  1  0  0  0  0
  9 11  1  0  0  0  0
  9 26  1  0  0  0  0
  9 27  1  0  0  0  0
 10 11  1  0  0  0  0
 10 28  1  0  0  0  0
 10 29  1  0  0  0  0
 11 30  1  0  0  0  0
 11 31  1  0  0  0  0
 12 13  1  0  0  0  0
 12 32  1  0  0  0  0
 12 33  1  0  0  0  0
 13 14  1  0  0  0  0
 13 34  1  0  0  0  0
 14 35  1  0  0  0  0
 14 36  1  0  0  0  0
 15 16  1  0  0  0  0
 16 17  1  0  0  0  0
 16 18  2  0  0  0  0
 17 19  2  0  0  0  0
 17 37  1  0  0  0  0
 18 38  1  0  0  0  0
 19 20  1  0  0  0  0
 19 39  1  0  0  0  0
 20 40  1  0  0  0  0
M  END
>  <DRUGBANK_ID>
DB06258

>  <COMMON_NAME>
Bimoclomol

>  <CAS_NUMBER>
130493-03-7

>  <UNII>
9IYF14814M

>  <SYNONYMS>
Bimoclomol

$$$$
