
 OpenBabel10282417072D

 51 53  0  0  0  0  0  0  0  0999 V2000
   -3.5666    0.6274    0.0000 C   0  0  0  0  0  0  0  0  0  0  0  0
   -2.8526    1.0408    0.0000 C   0  0  0  0  0  0  0  0  0  0  0  0
   -2.1386    0.6274    0.0000 N   0  0  0  0  0  0  0  0  0  0  0  0
   -1.4246    1.0408    0.0000 C   0  0  3  0  0  0  0  0  0  0  0  0
   -0.7107    0.6274    0.0000 C   0  0  0  0  0  0  0  0  0  0  0  0
    0.0032    1.0408    0.0000 C   0  0  0  0  0  0  0  0  0  0  0  0
   -4.2811    1.0420    0.0000 C   0  0  0  0  0  0  0  0  0  0  0  0
   -4.9945    0.6293    0.0000 N   0  0  0  0  0  0  0  0  0  0  0  0
   -4.9940   -0.1965    0.0000 C   0  0  0  0  0  0  0  0  0  0  0  0
   -4.2740   -0.6080    0.0000 C   0  0  0  0  0  0  0  0  0  0  0  0
   -3.5635   -0.1929    0.0000 C   0  0  0  0  0  0  0  0  0  0  0  0
   -2.8526    1.8675    0.0000 O   0  0  0  0  0  0  0  0  0  0  0  0
   -1.4246    1.8675    0.0000 C   0  0  0  0  0  0  0  0  0  0  0  0
    0.7172    0.6274    0.0000 N   0  0  0  0  0  0  0  0  0  0  0  0
    0.7143   -0.1985    0.0000 C   0  0  0  0  0  0  0  0  0  0  0  0
    1.4241   -0.6118    0.0000 C   0  0  0  0  0  0  0  0  0  0  0  0
    2.1415   -0.2036    0.0000 N   0  0  0  0  0  0  0  0  0  0  0  0
    2.1444    0.6222    0.0000 C   0  0  0  0  0  0  0  0  0  0  0  0
    1.4301    1.0401    0.0000 C   0  0  0  0  0  0  0  0  0  0  0  0
    2.8554   -0.6206    0.0000 C   0  0  0  0  0  0  0  0  0  0  0  0
    2.8481   -1.4446    0.0000 C   0  0  0  0  0  0  0  0  0  0  0  0
    3.5612   -1.8613    0.0000 C   0  0  0  0  0  0  0  0  0  0  0  0
    4.2802   -1.4515    0.0000 C   0  0  0  0  0  0  0  0  0  0  0  0
    4.2816   -0.6206    0.0000 C   0  0  0  0  0  0  0  0  0  0  0  0
    3.5680   -0.2074    0.0000 C   0  0  0  0  0  0  0  0  0  0  0  0
    4.9945   -1.8675    0.0000 F   0  0  0  0  0  0  0  0  0  0  0  0
   -2.1386   -0.3571    0.0000 H   0  0  0  0  0  0  0  0  0  0  0  0
   -2.3516    1.5752    0.0000 H   0  0  0  0  0  0  0  0  0  0  0  0
   -0.7107   -0.4426    0.0000 H   0  0  0  0  0  0  0  0  0  0  0  0
    0.2163    0.0930    0.0000 H   0  0  0  0  0  0  0  0  0  0  0  0
    0.0032    2.1108    0.0000 H   0  0  0  0  0  0  0  0  0  0  0  0
   -0.9238    1.5752    0.0000 H   0  0  0  0  0  0  0  0  0  0  0  0
   -4.2804    2.0740    0.0000 H   0  0  0  0  0  0  0  0  0  0  0  0
   -5.8864   -0.7147    0.0000 H   0  0  0  0  0  0  0  0  0  0  0  0
   -4.2691   -1.6400    0.0000 H   0  0  0  0  0  0  0  0  0  0  0  0
   -2.6675   -0.7049    0.0000 H   0  0  0  0  0  0  0  0  0  0  0  0
   -0.4980    2.4025    0.0000 H   0  0  0  0  0  0  0  0  0  0  0  0
   -2.3512    2.4025    0.0000 H   0  0  0  0  0  0  0  0  0  0  0  0
   -1.4246    2.9375    0.0000 H   0  0  0  0  0  0  0  0  0  0  0  0
   -0.2143   -0.7302    0.0000 H   0  0  0  0  0  0  0  0  0  0  0  0
    0.7104   -1.2685    0.0000 H   0  0  0  0  0  0  0  0  0  0  0  0
    1.4188   -1.6818    0.0000 H   0  0  0  0  0  0  0  0  0  0  0  0
    2.3477   -1.1520    0.0000 H   0  0  0  0  0  0  0  0  0  0  0  0
    3.0735    1.1529    0.0000 H   0  0  0  0  0  0  0  0  0  0  0  0
    2.1500    1.6922    0.0000 H   0  0  0  0  0  0  0  0  0  0  0  0
    1.4326    2.1101    0.0000 H   0  0  0  0  0  0  0  0  0  0  0  0
    2.3589    1.5714    0.0000 H   0  0  0  0  0  0  0  0  0  0  0  0
    1.9507   -1.9543    0.0000 H   0  0  0  0  0  0  0  0  0  0  0  0
    3.5556   -2.8933    0.0000 H   0  0  0  0  0  0  0  0  0  0  0  0
    5.1761   -0.1059    0.0000 H   0  0  0  0  0  0  0  0  0  0  0  0
    3.5677    0.8246    0.0000 H   0  0  0  0  0  0  0  0  0  0  0  0
  1  7  2  0  0  0  0
  1  2  1  0  0  0  0
  2  3  1  0  0  0  0
  2 12  2  0  0  0  0
  3  4  1  0  0  0  0
  3 27  1  0  0  0  0
  4 13  1  0  0  0  0
  4  5  1  0  0  0  0
  4 28  1  0  0  0  0
  5  6  1  0  0  0  0
  5 29  1  0  0  0  0
  5 30  1  0  0  0  0
  6 14  1  0  0  0  0
  6 31  1  0  0  0  0
  6 32  1  0  0  0  0
  7  8  1  0  0  0  0
  7 33  1  0  0  0  0
  8  9  2  0  0  0  0
  9 10  1  0  0  0  0
  9 34  1  0  0  0  0
 10 11  2  0  0  0  0
 10 35  1  0  0  0  0
 11  1  1  0  0  0  0
 11 36  1  0  0  0  0
 13 37  1  0  0  0  0
 13 38  1  0  0  0  0
 13 39  1  0  0  0  0
 14 15  1  0  0  0  0
 14 19  1  0  0  0  0
 15 16  1  0  0  0  0
 15 40  1  0  0  0  0
 15 41  1  0  0  0  0
 16 17  1  0  0  0  0
 16 42  1  0  0  0  0
 16 43  1  0  0  0  0
 17 18  1  0  0  0  0
 17 20  1  0  0  0  0
 18 19  1  0  0  0  0
 18 44  1  0  0  0  0
 18 45  1  0  0  0  0
 19 46  1  0  0  0  0
 19 47  1  0  0  0  0
 20 21  2  0  0  0  0
 21 22  1  0  0  0  0
 21 48  1  0  0  0  0
 22 23  2  0  0  0  0
 22 49  1  0  0  0  0
 23 24  1  0  0  0  0
 23 26  1  0  0  0  0
 24 25  2  0  0  0  0
 24 50  1  0  0  0  0
 25 20  1  0  0  0  0
 25 51  1  0  0  0  0
M  END
>  <DRUGBANK_ID>
DB13687

>  <COMMON_NAME>
Niaprazine

>  <CAS_NUMBER>
27367-90-4

>  <UNII>
R2H3YN6E3L

>  <SYNONYMS>
Niaprazina; Niaprazine; Niaprazinum

$$$$
