
 OpenBabel10282417072D

 21 22  0  0  0  0  0  0  0  0999 V2000
    0.7144   -1.2375    0.0000 N   0  0  0  0  0  0  0  0  0  0  0  0
    1.4290   -0.8250    0.0000 C   0  0  0  0  0  0  0  0  0  0  0  0
    1.4290    0.0000    0.0000 C   0  0  0  0  0  0  0  0  0  0  0  0
    0.7145    0.4124    0.0000 N   0  0  0  0  0  0  0  0  0  0  0  0
    0.0000    0.0000    0.0000 C   0  0  0  0  0  0  0  0  0  0  0  0
    0.0000   -0.8250    0.0000 C   0  0  0  0  0  0  0  0  0  0  0  0
   -0.7146   -1.2375    0.0000 N   0  0  0  0  0  0  0  0  0  0  0  0
   -1.4291   -0.8249    0.0000 C   0  0  0  0  0  0  0  0  0  0  0  0
   -1.4290    0.0000    0.0000 N   0  0  0  0  0  0  0  0  0  0  0  0
   -0.7145    0.4126    0.0000 C   0  0  0  0  0  0  0  0  0  0  0  0
   -0.7144    1.2375    0.0000 O   0  0  0  0  0  0  0  0  0  0  0  0
   -2.1437   -1.2374    0.0000 N   0  0  0  0  0  0  0  0  0  0  0  0
    2.1436    0.4124    0.0000 C   0  0  0  0  0  0  0  0  0  0  0  0
    2.1437    1.2374    0.0000 O   0  0  0  0  0  0  0  0  0  0  0  0
    2.3227   -1.3410    0.0000 H   0  0  0  0  0  0  0  0  0  0  0  0
   -0.7147   -2.2220    0.0000 H   0  0  0  0  0  0  0  0  0  0  0  0
   -2.9963   -0.7451    0.0000 H   0  0  0  0  0  0  0  0  0  0  0  0
   -2.1438   -2.2219    0.0000 H   0  0  0  0  0  0  0  0  0  0  0  0
    3.0702   -0.1227    0.0000 H   0  0  0  0  0  0  0  0  0  0  0  0
    3.0703    0.9473    0.0000 H   0  0  0  0  0  0  0  0  0  0  0  0
    2.9838    1.7223    0.0000 H   0  0  0  0  0  0  0  0  0  0  0  0
  1  2  1  0  0  0  0
  2  3  2  0  0  0  0
  2 15  1  0  0  0  0
  3  4  1  0  0  0  0
  3 13  1  0  0  0  0
  4  5  2  0  0  0  0
  5  6  1  0  0  0  0
  6  1  2  0  0  0  0
  6  7  1  0  0  0  0
  7  8  1  0  0  0  0
  7 16  1  0  0  0  0
  8  9  2  0  0  0  0
  8 12  1  0  0  0  0
  9 10  1  0  0  0  0
 10  5  1  0  0  0  0
 10 11  2  0  0  0  0
 12 17  1  0  0  0  0
 12 18  1  0  0  0  0
 13 14  1  0  0  0  0
 13 19  1  0  0  0  0
 13 20  1  0  0  0  0
 14 21  1  0  0  0  0
M  END
>  <DRUGBANK_ID>
DB03197

>  <SECONDARY_ACCESSION_NUMBERS>
EXPT01747

>  <COMMON_NAME>
6-Hydroxymethylpterin

>  <CAS_NUMBER>
712-29-8

>  <UNII>
7O0I7Z5A0Y

>  <SYNONYMS>
2-Amino-4-hydroxy-6-hydroxymethyl-pteridine; 6-(Hydroxymethyl)pterin; Pterin-6-methanol; Rana-pterin 3; Ranachrome 3

$$$$
