
 OpenBabel10282417072D

 67 69  0  0  0  0  0  0  0  0999 V2000
   -3.5216    0.4105    0.0000 C   0  0  0  0  0  0  0  0  0  0  0  0
   -3.5216   -0.4144    0.0000 C   0  0  0  0  0  0  0  0  0  0  0  0
   -2.8071   -0.8270    0.0000 N   0  0  0  0  0  0  0  0  0  0  0  0
   -2.0926   -0.4144    0.0000 C   0  0  0  0  0  0  0  0  0  0  0  0
   -2.0926    0.4105    0.0000 C   0  0  0  0  0  0  0  0  0  0  0  0
   -2.8071    0.8231    0.0000 N   0  0  0  0  0  0  0  0  0  0  0  0
   -4.2361    0.8231    0.0000 C   0  0  0  0  0  0  0  0  0  0  0  0
   -4.2361   -0.8270    0.0000 C   0  0  0  0  0  0  0  0  0  0  0  0
   -4.2361    1.6480    0.0000 C   0  0  0  0  0  0  0  0  0  0  0  0
   -4.9507    2.0606    0.0000 C   0  0  0  0  0  0  0  0  0  0  0  0
   -5.6651    1.6480    0.0000 C   0  0  0  0  0  0  0  0  0  0  0  0
   -5.6651    0.8231    0.0000 C   0  0  0  0  0  0  0  0  0  0  0  0
   -4.9507    0.4105    0.0000 C   0  0  0  0  0  0  0  0  0  0  0  0
   -4.9407   -0.4201    0.0000 C   0  0  0  0  0  0  0  0  0  0  0  0
   -5.6552   -0.8326    0.0000 C   0  0  0  0  0  0  0  0  0  0  0  0
   -5.6553   -1.6576    0.0000 C   0  0  0  0  0  0  0  0  0  0  0  0
   -4.9508   -2.0646    0.0000 C   0  0  0  0  0  0  0  0  0  0  0  0
   -4.2362   -1.6520    0.0000 C   0  0  0  0  0  0  0  0  0  0  0  0
   -1.3670    0.8296    0.0000 N   0  0  0  0  0  0  0  0  0  0  0  0
   -0.6567    0.4195    0.0000 C   0  0  0  0  0  0  0  0  0  0  0  0
   -1.3672    1.6480    0.0000 C   0  0  0  0  0  0  0  0  0  0  0  0
   -2.0887    2.0646    0.0000 C   0  0  0  0  0  0  0  0  0  0  0  0
   -0.6596    2.0568    0.0000 C   0  0  0  0  0  0  0  0  0  0  0  0
    0.0399    0.8220    0.0000 C   0  0  0  0  0  0  0  0  0  0  0  0
    0.7436    0.4157    0.0000 C   0  0  0  0  0  0  0  0  0  0  0  0
    1.4437    0.8200    0.0000 C   0  0  0  0  0  0  0  0  0  0  0  0
    2.1457    0.4147    0.0000 O   0  0  0  0  0  0  0  0  0  0  0  0
    2.8465    0.8195    0.0000 C   0  0  0  0  0  0  0  0  0  0  0  0
    3.5481    0.4144    0.0000 C   0  0  0  0  0  0  0  0  0  0  0  0
    4.2493    0.8194    0.0000 N   0  0  0  0  0  0  0  0  0  0  0  0
    4.9507    0.4143    0.0000 S   0  0  0  0  0  0  0  0  0  0  0  0
    3.5482   -0.4143    0.0000 O   0  0  0  0  0  0  0  0  0  0  0  0
    5.6651    0.0018    0.0000 C   0  0  0  0  0  0  0  0  0  0  0  0
    4.5327   -0.3096    0.0000 O   0  0  0  0  0  0  0  0  0  0  0  0
    5.3575    1.1193    0.0000 O   0  0  0  0  0  0  0  0  0  0  0  0
   -1.1988   -0.9304    0.0000 H   0  0  0  0  0  0  0  0  0  0  0  0
   -3.3424    2.1640    0.0000 H   0  0  0  0  0  0  0  0  0  0  0  0
   -4.9508    3.0926    0.0000 H   0  0  0  0  0  0  0  0  0  0  0  0
   -6.5589    2.1639    0.0000 H   0  0  0  0  0  0  0  0  0  0  0  0
   -6.5589    0.3072    0.0000 H   0  0  0  0  0  0  0  0  0  0  0  0
   -4.9508   -0.6215    0.0000 H   0  0  0  0  0  0  0  0  0  0  0  0
   -4.9406    0.6119    0.0000 H   0  0  0  0  0  0  0  0  0  0  0  0
   -6.5489   -0.3165    0.0000 H   0  0  0  0  0  0  0  0  0  0  0  0
   -6.5491   -2.1734    0.0000 H   0  0  0  0  0  0  0  0  0  0  0  0
   -4.9509   -3.0966    0.0000 H   0  0  0  0  0  0  0  0  0  0  0  0
   -3.3425   -2.1680    0.0000 H   0  0  0  0  0  0  0  0  0  0  0  0
   -0.6565   -0.6505    0.0000 H   0  0  0  0  0  0  0  0  0  0  0  0
    0.2701   -0.1153    0.0000 H   0  0  0  0  0  0  0  0  0  0  0  0
   -1.3673    2.7180    0.0000 H   0  0  0  0  0  0  0  0  0  0  0  0
   -2.0887    3.1346    0.0000 H   0  0  0  0  0  0  0  0  0  0  0  0
   -3.0154    1.5296    0.0000 H   0  0  0  0  0  0  0  0  0  0  0  0
   -3.0153    2.5996    0.0000 H   0  0  0  0  0  0  0  0  0  0  0  0
    0.2672    1.5221    0.0000 H   0  0  0  0  0  0  0  0  0  0  0  0
   -0.6599    3.1268    0.0000 H   0  0  0  0  0  0  0  0  0  0  0  0
    0.2669    2.5921    0.0000 H   0  0  0  0  0  0  0  0  0  0  0  0
    0.0397    1.8920    0.0000 H   0  0  0  0  0  0  0  0  0  0  0  0
    0.9665    1.3571    0.0000 H   0  0  0  0  0  0  0  0  0  0  0  0
    0.7436   -0.6543    0.0000 H   0  0  0  0  0  0  0  0  0  0  0  0
    1.6703   -0.1192    0.0000 H   0  0  0  0  0  0  0  0  0  0  0  0
    1.4436    1.8900    0.0000 H   0  0  0  0  0  0  0  0  0  0  0  0
    2.3703    1.3550    0.0000 H   0  0  0  0  0  0  0  0  0  0  0  0
    2.8464    1.8895    0.0000 H   0  0  0  0  0  0  0  0  0  0  0  0
    3.7731    1.3545    0.0000 H   0  0  0  0  0  0  0  0  0  0  0  0
    4.2493    1.8039    0.0000 H   0  0  0  0  0  0  0  0  0  0  0  0
    5.6651   -1.0682    0.0000 H   0  0  0  0  0  0  0  0  0  0  0  0
    6.5918    0.5368    0.0000 H   0  0  0  0  0  0  0  0  0  0  0  0
    6.5917   -0.5332    0.0000 H   0  0  0  0  0  0  0  0  0  0  0  0
  1  2  2  0  0  0  0
  1  6  1  0  0  0  0
  1  7  1  0  0  0  0
  2  3  1  0  0  0  0
  2  8  1  0  0  0  0
  3  4  2  0  0  0  0
  4  5  1  0  0  0  0
  4 36  1  0  0  0  0
  5  6  2  0  0  0  0
  5 19  1  0  0  0  0
  7  9  2  0  0  0  0
  7 13  1  0  0  0  0
  8 14  2  0  0  0  0
  8 18  1  0  0  0  0
  9 10  1  0  0  0  0
  9 37  1  0  0  0  0
 10 11  2  0  0  0  0
 10 38  1  0  0  0  0
 11 12  1  0  0  0  0
 11 39  1  0  0  0  0
 12 13  2  0  0  0  0
 12 40  1  0  0  0  0
 13 41  1  0  0  0  0
 14 15  1  0  0  0  0
 14 42  1  0  0  0  0
 15 16  2  0  0  0  0
 15 43  1  0  0  0  0
 16 17  1  0  0  0  0
 16 44  1  0  0  0  0
 17 18  2  0  0  0  0
 17 45  1  0  0  0  0
 18 46  1  0  0  0  0
 19 20  1  0  0  0  0
 19 21  1  0  0  0  0
 20 24  1  0  0  0  0
 20 47  1  0  0  0  0
 20 48  1  0  0  0  0
 21 22  1  0  0  0  0
 21 23  1  0  0  0  0
 21 49  1  0  0  0  0
 22 50  1  0  0  0  0
 22 51  1  0  0  0  0
 22 52  1  0  0  0  0
 23 53  1  0  0  0  0
 23 54  1  0  0  0  0
 23 55  1  0  0  0  0
 24 25  1  0  0  0  0
 24 56  1  0  0  0  0
 24 57  1  0  0  0  0
 25 26  1  0  0  0  0
 25 58  1  0  0  0  0
 25 59  1  0  0  0  0
 26 27  1  0  0  0  0
 26 60  1  0  0  0  0
 26 61  1  0  0  0  0
 27 28  1  0  0  0  0
 28 29  1  0  0  0  0
 28 62  1  0  0  0  0
 28 63  1  0  0  0  0
 29 30  1  0  0  0  0
 29 32  2  0  0  0  0
 30 31  1  0  0  0  0
 30 64  1  0  0  0  0
 31 33  1  0  0  0  0
 31 34  2  0  0  0  0
 31 35  2  0  0  0  0
 33 65  1  0  0  0  0
 33 66  1  0  0  0  0
 33 67  1  0  0  0  0
M  END
>  <DRUGBANK_ID>
DB11362

>  <COMMON_NAME>
Selexipag

>  <CAS_NUMBER>
475086-01-2

>  <UNII>
5EXC0E384L

>  <SYNONYMS>
Selexipag

$$$$
