1489
 OpenBabel10282417072D

 44 46  0  0  1  0  0  0  0  0999 V2000
    2.8172   -3.1025    0.0000 Cl  0  0  0  0  0  0  0  0  0  0  0  0
    4.1516    1.6159    0.0000 O   0  0  0  0  0  0  0  0  0  0  0  0
    2.6107    1.6159    0.0000 O   0  0  0  0  0  0  0  0  0  0  0  0
    5.4391    0.9959    0.0000 O   0  0  0  0  0  0  0  0  0  0  0  0
    2.4543    0.2276    0.0000 N   0  0  0  0  0  0  0  0  0  0  0  0
    4.3081    0.2276    0.0000 N   0  0  0  0  0  0  0  0  0  0  0  0
    5.3323    2.4209    0.0000 N   0  0  0  0  0  0  0  0  0  0  0  0
    2.6379   -0.5767    0.0000 C   0  0  0  0  0  0  0  0  0  0  0  0
    3.3812   -0.9346    0.0000 C   0  0  0  0  0  0  0  0  0  0  0  0
    4.1245   -0.5767    0.0000 C   0  0  0  0  0  0  0  0  0  0  0  0
    3.7937    0.8726    0.0000 C   0  0  3  0  0  0  0  0  0  0  0  0
    2.9687    0.8726    0.0000 C   0  0  0  0  0  0  0  0  0  0  0  0
    4.7695   -1.0911    0.0000 C   0  0  0  0  0  0  0  0  0  0  0  0
    1.9205   -1.0498    0.0000 C   0  0  0  0  0  0  0  0  0  0  0  0
    3.4586   -1.7905    0.0000 C   0  0  0  0  0  0  0  0  0  0  0  0
    1.6500    0.4112    0.0000 C   0  0  0  0  0  0  0  0  0  0  0  0
    1.9781   -1.9072    0.0000 C   0  0  0  0  0  0  0  0  0  0  0  0
    2.7524   -2.2801    0.0000 C   0  0  0  0  0  0  0  0  0  0  0  0
    5.5375   -0.7897    0.0000 C   0  0  0  0  0  0  0  0  0  0  0  0
    4.6466   -1.9069    0.0000 C   0  0  0  0  0  0  0  0  0  0  0  0
    6.1825   -1.3041    0.0000 C   0  0  0  0  0  0  0  0  0  0  0  0
    5.2915   -2.4213    0.0000 C   0  0  0  0  0  0  0  0  0  0  0  0
    4.9743    1.6776    0.0000 C   0  0  0  0  0  0  0  0  0  0  0  0
    6.0595   -2.1198    0.0000 C   0  0  0  0  0  0  0  0  0  0  0  0
    6.1550    2.4825    0.0000 C   0  0  0  0  0  0  0  0  0  0  0  0
    4.8676    3.1025    0.0000 C   0  0  0  0  0  0  0  0  0  0  0  0
    4.8570    0.9924    0.0000 H   0  0  0  0  0  0  0  0  0  0  0  0
    0.9959   -0.5913    0.0000 H   0  0  0  0  0  0  0  0  0  0  0  0
    4.3935   -2.2275    0.0000 H   0  0  0  0  0  0  0  0  0  0  0  0
    1.3346    1.4337    0.0000 H   0  0  0  0  0  0  0  0  0  0  0  0
    0.9222   -0.3731    0.0000 H   0  0  0  0  0  0  0  0  0  0  0  0
    0.6068    0.6493    0.0000 H   0  0  0  0  0  0  0  0  0  0  0  0
    1.1232   -2.4852    0.0000 H   0  0  0  0  0  0  0  0  0  0  0  0
    5.6913    0.2308    0.0000 H   0  0  0  0  0  0  0  0  0  0  0  0
    3.6859   -2.2839    0.0000 H   0  0  0  0  0  0  0  0  0  0  0  0
    7.1432   -0.9271    0.0000 H   0  0  0  0  0  0  0  0  0  0  0  0
    5.1377   -3.4418    0.0000 H   0  0  0  0  0  0  0  0  0  0  0  0
    6.8664   -2.7632    0.0000 H   0  0  0  0  0  0  0  0  0  0  0  0
    6.7577    1.5984    0.0000 H   0  0  0  0  0  0  0  0  0  0  0  0
    6.6193    3.4465    0.0000 H   0  0  0  0  0  0  0  0  0  0  0  0
    7.2220    2.5624    0.0000 H   0  0  0  0  0  0  0  0  0  0  0  0
    5.3319    4.0665    0.0000 H   0  0  0  0  0  0  0  0  0  0  0  0
    3.8006    3.0225    0.0000 H   0  0  0  0  0  0  0  0  0  0  0  0
    4.2649    3.9866    0.0000 H   0  0  0  0  0  0  0  0  0  0  0  0
  1 18  1  0  0  0  0
  2 11  1  0  0  0  0
  2 23  1  0  0  0  0
  3 12  2  0  0  0  0
  4 23  2  0  0  0  0
  5  8  1  0  0  0  0
  5 12  1  0  0  0  0
  5 16  1  0  0  0  0
  6 10  2  0  0  0  0
  6 11  1  0  0  0  0
  7 23  1  0  0  0  0
  7 25  1  0  0  0  0
  7 26  1  0  0  0  0
  8  9  2  0  0  0  0
  8 14  1  0  0  0  0
  9 10  1  0  0  0  0
  9 15  1  0  0  0  0
 10 13  1  0  0  0  0
 11 12  1  0  0  0  0
 11 27  1  0  0  0  0
 13 19  2  0  0  0  0
 13 20  1  0  0  0  0
 14 17  2  0  0  0  0
 14 28  1  0  0  0  0
 15 18  2  0  0  0  0
 15 29  1  0  0  0  0
 16 30  1  0  0  0  0
 16 31  1  0  0  0  0
 16 32  1  0  0  0  0
 17 18  1  0  0  0  0
 17 33  1  0  0  0  0
 19 21  1  0  0  0  0
 19 34  1  0  0  0  0
 20 22  2  0  0  0  0
 20 35  1  0  0  0  0
 21 24  2  0  0  0  0
 21 36  1  0  0  0  0
 22 24  1  0  0  0  0
 22 37  1  0  0  0  0
 24 38  1  0  0  0  0
 25 39  1  0  0  0  0
 25 40  1  0  0  0  0
 25 41  1  0  0  0  0
 26 42  1  0  0  0  0
 26 43  1  0  0  0  0
 26 44  1  0  0  0  0
M  END
>  <DRUGBANK_ID>
DB01489

>  <COMMON_NAME>
Camazepam

>  <CAS_NUMBER>
36104-80-0

>  <UNII>
HZ3XRH03C3

>  <SYNONYMS>
Camazepam

$$$$
