A18
 OpenBabel10282417072D

 25 26  0  0  0  0  0  0  0  0999 V2000
   -0.7966    3.2389    0.0000 O   0  0  0  0  0  0  0  0  0  0  0  0
   -0.0821    2.8264    0.0000 C   0  0  0  0  0  0  0  0  0  0  0  0
    0.6323    3.2389    0.0000 O   0  0  0  0  0  0  0  0  0  0  0  0
   -0.0821    2.0014    0.0000 C   0  0  0  0  0  0  0  0  0  0  0  0
    0.5853    1.5165    0.0000 O   0  0  0  0  0  0  0  0  0  0  0  0
   -0.7496    1.5165    0.0000 C   0  0  0  0  0  0  0  0  0  0  0  0
   -0.4946    0.7319    0.0000 C   0  0  0  0  0  0  0  0  0  0  0  0
    0.3304    0.7319    0.0000 C   0  0  0  0  0  0  0  0  0  0  0  0
    0.8153    0.0644    0.0000 C   0  0  0  0  0  0  0  0  0  0  0  0
    0.4797   -0.6892    0.0000 C   0  0  0  0  0  0  0  0  0  0  0  0
    0.9647   -1.3567    0.0000 C   0  0  0  0  0  0  0  0  0  0  0  0
    0.6291   -2.1103    0.0000 C   0  0  0  0  0  0  0  0  0  0  0  0
   -0.1914   -2.1966    0.0000 C   0  0  0  0  0  0  0  0  0  0  0  0
   -0.6763   -1.5291    0.0000 C   0  0  0  0  0  0  0  0  0  0  0  0
   -0.3407   -0.7755    0.0000 C   0  0  0  0  0  0  0  0  0  0  0  0
   -0.8257   -0.1080    0.0000 Cl  0  0  0  0  0  0  0  0  0  0  0  0
    1.4438    2.7704    0.0000 H   0  0  0  0  0  0  0  0  0  0  0  0
   -1.7311    1.8354    0.0000 H   0  0  0  0  0  0  0  0  0  0  0  0
   -1.1012   -0.1030    0.0000 H   0  0  0  0  0  0  0  0  0  0  0  0
    1.8794    0.1762    0.0000 H   0  0  0  0  0  0  0  0  0  0  0  0
    1.4442   -0.8013    0.0000 H   0  0  0  0  0  0  0  0  0  0  0  0
    1.9910   -1.2489    0.0000 H   0  0  0  0  0  0  0  0  0  0  0  0
    1.2357   -2.9452    0.0000 H   0  0  0  0  0  0  0  0  0  0  0  0
   -0.6111   -3.1394    0.0000 H   0  0  0  0  0  0  0  0  0  0  0  0
   -1.7027   -1.6369    0.0000 H   0  0  0  0  0  0  0  0  0  0  0  0
  1  2  2  0  0  0  0
  2  4  1  0  0  0  0
  2  3  1  0  0  0  0
  3 17  1  0  0  0  0
  4  5  1  0  0  0  0
  4  6  2  0  0  0  0
  5  8  1  0  0  0  0
  6  7  1  0  0  0  0
  6 18  1  0  0  0  0
  7  8  2  0  0  0  0
  7 19  1  0  0  0  0
  8  9  1  0  0  0  0
  9 10  1  0  0  0  0
  9 20  1  0  0  0  0
  9 21  1  0  0  0  0
 10 11  2  0  0  0  0
 10 15  1  0  0  0  0
 11 12  1  0  0  0  0
 11 22  1  0  0  0  0
 12 13  2  0  0  0  0
 12 23  1  0  0  0  0
 13 14  1  0  0  0  0
 13 24  1  0  0  0  0
 14 15  2  0  0  0  0
 14 25  1  0  0  0  0
 15 16  1  0  0  0  0
M  END
>  <DRUGBANK_ID>
DB07308

>  <COMMON_NAME>
5-(2-CHLOROBENZYL)-2-FUROIC ACID

$$$$
