214
 OpenBabel10282417072D

 44 45  0  0  0  0  0  0  0  0999 V2000
    5.9363   -0.4125    0.0000 S   0  0  0  0  0  0  0  0  0  0  0  0
    5.1114   -0.4125    0.0000 O   0  0  0  0  0  0  0  0  0  0  0  0
    6.7612   -0.4125    0.0000 O   0  0  0  0  0  0  0  0  0  0  0  0
    7.3650    0.4125    0.0000 O   0  0  0  0  0  0  0  0  0  0  0  0
    6.6507    1.6498    0.0000 N   0  0  0  0  0  0  0  0  0  0  0  0
    4.5075   -1.2374    0.0000 N   0  0  0  0  0  0  0  0  0  0  0  0
    5.9363    0.4125    0.0000 N   0  0  0  0  0  0  0  0  0  0  0  0
    6.6507   -2.4748    0.0000 N   0  0  0  0  0  0  0  0  0  0  0  0
    7.3650    2.0623    0.0000 C   0  0  0  0  0  0  0  0  0  0  0  0
    5.9363   -1.2374    0.0000 C   0  0  0  0  0  0  0  0  0  0  0  0
    5.2218   -1.6498    0.0000 C   0  0  0  0  0  0  0  0  0  0  0  0
    3.7930   -1.6498    0.0000 C   0  0  0  0  0  0  0  0  0  0  0  0
    7.3650    2.8873    0.0000 C   0  0  0  0  0  0  0  0  0  0  0  0
    8.0794    1.6498    0.0000 C   0  0  0  0  0  0  0  0  0  0  0  0
    6.6507    0.8249    0.0000 C   0  0  0  0  0  0  0  0  0  0  0  0
    6.6507   -1.6498    0.0000 C   0  0  0  0  0  0  0  0  0  0  0  0
    5.2218   -2.4748    0.0000 C   0  0  0  0  0  0  0  0  0  0  0  0
    3.0787   -1.2374    0.0000 C   0  0  0  0  0  0  0  0  0  0  0  0
    2.3642   -1.6498    0.0000 C   0  0  0  0  0  0  0  0  0  0  0  0
    3.7930   -2.4748    0.0000 C   0  0  0  0  0  0  0  0  0  0  0  0
    5.9363   -2.8873    0.0000 C   0  0  0  0  0  0  0  0  0  0  0  0
    2.3642   -2.4748    0.0000 C   0  0  0  0  0  0  0  0  0  0  0  0
    3.0787   -2.8873    0.0000 C   0  0  0  0  0  0  0  0  0  0  0  0
    1.6498   -1.2374    0.0000 C   0  0  0  0  0  0  0  0  0  0  0  0
    5.7981    2.1420    0.0000 H   0  0  0  0  0  0  0  0  0  0  0  0
    4.5076   -0.2529    0.0000 H   0  0  0  0  0  0  0  0  0  0  0  0
    5.0837    0.9048    0.0000 H   0  0  0  0  0  0  0  0  0  0  0  0
    8.2917    2.5973    0.0000 H   0  0  0  0  0  0  0  0  0  0  0  0
    8.2916    3.4223    0.0000 H   0  0  0  0  0  0  0  0  0  0  0  0
    6.4384    3.4223    0.0000 H   0  0  0  0  0  0  0  0  0  0  0  0
    7.3650    3.9573    0.0000 H   0  0  0  0  0  0  0  0  0  0  0  0
    8.0794    0.5798    0.0000 H   0  0  0  0  0  0  0  0  0  0  0  0
    9.0061    2.1848    0.0000 H   0  0  0  0  0  0  0  0  0  0  0  0
    9.0060    1.1148    0.0000 H   0  0  0  0  0  0  0  0  0  0  0  0
    7.5444   -1.1338    0.0000 H   0  0  0  0  0  0  0  0  0  0  0  0
    4.3281   -2.9908    0.0000 H   0  0  0  0  0  0  0  0  0  0  0  0
    3.0788   -0.2054    0.0000 H   0  0  0  0  0  0  0  0  0  0  0  0
    4.6868   -2.9908    0.0000 H   0  0  0  0  0  0  0  0  0  0  0  0
    5.9363   -3.9193    0.0000 H   0  0  0  0  0  0  0  0  0  0  0  0
    1.4705   -2.9908    0.0000 H   0  0  0  0  0  0  0  0  0  0  0  0
    3.0788   -3.9193    0.0000 H   0  0  0  0  0  0  0  0  0  0  0  0
    1.6497   -0.1674    0.0000 H   0  0  0  0  0  0  0  0  0  0  0  0
    0.7232   -1.7725    0.0000 H   0  0  0  0  0  0  0  0  0  0  0  0
    0.7231   -0.7025    0.0000 H   0  0  0  0  0  0  0  0  0  0  0  0
  1  2  2  0  0  0  0
  1  3  2  0  0  0  0
  1  7  1  0  0  0  0
  1 10  1  0  0  0  0
  4 15  2  0  0  0  0
  5  9  1  0  0  0  0
  5 15  1  0  0  0  0
  5 25  1  0  0  0  0
  6 11  1  0  0  0  0
  6 12  1  0  0  0  0
  6 26  1  0  0  0  0
  7 15  1  0  0  0  0
  7 27  1  0  0  0  0
  8 16  2  0  0  0  0
  8 21  1  0  0  0  0
  9 13  1  0  0  0  0
  9 14  1  0  0  0  0
  9 28  1  0  0  0  0
 10 11  2  0  0  0  0
 10 16  1  0  0  0  0
 11 17  1  0  0  0  0
 12 18  1  0  0  0  0
 12 20  2  0  0  0  0
 13 29  1  0  0  0  0
 13 30  1  0  0  0  0
 13 31  1  0  0  0  0
 14 32  1  0  0  0  0
 14 33  1  0  0  0  0
 14 34  1  0  0  0  0
 16 35  1  0  0  0  0
 17 21  2  0  0  0  0
 17 36  1  0  0  0  0
 18 19  2  0  0  0  0
 18 37  1  0  0  0  0
 19 22  1  0  0  0  0
 19 24  1  0  0  0  0
 20 23  1  0  0  0  0
 20 38  1  0  0  0  0
 21 39  1  0  0  0  0
 22 23  2  0  0  0  0
 22 40  1  0  0  0  0
 23 41  1  0  0  0  0
 24 42  1  0  0  0  0
 24 43  1  0  0  0  0
 24 44  1  0  0  0  0
M  END
>  <DRUGBANK_ID>
DB00214

>  <SECONDARY_ACCESSION_NUMBERS>
APRD00295; APRD00217

>  <COMMON_NAME>
Torasemide

>  <CAS_NUMBER>
56211-40-6

>  <UNII>
W31X2H97FB

>  <SYNONYMS>
1-Isopropyl-3-((4-m-toluidino-3-pyridyl)sulfonyl)urea; N-(((1-Methylethyl)amino)carbonyl)-4-((3-methylphenyl)amino)-3-pyridinesulfonamide; Torasemida; Torasemide; Toras√©mide; Torasemidum; Torsemide

$$$$
