
 OpenBabel10282417072D

 52 54  0  0  1  0  0  0  0  0999 V2000
   -2.1434   -2.8875    0.0000 C   0  0  0  0  0  0  0  0  0  0  0  0
   -1.4289   -3.3000    0.0000 C   0  0  0  0  0  0  0  0  0  0  0  0
   -0.7145   -2.8875    0.0000 N   0  0  0  0  0  0  0  0  0  0  0  0
   -0.7145   -2.0625    0.0000 C   0  0  0  0  0  0  0  0  0  0  0  0
   -1.4289   -1.6500    0.0000 C   0  0  0  0  0  0  0  0  0  0  0  0
   -2.1434   -2.0625    0.0000 C   0  0  0  0  0  0  0  0  0  0  0  0
   -2.8579   -1.6500    0.0000 C   0  0  0  0  0  0  0  0  0  0  0  0
   -2.8579   -0.8250    0.0000 N   0  0  0  0  0  0  0  0  0  0  0  0
   -2.1434   -0.4125    0.0000 C   0  0  0  0  0  0  0  0  0  0  0  0
   -1.4289   -0.8250    0.0000 N   0  0  0  0  0  0  0  0  0  0  0  0
   -2.1434    0.4125    0.0000 C   0  0  0  0  0  0  0  0  0  0  0  0
   -2.1434    1.2375    0.0000 F   0  0  0  0  0  0  0  0  0  0  0  0
   -2.9684    0.4125    0.0000 F   0  0  0  0  0  0  0  0  0  0  0  0
   -1.3184    0.4125    0.0000 F   0  0  0  0  0  0  0  0  0  0  0  0
   -3.5724   -2.0625    0.0000 C   0  0  0  0  0  0  0  0  0  0  0  0
   -4.2868   -2.4750    0.0000 F   0  0  0  0  0  0  0  0  0  0  0  0
   -3.9849   -1.3480    0.0000 F   0  0  0  0  0  0  0  0  0  0  0  0
   -3.1599   -2.7770    0.0000 F   0  0  0  0  0  0  0  0  0  0  0  0
    0.0000   -3.3000    0.0000 C   0  0  0  0  0  0  0  0  0  0  0  0
    0.0000   -4.1250    0.0000 O   0  0  0  0  0  0  0  0  0  0  0  0
    0.7145   -2.8875    0.0000 C   0  0  0  0  0  0  0  0  0  0  0  0
    1.4289   -3.3000    0.0000 C   0  0  1  0  0  0  0  0  0  0  0  0
    2.1434   -2.8875    0.0000 C   0  0  0  0  0  0  0  0  0  0  0  0
    2.8579   -3.3000    0.0000 N   0  0  0  0  0  0  0  0  0  0  0  0
    3.5724   -2.8875    0.0000 C   0  0  0  0  0  0  0  0  0  0  0  0
    4.2868   -3.3000    0.0000 C   0  0  0  0  0  0  0  0  0  0  0  0
    4.2868   -4.1250    0.0000 C   0  0  0  0  0  0  0  0  0  0  0  0
    3.5724   -4.5375    0.0000 C   0  0  0  0  0  0  0  0  0  0  0  0
    2.8579   -4.1250    0.0000 C   0  0  0  0  0  0  0  0  0  0  0  0
    2.1434   -4.5375    0.0000 O   0  0  0  0  0  0  0  0  0  0  0  0
    4.7240   -2.6004    0.0000 F   0  0  0  0  0  0  0  0  0  0  0  0
    5.1113   -3.2712    0.0000 F   0  0  0  0  0  0  0  0  0  0  0  0
    1.4289   -4.1250    0.0000 N   0  0  0  0  0  0  0  0  0  0  0  0
   -3.0700   -3.4225    0.0000 H   0  0  0  0  0  0  0  0  0  0  0  0
   -3.0700   -2.3525    0.0000 H   0  0  0  0  0  0  0  0  0  0  0  0
   -1.4289   -4.3700    0.0000 H   0  0  0  0  0  0  0  0  0  0  0  0
   -0.5022   -3.8350    0.0000 H   0  0  0  0  0  0  0  0  0  0  0  0
    0.2122   -1.5275    0.0000 H   0  0  0  0  0  0  0  0  0  0  0  0
   -0.7145   -0.9925    0.0000 H   0  0  0  0  0  0  0  0  0  0  0  0
    0.7145   -1.8175    0.0000 H   0  0  0  0  0  0  0  0  0  0  0  0
    1.6412   -2.3525    0.0000 H   0  0  0  0  0  0  0  0  0  0  0  0
    0.5022   -3.8350    0.0000 H   0  0  0  0  0  0  0  0  0  0  0  0
    2.1434   -1.8175    0.0000 H   0  0  0  0  0  0  0  0  0  0  0  0
    3.0700   -2.3525    0.0000 H   0  0  0  0  0  0  0  0  0  0  0  0
    3.5724   -1.8175    0.0000 H   0  0  0  0  0  0  0  0  0  0  0  0
    4.4991   -2.3525    0.0000 H   0  0  0  0  0  0  0  0  0  0  0  0
    5.2135   -4.6600    0.0000 H   0  0  0  0  0  0  0  0  0  0  0  0
    4.2868   -5.1950    0.0000 H   0  0  0  0  0  0  0  0  0  0  0  0
    3.5724   -5.6075    0.0000 H   0  0  0  0  0  0  0  0  0  0  0  0
    2.6458   -5.0725    0.0000 H   0  0  0  0  0  0  0  0  0  0  0  0
    0.5456   -4.6350    0.0000 H   0  0  0  0  0  0  0  0  0  0  0  0
    2.3122   -4.6350    0.0000 H   0  0  0  0  0  0  0  0  0  0  0  0
  1  2  1  0  0  0  0
  1  6  1  0  0  0  0
  1 34  1  0  0  0  0
  1 35  1  0  0  0  0
  2  3  1  0  0  0  0
  2 36  1  0  0  0  0
  2 37  1  0  0  0  0
  3  4  1  0  0  0  0
  3 19  1  0  0  0  0
  4  5  1  0  0  0  0
  4 38  1  0  0  0  0
  4 39  1  0  0  0  0
  5  6  2  0  0  0  0
  5 10  1  0  0  0  0
  6  7  1  0  0  0  0
  7  8  2  0  0  0  0
  7 15  1  0  0  0  0
  8  9  1  0  0  0  0
  9 10  2  0  0  0  0
  9 11  1  0  0  0  0
 11 12  1  0  0  0  0
 11 13  1  0  0  0  0
 11 14  1  0  0  0  0
 15 16  1  0  0  0  0
 15 17  1  0  0  0  0
 15 18  1  0  0  0  0
 19 20  2  0  0  0  0
 19 21  1  0  0  0  0
 21 22  1  0  0  0  0
 21 40  1  0  0  0  0
 21 41  1  0  0  0  0
 22 23  1  0  0  0  0
 22 33  1  0  0  0  0
 22 42  1  6  0  0  0
 23 24  1  0  0  0  0
 23 43  1  0  0  0  0
 23 44  1  0  0  0  0
 24 25  1  0  0  0  0
 24 29  1  0  0  0  0
 25 26  1  0  0  0  0
 25 45  1  0  0  0  0
 25 46  1  0  0  0  0
 26 27  1  0  0  0  0
 26 31  1  0  0  0  0
 26 32  1  0  0  0  0
 27 28  1  0  0  0  0
 27 47  1  0  0  0  0
 27 48  1  0  0  0  0
 28 29  1  0  0  0  0
 28 49  1  0  0  0  0
 28 50  1  0  0  0  0
 29 30  2  0  0  0  0
 33 51  1  0  0  0  0
 33 52  1  0  0  0  0
M  END
>  <DRUGBANK_ID>
DB12412

>  <COMMON_NAME>
Gemigliptin

>  <CAS_NUMBER>
911637-19-9

>  <UNII>
5DHU18M5D6

>  <SYNONYMS>
Gemigliptin

$$$$
