
 OpenBabel10282417072D

 65 64  0  0  0  0  0  0  0  0999 V2000
    7.1447   -0.1964    0.0000 O   0  0  0  0  0  0  0  0  0  0  0  0
    6.4302    0.2161    0.0000 P   0  0  0  0  0  0  0  0  0  0  0  0
    3.5724    0.2161    0.0000 C   0  0  0  0  0  0  0  0  0  0  0  0
    2.8579   -0.1964    0.0000 C   0  0  0  0  0  0  0  0  0  0  0  0
   -7.1447   -0.1964    0.0000 C   0  0  0  0  0  0  0  0  0  0  0  0
   -6.4302    0.2161    0.0000 C   0  0  0  0  0  0  0  0  0  0  0  0
   -5.7158   -0.1964    0.0000 C   0  0  0  0  0  0  0  0  0  0  0  0
   -5.0013    0.2161    0.0000 C   0  0  0  0  0  0  0  0  0  0  0  0
   -3.5724    0.2161    0.0000 C   0  0  0  0  0  0  0  0  0  0  0  0
   -4.2868   -0.1964    0.0000 C   0  0  0  0  0  0  0  0  0  0  0  0
   -2.8579   -0.1964    0.0000 C   0  0  0  0  0  0  0  0  0  0  0  0
   -2.1434    0.2161    0.0000 C   0  0  0  0  0  0  0  0  0  0  0  0
   -1.4289   -0.1964    0.0000 C   0  0  0  0  0  0  0  0  0  0  0  0
   -0.7145    0.2161    0.0000 C   0  0  0  0  0  0  0  0  0  0  0  0
    0.0000   -0.1964    0.0000 C   0  0  0  0  0  0  0  0  0  0  0  0
    0.7145    0.2161    0.0000 C   0  0  0  0  0  0  0  0  0  0  0  0
    1.4289   -0.1964    0.0000 C   0  0  0  0  0  0  0  0  0  0  0  0
    2.1434    0.2161    0.0000 C   0  0  0  0  0  0  0  0  0  0  0  0
    4.2868   -0.1964    0.0000 O   0  0  0  0  0  0  0  0  0  0  0  0
    5.7158   -0.1964    0.0000 O   0  0  0  0  0  0  0  0  0  0  0  0
    5.0013    0.2161    0.0000 P   0  0  3  0  0  0  0  0  0  0  0  0
   -6.4298    1.0413    0.0000 C   0  0  0  0  0  0  0  0  0  0  0  0
   -3.5720    1.0413    0.0000 C   0  0  0  0  0  0  0  0  0  0  0  0
   -0.7142    1.0412    0.0000 C   0  0  0  0  0  0  0  0  0  0  0  0
    2.1437    1.0412    0.0000 C   0  0  0  0  0  0  0  0  0  0  0  0
    5.0015    1.0411    0.0000 O   0  0  0  0  0  0  0  0  0  0  0  0
    6.4303    1.0411    0.0000 O   0  0  0  0  0  0  0  0  0  0  0  0
    6.4303   -0.6089    0.0000 O   0  0  0  0  0  0  0  0  0  0  0  0
    5.0014   -0.6089    0.0000 O   0  0  0  0  0  0  0  0  0  0  0  0
    7.1447   -1.1664    0.0000 H   0  0  0  0  0  0  0  0  0  0  0  0
    3.5724    1.2861    0.0000 H   0  0  0  0  0  0  0  0  0  0  0  0
    4.4991    0.7511    0.0000 H   0  0  0  0  0  0  0  0  0  0  0  0
    2.8579   -1.2284    0.0000 H   0  0  0  0  0  0  0  0  0  0  0  0
   -8.0713    0.3386    0.0000 H   0  0  0  0  0  0  0  0  0  0  0  0
   -7.1447   -1.2664    0.0000 H   0  0  0  0  0  0  0  0  0  0  0  0
   -8.0714   -0.7314    0.0000 H   0  0  0  0  0  0  0  0  0  0  0  0
   -5.7158   -1.2284    0.0000 H   0  0  0  0  0  0  0  0  0  0  0  0
   -5.0013    1.2861    0.0000 H   0  0  0  0  0  0  0  0  0  0  0  0
   -4.0747    0.7511    0.0000 H   0  0  0  0  0  0  0  0  0  0  0  0
   -4.2868   -1.2664    0.0000 H   0  0  0  0  0  0  0  0  0  0  0  0
   -3.3601   -0.7314    0.0000 H   0  0  0  0  0  0  0  0  0  0  0  0
   -2.8579   -1.2284    0.0000 H   0  0  0  0  0  0  0  0  0  0  0  0
   -2.1434    1.2861    0.0000 H   0  0  0  0  0  0  0  0  0  0  0  0
   -1.2168    0.7511    0.0000 H   0  0  0  0  0  0  0  0  0  0  0  0
   -1.4289   -1.2664    0.0000 H   0  0  0  0  0  0  0  0  0  0  0  0
   -0.5022   -0.7314    0.0000 H   0  0  0  0  0  0  0  0  0  0  0  0
    0.0000   -1.2284    0.0000 H   0  0  0  0  0  0  0  0  0  0  0  0
    0.7145    1.2861    0.0000 H   0  0  0  0  0  0  0  0  0  0  0  0
    1.6412    0.7511    0.0000 H   0  0  0  0  0  0  0  0  0  0  0  0
    1.4289   -1.2664    0.0000 H   0  0  0  0  0  0  0  0  0  0  0  0
    2.3555   -0.7314    0.0000 H   0  0  0  0  0  0  0  0  0  0  0  0
   -5.5029    1.5759    0.0000 H   0  0  0  0  0  0  0  0  0  0  0  0
   -7.3562    1.5767    0.0000 H   0  0  0  0  0  0  0  0  0  0  0  0
   -6.4293    2.1113    0.0000 H   0  0  0  0  0  0  0  0  0  0  0  0
   -2.6451    1.5759    0.0000 H   0  0  0  0  0  0  0  0  0  0  0  0
   -4.4984    1.5767    0.0000 H   0  0  0  0  0  0  0  0  0  0  0  0
   -3.5715    2.1113    0.0000 H   0  0  0  0  0  0  0  0  0  0  0  0
    0.2126    1.5759    0.0000 H   0  0  0  0  0  0  0  0  0  0  0  0
   -1.6407    1.5765    0.0000 H   0  0  0  0  0  0  0  0  0  0  0  0
   -0.7138    2.1112    0.0000 H   0  0  0  0  0  0  0  0  0  0  0  0
    3.0705    1.5759    0.0000 H   0  0  0  0  0  0  0  0  0  0  0  0
    1.2172    1.5765    0.0000 H   0  0  0  0  0  0  0  0  0  0  0  0
    2.1441    2.1112    0.0000 H   0  0  0  0  0  0  0  0  0  0  0  0
    5.5903   -1.0940    0.0000 H   0  0  0  0  0  0  0  0  0  0  0  0
    4.1614   -1.0940    0.0000 H   0  0  0  0  0  0  0  0  0  0  0  0
  1 30  1  0  0  0  0
  2  1  1  0  0  0  0
  2 27  2  0  0  0  0
  2 28  1  0  0  0  0
  3 19  1  0  0  0  0
  3 31  1  0  0  0  0
  3 32  1  0  0  0  0
  4  3  1  0  0  0  0
  4 33  1  0  0  0  0
  5  6  1  0  0  0  0
  5 34  1  0  0  0  0
  5 35  1  0  0  0  0
  5 36  1  0  0  0  0
  6  7  2  0  0  0  0
  7  8  1  0  0  0  0
  7 37  1  0  0  0  0
  8 10  1  0  0  0  0
  8 38  1  0  0  0  0
  8 39  1  0  0  0  0
  9 23  1  0  0  0  0
  9 10  1  0  0  0  0
  9 11  2  3  0  0  0
 10 40  1  0  0  0  0
 10 41  1  0  0  0  0
 11 12  1  0  0  0  0
 11 42  1  0  0  0  0
 12 13  1  0  0  0  0
 12 43  1  0  0  0  0
 12 44  1  0  0  0  0
 13 14  1  0  0  0  0
 13 45  1  0  0  0  0
 13 46  1  0  0  0  0
 14 24  1  0  0  0  0
 14 15  2  3  0  0  0
 15 16  1  0  0  0  0
 15 47  1  0  0  0  0
 16 17  1  0  0  0  0
 16 48  1  0  0  0  0
 16 49  1  0  0  0  0
 17 18  1  0  0  0  0
 17 50  1  0  0  0  0
 17 51  1  0  0  0  0
 18  4  2  3  0  0  0
 18 25  1  0  0  0  0
 19 21  1  0  0  0  0
 20  2  1  0  0  0  0
 21 20  1  0  0  0  0
 21 26  2  0  0  0  0
 21 29  1  0  0  0  0
 22  6  1  0  0  0  0
 22 52  1  0  0  0  0
 22 53  1  0  0  0  0
 22 54  1  0  0  0  0
 23 55  1  0  0  0  0
 23 56  1  0  0  0  0
 23 57  1  0  0  0  0
 24 58  1  0  0  0  0
 24 59  1  0  0  0  0
 24 60  1  0  0  0  0
 25 61  1  0  0  0  0
 25 62  1  0  0  0  0
 25 63  1  0  0  0  0
 28 64  1  0  0  0  0
 29 65  1  0  0  0  0
M  END
>  <DRUGBANK_ID>
DB07841

>  <COMMON_NAME>
Geranylgeranyl diphosphate

$$$$
