
 OpenBabel10282417072D

 53 56  0  0  0  0  0  0  0  0999 V2000
    4.6448   -1.6506    0.0000 C   0  0  0  0  0  0  0  0  0  0  0  0
    3.4656    1.1759    0.0000 C   0  0  0  0  0  0  0  0  0  0  0  0
    2.0367    1.1759    0.0000 C   0  0  0  0  0  0  0  0  0  0  0  0
    5.1594    0.7703    0.0000 C   0  0  0  0  0  0  0  0  0  0  0  0
    3.4656    2.0009    0.0000 C   0  0  0  0  0  0  0  0  0  0  0  0
    2.0367    2.0009    0.0000 C   0  0  0  0  0  0  0  0  0  0  0  0
    2.3387   -1.3312    0.0000 C   0  0  0  0  0  0  0  0  0  0  0  0
    3.6486   -1.9986    0.0000 C   0  0  0  0  0  0  0  0  0  0  0  0
    4.3748    0.5154    0.0000 C   0  0  0  0  0  0  0  0  0  0  0  0
    2.0837   -0.5465    0.0000 C   0  0  0  0  0  0  0  0  0  0  0  0
    3.3130   -2.7523    0.0000 C   0  0  0  0  0  0  0  0  0  0  0  0
    2.3387    4.5079    0.0000 C   0  0  0  0  0  0  0  0  0  0  0  0
    2.0837    3.7233    0.0000 C   0  0  0  0  0  0  0  0  0  0  0  0
    5.6010   -0.5887    0.0000 C   0  0  0  0  0  0  0  0  0  0  0  0
    3.4186    3.7233    0.0000 C   0  0  0  0  0  0  0  0  0  0  0  0
    4.8163   -0.8436    0.0000 C   0  0  0  0  0  0  0  0  0  0  0  0
    2.7512    0.7634    0.0000 C   0  0  0  0  0  0  0  0  0  0  0  0
    5.7725    0.2183    0.0000 C   0  0  0  0  0  0  0  0  0  0  0  0
    2.7512    2.4134    0.0000 C   0  0  0  0  0  0  0  0  0  0  0  0
    3.1637   -1.3312    0.0000 C   0  0  0  0  0  0  0  0  0  0  0  0
    4.2032   -0.2916    0.0000 C   0  0  0  0  0  0  0  0  0  0  0  0
    2.7512   -0.0616    0.0000 C   0  0  0  0  0  0  0  0  0  0  0  0
    2.4926   -2.8385    0.0000 C   0  0  0  0  0  0  0  0  0  0  0  0
    6.5571    0.4732    0.0000 C   0  0  0  0  0  0  0  0  0  0  0  0
    7.1702   -0.0788    0.0000 N   0  0  0  0  0  0  0  0  0  0  0  0
    3.1637    4.5079    0.0000 N   0  0  0  0  0  0  0  0  0  0  0  0
    2.7512    3.2384    0.0000 N   0  0  0  0  0  0  0  0  0  0  0  0
    3.4186   -0.5465    0.0000 N   0  0  0  0  0  0  0  0  0  0  0  0
    2.0076   -2.1711    0.0000 O   0  0  0  0  0  0  0  0  0  0  0  0
    2.1570   -3.5922    0.0000 O   0  0  0  0  0  0  0  0  0  0  0  0
    6.7286    1.2802    0.0000 O   0  0  0  0  0  0  0  0  0  0  0  0
    3.6272   -1.9813    0.0000 H   0  0  0  0  0  0  0  0  0  0  0  0
    5.4400   -2.3665    0.0000 H   0  0  0  0  0  0  0  0  0  0  0  0
    4.4224   -2.6972    0.0000 H   0  0  0  0  0  0  0  0  0  0  0  0
    4.3593    0.6599    0.0000 H   0  0  0  0  0  0  0  0  0  0  0  0
    1.1430    0.6599    0.0000 H   0  0  0  0  0  0  0  0  0  0  0  0
    5.3740    1.7797    0.0000 H   0  0  0  0  0  0  0  0  0  0  0  0
    4.3593    2.5169    0.0000 H   0  0  0  0  0  0  0  0  0  0  0  0
    1.1430    2.5169    0.0000 H   0  0  0  0  0  0  0  0  0  0  0  0
    1.7321   -2.1661    0.0000 H   0  0  0  0  0  0  0  0  0  0  0  0
    4.7127   -1.8868    0.0000 H   0  0  0  0  0  0  0  0  0  0  0  0
    4.0838   -1.0211    0.0000 H   0  0  0  0  0  0  0  0  0  0  0  0
    3.6079    1.2060    0.0000 H   0  0  0  0  0  0  0  0  0  0  0  0
    1.1022   -0.2276    0.0000 H   0  0  0  0  0  0  0  0  0  0  0  0
    3.9419   -3.6180    0.0000 H   0  0  0  0  0  0  0  0  0  0  0  0
    2.8778   -3.7298    0.0000 H   0  0  0  0  0  0  0  0  0  0  0  0
    1.7321    5.3428    0.0000 H   0  0  0  0  0  0  0  0  0  0  0  0
    1.1022    3.4044    0.0000 H   0  0  0  0  0  0  0  0  0  0  0  0
    6.3679   -1.2793    0.0000 H   0  0  0  0  0  0  0  0  0  0  0  0
    4.4001    3.4044    0.0000 H   0  0  0  0  0  0  0  0  0  0  0  0
    6.9655   -1.0418    0.0000 H   0  0  0  0  0  0  0  0  0  0  0  0
    8.1065    0.2255    0.0000 H   0  0  0  0  0  0  0  0  0  0  0  0
    1.2251   -3.6901    0.0000 H   0  0  0  0  0  0  0  0  0  0  0  0
  1 32  1  0  0  0  0
  1 33  1  0  0  0  0
  1 34  1  0  0  0  0
  2 35  1  0  0  0  0
  3 36  1  0  0  0  0
  4 37  1  0  0  0  0
  5  2  1  0  0  0  0
  5 38  1  0  0  0  0
  6  3  2  0  0  0  0
  6 39  1  0  0  0  0
  7 40  1  0  0  0  0
  8 41  1  0  0  0  0
  8 42  1  0  0  0  0
  9  4  1  0  0  0  0
  9 43  1  0  0  0  0
 10  7  1  0  0  0  0
 10 44  1  0  0  0  0
 11  8  1  0  0  0  0
 11 45  1  0  0  0  0
 11 46  1  0  0  0  0
 12 47  1  0  0  0  0
 13 12  2  0  0  0  0
 13 48  1  0  0  0  0
 14 49  1  0  0  0  0
 15 50  1  0  0  0  0
 16  1  1  0  0  0  0
 16 14  2  0  0  0  0
 17  2  2  0  0  0  0
 17  3  1  0  0  0  0
 18  4  2  0  0  0  0
 18 14  1  0  0  0  0
 19  5  2  0  0  0  0
 19  6  1  0  0  0  0
 20  7  2  0  0  0  0
 20  8  1  0  0  0  0
 21  9  2  0  0  0  0
 21 16  1  0  0  0  0
 22 10  2  0  0  0  0
 22 17  1  0  0  0  0
 23 11  1  0  0  0  0
 24 18  1  0  0  0  0
 25 24  1  0  0  0  0
 25 51  1  0  0  0  0
 25 52  1  0  0  0  0
 26 12  1  0  0  0  0
 26 15  2  0  0  0  0
 27 13  1  0  0  0  0
 27 15  1  0  0  0  0
 27 19  1  0  0  0  0
 28 20  1  0  0  0  0
 28 21  1  0  0  0  0
 28 22  1  0  0  0  0
 29 23  2  0  0  0  0
 30 23  1  0  0  0  0
 30 53  1  0  0  0  0
 31 24  2  0  0  0  0
M  END
>  <DRUGBANK_ID>
DB12206

>  <COMMON_NAME>
N-6022

>  <CAS_NUMBER>
1208315-24-5

>  <UNII>
80LIU5P95D

$$$$
