
 OpenBabel10282417072D

 74 76  0  0  1  0  0  0  0  0999 V2000
    2.8579   -8.6329    0.0000 C   0  0  0  0  0  0  0  0  0  0  0  0
    3.2704   -7.9184    0.0000 C   0  0  0  0  0  0  0  0  0  0  0  0
    4.0954   -7.9184    0.0000 C   0  0  0  0  0  0  0  0  0  0  0  0
    2.8579   -7.2039    0.0000 C   0  0  0  0  0  0  0  0  0  0  0  0
    3.2704   -6.4895    0.0000 C   0  0  1  0  0  0  0  0  0  0  0  0
    2.8579   -5.7750    0.0000 N   0  0  0  0  0  0  0  0  0  0  0  0
    2.0329   -5.7750    0.0000 C   0  0  0  0  0  0  0  0  0  0  0  0
    1.6204   -5.0605    0.0000 O   0  0  0  0  0  0  0  0  0  0  0  0
    1.6204   -6.4895    0.0000 N   0  0  0  0  0  0  0  0  0  0  0  0
    2.0329   -7.2039    0.0000 C   0  0  0  0  0  0  0  0  0  0  0  0
    1.6204   -7.9184    0.0000 C   0  0  0  0  0  0  0  0  0  0  0  0
    0.7954   -7.9184    0.0000 O   0  0  0  0  0  0  0  0  0  0  0  0
    0.3829   -7.2039    0.0000 C   0  0  0  0  0  0  0  0  0  0  0  0
    0.7954   -6.4895    0.0000 C   0  0  0  0  0  0  0  0  0  0  0  0
    4.0954   -6.4895    0.0000 C   0  0  0  0  0  0  0  0  0  0  0  0
    4.5079   -5.7750    0.0000 O   0  0  0  0  0  0  0  0  0  0  0  0
    4.5079   -7.2039    0.0000 N   0  0  0  0  0  0  0  0  0  0  0  0
    5.3329   -7.2039    0.0000 C   0  0  2  0  0  0  0  0  0  0  0  0
    5.7454   -6.4895    0.0000 C   0  0  0  0  0  0  0  0  0  0  0  0
    5.3329   -5.7750    0.0000 C   0  0  0  0  0  0  0  0  0  0  0  0
    5.7454   -5.0605    0.0000 C   0  0  0  0  0  0  0  0  0  0  0  0
    5.3329   -4.3461    0.0000 C   0  0  0  0  0  0  0  0  0  0  0  0
    5.7454   -3.6316    0.0000 C   0  0  0  0  0  0  0  0  0  0  0  0
    6.5704   -3.6316    0.0000 C   0  0  0  0  0  0  0  0  0  0  0  0
    6.9829   -4.3461    0.0000 C   0  0  0  0  0  0  0  0  0  0  0  0
    6.5704   -5.0605    0.0000 C   0  0  0  0  0  0  0  0  0  0  0  0
    5.7454   -7.9184    0.0000 C   0  0  0  0  0  0  0  0  0  0  0  0
    6.5704   -7.9184    0.0000 C   0  0  0  0  0  0  0  0  0  0  0  0
    6.9829   -8.6329    0.0000 S   0  0  0  0  0  0  0  0  0  0  0  0
    6.2684   -9.0454    0.0000 O   0  0  0  0  0  0  0  0  0  0  0  0
    7.6974   -8.2204    0.0000 O   0  0  0  0  0  0  0  0  0  0  0  0
    7.3954   -9.3474    0.0000 C   0  0  0  0  0  0  0  0  0  0  0  0
    8.2204   -9.3474    0.0000 C   0  0  0  0  0  0  0  0  0  0  0  0
    8.6329  -10.0618    0.0000 C   0  0  0  0  0  0  0  0  0  0  0  0
    8.2204  -10.7763    0.0000 C   0  0  0  0  0  0  0  0  0  0  0  0
    7.3954  -10.7763    0.0000 C   0  0  0  0  0  0  0  0  0  0  0  0
    6.9829  -10.0618    0.0000 C   0  0  0  0  0  0  0  0  0  0  0  0
    1.7879   -8.6329    0.0000 H   0  0  0  0  0  0  0  0  0  0  0  0
    3.3929   -9.5595    0.0000 H   0  0  0  0  0  0  0  0  0  0  0  0
    2.3229   -9.5596    0.0000 H   0  0  0  0  0  0  0  0  0  0  0  0
    3.8054   -6.9918    0.0000 H   0  0  0  0  0  0  0  0  0  0  0  0
    4.6304   -8.8450    0.0000 H   0  0  0  0  0  0  0  0  0  0  0  0
    4.6304   -6.9918    0.0000 H   0  0  0  0  0  0  0  0  0  0  0  0
    5.1654   -7.9184    0.0000 H   0  0  0  0  0  0  0  0  0  0  0  0
    1.7879   -7.2039    0.0000 H   0  0  0  0  0  0  0  0  0  0  0  0
    2.3229   -6.2772    0.0000 H   0  0  0  0  0  0  0  0  0  0  0  0
    2.2004   -6.4895    0.0000 H   0  0  0  0  0  0  0  0  0  0  0  0
    3.3502   -4.9224    0.0000 H   0  0  0  0  0  0  0  0  0  0  0  0
    3.1029   -7.2039    0.0000 H   0  0  0  0  0  0  0  0  0  0  0  0
    2.5679   -8.1305    0.0000 H   0  0  0  0  0  0  0  0  0  0  0  0
    2.1554   -8.8450    0.0000 H   0  0  0  0  0  0  0  0  0  0  0  0
    1.0854   -8.8450    0.0000 H   0  0  0  0  0  0  0  0  0  0  0  0
   -0.6871   -7.2039    0.0000 H   0  0  0  0  0  0  0  0  0  0  0  0
   -0.1521   -6.2772    0.0000 H   0  0  0  0  0  0  0  0  0  0  0  0
    0.2604   -5.5628    0.0000 H   0  0  0  0  0  0  0  0  0  0  0  0
    1.3304   -5.5629    0.0000 H   0  0  0  0  0  0  0  0  0  0  0  0
    4.0157   -8.0565    0.0000 H   0  0  0  0  0  0  0  0  0  0  0  0
    4.7979   -6.2772    0.0000 H   0  0  0  0  0  0  0  0  0  0  0  0
    6.8154   -6.4895    0.0000 H   0  0  0  0  0  0  0  0  0  0  0  0
    6.2804   -5.5629    0.0000 H   0  0  0  0  0  0  0  0  0  0  0  0
    4.2629   -5.7750    0.0000 H   0  0  0  0  0  0  0  0  0  0  0  0
    4.7979   -4.8484    0.0000 H   0  0  0  0  0  0  0  0  0  0  0  0
    4.3009   -4.3461    0.0000 H   0  0  0  0  0  0  0  0  0  0  0  0
    5.2294   -2.7379    0.0000 H   0  0  0  0  0  0  0  0  0  0  0  0
    7.0864   -2.7379    0.0000 H   0  0  0  0  0  0  0  0  0  0  0  0
    8.0149   -4.3461    0.0000 H   0  0  0  0  0  0  0  0  0  0  0  0
    7.0864   -5.9542    0.0000 H   0  0  0  0  0  0  0  0  0  0  0  0
    5.2294   -8.8121    0.0000 H   0  0  0  0  0  0  0  0  0  0  0  0
    7.0864   -7.0247    0.0000 H   0  0  0  0  0  0  0  0  0  0  0  0
    8.7364   -8.4537    0.0000 H   0  0  0  0  0  0  0  0  0  0  0  0
    9.6649  -10.0618    0.0000 H   0  0  0  0  0  0  0  0  0  0  0  0
    8.7364  -11.6700    0.0000 H   0  0  0  0  0  0  0  0  0  0  0  0
    6.8794  -11.6700    0.0000 H   0  0  0  0  0  0  0  0  0  0  0  0
    5.9509  -10.0618    0.0000 H   0  0  0  0  0  0  0  0  0  0  0  0
  1  2  1  0  0  0  0
  1 38  1  0  0  0  0
  1 39  1  0  0  0  0
  1 40  1  0  0  0  0
  2  3  1  0  0  0  0
  2  4  1  0  0  0  0
  2 41  1  0  0  0  0
  3 42  1  0  0  0  0
  3 43  1  0  0  0  0
  3 44  1  0  0  0  0
  4  5  1  0  0  0  0
  4 45  1  0  0  0  0
  4 46  1  0  0  0  0
  5  6  1  0  0  0  0
  5 15  1  0  0  0  0
  5 47  1  6  0  0  0
  6  7  1  0  0  0  0
  6 48  1  0  0  0  0
  7  8  2  0  0  0  0
  7  9  1  0  0  0  0
  9 10  1  0  0  0  0
  9 14  1  0  0  0  0
 10 11  1  0  0  0  0
 10 49  1  0  0  0  0
 10 50  1  0  0  0  0
 11 12  1  0  0  0  0
 11 51  1  0  0  0  0
 11 52  1  0  0  0  0
 12 13  1  0  0  0  0
 13 14  1  0  0  0  0
 13 53  1  0  0  0  0
 13 54  1  0  0  0  0
 14 55  1  0  0  0  0
 14 56  1  0  0  0  0
 15 16  2  0  0  0  0
 15 17  1  0  0  0  0
 17 57  1  0  0  0  0
 18 17  1  0  0  0  0
 18 19  1  0  0  0  0
 18 27  1  0  0  0  0
 18 58  1  1  0  0  0
 19 20  1  0  0  0  0
 19 59  1  0  0  0  0
 19 60  1  0  0  0  0
 20 21  1  0  0  0  0
 20 61  1  0  0  0  0
 20 62  1  0  0  0  0
 21 22  2  0  0  0  0
 21 26  1  0  0  0  0
 22 23  1  0  0  0  0
 22 63  1  0  0  0  0
 23 24  2  0  0  0  0
 23 64  1  0  0  0  0
 24 25  1  0  0  0  0
 24 65  1  0  0  0  0
 25 26  2  0  0  0  0
 25 66  1  0  0  0  0
 26 67  1  0  0  0  0
 27 28  2  0  0  0  0
 27 68  1  0  0  0  0
 28 29  1  0  0  0  0
 28 69  1  0  0  0  0
 29 30  2  0  0  0  0
 29 31  2  0  0  0  0
 29 32  1  0  0  0  0
 32 33  2  0  0  0  0
 32 37  1  0  0  0  0
 33 34  1  0  0  0  0
 33 70  1  0  0  0  0
 34 35  2  0  0  0  0
 34 71  1  0  0  0  0
 35 36  1  0  0  0  0
 35 72  1  0  0  0  0
 36 37  2  0  0  0  0
 36 73  1  0  0  0  0
 37 74  1  0  0  0  0
M  END
>  <DRUGBANK_ID>
DB03837

>  <SECONDARY_ACCESSION_NUMBERS>
EXPT00801

>  <COMMON_NAME>
Morpholine-4-Carboxylic Acid (1-(3-Benzenesulfonyl-1-Phenethylallylcarbamoyl)-3-Methylbutyl)-Amide

$$$$
