
 OpenBabel10282417072D

 40 42  0  0  0  0  0  0  0  0999 V2000
    4.1801    2.2902    0.0000 N   0  0  0  0  0  0  0  0  0  0  0  0
    3.4656    1.8777    0.0000 C   0  0  0  0  0  0  0  0  0  0  0  0
    2.7512    2.2902    0.0000 O   0  0  0  0  0  0  0  0  0  0  0  0
    3.4656    1.0527    0.0000 C   0  0  0  0  0  0  0  0  0  0  0  0
    2.7512    0.6402    0.0000 C   0  0  0  0  0  0  0  0  0  0  0  0
    2.7512   -0.1848    0.0000 N   0  0  0  0  0  0  0  0  0  0  0  0
    3.4186   -0.6697    0.0000 C   0  0  0  0  0  0  0  0  0  0  0  0
    3.1637   -1.4544    0.0000 N   0  0  0  0  0  0  0  0  0  0  0  0
    2.3387   -1.4544    0.0000 C   0  0  0  0  0  0  0  0  0  0  0  0
    2.0837   -0.6697    0.0000 N   0  0  0  0  0  0  0  0  0  0  0  0
    1.8538   -2.1218    0.0000 C   0  0  0  0  0  0  0  0  0  0  0  0
    2.1893   -2.8755    0.0000 C   0  0  0  0  0  0  0  0  0  0  0  0
    1.7044   -3.5429    0.0000 C   0  0  0  0  0  0  0  0  0  0  0  0
    0.8839   -3.4567    0.0000 C   0  0  0  0  0  0  0  0  0  0  0  0
    0.5484   -2.7030    0.0000 C   0  0  0  0  0  0  0  0  0  0  0  0
    1.0333   -2.0356    0.0000 C   0  0  0  0  0  0  0  0  0  0  0  0
   -0.2721   -2.6168    0.0000 C   0  0  0  0  0  0  0  0  0  0  0  0
   -1.0926   -2.5305    0.0000 F   0  0  0  0  0  0  0  0  0  0  0  0
   -0.3584   -3.4373    0.0000 F   0  0  0  0  0  0  0  0  0  0  0  0
   -0.1859   -1.7963    0.0000 F   0  0  0  0  0  0  0  0  0  0  0  0
    2.0399   -4.2966    0.0000 C   0  0  0  0  0  0  0  0  0  0  0  0
    2.3755   -5.0503    0.0000 F   0  0  0  0  0  0  0  0  0  0  0  0
    1.2863   -4.6321    0.0000 F   0  0  0  0  0  0  0  0  0  0  0  0
    2.7936   -3.9610    0.0000 F   0  0  0  0  0  0  0  0  0  0  0  0
    4.1801    0.6402    0.0000 C   0  0  0  0  0  0  0  0  0  0  0  0
    4.8946    1.0527    0.0000 C   0  0  0  0  0  0  0  0  0  0  0  0
    5.6091    0.6402    0.0000 N   0  0  0  0  0  0  0  0  0  0  0  0
    5.6091   -0.1848    0.0000 C   0  0  0  0  0  0  0  0  0  0  0  0
    4.8946   -0.5973    0.0000 N   0  0  0  0  0  0  0  0  0  0  0  0
    4.1801   -0.1848    0.0000 C   0  0  0  0  0  0  0  0  0  0  0  0
    5.0327    1.7979    0.0000 H   0  0  0  0  0  0  0  0  0  0  0  0
    4.1801    3.2747    0.0000 H   0  0  0  0  0  0  0  0  0  0  0  0
    1.8575    1.1562    0.0000 H   0  0  0  0  0  0  0  0  0  0  0  0
    4.4001   -0.3508    0.0000 H   0  0  0  0  0  0  0  0  0  0  0  0
    3.2156   -2.9834    0.0000 H   0  0  0  0  0  0  0  0  0  0  0  0
    0.2773   -4.2916    0.0000 H   0  0  0  0  0  0  0  0  0  0  0  0
    0.6135   -1.0928    0.0000 H   0  0  0  0  0  0  0  0  0  0  0  0
    4.8946    2.0847    0.0000 H   0  0  0  0  0  0  0  0  0  0  0  0
    6.5028   -0.7008    0.0000 H   0  0  0  0  0  0  0  0  0  0  0  0
    3.2864   -0.7008    0.0000 H   0  0  0  0  0  0  0  0  0  0  0  0
  1  2  1  0  0  0  0
  1 31  1  0  0  0  0
  1 32  1  0  0  0  0
  2  3  2  0  0  0  0
  2  4  1  0  0  0  0
  4  5  2  0  0  0  0
  4 25  1  0  0  0  0
  5  6  1  0  0  0  0
  5 33  1  0  0  0  0
  6  7  1  0  0  0  0
  6 10  1  0  0  0  0
  7  8  2  0  0  0  0
  7 34  1  0  0  0  0
  8  9  1  0  0  0  0
  9 10  2  0  0  0  0
  9 11  1  0  0  0  0
 11 12  2  0  0  0  0
 11 16  1  0  0  0  0
 12 13  1  0  0  0  0
 12 35  1  0  0  0  0
 13 14  2  0  0  0  0
 13 21  1  0  0  0  0
 14 15  1  0  0  0  0
 14 36  1  0  0  0  0
 15 16  2  0  0  0  0
 15 17  1  0  0  0  0
 16 37  1  0  0  0  0
 17 18  1  0  0  0  0
 17 19  1  0  0  0  0
 17 20  1  0  0  0  0
 21 22  1  0  0  0  0
 21 23  1  0  0  0  0
 21 24  1  0  0  0  0
 25 26  2  0  0  0  0
 25 30  1  0  0  0  0
 26 27  1  0  0  0  0
 26 38  1  0  0  0  0
 27 28  2  0  0  0  0
 28 29  1  0  0  0  0
 28 39  1  0  0  0  0
 29 30  2  0  0  0  0
 30 40  1  0  0  0  0
M  END
>  <DRUGBANK_ID>
DB16153

>  <COMMON_NAME>
Eltanexor

>  <CAS_NUMBER>
1642300-52-4

>  <UNII>
Q59IQJ9NTK

>  <SYNONYMS>
Eltanexor

$$$$
