
 OpenBabel10282417072D

 58 57  0  0  1  0  0  0  0  0999 V2000
    2.6348    0.3350    0.0000 Cr  0  1  0  0  0  0  0  0  0  0  0  0
    0.4914    0.7475    0.0000 N   0  0  0  0  0  0  0  0  0  0  0  0
    0.4914   -0.0775    0.0000 C   0  0  1  0  0  0  0  0  0  0  0  0
   -0.2231   -0.4900    0.0000 C   0  0  0  0  0  0  0  0  0  0  0  0
   -0.9375   -0.0775    0.0000 C   0  0  0  0  0  0  0  0  0  0  0  0
   -1.6912   -0.4130    0.0000 C   0  0  0  0  0  0  0  0  0  0  0  0
   -2.2433    0.2001    0.0000 N   0  0  0  0  0  0  0  0  0  0  0  0
   -1.8308    0.9146    0.0000 C   0  0  0  0  0  0  0  0  0  0  0  0
   -1.0238    0.7430    0.0000 N   0  0  0  0  0  0  0  0  0  0  0  0
    1.2059   -0.4900    0.0000 C   0  0  0  0  0  0  0  0  0  0  0  0
    1.9203   -0.0775    0.0000 O   0  5  0  0  0  0  0  0  0  0  0  0
    1.2059   -1.3150    0.0000 O   0  0  0  0  0  0  0  0  0  0  0  0
    4.9919    0.2440    0.0000 N   0  0  0  0  0  0  0  0  0  0  0  0
    5.7064    0.6565    0.0000 C   0  0  1  0  0  0  0  0  0  0  0  0
    6.4209    0.2440    0.0000 C   0  0  0  0  0  0  0  0  0  0  0  0
    6.4209   -0.5810    0.0000 C   0  0  0  0  0  0  0  0  0  0  0  0
    7.0883   -1.0659    0.0000 C   0  0  0  0  0  0  0  0  0  0  0  0
    6.8334   -1.8506    0.0000 N   0  0  0  0  0  0  0  0  0  0  0  0
    6.0084   -1.8506    0.0000 C   0  0  0  0  0  0  0  0  0  0  0  0
    5.7535   -1.0659    0.0000 N   0  0  0  0  0  0  0  0  0  0  0  0
    5.7064    1.4815    0.0000 C   0  0  0  0  0  0  0  0  0  0  0  0
    4.9919    1.8940    0.0000 O   0  5  0  0  0  0  0  0  0  0  0  0
    6.4209    1.8940    0.0000 O   0  0  0  0  0  0  0  0  0  0  0  0
   -1.0392   -5.1506    0.0000 N   0  0  0  0  0  0  0  0  0  0  0  0
   -0.3248   -4.7381    0.0000 C   0  0  1  0  0  0  0  0  0  0  0  0
    0.3897   -5.1506    0.0000 C   0  0  0  0  0  0  0  0  0  0  0  0
    0.3897   -5.9756    0.0000 C   0  0  0  0  0  0  0  0  0  0  0  0
    1.0572   -6.4605    0.0000 C   0  0  0  0  0  0  0  0  0  0  0  0
    0.8022   -7.2451    0.0000 N   0  0  0  0  0  0  0  0  0  0  0  0
   -0.0228   -7.2451    0.0000 C   0  0  0  0  0  0  0  0  0  0  0  0
   -0.2777   -6.4605    0.0000 N   0  0  0  0  0  0  0  0  0  0  0  0
   -0.3248   -3.9131    0.0000 C   0  0  0  0  0  0  0  0  0  0  0  0
   -1.0392   -3.5006    0.0000 O   0  5  0  0  0  0  0  0  0  0  0  0
    0.3897   -3.5006    0.0000 O   0  0  0  0  0  0  0  0  0  0  0  0
    1.3747    1.2575    0.0000 H   0  0  0  0  0  0  0  0  0  0  0  0
   -0.3919    1.2575    0.0000 H   0  0  0  0  0  0  0  0  0  0  0  0
   -0.4352    0.4575    0.0000 H   0  0  0  0  0  0  0  0  0  0  0  0
   -0.2231   -1.5600    0.0000 H   0  0  0  0  0  0  0  0  0  0  0  0
   -1.1498   -1.0250    0.0000 H   0  0  0  0  0  0  0  0  0  0  0  0
   -1.9058   -1.4224    0.0000 H   0  0  0  0  0  0  0  0  0  0  0  0
   -2.2505    1.8574    0.0000 H   0  0  0  0  0  0  0  0  0  0  0  0
   -0.2922    1.4018    0.0000 H   0  0  0  0  0  0  0  0  0  0  0  0
    4.1086    0.7540    0.0000 H   0  0  0  0  0  0  0  0  0  0  0  0
    4.9919   -0.7760    0.0000 H   0  0  0  0  0  0  0  0  0  0  0  0
    5.7064   -0.4135    0.0000 H   0  0  0  0  0  0  0  0  0  0  0  0
    7.3475    0.7790    0.0000 H   0  0  0  0  0  0  0  0  0  0  0  0
    7.3475   -0.2910    0.0000 H   0  0  0  0  0  0  0  0  0  0  0  0
    8.0698   -0.7470    0.0000 H   0  0  0  0  0  0  0  0  0  0  0  0
    5.4018   -2.6855    0.0000 H   0  0  0  0  0  0  0  0  0  0  0  0
    4.8172   -0.7616    0.0000 H   0  0  0  0  0  0  0  0  0  0  0  0
   -1.9226   -4.6406    0.0000 H   0  0  0  0  0  0  0  0  0  0  0  0
   -1.0392   -6.1706    0.0000 H   0  0  0  0  0  0  0  0  0  0  0  0
   -0.3248   -5.8081    0.0000 H   0  0  0  0  0  0  0  0  0  0  0  0
    1.3163   -4.6156    0.0000 H   0  0  0  0  0  0  0  0  0  0  0  0
    1.3163   -5.6856    0.0000 H   0  0  0  0  0  0  0  0  0  0  0  0
    2.0387   -6.1416    0.0000 H   0  0  0  0  0  0  0  0  0  0  0  0
   -0.6294   -8.0800    0.0000 H   0  0  0  0  0  0  0  0  0  0  0  0
   -1.2140   -6.1563    0.0000 H   0  0  0  0  0  0  0  0  0  0  0  0
  2 35  1  0  0  0  0
  2 36  1  0  0  0  0
  3  2  1  0  0  0  0
  3  4  1  0  0  0  0
  3 10  1  0  0  0  0
  3 37  1  1  0  0  0
  4  5  1  0  0  0  0
  4 38  1  0  0  0  0
  4 39  1  0  0  0  0
  5  6  2  0  0  0  0
  5  9  1  0  0  0  0
  6  7  1  0  0  0  0
  6 40  1  0  0  0  0
  7  8  2  0  0  0  0
  8  9  1  0  0  0  0
  8 41  1  0  0  0  0
  9 42  1  0  0  0  0
 10 11  1  0  0  0  0
 10 12  2  0  0  0  0
 13 43  1  0  0  0  0
 13 44  1  0  0  0  0
 14 13  1  0  0  0  0
 14 15  1  0  0  0  0
 14 21  1  0  0  0  0
 14 45  1  1  0  0  0
 15 16  1  0  0  0  0
 15 46  1  0  0  0  0
 15 47  1  0  0  0  0
 16 17  2  0  0  0  0
 16 20  1  0  0  0  0
 17 18  1  0  0  0  0
 17 48  1  0  0  0  0
 18 19  2  0  0  0  0
 19 20  1  0  0  0  0
 19 49  1  0  0  0  0
 20 50  1  0  0  0  0
 21 22  1  0  0  0  0
 21 23  2  0  0  0  0
 24 51  1  0  0  0  0
 24 52  1  0  0  0  0
 25 24  1  0  0  0  0
 25 26  1  0  0  0  0
 25 32  1  0  0  0  0
 25 53  1  1  0  0  0
 26 27  1  0  0  0  0
 26 54  1  0  0  0  0
 26 55  1  0  0  0  0
 27 28  2  0  0  0  0
 27 31  1  0  0  0  0
 28 29  1  0  0  0  0
 28 56  1  0  0  0  0
 29 30  2  0  0  0  0
 30 31  1  0  0  0  0
 30 57  1  0  0  0  0
 31 58  1  0  0  0  0
 32 33  1  0  0  0  0
 32 34  2  0  0  0  0
M  CHG  4   1   3  11  -1  22  -1  33  -1
M  END
>  <DRUGBANK_ID>
DB18516

>  <COMMON_NAME>
Chromium histidinate

>  <CAS_NUMBER>
18984-90-2

>  <UNII>
1BY3EP7D99

>  <SYNONYMS>
Chromium, tris(histidinato)-; Chromium, tris(l-histidinato-n,o)-; Chromium, tris(l-histidinato)-

$$$$
