981
 OpenBabel10282417072D

 41 43  0  0  1  0  0  0  0  0999 V2000
    3.5651    0.0678    0.0000 O   0  0  0  0  0  0  0  0  0  0  0  0
    3.2627    1.4644    0.0000 O   0  0  0  0  0  0  0  0  0  0  0  0
    7.7863   -0.6839    0.0000 N   0  0  0  0  0  0  0  0  0  0  0  0
    6.8691    0.5845    0.0000 N   0  0  0  0  0  0  0  0  0  0  0  0
    2.2044    0.5042    0.0000 N   0  0  0  0  0  0  0  0  0  0  0  0
    6.4566   -0.6851    0.0000 C   0  0  1  0  0  0  0  0  0  0  0  0
    7.1240   -0.2001    0.0000 C   0  0  2  0  0  0  0  0  0  0  0  0
    6.7121   -1.4644    0.0000 C   0  0  0  0  0  0  0  0  0  0  0  0
    5.7891   -0.2001    0.0000 C   0  0  0  0  0  0  0  0  0  0  0  0
    7.5322   -1.4637    0.0000 C   0  0  0  0  0  0  0  0  0  0  0  0
    6.0441    0.5845    0.0000 C   0  0  0  0  0  0  0  0  0  0  0  0
    5.7891   -1.1700    0.0000 C   0  0  0  0  0  0  0  0  0  0  0  0
    8.5714   -0.4303    0.0000 C   0  0  0  0  0  0  0  0  0  0  0  0
    4.9514   -0.3917    0.0000 C   0  0  0  0  0  0  0  0  0  0  0  0
    7.3540    1.2520    0.0000 C   0  0  0  0  0  0  0  0  0  0  0  0
    5.4789    1.2319    0.0000 C   0  0  0  0  0  0  0  0  0  0  0  0
    4.3715    0.2425    0.0000 C   0  0  0  0  0  0  0  0  0  0  0  0
    4.6370    1.0597    0.0000 C   0  0  0  0  0  0  0  0  0  0  0  0
    3.0107    0.6787    0.0000 C   0  0  0  0  0  0  0  0  0  0  0  0
    1.6500    1.1151    0.0000 C   0  0  0  0  0  0  0  0  0  0  0  0
    7.6586    0.1871    0.0000 H   0  0  0  0  0  0  0  0  0  0  0  0
    1.9037   -0.4333    0.0000 H   0  0  0  0  0  0  0  0  0  0  0  0
    6.0847   -2.3312    0.0000 H   0  0  0  0  0  0  0  0  0  0  0  0
    7.1991   -2.4171    0.0000 H   0  0  0  0  0  0  0  0  0  0  0  0
    8.1611   -2.3293    0.0000 H   0  0  0  0  0  0  0  0  0  0  0  0
    7.0468   -2.4173    0.0000 H   0  0  0  0  0  0  0  0  0  0  0  0
    4.8116   -0.7347    0.0000 H   0  0  0  0  0  0  0  0  0  0  0  0
    5.9009   -2.2341    0.0000 H   0  0  0  0  0  0  0  0  0  0  0  0
    4.9234   -1.7989    0.0000 H   0  0  0  0  0  0  0  0  0  0  0  0
    9.3653   -1.1476    0.0000 H   0  0  0  0  0  0  0  0  0  0  0  0
    8.7957    0.6159    0.0000 H   0  0  0  0  0  0  0  0  0  0  0  0
    9.5896   -0.1014    0.0000 H   0  0  0  0  0  0  0  0  0  0  0  0
    4.6438   -1.3768    0.0000 H   0  0  0  0  0  0  0  0  0  0  0  0
    8.4181    1.1402    0.0000 H   0  0  0  0  0  0  0  0  0  0  0  0
    6.9187    2.2295    0.0000 H   0  0  0  0  0  0  0  0  0  0  0  0
    7.9829    2.1177    0.0000 H   0  0  0  0  0  0  0  0  0  0  0  0
    5.8091    2.2097    0.0000 H   0  0  0  0  0  0  0  0  0  0  0  0
    3.9494    1.8293    0.0000 H   0  0  0  0  0  0  0  0  0  0  0  0
    1.9767    2.1340    0.0000 H   0  0  0  0  0  0  0  0  0  0  0  0
    0.6043    0.8885    0.0000 H   0  0  0  0  0  0  0  0  0  0  0  0
    0.9309    1.9075    0.0000 H   0  0  0  0  0  0  0  0  0  0  0  0
  1 17  1  0  0  0  0
  1 19  1  0  0  0  0
  2 19  2  0  0  0  0
  3  7  1  0  0  0  0
  3 10  1  0  0  0  0
  3 13  1  0  0  0  0
  4  7  1  0  0  0  0
  4 11  1  0  0  0  0
  4 15  1  0  0  0  0
  5 19  1  0  0  0  0
  5 20  1  0  0  0  0
  5 22  1  0  0  0  0
  6  7  1  0  0  0  0
  6  8  1  0  0  0  0
  6  9  1  0  0  0  0
  6 12  1  6  0  0  0
  7 21  1  6  0  0  0
  8 10  1  0  0  0  0
  8 23  1  0  0  0  0
  8 24  1  0  0  0  0
  9 11  2  0  0  0  0
  9 14  1  0  0  0  0
 10 25  1  0  0  0  0
 10 26  1  0  0  0  0
 11 16  1  0  0  0  0
 12 27  1  0  0  0  0
 12 28  1  0  0  0  0
 12 29  1  0  0  0  0
 13 30  1  0  0  0  0
 13 31  1  0  0  0  0
 13 32  1  0  0  0  0
 14 17  2  0  0  0  0
 14 33  1  0  0  0  0
 15 34  1  0  0  0  0
 15 35  1  0  0  0  0
 15 36  1  0  0  0  0
 16 18  2  0  0  0  0
 16 37  1  0  0  0  0
 17 18  1  0  0  0  0
 18 38  1  0  0  0  0
 20 39  1  0  0  0  0
 20 40  1  0  0  0  0
 20 41  1  0  0  0  0
M  END
>  <DRUGBANK_ID>
DB00981

>  <SECONDARY_ACCESSION_NUMBERS>
APRD00406

>  <COMMON_NAME>
Physostigmine

>  <CAS_NUMBER>
57-47-6

>  <UNII>
9U1VM840SP

>  <SYNONYMS>
Eserine; Physostigmine; Physostol

$$$$
