
 OpenBabel10282417072D

 64 69  0  0  0  0  0  0  0  0999 V2000
   -0.3984    0.7541    0.0000 C   0  0  0  0  0  0  0  0  0  0  0  0
   -0.1435   -0.0305    0.0000 N   0  0  0  0  0  0  0  0  0  0  0  0
   -0.6284   -0.6979    0.0000 C   0  0  0  0  0  0  0  0  0  0  0  0
   -0.1435   -1.3654    0.0000 C   0  0  0  0  0  0  0  0  0  0  0  0
   -0.3984   -2.1500    0.0000 C   0  0  0  0  0  0  0  0  0  0  0  0
   -1.2054   -2.3215    0.0000 O   0  0  0  0  0  0  0  0  0  0  0  0
    0.1536   -2.7631    0.0000 O   0  0  0  0  0  0  0  0  0  0  0  0
    0.6411   -1.1104    0.0000 C   0  0  0  0  0  0  0  0  0  0  0  0
    0.6411   -0.2854    0.0000 C   0  0  0  0  0  0  0  0  0  0  0  0
    1.3556    0.1271    0.0000 C   0  0  0  0  0  0  0  0  0  0  0  0
    2.0701   -0.2854    0.0000 C   0  0  0  0  0  0  0  0  0  0  0  0
    2.0701   -1.1104    0.0000 C   0  0  0  0  0  0  0  0  0  0  0  0
    1.3556   -1.5229    0.0000 C   0  0  0  0  0  0  0  0  0  0  0  0
    2.7845    0.1271    0.0000 N   0  0  0  0  0  0  0  0  0  0  0  0
    2.7845    0.9521    0.0000 C   0  0  0  0  0  0  0  0  0  0  0  0
    3.4990    1.3646    0.0000 C   0  0  0  0  0  0  0  0  0  0  0  0
    4.2135    0.9521    0.0000 C   0  0  0  0  0  0  0  0  0  0  0  0
    4.2135    0.1271    0.0000 C   0  0  0  0  0  0  0  0  0  0  0  0
    3.4990   -0.2854    0.0000 C   0  0  0  0  0  0  0  0  0  0  0  0
    4.9279    1.3646    0.0000 O   0  0  0  0  0  0  0  0  0  0  0  0
    5.6424    0.9521    0.0000 C   0  0  0  0  0  0  0  0  0  0  0  0
    6.3569    1.3646    0.0000 C   0  0  0  0  0  0  0  0  0  0  0  0
    6.4431    2.1850    0.0000 C   0  0  0  0  0  0  0  0  0  0  0  0
    7.2501    2.3566    0.0000 O   0  0  0  0  0  0  0  0  0  0  0  0
    7.6626    1.6421    0.0000 N   0  0  0  0  0  0  0  0  0  0  0  0
    7.1106    1.0290    0.0000 C   0  0  0  0  0  0  0  0  0  0  0  0
    7.2821    0.2220    0.0000 C   0  0  0  0  0  0  0  0  0  0  0  0
    8.0667   -0.0329    0.0000 C   0  0  0  0  0  0  0  0  0  0  0  0
    8.6798    0.5191    0.0000 Cl  0  0  0  0  0  0  0  0  0  0  0  0
    8.2382   -0.8399    0.0000 C   0  0  0  0  0  0  0  0  0  0  0  0
    7.6251   -1.3919    0.0000 C   0  0  0  0  0  0  0  0  0  0  0  0
    6.8405   -1.1370    0.0000 C   0  0  0  0  0  0  0  0  0  0  0  0
    6.6690   -0.3300    0.0000 C   0  0  0  0  0  0  0  0  0  0  0  0
    5.8844   -0.0751    0.0000 Cl  0  0  0  0  0  0  0  0  0  0  0  0
    5.8300    2.7371    0.0000 C   0  0  0  0  0  0  0  0  0  0  0  0
    5.0231    2.9086    0.0000 C   0  0  0  0  0  0  0  0  0  0  0  0
    5.5751    3.5217    0.0000 C   0  0  0  0  0  0  0  0  0  0  0  0
    0.3176    1.5492    0.0000 H   0  0  0  0  0  0  0  0  0  0  0  0
   -1.4450    0.9766    0.0000 H   0  0  0  0  0  0  0  0  0  0  0  0
   -0.7290    1.7717    0.0000 H   0  0  0  0  0  0  0  0  0  0  0  0
   -1.6604   -0.6979    0.0000 H   0  0  0  0  0  0  0  0  0  0  0  0
   -1.8323   -1.6251    0.0000 H   0  0  0  0  0  0  0  0  0  0  0  0
    1.3556    1.1591    0.0000 H   0  0  0  0  0  0  0  0  0  0  0  0
    2.9638   -1.6264    0.0000 H   0  0  0  0  0  0  0  0  0  0  0  0
    1.3556   -2.5549    0.0000 H   0  0  0  0  0  0  0  0  0  0  0  0
    1.8579    1.4871    0.0000 H   0  0  0  0  0  0  0  0  0  0  0  0
    2.7845    2.0221    0.0000 H   0  0  0  0  0  0  0  0  0  0  0  0
    3.4990    2.4346    0.0000 H   0  0  0  0  0  0  0  0  0  0  0  0
    4.4256    1.8996    0.0000 H   0  0  0  0  0  0  0  0  0  0  0  0
    5.1402    0.4171    0.0000 H   0  0  0  0  0  0  0  0  0  0  0  0
    5.1401   -0.4079    0.0000 H   0  0  0  0  0  0  0  0  0  0  0  0
    4.2135   -0.9429    0.0000 H   0  0  0  0  0  0  0  0  0  0  0  0
    3.4990   -1.3554    0.0000 H   0  0  0  0  0  0  0  0  0  0  0  0
    2.5724   -0.8204    0.0000 H   0  0  0  0  0  0  0  0  0  0  0  0
    5.6424   -0.1179    0.0000 H   0  0  0  0  0  0  0  0  0  0  0  0
    6.5690    0.4171    0.0000 H   0  0  0  0  0  0  0  0  0  0  0  0
    9.2197   -1.1588    0.0000 H   0  0  0  0  0  0  0  0  0  0  0  0
    7.8397   -2.4013    0.0000 H   0  0  0  0  0  0  0  0  0  0  0  0
    6.0736   -1.8275    0.0000 H   0  0  0  0  0  0  0  0  0  0  0  0
    5.0348    3.4531    0.0000 H   0  0  0  0  0  0  0  0  0  0  0  0
    4.0055    2.5779    0.0000 H   0  0  0  0  0  0  0  0  0  0  0  0
    4.4403    3.8060    0.0000 H   0  0  0  0  0  0  0  0  0  0  0  0
    5.7976    4.5683    0.0000 H   0  0  0  0  0  0  0  0  0  0  0  0
    6.6436    3.5777    0.0000 H   0  0  0  0  0  0  0  0  0  0  0  0
  1  2  1  0  0  0  0
  1 38  1  0  0  0  0
  1 39  1  0  0  0  0
  1 40  1  0  0  0  0
  2  3  1  0  0  0  0
  2  9  1  0  0  0  0
  3  4  2  0  0  0  0
  3 41  1  0  0  0  0
  4  5  1  0  0  0  0
  4  8  1  0  0  0  0
  5  6  1  0  0  0  0
  5  7  2  0  0  0  0
  6 42  1  0  0  0  0
  8  9  2  0  0  0  0
  8 13  1  0  0  0  0
  9 10  1  0  0  0  0
 10 11  2  0  0  0  0
 10 43  1  0  0  0  0
 11 12  1  0  0  0  0
 11 14  1  0  0  0  0
 12 13  2  0  0  0  0
 12 44  1  0  0  0  0
 13 45  1  0  0  0  0
 14 15  1  0  0  0  0
 14 19  1  0  0  0  0
 15 16  1  0  0  0  0
 15 46  1  0  0  0  0
 15 47  1  0  0  0  0
 16 17  1  0  0  0  0
 16 48  1  0  0  0  0
 16 49  1  0  0  0  0
 17 18  1  0  0  0  0
 17 20  1  0  0  0  0
 17 50  1  0  0  0  0
 18 19  1  0  0  0  0
 18 51  1  0  0  0  0
 18 52  1  0  0  0  0
 19 53  1  0  0  0  0
 19 54  1  0  0  0  0
 20 21  1  0  0  0  0
 21 22  1  0  0  0  0
 21 55  1  0  0  0  0
 21 56  1  0  0  0  0
 22 23  2  0  0  0  0
 22 26  1  0  0  0  0
 23 24  1  0  0  0  0
 23 35  1  0  0  0  0
 24 25  1  0  0  0  0
 25 26  2  0  0  0  0
 26 27  1  0  0  0  0
 27 28  2  0  0  0  0
 27 33  1  0  0  0  0
 28 29  1  0  0  0  0
 28 30  1  0  0  0  0
 30 31  2  0  0  0  0
 30 57  1  0  0  0  0
 31 32  1  0  0  0  0
 31 58  1  0  0  0  0
 32 33  2  0  0  0  0
 32 59  1  0  0  0  0
 33 34  1  0  0  0  0
 35 36  1  0  0  0  0
 35 37  1  0  0  0  0
 35 60  1  0  0  0  0
 36 37  1  0  0  0  0
 36 61  1  0  0  0  0
 36 62  1  0  0  0  0
 37 63  1  0  0  0  0
 37 64  1  0  0  0  0
M  END
>  <DRUGBANK_ID>
DB16045

>  <COMMON_NAME>
TERN-101

>  <CAS_NUMBER>
1103500-20-4

>  <UNII>
VVA2ZDV3LX

$$$$
