
 OpenBabel10282417072D

151146  0  0  1  0  0  0  0  0999 V2000
    2.6630    0.5625    0.0000 Mg  0  2  0  0  0  0  0  0  0  0  0  0
   -3.0527   -0.2625    0.0000 N   0  0  0  0  0  0  0  0  0  0  0  0
   -2.3383    0.1500    0.0000 C   0  0  0  0  0  0  0  0  0  0  0  0
   -1.6238   -0.2625    0.0000 C   0  0  0  0  0  0  0  0  0  0  0  0
   -0.9093    0.1500    0.0000 C   0  0  0  0  0  0  0  0  0  0  0  0
   -0.1949   -0.2625    0.0000 C   0  0  0  0  0  0  0  0  0  0  0  0
    0.5196    0.1500    0.0000 C   0  0  2  0  0  0  0  0  0  0  0  0
    0.5196    0.9750    0.0000 N   0  0  0  0  0  0  0  0  0  0  0  0
    1.2341   -0.2625    0.0000 C   0  0  0  0  0  0  0  0  0  0  0  0
    1.9486    0.1500    0.0000 O   0  5  0  0  0  0  0  0  0  0  0  0
    1.2341   -1.0875    0.0000 O   0  0  0  0  0  0  0  0  0  0  0  0
    5.0202   -0.2062    0.0000 N   0  0  0  0  0  0  0  0  0  0  0  0
    5.7346    0.2063    0.0000 C   0  0  0  0  0  0  0  0  0  0  0  0
    6.4491   -0.2063    0.0000 C   0  0  0  0  0  0  0  0  0  0  0  0
    7.1636    0.2062    0.0000 C   0  0  0  0  0  0  0  0  0  0  0  0
    7.8781   -0.2063    0.0000 C   0  0  0  0  0  0  0  0  0  0  0  0
    8.5925    0.2062    0.0000 C   0  0  2  0  0  0  0  0  0  0  0  0
    8.5925    1.0312    0.0000 N   0  0  0  0  0  0  0  0  0  0  0  0
    9.3070   -0.2063    0.0000 C   0  0  0  0  0  0  0  0  0  0  0  0
   10.0215    0.2062    0.0000 O   0  5  0  0  0  0  0  0  0  0  0  0
    9.3070   -1.0313    0.0000 O   0  0  0  0  0  0  0  0  0  0  0  0
    0.3572   -5.2125    0.0000 C   0  0  0  0  0  0  0  0  0  0  0  0
    1.0717   -5.6250    0.0000 C   0  0  0  0  0  0  0  0  0  0  0  0
    1.7862   -5.2125    0.0000 C   0  0  0  0  0  0  0  0  0  0  0  0
    1.7862   -4.3875    0.0000 C   0  0  0  0  0  0  0  0  0  0  0  0
    1.0717   -3.9750    0.0000 C   0  0  0  0  0  0  0  0  0  0  0  0
    1.0717   -3.1500    0.0000 C   0  0  0  0  0  0  0  0  0  0  0  0
    0.3572   -2.7375    0.0000 C   0  0  0  0  0  0  0  0  0  0  0  0
   -0.3572   -3.1500    0.0000 C   0  0  0  0  0  0  0  0  0  0  0  0
   -1.0717   -2.7375    0.0000 C   0  0  0  0  0  0  0  0  0  0  0  0
   -1.7862   -3.1500    0.0000 C   0  0  0  0  0  0  0  0  0  0  0  0
   -1.7862   -3.9750    0.0000 C   0  0  0  0  0  0  0  0  0  0  0  0
   -2.5006   -4.3875    0.0000 C   0  0  0  0  0  0  0  0  0  0  0  0
   -2.5006   -5.2125    0.0000 C   0  0  0  0  0  0  0  0  0  0  0  0
   -1.7862   -5.6250    0.0000 C   0  0  0  0  0  0  0  0  0  0  0  0
   -1.7862   -6.4500    0.0000 C   0  0  0  0  0  0  0  0  0  0  0  0
   -1.0717   -6.8625    0.0000 C   0  0  0  0  0  0  0  0  0  0  0  0
   -0.3572   -6.4500    0.0000 C   0  0  0  0  0  0  0  0  0  0  0  0
    0.3572   -6.8625    0.0000 C   0  0  0  0  0  0  0  0  0  0  0  0
    1.0717   -6.4500    0.0000 C   0  0  0  0  0  0  0  0  0  0  0  0
    1.7862   -6.8625    0.0000 C   0  0  0  0  0  0  0  0  0  0  0  0
    2.5006   -6.4500    0.0000 O   0  0  0  0  0  0  0  0  0  0  0  0
    1.7862   -7.6875    0.0000 O   0  0  0  0  0  0  0  0  0  0  0  0
    7.2442   -5.2125    0.0000 C   0  0  0  0  0  0  0  0  0  0  0  0
    7.9587   -5.6250    0.0000 C   0  0  0  0  0  0  0  0  0  0  0  0
    8.6732   -5.2125    0.0000 C   0  0  0  0  0  0  0  0  0  0  0  0
    8.6732   -4.3875    0.0000 C   0  0  0  0  0  0  0  0  0  0  0  0
    7.9587   -3.9750    0.0000 C   0  0  0  0  0  0  0  0  0  0  0  0
    7.9587   -3.1500    0.0000 C   0  0  0  0  0  0  0  0  0  0  0  0
    7.2442   -2.7375    0.0000 C   0  0  0  0  0  0  0  0  0  0  0  0
    6.5298   -3.1500    0.0000 C   0  0  0  0  0  0  0  0  0  0  0  0
    5.8153   -2.7375    0.0000 C   0  0  0  0  0  0  0  0  0  0  0  0
    5.1008   -3.1500    0.0000 C   0  0  0  0  0  0  0  0  0  0  0  0
    5.1008   -3.9750    0.0000 C   0  0  0  0  0  0  0  0  0  0  0  0
    4.3864   -4.3875    0.0000 C   0  0  0  0  0  0  0  0  0  0  0  0
    4.3864   -5.2125    0.0000 C   0  0  0  0  0  0  0  0  0  0  0  0
    5.1008   -5.6250    0.0000 C   0  0  0  0  0  0  0  0  0  0  0  0
    5.1008   -6.4500    0.0000 C   0  0  0  0  0  0  0  0  0  0  0  0
    5.8153   -6.8625    0.0000 C   0  0  0  0  0  0  0  0  0  0  0  0
    6.5298   -6.4500    0.0000 C   0  0  0  0  0  0  0  0  0  0  0  0
    7.2442   -6.8625    0.0000 C   0  0  0  0  0  0  0  0  0  0  0  0
    7.9587   -6.4500    0.0000 C   0  0  0  0  0  0  0  0  0  0  0  0
    8.6732   -6.8625    0.0000 C   0  0  0  0  0  0  0  0  0  0  0  0
    9.3877   -6.4500    0.0000 O   0  0  0  0  0  0  0  0  0  0  0  0
    8.6732   -7.6875    0.0000 O   0  0  0  0  0  0  0  0  0  0  0  0
   -3.9361    0.2475    0.0000 H   0  0  0  0  0  0  0  0  0  0  0  0
   -3.0527   -1.2825    0.0000 H   0  0  0  0  0  0  0  0  0  0  0  0
   -2.3383    1.2200    0.0000 H   0  0  0  0  0  0  0  0  0  0  0  0
   -1.4117    0.6850    0.0000 H   0  0  0  0  0  0  0  0  0  0  0  0
   -1.6238   -1.3325    0.0000 H   0  0  0  0  0  0  0  0  0  0  0  0
   -0.6972   -0.7975    0.0000 H   0  0  0  0  0  0  0  0  0  0  0  0
   -0.9093    1.2200    0.0000 H   0  0  0  0  0  0  0  0  0  0  0  0
    0.0174    0.6850    0.0000 H   0  0  0  0  0  0  0  0  0  0  0  0
   -0.1949   -1.3325    0.0000 H   0  0  0  0  0  0  0  0  0  0  0  0
    0.7317   -0.7975    0.0000 H   0  0  0  0  0  0  0  0  0  0  0  0
   -0.4070    0.6850    0.0000 H   0  0  0  0  0  0  0  0  0  0  0  0
    1.4029    1.4850    0.0000 H   0  0  0  0  0  0  0  0  0  0  0  0
   -0.3637    1.4850    0.0000 H   0  0  0  0  0  0  0  0  0  0  0  0
    4.1368    0.3038    0.0000 H   0  0  0  0  0  0  0  0  0  0  0  0
    5.0202   -1.2262    0.0000 H   0  0  0  0  0  0  0  0  0  0  0  0
    5.7346    1.2763    0.0000 H   0  0  0  0  0  0  0  0  0  0  0  0
    6.6613    0.7412    0.0000 H   0  0  0  0  0  0  0  0  0  0  0  0
    6.4490   -1.2763    0.0000 H   0  0  0  0  0  0  0  0  0  0  0  0
    7.3757   -0.7413    0.0000 H   0  0  0  0  0  0  0  0  0  0  0  0
    7.1636    1.2762    0.0000 H   0  0  0  0  0  0  0  0  0  0  0  0
    8.0902    0.7412    0.0000 H   0  0  0  0  0  0  0  0  0  0  0  0
    7.8781   -1.2763    0.0000 H   0  0  0  0  0  0  0  0  0  0  0  0
    8.8048   -0.7413    0.0000 H   0  0  0  0  0  0  0  0  0  0  0  0
    7.6658    0.7412    0.0000 H   0  0  0  0  0  0  0  0  0  0  0  0
    9.4758    1.5412    0.0000 H   0  0  0  0  0  0  0  0  0  0  0  0
    7.7092    1.5412    0.0000 H   0  0  0  0  0  0  0  0  0  0  0  0
    0.3572   -4.1425    0.0000 H   0  0  0  0  0  0  0  0  0  0  0  0
   -0.5694   -5.7475    0.0000 H   0  0  0  0  0  0  0  0  0  0  0  0
   -0.5695   -4.6775    0.0000 H   0  0  0  0  0  0  0  0  0  0  0  0
    1.0717   -6.6950    0.0000 H   0  0  0  0  0  0  0  0  0  0  0  0
    1.9983   -6.1600    0.0000 H   0  0  0  0  0  0  0  0  0  0  0  0
    2.6799   -5.7285    0.0000 H   0  0  0  0  0  0  0  0  0  0  0  0
    2.6799   -3.8715    0.0000 H   0  0  0  0  0  0  0  0  0  0  0  0
    0.1451   -4.5100    0.0000 H   0  0  0  0  0  0  0  0  0  0  0  0
    0.1451   -3.4400    0.0000 H   0  0  0  0  0  0  0  0  0  0  0  0
    1.9654   -2.6340    0.0000 H   0  0  0  0  0  0  0  0  0  0  0  0
    0.3572   -1.7055    0.0000 H   0  0  0  0  0  0  0  0  0  0  0  0
   -0.3572   -4.2200    0.0000 H   0  0  0  0  0  0  0  0  0  0  0  0
   -1.2838   -3.6850    0.0000 H   0  0  0  0  0  0  0  0  0  0  0  0
   -1.0717   -1.7055    0.0000 H   0  0  0  0  0  0  0  0  0  0  0  0
   -2.6799   -2.6340    0.0000 H   0  0  0  0  0  0  0  0  0  0  0  0
   -0.8595   -4.5100    0.0000 H   0  0  0  0  0  0  0  0  0  0  0  0
   -1.7862   -5.0450    0.0000 H   0  0  0  0  0  0  0  0  0  0  0  0
   -3.3943   -3.8715    0.0000 H   0  0  0  0  0  0  0  0  0  0  0  0
   -3.3943   -5.7285    0.0000 H   0  0  0  0  0  0  0  0  0  0  0  0
   -0.8595   -5.0900    0.0000 H   0  0  0  0  0  0  0  0  0  0  0  0
   -0.8596   -6.1600    0.0000 H   0  0  0  0  0  0  0  0  0  0  0  0
   -2.6799   -6.9660    0.0000 H   0  0  0  0  0  0  0  0  0  0  0  0
   -1.0717   -7.8945    0.0000 H   0  0  0  0  0  0  0  0  0  0  0  0
   -0.3572   -5.3800    0.0000 H   0  0  0  0  0  0  0  0  0  0  0  0
    0.5695   -5.9150    0.0000 H   0  0  0  0  0  0  0  0  0  0  0  0
    0.3572   -7.9325    0.0000 H   0  0  0  0  0  0  0  0  0  0  0  0
    1.2838   -7.3975    0.0000 H   0  0  0  0  0  0  0  0  0  0  0  0
    1.0717   -5.3800    0.0000 H   0  0  0  0  0  0  0  0  0  0  0  0
    1.9983   -5.9150    0.0000 H   0  0  0  0  0  0  0  0  0  0  0  0
    3.3121   -6.9185    0.0000 H   0  0  0  0  0  0  0  0  0  0  0  0
    7.2442   -4.1425    0.0000 H   0  0  0  0  0  0  0  0  0  0  0  0
    6.3176   -5.7475    0.0000 H   0  0  0  0  0  0  0  0  0  0  0  0
    6.3175   -4.6775    0.0000 H   0  0  0  0  0  0  0  0  0  0  0  0
    7.9587   -6.6950    0.0000 H   0  0  0  0  0  0  0  0  0  0  0  0
    8.8853   -6.1600    0.0000 H   0  0  0  0  0  0  0  0  0  0  0  0
    9.5669   -5.7285    0.0000 H   0  0  0  0  0  0  0  0  0  0  0  0
    9.5669   -3.8715    0.0000 H   0  0  0  0  0  0  0  0  0  0  0  0
    7.0321   -4.5100    0.0000 H   0  0  0  0  0  0  0  0  0  0  0  0
    7.0321   -3.4400    0.0000 H   0  0  0  0  0  0  0  0  0  0  0  0
    8.8524   -2.6340    0.0000 H   0  0  0  0  0  0  0  0  0  0  0  0
    7.2442   -1.7055    0.0000 H   0  0  0  0  0  0  0  0  0  0  0  0
    6.5298   -4.2200    0.0000 H   0  0  0  0  0  0  0  0  0  0  0  0
    5.6032   -3.6850    0.0000 H   0  0  0  0  0  0  0  0  0  0  0  0
    5.8153   -1.7055    0.0000 H   0  0  0  0  0  0  0  0  0  0  0  0
    4.2071   -2.6340    0.0000 H   0  0  0  0  0  0  0  0  0  0  0  0
    6.0275   -4.5100    0.0000 H   0  0  0  0  0  0  0  0  0  0  0  0
    5.1008   -5.0450    0.0000 H   0  0  0  0  0  0  0  0  0  0  0  0
    3.4927   -3.8715    0.0000 H   0  0  0  0  0  0  0  0  0  0  0  0
    3.4927   -5.7285    0.0000 H   0  0  0  0  0  0  0  0  0  0  0  0
    6.0275   -5.0900    0.0000 H   0  0  0  0  0  0  0  0  0  0  0  0
    6.0274   -6.1600    0.0000 H   0  0  0  0  0  0  0  0  0  0  0  0
    4.2071   -6.9660    0.0000 H   0  0  0  0  0  0  0  0  0  0  0  0
    5.8153   -7.8945    0.0000 H   0  0  0  0  0  0  0  0  0  0  0  0
    6.5298   -5.3800    0.0000 H   0  0  0  0  0  0  0  0  0  0  0  0
    7.4565   -5.9150    0.0000 H   0  0  0  0  0  0  0  0  0  0  0  0
    7.2442   -7.9325    0.0000 H   0  0  0  0  0  0  0  0  0  0  0  0
    8.1708   -7.3975    0.0000 H   0  0  0  0  0  0  0  0  0  0  0  0
    7.9587   -5.3800    0.0000 H   0  0  0  0  0  0  0  0  0  0  0  0
    8.8853   -5.9150    0.0000 H   0  0  0  0  0  0  0  0  0  0  0  0
   10.1992   -6.9185    0.0000 H   0  0  0  0  0  0  0  0  0  0  0  0
  2  3  1  0  0  0  0
  2 66  1  0  0  0  0
  2 67  1  0  0  0  0
  3  4  1  0  0  0  0
  3 68  1  0  0  0  0
  3 69  1  0  0  0  0
  4  5  1  0  0  0  0
  4 70  1  0  0  0  0
  4 71  1  0  0  0  0
  5  6  1  0  0  0  0
  5 72  1  0  0  0  0
  5 73  1  0  0  0  0
  6 74  1  0  0  0  0
  6 75  1  0  0  0  0
  7  6  1  0  0  0  0
  7  8  1  0  0  0  0
  7  9  1  0  0  0  0
  7 76  1  1  0  0  0
  8 77  1  0  0  0  0
  8 78  1  0  0  0  0
  9 10  1  0  0  0  0
  9 11  2  0  0  0  0
 12 13  1  0  0  0  0
 12 79  1  0  0  0  0
 12 80  1  0  0  0  0
 13 14  1  0  0  0  0
 13 81  1  0  0  0  0
 13 82  1  0  0  0  0
 14 15  1  0  0  0  0
 14 83  1  0  0  0  0
 14 84  1  0  0  0  0
 15 16  1  0  0  0  0
 15 85  1  0  0  0  0
 15 86  1  0  0  0  0
 16 87  1  0  0  0  0
 16 88  1  0  0  0  0
 17 16  1  0  0  0  0
 17 18  1  0  0  0  0
 17 19  1  0  0  0  0
 17 89  1  1  0  0  0
 18 90  1  0  0  0  0
 18 91  1  0  0  0  0
 19 20  1  0  0  0  0
 19 21  2  0  0  0  0
 22 23  1  0  0  0  0
 22 92  1  0  0  0  0
 22 93  1  0  0  0  0
 22 94  1  0  0  0  0
 23 24  1  0  0  0  0
 23 95  1  0  0  0  0
 23 96  1  0  0  0  0
 24 25  2  0  0  0  0
 24 97  1  0  0  0  0
 25 26  1  0  0  0  0
 25 98  1  0  0  0  0
 26 27  1  0  0  0  0
 26 99  1  0  0  0  0
 26100  1  0  0  0  0
 27 28  2  0  0  0  0
 27101  1  0  0  0  0
 28 29  1  0  0  0  0
 28102  1  0  0  0  0
 29 30  1  0  0  0  0
 29103  1  0  0  0  0
 29104  1  0  0  0  0
 30 31  2  0  0  0  0
 30105  1  0  0  0  0
 31 32  1  0  0  0  0
 31106  1  0  0  0  0
 32 33  1  0  0  0  0
 32107  1  0  0  0  0
 32108  1  0  0  0  0
 33 34  2  0  0  0  0
 33109  1  0  0  0  0
 34 35  1  0  0  0  0
 34110  1  0  0  0  0
 35 36  1  0  0  0  0
 35111  1  0  0  0  0
 35112  1  0  0  0  0
 36 37  2  0  0  0  0
 36113  1  0  0  0  0
 37 38  1  0  0  0  0
 37114  1  0  0  0  0
 38 39  1  0  0  0  0
 38115  1  0  0  0  0
 38116  1  0  0  0  0
 39 40  1  0  0  0  0
 39117  1  0  0  0  0
 39118  1  0  0  0  0
 40 41  1  0  0  0  0
 40119  1  0  0  0  0
 40120  1  0  0  0  0
 41 42  1  0  0  0  0
 41 43  2  0  0  0  0
 42121  1  0  0  0  0
 44 45  1  0  0  0  0
 44122  1  0  0  0  0
 44123  1  0  0  0  0
 44124  1  0  0  0  0
 45 46  1  0  0  0  0
 45125  1  0  0  0  0
 45126  1  0  0  0  0
 46 47  2  0  0  0  0
 46127  1  0  0  0  0
 47 48  1  0  0  0  0
 47128  1  0  0  0  0
 48 49  1  0  0  0  0
 48129  1  0  0  0  0
 48130  1  0  0  0  0
 49 50  2  0  0  0  0
 49131  1  0  0  0  0
 50 51  1  0  0  0  0
 50132  1  0  0  0  0
 51 52  1  0  0  0  0
 51133  1  0  0  0  0
 51134  1  0  0  0  0
 52 53  2  0  0  0  0
 52135  1  0  0  0  0
 53 54  1  0  0  0  0
 53136  1  0  0  0  0
 54 55  1  0  0  0  0
 54137  1  0  0  0  0
 54138  1  0  0  0  0
 55 56  2  0  0  0  0
 55139  1  0  0  0  0
 56 57  1  0  0  0  0
 56140  1  0  0  0  0
 57 58  1  0  0  0  0
 57141  1  0  0  0  0
 57142  1  0  0  0  0
 58 59  2  0  0  0  0
 58143  1  0  0  0  0
 59 60  1  0  0  0  0
 59144  1  0  0  0  0
 60 61  1  0  0  0  0
 60145  1  0  0  0  0
 60146  1  0  0  0  0
 61 62  1  0  0  0  0
 61147  1  0  0  0  0
 61148  1  0  0  0  0
 62 63  1  0  0  0  0
 62149  1  0  0  0  0
 62150  1  0  0  0  0
 63 64  1  0  0  0  0
 63 65  2  0  0  0  0
 64151  1  0  0  0  0
M  CHG  3   1   2  10  -1  20  -1
M  END
>  <DRUGBANK_ID>
DB17912

>  <COMMON_NAME>
TP-252

>  <CAS_NUMBER>
1841444-50-5

>  <UNII>
QDG62BO0C2

>  <SYNONYMS>
Magnesium bislysinate biseicosapentaenoate; Magnesium lysinate bis eicosapentaenoate; Magnesium, bis(l-lysinato-.kappa.n2,.kappa.o1)-, (t-4)-, (5z,8z,11z,14z,17z)-5,8,11,14,17-eicosapentaenoate (1:2)

$$$$
