
 OpenBabel10282417072D

 53 54  0  0  0  0  0  0  0  0999 V2000
   -1.6041   -1.2695    0.0000 C   0  0  0  0  0  0  0  0  0  0  0  0
   -0.8930   -0.8512    0.0000 O   0  0  0  0  0  0  0  0  0  0  0  0
   -0.1819   -1.2695    0.0000 C   0  0  0  0  0  0  0  0  0  0  0  0
   -1.6041   -2.1061    0.0000 O   0  0  0  0  0  0  0  0  0  0  0  0
   -2.3152   -0.8512    0.0000 C   0  0  0  0  0  0  0  0  0  0  0  0
   -2.3152   -0.0146    0.0000 C   0  0  0  0  0  0  0  0  0  0  0  0
   -3.0263   -1.2695    0.0000 C   0  0  0  0  0  0  0  0  0  0  0  0
   -3.7333   -0.8512    0.0000 C   0  0  0  0  0  0  0  0  0  0  0  0
   -3.0263    0.4036    0.0000 C   0  0  0  0  0  0  0  0  0  0  0  0
   -3.7333   -0.0146    0.0000 C   0  0  0  0  0  0  0  0  0  0  0  0
    2.3111    2.0559    0.0000 N   0  0  0  0  0  0  0  0  0  0  0  0
    1.6042    0.8052    0.0000 C   0  0  0  0  0  0  0  0  0  0  0  0
    2.3111    1.2235    0.0000 C   0  0  0  0  0  0  0  0  0  0  0  0
    2.3111   -0.4496    0.0000 N   0  0  0  0  0  0  0  0  0  0  0  0
    2.3111   -1.2862    0.0000 C   0  0  0  0  0  0  0  0  0  0  0  0
    1.6042   -0.0313    0.0000 C   0  0  0  0  0  0  0  0  0  0  0  0
    0.8931    2.0559    0.0000 N   0  0  0  0  0  0  0  0  0  0  0  0
    1.5748   -1.2736    0.0000 C   0  0  0  0  0  0  0  0  0  0  0  0
    1.6042    2.4742    0.0000 C   0  0  0  0  0  0  0  0  0  0  0  0
    3.0222   -0.0313    0.0000 C   0  0  0  0  0  0  0  0  0  0  0  0
    0.8931    1.2235    0.0000 C   0  0  0  0  0  0  0  0  0  0  0  0
    0.6964   -1.2736    0.0000 S   0  0  0  0  0  0  0  0  0  0  0  0
    3.7333   -0.4496    0.0000 O   0  0  0  0  0  0  0  0  0  0  0  0
    3.0222    0.8052    0.0000 N   0  0  0  0  0  0  0  0  0  0  0  0
    1.5748   -2.2148    0.0000 C   0  0  0  0  0  0  0  0  0  0  0  0
    3.0222   -1.7045    0.0000 C   0  0  0  0  0  0  0  0  0  0  0  0
    1.0101   -3.3108    0.0000 O   0  0  0  0  0  0  0  0  0  0  0  0
    1.6042    3.3108    0.0000 C   0  0  0  0  0  0  0  0  0  0  0  0
    1.0101   -2.6248    0.0000 C   0  0  0  0  0  0  0  0  0  0  0  0
   -0.4654   -2.3012    0.0000 H   0  0  0  0  0  0  0  0  0  0  0  0
    0.4648   -2.1220    0.0000 H   0  0  0  0  0  0  0  0  0  0  0  0
   -1.4194    0.4978    0.0000 H   0  0  0  0  0  0  0  0  0  0  0  0
   -3.0276   -2.3015    0.0000 H   0  0  0  0  0  0  0  0  0  0  0  0
   -4.6298   -1.3624    0.0000 H   0  0  0  0  0  0  0  0  0  0  0  0
   -3.0276    1.4356    0.0000 H   0  0  0  0  0  0  0  0  0  0  0  0
   -4.6297    0.4967    0.0000 H   0  0  0  0  0  0  0  0  0  0  0  0
    0.6747   -0.5613    0.0000 H   0  0  0  0  0  0  0  0  0  0  0  0
    0.6790    0.5062    0.0000 H   0  0  0  0  0  0  0  0  0  0  0  0
    3.0222    1.0007    0.0000 H   0  0  0  0  0  0  0  0  0  0  0  0
   -0.0027    0.7111    0.0000 H   0  0  0  0  0  0  0  0  0  0  0  0
    3.0142   -0.1793    0.0000 H   0  0  0  0  0  0  0  0  0  0  0  0
    3.8788    1.2905    0.0000 H   0  0  0  0  0  0  0  0  0  0  0  0
    2.5281   -2.7007    0.0000 H   0  0  0  0  0  0  0  0  0  0  0  0
    1.6585   -3.2815    0.0000 H   0  0  0  0  0  0  0  0  0  0  0  0
    3.0135   -2.7745    0.0000 H   0  0  0  0  0  0  0  0  0  0  0  0
    3.9532   -1.1771    0.0000 H   0  0  0  0  0  0  0  0  0  0  0  0
    3.9445   -2.2470    0.0000 H   0  0  0  0  0  0  0  0  0  0  0  0
    0.1701   -3.7958    0.0000 H   0  0  0  0  0  0  0  0  0  0  0  0
    2.5308    3.8458    0.0000 H   0  0  0  0  0  0  0  0  0  0  0  0
    0.6776    3.8458    0.0000 H   0  0  0  0  0  0  0  0  0  0  0  0
    1.6042    4.3808    0.0000 H   0  0  0  0  0  0  0  0  0  0  0  0
    0.0568   -2.1389    0.0000 H   0  0  0  0  0  0  0  0  0  0  0  0
    0.9264   -1.5581    0.0000 H   0  0  0  0  0  0  0  0  0  0  0  0
  1  2  1  0  0  0  0
  2  3  1  0  0  0  0
  3 30  1  0  0  0  0
  3 31  1  0  0  0  0
  4  1  2  0  0  0  0
  5  1  1  0  0  0  0
  6  5  1  0  0  0  0
  6 32  1  0  0  0  0
  7  5  2  0  0  0  0
  7 33  1  0  0  0  0
  8  7  1  0  0  0  0
  8 34  1  0  0  0  0
  9  6  2  0  0  0  0
  9 10  1  0  0  0  0
  9 35  1  0  0  0  0
 10  8  2  0  0  0  0
 10 36  1  0  0  0  0
 12 13  1  0  0  0  0
 12 21  2  0  0  0  0
 13 11  2  0  0  0  0
 14 16  1  0  0  0  0
 15 14  1  0  0  0  0
 16 12  1  0  0  0  0
 16 37  1  0  0  0  0
 16 38  1  0  0  0  0
 17 19  2  0  0  0  0
 18 15  2  0  0  0  0
 19 11  1  0  0  0  0
 20 14  1  0  0  0  0
 20 39  1  0  0  0  0
 21 17  1  0  0  0  0
 21 40  1  0  0  0  0
 22 18  1  0  0  0  0
 22  3  1  0  0  0  0
 23 20  2  0  0  0  0
 24 13  1  0  0  0  0
 24 41  1  0  0  0  0
 24 42  1  0  0  0  0
 25 18  1  0  0  0  0
 25 43  1  0  0  0  0
 25 44  1  0  0  0  0
 26 15  1  0  0  0  0
 26 45  1  0  0  0  0
 26 46  1  0  0  0  0
 26 47  1  0  0  0  0
 27 29  1  0  0  0  0
 27 48  1  0  0  0  0
 28 19  1  0  0  0  0
 28 49  1  0  0  0  0
 28 50  1  0  0  0  0
 28 51  1  0  0  0  0
 29 25  1  0  0  0  0
 29 52  1  0  0  0  0
 29 53  1  0  0  0  0
M  END
>  <DRUGBANK_ID>
DB16535

>  <COMMON_NAME>
Benzoyloxymethylthiamine

>  <CAS_NUMBER>
18481-26-0

$$$$
