922
 OpenBabel10282417072D

 33 34  0  0  1  0  0  0  0  0999 V2000
    9.5092   -2.0130    0.0000 O   0  0  0  0  0  0  0  0  0  0  0  0
    7.3658   -1.6005    0.0000 N   0  0  0  0  0  0  0  0  0  0  0  0
    8.0802   -2.0130    0.0000 N   0  0  0  0  0  0  0  0  0  0  0  0
    4.5079    0.8745    0.0000 N   0  0  0  0  0  0  0  0  0  0  0  0
    3.7934    0.4620    0.0000 N   0  0  0  0  0  0  0  0  0  0  0  0
    3.0790    2.5245    0.0000 N   0  0  0  0  0  0  0  0  0  0  0  0
    1.6500    0.0495    0.0000 N   0  0  0  0  0  0  0  0  0  0  0  0
    8.0802   -0.3630    0.0000 C   0  0  2  0  0  0  0  0  0  0  0  0
    8.7947   -0.7755    0.0000 C   0  0  0  0  0  0  0  0  0  0  0  0
    7.3658   -0.7755    0.0000 C   0  0  0  0  0  0  0  0  0  0  0  0
    8.0802    0.4620    0.0000 C   0  0  0  0  0  0  0  0  0  0  0  0
    6.6513   -0.3630    0.0000 C   0  0  0  0  0  0  0  0  0  0  0  0
    8.7947   -1.6005    0.0000 C   0  0  0  0  0  0  0  0  0  0  0  0
    5.9369   -0.7755    0.0000 C   0  0  0  0  0  0  0  0  0  0  0  0
    6.6513    0.4620    0.0000 C   0  0  0  0  0  0  0  0  0  0  0  0
    5.2223   -0.3630    0.0000 C   0  0  0  0  0  0  0  0  0  0  0  0
    5.9369    0.8745    0.0000 C   0  0  0  0  0  0  0  0  0  0  0  0
    5.2223    0.4620    0.0000 C   0  0  0  0  0  0  0  0  0  0  0  0
    3.0790    0.8745    0.0000 C   0  0  0  0  0  0  0  0  0  0  0  0
    3.0790    1.6995    0.0000 C   0  0  0  0  0  0  0  0  0  0  0  0
    2.3644    0.4620    0.0000 C   0  0  0  0  0  0  0  0  0  0  0  0
    8.0802   -2.9975    0.0000 H   0  0  0  0  0  0  0  0  0  0  0  0
    4.5079    1.8590    0.0000 H   0  0  0  0  0  0  0  0  0  0  0  0
    9.0068    0.1720    0.0000 H   0  0  0  0  0  0  0  0  0  0  0  0
    9.7213   -0.2405    0.0000 H   0  0  0  0  0  0  0  0  0  0  0  0
    9.7213   -1.3105    0.0000 H   0  0  0  0  0  0  0  0  0  0  0  0
    9.0068    0.9970    0.0000 H   0  0  0  0  0  0  0  0  0  0  0  0
    7.1536    0.9970    0.0000 H   0  0  0  0  0  0  0  0  0  0  0  0
    8.0802    1.5320    0.0000 H   0  0  0  0  0  0  0  0  0  0  0  0
    5.9370   -1.8075    0.0000 H   0  0  0  0  0  0  0  0  0  0  0  0
    7.5450    0.9780    0.0000 H   0  0  0  0  0  0  0  0  0  0  0  0
    4.3286   -0.8790    0.0000 H   0  0  0  0  0  0  0  0  0  0  0  0
    5.9370    1.9065    0.0000 H   0  0  0  0  0  0  0  0  0  0  0  0
  1 13  2  0  0  0  0
  2  3  1  0  0  0  0
  2 10  2  0  0  0  0
  3 13  1  0  0  0  0
  3 22  1  0  0  0  0
  4  5  1  0  0  0  0
  4 18  1  0  0  0  0
  4 23  1  0  0  0  0
  5 19  2  0  0  0  0
  6 20  3  0  0  0  0
  7 21  3  0  0  0  0
  8  9  1  0  0  0  0
  8 10  1  0  0  0  0
  8 11  1  0  0  0  0
  8 24  1  1  0  0  0
  9 13  1  0  0  0  0
  9 25  1  0  0  0  0
  9 26  1  0  0  0  0
 10 12  1  0  0  0  0
 11 27  1  0  0  0  0
 11 28  1  0  0  0  0
 11 29  1  0  0  0  0
 12 14  2  0  0  0  0
 12 15  1  0  0  0  0
 14 16  1  0  0  0  0
 14 30  1  0  0  0  0
 15 17  2  0  0  0  0
 15 31  1  0  0  0  0
 16 18  2  0  0  0  0
 16 32  1  0  0  0  0
 17 18  1  0  0  0  0
 17 33  1  0  0  0  0
 19 20  1  0  0  0  0
 19 21  1  0  0  0  0
M  END
>  <DRUGBANK_ID>
DB00922

>  <SECONDARY_ACCESSION_NUMBERS>
APRD01296

>  <COMMON_NAME>
Levosimendan

>  <CAS_NUMBER>
141505-33-1

>  <UNII>
C6T4514L4E

>  <SYNONYMS>
Lévosimendan; Levosimendan; Levosimendán; Levosimendanum

$$$$
