M05
 OpenBabel10282417072D

 45 48  0  0  0  0  0  0  0  0999 V2000
   -3.7176   -5.1349    0.0000 N   0  0  0  0  0  0  0  0  0  0  0  0
   -4.4320   -4.7224    0.0000 C   0  0  0  0  0  0  0  0  0  0  0  0
   -4.2479   -2.8529    0.0000 C   0  0  0  0  0  0  0  0  0  0  0  0
   -3.7176   -3.4849    0.0000 C   0  0  0  0  0  0  0  0  0  0  0  0
   -3.1873   -2.8529    0.0000 N   0  3  0  0  0  0  0  0  0  0  0  0
   -3.0031   -4.7224    0.0000 C   0  0  0  0  0  0  0  0  0  0  0  0
   -5.0603   -2.9962    0.0000 C   0  0  0  0  0  0  0  0  0  0  0  0
   -5.3425   -3.7714    0.0000 C   0  0  0  0  0  0  0  0  0  0  0  0
   -6.1550   -3.9147    0.0000 C   0  0  0  0  0  0  0  0  0  0  0  0
   -6.6853   -3.2827    0.0000 C   0  0  0  0  0  0  0  0  0  0  0  0
   -7.4977   -3.4260    0.0000 Cl  0  0  0  0  0  0  0  0  0  0  0  0
   -6.4031   -2.5075    0.0000 C   0  0  0  0  0  0  0  0  0  0  0  0
   -5.5906   -2.3642    0.0000 C   0  0  0  0  0  0  0  0  0  0  0  0
   -3.7176   -5.9599    0.0000 C   0  0  0  0  0  0  0  0  0  0  0  0
   -3.0031   -6.3724    0.0000 N   0  0  0  0  0  0  0  0  0  0  0  0
   -3.0031   -7.1974    0.0000 C   0  0  0  0  0  0  0  0  0  0  0  0
   -3.7176   -7.6099    0.0000 N   0  0  0  0  0  0  0  0  0  0  0  0
   -4.4320   -7.1974    0.0000 C   0  0  0  0  0  0  0  0  0  0  0  0
   -5.2166   -7.4524    0.0000 N   0  0  0  0  0  0  0  0  0  0  0  0
   -5.7016   -6.7849    0.0000 C   0  0  0  0  0  0  0  0  0  0  0  0
   -5.2166   -6.1175    0.0000 C   0  0  0  0  0  0  0  0  0  0  0  0
   -4.4320   -3.8974    0.0000 C   0  0  0  0  0  0  0  0  0  0  0  0
   -3.0031   -3.8974    0.0000 C   0  0  0  0  0  0  0  0  0  0  0  0
   -4.4320   -6.3724    0.0000 C   0  0  0  0  0  0  0  0  0  0  0  0
   -5.3587   -5.2574    0.0000 H   0  0  0  0  0  0  0  0  0  0  0  0
   -5.3586   -4.1874    0.0000 H   0  0  0  0  0  0  0  0  0  0  0  0
   -3.8820   -1.8474    0.0000 H   0  0  0  0  0  0  0  0  0  0  0  0
   -4.9357   -2.0333    0.0000 H   0  0  0  0  0  0  0  0  0  0  0  0
   -2.1828   -3.0300    0.0000 H   0  0  0  0  0  0  0  0  0  0  0  0
   -3.5362   -1.8944    0.0000 H   0  0  0  0  0  0  0  0  0  0  0  0
   -2.5317   -2.0715    0.0000 H   0  0  0  0  0  0  0  0  0  0  0  0
   -2.0765   -5.2574    0.0000 H   0  0  0  0  0  0  0  0  0  0  0  0
   -2.0765   -4.1874    0.0000 H   0  0  0  0  0  0  0  0  0  0  0  0
   -4.6791   -4.5620    0.0000 H   0  0  0  0  0  0  0  0  0  0  0  0
   -6.5079   -4.8845    0.0000 H   0  0  0  0  0  0  0  0  0  0  0  0
   -7.0665   -1.7169    0.0000 H   0  0  0  0  0  0  0  0  0  0  0  0
   -5.2377   -1.3944    0.0000 H   0  0  0  0  0  0  0  0  0  0  0  0
   -2.1094   -7.7134    0.0000 H   0  0  0  0  0  0  0  0  0  0  0  0
   -5.5208   -8.3887    0.0000 H   0  0  0  0  0  0  0  0  0  0  0  0
   -6.7336   -6.7849    0.0000 H   0  0  0  0  0  0  0  0  0  0  0  0
   -5.5355   -5.1360    0.0000 H   0  0  0  0  0  0  0  0  0  0  0  0
   -5.3587   -3.3624    0.0000 H   0  0  0  0  0  0  0  0  0  0  0  0
   -4.4320   -2.8274    0.0000 H   0  0  0  0  0  0  0  0  0  0  0  0
   -2.0765   -3.3624    0.0000 H   0  0  0  0  0  0  0  0  0  0  0  0
   -2.0765   -4.4324    0.0000 H   0  0  0  0  0  0  0  0  0  0  0  0
  1  2  1  0  0  0  0
  1  6  1  0  0  0  0
  1 14  1  0  0  0  0
  2 22  1  0  0  0  0
  2 25  1  0  0  0  0
  2 26  1  0  0  0  0
  3  4  1  0  0  0  0
  3  7  1  0  0  0  0
  3 27  1  0  0  0  0
  3 28  1  0  0  0  0
  4  5  1  0  0  0  0
  4 22  1  0  0  0  0
  4 23  1  0  0  0  0
  5 29  1  0  0  0  0
  5 30  1  0  0  0  0
  5 31  1  0  0  0  0
  6 23  1  0  0  0  0
  6 32  1  0  0  0  0
  6 33  1  0  0  0  0
  7  8  1  0  0  0  0
  7 13  2  0  0  0  0
  8  9  2  0  0  0  0
  8 34  1  0  0  0  0
  9 10  1  0  0  0  0
  9 35  1  0  0  0  0
 10 11  1  0  0  0  0
 10 12  2  0  0  0  0
 12 13  1  0  0  0  0
 12 36  1  0  0  0  0
 13 37  1  0  0  0  0
 14 15  1  0  0  0  0
 14 24  2  0  0  0  0
 15 16  2  0  0  0  0
 16 17  1  0  0  0  0
 16 38  1  0  0  0  0
 17 18  2  0  0  0  0
 18 19  1  0  0  0  0
 18 24  1  0  0  0  0
 19 20  1  0  0  0  0
 19 39  1  0  0  0  0
 20 21  2  0  0  0  0
 20 40  1  0  0  0  0
 21 24  1  0  0  0  0
 21 41  1  0  0  0  0
 22 42  1  0  0  0  0
 22 43  1  0  0  0  0
 23 44  1  0  0  0  0
 23 45  1  0  0  0  0
M  CHG  1   5   1
M  END
>  <DRUGBANK_ID>
DB08150

>  <COMMON_NAME>
4-(4-chlorobenzyl)-1-(7H-pyrrolo[2,3-d]pyrimidin-4-yl)piperidin-4-aminium

$$$$
