TYP
 OpenBabel10282417072D

 35 37  0  0  0  0  0  0  0  0999 V2000
   -0.0748    0.4300    0.0000 N   0  0  0  0  0  0  0  0  0  0  0  0
   -0.0748   -0.3950    0.0000 C   0  0  2  0  0  0  0  0  0  0  0  0
   -0.7893   -0.8075    0.0000 C   0  0  0  0  0  0  0  0  0  0  0  0
   -0.7893   -1.6325    0.0000 O   0  0  0  0  0  0  0  0  0  0  0  0
    0.6397   -0.8075    0.0000 C   0  0  0  0  0  0  0  0  0  0  0  0
    1.3541   -0.3950    0.0000 C   0  0  0  0  0  0  0  0  0  0  0  0
    1.3541    0.4300    0.0000 C   0  0  0  0  0  0  0  0  0  0  0  0
    2.0686    0.8425    0.0000 C   0  0  0  0  0  0  0  0  0  0  0  0
    2.7831   -0.3950    0.0000 C   0  0  0  0  0  0  0  0  0  0  0  0
    2.0686   -0.8075    0.0000 C   0  0  0  0  0  0  0  0  0  0  0  0
    2.7831    0.4300    0.0000 C   0  0  0  0  0  0  0  0  0  0  0  0
    3.4975    0.8425    0.0000 O   0  0  0  0  0  0  0  0  0  0  0  0
   -1.5038   -0.3950    0.0000 N   0  0  0  0  0  0  0  0  0  0  0  0
   -1.5038    0.4300    0.0000 C   0  0  2  0  0  0  0  0  0  0  0  0
   -0.7893    0.8425    0.0000 C   0  0  0  0  0  0  0  0  0  0  0  0
   -0.7893    1.6675    0.0000 O   0  0  0  0  0  0  0  0  0  0  0  0
   -2.2884    0.6849    0.0000 C   0  0  0  0  0  0  0  0  0  0  0  0
   -2.7733    0.0175    0.0000 C   0  0  0  0  0  0  0  0  0  0  0  0
   -2.2884   -0.6500    0.0000 C   0  0  0  0  0  0  0  0  0  0  0  0
    0.4309   -0.1031    0.0000 H   0  0  0  0  0  0  0  0  0  0  0  0
   -1.5648    1.0107    0.0000 H   0  0  0  0  0  0  0  0  0  0  0  0
    0.7778    0.9223    0.0000 H   0  0  0  0  0  0  0  0  0  0  0  0
    0.6397   -1.8775    0.0000 H   0  0  0  0  0  0  0  0  0  0  0  0
    1.5664   -1.3425    0.0000 H   0  0  0  0  0  0  0  0  0  0  0  0
    0.4604    0.9460    0.0000 H   0  0  0  0  0  0  0  0  0  0  0  0
    2.0686    1.8745    0.0000 H   0  0  0  0  0  0  0  0  0  0  0  0
    3.6768   -0.9110    0.0000 H   0  0  0  0  0  0  0  0  0  0  0  0
    2.0686   -1.8395    0.0000 H   0  0  0  0  0  0  0  0  0  0  0  0
    4.3090    0.3740    0.0000 H   0  0  0  0  0  0  0  0  0  0  0  0
   -2.6191    1.7025    0.0000 H   0  0  0  0  0  0  0  0  0  0  0  0
   -3.3452    0.8523    0.0000 H   0  0  0  0  0  0  0  0  0  0  0  0
   -3.8433    0.0175    0.0000 H   0  0  0  0  0  0  0  0  0  0  0  0
   -3.2591   -0.9359    0.0000 H   0  0  0  0  0  0  0  0  0  0  0  0
   -2.6190   -1.6676    0.0000 H   0  0  0  0  0  0  0  0  0  0  0  0
   -3.3452   -0.8174    0.0000 H   0  0  0  0  0  0  0  0  0  0  0  0
  1  2  1  0  0  0  0
  1 15  1  0  0  0  0
  1 22  1  0  0  0  0
  2  3  1  0  0  0  0
  2  5  1  0  0  0  0
  2 20  1  6  0  0  0
  3  4  2  0  0  0  0
  3 13  1  0  0  0  0
  5  6  1  0  0  0  0
  5 23  1  0  0  0  0
  5 24  1  0  0  0  0
  6  7  2  0  0  0  0
  6 10  1  0  0  0  0
  7  8  1  0  0  0  0
  7 25  1  0  0  0  0
  8 11  2  0  0  0  0
  8 26  1  0  0  0  0
  9 10  2  0  0  0  0
  9 11  1  0  0  0  0
  9 27  1  0  0  0  0
 10 28  1  0  0  0  0
 11 12  1  0  0  0  0
 12 29  1  0  0  0  0
 13 14  1  0  0  0  0
 13 19  1  0  0  0  0
 14 15  1  0  0  0  0
 14 17  1  0  0  0  0
 14 21  1  6  0  0  0
 15 16  2  0  0  0  0
 17 18  1  0  0  0  0
 17 30  1  0  0  0  0
 17 31  1  0  0  0  0
 18 19  1  0  0  0  0
 18 32  1  0  0  0  0
 18 33  1  0  0  0  0
 19 34  1  0  0  0  0
 19 35  1  0  0  0  0
M  END
>  <DRUGBANK_ID>
DB04520

>  <SECONDARY_ACCESSION_NUMBERS>
EXPT03139

>  <COMMON_NAME>
(3s,8ar)-3-(4-Hydroxybenzyl)Hexahydropyrrolo[1,2-a]Pyrazine-1,4-Dione

$$$$
