
 OpenBabel10282417072D

 51 51  0  0  0  0  0  0  0  0999 V2000
    2.5006    0.6187    0.0000 C   0  0  2  0  0  0  0  0  0  0  0  0
    3.2151    1.0312    0.0000 C   0  0  1  0  0  0  0  0  0  0  0  0
    3.9295    0.6187    0.0000 C   0  0  2  0  0  0  0  0  0  0  0  0
    3.9295   -0.2062    0.0000 C   0  0  1  0  0  0  0  0  0  0  0  0
    3.2151   -0.6187    0.0000 C   0  0  1  0  0  0  0  0  0  0  0  0
    3.2151   -1.4437    0.0000 C   0  0  0  0  0  0  0  0  0  0  0  0
    1.0716    0.6187    0.0000 C   0  0  0  0  0  0  0  0  0  0  0  0
    0.3572    1.0312    0.0000 C   0  0  0  0  0  0  0  0  0  0  0  0
   -0.3572    0.6187    0.0000 C   0  0  0  0  0  0  0  0  0  0  0  0
   -1.0717    1.0312    0.0000 C   0  0  0  0  0  0  0  0  0  0  0  0
   -1.7861    0.6187    0.0000 C   0  0  0  0  0  0  0  0  0  0  0  0
   -2.5006    1.0312    0.0000 C   0  0  0  0  0  0  0  0  0  0  0  0
   -3.2151    0.6187    0.0000 C   0  0  0  0  0  0  0  0  0  0  0  0
   -3.9295    1.0312    0.0000 C   0  0  0  0  0  0  0  0  0  0  0  0
   -4.6440    0.6187    0.0000 C   0  0  0  0  0  0  0  0  0  0  0  0
    1.7861    1.0312    0.0000 O   0  0  0  0  0  0  0  0  0  0  0  0
    3.2151    1.8562    0.0000 O   0  0  0  0  0  0  0  0  0  0  0  0
    4.6440    1.0312    0.0000 O   0  0  0  0  0  0  0  0  0  0  0  0
    4.6440   -0.6187    0.0000 O   0  0  0  0  0  0  0  0  0  0  0  0
    2.5006   -0.2062    0.0000 O   0  0  0  0  0  0  0  0  0  0  0  0
    2.5006   -1.8562    0.0000 O   0  0  0  0  0  0  0  0  0  0  0  0
    2.5006    1.6887    0.0000 H   0  0  0  0  0  0  0  0  0  0  0  0
    2.2885    1.5662    0.0000 H   0  0  0  0  0  0  0  0  0  0  0  0
    3.9295    1.6887    0.0000 H   0  0  0  0  0  0  0  0  0  0  0  0
    4.8561    0.3288    0.0000 H   0  0  0  0  0  0  0  0  0  0  0  0
    4.1418   -1.1537    0.0000 H   0  0  0  0  0  0  0  0  0  0  0  0
    4.1417   -1.9787    0.0000 H   0  0  0  0  0  0  0  0  0  0  0  0
    3.2151   -2.5137    0.0000 H   0  0  0  0  0  0  0  0  0  0  0  0
    1.0716   -0.4513    0.0000 H   0  0  0  0  0  0  0  0  0  0  0  0
    1.9982    0.0837    0.0000 H   0  0  0  0  0  0  0  0  0  0  0  0
    0.3572    2.1012    0.0000 H   0  0  0  0  0  0  0  0  0  0  0  0
   -0.5695    1.5662    0.0000 H   0  0  0  0  0  0  0  0  0  0  0  0
   -0.3572   -0.4513    0.0000 H   0  0  0  0  0  0  0  0  0  0  0  0
   -1.2838    0.0837    0.0000 H   0  0  0  0  0  0  0  0  0  0  0  0
   -1.0717    2.1012    0.0000 H   0  0  0  0  0  0  0  0  0  0  0  0
   -1.9984    1.5662    0.0000 H   0  0  0  0  0  0  0  0  0  0  0  0
   -1.7861   -0.4513    0.0000 H   0  0  0  0  0  0  0  0  0  0  0  0
   -2.7127    0.0837    0.0000 H   0  0  0  0  0  0  0  0  0  0  0  0
   -2.5006    2.1012    0.0000 H   0  0  0  0  0  0  0  0  0  0  0  0
   -3.4272    1.5662    0.0000 H   0  0  0  0  0  0  0  0  0  0  0  0
   -3.2151   -0.4513    0.0000 H   0  0  0  0  0  0  0  0  0  0  0  0
   -4.1418    0.0837    0.0000 H   0  0  0  0  0  0  0  0  0  0  0  0
   -3.9295    2.1012    0.0000 H   0  0  0  0  0  0  0  0  0  0  0  0
   -4.8561    1.5662    0.0000 H   0  0  0  0  0  0  0  0  0  0  0  0
   -5.5706    1.1537    0.0000 H   0  0  0  0  0  0  0  0  0  0  0  0
   -4.6440   -0.4513    0.0000 H   0  0  0  0  0  0  0  0  0  0  0  0
   -5.5707    0.0837    0.0000 H   0  0  0  0  0  0  0  0  0  0  0  0
    4.0551    2.3412    0.0000 H   0  0  0  0  0  0  0  0  0  0  0  0
    5.4840    0.5462    0.0000 H   0  0  0  0  0  0  0  0  0  0  0  0
    4.6440   -1.5887    0.0000 H   0  0  0  0  0  0  0  0  0  0  0  0
    1.6606   -1.3712    0.0000 H   0  0  0  0  0  0  0  0  0  0  0  0
  1  2  1  0  0  0  0
  1 16  1  0  0  0  0
  1 20  1  0  0  0  0
  1 22  1  6  0  0  0
  2  3  1  0  0  0  0
  2 17  1  0  0  0  0
  2 23  1  1  0  0  0
  3  4  1  0  0  0  0
  3 18  1  0  0  0  0
  3 24  1  6  0  0  0
  4  5  1  0  0  0  0
  4 19  1  0  0  0  0
  4 25  1  1  0  0  0
  5  6  1  0  0  0  0
  5 20  1  0  0  0  0
  5 26  1  6  0  0  0
  6 21  1  0  0  0  0
  6 27  1  0  0  0  0
  6 28  1  0  0  0  0
  7  8  1  0  0  0  0
  7 16  1  0  0  0  0
  7 29  1  0  0  0  0
  7 30  1  0  0  0  0
  8  9  1  0  0  0  0
  8 31  1  0  0  0  0
  8 32  1  0  0  0  0
  9 10  1  0  0  0  0
  9 33  1  0  0  0  0
  9 34  1  0  0  0  0
 10 11  1  0  0  0  0
 10 35  1  0  0  0  0
 10 36  1  0  0  0  0
 11 12  1  0  0  0  0
 11 37  1  0  0  0  0
 11 38  1  0  0  0  0
 12 13  1  0  0  0  0
 12 39  1  0  0  0  0
 12 40  1  0  0  0  0
 13 14  1  0  0  0  0
 13 41  1  0  0  0  0
 13 42  1  0  0  0  0
 14 15  1  0  0  0  0
 14 43  1  0  0  0  0
 14 44  1  0  0  0  0
 15 45  1  0  0  0  0
 15 46  1  0  0  0  0
 15 47  1  0  0  0  0
 17 48  1  0  0  0  0
 18 49  1  0  0  0  0
 19 50  1  0  0  0  0
 21 51  1  0  0  0  0
M  END
>  <DRUGBANK_ID>
DB02451

>  <SECONDARY_ACCESSION_NUMBERS>
EXPT00730

>  <COMMON_NAME>
B-nonylglucoside

>  <CAS_NUMBER>
69984-73-2

>  <UNII>
Q5TS785PG5

$$$$
