
 OpenBabel10282417072D

 82 86  0  0  0  0  0  0  0  0999 V2000
    0.5741   -0.4816    0.0000 C   0  0  1  0  0  0  0  0  0  0  0  0
   -0.1430   -0.8820    0.0000 C   0  0  1  0  0  0  0  0  0  0  0  0
   -1.5638   -0.8820    0.0000 C   0  0  2  0  0  0  0  0  0  0  0  0
    0.5741    0.3365    0.0000 C   0  0  1  0  0  0  0  0  0  0  0  0
   -0.8511   -0.4816    0.0000 C   0  0  1  0  0  0  0  0  0  0  0  0
   -1.5638   -1.7047    0.0000 C   0  0  2  0  0  0  0  0  0  0  0  0
    1.3350    0.7675    0.0000 C   0  0  1  0  0  0  0  0  0  0  0  0
   -2.2941   -2.1050    0.0000 C   0  0  0  0  0  0  0  0  0  0  0  0
    1.3350    1.5594    0.0000 C   0  0  2  0  0  0  0  0  0  0  0  0
    2.0082    0.3540    0.0000 C   0  0  1  0  0  0  0  0  0  0  0  0
   -0.1430   -1.7047    0.0000 C   0  0  0  0  0  0  0  0  0  0  0  0
    1.3528   -0.8644    0.0000 C   0  0  0  0  0  0  0  0  0  0  0  0
   -0.1430    0.7499    0.0000 C   0  0  0  0  0  0  0  0  0  0  0  0
   -2.2941   -0.4816    0.0000 C   0  0  0  0  0  0  0  0  0  0  0  0
   -0.8511    0.3365    0.0000 C   0  0  0  0  0  0  0  0  0  0  0  0
   -0.8511   -2.1050    0.0000 C   0  0  0  0  0  0  0  0  0  0  0  0
    0.6576    2.0917    0.0000 C   0  0  0  0  0  0  0  0  0  0  0  0
    2.2809    1.7706    0.0000 C   0  0  0  0  0  0  0  0  0  0  0  0
   -3.0154   -1.7047    0.0000 C   0  0  2  0  0  0  0  0  0  0  0  0
    2.0082   -0.4685    0.0000 C   0  0  0  0  0  0  0  0  0  0  0  0
    2.7031    0.9215    0.0000 C   0  0  0  0  0  0  0  0  0  0  0  0
   -3.0154   -0.8820    0.0000 C   0  0  0  0  0  0  0  0  0  0  0  0
    0.6576    2.9099    0.0000 C   0  0  0  0  0  0  0  0  0  0  0  0
    0.5916   -1.5638    0.0000 C   0  0  0  0  0  0  0  0  0  0  0  0
   -0.1606   -0.0022    0.0000 C   0  0  0  0  0  0  0  0  0  0  0  0
   -1.5594    0.3540    0.0000 C   0  0  0  0  0  0  0  0  0  0  0  0
   -1.9861   -2.9099    0.0000 C   0  0  0  0  0  0  0  0  0  0  0  0
   -3.0595   -2.8571    0.0000 C   0  0  0  0  0  0  0  0  0  0  0  0
   -3.7986   -2.0478    0.0000 O   0  0  0  0  0  0  0  0  0  0  0  0
    2.9364   -0.1121    0.0000 C   0  0  0  0  0  0  0  0  0  0  0  0
    3.7986    0.3540    0.0000 O   0  0  0  0  0  0  0  0  0  0  0  0
   -0.1430    1.7442    0.0000 C   0  0  0  0  0  0  0  0  0  0  0  0
    1.3747   -0.0946    0.0000 H   0  0  0  0  0  0  0  0  0  0  0  0
    0.5652    1.3263    0.0000 H   0  0  0  0  0  0  0  0  0  0  0  0
   -0.8424   -1.2648    0.0000 H   0  0  0  0  0  0  0  0  0  0  0  0
   -1.5198   -2.4833    0.0000 H   0  0  0  0  0  0  0  0  0  0  0  0
    0.3726    1.0917    0.0000 H   0  0  0  0  0  0  0  0  0  0  0  0
    0.7812   -2.2439    0.0000 H   0  0  0  0  0  0  0  0  0  0  0  0
   -0.1503   -2.7747    0.0000 H   0  0  0  0  0  0  0  0  0  0  0  0
    1.3991   -1.9334    0.0000 H   0  0  0  0  0  0  0  0  0  0  0  0
    2.2959   -1.3699    0.0000 H   0  0  0  0  0  0  0  0  0  0  0  0
   -0.1459    1.8199    0.0000 H   0  0  0  0  0  0  0  0  0  0  0  0
   -1.0717    1.2814    0.0000 H   0  0  0  0  0  0  0  0  0  0  0  0
   -2.2969    0.5884    0.0000 H   0  0  0  0  0  0  0  0  0  0  0  0
   -3.2169    0.0600    0.0000 H   0  0  0  0  0  0  0  0  0  0  0  0
   -1.7790    0.8693    0.0000 H   0  0  0  0  0  0  0  0  0  0  0  0
   -1.7771   -0.1996    0.0000 H   0  0  0  0  0  0  0  0  0  0  0  0
   -0.8496   -3.1750    0.0000 H   0  0  0  0  0  0  0  0  0  0  0  0
    0.0735   -2.6436    0.0000 H   0  0  0  0  0  0  0  0  0  0  0  0
    2.7413    2.7365    0.0000 H   0  0  0  0  0  0  0  0  0  0  0  0
    3.3509    1.7795    0.0000 H   0  0  0  0  0  0  0  0  0  0  0  0
   -3.0655   -2.7735    0.0000 H   0  0  0  0  0  0  0  0  0  0  0  0
    2.9401   -0.9943    0.0000 H   0  0  0  0  0  0  0  0  0  0  0  0
    2.0241   -1.5384    0.0000 H   0  0  0  0  0  0  0  0  0  0  0  0
    3.7491    0.6961    0.0000 H   0  0  0  0  0  0  0  0  0  0  0  0
    3.3598    1.7663    0.0000 H   0  0  0  0  0  0  0  0  0  0  0  0
   -3.9375   -0.3392    0.0000 H   0  0  0  0  0  0  0  0  0  0  0  0
   -3.9443   -1.4131    0.0000 H   0  0  0  0  0  0  0  0  0  0  0  0
    1.5513    3.4259    0.0000 H   0  0  0  0  0  0  0  0  0  0  0  0
   -0.2361    3.4259    0.0000 H   0  0  0  0  0  0  0  0  0  0  0  0
   -0.3263   -2.1137    0.0000 H   0  0  0  0  0  0  0  0  0  0  0  0
    1.5268   -2.0837    0.0000 H   0  0  0  0  0  0  0  0  0  0  0  0
    0.6089   -2.6337    0.0000 H   0  0  0  0  0  0  0  0  0  0  0  0
    0.7552    0.5512    0.0000 H   0  0  0  0  0  0  0  0  0  0  0  0
   -1.0978    0.5142    0.0000 H   0  0  0  0  0  0  0  0  0  0  0  0
   -0.1820    1.0676    0.0000 H   0  0  0  0  0  0  0  0  0  0  0  0
   -0.6309    0.8857    0.0000 H   0  0  0  0  0  0  0  0  0  0  0  0
   -2.4841    0.8923    0.0000 H   0  0  0  0  0  0  0  0  0  0  0  0
   -1.5556    1.4240    0.0000 H   0  0  0  0  0  0  0  0  0  0  0  0
   -2.6603   -3.7407    0.0000 H   0  0  0  0  0  0  0  0  0  0  0  0
   -0.9295   -3.0784    0.0000 H   0  0  0  0  0  0  0  0  0  0  0  0
   -1.6037   -3.9092    0.0000 H   0  0  0  0  0  0  0  0  0  0  0  0
   -4.0906   -2.5711    0.0000 H   0  0  0  0  0  0  0  0  0  0  0  0
   -2.7916   -3.8930    0.0000 H   0  0  0  0  0  0  0  0  0  0  0  0
   -3.8227   -3.6070    0.0000 H   0  0  0  0  0  0  0  0  0  0  0  0
   -4.5799   -1.4730    0.0000 H   0  0  0  0  0  0  0  0  0  0  0  0
    2.9526   -1.1820    0.0000 H   0  0  0  0  0  0  0  0  0  0  0  0
    3.8596   -0.6531    0.0000 H   0  0  0  0  0  0  0  0  0  0  0  0
    4.6247   -0.1543    0.0000 H   0  0  0  0  0  0  0  0  0  0  0  0
   -1.0027    2.3812    0.0000 H   0  0  0  0  0  0  0  0  0  0  0  0
   -0.2648    0.6812    0.0000 H   0  0  0  0  0  0  0  0  0  0  0  0
   -1.1245    1.3182    0.0000 H   0  0  0  0  0  0  0  0  0  0  0  0
  1 24  1  6  0  0  0
  2  1  1  0  0  0  0
  2 25  1  1  0  0  0
  3  5  1  0  0  0  0
  3 26  1  1  0  0  0
  3  6  1  0  0  0  0
  4  1  1  0  0  0  0
  4 34  1  1  0  0  0
  5  2  1  0  0  0  0
  5 35  1  6  0  0  0
  5 15  1  0  0  0  0
  6 16  1  0  0  0  0
  6 36  1  6  0  0  0
  7  4  1  0  0  0  0
  7 33  1  6  0  0  0
  7 10  1  0  0  0  0
  8  6  1  0  0  0  0
  9  7  1  0  0  0  0
  9 17  1  0  0  0  0
  9 37  1  1  0  0  0
 10 20  1  0  0  0  0
 10 30  1  1  0  0  0
 11  2  1  0  0  0  0
 11 38  1  0  0  0  0
 11 39  1  0  0  0  0
 12  1  1  0  0  0  0
 12 40  1  0  0  0  0
 12 41  1  0  0  0  0
 13  4  1  0  0  0  0
 13 42  1  0  0  0  0
 13 43  1  0  0  0  0
 14  3  1  0  0  0  0
 14 44  1  0  0  0  0
 14 45  1  0  0  0  0
 15 13  1  0  0  0  0
 15 46  1  0  0  0  0
 15 47  1  0  0  0  0
 16 11  1  0  0  0  0
 16 48  1  0  0  0  0
 16 49  1  0  0  0  0
 18  9  1  0  0  0  0
 18 50  1  0  0  0  0
 18 51  1  0  0  0  0
 19  8  1  0  0  0  0
 19 29  1  0  0  0  0
 19 52  1  6  0  0  0
 20 12  1  0  0  0  0
 20 53  1  0  0  0  0
 20 54  1  0  0  0  0
 21 10  1  0  0  0  0
 21 18  1  0  0  0  0
 21 55  1  0  0  0  0
 21 56  1  0  0  0  0
 22 14  1  0  0  0  0
 22 19  1  0  0  0  0
 22 57  1  0  0  0  0
 22 58  1  0  0  0  0
 23 17  2  0  0  0  0
 23 59  1  0  0  0  0
 23 60  1  0  0  0  0
 24 61  1  0  0  0  0
 24 62  1  0  0  0  0
 24 63  1  0  0  0  0
 25 64  1  0  0  0  0
 25 65  1  0  0  0  0
 25 66  1  0  0  0  0
 26 67  1  0  0  0  0
 26 68  1  0  0  0  0
 26 69  1  0  0  0  0
 27  8  1  0  0  0  0
 27 70  1  0  0  0  0
 27 71  1  0  0  0  0
 27 72  1  0  0  0  0
 28  8  1  0  0  0  0
 28 73  1  0  0  0  0
 28 74  1  0  0  0  0
 28 75  1  0  0  0  0
 29 76  1  0  0  0  0
 30 77  1  0  0  0  0
 30 78  1  0  0  0  0
 31 30  1  0  0  0  0
 31 79  1  0  0  0  0
 32 17  1  0  0  0  0
 32 80  1  0  0  0  0
 32 81  1  0  0  0  0
 32 82  1  0  0  0  0
M  END
>  <DRUGBANK_ID>
DB16890

>  <COMMON_NAME>
Betulin

>  <CAS_NUMBER>
473-98-3

>  <UNII>
6W70HN7X7O

>  <SYNONYMS>
Betuline; Betulinic alcohol; Betulinol

$$$$
