
 OpenBabel10282417072D

 68 72  0  0  0  0  0  0  0  0999 V2000
   -2.7081    1.8444    0.0000 C   0  0  0  0  0  0  0  0  0  0  0  0
   -2.7093    1.0171    0.0000 C   0  0  0  0  0  0  0  0  0  0  0  0
   -1.9944    0.6042    0.0000 C   0  0  0  0  0  0  0  0  0  0  0  0
   -1.9963    2.2570    0.0000 C   0  0  0  0  0  0  0  0  0  0  0  0
   -1.2811    1.8480    0.0000 C   0  0  0  0  0  0  0  0  0  0  0  0
   -1.2762    1.0171    0.0000 C   0  0  0  0  0  0  0  0  0  0  0  0
   -0.4843    0.7650    0.0000 N   0  0  0  0  0  0  0  0  0  0  0  0
    0.0001    1.4401    0.0000 C   0  0  2  0  0  0  0  0  0  0  0  0
   -0.4922    2.1093    0.0000 C   0  0  2  0  0  0  0  0  0  0  0  0
   -0.9110    2.8276    0.0000 O   0  0  0  0  0  0  0  0  0  0  0  0
    0.2179    2.5276    0.0000 C   0  0  0  0  0  0  0  0  0  0  0  0
    0.9348    2.1187    0.0000 C   0  0  0  0  0  0  0  0  0  0  0  0
    1.6446    2.5362    0.0000 C   0  0  0  0  0  0  0  0  0  0  0  0
    1.6379    3.3613    0.0000 C   0  0  0  0  0  0  0  0  0  0  0  0
    0.9156    3.7671    0.0000 C   0  0  0  0  0  0  0  0  0  0  0  0
    0.2088    3.3472    0.0000 C   0  0  0  0  0  0  0  0  0  0  0  0
    0.8250    1.4450    0.0000 C   0  0  0  0  0  0  0  0  0  0  0  0
    1.2416    0.7329    0.0000 N   0  0  0  0  0  0  0  0  0  0  0  0
    1.5344    1.8652    0.0000 O   0  0  0  0  0  0  0  0  0  0  0  0
    0.9151   -0.0208    0.0000 C   0  0  0  0  0  0  0  0  0  0  0  0
    1.5313   -0.5692    0.0000 C   0  0  0  0  0  0  0  0  0  0  0  0
    2.2434   -0.1525    0.0000 C   0  0  0  0  0  0  0  0  0  0  0  0
    2.0669    0.6532    0.0000 C   0  0  1  0  0  0  0  0  0  0  0  0
    2.6145    1.2703    0.0000 C   0  0  0  0  0  0  0  0  0  0  0  0
    3.4226    1.1046    0.0000 N   0  0  0  0  0  0  0  0  0  0  0  0
    2.3539    2.0529    0.0000 O   0  0  0  0  0  0  0  0  0  0  0  0
   -0.5103    3.7512    0.0000 Cl  0  0  0  0  0  0  0  0  0  0  0  0
   -3.4226    2.2566    0.0000 Cl  0  0  0  0  0  0  0  0  0  0  0  0
   -0.4902   -0.0594    0.0000 S   0  0  0  0  0  0  0  0  0  0  0  0
   -0.4944   -0.8844    0.0000 C   0  0  0  0  0  0  0  0  0  0  0  0
   -1.3151   -0.0545    0.0000 O   0  0  0  0  0  0  0  0  0  0  0  0
    0.3346   -0.0642    0.0000 O   0  0  0  0  0  0  0  0  0  0  0  0
   -1.2131   -1.2913    0.0000 C   0  0  0  0  0  0  0  0  0  0  0  0
   -1.2176   -2.1155    0.0000 C   0  0  0  0  0  0  0  0  0  0  0  0
   -0.5049   -2.5324    0.0000 C   0  0  0  0  0  0  0  0  0  0  0  0
    0.2139   -2.1192    0.0000 C   0  0  0  0  0  0  0  0  0  0  0  0
    0.2149   -1.2964    0.0000 C   0  0  0  0  0  0  0  0  0  0  0  0
    0.9277   -2.5327    0.0000 O   0  0  0  0  0  0  0  0  0  0  0  0
    0.9264   -3.3576    0.0000 C   0  0  0  0  0  0  0  0  0  0  0  0
   -0.5079   -3.3573    0.0000 O   0  0  0  0  0  0  0  0  0  0  0  0
   -1.2239   -3.7671    0.0000 C   0  0  0  0  0  0  0  0  0  0  0  0
   -3.6035    0.5018    0.0000 H   0  0  0  0  0  0  0  0  0  0  0  0
   -1.9954   -0.4278    0.0000 H   0  0  0  0  0  0  0  0  0  0  0  0
   -1.9993    3.2890    0.0000 H   0  0  0  0  0  0  0  0  0  0  0  0
    0.4915    0.4896    0.0000 H   0  0  0  0  0  0  0  0  0  0  0  0
   -0.4296    3.6697    0.0000 H   0  0  0  0  0  0  0  0  0  0  0  0
    0.9417    1.0867    0.0000 H   0  0  0  0  0  0  0  0  0  0  0  0
    2.5425    2.0275    0.0000 H   0  0  0  0  0  0  0  0  0  0  0  0
    2.5265    3.8861    0.0000 H   0  0  0  0  0  0  0  0  0  0  0  0
    0.9031    4.7990    0.0000 H   0  0  0  0  0  0  0  0  0  0  0  0
   -0.1297   -0.2516    0.0000 H   0  0  0  0  0  0  0  0  0  0  0  0
    0.6453   -1.0562    0.0000 H   0  0  0  0  0  0  0  0  0  0  0  0
    1.4256   -1.6340    0.0000 H   0  0  0  0  0  0  0  0  0  0  0  0
    2.4321   -1.1467    0.0000 H   0  0  0  0  0  0  0  0  0  0  0  0
    3.2235   -0.5818    0.0000 H   0  0  0  0  0  0  0  0  0  0  0  0
    3.0708    0.5260    0.0000 H   0  0  0  0  0  0  0  0  0  0  0  0
    3.1023    0.3832    0.0000 H   0  0  0  0  0  0  0  0  0  0  0  0
    3.7336    0.1705    0.0000 H   0  0  0  0  0  0  0  0  0  0  0  0
    4.0761    1.8409    0.0000 H   0  0  0  0  0  0  0  0  0  0  0  0
   -2.1032   -0.7691    0.0000 H   0  0  0  0  0  0  0  0  0  0  0  0
   -2.1142   -2.6265    0.0000 H   0  0  0  0  0  0  0  0  0  0  0  0
    1.1096   -0.7821    0.0000 H   0  0  0  0  0  0  0  0  0  0  0  0
   -0.0011   -3.8911    0.0000 H   0  0  0  0  0  0  0  0  0  0  0  0
    1.8522   -3.8941    0.0000 H   0  0  0  0  0  0  0  0  0  0  0  0
    0.9247   -4.4276    0.0000 H   0  0  0  0  0  0  0  0  0  0  0  0
   -2.1485   -3.2286    0.0000 H   0  0  0  0  0  0  0  0  0  0  0  0
   -1.2279   -4.8371    0.0000 H   0  0  0  0  0  0  0  0  0  0  0  0
   -2.1526   -4.2986    0.0000 H   0  0  0  0  0  0  0  0  0  0  0  0
  1 28  1  0  0  0  0
  1  2  2  0  0  0  0
  2  3  1  0  0  0  0
  2 42  1  0  0  0  0
  3  6  2  0  0  0  0
  3 43  1  0  0  0  0
  4  1  1  0  0  0  0
  4 44  1  0  0  0  0
  5  6  1  0  0  0  0
  5  4  2  0  0  0  0
  6  7  1  0  0  0  0
  7 29  1  0  0  0  0
  7  8  1  0  0  0  0
  8 17  1  0  0  0  0
  8  9  1  0  0  0  0
  8 45  1  1  0  0  0
  9  5  1  0  0  0  0
  9 10  1  1  0  0  0
  9 11  1  0  0  0  0
 10 46  1  0  0  0  0
 11 12  2  0  0  0  0
 12 13  1  0  0  0  0
 12 47  1  0  0  0  0
 13 14  2  0  0  0  0
 13 48  1  0  0  0  0
 14 15  1  0  0  0  0
 14 49  1  0  0  0  0
 15 16  2  0  0  0  0
 15 50  1  0  0  0  0
 16 27  1  0  0  0  0
 16 11  1  0  0  0  0
 17 18  1  0  0  0  0
 17 19  2  0  0  0  0
 18 20  1  0  0  0  0
 20 21  1  0  0  0  0
 20 51  1  0  0  0  0
 20 52  1  0  0  0  0
 21 22  1  0  0  0  0
 21 53  1  0  0  0  0
 21 54  1  0  0  0  0
 22 23  1  0  0  0  0
 22 55  1  0  0  0  0
 22 56  1  0  0  0  0
 23 18  1  0  0  0  0
 23 24  1  0  0  0  0
 23 57  1  1  0  0  0
 24 25  1  0  0  0  0
 24 26  2  0  0  0  0
 25 58  1  0  0  0  0
 25 59  1  0  0  0  0
 29 30  1  0  0  0  0
 29 31  2  0  0  0  0
 29 32  2  0  0  0  0
 30 33  2  0  0  0  0
 33 34  1  0  0  0  0
 33 60  1  0  0  0  0
 34 35  2  0  0  0  0
 34 61  1  0  0  0  0
 35 36  1  0  0  0  0
 35 40  1  0  0  0  0
 36 37  2  0  0  0  0
 36 38  1  0  0  0  0
 37 30  1  0  0  0  0
 37 62  1  0  0  0  0
 38 39  1  0  0  0  0
 39 63  1  0  0  0  0
 39 64  1  0  0  0  0
 39 65  1  0  0  0  0
 40 41  1  0  0  0  0
 41 66  1  0  0  0  0
 41 67  1  0  0  0  0
 41 68  1  0  0  0  0
M  END
>  <DRUGBANK_ID>
DB13929

>  <COMMON_NAME>
Relcovaptan

>  <CAS_NUMBER>
150375-75-0

>  <UNII>
C1GL8G6G0O

>  <SYNONYMS>
Relcovaptan

$$$$
