
 OpenBabel10282417072D

 32 33  0  0  0  0  0  0  0  0999 V2000
   -1.4566   -1.3796    0.0000 O   0  0  0  0  0  0  0  0  0  0  0  0
   -2.8856   -0.5546    0.0000 O   0  0  0  0  0  0  0  0  0  0  0  0
    1.4146   -1.4081    0.0000 O   0  0  0  0  0  0  0  0  0  0  0  0
   -0.0277   -0.5546    0.0000 N   0  0  0  0  0  0  0  0  0  0  0  0
   -0.0277    1.0953    0.0000 N   0  0  0  0  0  0  0  0  0  0  0  0
    1.4242    1.1239    0.0000 N   0  0  0  0  0  0  0  0  0  0  0  0
    2.1717   -0.1593    0.0000 N   0  0  0  0  0  0  0  0  0  0  0  0
    2.8846    1.1152    0.0000 N   0  0  0  0  0  0  0  0  0  0  0  0
   -0.7422   -0.1421    0.0000 C   0  0  1  0  0  0  0  0  0  0  0  0
   -1.4566   -0.5546    0.0000 C   0  0  1  0  0  0  0  0  0  0  0  0
   -0.7422    0.6828    0.0000 C   0  0  0  0  0  0  0  0  0  0  0  0
   -2.1711   -0.1421    0.0000 C   0  0  1  0  0  0  0  0  0  0  0  0
    0.6867   -0.1421    0.0000 C   0  0  0  0  0  0  0  0  0  0  0  0
    0.6867    0.6828    0.0000 C   0  0  0  0  0  0  0  0  0  0  0  0
   -2.1711    0.6828    0.0000 C   0  0  0  0  0  0  0  0  0  0  0  0
    1.4242   -0.5832    0.0000 C   0  0  0  0  0  0  0  0  0  0  0  0
    2.1717    0.7000    0.0000 C   0  0  0  0  0  0  0  0  0  0  0  0
   -0.0277    0.2703    0.0000 H   0  0  0  0  0  0  0  0  0  0  0  0
   -2.2966   -1.8646    0.0000 H   0  0  0  0  0  0  0  0  0  0  0  0
   -3.7256   -0.0696    0.0000 H   0  0  0  0  0  0  0  0  0  0  0  0
   -0.0277   -1.5391    0.0000 H   0  0  0  0  0  0  0  0  0  0  0  0
   -0.0277    2.0798    0.0000 H   0  0  0  0  0  0  0  0  0  0  0  0
    1.4128    2.1083    0.0000 H   0  0  0  0  0  0  0  0  0  0  0  0
    3.7391    0.6262    0.0000 H   0  0  0  0  0  0  0  0  0  0  0  0
    2.8809    2.0997    0.0000 H   0  0  0  0  0  0  0  0  0  0  0  0
   -0.5299   -1.0896    0.0000 H   0  0  0  0  0  0  0  0  0  0  0  0
   -1.6688    1.2178    0.0000 H   0  0  0  0  0  0  0  0  0  0  0  0
   -1.6688    0.1478    0.0000 H   0  0  0  0  0  0  0  0  0  0  0  0
   -2.1711   -1.2121    0.0000 H   0  0  0  0  0  0  0  0  0  0  0  0
   -1.2445    1.2178    0.0000 H   0  0  0  0  0  0  0  0  0  0  0  0
   -3.0977    1.2178    0.0000 H   0  0  0  0  0  0  0  0  0  0  0  0
   -2.1711    1.7528    0.0000 H   0  0  0  0  0  0  0  0  0  0  0  0
  1 19  1  0  0  0  0
  2 20  1  0  0  0  0
  3 16  2  0  0  0  0
  4  9  1  0  0  0  0
  4 13  1  0  0  0  0
  4 21  1  0  0  0  0
  5 11  1  0  0  0  0
  5 14  1  0  0  0  0
  5 22  1  0  0  0  0
  6 14  1  0  0  0  0
  6 17  1  0  0  0  0
  6 23  1  0  0  0  0
  7 16  1  0  0  0  0
  7 17  2  0  0  0  0
  8 17  1  0  0  0  0
  8 24  1  0  0  0  0
  8 25  1  0  0  0  0
  9 10  1  0  0  0  0
  9 11  1  0  0  0  0
  9 18  1  6  0  0  0
 10  1  1  0  0  0  0
 10 12  1  0  0  0  0
 10 26  1  1  0  0  0
 11 27  1  0  0  0  0
 11 28  1  0  0  0  0
 12  2  1  0  0  0  0
 12 15  1  0  0  0  0
 12 29  1  1  0  0  0
 13 14  2  0  0  0  0
 13 16  1  0  0  0  0
 15 30  1  0  0  0  0
 15 31  1  0  0  0  0
 15 32  1  0  0  0  0
M  END
>  <DRUGBANK_ID>
DB03918

>  <SECONDARY_ACCESSION_NUMBERS>
EXPT00702

>  <COMMON_NAME>
6S-5,6,7,8-Tetrahydrobiopterin

$$$$
