
 OpenBabel10282417072D

 44 47  0  0  1  0  0  0  0  0999 V2000
    0.6603   -0.7352    0.0000 N   0  0  3  0  0  0  0  0  0  0  0  0
    0.1821   -0.0007    0.0000 C   0  0  2  0  0  0  0  0  0  0  0  0
    0.7054    1.4523    0.0000 C   0  0  0  0  0  0  0  0  0  0  0  0
    0.7487    0.6284    0.0000 C   0  0  1  0  0  0  0  0  0  0  0  0
   -0.6949   -0.0466    0.0000 C   0  0  0  0  0  0  0  0  0  0  0  0
    0.2615   -1.5155    0.0000 C   0  0  0  0  0  0  0  0  0  0  0  0
   -0.0209    1.8406    0.0000 C   0  0  0  0  0  0  0  0  0  0  0  0
   -1.0937   -0.8271    0.0000 C   0  0  1  0  0  0  0  0  0  0  0  0
   -0.6155   -1.5615    0.0000 C   0  0  1  0  0  0  0  0  0  0  0  0
   -0.0847   -0.5876    0.0000 C   0  0  0  0  0  0  0  0  0  0  0  0
    0.6737    3.0762    0.0000 N   0  0  0  0  0  0  0  0  0  0  0  0
   -0.0368    2.6526    0.0000 C   0  0  0  0  0  0  0  0  0  0  0  0
   -1.0142   -2.3419    0.0000 C   0  0  0  0  0  0  0  0  0  0  0  0
   -0.3928   -1.0656    0.0000 C   0  0  0  0  0  0  0  0  0  0  0  0
   -0.5361   -3.0762    0.0000 C   0  0  0  0  0  0  0  0  0  0  0  0
    1.4743    0.2579    0.0000 O   0  0  0  0  0  0  0  0  0  0  0  0
    1.3963    2.6788    0.0000 C   0  0  0  0  0  0  0  0  0  0  0  0
    1.4123    1.8625    0.0000 C   0  0  0  0  0  0  0  0  0  0  0  0
   -0.7361    1.4167    0.0000 C   0  0  0  0  0  0  0  0  0  0  0  0
   -0.7681    3.0452    0.0000 C   0  0  0  0  0  0  0  0  0  0  0  0
   -1.4581    1.8053    0.0000 C   0  0  0  0  0  0  0  0  0  0  0  0
   -1.4743    2.6217    0.0000 C   0  0  0  0  0  0  0  0  0  0  0  0
   -0.2959    0.7336    0.0000 H   0  0  0  0  0  0  0  0  0  0  0  0
    1.6463    1.2108    0.0000 H   0  0  0  0  0  0  0  0  0  0  0  0
   -1.2771    0.8511    0.0000 H   0  0  0  0  0  0  0  0  0  0  0  0
   -1.7635   -0.1017    0.0000 H   0  0  0  0  0  0  0  0  0  0  0  0
    0.8437   -2.4132    0.0000 H   0  0  0  0  0  0  0  0  0  0  0  0
   -0.2245   -2.4687    0.0000 H   0  0  0  0  0  0  0  0  0  0  0  0
   -0.2489   -1.4838    0.0000 H   0  0  0  0  0  0  0  0  0  0  0  0
   -0.0332   -2.4592    0.0000 H   0  0  0  0  0  0  0  0  0  0  0  0
   -0.5027    0.3974    0.0000 H   0  0  0  0  0  0  0  0  0  0  0  0
   -1.1508   -0.4961    0.0000 H   0  0  0  0  0  0  0  0  0  0  0  0
   -2.0448   -2.3960    0.0000 H   0  0  0  0  0  0  0  0  0  0  0  0
   -0.0409   -2.0761    0.0000 H   0  0  0  0  0  0  0  0  0  0  0  0
    0.6697   -1.1923    0.0000 H   0  0  0  0  0  0  0  0  0  0  0  0
   -1.0035   -3.9963    0.0000 H   0  0  0  0  0  0  0  0  0  0  0  0
    0.4944   -3.0210    0.0000 H   0  0  0  0  0  0  0  0  0  0  0  0
    1.5242   -0.7108    0.0000 H   0  0  0  0  0  0  0  0  0  0  0  0
    2.2794    3.2127    0.0000 H   0  0  0  0  0  0  0  0  0  0  0  0
    2.3116    1.3563    0.0000 H   0  0  0  0  0  0  0  0  0  0  0  0
   -0.7148    0.3849    0.0000 H   0  0  0  0  0  0  0  0  0  0  0  0
   -0.7926    4.0769    0.0000 H   0  0  0  0  0  0  0  0  0  0  0  0
   -2.3387    1.2673    0.0000 H   0  0  0  0  0  0  0  0  0  0  0  0
   -2.3773    3.1213    0.0000 H   0  0  0  0  0  0  0  0  0  0  0  0
  1 10  1  0  0  0  0
  2  1  1  0  0  0  0
  2 23  1  6  0  0  0
  3  4  1  0  0  0  0
  4  2  1  0  0  0  0
  4 16  1  0  0  0  0
  4 24  1  6  0  0  0
  5  2  1  0  0  0  0
  5  8  1  0  0  0  0
  5 25  1  0  0  0  0
  5 26  1  0  0  0  0
  6  1  1  0  0  0  0
  6 27  1  0  0  0  0
  6 28  1  0  0  0  0
  7  3  2  0  0  0  0
  8 14  1  0  0  0  0
  8 29  1  1  0  0  0
  9  6  1  0  0  0  0
  9 13  1  0  0  0  0
  9  8  1  0  0  0  0
  9 30  1  1  0  0  0
 10 31  1  0  0  0  0
 10 32  1  0  0  0  0
 11 17  1  0  0  0  0
 12  7  1  0  0  0  0
 12 11  2  0  0  0  0
 13 33  1  0  0  0  0
 14 10  1  0  0  0  0
 14 34  1  0  0  0  0
 14 35  1  0  0  0  0
 15 13  2  0  0  0  0
 15 36  1  0  0  0  0
 15 37  1  0  0  0  0
 16 38  1  0  0  0  0
 17 18  2  0  0  0  0
 17 39  1  0  0  0  0
 18  3  1  0  0  0  0
 18 40  1  0  0  0  0
 19  7  1  0  0  0  0
 19 41  1  0  0  0  0
 20 12  1  0  0  0  0
 20 22  2  0  0  0  0
 20 42  1  0  0  0  0
 21 19  2  0  0  0  0
 21 43  1  0  0  0  0
 22 21  1  0  0  0  0
 22 44  1  0  0  0  0
M  END
>  <DRUGBANK_ID>
DB16831

>  <COMMON_NAME>
Cinchonidine

>  <CAS_NUMBER>
485-71-2

>  <UNII>
1U622LRA8Z

>  <SYNONYMS>
Alpha-quinidine; Cinchovatine; Quinine bisulfate impurity B; Quinine hydrochloride impurity B; Quinine sulfate impurity B

$$$$
