LIY
 OpenBabel10282417072D

 62 65  0  0  0  0  0  0  0  0999 V2000
   -3.5227    2.0349    0.0000 N   0  0  0  0  0  0  0  0  0  0  0  0
   -2.8082    3.2724    0.0000 N   0  0  0  0  0  0  0  0  0  0  0  0
   -2.0937    2.0349    0.0000 C   0  0  0  0  0  0  0  0  0  0  0  0
   -1.3793    0.7974    0.0000 C   0  0  0  0  0  0  0  0  0  0  0  0
   -1.3793    3.2724    0.0000 C   0  0  0  0  0  0  0  0  0  0  0  0
   -0.6648    3.6849    0.0000 C   0  0  0  0  0  0  0  0  0  0  0  0
    0.0497    2.4474    0.0000 C   0  0  0  0  0  0  0  0  0  0  0  0
    0.7641    3.6849    0.0000 C   0  0  0  0  0  0  0  0  0  0  0  0
    1.4786    2.4474    0.0000 C   0  0  2  0  0  0  0  0  0  0  0  0
    1.4786    0.7974    0.0000 C   0  0  0  0  0  0  0  0  0  0  0  0
   -1.3793   -0.0276    0.0000 C   0  0  0  0  0  0  0  0  0  0  0  0
    2.1931    2.0349    0.0000 C   0  0  0  0  0  0  0  0  0  0  0  0
    2.1931    1.2099    0.0000 C   0  0  0  0  0  0  0  0  0  0  0  0
    3.6220    1.2099    0.0000 C   0  0  0  0  0  0  0  0  0  0  0  0
    2.9076    2.4474    0.0000 C   0  0  0  0  0  0  0  0  0  0  0  0
   -2.8082    2.4474    0.0000 C   0  0  0  0  0  0  0  0  0  0  0  0
   -2.0937    1.2099    0.0000 C   0  0  0  0  0  0  0  0  0  0  0  0
   -2.8082    0.7974    0.0000 N   0  0  0  0  0  0  0  0  0  0  0  0
   -3.5227    1.2099    0.0000 C   0  0  0  0  0  0  0  0  0  0  0  0
   -4.2372    0.7974    0.0000 N   0  0  0  0  0  0  0  0  0  0  0  0
   -1.3793    2.4474    0.0000 C   0  0  0  0  0  0  0  0  0  0  0  0
   -0.6648    2.0349    0.0000 C   0  0  0  0  0  0  0  0  0  0  0  0
    0.0497    3.2724    0.0000 C   0  0  0  0  0  0  0  0  0  0  0  0
    1.4786    3.2724    0.0000 C   0  0  0  0  0  0  0  0  0  0  0  0
    2.9076    0.7974    0.0000 C   0  0  0  0  0  0  0  0  0  0  0  0
    3.6220    2.0349    0.0000 C   0  0  0  0  0  0  0  0  0  0  0  0
    0.7641    2.0349    0.0000 N   0  0  0  0  0  0  0  0  0  0  0  0
    0.7641    1.2099    0.0000 C   0  0  0  0  0  0  0  0  0  0  0  0
    1.4786   -0.0276    0.0000 C   0  0  0  0  0  0  0  0  0  0  0  0
    2.1931   -0.4401    0.0000 O   0  0  0  0  0  0  0  0  0  0  0  0
    2.1931   -1.2651    0.0000 C   0  0  0  0  0  0  0  0  0  0  0  0
    1.9843    2.7393    0.0000 H   0  0  0  0  0  0  0  0  0  0  0  0
   -1.9556    3.7647    0.0000 H   0  0  0  0  0  0  0  0  0  0  0  0
   -3.6608    3.7647    0.0000 H   0  0  0  0  0  0  0  0  0  0  0  0
   -0.4526    1.3324    0.0000 H   0  0  0  0  0  0  0  0  0  0  0  0
   -0.4527    0.2624    0.0000 H   0  0  0  0  0  0  0  0  0  0  0  0
   -2.2730    3.7884    0.0000 H   0  0  0  0  0  0  0  0  0  0  0  0
   -0.6648    4.7169    0.0000 H   0  0  0  0  0  0  0  0  0  0  0  0
    0.7641    4.7549    0.0000 H   0  0  0  0  0  0  0  0  0  0  0  0
   -0.1626    4.2199    0.0000 H   0  0  0  0  0  0  0  0  0  0  0  0
    2.4052    1.3324    0.0000 H   0  0  0  0  0  0  0  0  0  0  0  0
    2.4052    0.2624    0.0000 H   0  0  0  0  0  0  0  0  0  0  0  0
   -2.3059   -0.5626    0.0000 H   0  0  0  0  0  0  0  0  0  0  0  0
   -0.4527   -0.5626    0.0000 H   0  0  0  0  0  0  0  0  0  0  0  0
   -1.3793   -1.0976    0.0000 H   0  0  0  0  0  0  0  0  0  0  0  0
    1.2994    0.6939    0.0000 H   0  0  0  0  0  0  0  0  0  0  0  0
    4.5157    0.6939    0.0000 H   0  0  0  0  0  0  0  0  0  0  0  0
    2.9076    3.4794    0.0000 H   0  0  0  0  0  0  0  0  0  0  0  0
   -5.0898    1.2897    0.0000 H   0  0  0  0  0  0  0  0  0  0  0  0
   -4.2372   -0.1871    0.0000 H   0  0  0  0  0  0  0  0  0  0  0  0
   -0.6648    1.0029    0.0000 H   0  0  0  0  0  0  0  0  0  0  0  0
    2.4052    3.8074    0.0000 H   0  0  0  0  0  0  0  0  0  0  0  0
    2.4052    2.7374    0.0000 H   0  0  0  0  0  0  0  0  0  0  0  0
    2.9076   -0.2346    0.0000 H   0  0  0  0  0  0  0  0  0  0  0  0
    4.5157    2.5509    0.0000 H   0  0  0  0  0  0  0  0  0  0  0  0
   -0.1625    0.6749    0.0000 H   0  0  0  0  0  0  0  0  0  0  0  0
   -0.1625    1.7449    0.0000 H   0  0  0  0  0  0  0  0  0  0  0  0
    0.5520   -0.5626    0.0000 H   0  0  0  0  0  0  0  0  0  0  0  0
    1.4786   -1.0976    0.0000 H   0  0  0  0  0  0  0  0  0  0  0  0
    1.2665   -1.8001    0.0000 H   0  0  0  0  0  0  0  0  0  0  0  0
    3.1197   -1.8001    0.0000 H   0  0  0  0  0  0  0  0  0  0  0  0
    2.1931   -2.3351    0.0000 H   0  0  0  0  0  0  0  0  0  0  0  0
  1 16  1  0  0  0  0
  1 19  2  0  0  0  0
  2 16  1  0  0  0  0
  2 33  1  0  0  0  0
  2 34  1  0  0  0  0
  3 21  1  0  0  0  0
  3 16  2  0  0  0  0
  3 17  1  0  0  0  0
  4 17  1  0  0  0  0
  4 11  1  0  0  0  0
  4 35  1  0  0  0  0
  4 36  1  0  0  0  0
  5  6  1  0  0  0  0
  5 21  2  0  0  0  0
  5 37  1  0  0  0  0
  6 23  2  0  0  0  0
  6 38  1  0  0  0  0
  7 23  1  0  0  0  0
  7 27  1  0  0  0  0
  7 22  2  0  0  0  0
  8 24  1  0  0  0  0
  8 23  1  0  0  0  0
  8 39  1  0  0  0  0
  8 40  1  0  0  0  0
  9 12  1  0  0  0  0
  9 24  1  0  0  0  0
  9 27  1  0  0  0  0
  9 32  1  6  0  0  0
 10 28  1  0  0  0  0
 10 29  1  0  0  0  0
 10 41  1  0  0  0  0
 10 42  1  0  0  0  0
 11 43  1  0  0  0  0
 11 44  1  0  0  0  0
 11 45  1  0  0  0  0
 12 15  2  0  0  0  0
 12 13  1  0  0  0  0
 13 25  2  0  0  0  0
 13 46  1  0  0  0  0
 14 26  2  0  0  0  0
 14 25  1  0  0  0  0
 14 47  1  0  0  0  0
 15 26  1  0  0  0  0
 15 48  1  0  0  0  0
 17 18  2  0  0  0  0
 18 19  1  0  0  0  0
 19 20  1  0  0  0  0
 20 49  1  0  0  0  0
 20 50  1  0  0  0  0
 21 22  1  0  0  0  0
 22 51  1  0  0  0  0
 24 52  1  0  0  0  0
 24 53  1  0  0  0  0
 25 54  1  0  0  0  0
 26 55  1  0  0  0  0
 27 28  1  0  0  0  0
 28 56  1  0  0  0  0
 28 57  1  0  0  0  0
 29 30  1  0  0  0  0
 29 58  1  0  0  0  0
 29 59  1  0  0  0  0
 30 31  1  0  0  0  0
 31 60  1  0  0  0  0
 31 61  1  0  0  0  0
 31 62  1  0  0  0  0
M  END
>  <DRUGBANK_ID>
DB08099

>  <COMMON_NAME>
6-ethyl-5-[(2S)-1-(3-methoxypropyl)-2-phenyl-1,2,3,4-tetrahydroquinolin-7-yl]pyrimidine-2,4-diamine

$$$$
