
 OpenBabel10282417072D

 63 65  0  0  0  0  0  0  0  0999 V2000
   -1.6325    0.3733    0.0000 O   0  0  0  0  0  0  0  0  0  0  0  0
   -0.9181   -0.0391    0.0000 O   0  0  0  0  0  0  0  0  0  0  0  0
    0.5108   -0.0392    0.0000 O   0  0  0  0  0  0  0  0  0  0  0  0
   -4.4905    1.1983    0.0000 N   0  0  0  0  0  0  0  0  0  0  0  0
   -0.9181    1.6108    0.0000 N   0  0  0  0  0  0  0  0  0  0  0  0
   -5.9195    1.1983    0.0000 N   0  0  0  0  0  0  0  0  0  0  0  0
   -5.2050    2.4358    0.0000 N   0  0  0  0  0  0  0  0  0  0  0  0
   -3.0615    1.1983    0.0000 C   0  0  1  0  0  0  0  0  0  0  0  0
   -3.0615    0.3733    0.0000 C   0  0  0  0  0  0  0  0  0  0  0  0
   -3.7760    1.6108    0.0000 C   0  0  0  0  0  0  0  0  0  0  0  0
   -3.7760   -0.0392    0.0000 C   0  0  0  0  0  0  0  0  0  0  0  0
   -4.4905    0.3732    0.0000 C   0  0  0  0  0  0  0  0  0  0  0  0
   -2.3470    1.6108    0.0000 C   0  0  0  0  0  0  0  0  0  0  0  0
   -1.6326    1.1983    0.0000 C   0  0  0  0  0  0  0  0  0  0  0  0
   -5.2050    1.6108    0.0000 C   0  0  0  0  0  0  0  0  0  0  0  0
   -0.2036    1.1983    0.0000 C   0  0  1  0  0  0  0  0  0  0  0  0
    0.5108    1.6108    0.0000 C   0  0  0  0  0  0  0  0  0  0  0  0
   -0.2036    0.3733    0.0000 C   0  0  0  0  0  0  0  0  0  0  0  0
    1.2253    1.1983    0.0000 C   0  0  0  0  0  0  0  0  0  0  0  0
    1.9398    1.6108    0.0000 C   0  0  0  0  0  0  0  0  0  0  0  0
    1.2253    0.3732    0.0000 C   0  0  0  0  0  0  0  0  0  0  0  0
    2.6543    1.1983    0.0000 C   0  0  0  0  0  0  0  0  0  0  0  0
    1.9398   -0.0392    0.0000 C   0  0  0  0  0  0  0  0  0  0  0  0
    2.6543    0.3733    0.0000 C   0  0  0  0  0  0  0  0  0  0  0  0
   -0.9181   -0.8641    0.0000 C   0  0  0  0  0  0  0  0  0  0  0  0
    3.3688   -0.0391    0.0000 C   0  0  0  0  0  0  0  0  0  0  0  0
    4.0833   -0.4516    0.0000 C   0  0  0  0  0  0  0  0  0  0  0  0
    4.7977   -0.8641    0.0000 C   0  0  0  0  0  0  0  0  0  0  0  0
    5.5122   -0.4516    0.0000 C   0  0  0  0  0  0  0  0  0  0  0  0
    4.7977   -1.6892    0.0000 C   0  0  0  0  0  0  0  0  0  0  0  0
    6.2267   -0.8642    0.0000 C   0  0  0  0  0  0  0  0  0  0  0  0
    5.5122   -2.1017    0.0000 C   0  0  0  0  0  0  0  0  0  0  0  0
    6.2267   -1.6892    0.0000 C   0  0  0  0  0  0  0  0  0  0  0  0
   -0.9181    2.1223    0.0000 H   0  0  0  0  0  0  0  0  0  0  0  0
   -5.9195    0.6868    0.0000 H   0  0  0  0  0  0  0  0  0  0  0  0
   -6.3625    1.4540    0.0000 H   0  0  0  0  0  0  0  0  0  0  0  0
   -5.6480    2.6916    0.0000 H   0  0  0  0  0  0  0  0  0  0  0  0
   -2.1349    0.6633    0.0000 H   0  0  0  0  0  0  0  0  0  0  0  0
   -2.1349   -0.1617    0.0000 H   0  0  0  0  0  0  0  0  0  0  0  0
   -3.0615   -0.6967    0.0000 H   0  0  0  0  0  0  0  0  0  0  0  0
   -3.7760    2.6808    0.0000 H   0  0  0  0  0  0  0  0  0  0  0  0
   -2.8494    2.1458    0.0000 H   0  0  0  0  0  0  0  0  0  0  0  0
   -3.7759   -1.1092    0.0000 H   0  0  0  0  0  0  0  0  0  0  0  0
   -4.7026   -0.5743    0.0000 H   0  0  0  0  0  0  0  0  0  0  0  0
   -5.4171   -0.1619    0.0000 H   0  0  0  0  0  0  0  0  0  0  0  0
   -4.4904   -0.6968    0.0000 H   0  0  0  0  0  0  0  0  0  0  0  0
   -2.3470    2.6808    0.0000 H   0  0  0  0  0  0  0  0  0  0  0  0
   -1.4203    2.1458    0.0000 H   0  0  0  0  0  0  0  0  0  0  0  0
   -0.2036    2.2683    0.0000 H   0  0  0  0  0  0  0  0  0  0  0  0
    0.5108    2.6808    0.0000 H   0  0  0  0  0  0  0  0  0  0  0  0
    1.4374    2.1458    0.0000 H   0  0  0  0  0  0  0  0  0  0  0  0
    1.9398    2.6428    0.0000 H   0  0  0  0  0  0  0  0  0  0  0  0
    0.3316   -0.1429    0.0000 H   0  0  0  0  0  0  0  0  0  0  0  0
    3.5480    1.7143    0.0000 H   0  0  0  0  0  0  0  0  0  0  0  0
    1.9399   -1.0712    0.0000 H   0  0  0  0  0  0  0  0  0  0  0  0
   -1.8447   -1.3991    0.0000 H   0  0  0  0  0  0  0  0  0  0  0  0
    0.0085   -1.3991    0.0000 H   0  0  0  0  0  0  0  0  0  0  0  0
   -0.9181   -1.9341    0.0000 H   0  0  0  0  0  0  0  0  0  0  0  0
    5.5123    0.5804    0.0000 H   0  0  0  0  0  0  0  0  0  0  0  0
    3.9040   -2.2052    0.0000 H   0  0  0  0  0  0  0  0  0  0  0  0
    7.1205   -0.3482    0.0000 H   0  0  0  0  0  0  0  0  0  0  0  0
    5.5122   -3.1337    0.0000 H   0  0  0  0  0  0  0  0  0  0  0  0
    7.1204   -2.2052    0.0000 H   0  0  0  0  0  0  0  0  0  0  0  0
  1 14  2  0  0  0  0
  2 18  1  0  0  0  0
  2 25  1  0  0  0  0
  3 18  2  0  0  0  0
  4 10  1  0  0  0  0
  4 12  1  0  0  0  0
  4 15  1  0  0  0  0
  5 14  1  0  0  0  0
  5 34  1  0  0  0  0
  6 15  1  0  0  0  0
  6 35  1  0  0  0  0
  6 36  1  0  0  0  0
  7 15  2  0  0  0  0
  7 37  1  0  0  0  0
  8  9  1  0  0  0  0
  8 10  1  0  0  0  0
  8 13  1  0  0  0  0
  8 38  1  6  0  0  0
  9 11  1  0  0  0  0
  9 39  1  0  0  0  0
  9 40  1  0  0  0  0
 10 41  1  0  0  0  0
 10 42  1  0  0  0  0
 11 12  1  0  0  0  0
 11 43  1  0  0  0  0
 11 44  1  0  0  0  0
 12 45  1  0  0  0  0
 12 46  1  0  0  0  0
 13 14  1  0  0  0  0
 13 47  1  0  0  0  0
 13 48  1  0  0  0  0
 16  5  1  0  0  0  0
 16 17  1  0  0  0  0
 16 18  1  0  0  0  0
 16 49  1  6  0  0  0
 17 19  1  0  0  0  0
 17 50  1  0  0  0  0
 17 51  1  0  0  0  0
 19 20  2  0  0  0  0
 19 21  1  0  0  0  0
 20 22  1  0  0  0  0
 20 52  1  0  0  0  0
 21 23  2  0  0  0  0
 21 53  1  0  0  0  0
 22 24  2  0  0  0  0
 22 54  1  0  0  0  0
 23 24  1  0  0  0  0
 23 55  1  0  0  0  0
 24 26  1  0  0  0  0
 25 56  1  0  0  0  0
 25 57  1  0  0  0  0
 25 58  1  0  0  0  0
 26 27  3  0  0  0  0
 27 28  1  0  0  0  0
 28 29  2  0  0  0  0
 28 30  1  0  0  0  0
 29 31  1  0  0  0  0
 29 59  1  0  0  0  0
 30 32  2  0  0  0  0
 30 60  1  0  0  0  0
 31 33  2  0  0  0  0
 31 61  1  0  0  0  0
 32 33  1  0  0  0  0
 32 62  1  0  0  0  0
 33 63  1  0  0  0  0
M  END
>  <DRUGBANK_ID>
DB03453

>  <SECONDARY_ACCESSION_NUMBERS>
EXPT01490

>  <COMMON_NAME>
Methyl (2S)-2-[[2-[(3R)-1-carbamimidoylpiperidin-3-yl]acetyl]amino]-3-[4-(2-phenylethynyl)phenyl]propanoate

>  <CAS_NUMBER>
193744-04-6

>  <SYNONYMS>
Methyl N-{[(3R)-1-carbamimidoyl-3-piperidinyl]acetyl}-4-(phenylethynyl)-L-phenylalaninate

$$$$
