856
 OpenBabel10282417072D

 24 24  0  0  1  0  0  0  0  0999 V2000
    2.3645   -3.0154    0.0000 Cl  0  0  0  0  0  0  0  0  0  0  0  0
    2.3645    0.2846    0.0000 O   0  0  0  0  0  0  0  0  0  0  0  0
    2.3645    1.9346    0.0000 O   0  0  0  0  0  0  0  0  0  0  0  0
    3.7934    2.7596    0.0000 O   0  0  0  0  0  0  0  0  0  0  0  0
    3.0790    1.5221    0.0000 C   0  0  3  0  0  0  0  0  0  0  0  0
    3.0790    0.6971    0.0000 C   0  0  0  0  0  0  0  0  0  0  0  0
    3.7934    1.9346    0.0000 C   0  0  0  0  0  0  0  0  0  0  0  0
    2.3645   -0.5404    0.0000 C   0  0  0  0  0  0  0  0  0  0  0  0
    3.0790   -0.9529    0.0000 C   0  0  0  0  0  0  0  0  0  0  0  0
    1.6500   -0.9529    0.0000 C   0  0  0  0  0  0  0  0  0  0  0  0
    3.0790   -1.7779    0.0000 C   0  0  0  0  0  0  0  0  0  0  0  0
    1.6500   -1.7779    0.0000 C   0  0  0  0  0  0  0  0  0  0  0  0
    2.3645   -2.1904    0.0000 C   0  0  0  0  0  0  0  0  0  0  0  0
    2.3645    2.9046    0.0000 H   0  0  0  0  0  0  0  0  0  0  0  0
    4.6334    3.2446    0.0000 H   0  0  0  0  0  0  0  0  0  0  0  0
    2.1524    0.9871    0.0000 H   0  0  0  0  0  0  0  0  0  0  0  0
    4.0056    0.1621    0.0000 H   0  0  0  0  0  0  0  0  0  0  0  0
    4.0056    1.2321    0.0000 H   0  0  0  0  0  0  0  0  0  0  0  0
    4.7201    1.3996    0.0000 H   0  0  0  0  0  0  0  0  0  0  0  0
    3.7934    0.8646    0.0000 H   0  0  0  0  0  0  0  0  0  0  0  0
    3.9727   -0.4369    0.0000 H   0  0  0  0  0  0  0  0  0  0  0  0
    0.7563   -0.4369    0.0000 H   0  0  0  0  0  0  0  0  0  0  0  0
    3.9727   -2.2939    0.0000 H   0  0  0  0  0  0  0  0  0  0  0  0
    0.7563   -2.2939    0.0000 H   0  0  0  0  0  0  0  0  0  0  0  0
  1 13  1  0  0  0  0
  2  6  1  0  0  0  0
  2  8  1  0  0  0  0
  3  5  1  0  0  0  0
  3 14  1  0  0  0  0
  4  7  1  0  0  0  0
  4 15  1  0  0  0  0
  5  6  1  0  0  0  0
  5  7  1  0  0  0  0
  5 16  1  0  0  0  0
  6 17  1  0  0  0  0
  6 18  1  0  0  0  0
  7 19  1  0  0  0  0
  7 20  1  0  0  0  0
  8  9  2  0  0  0  0
  8 10  1  0  0  0  0
  9 11  1  0  0  0  0
  9 21  1  0  0  0  0
 10 12  2  0  0  0  0
 10 22  1  0  0  0  0
 11 13  2  0  0  0  0
 11 23  1  0  0  0  0
 12 13  1  0  0  0  0
 12 24  1  0  0  0  0
M  END
>  <DRUGBANK_ID>
DB00856

>  <SECONDARY_ACCESSION_NUMBERS>
APRD00867

>  <COMMON_NAME>
Chlorphenesin

>  <CAS_NUMBER>
104-29-0

>  <UNII>
I670DAL4SZ

>  <SYNONYMS>
3-(4-chlorophenoxy)-1,2-propanediol; 3-(p-chlorophenoxy)-1,2-propanediol; 3-(p-chlorophenoxy)propane-1,2-diol; Chlorphenesin; Chlorphénésine; Chlorphenesinum; Clorfenesina; glycerol α-p-chlorophenyl ether; p-chlorophenyl-α-glyceryl ether

$$$$
