AES
 OpenBabel10282417072D

 23 23  0  0  0  0  0  0  0  0999 V2000
    1.3137   -0.1335    0.0000 C   0  0  0  0  0  0  0  0  0  0  0  0
    1.3137   -0.9585    0.0000 C   0  0  0  0  0  0  0  0  0  0  0  0
    0.5992   -1.3710    0.0000 C   0  0  0  0  0  0  0  0  0  0  0  0
    0.5992   -2.1960    0.0000 S   0  0  0  0  0  0  0  0  0  0  0  0
    0.5992   -3.0210    0.0000 F   0  0  0  0  0  0  0  0  0  0  0  0
    1.4242   -2.1960    0.0000 O   0  0  0  0  0  0  0  0  0  0  0  0
   -0.2258   -2.1960    0.0000 O   0  0  0  0  0  0  0  0  0  0  0  0
   -0.1152   -0.9585    0.0000 C   0  0  0  0  0  0  0  0  0  0  0  0
   -0.1152   -0.1335    0.0000 C   0  0  0  0  0  0  0  0  0  0  0  0
    0.5992    0.2790    0.0000 C   0  0  0  0  0  0  0  0  0  0  0  0
    0.5992    1.1040    0.0000 C   0  0  0  0  0  0  0  0  0  0  0  0
    1.3137    1.5165    0.0000 C   0  0  0  0  0  0  0  0  0  0  0  0
    1.3137    2.3415    0.0000 N   0  0  0  0  0  0  0  0  0  0  0  0
    2.2074    0.3825    0.0000 H   0  0  0  0  0  0  0  0  0  0  0  0
    2.2074   -1.4745    0.0000 H   0  0  0  0  0  0  0  0  0  0  0  0
   -1.0089   -1.4745    0.0000 H   0  0  0  0  0  0  0  0  0  0  0  0
   -1.0089    0.3825    0.0000 H   0  0  0  0  0  0  0  0  0  0  0  0
   -0.3274    1.6390    0.0000 H   0  0  0  0  0  0  0  0  0  0  0  0
    0.5992    2.1740    0.0000 H   0  0  0  0  0  0  0  0  0  0  0  0
    2.2403    0.9815    0.0000 H   0  0  0  0  0  0  0  0  0  0  0  0
    2.2403    2.0515    0.0000 H   0  0  0  0  0  0  0  0  0  0  0  0
    2.1970    2.8515    0.0000 H   0  0  0  0  0  0  0  0  0  0  0  0
    0.4304    2.8515    0.0000 H   0  0  0  0  0  0  0  0  0  0  0  0
  1  2  2  0  0  0  0
  1 10  1  0  0  0  0
  1 14  1  0  0  0  0
  2  3  1  0  0  0  0
  2 15  1  0  0  0  0
  3  4  1  0  0  0  0
  3  8  2  0  0  0  0
  4  5  1  0  0  0  0
  4  6  2  0  0  0  0
  4  7  2  0  0  0  0
  8  9  1  0  0  0  0
  8 16  1  0  0  0  0
  9 10  2  0  0  0  0
  9 17  1  0  0  0  0
 10 11  1  0  0  0  0
 11 12  1  0  0  0  0
 11 18  1  0  0  0  0
 11 19  1  0  0  0  0
 12 13  1  0  0  0  0
 12 20  1  0  0  0  0
 12 21  1  0  0  0  0
 13 22  1  0  0  0  0
 13 23  1  0  0  0  0
M  END
>  <DRUGBANK_ID>
DB07347

>  <COMMON_NAME>
4-(2-Aminoethyl)Benzenesulfonyl Fluoride

>  <CAS_NUMBER>
34284-75-8

>  <UNII>
F5D36L5354

$$$$
