
 OpenBabel10282417072D

 81 80  0  0  0  0  0  0  0  0999 V2000
   -0.1914    0.7145    0.0000 C   0  0  0  0  0  0  0  0  0  0  0  0
    0.5230    1.1270    0.0000 N   0  0  0  0  0  0  0  0  0  0  0  0
    0.5230    1.9520    0.0000 C   0  0  0  0  0  0  0  0  0  0  0  0
    1.2375    0.7145    0.0000 C   0  0  0  0  0  0  0  0  0  0  0  0
    1.9520    1.1270    0.0000 C   0  0  0  0  0  0  0  0  0  0  0  0
    2.6664    0.7145    0.0000 C   0  0  0  0  0  0  0  0  0  0  0  0
    3.3809    1.1270    0.0000 C   0  0  0  0  0  0  0  0  0  0  0  0
    3.3809    1.9520    0.0000 C   0  0  0  0  0  0  0  0  0  0  0  0
    4.0954    0.7145    0.0000 C   0  0  0  0  0  0  0  0  0  0  0  0
    4.8099    1.1270    0.0000 C   0  0  0  0  0  0  0  0  0  0  0  0
    5.5243    0.7145    0.0000 C   0  0  0  0  0  0  0  0  0  0  0  0
    6.2388    1.1270    0.0000 C   0  0  0  0  0  0  0  0  0  0  0  0
    6.2388    1.9520    0.0000 C   0  0  0  0  0  0  0  0  0  0  0  0
    6.9533    0.7145    0.0000 C   0  0  0  0  0  0  0  0  0  0  0  0
    7.6677    1.1270    0.0000 C   0  0  0  0  0  0  0  0  0  0  0  0
    8.3822    0.7145    0.0000 C   0  0  0  0  0  0  0  0  0  0  0  0
    9.0967    1.1270    0.0000 C   0  0  0  0  0  0  0  0  0  0  0  0
    9.8112    0.7145    0.0000 C   0  0  0  0  0  0  0  0  0  0  0  0
    9.8112   -0.1105    0.0000 C   0  0  0  0  0  0  0  0  0  0  0  0
   10.5256    1.1270    0.0000 C   0  0  0  0  0  0  0  0  0  0  0  0
   11.2401    0.7145    0.0000 C   0  0  0  0  0  0  0  0  0  0  0  0
   11.9546    1.1270    0.0000 C   0  0  0  0  0  0  0  0  0  0  0  0
   12.6690    0.7145    0.0000 C   0  0  0  0  0  0  0  0  0  0  0  0
   12.6690   -0.1105    0.0000 C   0  0  0  0  0  0  0  0  0  0  0  0
   13.3835    1.1270    0.0000 C   0  0  0  0  0  0  0  0  0  0  0  0
   13.3835    1.9520    0.0000 C   0  0  0  0  0  0  0  0  0  0  0  0
   14.0980    2.3645    0.0000 C   0  0  0  0  0  0  0  0  0  0  0  0
   14.0980    3.1895    0.0000 C   0  0  0  0  0  0  0  0  0  0  0  0
   13.3835    3.6020    0.0000 C   0  0  0  0  0  0  0  0  0  0  0  0
   14.8124    3.6020    0.0000 C   0  0  0  0  0  0  0  0  0  0  0  0
   -1.1181    1.2495    0.0000 H   0  0  0  0  0  0  0  0  0  0  0  0
   -0.1914   -0.3555    0.0000 H   0  0  0  0  0  0  0  0  0  0  0  0
   -1.1180    0.1795    0.0000 H   0  0  0  0  0  0  0  0  0  0  0  0
    1.4496    2.4870    0.0000 H   0  0  0  0  0  0  0  0  0  0  0  0
   -0.4036    2.4870    0.0000 H   0  0  0  0  0  0  0  0  0  0  0  0
    0.5230    3.0220    0.0000 H   0  0  0  0  0  0  0  0  0  0  0  0
    1.2375   -0.3555    0.0000 H   0  0  0  0  0  0  0  0  0  0  0  0
    2.1641    0.1795    0.0000 H   0  0  0  0  0  0  0  0  0  0  0  0
    1.9520    2.1970    0.0000 H   0  0  0  0  0  0  0  0  0  0  0  0
    2.8787    1.6620    0.0000 H   0  0  0  0  0  0  0  0  0  0  0  0
    2.6664   -0.3555    0.0000 H   0  0  0  0  0  0  0  0  0  0  0  0
    3.5930    0.1795    0.0000 H   0  0  0  0  0  0  0  0  0  0  0  0
    4.3075    2.4870    0.0000 H   0  0  0  0  0  0  0  0  0  0  0  0
    2.4543    2.4870    0.0000 H   0  0  0  0  0  0  0  0  0  0  0  0
    3.3809    3.0220    0.0000 H   0  0  0  0  0  0  0  0  0  0  0  0
    4.0954   -0.3175    0.0000 H   0  0  0  0  0  0  0  0  0  0  0  0
    4.8099    2.1970    0.0000 H   0  0  0  0  0  0  0  0  0  0  0  0
    5.7366    1.6620    0.0000 H   0  0  0  0  0  0  0  0  0  0  0  0
    5.5243   -0.3555    0.0000 H   0  0  0  0  0  0  0  0  0  0  0  0
    6.4509    0.1795    0.0000 H   0  0  0  0  0  0  0  0  0  0  0  0
    7.1654    2.4870    0.0000 H   0  0  0  0  0  0  0  0  0  0  0  0
    5.3122    2.4870    0.0000 H   0  0  0  0  0  0  0  0  0  0  0  0
    6.2388    3.0220    0.0000 H   0  0  0  0  0  0  0  0  0  0  0  0
    6.9533   -0.3175    0.0000 H   0  0  0  0  0  0  0  0  0  0  0  0
    7.6677    2.1970    0.0000 H   0  0  0  0  0  0  0  0  0  0  0  0
    8.5943    1.6620    0.0000 H   0  0  0  0  0  0  0  0  0  0  0  0
    8.3822   -0.3555    0.0000 H   0  0  0  0  0  0  0  0  0  0  0  0
    9.3088    0.1795    0.0000 H   0  0  0  0  0  0  0  0  0  0  0  0
    9.0967    2.1590    0.0000 H   0  0  0  0  0  0  0  0  0  0  0  0
    8.8846   -0.6455    0.0000 H   0  0  0  0  0  0  0  0  0  0  0  0
   10.7378   -0.6455    0.0000 H   0  0  0  0  0  0  0  0  0  0  0  0
    9.8112   -1.1805    0.0000 H   0  0  0  0  0  0  0  0  0  0  0  0
   10.5256    2.1970    0.0000 H   0  0  0  0  0  0  0  0  0  0  0  0
   11.4522    1.6620    0.0000 H   0  0  0  0  0  0  0  0  0  0  0  0
   11.2401   -0.3555    0.0000 H   0  0  0  0  0  0  0  0  0  0  0  0
   12.1667    0.1795    0.0000 H   0  0  0  0  0  0  0  0  0  0  0  0
   11.9546    2.1590    0.0000 H   0  0  0  0  0  0  0  0  0  0  0  0
   11.7424   -0.6455    0.0000 H   0  0  0  0  0  0  0  0  0  0  0  0
   13.5956   -0.6455    0.0000 H   0  0  0  0  0  0  0  0  0  0  0  0
   12.6690   -1.1805    0.0000 H   0  0  0  0  0  0  0  0  0  0  0  0
   14.3101    0.5920    0.0000 H   0  0  0  0  0  0  0  0  0  0  0  0
   14.3101    1.6620    0.0000 H   0  0  0  0  0  0  0  0  0  0  0  0
   12.4569    2.4870    0.0000 H   0  0  0  0  0  0  0  0  0  0  0  0
   13.3835    3.0220    0.0000 H   0  0  0  0  0  0  0  0  0  0  0  0
   14.9917    1.8485    0.0000 H   0  0  0  0  0  0  0  0  0  0  0  0
   13.3835    4.6720    0.0000 H   0  0  0  0  0  0  0  0  0  0  0  0
   12.4569    3.0670    0.0000 H   0  0  0  0  0  0  0  0  0  0  0  0
   12.4568    4.1370    0.0000 H   0  0  0  0  0  0  0  0  0  0  0  0
   15.7391    3.0670    0.0000 H   0  0  0  0  0  0  0  0  0  0  0  0
   14.8124    4.6720    0.0000 H   0  0  0  0  0  0  0  0  0  0  0  0
   15.7390    4.1370    0.0000 H   0  0  0  0  0  0  0  0  0  0  0  0
  1  2  1  0  0  0  0
  1 31  1  0  0  0  0
  1 32  1  0  0  0  0
  1 33  1  0  0  0  0
  2  3  1  0  0  0  0
  2  4  1  0  0  0  0
  3 34  1  0  0  0  0
  3 35  1  0  0  0  0
  3 36  1  0  0  0  0
  4  5  1  0  0  0  0
  4 37  1  0  0  0  0
  4 38  1  0  0  0  0
  5  6  1  0  0  0  0
  5 39  1  0  0  0  0
  5 40  1  0  0  0  0
  6  7  1  0  0  0  0
  6 41  1  0  0  0  0
  6 42  1  0  0  0  0
  7  8  1  0  0  0  0
  7  9  2  0  0  0  0
  8 43  1  0  0  0  0
  8 44  1  0  0  0  0
  8 45  1  0  0  0  0
  9 10  1  0  0  0  0
  9 46  1  0  0  0  0
 10 11  1  0  0  0  0
 10 47  1  0  0  0  0
 10 48  1  0  0  0  0
 11 12  1  0  0  0  0
 11 49  1  0  0  0  0
 11 50  1  0  0  0  0
 12 13  1  0  0  0  0
 12 14  2  0  0  0  0
 13 51  1  0  0  0  0
 13 52  1  0  0  0  0
 13 53  1  0  0  0  0
 14 15  1  0  0  0  0
 14 54  1  0  0  0  0
 15 16  1  0  0  0  0
 15 55  1  0  0  0  0
 15 56  1  0  0  0  0
 16 17  1  0  0  0  0
 16 57  1  0  0  0  0
 16 58  1  0  0  0  0
 17 18  2  0  0  0  0
 17 59  1  0  0  0  0
 18 19  1  0  0  0  0
 18 20  1  0  0  0  0
 19 60  1  0  0  0  0
 19 61  1  0  0  0  0
 19 62  1  0  0  0  0
 20 21  1  0  0  0  0
 20 63  1  0  0  0  0
 20 64  1  0  0  0  0
 21 22  1  0  0  0  0
 21 65  1  0  0  0  0
 21 66  1  0  0  0  0
 22 23  2  0  0  0  0
 22 67  1  0  0  0  0
 23 24  1  0  0  0  0
 23 25  1  0  0  0  0
 24 68  1  0  0  0  0
 24 69  1  0  0  0  0
 24 70  1  0  0  0  0
 25 26  1  0  0  0  0
 25 71  1  0  0  0  0
 25 72  1  0  0  0  0
 26 27  1  0  0  0  0
 26 73  1  0  0  0  0
 26 74  1  0  0  0  0
 27 28  2  0  0  0  0
 27 75  1  0  0  0  0
 28 29  1  0  0  0  0
 28 30  1  0  0  0  0
 29 76  1  0  0  0  0
 29 77  1  0  0  0  0
 29 78  1  0  0  0  0
 30 79  1  0  0  0  0
 30 80  1  0  0  0  0
 30 81  1  0  0  0  0
M  END
>  <DRUGBANK_ID>
DB03874

>  <SECONDARY_ACCESSION_NUMBERS>
EXPT02951

>  <COMMON_NAME>
(4e,8e,12z,16z)-N,N,4,8,13,17,21-Heptamethyldocosa-4,8,12,16,20-Pentaen-1-Amine

$$$$
