
 OpenBabel10282417072D

 52 53  0  0  1  0  0  0  0  0999 V2000
    7.3659    4.1804    0.0000 S   0  0  0  0  0  0  0  0  0  0  0  0
    3.7935   -3.6573    0.0000 O   0  0  0  0  0  0  0  0  0  0  0  0
    5.9370   -0.7697    0.0000 O   0  0  0  0  0  0  0  0  0  0  0  0
    6.6515    3.7679    0.0000 O   0  0  0  0  0  0  0  0  0  0  0  0
    2.3645   -4.4823    0.0000 O   0  0  0  0  0  0  0  0  0  0  0  0
    1.6500   -3.2448    0.0000 O   0  0  0  0  0  0  0  0  0  0  0  0
    6.9534    4.8948    0.0000 O   0  0  0  0  0  0  0  0  0  0  0  0
    7.7784    3.4659    0.0000 O   0  0  0  0  0  0  0  0  0  0  0  0
    3.0791   -2.4198    0.0000 C   0  0  0  0  0  0  0  0  0  0  0  0
    3.0791   -3.2448    0.0000 C   0  0  1  0  0  0  0  0  0  0  0  0
    3.7935   -2.0073    0.0000 C   0  0  0  0  0  0  0  0  0  0  0  0
    6.6515    0.4678    0.0000 C   0  0  0  0  0  0  0  0  0  0  0  0
    5.9370    0.0553    0.0000 C   0  0  0  0  0  0  0  0  0  0  0  0
    3.7935   -1.1823    0.0000 C   0  0  0  0  0  0  0  0  0  0  0  0
    4.5080   -2.4198    0.0000 C   0  0  0  0  0  0  0  0  0  0  0  0
    6.6515    1.2928    0.0000 C   0  0  0  0  0  0  0  0  0  0  0  0
    5.2224   -1.1823    0.0000 C   0  0  0  0  0  0  0  0  0  0  0  0
    4.5080   -0.7697    0.0000 C   0  0  0  0  0  0  0  0  0  0  0  0
    5.2224   -2.0073    0.0000 C   0  0  0  0  0  0  0  0  0  0  0  0
    2.3645   -3.6573    0.0000 C   0  0  0  0  0  0  0  0  0  0  0  0
    5.9370    1.7053    0.0000 C   0  0  0  0  0  0  0  0  0  0  0  0
    7.3659    1.7053    0.0000 C   0  0  0  0  0  0  0  0  0  0  0  0
    3.7935   -4.4823    0.0000 C   0  0  0  0  0  0  0  0  0  0  0  0
    6.6515    2.9428    0.0000 C   0  0  0  0  0  0  0  0  0  0  0  0
    5.9370    2.5303    0.0000 C   0  0  0  0  0  0  0  0  0  0  0  0
    7.3659    2.5303    0.0000 C   0  0  0  0  0  0  0  0  0  0  0  0
    4.5080   -4.8948    0.0000 C   0  0  0  0  0  0  0  0  0  0  0  0
    8.0804    4.5929    0.0000 C   0  0  0  0  0  0  0  0  0  0  0  0
    1.5530   -4.9508    0.0000 H   0  0  0  0  0  0  0  0  0  0  0  0
    2.1524   -1.8848    0.0000 H   0  0  0  0  0  0  0  0  0  0  0  0
    3.0791   -1.3498    0.0000 H   0  0  0  0  0  0  0  0  0  0  0  0
    4.0058   -2.7098    0.0000 H   0  0  0  0  0  0  0  0  0  0  0  0
    7.5781   -0.0672    0.0000 H   0  0  0  0  0  0  0  0  0  0  0  0
    7.5781    1.0028    0.0000 H   0  0  0  0  0  0  0  0  0  0  0  0
    5.0104    0.5903    0.0000 H   0  0  0  0  0  0  0  0  0  0  0  0
    5.9370    1.1253    0.0000 H   0  0  0  0  0  0  0  0  0  0  0  0
    2.8997   -0.6663    0.0000 H   0  0  0  0  0  0  0  0  0  0  0  0
    4.5080   -3.4518    0.0000 H   0  0  0  0  0  0  0  0  0  0  0  0
    4.5080    0.2623    0.0000 H   0  0  0  0  0  0  0  0  0  0  0  0
    6.1161   -2.5233    0.0000 H   0  0  0  0  0  0  0  0  0  0  0  0
    5.0433    1.1893    0.0000 H   0  0  0  0  0  0  0  0  0  0  0  0
    8.2596    1.1893    0.0000 H   0  0  0  0  0  0  0  0  0  0  0  0
    2.8669   -5.0173    0.0000 H   0  0  0  0  0  0  0  0  0  0  0  0
    3.7935   -5.5523    0.0000 H   0  0  0  0  0  0  0  0  0  0  0  0
    5.0433    3.0463    0.0000 H   0  0  0  0  0  0  0  0  0  0  0  0
    8.2596    3.0463    0.0000 H   0  0  0  0  0  0  0  0  0  0  0  0
    4.5080   -5.9648    0.0000 H   0  0  0  0  0  0  0  0  0  0  0  0
    5.4346   -4.3598    0.0000 H   0  0  0  0  0  0  0  0  0  0  0  0
    5.4347   -5.4298    0.0000 H   0  0  0  0  0  0  0  0  0  0  0  0
    9.0070    4.0579    0.0000 H   0  0  0  0  0  0  0  0  0  0  0  0
    8.0804    5.6629    0.0000 H   0  0  0  0  0  0  0  0  0  0  0  0
    9.0071    5.1279    0.0000 H   0  0  0  0  0  0  0  0  0  0  0  0
  1  4  1  0  0  0  0
  1  7  2  0  0  0  0
  1  8  2  0  0  0  0
  1 28  1  0  0  0  0
  2 23  1  0  0  0  0
  3 13  1  0  0  0  0
  3 17  1  0  0  0  0
  4 24  1  0  0  0  0
  5 20  1  0  0  0  0
  5 29  1  0  0  0  0
  6 20  2  0  0  0  0
  9 10  1  0  0  0  0
  9 11  1  0  0  0  0
  9 30  1  0  0  0  0
  9 31  1  0  0  0  0
 10  2  1  0  0  0  0
 10 20  1  0  0  0  0
 10 32  1  1  0  0  0
 11 14  2  0  0  0  0
 11 15  1  0  0  0  0
 12 13  1  0  0  0  0
 12 16  1  0  0  0  0
 12 33  1  0  0  0  0
 12 34  1  0  0  0  0
 13 35  1  0  0  0  0
 13 36  1  0  0  0  0
 14 18  1  0  0  0  0
 14 37  1  0  0  0  0
 15 19  2  0  0  0  0
 15 38  1  0  0  0  0
 16 21  2  0  0  0  0
 16 22  1  0  0  0  0
 17 18  2  0  0  0  0
 17 19  1  0  0  0  0
 18 39  1  0  0  0  0
 19 40  1  0  0  0  0
 21 25  1  0  0  0  0
 21 41  1  0  0  0  0
 22 26  2  0  0  0  0
 22 42  1  0  0  0  0
 23 27  1  0  0  0  0
 23 43  1  0  0  0  0
 23 44  1  0  0  0  0
 24 25  2  0  0  0  0
 24 26  1  0  0  0  0
 25 45  1  0  0  0  0
 26 46  1  0  0  0  0
 27 47  1  0  0  0  0
 27 48  1  0  0  0  0
 27 49  1  0  0  0  0
 28 50  1  0  0  0  0
 28 51  1  0  0  0  0
 28 52  1  0  0  0  0
M  END
>  <DRUGBANK_ID>
DB06536

>  <SECONDARY_ACCESSION_NUMBERS>
DB07399

>  <COMMON_NAME>
Tesaglitazar

>  <CAS_NUMBER>
251565-85-2

>  <UNII>
6734037O3L

>  <SYNONYMS>
Tesaglitazar

$$$$
