
 OpenBabel10282417072D

 30 31  0  0  1  0  0  0  0  0999 V2000
    3.6703   -0.2897    0.0000 O   0  0  0  0  0  0  0  0  0  0  0  0
    2.2021    0.6122    0.0000 N   0  0  0  0  0  0  0  0  0  0  0  0
    5.0993   -1.9398    0.0000 N   0  0  0  0  0  0  0  0  0  0  0  0
    2.9558    0.9478    0.0000 C   0  0  1  0  0  0  0  0  0  0  0  0
    2.8695    1.7683    0.0000 C   0  0  0  0  0  0  0  0  0  0  0  0
    2.0625    1.9398    0.0000 C   0  0  0  0  0  0  0  0  0  0  0  0
    1.6500    1.2253    0.0000 C   0  0  0  0  0  0  0  0  0  0  0  0
    3.6703    0.5353    0.0000 C   0  0  0  0  0  0  0  0  0  0  0  0
    4.3847   -0.7023    0.0000 C   0  0  0  0  0  0  0  0  0  0  0  0
    4.3847   -1.5273    0.0000 C   0  0  0  0  0  0  0  0  0  0  0  0
    5.0993   -0.2897    0.0000 C   0  0  0  0  0  0  0  0  0  0  0  0
    3.6703   -1.9398    0.0000 C   0  0  0  0  0  0  0  0  0  0  0  0
    5.8137   -0.7023    0.0000 C   0  0  0  0  0  0  0  0  0  0  0  0
    5.8137   -1.5273    0.0000 C   0  0  0  0  0  0  0  0  0  0  0  0
    1.9901   -0.3855    0.0000 H   0  0  0  0  0  0  0  0  0  0  0  0
    2.8998   -0.1207    0.0000 H   0  0  0  0  0  0  0  0  0  0  0  0
    3.6646    2.4843    0.0000 H   0  0  0  0  0  0  0  0  0  0  0  0
    2.5925    2.8018    0.0000 H   0  0  0  0  0  0  0  0  0  0  0  0
    1.6273    2.9173    0.0000 H   0  0  0  0  0  0  0  0  0  0  0  0
    0.9940    1.9958    0.0000 H   0  0  0  0  0  0  0  0  0  0  0  0
    0.5859    1.1134    0.0000 H   0  0  0  0  0  0  0  0  0  0  0  0
    1.0672    2.1227    0.0000 H   0  0  0  0  0  0  0  0  0  0  0  0
    4.5969    1.0703    0.0000 H   0  0  0  0  0  0  0  0  0  0  0  0
    3.6703    1.6053    0.0000 H   0  0  0  0  0  0  0  0  0  0  0  0
    5.0994    0.7423    0.0000 H   0  0  0  0  0  0  0  0  0  0  0  0
    2.7436   -1.4048    0.0000 H   0  0  0  0  0  0  0  0  0  0  0  0
    3.6703   -3.0098    0.0000 H   0  0  0  0  0  0  0  0  0  0  0  0
    2.7437   -2.4748    0.0000 H   0  0  0  0  0  0  0  0  0  0  0  0
    6.7075   -0.1864    0.0000 H   0  0  0  0  0  0  0  0  0  0  0  0
    6.7074   -2.0433    0.0000 H   0  0  0  0  0  0  0  0  0  0  0  0
  1  8  1  0  0  0  0
  1  9  1  0  0  0  0
  2  4  1  0  0  0  0
  2  7  1  0  0  0  0
  2 15  1  0  0  0  0
  3 10  1  0  0  0  0
  3 14  2  0  0  0  0
  4  5  1  0  0  0  0
  4  8  1  0  0  0  0
  4 16  1  6  0  0  0
  5  6  1  0  0  0  0
  5 17  1  0  0  0  0
  5 18  1  0  0  0  0
  6  7  1  0  0  0  0
  6 19  1  0  0  0  0
  6 20  1  0  0  0  0
  7 21  1  0  0  0  0
  7 22  1  0  0  0  0
  8 23  1  0  0  0  0
  8 24  1  0  0  0  0
  9 10  2  0  0  0  0
  9 11  1  0  0  0  0
 10 12  1  0  0  0  0
 11 13  2  0  0  0  0
 11 25  1  0  0  0  0
 12 26  1  0  0  0  0
 12 27  1  0  0  0  0
 12 28  1  0  0  0  0
 13 14  1  0  0  0  0
 13 29  1  0  0  0  0
 14 30  1  0  0  0  0
M  END
>  <DRUGBANK_ID>
DB05458

>  <COMMON_NAME>
Pozanicline

>  <CAS_NUMBER>
161417-03-4

>  <UNII>
CL2002R563

>  <SYNONYMS>
Pozanicline

$$$$
