626
 OpenBabel10282417072D

 56 60  0  0  0  0  0  0  0  0999 V2000
   -0.0191    3.8946    0.0000 C   0  0  0  0  0  0  0  0  0  0  0  0
   -0.4316    4.6091    0.0000 O   0  0  0  0  0  0  0  0  0  0  0  0
    0.8059    3.8946    0.0000 N   0  0  0  0  0  0  0  0  0  0  0  0
    2.8601    4.5621    0.0000 N   0  0  0  0  0  0  0  0  0  0  0  0
    2.8601    3.2272    0.0000 C   0  0  0  0  0  0  0  0  0  0  0  0
    3.3450    3.8946    0.0000 N   0  0  0  0  0  0  0  0  0  0  0  0
    3.1150    2.4426    0.0000 N   0  0  0  0  0  0  0  0  0  0  0  0
    3.9220    2.2710    0.0000 C   0  0  0  0  0  0  0  0  0  0  0  0
    4.1769    1.4864    0.0000 C   0  0  0  0  0  0  0  0  0  0  0  0
    4.4740    2.8841    0.0000 O   0  0  0  0  0  0  0  0  0  0  0  0
    4.9839    1.3149    0.0000 C   0  0  0  0  0  0  0  0  0  0  0  0
    5.2388    0.5303    0.0000 C   0  0  0  0  0  0  0  0  0  0  0  0
    3.8798    0.0887    0.0000 C   0  0  0  0  0  0  0  0  0  0  0  0
    3.6249    0.8733    0.0000 C   0  0  0  0  0  0  0  0  0  0  0  0
    2.0755    4.3071    0.0000 C   0  0  0  0  0  0  0  0  0  0  0  0
    2.0755    3.4821    0.0000 C   0  0  0  0  0  0  0  0  0  0  0  0
    1.2908    3.2272    0.0000 C   0  0  0  0  0  0  0  0  0  0  0  0
    1.2908    4.5621    0.0000 C   0  0  0  0  0  0  0  0  0  0  0  0
    4.9417   -0.8675    0.0000 N   0  0  0  0  0  0  0  0  0  0  0  0
    5.7487   -1.0390    0.0000 C   0  0  0  0  0  0  0  0  0  0  0  0
    6.0037   -1.8236    0.0000 C   0  0  0  0  0  0  0  0  0  0  0  0
    5.4516   -2.4367    0.0000 N   0  0  0  0  0  0  0  0  0  0  0  0
    4.6446   -2.2652    0.0000 C   0  0  0  0  0  0  0  0  0  0  0  0
    4.3897   -1.4806    0.0000 C   0  0  0  0  0  0  0  0  0  0  0  0
    5.7066   -3.2213    0.0000 C   0  0  0  0  0  0  0  0  0  0  0  0
    4.6868   -0.0828    0.0000 C   0  0  0  0  0  0  0  0  0  0  0  0
   -2.5261    2.7676    0.0000 C   0  0  0  0  0  0  0  0  0  0  0  0
   -2.5261    3.5926    0.0000 C   0  0  0  0  0  0  0  0  0  0  0  0
   -1.7415    2.5127    0.0000 S   0  0  0  0  0  0  0  0  0  0  0  0
   -1.7415    3.8476    0.0000 C   0  0  0  0  0  0  0  0  0  0  0  0
   -1.2566    3.1801    0.0000 C   0  0  0  0  0  0  0  0  0  0  0  0
   -0.4316    3.1801    0.0000 C   0  0  0  0  0  0  0  0  0  0  0  0
    3.1643    5.4984    0.0000 H   0  0  0  0  0  0  0  0  0  0  0  0
    2.4562    1.7110    0.0000 H   0  0  0  0  0  0  0  0  0  0  0  0
    5.6744    2.0818    0.0000 H   0  0  0  0  0  0  0  0  0  0  0  0
    6.2482    0.3157    0.0000 H   0  0  0  0  0  0  0  0  0  0  0  0
    3.1893   -0.6782    0.0000 H   0  0  0  0  0  0  0  0  0  0  0  0
    2.6155    1.0879    0.0000 H   0  0  0  0  0  0  0  0  0  0  0  0
    0.9719    2.2457    0.0000 H   0  0  0  0  0  0  0  0  0  0  0  0
    0.9719    5.5436    0.0000 H   0  0  0  0  0  0  0  0  0  0  0  0
    6.4646   -0.2438    0.0000 H   0  0  0  0  0  0  0  0  0  0  0  0
    6.7953   -1.2614    0.0000 H   0  0  0  0  0  0  0  0  0  0  0  0
    7.0503   -2.0461    0.0000 H   0  0  0  0  0  0  0  0  0  0  0  0
    6.3343   -2.8412    0.0000 H   0  0  0  0  0  0  0  0  0  0  0  0
    3.9286   -3.0604    0.0000 H   0  0  0  0  0  0  0  0  0  0  0  0
    3.5980   -2.0427    0.0000 H   0  0  0  0  0  0  0  0  0  0  0  0
    3.3431   -1.2581    0.0000 H   0  0  0  0  0  0  0  0  0  0  0  0
    3.6737   -2.2758    0.0000 H   0  0  0  0  0  0  0  0  0  0  0  0
    4.9907   -4.0165    0.0000 H   0  0  0  0  0  0  0  0  0  0  0  0
    6.7532   -3.4437    0.0000 H   0  0  0  0  0  0  0  0  0  0  0  0
    6.0373   -4.2389    0.0000 H   0  0  0  0  0  0  0  0  0  0  0  0
   -3.3610    2.1610    0.0000 H   0  0  0  0  0  0  0  0  0  0  0  0
   -3.3610    4.1992    0.0000 H   0  0  0  0  0  0  0  0  0  0  0  0
   -1.4226    4.8291    0.0000 H   0  0  0  0  0  0  0  0  0  0  0  0
    0.1034    2.2535    0.0000 H   0  0  0  0  0  0  0  0  0  0  0  0
   -0.9666    2.2535    0.0000 H   0  0  0  0  0  0  0  0  0  0  0  0
  1  2  2  0  0  0  0
  1  3  1  0  0  0  0
  1 32  1  0  0  0  0
  3 17  1  0  0  0  0
  3 18  1  0  0  0  0
  4  6  1  0  0  0  0
  4 15  1  0  0  0  0
  4 33  1  0  0  0  0
  5  6  2  0  0  0  0
  5  7  1  0  0  0  0
  5 16  1  0  0  0  0
  7  8  1  0  0  0  0
  7 34  1  0  0  0  0
  8  9  1  0  0  0  0
  8 10  2  0  0  0  0
  9 11  2  0  0  0  0
  9 14  1  0  0  0  0
 11 12  1  0  0  0  0
 11 35  1  0  0  0  0
 12 26  2  0  0  0  0
 12 36  1  0  0  0  0
 13 14  2  0  0  0  0
 13 26  1  0  0  0  0
 13 37  1  0  0  0  0
 14 38  1  0  0  0  0
 15 16  1  0  0  0  0
 15 18  2  0  0  0  0
 16 17  2  0  0  0  0
 17 39  1  0  0  0  0
 18 40  1  0  0  0  0
 19 20  1  0  0  0  0
 19 24  1  0  0  0  0
 19 26  1  0  0  0  0
 20 21  1  0  0  0  0
 20 41  1  0  0  0  0
 20 42  1  0  0  0  0
 21 22  1  0  0  0  0
 21 43  1  0  0  0  0
 21 44  1  0  0  0  0
 22 23  1  0  0  0  0
 22 25  1  0  0  0  0
 23 24  1  0  0  0  0
 23 45  1  0  0  0  0
 23 46  1  0  0  0  0
 24 47  1  0  0  0  0
 24 48  1  0  0  0  0
 25 49  1  0  0  0  0
 25 50  1  0  0  0  0
 25 51  1  0  0  0  0
 27 28  2  0  0  0  0
 27 29  1  0  0  0  0
 27 52  1  0  0  0  0
 28 30  1  0  0  0  0
 28 53  1  0  0  0  0
 29 31  1  0  0  0  0
 30 31  2  0  0  0  0
 30 54  1  0  0  0  0
 31 32  1  0  0  0  0
 32 55  1  0  0  0  0
 32 56  1  0  0  0  0
M  END
>  <DRUGBANK_ID>
DB07186

>  <COMMON_NAME>
4-(4-METHYLPIPERAZIN-1-YL)-N-[5-(2-THIENYLACETYL)-1,5-DIHYDROPYRROLO[3,4-C]PYRAZOL-3-YL]BENZAMIDE

$$$$
