
 OpenBabel10282417072D

 61 64  0  0  0  0  0  0  0  0999 V2000
    0.0978    1.3644    0.0000 O   0  0  0  0  0  0  0  0  0  0  0  0
    3.0873    0.8340    0.0000 O   0  0  0  0  0  0  0  0  0  0  0  0
   -1.3346    1.3630    0.0000 N   0  0  0  0  0  0  0  0  0  0  0  0
    1.4576    0.8322    0.0000 N   0  0  0  0  0  0  0  0  0  0  0  0
   -0.5952    0.1212    0.0000 C   0  0  0  0  0  0  0  0  0  0  0  0
   -0.5961    0.9545    0.0000 C   0  0  0  0  0  0  0  0  0  0  0  0
   -1.4283    0.1205    0.0000 C   0  0  0  0  0  0  0  0  0  0  0  0
   -0.5943   -0.6826    0.0000 C   0  0  0  0  0  0  0  0  0  0  0  0
    0.2086    0.1220    0.0000 C   0  0  1  0  0  0  0  0  0  0  0  0
    0.1003   -1.1276    0.0000 C   0  0  0  0  0  0  0  0  0  0  0  0
   -1.8660   -0.5888    0.0000 C   0  0  0  0  0  0  0  0  0  0  0  0
   -1.8675    0.8289    0.0000 C   0  0  0  0  0  0  0  0  0  0  0  0
   -1.3321   -1.1291    0.0000 C   0  0  0  0  0  0  0  0  0  0  0  0
    0.6244    0.8315    0.0000 C   0  0  0  0  0  0  0  0  0  0  0  0
    0.6259   -0.5862    0.0000 C   0  0  0  0  0  0  0  0  0  0  0  0
   -2.0796    1.0406    0.0000 C   0  0  0  0  0  0  0  0  0  0  0  0
   -1.3939    2.1886    0.0000 C   0  0  0  0  0  0  0  0  0  0  0  0
    0.1011   -1.9315    0.0000 C   0  0  0  0  0  0  0  0  0  0  0  0
   -2.6628   -0.5895    0.0000 C   0  0  0  0  0  0  0  0  0  0  0  0
   -1.3313   -1.9329    0.0000 C   0  0  0  0  0  0  0  0  0  0  0  0
   -2.6642    0.8281    0.0000 C   0  0  0  0  0  0  0  0  0  0  0  0
   -2.2271    2.3414    0.0000 C   0  0  0  0  0  0  0  0  0  0  0  0
   -2.6065    1.6321    0.0000 C   0  0  0  0  0  0  0  0  0  0  0  0
   -3.0873    0.1188    0.0000 C   0  0  0  0  0  0  0  0  0  0  0  0
   -0.5928   -2.3414    0.0000 C   0  0  0  0  0  0  0  0  0  0  0  0
    1.8675    0.1238    0.0000 C   0  0  0  0  0  0  0  0  0  0  0  0
    1.8661    1.5781    0.0000 C   0  0  0  0  0  0  0  0  0  0  0  0
    2.6992    1.5790    0.0000 C   0  0  0  0  0  0  0  0  0  0  0  0
    2.7007    0.1246    0.0000 C   0  0  0  0  0  0  0  0  0  0  0  0
   -0.3218   -0.8073    0.0000 H   0  0  0  0  0  0  0  0  0  0  0  0
    1.0055   -0.6319    0.0000 H   0  0  0  0  0  0  0  0  0  0  0  0
   -1.3627   -1.4898    0.0000 H   0  0  0  0  0  0  0  0  0  0  0  0
   -1.3660    1.7309    0.0000 H   0  0  0  0  0  0  0  0  0  0  0  0
   -2.2314   -0.6228    0.0000 H   0  0  0  0  0  0  0  0  0  0  0  0
    0.0920    1.7597    0.0000 H   0  0  0  0  0  0  0  0  0  0  0  0
   -0.4456    0.8365    0.0000 H   0  0  0  0  0  0  0  0  0  0  0  0
    0.0991   -1.5176    0.0000 H   0  0  0  0  0  0  0  0  0  0  0  0
    1.6959   -0.5767    0.0000 H   0  0  0  0  0  0  0  0  0  0  0  0
    1.1691   -1.5081    0.0000 H   0  0  0  0  0  0  0  0  0  0  0  0
   -2.3103   -0.0042    0.0000 H   0  0  0  0  0  0  0  0  0  0  0  0
   -3.1150    0.7705    0.0000 H   0  0  0  0  0  0  0  0  0  0  0  0
   -0.5970    2.9026    0.0000 H   0  0  0  0  0  0  0  0  0  0  0  0
   -1.6840    3.2185    0.0000 H   0  0  0  0  0  0  0  0  0  0  0  0
    0.9977   -2.4426    0.0000 H   0  0  0  0  0  0  0  0  0  0  0  0
   -3.1711   -1.4876    0.0000 H   0  0  0  0  0  0  0  0  0  0  0  0
   -2.2200   -2.4575    0.0000 H   0  0  0  0  0  0  0  0  0  0  0  0
   -3.1743    1.7252    0.0000 H   0  0  0  0  0  0  0  0  0  0  0  0
   -2.6917    3.3053    0.0000 H   0  0  0  0  0  0  0  0  0  0  0  0
   -3.2969    2.3639    0.0000 H   0  0  0  0  0  0  0  0  0  0  0  0
   -3.6690    1.5059    0.0000 H   0  0  0  0  0  0  0  0  0  0  0  0
   -3.2097    2.5158    0.0000 H   0  0  0  0  0  0  0  0  0  0  0  0
   -4.1193    0.1177    0.0000 H   0  0  0  0  0  0  0  0  0  0  0  0
   -0.5782   -3.3733    0.0000 H   0  0  0  0  0  0  0  0  0  0  0  0
    1.3334   -0.8034    0.0000 H   0  0  0  0  0  0  0  0  0  0  0  0
    2.4034   -0.8023    0.0000 H   0  0  0  0  0  0  0  0  0  0  0  0
    1.3202    2.4984    0.0000 H   0  0  0  0  0  0  0  0  0  0  0  0
    2.3951    2.5082    0.0000 H   0  0  0  0  0  0  0  0  0  0  0  0
    3.2537    2.4941    0.0000 H   0  0  0  0  0  0  0  0  0  0  0  0
    2.1735    2.5110    0.0000 H   0  0  0  0  0  0  0  0  0  0  0  0
    3.2475   -0.7951    0.0000 H   0  0  0  0  0  0  0  0  0  0  0  0
    2.1721   -0.8057    0.0000 H   0  0  0  0  0  0  0  0  0  0  0  0
  1  6  2  0  0  0  0
  2 28  1  0  0  0  0
  2 29  1  0  0  0  0
  3  6  1  0  0  0  0
  3 16  1  0  0  0  0
  3 17  1  0  0  0  0
  4 14  1  0  0  0  0
  4 26  1  0  0  0  0
  4 27  1  0  0  0  0
  5  6  1  0  0  0  0
  5  7  1  0  0  0  0
  5  8  1  0  0  0  0
  5  9  1  0  0  0  0
  7 11  2  0  0  0  0
  7 12  1  0  0  0  0
  8 10  2  0  0  0  0
  8 13  1  0  0  0  0
  9 14  1  0  0  0  0
  9 15  1  0  0  0  0
  9 30  1  6  0  0  0
 10 18  1  0  0  0  0
 10 31  1  0  0  0  0
 11 19  1  0  0  0  0
 11 32  1  0  0  0  0
 12 21  2  0  0  0  0
 12 33  1  0  0  0  0
 13 20  2  0  0  0  0
 13 34  1  0  0  0  0
 14 35  1  0  0  0  0
 14 36  1  0  0  0  0
 15 37  1  0  0  0  0
 15 38  1  0  0  0  0
 15 39  1  0  0  0  0
 16 23  1  0  0  0  0
 16 40  1  0  0  0  0
 16 41  1  0  0  0  0
 17 22  1  0  0  0  0
 17 42  1  0  0  0  0
 17 43  1  0  0  0  0
 18 25  2  0  0  0  0
 18 44  1  0  0  0  0
 19 24  2  0  0  0  0
 19 45  1  0  0  0  0
 20 25  1  0  0  0  0
 20 46  1  0  0  0  0
 21 24  1  0  0  0  0
 21 47  1  0  0  0  0
 22 23  1  0  0  0  0
 22 48  1  0  0  0  0
 22 49  1  0  0  0  0
 23 50  1  0  0  0  0
 23 51  1  0  0  0  0
 24 52  1  0  0  0  0
 25 53  1  0  0  0  0
 26 29  1  0  0  0  0
 26 54  1  0  0  0  0
 26 55  1  0  0  0  0
 27 28  1  0  0  0  0
 27 56  1  0  0  0  0
 27 57  1  0  0  0  0
 28 58  1  0  0  0  0
 28 59  1  0  0  0  0
 29 60  1  0  0  0  0
 29 61  1  0  0  0  0
M  END
>  <DRUGBANK_ID>
DB01529

>  <COMMON_NAME>
Dextromoramide

>  <CAS_NUMBER>
357-56-2

>  <UNII>
9S4S6CIY83

>  <SYNONYMS>
(+)-1-(3-methyl-4-morpholino-2,2-diphenylbutyryl)pyrrolidine; (+)-4-(2-methyl-4-oxo-3,3-diphenyl-4-(1-pyrrolidinyl)butyl)morpholine; 1-((3S)-3-methyl-4-(4-morpholinyl)-1-oxo-2,2-diphenylbutyl)pyrrolidine; 4-(2-methyl-4-oxo-3,3-diphenyl-4-(1-pyrrolidinyl)butyl)morpholine; D-2,2-diphenyl-3-methyl-4-morpholinobutyrylpyrrolidine; dextromoramida; Dextromoramide; dextromoramidum; palphium; Pyrrolamidol

$$$$
