
 OpenBabel10282417072D

 19 19  0  0  0  0  0  0  0  0999 V2000
   -0.3572   -0.2062    0.0000 C   0  0  0  0  0  0  0  0  0  0  0  0
    0.3572   -0.6187    0.0000 C   0  0  0  0  0  0  0  0  0  0  0  0
    0.3572   -1.4437    0.0000 C   0  0  0  0  0  0  0  0  0  0  0  0
   -0.3572   -1.8562    0.0000 C   0  0  0  0  0  0  0  0  0  0  0  0
   -1.0717   -1.4437    0.0000 C   0  0  0  0  0  0  0  0  0  0  0  0
   -1.0717   -0.6187    0.0000 C   0  0  0  0  0  0  0  0  0  0  0  0
    1.0717   -1.8562    0.0000 O   0  0  0  0  0  0  0  0  0  0  0  0
   -0.3572    0.6187    0.0000 O   0  0  0  0  0  0  0  0  0  0  0  0
    0.3572    1.0312    0.0000 C   0  0  0  0  0  0  0  0  0  0  0  0
    0.3572    1.8562    0.0000 C   0  0  0  0  0  0  0  0  0  0  0  0
    1.0717    0.6187    0.0000 O   0  0  0  0  0  0  0  0  0  0  0  0
    1.2509   -0.1027    0.0000 H   0  0  0  0  0  0  0  0  0  0  0  0
   -0.3572   -2.8882    0.0000 H   0  0  0  0  0  0  0  0  0  0  0  0
   -1.9654   -1.9597    0.0000 H   0  0  0  0  0  0  0  0  0  0  0  0
   -1.9654   -0.1027    0.0000 H   0  0  0  0  0  0  0  0  0  0  0  0
    1.0717   -2.7932    0.0000 H   0  0  0  0  0  0  0  0  0  0  0  0
    1.2838    2.3912    0.0000 H   0  0  0  0  0  0  0  0  0  0  0  0
   -0.5694    2.3912    0.0000 H   0  0  0  0  0  0  0  0  0  0  0  0
    0.3572    2.9262    0.0000 H   0  0  0  0  0  0  0  0  0  0  0  0
  1  2  2  0  0  0  0
  1  6  1  0  0  0  0
  1  8  1  0  0  0  0
  2  3  1  0  0  0  0
  2 12  1  0  0  0  0
  3  4  2  0  0  0  0
  3  7  1  0  0  0  0
  4  5  1  0  0  0  0
  4 13  1  0  0  0  0
  5  6  2  0  0  0  0
  5 14  1  0  0  0  0
  6 15  1  0  0  0  0
  7 16  1  0  0  0  0
  8  9  1  0  0  0  0
  9 10  1  0  0  0  0
  9 11  2  0  0  0  0
 10 17  1  0  0  0  0
 10 18  1  0  0  0  0
 10 19  1  0  0  0  0
M  END
>  <DRUGBANK_ID>
DB15480

>  <COMMON_NAME>
Resorcinol monoacetate

>  <CAS_NUMBER>
102-29-4

>  <UNII>
YL6O37RD1S

>  <SYNONYMS>
Resorcinol acetate; Resorcinol monoacetate

$$$$
