
 OpenBabel10282417072D

 56 60  0  0  1  0  0  0  0  0999 V2000
    2.0202    2.6807    0.0000 Cl  0  0  0  0  0  0  0  0  0  0  0  0
    5.0937   -2.6642    0.0000 Cl  0  0  0  0  0  0  0  0  0  0  0  0
    8.0117    1.4927    0.0000 O   0  0  0  0  0  0  0  0  0  0  0  0
    2.8695   -1.4102    0.0000 N   0  0  0  0  0  0  0  0  0  0  0  0
    4.0828   -0.8917    0.0000 N   0  0  0  0  0  0  0  0  0  0  0  0
    6.5512    1.5014    0.0000 N   0  0  0  0  0  0  0  0  0  0  0  0
    1.6500   -0.8673    0.0000 N   0  0  0  0  0  0  0  0  0  0  0  0
    3.6703   -0.1772    0.0000 C   0  0  2  0  0  0  0  0  0  0  0  0
    4.3847    0.2353    0.0000 C   0  0  0  0  0  0  0  0  0  0  0  0
    2.9558   -0.5897    0.0000 C   0  0  0  0  0  0  0  0  0  0  0  0
    3.2577    0.5373    0.0000 C   0  0  0  0  0  0  0  0  0  0  0  0
    5.8137    0.2353    0.0000 C   0  0  0  0  0  0  0  0  0  0  0  0
    5.0993   -0.1772    0.0000 C   0  0  0  0  0  0  0  0  0  0  0  0
    5.8137    1.0603    0.0000 C   0  0  0  0  0  0  0  0  0  0  0  0
    4.3847    1.0603    0.0000 C   0  0  0  0  0  0  0  0  0  0  0  0
    6.5512   -0.2058    0.0000 C   0  0  0  0  0  0  0  0  0  0  0  0
    5.0993    1.4728    0.0000 C   0  0  0  0  0  0  0  0  0  0  0  0
    2.2021   -0.2542    0.0000 C   0  0  0  0  0  0  0  0  0  0  0  0
    2.4327    0.5373    0.0000 C   0  0  0  0  0  0  0  0  0  0  0  0
    3.6703    1.2517    0.0000 C   0  0  0  0  0  0  0  0  0  0  0  0
    7.2988    0.2181    0.0000 C   0  0  0  0  0  0  0  0  0  0  0  0
    7.2988    1.0775    0.0000 C   0  0  0  0  0  0  0  0  0  0  0  0
    2.0625   -1.5818    0.0000 C   0  0  0  0  0  0  0  0  0  0  0  0
    6.5417   -1.0308    0.0000 C   0  0  0  0  0  0  0  0  0  0  0  0
    3.4826   -1.9623    0.0000 C   0  0  0  0  0  0  0  0  0  0  0  0
    6.5417    2.3264    0.0000 C   0  0  0  0  0  0  0  0  0  0  0  0
    2.0202    1.2517    0.0000 C   0  0  0  0  0  0  0  0  0  0  0  0
    3.2577    1.9663    0.0000 C   0  0  0  0  0  0  0  0  0  0  0  0
    2.4327    1.9663    0.0000 C   0  0  0  0  0  0  0  0  0  0  0  0
    5.8225   -1.4350    0.0000 C   0  0  0  0  0  0  0  0  0  0  0  0
    7.2513   -1.4515    0.0000 C   0  0  0  0  0  0  0  0  0  0  0  0
    5.8129   -2.2600    0.0000 C   0  0  0  0  0  0  0  0  0  0  0  0
    7.2418   -2.2765    0.0000 C   0  0  0  0  0  0  0  0  0  0  0  0
    6.5226   -2.6807    0.0000 C   0  0  0  0  0  0  0  0  0  0  0  0
    3.5728   -1.7750    0.0000 H   0  0  0  0  0  0  0  0  0  0  0  0
    5.1028   -0.8917    0.0000 H   0  0  0  0  0  0  0  0  0  0  0  0
    5.0994   -1.2092    0.0000 H   0  0  0  0  0  0  0  0  0  0  0  0
    3.4910    1.5763    0.0000 H   0  0  0  0  0  0  0  0  0  0  0  0
    5.0994    2.5048    0.0000 H   0  0  0  0  0  0  0  0  0  0  0  0
    1.9875    0.7552    0.0000 H   0  0  0  0  0  0  0  0  0  0  0  0
    1.9167   -0.3564    0.0000 H   0  0  0  0  0  0  0  0  0  0  0  0
    4.7023    1.2516    0.0000 H   0  0  0  0  0  0  0  0  0  0  0  0
    8.1905   -0.3014    0.0000 H   0  0  0  0  0  0  0  0  0  0  0  0
    1.6428   -2.5246    0.0000 H   0  0  0  0  0  0  0  0  0  0  0  0
    3.2601   -3.0089    0.0000 H   0  0  0  0  0  0  0  0  0  0  0  0
    4.5002   -1.6317    0.0000 H   0  0  0  0  0  0  0  0  0  0  0  0
    4.2777   -2.6783    0.0000 H   0  0  0  0  0  0  0  0  0  0  0  0
    7.4621    2.8720    0.0000 H   0  0  0  0  0  0  0  0  0  0  0  0
    5.6090    2.8507    0.0000 H   0  0  0  0  0  0  0  0  0  0  0  0
    6.5294    3.3963    0.0000 H   0  0  0  0  0  0  0  0  0  0  0  0
    0.9882    1.2516    0.0000 H   0  0  0  0  0  0  0  0  0  0  0  0
    3.7737    2.8600    0.0000 H   0  0  0  0  0  0  0  0  0  0  0  0
    4.9348   -0.9087    0.0000 H   0  0  0  0  0  0  0  0  0  0  0  0
    8.1509   -0.9458    0.0000 H   0  0  0  0  0  0  0  0  0  0  0  0
    8.1295   -2.8028    0.0000 H   0  0  0  0  0  0  0  0  0  0  0  0
    6.5107   -3.7126    0.0000 H   0  0  0  0  0  0  0  0  0  0  0  0
  1 29  1  0  0  0  0
  2 32  1  0  0  0  0
  3 22  2  0  0  0  0
  4 10  1  0  0  0  0
  4 23  1  0  0  0  0
  4 25  1  0  0  0  0
  5 35  1  0  0  0  0
  5 36  1  0  0  0  0
  6 14  1  0  0  0  0
  6 22  1  0  0  0  0
  6 26  1  0  0  0  0
  7 18  1  0  0  0  0
  7 23  2  0  0  0  0
  8  5  1  6  0  0  0
  8  9  1  0  0  0  0
  8 10  1  0  0  0  0
  8 11  1  0  0  0  0
  9 13  2  0  0  0  0
  9 15  1  0  0  0  0
 10 18  2  0  0  0  0
 11 19  2  0  0  0  0
 11 20  1  0  0  0  0
 12 13  1  0  0  0  0
 12 14  2  0  0  0  0
 12 16  1  0  0  0  0
 13 37  1  0  0  0  0
 14 17  1  0  0  0  0
 15 17  2  0  0  0  0
 15 38  1  0  0  0  0
 16 21  2  0  0  0  0
 16 24  1  0  0  0  0
 17 39  1  0  0  0  0
 18 40  1  0  0  0  0
 19 27  1  0  0  0  0
 19 41  1  0  0  0  0
 20 28  2  0  0  0  0
 20 42  1  0  0  0  0
 21 22  1  0  0  0  0
 21 43  1  0  0  0  0
 23 44  1  0  0  0  0
 24 30  2  0  0  0  0
 24 31  1  0  0  0  0
 25 45  1  0  0  0  0
 25 46  1  0  0  0  0
 25 47  1  0  0  0  0
 26 48  1  0  0  0  0
 26 49  1  0  0  0  0
 26 50  1  0  0  0  0
 27 29  2  0  0  0  0
 27 51  1  0  0  0  0
 28 29  1  0  0  0  0
 28 52  1  0  0  0  0
 30 32  1  0  0  0  0
 30 53  1  0  0  0  0
 31 33  2  0  0  0  0
 31 54  1  0  0  0  0
 32 34  2  0  0  0  0
 33 34  1  0  0  0  0
 33 55  1  0  0  0  0
 34 56  1  0  0  0  0
M  END
>  <DRUGBANK_ID>
DB04960

>  <COMMON_NAME>
Tipifarnib

>  <CAS_NUMBER>
192185-72-1

>  <UNII>
MAT637500A

>  <SYNONYMS>
Tipifarnib; Zarnestra

$$$$
