
 OpenBabel10282417072D

 63 66  0  0  1  0  0  0  0  0999 V2000
    4.9111    6.8697    0.0000 C   0  0  0  0  0  0  0  0  0  0  0  0
    4.1041    6.6982    0.0000 C   0  0  2  0  0  0  0  0  0  0  0  0
    3.8492    5.9136    0.0000 O   0  0  0  0  0  0  0  0  0  0  0  0
    3.0422    5.7421    0.0000 C   0  0  2  0  0  0  0  0  0  0  0  0
    2.7873    4.9574    0.0000 O   0  0  0  0  0  0  0  0  0  0  0  0
    1.9803    4.7859    0.0000 P   0  0  3  0  0  0  0  0  0  0  0  0
    2.1518    3.9789    0.0000 O   0  0  0  0  0  0  0  0  0  0  0  0
    1.8088    5.5929    0.0000 O   0  0  0  0  0  0  0  0  0  0  0  0
    1.1733    4.6144    0.0000 O   0  0  0  0  0  0  0  0  0  0  0  0
    0.9184    3.8298    0.0000 P   0  0  3  0  0  0  0  0  0  0  0  0
    1.7030    3.5748    0.0000 O   0  0  0  0  0  0  0  0  0  0  0  0
    0.1338    4.0847    0.0000 O   0  0  0  0  0  0  0  0  0  0  0  0
    0.6635    3.0451    0.0000 O   0  0  0  0  0  0  0  0  0  0  0  0
   -0.1435    2.8736    0.0000 C   0  0  0  0  0  0  0  0  0  0  0  0
   -0.3984    2.0890    0.0000 C   0  0  1  0  0  0  0  0  0  0  0  0
    0.0865    1.4216    0.0000 O   0  0  0  0  0  0  0  0  0  0  0  0
   -0.3984    0.7541    0.0000 C   0  0  2  0  0  0  0  0  0  0  0  0
   -1.1831    1.0091    0.0000 C   0  0  2  0  0  0  0  0  0  0  0  0
   -1.8505    0.5241    0.0000 O   0  0  0  0  0  0  0  0  0  0  0  0
   -1.1831    1.8341    0.0000 C   0  0  2  0  0  0  0  0  0  0  0  0
   -1.8505    2.3190    0.0000 O   0  0  0  0  0  0  0  0  0  0  0  0
   -0.1435   -0.0305    0.0000 N   0  0  0  0  0  0  0  0  0  0  0  0
   -0.6284   -0.6979    0.0000 C   0  0  0  0  0  0  0  0  0  0  0  0
   -0.1435   -1.3654    0.0000 N   0  0  0  0  0  0  0  0  0  0  0  0
    0.6411   -1.1104    0.0000 C   0  0  0  0  0  0  0  0  0  0  0  0
    0.6411   -0.2854    0.0000 C   0  0  0  0  0  0  0  0  0  0  0  0
    1.3556    0.1271    0.0000 N   0  0  0  0  0  0  0  0  0  0  0  0
    2.0701   -0.2854    0.0000 C   0  0  0  0  0  0  0  0  0  0  0  0
    2.7845    0.1271    0.0000 N   0  0  0  0  0  0  0  0  0  0  0  0
    2.0701   -1.1104    0.0000 N   0  0  0  0  0  0  0  0  0  0  0  0
    1.3556   -1.5229    0.0000 C   0  0  0  0  0  0  0  0  0  0  0  0
    1.3556   -2.3479    0.0000 O   0  0  0  0  0  0  0  0  0  0  0  0
    2.4902    6.3552    0.0000 C   0  0  1  0  0  0  0  0  0  0  0  0
    1.6832    6.1836    0.0000 O   0  0  0  0  0  0  0  0  0  0  0  0
    2.7451    7.1398    0.0000 C   0  0  2  0  0  0  0  0  0  0  0  0
    2.1931    7.7529    0.0000 O   0  0  0  0  0  0  0  0  0  0  0  0
    3.5521    7.3113    0.0000 C   0  0  2  0  0  0  0  0  0  0  0  0
    3.8070    8.0959    0.0000 O   0  0  0  0  0  0  0  0  0  0  0  0
    5.6270    6.0745    0.0000 H   0  0  0  0  0  0  0  0  0  0  0  0
    5.2418    7.8873    0.0000 H   0  0  0  0  0  0  0  0  0  0  0  0
    5.9577    7.0921    0.0000 H   0  0  0  0  0  0  0  0  0  0  0  0
    4.8201    5.9030    0.0000 H   0  0  0  0  0  0  0  0  0  0  0  0
    3.7582    4.9469    0.0000 H   0  0  0  0  0  0  0  0  0  0  0  0
    1.4309    3.3299    0.0000 H   0  0  0  0  0  0  0  0  0  0  0  0
    1.9046    2.6260    0.0000 H   0  0  0  0  0  0  0  0  0  0  0  0
   -0.8595    3.6688    0.0000 H   0  0  0  0  0  0  0  0  0  0  0  0
   -1.1901    2.6511    0.0000 H   0  0  0  0  0  0  0  0  0  0  0  0
    0.6584    2.2564    0.0000 H   0  0  0  0  0  0  0  0  0  0  0  0
    0.6584    0.5867    0.0000 H   0  0  0  0  0  0  0  0  0  0  0  0
   -1.0157   -0.0477    0.0000 H   0  0  0  0  0  0  0  0  0  0  0  0
   -2.7367    0.9185    0.0000 H   0  0  0  0  0  0  0  0  0  0  0  0
   -2.1365    1.3483    0.0000 H   0  0  0  0  0  0  0  0  0  0  0  0
   -1.7491    3.2837    0.0000 H   0  0  0  0  0  0  0  0  0  0  0  0
   -1.6604   -0.6979    0.0000 H   0  0  0  0  0  0  0  0  0  0  0  0
    3.6371   -0.3651    0.0000 H   0  0  0  0  0  0  0  0  0  0  0  0
    2.7845    1.1116    0.0000 H   0  0  0  0  0  0  0  0  0  0  0  0
    2.9227   -1.6027    0.0000 H   0  0  0  0  0  0  0  0  0  0  0  0
    2.1596    5.3376    0.0000 H   0  0  0  0  0  0  0  0  0  0  0  0
    1.0341    6.9044    0.0000 H   0  0  0  0  0  0  0  0  0  0  0  0
    1.6985    6.9173    0.0000 H   0  0  0  0  0  0  0  0  0  0  0  0
    2.4929    8.6754    0.0000 H   0  0  0  0  0  0  0  0  0  0  0  0
    2.8361    8.1065    0.0000 H   0  0  0  0  0  0  0  0  0  0  0  0
    4.7558    8.2976    0.0000 H   0  0  0  0  0  0  0  0  0  0  0  0
  1 39  1  0  0  0  0
  1 40  1  0  0  0  0
  1 41  1  0  0  0  0
  2  1  1  0  0  0  0
  2  3  1  0  0  0  0
  2 42  1  1  0  0  0
  4  3  1  0  0  0  0
  4  5  1  0  0  0  0
  4 43  1  1  0  0  0
  5  6  1  0  0  0  0
  6  7  1  0  0  0  0
  6  8  2  0  0  0  0
  6  9  1  0  0  0  0
  7 44  1  0  0  0  0
  9 10  1  0  0  0  0
 10 11  1  0  0  0  0
 10 12  2  0  0  0  0
 10 13  1  0  0  0  0
 11 45  1  0  0  0  0
 13 14  1  0  0  0  0
 14 46  1  0  0  0  0
 14 47  1  0  0  0  0
 15 14  1  0  0  0  0
 15 16  1  0  0  0  0
 15 48  1  6  0  0  0
 17 16  1  0  0  0  0
 17 22  1  0  0  0  0
 17 49  1  6  0  0  0
 18 17  1  0  0  0  0
 18 19  1  0  0  0  0
 18 20  1  0  0  0  0
 18 50  1  1  0  0  0
 19 51  1  0  0  0  0
 20 15  1  0  0  0  0
 20 21  1  0  0  0  0
 20 52  1  1  0  0  0
 21 53  1  0  0  0  0
 22 23  1  0  0  0  0
 22 26  1  0  0  0  0
 23 24  2  0  0  0  0
 23 54  1  0  0  0  0
 24 25  1  0  0  0  0
 25 26  2  0  0  0  0
 25 31  1  0  0  0  0
 26 27  1  0  0  0  0
 27 28  2  0  0  0  0
 28 29  1  0  0  0  0
 28 30  1  0  0  0  0
 29 55  1  0  0  0  0
 29 56  1  0  0  0  0
 30 31  1  0  0  0  0
 30 57  1  0  0  0  0
 31 32  2  0  0  0  0
 33  4  1  0  0  0  0
 33 34  1  0  0  0  0
 33 35  1  0  0  0  0
 33 58  1  6  0  0  0
 34 59  1  0  0  0  0
 35 36  1  0  0  0  0
 35 37  1  0  0  0  0
 35 60  1  1  0  0  0
 36 61  1  0  0  0  0
 37  2  1  0  0  0  0
 37 38  1  0  0  0  0
 37 62  1  1  0  0  0
 38 63  1  0  0  0  0
M  END
>  <DRUGBANK_ID>
DB18689

>  <COMMON_NAME>
GDP-L-fucose

>  <CAS_NUMBER>
15839-70-0

>  <UNII>
SM108QK2IH

>  <SYNONYMS>
Gdp-.beta.-l-fucose; Gdp-fucose; Guanosine 5'-(trihydrogen pyrophosphate), mono(6-deoxy-l-galactopyranosyl) ester; Guanosine 5'-diphospho-.beta.-l-fucose; Guanosine 5'-pyrophosphate, .beta.-l-fucopyranosyl ester; Guanosine pyrophosphate, l-fucosyl ester

$$$$
