
 OpenBabel10282417072D

 42 44  0  0  0  0  0  0  0  0999 V2000
   17.7326   -9.2768    0.0000 C   0  0  0  0  0  0  0  0  0  0  0  0
   18.4412   -8.8604    0.0000 S   0  0  0  0  0  0  0  0  0  0  0  0
   17.7326  -10.0986    0.0000 C   0  0  0  0  0  0  0  0  0  0  0  0
   17.0204   -8.8604    0.0000 C   0  0  0  0  0  0  0  0  0  0  0  0
   19.1571   -9.2768    0.0000 N   0  0  0  0  0  0  0  0  0  0  0  0
   17.7290   -8.2760    0.0000 O   0  0  0  0  0  0  0  0  0  0  0  0
   19.1790   -8.2760    0.0000 O   0  0  0  0  0  0  0  0  0  0  0  0
   17.0204  -10.5076    0.0000 C   0  0  0  0  0  0  0  0  0  0  0  0
   16.3118   -9.2768    0.0000 C   0  0  0  0  0  0  0  0  0  0  0  0
   19.8693   -8.8604    0.0000 C   0  0  0  0  0  0  0  0  0  0  0  0
   16.3118  -10.0986    0.0000 C   0  0  0  0  0  0  0  0  0  0  0  0
   19.8620   -8.0386    0.0000 C   0  0  0  0  0  0  0  0  0  0  0  0
   20.5815   -9.2695    0.0000 N   0  0  0  0  0  0  0  0  0  0  0  0
   15.5959  -10.5076    0.0000 N   0  0  0  0  0  0  0  0  0  0  0  0
   20.5742   -7.6258    0.0000 C   0  0  0  0  0  0  0  0  0  0  0  0
   21.2937   -8.8568    0.0000 C   0  0  0  0  0  0  0  0  0  0  0  0
   14.7705  -10.0730    0.0000 N   0  0  0  0  0  0  0  0  0  0  0  0
   21.2901   -8.0350    0.0000 C   0  0  0  0  0  0  0  0  0  0  0  0
   13.9633  -10.5406    0.0000 C   0  0  0  0  0  0  0  0  0  0  0  0
   13.9633  -11.4755    0.0000 C   0  0  0  0  0  0  0  0  0  0  0  0
   13.1562  -10.0730    0.0000 C   0  0  0  0  0  0  0  0  0  0  0  0
   13.1562  -11.9430    0.0000 C   0  0  0  0  0  0  0  0  0  0  0  0
   12.3452  -10.5406    0.0000 C   0  0  0  0  0  0  0  0  0  0  0  0
   12.3490  -11.4755    0.0000 C   0  0  0  0  0  0  0  0  0  0  0  0
   13.1562  -12.8781    0.0000 C   0  0  0  0  0  0  0  0  0  0  0  0
   11.5381  -11.9468    0.0000 O   0  0  0  0  0  0  0  0  0  0  0  0
   13.9670  -13.3455    0.0000 O   0  0  0  0  0  0  0  0  0  0  0  0
   12.3490  -13.3455    0.0000 O   0  0  0  0  0  0  0  0  0  0  0  0
   18.6257  -10.6156    0.0000 H   0  0  0  0  0  0  0  0  0  0  0  0
   17.0193   -7.8284    0.0000 H   0  0  0  0  0  0  0  0  0  0  0  0
   19.1582  -10.2613    0.0000 H   0  0  0  0  0  0  0  0  0  0  0  0
   17.0193  -11.5396    0.0000 H   0  0  0  0  0  0  0  0  0  0  0  0
   15.4161   -8.7642    0.0000 H   0  0  0  0  0  0  0  0  0  0  0  0
   18.9655   -7.5273    0.0000 H   0  0  0  0  0  0  0  0  0  0  0  0
   20.5711   -6.5938    0.0000 H   0  0  0  0  0  0  0  0  0  0  0  0
   22.1890   -9.3701    0.0000 H   0  0  0  0  0  0  0  0  0  0  0  0
   22.1816   -7.5151    0.0000 H   0  0  0  0  0  0  0  0  0  0  0  0
   14.8574  -11.9909    0.0000 H   0  0  0  0  0  0  0  0  0  0  0  0
   13.1573   -9.0410    0.0000 H   0  0  0  0  0  0  0  0  0  0  0  0
   11.4506  -10.0262    0.0000 H   0  0  0  0  0  0  0  0  0  0  0  0
   10.7253  -11.4806    0.0000 H   0  0  0  0  0  0  0  0  0  0  0  0
   13.9676  -14.2825    0.0000 H   0  0  0  0  0  0  0  0  0  0  0  0
  1  2  1  0  0  0  0
  1  3  1  0  0  0  0
  1  4  2  0  0  0  0
  2  5  1  0  0  0  0
  2  6  2  0  0  0  0
  2  7  2  0  0  0  0
  3  8  2  0  0  0  0
  3 29  1  0  0  0  0
  4  9  1  0  0  0  0
  4 30  1  0  0  0  0
  5 10  1  0  0  0  0
  5 31  1  0  0  0  0
  8 11  1  0  0  0  0
  8 32  1  0  0  0  0
  9 11  2  0  0  0  0
  9 33  1  0  0  0  0
 10 12  1  0  0  0  0
 10 13  2  0  0  0  0
 11 14  1  0  0  0  0
 12 15  2  0  0  0  0
 12 34  1  0  0  0  0
 13 16  1  0  0  0  0
 14 17  2  0  0  0  0
 15 18  1  0  0  0  0
 15 35  1  0  0  0  0
 16 18  2  0  0  0  0
 16 36  1  0  0  0  0
 17 19  1  0  0  0  0
 18 37  1  0  0  0  0
 19 20  1  0  0  0  0
 19 21  2  0  0  0  0
 20 22  2  0  0  0  0
 20 38  1  0  0  0  0
 21 23  1  0  0  0  0
 21 39  1  0  0  0  0
 22 24  1  0  0  0  0
 22 25  1  0  0  0  0
 23 24  2  0  0  0  0
 23 40  1  0  0  0  0
 24 26  1  0  0  0  0
 25 27  1  0  0  0  0
 25 28  2  0  0  0  0
 26 41  1  0  0  0  0
 27 42  1  0  0  0  0
M  END
>  <DRUGBANK_ID>
DB00795

>  <SECONDARY_ACCESSION_NUMBERS>
APRD00152; DB08518

>  <COMMON_NAME>
Sulfasalazine

>  <CAS_NUMBER>
599-79-1

>  <UNII>
3XC8GUZ6CB

>  <SYNONYMS>
2-Hydroxy-5-((4-((2-pyridinylamino)sulfonyl)phenyl)azo)benzoic acid; 2-Hydroxy-5-[4-(pyridin-2-ylsulfamoyl)-phenylazo]-benzoic acid; 4-(Pyridyl-2-amidosulfonyl)-3'-carboxy-4'-hydroxyazobenzene; 5-((p-(2-Pyridylsulfamoyl)phenyl)azo)salicylic acid; 5-(4-(2-Pyridylsulfamoyl)phenylazo)-2-hydroxybenzoic acid; 5-(p-(2-Pyridylsulfamyl)phenylazo)salicylic acid; Azopyrin; Salazosulfapiridina; Salazosulfapyridine; Salazosulfapyridinum; Salicylazosulfapyridine; Sulfasalazin; Sulfasalazina; Sulfasalazine; Sulfasalazinum

$$$$
