
 OpenBabel10282417072D

 46 49  0  0  0  0  0  0  0  0999 V2000
   -3.9731   -1.1251    0.0000 C   0  0  0  0  0  0  0  0  0  0  0  0
   -3.2586   -1.5377    0.0000 C   0  0  0  0  0  0  0  0  0  0  0  0
   -2.5425   -1.1246    0.0000 C   0  0  0  0  0  0  0  0  0  0  0  0
   -2.5423   -0.2973    0.0000 C   0  0  0  0  0  0  0  0  0  0  0  0
   -1.8326    0.1199    0.0000 C   0  0  0  0  0  0  0  0  0  0  0  0
   -4.5848    0.2504    0.0000 N   0  0  0  0  0  0  0  0  0  0  0  0
   -3.9719   -0.2981    0.0000 C   0  0  0  0  0  0  0  0  0  0  0  0
   -3.2605    0.1165    0.0000 C   0  0  0  0  0  0  0  0  0  0  0  0
   -3.4367    0.9211    0.0000 C   0  0  0  0  0  0  0  0  0  0  0  0
   -4.2562    1.0008    0.0000 N   0  0  0  0  0  0  0  0  0  0  0  0
   -1.8314    0.9468    0.0000 C   0  0  0  0  0  0  0  0  0  0  0  0
   -1.1183   -0.2925    0.0000 C   0  0  0  0  0  0  0  0  0  0  0  0
   -0.4022    0.1204    0.0000 C   0  0  0  0  0  0  0  0  0  0  0  0
   -0.4051    0.9504    0.0000 C   0  0  0  0  0  0  0  0  0  0  0  0
   -1.1201    1.3594    0.0000 C   0  0  0  0  0  0  0  0  0  0  0  0
    2.4446    0.9549    0.0000 C   0  0  0  0  0  0  0  0  0  0  0  0
    2.4398    0.1283    0.0000 C   0  0  0  0  0  0  0  0  0  0  0  0
    3.1521   -0.2872    0.0000 C   0  0  0  0  0  0  0  0  0  0  0  0
    3.8697    0.1224    0.0000 C   0  0  0  0  0  0  0  0  0  0  0  0
    3.8705    0.9522    0.0000 C   0  0  0  0  0  0  0  0  0  0  0  0
    3.1576    1.3642    0.0000 C   0  0  0  0  0  0  0  0  0  0  0  0
    0.3016    1.3580    0.0000 N   0  0  0  0  0  0  0  0  0  0  0  0
    1.0133    0.9504    0.0000 C   0  0  0  0  0  0  0  0  0  0  0  0
    1.0138    0.1221    0.0000 O   0  0  0  0  0  0  0  0  0  0  0  0
    1.7274   -0.2892    0.0000 F   0  0  0  0  0  0  0  0  0  0  0  0
    1.7266    1.3672    0.0000 N   0  0  0  0  0  0  0  0  0  0  0  0
   -2.8892    1.5377    0.0000 N   0  0  0  0  0  0  0  0  0  0  0  0
    4.5848    1.3641    0.0000 C   0  0  0  0  0  0  0  0  0  0  0  0
   -4.8672   -1.6404    0.0000 H   0  0  0  0  0  0  0  0  0  0  0  0
   -3.2588   -2.5697    0.0000 H   0  0  0  0  0  0  0  0  0  0  0  0
   -1.6489   -1.6409    0.0000 H   0  0  0  0  0  0  0  0  0  0  0  0
   -5.5468    0.0413    0.0000 H   0  0  0  0  0  0  0  0  0  0  0  0
   -2.7253    1.4625    0.0000 H   0  0  0  0  0  0  0  0  0  0  0  0
   -1.1186   -1.3245    0.0000 H   0  0  0  0  0  0  0  0  0  0  0  0
    0.4923   -0.3943    0.0000 H   0  0  0  0  0  0  0  0  0  0  0  0
   -1.1232    2.3914    0.0000 H   0  0  0  0  0  0  0  0  0  0  0  0
    3.1472   -1.3192    0.0000 H   0  0  0  0  0  0  0  0  0  0  0  0
    4.7619   -0.3962    0.0000 H   0  0  0  0  0  0  0  0  0  0  0  0
    3.1591    2.3962    0.0000 H   0  0  0  0  0  0  0  0  0  0  0  0
    0.3001    2.3425    0.0000 H   0  0  0  0  0  0  0  0  0  0  0  0
    1.7229    2.3517    0.0000 H   0  0  0  0  0  0  0  0  0  0  0  0
   -1.9248    1.3397    0.0000 H   0  0  0  0  0  0  0  0  0  0  0  0
   -3.1999    2.4719    0.0000 H   0  0  0  0  0  0  0  0  0  0  0  0
    5.5112    0.8286    0.0000 H   0  0  0  0  0  0  0  0  0  0  0  0
    4.5854    2.4341    0.0000 H   0  0  0  0  0  0  0  0  0  0  0  0
    5.5117    1.8986    0.0000 H   0  0  0  0  0  0  0  0  0  0  0  0
  1  2  1  0  0  0  0
  1 29  1  0  0  0  0
  2  3  2  0  0  0  0
  2 30  1  0  0  0  0
  3  4  1  0  0  0  0
  3 31  1  0  0  0  0
  4  5  1  0  0  0  0
  5 12  1  0  0  0  0
  6  7  1  0  0  0  0
  6 32  1  0  0  0  0
  7  1  2  0  0  0  0
  7  8  1  0  0  0  0
  8  4  2  0  0  0  0
  8  9  1  0  0  0  0
  9 10  2  0  0  0  0
  9 27  1  0  0  0  0
 10  6  1  0  0  0  0
 11  5  2  0  0  0  0
 11 33  1  0  0  0  0
 12 13  2  0  0  0  0
 12 34  1  0  0  0  0
 13 14  1  0  0  0  0
 13 35  1  0  0  0  0
 14 15  2  0  0  0  0
 15 11  1  0  0  0  0
 15 36  1  0  0  0  0
 16 17  2  0  0  0  0
 16 26  1  0  0  0  0
 17 18  1  0  0  0  0
 18 19  2  0  0  0  0
 18 37  1  0  0  0  0
 19 20  1  0  0  0  0
 19 38  1  0  0  0  0
 20 21  2  0  0  0  0
 20 28  1  0  0  0  0
 21 16  1  0  0  0  0
 21 39  1  0  0  0  0
 22 14  1  0  0  0  0
 22 40  1  0  0  0  0
 23 22  1  0  0  0  0
 23 24  2  0  0  0  0
 23 26  1  0  0  0  0
 25 17  1  0  0  0  0
 26 41  1  0  0  0  0
 27 42  1  0  0  0  0
 27 43  1  0  0  0  0
 28 44  1  0  0  0  0
 28 45  1  0  0  0  0
 28 46  1  0  0  0  0
M  END
>  <DRUGBANK_ID>
DB06080

>  <COMMON_NAME>
Linifanib

>  <CAS_NUMBER>
796967-16-3

>  <UNII>
CO93X137CW

>  <SYNONYMS>
1-(4-(3-AMINO-1H-INDAZOL-4-YL)PHENYL)-3-(2-FLUORO-5-METHYLPHENYL)UREA; Linifanib; N-[4-(3-amino-1H-indazol-4-yl)phenyl]-N1-(2-fluoro-5-methylphenyl) urea; UREA, N-(4-(3-AMINO-1H-INDAZOL-4-YL)PHENYL)-N'-(2-FLUORO-5-METHYLPHENYL)-

$$$$
