
 OpenBabel10282417072D

 16 17  0  0  0  0  0  0  0  0999 V2000
    2.0945    0.0000    0.0000 O   0  0  0  0  0  0  0  0  0  0  0  0
    1.2695    0.0000    0.0000 C   0  0  0  0  0  0  0  0  0  0  0  0
    0.7846    0.6674    0.0000 N   0  0  0  0  0  0  0  0  0  0  0  0
   -0.7846    0.6674    0.0000 N   0  0  0  0  0  0  0  0  0  0  0  0
   -1.2695    0.0000    0.0000 C   0  0  0  0  0  0  0  0  0  0  0  0
   -2.0945    0.0000    0.0000 O   0  0  0  0  0  0  0  0  0  0  0  0
   -0.7846   -0.6674    0.0000 N   0  0  0  0  0  0  0  0  0  0  0  0
    0.7846   -0.6674    0.0000 N   0  0  0  0  0  0  0  0  0  0  0  0
    0.0000    0.4125    0.0000 C   0  0  1  0  0  0  0  0  0  0  0  0
    0.0000    1.2374    0.0000 H   0  0  0  0  0  0  0  0  0  0  0  0
    0.0000   -0.4125    0.0000 C   0  0  1  0  0  0  0  0  0  0  0  0
    0.0000   -1.2374    0.0000 H   0  0  0  0  0  0  0  0  0  0  0  0
    1.0888    1.6037    0.0000 H   0  0  0  0  0  0  0  0  0  0  0  0
   -1.0888    1.6037    0.0000 H   0  0  0  0  0  0  0  0  0  0  0  0
   -1.0888   -1.6037    0.0000 H   0  0  0  0  0  0  0  0  0  0  0  0
    1.0888   -1.6037    0.0000 H   0  0  0  0  0  0  0  0  0  0  0  0
  1  2  2  0  0  0  0
  2  3  1  0  0  0  0
  2  8  1  0  0  0  0
  3  9  1  0  0  0  0
  3 13  1  0  0  0  0
  4  5  1  0  0  0  0
  4 14  1  0  0  0  0
  5  6  2  0  0  0  0
  5  7  1  0  0  0  0
  7 11  1  0  0  0  0
  7 15  1  0  0  0  0
  8 16  1  0  0  0  0
  9  4  1  0  0  0  0
  9 11  1  0  0  0  0
  9 10  1  1  0  0  0
 11  8  1  0  0  0  0
 11 12  1  1  0  0  0
M  END
>  <DRUGBANK_ID>
DB03533

>  <SECONDARY_ACCESSION_NUMBERS>
EXPT01607

>  <COMMON_NAME>
Acetyleneurea

>  <CAS_NUMBER>
496-46-8

>  <UNII>
U9H2W4OS13

>  <SYNONYMS>
cis-glycoluril; Glycoluril; Glyoxaldiureine; Glyoxaldiurene

$$$$
