YRG
 OpenBabel10282417072D

 32 33  0  0  0  0  0  0  0  0999 V2000
   -1.8384    0.4663    0.0000 C   0  0  0  0  0  0  0  0  0  0  0  0
   -2.5529    0.8788    0.0000 C   0  0  0  0  0  0  0  0  0  0  0  0
   -3.2673    0.4663    0.0000 C   0  0  0  0  0  0  0  0  0  0  0  0
   -3.9818    0.8788    0.0000 Cl  0  0  0  0  0  0  0  0  0  0  0  0
   -3.2673   -0.3587    0.0000 C   0  0  0  0  0  0  0  0  0  0  0  0
   -2.5529   -0.7712    0.0000 C   0  0  0  0  0  0  0  0  0  0  0  0
   -1.8384   -0.3587    0.0000 C   0  0  0  0  0  0  0  0  0  0  0  0
   -1.1239   -0.7712    0.0000 O   0  0  0  0  0  0  0  0  0  0  0  0
   -0.4095   -0.3587    0.0000 C   0  0  2  0  0  0  0  0  0  0  0  0
   -0.4095    0.4663    0.0000 C   0  0  0  0  0  0  0  0  0  0  0  0
   -1.1239    0.8788    0.0000 O   0  0  0  0  0  0  0  0  0  0  0  0
    0.3050    0.8788    0.0000 O   0  0  0  0  0  0  0  0  0  0  0  0
    0.3050   -0.7712    0.0000 C   0  0  0  0  0  0  0  0  0  0  0  0
    1.0195   -0.3587    0.0000 C   0  0  0  0  0  0  0  0  0  0  0  0
    1.7340   -0.7712    0.0000 C   0  0  0  0  0  0  0  0  0  0  0  0
    2.4484   -0.3587    0.0000 C   0  0  0  0  0  0  0  0  0  0  0  0
    2.4484    0.4663    0.0000 C   0  0  0  0  0  0  0  0  0  0  0  0
    1.7340    0.8788    0.0000 C   0  0  0  0  0  0  0  0  0  0  0  0
    1.0195    0.4663    0.0000 C   0  0  0  0  0  0  0  0  0  0  0  0
   -0.9152   -0.0668    0.0000 H   0  0  0  0  0  0  0  0  0  0  0  0
   -0.9447    0.9823    0.0000 H   0  0  0  0  0  0  0  0  0  0  0  0
   -2.5529    1.9108    0.0000 H   0  0  0  0  0  0  0  0  0  0  0  0
   -4.1610   -0.8747    0.0000 H   0  0  0  0  0  0  0  0  0  0  0  0
   -2.5529   -1.8032    0.0000 H   0  0  0  0  0  0  0  0  0  0  0  0
   -1.1239    1.8158    0.0000 H   0  0  0  0  0  0  0  0  0  0  0  0
    0.3050   -1.8412    0.0000 H   0  0  0  0  0  0  0  0  0  0  0  0
    1.2316   -1.3062    0.0000 H   0  0  0  0  0  0  0  0  0  0  0  0
    1.7340   -1.8032    0.0000 H   0  0  0  0  0  0  0  0  0  0  0  0
    3.3421   -0.8747    0.0000 H   0  0  0  0  0  0  0  0  0  0  0  0
    3.3421    0.9823    0.0000 H   0  0  0  0  0  0  0  0  0  0  0  0
    1.7340    1.9108    0.0000 H   0  0  0  0  0  0  0  0  0  0  0  0
    0.1258    0.9823    0.0000 H   0  0  0  0  0  0  0  0  0  0  0  0
  1 21  1  0  0  0  0
  2  1  1  0  0  0  0
  2 22  1  0  0  0  0
  3  2  2  0  0  0  0
  4  3  1  0  0  0  0
  5  3  1  0  0  0  0
  5  6  2  0  0  0  0
  5 23  1  0  0  0  0
  6  7  1  0  0  0  0
  6 24  1  0  0  0  0
  7  1  2  0  0  0  0
  8  7  1  0  0  0  0
  9  8  1  0  0  0  0
  9 10  1  0  0  0  0
  9 20  1  1  0  0  0
 10 12  2  0  0  0  0
 10 11  1  0  0  0  0
 11 25  1  0  0  0  0
 13  9  1  0  0  0  0
 13 26  1  0  0  0  0
 13 27  1  0  0  0  0
 14 13  1  0  0  0  0
 15 14  1  0  0  0  0
 15 28  1  0  0  0  0
 16 15  2  0  0  0  0
 16 29  1  0  0  0  0
 17 16  1  0  0  0  0
 17 18  2  0  0  0  0
 17 30  1  0  0  0  0
 18 19  1  0  0  0  0
 18 31  1  0  0  0  0
 19 14  2  0  0  0  0
 19 32  1  0  0  0  0
M  END
>  <DRUGBANK_ID>
DB08760

>  <COMMON_NAME>
(2S)-2-(4-chlorophenoxy)-3-phenylpropanoic acid

$$$$
