
 OpenBabel10282417072D

 60 63  0  0  0  0  0  0  0  0999 V2000
   -1.8310    1.2236    0.0000 C   0  0  0  0  0  0  0  0  0  0  0  0
   -1.0241    1.3951    0.0000 O   0  0  0  0  0  0  0  0  0  0  0  0
   -0.4720    0.7820    0.0000 C   0  0  0  0  0  0  0  0  0  0  0  0
    0.3349    0.9536    0.0000 C   0  0  0  0  0  0  0  0  0  0  0  0
    0.8870    0.3405    0.0000 C   0  0  0  0  0  0  0  0  0  0  0  0
    0.6320   -0.4441    0.0000 C   0  0  0  0  0  0  0  0  0  0  0  0
   -0.1749   -0.6157    0.0000 C   0  0  0  0  0  0  0  0  0  0  0  0
   -0.7270   -0.0026    0.0000 C   0  0  0  0  0  0  0  0  0  0  0  0
    1.1841   -1.0572    0.0000 C   0  0  0  0  0  0  0  0  0  0  0  0
    1.8515   -1.5422    0.0000 C   0  0  0  0  0  0  0  0  0  0  0  0
    2.6361   -1.2872    0.0000 O   0  0  0  0  0  0  0  0  0  0  0  0
    1.5966   -2.3268    0.0000 N   0  0  0  0  0  0  0  0  0  0  0  0
    0.7716   -2.3268    0.0000 C   0  0  0  0  0  0  0  0  0  0  0  0
    0.2866   -2.9942    0.0000 O   0  0  0  0  0  0  0  0  0  0  0  0
    0.5166   -1.5422    0.0000 N   0  0  0  0  0  0  0  0  0  0  0  0
    2.0815   -2.9942    0.0000 C   0  0  0  0  0  0  0  0  0  0  0  0
    2.9020   -2.9080    0.0000 C   0  0  0  0  0  0  0  0  0  0  0  0
    3.3869   -3.5754    0.0000 N   0  0  0  0  0  0  0  0  0  0  0  0
    4.2074   -3.4892    0.0000 C   0  0  0  0  0  0  0  0  0  0  0  0
    4.6923   -4.1566    0.0000 C   0  0  0  0  0  0  0  0  0  0  0  0
    4.3567   -4.9103    0.0000 C   0  0  0  0  0  0  0  0  0  0  0  0
    3.5362   -4.9965    0.0000 C   0  0  0  0  0  0  0  0  0  0  0  0
    3.0513   -4.3291    0.0000 C   0  0  0  0  0  0  0  0  0  0  0  0
    1.7361   -0.4441    0.0000 C   0  0  0  0  0  0  0  0  0  0  0  0
    1.4812    0.3405    0.0000 C   0  0  0  0  0  0  0  0  0  0  0  0
    2.0332    0.9536    0.0000 C   0  0  0  0  0  0  0  0  0  0  0  0
    2.8402    0.7820    0.0000 C   0  0  0  0  0  0  0  0  0  0  0  0
    3.0951   -0.0026    0.0000 C   0  0  0  0  0  0  0  0  0  0  0  0
    2.5431   -0.6157    0.0000 C   0  0  0  0  0  0  0  0  0  0  0  0
    3.3922    1.3951    0.0000 O   0  0  0  0  0  0  0  0  0  0  0  0
    4.1992    1.2236    0.0000 C   0  0  0  0  0  0  0  0  0  0  0  0
   -2.5470    2.0188    0.0000 H   0  0  0  0  0  0  0  0  0  0  0  0
   -2.1617    0.2060    0.0000 H   0  0  0  0  0  0  0  0  0  0  0  0
   -2.8776    1.0011    0.0000 H   0  0  0  0  0  0  0  0  0  0  0  0
    0.6537    1.9351    0.0000 H   0  0  0  0  0  0  0  0  0  0  0  0
    1.8965    0.5551    0.0000 H   0  0  0  0  0  0  0  0  0  0  0  0
   -0.4937   -1.5972    0.0000 H   0  0  0  0  0  0  0  0  0  0  0  0
   -1.7365   -0.2172    0.0000 H   0  0  0  0  0  0  0  0  0  0  0  0
   -0.4197   -1.2380    0.0000 H   0  0  0  0  0  0  0  0  0  0  0  0
    1.6463   -3.9717    0.0000 H   0  0  0  0  0  0  0  0  0  0  0  0
    2.7104   -3.8599    0.0000 H   0  0  0  0  0  0  0  0  0  0  0  0
    3.3372   -1.9305    0.0000 H   0  0  0  0  0  0  0  0  0  0  0  0
    3.9661   -2.7962    0.0000 H   0  0  0  0  0  0  0  0  0  0  0  0
    4.6426   -2.5117    0.0000 H   0  0  0  0  0  0  0  0  0  0  0  0
    5.2715   -3.3774    0.0000 H   0  0  0  0  0  0  0  0  0  0  0  0
    5.7564   -4.0448    0.0000 H   0  0  0  0  0  0  0  0  0  0  0  0
    5.3212   -5.0223    0.0000 H   0  0  0  0  0  0  0  0  0  0  0  0
    4.9856   -5.7760    0.0000 H   0  0  0  0  0  0  0  0  0  0  0  0
    3.9214   -5.8878    0.0000 H   0  0  0  0  0  0  0  0  0  0  0  0
    3.1010   -5.9740    0.0000 H   0  0  0  0  0  0  0  0  0  0  0  0
    2.4721   -5.1083    0.0000 H   0  0  0  0  0  0  0  0  0  0  0  0
    1.9872   -4.4409    0.0000 H   0  0  0  0  0  0  0  0  0  0  0  0
    2.4224   -3.4634    0.0000 H   0  0  0  0  0  0  0  0  0  0  0  0
    0.4718    0.5551    0.0000 H   0  0  0  0  0  0  0  0  0  0  0  0
    1.7143    1.9351    0.0000 H   0  0  0  0  0  0  0  0  0  0  0  0
    4.1045   -0.2172    0.0000 H   0  0  0  0  0  0  0  0  0  0  0  0
    2.8620   -1.5972    0.0000 H   0  0  0  0  0  0  0  0  0  0  0  0
    4.5299    0.2060    0.0000 H   0  0  0  0  0  0  0  0  0  0  0  0
    4.9151    2.0188    0.0000 H   0  0  0  0  0  0  0  0  0  0  0  0
    5.2458    1.0012    0.0000 H   0  0  0  0  0  0  0  0  0  0  0  0
  1  2  1  0  0  0  0
  1 32  1  0  0  0  0
  1 33  1  0  0  0  0
  1 34  1  0  0  0  0
  2  3  1  0  0  0  0
  3  4  2  0  0  0  0
  3  8  1  0  0  0  0
  4  5  1  0  0  0  0
  4 35  1  0  0  0  0
  5  6  2  0  0  0  0
  5 36  1  0  0  0  0
  6  7  1  0  0  0  0
  6  9  1  0  0  0  0
  7  8  2  0  0  0  0
  7 37  1  0  0  0  0
  8 38  1  0  0  0  0
  9 10  1  0  0  0  0
  9 15  1  0  0  0  0
  9 24  1  0  0  0  0
 10 11  2  0  0  0  0
 10 12  1  0  0  0  0
 12 13  1  0  0  0  0
 12 16  1  0  0  0  0
 13 14  2  0  0  0  0
 13 15  1  0  0  0  0
 15 39  1  0  0  0  0
 16 17  1  0  0  0  0
 16 40  1  0  0  0  0
 16 41  1  0  0  0  0
 17 18  1  0  0  0  0
 17 42  1  0  0  0  0
 17 43  1  0  0  0  0
 18 19  1  0  0  0  0
 18 23  1  0  0  0  0
 19 20  1  0  0  0  0
 19 44  1  0  0  0  0
 19 45  1  0  0  0  0
 20 21  1  0  0  0  0
 20 46  1  0  0  0  0
 20 47  1  0  0  0  0
 21 22  1  0  0  0  0
 21 48  1  0  0  0  0
 21 49  1  0  0  0  0
 22 23  1  0  0  0  0
 22 50  1  0  0  0  0
 22 51  1  0  0  0  0
 23 52  1  0  0  0  0
 23 53  1  0  0  0  0
 24 25  2  0  0  0  0
 24 29  1  0  0  0  0
 25 26  1  0  0  0  0
 25 54  1  0  0  0  0
 26 27  2  0  0  0  0
 26 55  1  0  0  0  0
 27 28  1  0  0  0  0
 27 30  1  0  0  0  0
 28 29  2  0  0  0  0
 28 56  1  0  0  0  0
 29 57  1  0  0  0  0
 30 31  1  0  0  0  0
 31 58  1  0  0  0  0
 31 59  1  0  0  0  0
 31 60  1  0  0  0  0
M  END
>  <DRUGBANK_ID>
DB13276

>  <COMMON_NAME>
Idanpramine

>  <CAS_NUMBER>
25466-44-8

>  <UNII>
8WIO2013UA

$$$$
