
 OpenBabel10282417072D

 76 75  0  0  1  0  0  0  0  0999 V2000
    7.2336    5.0013    0.0000 C   0  0  0  0  0  0  0  0  0  0  0  0
    7.9480    5.4138    0.0000 C   0  0  0  0  0  0  0  0  0  0  0  0
    8.6625    5.0013    0.0000 C   0  0  0  0  0  0  0  0  0  0  0  0
    9.3770    5.4138    0.0000 C   0  0  0  0  0  0  0  0  0  0  0  0
   10.0914    5.0013    0.0000 C   0  0  0  0  0  0  0  0  0  0  0  0
   10.8059    5.4138    0.0000 C   0  0  0  0  0  0  0  0  0  0  0  0
   11.5204    5.0013    0.0000 C   0  0  0  0  0  0  0  0  0  0  0  0
   12.2349    5.4138    0.0000 C   0  0  0  0  0  0  0  0  0  0  0  0
   12.9493    5.0013    0.0000 C   0  0  0  0  0  0  0  0  0  0  0  0
   13.6638    5.4138    0.0000 C   0  0  0  0  0  0  0  0  0  0  0  0
   14.3783    5.0013    0.0000 C   0  0  0  0  0  0  0  0  0  0  0  0
   15.0927    5.4138    0.0000 C   0  0  0  0  0  0  0  0  0  0  0  0
   15.8072    5.0013    0.0000 C   0  0  0  0  0  0  0  0  0  0  0  0
   16.5217    5.4138    0.0000 C   0  0  0  0  0  0  0  0  0  0  0  0
   17.2362    5.0013    0.0000 C   0  0  0  0  0  0  0  0  0  0  0  0
   25.0953    5.4138    0.0000 C   0  0  0  0  0  0  0  0  0  0  0  0
   19.3796    5.4138    0.0000 C   0  0  0  0  0  0  0  0  0  0  0  0
   23.6664    5.4138    0.0000 C   0  0  0  0  0  0  0  0  0  0  0  0
   20.8085    5.4138    0.0000 C   0  0  0  0  0  0  0  0  0  0  0  0
   24.3809    5.8263    0.0000 C   0  0  1  0  0  0  0  0  0  0  0  0
   20.0940    5.0013    0.0000 C   0  0  1  0  0  0  0  0  0  0  0  0
   17.9506    5.4138    0.0000 C   0  0  0  0  0  0  0  0  0  0  0  0
   25.8098    5.8263    0.0000 O   0  0  0  0  0  0  0  0  0  0  0  0
   24.3809    6.6513    0.0000 O   0  0  0  0  0  0  0  0  0  0  0  0
   20.0940    4.1763    0.0000 O   0  0  0  0  0  0  0  0  0  0  0  0
   17.9506    6.2388    0.0000 O   0  0  0  0  0  0  0  0  0  0  0  0
   22.6499    4.6993    0.0000 O   0  5  0  0  0  0  0  0  0  0  0  0
   21.8249    6.1283    0.0000 O   0  0  0  0  0  0  0  0  0  0  0  0
   18.6651    5.0013    0.0000 O   0  0  0  0  0  0  0  0  0  0  0  0
   22.9519    5.8263    0.0000 O   0  0  0  0  0  0  0  0  0  0  0  0
   21.5230    5.0013    0.0000 O   0  0  0  0  0  0  0  0  0  0  0  0
   22.2374    5.4138    0.0000 P   0  0  3  0  0  0  0  0  0  0  0  0
   24.3809    5.0013    0.0000 H   0  0  0  0  0  0  0  0  0  0  0  0
   20.0940    5.8263    0.0000 H   0  0  0  0  0  0  0  0  0  0  0  0
    6.3069    5.5363    0.0000 H   0  0  0  0  0  0  0  0  0  0  0  0
    7.2336    3.9313    0.0000 H   0  0  0  0  0  0  0  0  0  0  0  0
    6.3070    4.4663    0.0000 H   0  0  0  0  0  0  0  0  0  0  0  0
    7.9480    6.4838    0.0000 H   0  0  0  0  0  0  0  0  0  0  0  0
    8.8746    5.9488    0.0000 H   0  0  0  0  0  0  0  0  0  0  0  0
    8.6625    3.9313    0.0000 H   0  0  0  0  0  0  0  0  0  0  0  0
    9.5891    4.4663    0.0000 H   0  0  0  0  0  0  0  0  0  0  0  0
    9.3770    6.4838    0.0000 H   0  0  0  0  0  0  0  0  0  0  0  0
   10.3037    5.9488    0.0000 H   0  0  0  0  0  0  0  0  0  0  0  0
   10.0914    3.9313    0.0000 H   0  0  0  0  0  0  0  0  0  0  0  0
   11.0180    4.4663    0.0000 H   0  0  0  0  0  0  0  0  0  0  0  0
   10.8059    6.4838    0.0000 H   0  0  0  0  0  0  0  0  0  0  0  0
   11.7325    5.9488    0.0000 H   0  0  0  0  0  0  0  0  0  0  0  0
   11.5204    3.9313    0.0000 H   0  0  0  0  0  0  0  0  0  0  0  0
   12.4470    4.4663    0.0000 H   0  0  0  0  0  0  0  0  0  0  0  0
   12.2349    6.4838    0.0000 H   0  0  0  0  0  0  0  0  0  0  0  0
   13.1616    5.9488    0.0000 H   0  0  0  0  0  0  0  0  0  0  0  0
   12.9493    3.9313    0.0000 H   0  0  0  0  0  0  0  0  0  0  0  0
   13.8759    4.4663    0.0000 H   0  0  0  0  0  0  0  0  0  0  0  0
   13.6638    6.4838    0.0000 H   0  0  0  0  0  0  0  0  0  0  0  0
   14.5904    5.9488    0.0000 H   0  0  0  0  0  0  0  0  0  0  0  0
   14.3783    3.9313    0.0000 H   0  0  0  0  0  0  0  0  0  0  0  0
   15.3050    4.4663    0.0000 H   0  0  0  0  0  0  0  0  0  0  0  0
   15.0927    6.4838    0.0000 H   0  0  0  0  0  0  0  0  0  0  0  0
   16.0193    5.9488    0.0000 H   0  0  0  0  0  0  0  0  0  0  0  0
   15.8072    3.9313    0.0000 H   0  0  0  0  0  0  0  0  0  0  0  0
   16.7338    4.4663    0.0000 H   0  0  0  0  0  0  0  0  0  0  0  0
   16.5217    6.4838    0.0000 H   0  0  0  0  0  0  0  0  0  0  0  0
   17.4483    5.9488    0.0000 H   0  0  0  0  0  0  0  0  0  0  0  0
   17.2362    3.9313    0.0000 H   0  0  0  0  0  0  0  0  0  0  0  0
   18.1629    4.4663    0.0000 H   0  0  0  0  0  0  0  0  0  0  0  0
   25.0953    4.3438    0.0000 H   0  0  0  0  0  0  0  0  0  0  0  0
   26.0219    4.8788    0.0000 H   0  0  0  0  0  0  0  0  0  0  0  0
   19.3796    6.4838    0.0000 H   0  0  0  0  0  0  0  0  0  0  0  0
   18.4530    5.9488    0.0000 H   0  0  0  0  0  0  0  0  0  0  0  0
   23.6664    4.3438    0.0000 H   0  0  0  0  0  0  0  0  0  0  0  0
   22.7398    4.8788    0.0000 H   0  0  0  0  0  0  0  0  0  0  0  0
   20.8085    6.4838    0.0000 H   0  0  0  0  0  0  0  0  0  0  0  0
   21.7351    5.9488    0.0000 H   0  0  0  0  0  0  0  0  0  0  0  0
   26.6498    5.3413    0.0000 H   0  0  0  0  0  0  0  0  0  0  0  0
   25.2209    7.1363    0.0000 H   0  0  0  0  0  0  0  0  0  0  0  0
   19.2540    3.6913    0.0000 H   0  0  0  0  0  0  0  0  0  0  0  0
  1 35  1  0  0  0  0
  1 36  1  0  0  0  0
  1 37  1  0  0  0  0
  2  1  1  0  0  0  0
  2 38  1  0  0  0  0
  2 39  1  0  0  0  0
  3  2  1  0  0  0  0
  3 40  1  0  0  0  0
  3 41  1  0  0  0  0
  4  3  1  0  0  0  0
  4 42  1  0  0  0  0
  4 43  1  0  0  0  0
  5  4  1  0  0  0  0
  5 44  1  0  0  0  0
  5 45  1  0  0  0  0
  6  5  1  0  0  0  0
  6 46  1  0  0  0  0
  6 47  1  0  0  0  0
  7  6  1  0  0  0  0
  7 48  1  0  0  0  0
  7 49  1  0  0  0  0
  8  7  1  0  0  0  0
  8 50  1  0  0  0  0
  8 51  1  0  0  0  0
  9  8  1  0  0  0  0
  9 52  1  0  0  0  0
  9 53  1  0  0  0  0
 10  9  1  0  0  0  0
 10 54  1  0  0  0  0
 10 55  1  0  0  0  0
 11 10  1  0  0  0  0
 11 56  1  0  0  0  0
 11 57  1  0  0  0  0
 12 11  1  0  0  0  0
 12 58  1  0  0  0  0
 12 59  1  0  0  0  0
 13 12  1  0  0  0  0
 13 60  1  0  0  0  0
 13 61  1  0  0  0  0
 14 13  1  0  0  0  0
 14 62  1  0  0  0  0
 14 63  1  0  0  0  0
 15 14  1  0  0  0  0
 15 64  1  0  0  0  0
 15 65  1  0  0  0  0
 16 66  1  0  0  0  0
 16 67  1  0  0  0  0
 17 68  1  0  0  0  0
 17 69  1  0  0  0  0
 18 70  1  0  0  0  0
 18 71  1  0  0  0  0
 19 72  1  0  0  0  0
 19 73  1  0  0  0  0
 20 16  1  0  0  0  0
 20 18  1  0  0  0  0
 20 24  1  0  0  0  0
 20 33  1  6  0  0  0
 21 17  1  0  0  0  0
 21 19  1  0  0  0  0
 21 25  1  0  0  0  0
 21 34  1  6  0  0  0
 22 15  1  0  0  0  0
 23 16  1  0  0  0  0
 23 74  1  0  0  0  0
 24 75  1  0  0  0  0
 25 76  1  0  0  0  0
 26 22  2  0  0  0  0
 29 17  1  0  0  0  0
 29 22  1  0  0  0  0
 30 18  1  0  0  0  0
 31 19  1  0  0  0  0
 32 27  1  0  0  0  0
 32 28  2  0  0  0  0
 32 30  1  0  0  0  0
 32 31  1  0  0  0  0
M  CHG  1  27  -1
M  END
>  <DRUGBANK_ID>
DB03438

>  <SECONDARY_ACCESSION_NUMBERS>
EXPT02571

>  <COMMON_NAME>
Lysophosphatidylglycerol

$$$$
