
 OpenBabel10282417072D

 27 28  0  0  1  0  0  0  0  0999 V2000
   -0.3984    0.7541    0.0000 C   0  0  0  0  0  0  0  0  0  0  0  0
   -0.3984   -2.1500    0.0000 C   0  0  0  0  0  0  0  0  0  0  0  0
   -0.6284   -0.6979    0.0000 C   0  0  0  0  0  0  0  0  0  0  0  0
    0.6411   -0.2854    0.0000 C   0  0  0  0  0  0  0  0  0  0  0  0
    0.6411   -1.1104    0.0000 C   0  0  0  0  0  0  0  0  0  0  0  0
    1.3556    0.1271    0.0000 C   0  0  1  0  0  0  0  0  0  0  0  0
    2.0701   -1.1104    0.0000 C   0  0  2  0  0  0  0  0  0  0  0  0
    2.7845   -1.5229    0.0000 N   0  0  0  0  0  0  0  0  0  0  0  0
    1.3556   -1.5229    0.0000 N   0  0  0  0  0  0  0  0  0  0  0  0
    2.0701   -0.2854    0.0000 N   0  0  0  0  0  0  0  0  0  0  0  0
   -0.1435   -0.0305    0.0000 N   0  3  0  0  0  0  0  0  0  0  0  0
   -0.1435   -1.3654    0.0000 N   0  0  0  0  0  0  0  0  0  0  0  0
    1.3556    0.9521    0.0000 O   0  0  0  0  0  0  0  0  0  0  0  0
    0.6411    0.5396    0.0000 H   0  0  0  0  0  0  0  0  0  0  0  0
    2.0701   -1.9354    0.0000 H   0  0  0  0  0  0  0  0  0  0  0  0
    0.3176    1.5492    0.0000 H   0  0  0  0  0  0  0  0  0  0  0  0
   -1.4450    0.9766    0.0000 H   0  0  0  0  0  0  0  0  0  0  0  0
   -0.7290    1.7717    0.0000 H   0  0  0  0  0  0  0  0  0  0  0  0
   -1.4450   -2.3725    0.0000 H   0  0  0  0  0  0  0  0  0  0  0  0
    0.3176   -2.9451    0.0000 H   0  0  0  0  0  0  0  0  0  0  0  0
   -0.7290   -3.1676    0.0000 H   0  0  0  0  0  0  0  0  0  0  0  0
   -1.6604   -0.6979    0.0000 H   0  0  0  0  0  0  0  0  0  0  0  0
    2.7845   -2.5429    0.0000 H   0  0  0  0  0  0  0  0  0  0  0  0
    3.6679   -1.0129    0.0000 H   0  0  0  0  0  0  0  0  0  0  0  0
    1.3556   -2.5074    0.0000 H   0  0  0  0  0  0  0  0  0  0  0  0
    2.9534    0.2246    0.0000 H   0  0  0  0  0  0  0  0  0  0  0  0
    2.1956    1.4371    0.0000 H   0  0  0  0  0  0  0  0  0  0  0  0
  1 16  1  0  0  0  0
  1 17  1  0  0  0  0
  1 18  1  0  0  0  0
  2 19  1  0  0  0  0
  2 20  1  0  0  0  0
  2 21  1  0  0  0  0
  3 22  1  0  0  0  0
  5  4  2  0  0  0  0
  6  4  1  0  0  0  0
  6 13  1  0  0  0  0
  6 14  1  1  0  0  0
  7  8  1  0  0  0  0
  7 15  1  1  0  0  0
  8 23  1  0  0  0  0
  8 24  1  0  0  0  0
  9  5  1  0  0  0  0
  9  7  1  0  0  0  0
  9 25  1  0  0  0  0
 10  6  1  0  0  0  0
 10  7  1  0  0  0  0
 10 26  1  0  0  0  0
 11  1  1  0  0  0  0
 11  3  2  0  0  0  0
 11  4  1  0  0  0  0
 12  2  1  0  0  0  0
 12  3  1  0  0  0  0
 12  5  1  0  0  0  0
 13 27  1  0  0  0  0
M  CHG  1  11   1
M  END
>  <DRUGBANK_ID>
DB01978

>  <SECONDARY_ACCESSION_NUMBERS>
EXPT02320

>  <COMMON_NAME>
7,9-Dimethylguanine

>  <CAS_NUMBER>
55235-22-8

$$$$
