
 OpenBabel10282417072D

 36 36  0  0  0  0  0  0  0  0999 V2000
   -1.0131    0.4280    0.0000 C   0  0  0  0  0  0  0  0  0  0  0  0
   -1.0131    1.1780    0.0000 P   0  0  0  0  0  0  0  0  0  0  0  0
   -1.0131   -0.3180    0.0000 P   0  0  0  0  0  0  0  0  0  0  0  0
   -0.2356    0.3652    0.0000 N   0  0  0  0  0  0  0  0  0  0  0  0
   -0.3063    1.2370    0.0000 O   0  0  0  0  0  0  0  0  0  0  0  0
   -0.2709   -0.3258    0.0000 O   0  0  0  0  0  0  0  0  0  0  0  0
   -1.0170    1.9202    0.0000 O   0  0  0  0  0  0  0  0  0  0  0  0
   -1.0170   -1.0680    0.0000 O   0  0  0  0  0  0  0  0  0  0  0  0
   -1.7671   -0.3141    0.0000 O   0  0  0  0  0  0  0  0  0  0  0  0
   -1.7671    1.1780    0.0000 O   0  0  0  0  0  0  0  0  0  0  0  0
    0.2945   -0.2669    0.0000 C   0  0  0  0  0  0  0  0  0  0  0  0
    1.0838   -0.0666    0.0000 C   0  0  0  0  0  0  0  0  0  0  0  0
   -0.0510   -1.0209    0.0000 C   0  0  0  0  0  0  0  0  0  0  0  0
    1.7435   -0.5655    0.0000 C   0  0  0  0  0  0  0  0  0  0  0  0
    0.3258   -1.7553    0.0000 C   0  0  0  0  0  0  0  0  0  0  0  0
    1.7671   -1.3901    0.0000 C   0  0  0  0  0  0  0  0  0  0  0  0
    1.1309   -1.9202    0.0000 C   0  0  0  0  0  0  0  0  0  0  0  0
   -0.2876   -0.3585    0.0000 H   0  0  0  0  0  0  0  0  0  0  0  0
    0.2325    1.2715    0.0000 H   0  0  0  0  0  0  0  0  0  0  0  0
   -0.1795    2.4096    0.0000 H   0  0  0  0  0  0  0  0  0  0  0  0
   -1.8596   -1.5486    0.0000 H   0  0  0  0  0  0  0  0  0  0  0  0
   -2.2477    0.5284    0.0000 H   0  0  0  0  0  0  0  0  0  0  0  0
   -2.2521    2.0180    0.0000 H   0  0  0  0  0  0  0  0  0  0  0  0
    0.9796   -1.0888    0.0000 H   0  0  0  0  0  0  0  0  0  0  0  0
    1.2958    0.9822    0.0000 H   0  0  0  0  0  0  0  0  0  0  0  0
    2.0845    0.3122    0.0000 H   0  0  0  0  0  0  0  0  0  0  0  0
   -1.1207   -1.0446    0.0000 H   0  0  0  0  0  0  0  0  0  0  0  0
   -0.5986   -1.9401    0.0000 H   0  0  0  0  0  0  0  0  0  0  0  0
    2.6946   -0.0752    0.0000 H   0  0  0  0  0  0  0  0  0  0  0  0
    2.6650   -1.1093    0.0000 H   0  0  0  0  0  0  0  0  0  0  0  0
   -0.3212   -2.6075    0.0000 H   0  0  0  0  0  0  0  0  0  0  0  0
    0.7024   -2.7568    0.0000 H   0  0  0  0  0  0  0  0  0  0  0  0
    2.7425   -1.8301    0.0000 H   0  0  0  0  0  0  0  0  0  0  0  0
    1.9116   -2.4503    0.0000 H   0  0  0  0  0  0  0  0  0  0  0  0
    1.3918   -2.9579    0.0000 H   0  0  0  0  0  0  0  0  0  0  0  0
    2.1483   -2.2516    0.0000 H   0  0  0  0  0  0  0  0  0  0  0  0
  1 18  1  0  0  0  0
  2  1  1  0  0  0  0
  3  1  1  0  0  0  0
  4  1  1  0  0  0  0
  4 19  1  0  0  0  0
  5  2  2  0  0  0  0
  6  3  2  0  0  0  0
  7  2  1  0  0  0  0
  7 20  1  0  0  0  0
  8  3  1  0  0  0  0
  8 21  1  0  0  0  0
  9  3  1  0  0  0  0
  9 22  1  0  0  0  0
 10  2  1  0  0  0  0
 10 23  1  0  0  0  0
 11  4  1  0  0  0  0
 11 24  1  0  0  0  0
 12 11  1  0  0  0  0
 12 25  1  0  0  0  0
 12 26  1  0  0  0  0
 13 11  1  0  0  0  0
 13 27  1  0  0  0  0
 13 28  1  0  0  0  0
 14 12  1  0  0  0  0
 14 29  1  0  0  0  0
 14 30  1  0  0  0  0
 15 13  1  0  0  0  0
 15 31  1  0  0  0  0
 15 32  1  0  0  0  0
 16 14  1  0  0  0  0
 16 17  1  0  0  0  0
 16 33  1  0  0  0  0
 16 34  1  0  0  0  0
 17 15  1  0  0  0  0
 17 35  1  0  0  0  0
 17 36  1  0  0  0  0
M  END
>  <DRUGBANK_ID>
DB06255

>  <COMMON_NAME>
Incadronic acid

>  <CAS_NUMBER>
124351-85-5

>  <UNII>
G5C4M8847E

>  <SYNONYMS>
Cimadronate; Incadronate; Incadronic acid

$$$$
