561
 OpenBabel10282417072D

 58 61  0  0  1  0  0  0  0  0999 V2000
    3.0614    1.1210    0.0000 O   0  0  0  0  0  0  0  0  0  0  0  0
    7.6863   -2.5022    0.0000 O   0  0  0  0  0  0  0  0  0  0  0  0
    4.5135    1.3510    0.0000 N   0  0  0  0  0  0  0  0  0  0  0  0
    6.7164   -1.1673    0.0000 N   0  0  0  0  0  0  0  0  0  0  0  0
    4.9260    0.0813    0.0000 C   0  0  3  0  0  0  0  0  0  0  0  0
    4.1010    0.0813    0.0000 C   0  0  0  0  0  0  0  0  0  0  0  0
    5.1809    0.8660    0.0000 C   0  0  0  0  0  0  0  0  0  0  0  0
    5.4110   -0.5861    0.0000 C   0  0  0  0  0  0  0  0  0  0  0  0
    3.8461    0.8660    0.0000 C   0  0  0  0  0  0  0  0  0  0  0  0
    3.2840   -0.0334    0.0000 C   0  0  0  0  0  0  0  0  0  0  0  0
    4.1010   -0.7437    0.0000 C   0  0  0  0  0  0  0  0  0  0  0  0
    6.2314   -0.4999    0.0000 C   0  0  0  0  0  0  0  0  0  0  0  0
    4.5135    2.1760    0.0000 C   0  0  0  0  0  0  0  0  0  0  0  0
    2.9749   -0.7984    0.0000 C   0  0  0  0  0  0  0  0  0  0  0  0
    4.8155   -1.1562    0.0000 C   0  0  0  0  0  0  0  0  0  0  0  0
    2.7761    0.6167    0.0000 C   0  0  0  0  0  0  0  0  0  0  0  0
    3.3865   -1.1562    0.0000 C   0  0  0  0  0  0  0  0  0  0  0  0
    6.3809   -1.9210    0.0000 C   0  0  0  0  0  0  0  0  0  0  0  0
    7.5369   -1.0811    0.0000 C   0  0  0  0  0  0  0  0  0  0  0  0
    5.2280    2.5885    0.0000 C   0  0  0  0  0  0  0  0  0  0  0  0
    6.8658   -2.5885    0.0000 C   0  0  0  0  0  0  0  0  0  0  0  0
    8.0218   -1.7485    0.0000 C   0  0  0  0  0  0  0  0  0  0  0  0
    2.1580   -0.9132    0.0000 C   0  0  0  0  0  0  0  0  0  0  0  0
    4.8155   -1.9812    0.0000 C   0  0  0  0  0  0  0  0  0  0  0  0
    1.9591    0.5019    0.0000 C   0  0  0  0  0  0  0  0  0  0  0  0
    3.3865   -1.9812    0.0000 C   0  0  0  0  0  0  0  0  0  0  0  0
    1.6500   -0.2630    0.0000 C   0  0  0  0  0  0  0  0  0  0  0  0
    4.1010   -2.3937    0.0000 C   0  0  0  0  0  0  0  0  0  0  0  0
    4.2970    0.9469    0.0000 H   0  0  0  0  0  0  0  0  0  0  0  0
    6.1985    1.1966    0.0000 H   0  0  0  0  0  0  0  0  0  0  0  0
    5.9375    0.1094    0.0000 H   0  0  0  0  0  0  0  0  0  0  0  0
    4.9758   -1.5636    0.0000 H   0  0  0  0  0  0  0  0  0  0  0  0
    6.0399   -1.4517    0.0000 H   0  0  0  0  0  0  0  0  0  0  0  0
    6.6666    0.4776    0.0000 H   0  0  0  0  0  0  0  0  0  0  0  0
    5.6025    0.3657    0.0000 H   0  0  0  0  0  0  0  0  0  0  0  0
    3.5869    2.7110    0.0000 H   0  0  0  0  0  0  0  0  0  0  0  0
    4.5135    3.2460    0.0000 H   0  0  0  0  0  0  0  0  0  0  0  0
    3.6102   -1.6116    0.0000 H   0  0  0  0  0  0  0  0  0  0  0  0
    5.7092   -0.6402    0.0000 H   0  0  0  0  0  0  0  0  0  0  0  0
    3.1627    1.5735    0.0000 H   0  0  0  0  0  0  0  0  0  0  0  0
    2.4928   -0.6402    0.0000 H   0  0  0  0  0  0  0  0  0  0  0  0
    5.3168   -2.0329    0.0000 H   0  0  0  0  0  0  0  0  0  0  0  0
    5.9457   -2.8985    0.0000 H   0  0  0  0  0  0  0  0  0  0  0  0
    7.9721   -0.1036    0.0000 H   0  0  0  0  0  0  0  0  0  0  0  0
    8.6010   -0.9693    0.0000 H   0  0  0  0  0  0  0  0  0  0  0  0
    6.1546    2.0535    0.0000 H   0  0  0  0  0  0  0  0  0  0  0  0
    5.2280    3.6585    0.0000 H   0  0  0  0  0  0  0  0  0  0  0  0
    6.1547    3.1235    0.0000 H   0  0  0  0  0  0  0  0  0  0  0  0
    6.4306   -3.5660    0.0000 H   0  0  0  0  0  0  0  0  0  0  0  0
    5.8017   -2.7003    0.0000 H   0  0  0  0  0  0  0  0  0  0  0  0
    9.0859   -1.6366    0.0000 H   0  0  0  0  0  0  0  0  0  0  0  0
    8.4570   -0.7710    0.0000 H   0  0  0  0  0  0  0  0  0  0  0  0
    1.7714   -1.8701    0.0000 H   0  0  0  0  0  0  0  0  0  0  0  0
    5.7092   -2.4972    0.0000 H   0  0  0  0  0  0  0  0  0  0  0  0
    1.3238    1.3152    0.0000 H   0  0  0  0  0  0  0  0  0  0  0  0
    2.4928   -2.4972    0.0000 H   0  0  0  0  0  0  0  0  0  0  0  0
    0.6280   -0.4066    0.0000 H   0  0  0  0  0  0  0  0  0  0  0  0
    4.1010   -3.4257    0.0000 H   0  0  0  0  0  0  0  0  0  0  0  0
  1  9  2  0  0  0  0
  2 21  1  0  0  0  0
  2 22  1  0  0  0  0
  3  7  1  0  0  0  0
  3  9  1  0  0  0  0
  3 13  1  0  0  0  0
  4 12  1  0  0  0  0
  4 18  1  0  0  0  0
  4 19  1  0  0  0  0
  5  6  1  0  0  0  0
  5  7  1  0  0  0  0
  5  8  1  0  0  0  0
  5 29  1  0  0  0  0
  6  9  1  0  0  0  0
  6 10  1  0  0  0  0
  6 11  1  0  0  0  0
  7 30  1  0  0  0  0
  7 31  1  0  0  0  0
  8 12  1  0  0  0  0
  8 32  1  0  0  0  0
  8 33  1  0  0  0  0
 10 14  2  0  0  0  0
 10 16  1  0  0  0  0
 11 15  2  0  0  0  0
 11 17  1  0  0  0  0
 12 34  1  0  0  0  0
 12 35  1  0  0  0  0
 13 20  1  0  0  0  0
 13 36  1  0  0  0  0
 13 37  1  0  0  0  0
 14 23  1  0  0  0  0
 14 38  1  0  0  0  0
 15 24  1  0  0  0  0
 15 39  1  0  0  0  0
 16 25  2  0  0  0  0
 16 40  1  0  0  0  0
 17 26  2  0  0  0  0
 17 41  1  0  0  0  0
 18 21  1  0  0  0  0
 18 42  1  0  0  0  0
 18 43  1  0  0  0  0
 19 22  1  0  0  0  0
 19 44  1  0  0  0  0
 19 45  1  0  0  0  0
 20 46  1  0  0  0  0
 20 47  1  0  0  0  0
 20 48  1  0  0  0  0
 21 49  1  0  0  0  0
 21 50  1  0  0  0  0
 22 51  1  0  0  0  0
 22 52  1  0  0  0  0
 23 27  2  0  0  0  0
 23 53  1  0  0  0  0
 24 28  2  0  0  0  0
 24 54  1  0  0  0  0
 25 27  1  0  0  0  0
 25 55  1  0  0  0  0
 26 28  1  0  0  0  0
 26 56  1  0  0  0  0
 27 57  1  0  0  0  0
 28 58  1  0  0  0  0
M  END
>  <DRUGBANK_ID>
DB00561

>  <SECONDARY_ACCESSION_NUMBERS>
APRD00935

>  <COMMON_NAME>
Doxapram

>  <CAS_NUMBER>
309-29-5

>  <UNII>
94F3830Q73

>  <SYNONYMS>
(Â±)-doxapram; 1-ethyl-4-(2-morpholinoethyl)-3,3-diphenyl-2-pyrrolidinone; Doxapram; Doxapramum

$$$$
