1103
 OpenBabel10282417072D

 58 60  0  0  1  0  0  0  0  0999 V2000
    2.3097   -3.3052    0.0000 Cl  0  0  0  0  0  0  0  0  0  0  0  0
    8.1336   -1.6156    0.0000 O   0  0  0  0  0  0  0  0  0  0  0  0
    3.0786    2.0765    0.0000 N   0  0  0  0  0  0  0  0  0  0  0  0
    5.2216   -0.8106    0.0000 N   0  0  0  0  0  0  0  0  0  0  0  0
    5.2216   -3.2853    0.0000 N   0  0  0  0  0  0  0  0  0  0  0  0
    4.5073   -0.3981    0.0000 C   0  0  3  0  0  0  0  0  0  0  0  0
    4.5073    0.4267    0.0000 C   0  0  0  0  0  0  0  0  0  0  0  0
    3.7929    0.8392    0.0000 C   0  0  0  0  0  0  0  0  0  0  0  0
    3.7929    1.6641    0.0000 C   0  0  0  0  0  0  0  0  0  0  0  0
    5.2216   -1.6355    0.0000 C   0  0  0  0  0  0  0  0  0  0  0  0
    3.7929   -0.8106    0.0000 C   0  0  0  0  0  0  0  0  0  0  0  0
    3.0786    2.9014    0.0000 C   0  0  0  0  0  0  0  0  0  0  0  0
    2.3641    1.6641    0.0000 C   0  0  0  0  0  0  0  0  0  0  0  0
    5.9361   -2.0479    0.0000 C   0  0  0  0  0  0  0  0  0  0  0  0
    4.5073   -2.0479    0.0000 C   0  0  0  0  0  0  0  0  0  0  0  0
    5.9361   -2.8728    0.0000 C   0  0  0  0  0  0  0  0  0  0  0  0
    4.5073   -2.8728    0.0000 C   0  0  0  0  0  0  0  0  0  0  0  0
    2.3641    3.3139    0.0000 C   0  0  0  0  0  0  0  0  0  0  0  0
    1.6498    2.0765    0.0000 C   0  0  0  0  0  0  0  0  0  0  0  0
    6.6734   -1.6069    0.0000 C   0  0  0  0  0  0  0  0  0  0  0  0
    3.7699   -1.6069    0.0000 C   0  0  0  0  0  0  0  0  0  0  0  0
    6.6734   -3.3139    0.0000 C   0  0  0  0  0  0  0  0  0  0  0  0
    3.7699   -3.3139    0.0000 C   0  0  0  0  0  0  0  0  0  0  0  0
    7.4209   -2.0308    0.0000 C   0  0  0  0  0  0  0  0  0  0  0  0
    7.4209   -2.8900    0.0000 C   0  0  0  0  0  0  0  0  0  0  0  0
    3.0225   -2.0308    0.0000 C   0  0  0  0  0  0  0  0  0  0  0  0
    3.0225   -2.8900    0.0000 C   0  0  0  0  0  0  0  0  0  0  0  0
    8.8496   -2.0252    0.0000 C   0  0  0  0  0  0  0  0  0  0  0  0
    6.0742   -0.3184    0.0000 H   0  0  0  0  0  0  0  0  0  0  0  0
    5.4340    0.1369    0.0000 H   0  0  0  0  0  0  0  0  0  0  0  0
    5.4340    0.9617    0.0000 H   0  0  0  0  0  0  0  0  0  0  0  0
    4.5073    1.4967    0.0000 H   0  0  0  0  0  0  0  0  0  0  0  0
    2.8662    0.3042    0.0000 H   0  0  0  0  0  0  0  0  0  0  0  0
    2.8663    1.3742    0.0000 H   0  0  0  0  0  0  0  0  0  0  0  0
    4.7195    2.1991    0.0000 H   0  0  0  0  0  0  0  0  0  0  0  0
    4.7195    1.1291    0.0000 H   0  0  0  0  0  0  0  0  0  0  0  0
    2.8662   -0.2756    0.0000 H   0  0  0  0  0  0  0  0  0  0  0  0
    3.7929   -1.8806    0.0000 H   0  0  0  0  0  0  0  0  0  0  0  0
    2.8663   -1.3456    0.0000 H   0  0  0  0  0  0  0  0  0  0  0  0
    4.0052    3.4364    0.0000 H   0  0  0  0  0  0  0  0  0  0  0  0
    3.0786    3.9714    0.0000 H   0  0  0  0  0  0  0  0  0  0  0  0
    2.3640    0.5941    0.0000 H   0  0  0  0  0  0  0  0  0  0  0  0
    1.4374    1.1291    0.0000 H   0  0  0  0  0  0  0  0  0  0  0  0
    2.3641    4.3839    0.0000 H   0  0  0  0  0  0  0  0  0  0  0  0
    1.4375    2.7789    0.0000 H   0  0  0  0  0  0  0  0  0  0  0  0
    1.4374    3.8489    0.0000 H   0  0  0  0  0  0  0  0  0  0  0  0
    1.6498    3.1465    0.0000 H   0  0  0  0  0  0  0  0  0  0  0  0
    0.7232    1.5415    0.0000 H   0  0  0  0  0  0  0  0  0  0  0  0
    0.7232    2.6115    0.0000 H   0  0  0  0  0  0  0  0  0  0  0  0
    6.6614   -0.5750    0.0000 H   0  0  0  0  0  0  0  0  0  0  0  0
    3.7818   -0.5750    0.0000 H   0  0  0  0  0  0  0  0  0  0  0  0
    6.6614   -4.3458    0.0000 H   0  0  0  0  0  0  0  0  0  0  0  0
    3.7818   -4.3458    0.0000 H   0  0  0  0  0  0  0  0  0  0  0  0
    8.3126   -3.4095    0.0000 H   0  0  0  0  0  0  0  0  0  0  0  0
    2.1307   -1.5114    0.0000 H   0  0  0  0  0  0  0  0  0  0  0  0
    8.8538   -3.0952    0.0000 H   0  0  0  0  0  0  0  0  0  0  0  0
    9.7741   -1.4865    0.0000 H   0  0  0  0  0  0  0  0  0  0  0  0
    9.7784   -2.5565    0.0000 H   0  0  0  0  0  0  0  0  0  0  0  0
  1 27  1  0  0  0  0
  2 24  1  0  0  0  0
  2 28  1  0  0  0  0
  3  9  1  0  0  0  0
  3 12  1  0  0  0  0
  3 13  1  0  0  0  0
  4  6  1  0  0  0  0
  4 10  1  0  0  0  0
  4 29  1  0  0  0  0
  5 16  2  0  0  0  0
  5 17  1  0  0  0  0
  6  7  1  0  0  0  0
  6 11  1  0  0  0  0
  6 30  1  0  0  0  0
  7  8  1  0  0  0  0
  7 31  1  0  0  0  0
  7 32  1  0  0  0  0
  8  9  1  0  0  0  0
  8 33  1  0  0  0  0
  8 34  1  0  0  0  0
  9 35  1  0  0  0  0
  9 36  1  0  0  0  0
 10 14  2  0  0  0  0
 10 15  1  0  0  0  0
 11 37  1  0  0  0  0
 11 38  1  0  0  0  0
 11 39  1  0  0  0  0
 12 18  1  0  0  0  0
 12 40  1  0  0  0  0
 12 41  1  0  0  0  0
 13 19  1  0  0  0  0
 13 42  1  0  0  0  0
 13 43  1  0  0  0  0
 14 16  1  0  0  0  0
 14 20  1  0  0  0  0
 15 17  2  0  0  0  0
 15 21  1  0  0  0  0
 16 22  1  0  0  0  0
 17 23  1  0  0  0  0
 18 44  1  0  0  0  0
 18 45  1  0  0  0  0
 18 46  1  0  0  0  0
 19 47  1  0  0  0  0
 19 48  1  0  0  0  0
 19 49  1  0  0  0  0
 20 24  2  0  0  0  0
 20 50  1  0  0  0  0
 21 26  2  0  0  0  0
 21 51  1  0  0  0  0
 22 25  2  0  0  0  0
 22 52  1  0  0  0  0
 23 27  2  0  0  0  0
 23 53  1  0  0  0  0
 24 25  1  0  0  0  0
 25 54  1  0  0  0  0
 26 27  1  0  0  0  0
 26 55  1  0  0  0  0
 28 56  1  0  0  0  0
 28 57  1  0  0  0  0
 28 58  1  0  0  0  0
M  END
>  <DRUGBANK_ID>
DB01103

>  <SECONDARY_ACCESSION_NUMBERS>
APRD00317

>  <COMMON_NAME>
Quinacrine

>  <CAS_NUMBER>
83-89-6

>  <UNII>
H0C805XYDE

>  <SYNONYMS>
2-methoxy-6-chloro-9-diethylaminopentylaminoacridine; 3-chloro-7-methoxy-9-(1-methyl-4-diethylaminobutylamino)acridine; 6-chloro-9-((4-(diethylamino)-1-methylbutyl)amino)-2-methoxyacridine; Mepacrine; N4-(6-chloro-2-methoxy-9-acridinyl)-N1,N1-diethyl-1,4-pentanediamine

$$$$
