35F
 OpenBabel10282417072D

 42 46  0  0  0  0  0  0  0  0999 V2000
    1.6815    0.4963    0.0000 C   0  0  0  0  0  0  0  0  0  0  0  0
    0.9670    0.9088    0.0000 C   0  0  0  0  0  0  0  0  0  0  0  0
    0.9670    1.7338    0.0000 C   0  0  0  0  0  0  0  0  0  0  0  0
   -0.0726   -0.1308    0.0000 C   0  0  0  0  0  0  0  0  0  0  0  0
   -0.5824   -1.7000    0.0000 C   0  0  0  0  0  0  0  0  0  0  0  0
    0.4795   -0.7439    0.0000 C   0  0  0  0  0  0  0  0  0  0  0  0
    3.1104    0.4963    0.0000 C   0  0  0  0  0  0  0  0  0  0  0  0
    4.4161    0.2187    0.0000 C   0  0  0  0  0  0  0  0  0  0  0  0
   -2.4935   -0.6454    0.0000 C   0  0  0  0  0  0  0  0  0  0  0  0
   -3.3005   -0.8169    0.0000 C   0  0  0  0  0  0  0  0  0  0  0  0
   -4.6280   -0.6774    0.0000 C   0  0  0  0  0  0  0  0  0  0  0  0
   -2.2385    0.1392    0.0000 O   0  0  0  0  0  0  0  0  0  0  0  0
   -3.6360   -1.5706    0.0000 O   0  0  0  0  0  0  0  0  0  0  0  0
   -4.4565   -1.4843    0.0000 C   0  0  0  0  0  0  0  0  0  0  0  0
   -3.9135   -0.2649    0.0000 C   0  0  0  0  0  0  0  0  0  0  0  0
   -1.9414   -1.2585    0.0000 N   0  0  0  0  0  0  0  0  0  0  0  0
   -1.1345   -1.0869    0.0000 C   0  0  0  0  0  0  0  0  0  0  0  0
   -0.8795   -0.3023    0.0000 C   0  0  0  0  0  0  0  0  0  0  0  0
    0.2245   -1.5285    0.0000 C   0  0  0  0  0  0  0  0  0  0  0  0
    0.1824    0.6538    0.0000 C   0  0  0  0  0  0  0  0  0  0  0  0
   -0.3026    1.3213    0.0000 N   0  0  0  0  0  0  0  0  0  0  0  0
    0.1824    1.9887    0.0000 N   0  0  0  0  0  0  0  0  0  0  0  0
    1.6815    2.1463    0.0000 C   0  0  0  0  0  0  0  0  0  0  0  0
    2.3959    1.7338    0.0000 C   0  0  0  0  0  0  0  0  0  0  0  0
    2.3959    0.9088    0.0000 C   0  0  0  0  0  0  0  0  0  0  0  0
    3.8641    0.8318    0.0000 N   0  0  0  0  0  0  0  0  0  0  0  0
    4.0036   -0.4957    0.0000 N   0  0  0  0  0  0  0  0  0  0  0  0
    3.1966   -0.3242    0.0000 N   0  0  0  0  0  0  0  0  0  0  0  0
    1.6815   -0.5357    0.0000 H   0  0  0  0  0  0  0  0  0  0  0  0
   -0.9013   -2.6815    0.0000 H   0  0  0  0  0  0  0  0  0  0  0  0
    1.4890   -0.5293    0.0000 H   0  0  0  0  0  0  0  0  0  0  0  0
    5.4425    0.3265    0.0000 H   0  0  0  0  0  0  0  0  0  0  0  0
   -5.5708   -0.2576    0.0000 H   0  0  0  0  0  0  0  0  0  0  0  0
   -5.1471   -2.2512    0.0000 H   0  0  0  0  0  0  0  0  0  0  0  0
   -3.8056    0.7614    0.0000 H   0  0  0  0  0  0  0  0  0  0  0  0
   -2.2456   -2.1948    0.0000 H   0  0  0  0  0  0  0  0  0  0  0  0
   -1.5700    0.4647    0.0000 H   0  0  0  0  0  0  0  0  0  0  0  0
    0.9150   -2.2955    0.0000 H   0  0  0  0  0  0  0  0  0  0  0  0
   -0.1218    2.9250    0.0000 H   0  0  0  0  0  0  0  0  0  0  0  0
    1.6815    3.1783    0.0000 H   0  0  0  0  0  0  0  0  0  0  0  0
    3.2896    2.2498    0.0000 H   0  0  0  0  0  0  0  0  0  0  0  0
    4.4040   -1.3951    0.0000 H   0  0  0  0  0  0  0  0  0  0  0  0
  1  2  2  0  0  0  0
  1 25  1  0  0  0  0
  1 29  1  0  0  0  0
  2  3  1  0  0  0  0
  2 20  1  0  0  0  0
  3 22  1  0  0  0  0
  3 23  2  0  0  0  0
  4  6  2  0  0  0  0
  4 18  1  0  0  0  0
  4 20  1  0  0  0  0
  5 17  1  0  0  0  0
  5 19  2  0  0  0  0
  5 30  1  0  0  0  0
  6 19  1  0  0  0  0
  6 31  1  0  0  0  0
  7 25  1  0  0  0  0
  7 26  1  0  0  0  0
  7 28  2  0  0  0  0
  8 26  2  0  0  0  0
  8 27  1  0  0  0  0
  8 32  1  0  0  0  0
  9 10  1  0  0  0  0
  9 12  2  0  0  0  0
  9 16  1  0  0  0  0
 10 13  1  0  0  0  0
 10 15  2  0  0  0  0
 11 14  2  0  0  0  0
 11 15  1  0  0  0  0
 11 33  1  0  0  0  0
 13 14  1  0  0  0  0
 14 34  1  0  0  0  0
 15 35  1  0  0  0  0
 16 17  1  0  0  0  0
 16 36  1  0  0  0  0
 17 18  2  0  0  0  0
 18 37  1  0  0  0  0
 19 38  1  0  0  0  0
 20 21  2  0  0  0  0
 21 22  1  0  0  0  0
 22 39  1  0  0  0  0
 23 24  1  0  0  0  0
 23 40  1  0  0  0  0
 24 25  2  0  0  0  0
 24 41  1  0  0  0  0
 27 28  1  0  0  0  0
 27 42  1  0  0  0  0
M  END
>  <DRUGBANK_ID>
DB07020

>  <COMMON_NAME>
N-{3-[5-(1H-1,2,4-triazol-3-yl)-1H-indazol-3-yl]phenyl}furan-2-carboxamide

$$$$
