
 OpenBabel10282417072D

 34 34  0  0  0  0  0  0  0  0999 V2000
    0.7063    1.2406    0.0000 N   0  0  0  0  0  0  0  0  0  0  0  0
   -0.0054    1.6538    0.0000 C   0  0  0  0  0  0  0  0  0  0  0  0
    1.4237    1.6564    0.0000 C   0  0  0  0  0  0  0  0  0  0  0  0
    0.7155    0.4088    0.0000 C   0  0  0  0  0  0  0  0  0  0  0  0
   -0.0099    2.4767    0.0000 N   0  0  0  0  0  0  0  0  0  0  0  0
   -0.7210    1.2390    0.0000 O   0  0  0  0  0  0  0  0  0  0  0  0
    1.4228    2.4815    0.0000 C   0  0  0  0  0  0  0  0  0  0  0  0
    0.0053   -0.0032    0.0000 N   0  0  0  0  0  0  0  0  0  0  0  0
    1.4421    0.0008    0.0000 O   0  0  0  0  0  0  0  0  0  0  0  0
    0.7073    2.8923    0.0000 C   0  0  0  0  0  0  0  0  0  0  0  0
    2.1349    2.8941    0.0000 F   0  0  0  0  0  0  0  0  0  0  0  0
    0.0036   -0.8288    0.0000 C   0  0  0  0  0  0  0  0  0  0  0  0
    0.7119    3.7246    0.0000 O   0  0  0  0  0  0  0  0  0  0  0  0
   -0.7090   -1.2453    0.0000 C   0  0  0  0  0  0  0  0  0  0  0  0
   -0.7103   -2.0703    0.0000 C   0  0  0  0  0  0  0  0  0  0  0  0
   -1.4231   -2.4868    0.0000 C   0  0  0  0  0  0  0  0  0  0  0  0
   -1.4243   -3.3117    0.0000 C   0  0  0  0  0  0  0  0  0  0  0  0
   -2.1349   -3.7246    0.0000 C   0  0  0  0  0  0  0  0  0  0  0  0
    2.3182    1.1416    0.0000 H   0  0  0  0  0  0  0  0  0  0  0  0
   -0.8642    2.9659    0.0000 H   0  0  0  0  0  0  0  0  0  0  0  0
   -0.8473    0.4890    0.0000 H   0  0  0  0  0  0  0  0  0  0  0  0
    0.9311   -1.3623    0.0000 H   0  0  0  0  0  0  0  0  0  0  0  0
    0.0073   -1.8988    0.0000 H   0  0  0  0  0  0  0  0  0  0  0  0
   -1.6366   -0.7120    0.0000 H   0  0  0  0  0  0  0  0  0  0  0  0
   -1.6356   -1.7804    0.0000 H   0  0  0  0  0  0  0  0  0  0  0  0
    0.2173   -2.6036    0.0000 H   0  0  0  0  0  0  0  0  0  0  0  0
   -0.7065   -3.1403    0.0000 H   0  0  0  0  0  0  0  0  0  0  0  0
   -2.3507   -1.9535    0.0000 H   0  0  0  0  0  0  0  0  0  0  0  0
   -2.3496   -3.0220    0.0000 H   0  0  0  0  0  0  0  0  0  0  0  0
   -0.4973   -3.8461    0.0000 H   0  0  0  0  0  0  0  0  0  0  0  0
   -1.4225   -4.3817    0.0000 H   0  0  0  0  0  0  0  0  0  0  0  0
   -3.0630   -3.1922    0.0000 H   0  0  0  0  0  0  0  0  0  0  0  0
   -2.1319   -4.7946    0.0000 H   0  0  0  0  0  0  0  0  0  0  0  0
   -3.0601   -4.2622    0.0000 H   0  0  0  0  0  0  0  0  0  0  0  0
  1  2  1  0  0  0  0
  1  3  1  0  0  0  0
  1  4  1  0  0  0  0
  2  5  1  0  0  0  0
  2  6  2  0  0  0  0
  3  7  2  0  0  0  0
  3 19  1  0  0  0  0
  4  8  1  0  0  0  0
  4  9  2  0  0  0  0
  5 10  1  0  0  0  0
  5 20  1  0  0  0  0
  7 11  1  0  0  0  0
  7 10  1  0  0  0  0
  8 12  1  0  0  0  0
  8 21  1  0  0  0  0
 10 13  2  0  0  0  0
 12 14  1  0  0  0  0
 12 22  1  0  0  0  0
 12 23  1  0  0  0  0
 14 15  1  0  0  0  0
 14 24  1  0  0  0  0
 14 25  1  0  0  0  0
 15 16  1  0  0  0  0
 15 26  1  0  0  0  0
 15 27  1  0  0  0  0
 16 17  1  0  0  0  0
 16 28  1  0  0  0  0
 16 29  1  0  0  0  0
 17 18  1  0  0  0  0
 17 30  1  0  0  0  0
 17 31  1  0  0  0  0
 18 32  1  0  0  0  0
 18 33  1  0  0  0  0
 18 34  1  0  0  0  0
M  END
>  <DRUGBANK_ID>
DB09010

>  <COMMON_NAME>
Carmofur

>  <CAS_NUMBER>
61422-45-5

>  <UNII>
HA82M3RAB2

>  <SYNONYMS>
Carmofur

$$$$
