PPL
 OpenBabel10282417072D

 33 33  0  0  0  0  0  0  0  0999 V2000
   -0.2730    1.3659    0.0000 N   0  0  0  0  0  0  0  0  0  0  0  0
   -0.2730    0.5409    0.0000 C   0  0  1  0  0  0  0  0  0  0  0  0
   -0.9875    0.1284    0.0000 C   0  0  0  0  0  0  0  0  0  0  0  0
   -1.7020    0.5409    0.0000 C   0  0  0  0  0  0  0  0  0  0  0  0
   -1.7020    1.3659    0.0000 C   0  0  0  0  0  0  0  0  0  0  0  0
   -0.9875    1.7784    0.0000 C   0  0  0  0  0  0  0  0  0  0  0  0
    0.4415    0.1284    0.0000 C   0  0  0  0  0  0  0  0  0  0  0  0
    1.1559    0.5409    0.0000 O   0  0  0  0  0  0  0  0  0  0  0  0
    0.4415   -0.6966    0.0000 N   0  0  0  0  0  0  0  0  0  0  0  0
    1.1559   -1.1091    0.0000 C   0  0  0  0  0  0  0  0  0  0  0  0
    1.8704   -1.5216    0.0000 C   0  0  0  0  0  0  0  0  0  0  0  0
    0.7434   -1.8236    0.0000 C   0  0  0  0  0  0  0  0  0  0  0  0
    1.5684   -0.3947    0.0000 C   0  0  0  0  0  0  0  0  0  0  0  0
    0.2327    0.8328    0.0000 H   0  0  0  0  0  0  0  0  0  0  0  0
    0.6103    1.8759    0.0000 H   0  0  0  0  0  0  0  0  0  0  0  0
   -0.9875   -0.9416    0.0000 H   0  0  0  0  0  0  0  0  0  0  0  0
   -1.9141   -0.4066    0.0000 H   0  0  0  0  0  0  0  0  0  0  0  0
   -2.6286    0.0059    0.0000 H   0  0  0  0  0  0  0  0  0  0  0  0
   -2.6286    1.0759    0.0000 H   0  0  0  0  0  0  0  0  0  0  0  0
   -2.6286    1.9009    0.0000 H   0  0  0  0  0  0  0  0  0  0  0  0
   -1.7020    2.4359    0.0000 H   0  0  0  0  0  0  0  0  0  0  0  0
   -0.9875    2.8484    0.0000 H   0  0  0  0  0  0  0  0  0  0  0  0
   -1.9141    2.3134    0.0000 H   0  0  0  0  0  0  0  0  0  0  0  0
   -0.4111   -1.1888    0.0000 H   0  0  0  0  0  0  0  0  0  0  0  0
    1.8704   -2.5916    0.0000 H   0  0  0  0  0  0  0  0  0  0  0  0
    2.7970   -0.9866    0.0000 H   0  0  0  0  0  0  0  0  0  0  0  0
    2.7971   -2.0566    0.0000 H   0  0  0  0  0  0  0  0  0  0  0  0
   -0.3266   -1.8236    0.0000 H   0  0  0  0  0  0  0  0  0  0  0  0
    1.2784   -2.7502    0.0000 H   0  0  0  0  0  0  0  0  0  0  0  0
    0.2084   -2.7503    0.0000 H   0  0  0  0  0  0  0  0  0  0  0  0
    2.6384   -0.3947    0.0000 H   0  0  0  0  0  0  0  0  0  0  0  0
    1.0334    0.5320    0.0000 H   0  0  0  0  0  0  0  0  0  0  0  0
    2.1034    0.5319    0.0000 H   0  0  0  0  0  0  0  0  0  0  0  0
  1  2  1  0  0  0  0
  1  6  1  0  0  0  0
  1 15  1  0  0  0  0
  2  3  1  0  0  0  0
  2  7  1  0  0  0  0
  2 14  1  1  0  0  0
  3  4  1  0  0  0  0
  3 16  1  0  0  0  0
  3 17  1  0  0  0  0
  4  5  1  0  0  0  0
  4 18  1  0  0  0  0
  4 19  1  0  0  0  0
  5  6  1  0  0  0  0
  5 20  1  0  0  0  0
  5 21  1  0  0  0  0
  6 22  1  0  0  0  0
  6 23  1  0  0  0  0
  7  8  2  0  0  0  0
  7  9  1  0  0  0  0
  9 10  1  0  0  0  0
  9 24  1  0  0  0  0
 10 11  1  0  0  0  0
 10 12  1  0  0  0  0
 10 13  1  0  0  0  0
 11 25  1  0  0  0  0
 11 26  1  0  0  0  0
 11 27  1  0  0  0  0
 12 28  1  0  0  0  0
 12 29  1  0  0  0  0
 12 30  1  0  0  0  0
 13 31  1  0  0  0  0
 13 32  1  0  0  0  0
 13 33  1  0  0  0  0
M  END
>  <DRUGBANK_ID>
DB08421

>  <COMMON_NAME>
PIPERIDINE-2-CARBOXYLIC ACID TERT-BUTYLAMIDE

$$$$
