
 OpenBabel10282417072D

 41 43  0  0  0  0  0  0  0  0999 V2000
    0.3739   -3.7192    0.0000 C   0  0  0  0  0  0  0  0  0  0  0  0
   -0.1781   -3.1062    0.0000 N   0  0  0  0  0  0  0  0  0  0  0  0
    0.0768   -2.3215    0.0000 N   0  0  0  0  0  0  0  0  0  0  0  0
    0.8838   -2.1500    0.0000 C   0  0  0  0  0  0  0  0  0  0  0  0
    1.1387   -1.3654    0.0000 C   0  0  0  0  0  0  0  0  0  0  0  0
    0.6538   -0.6979    0.0000 C   0  0  0  0  0  0  0  0  0  0  0  0
    1.1387   -0.0305    0.0000 N   0  0  0  0  0  0  0  0  0  0  0  0
    1.9233   -0.2854    0.0000 C   0  0  0  0  0  0  0  0  0  0  0  0
    2.6378    0.1271    0.0000 C   0  0  0  0  0  0  0  0  0  0  0  0
    3.3523   -0.2854    0.0000 C   0  0  0  0  0  0  0  0  0  0  0  0
    3.3523   -1.1104    0.0000 C   0  0  0  0  0  0  0  0  0  0  0  0
    4.0668   -1.5229    0.0000 Br  0  0  0  0  0  0  0  0  0  0  0  0
    2.6378   -1.5229    0.0000 C   0  0  0  0  0  0  0  0  0  0  0  0
    1.9233   -1.1104    0.0000 N   0  0  0  0  0  0  0  0  0  0  0  0
   -0.9851   -3.2777    0.0000 S   0  0  0  0  0  0  0  0  0  0  0  0
   -1.1566   -2.4707    0.0000 O   0  0  0  0  0  0  0  0  0  0  0  0
   -0.8136   -4.0847    0.0000 O   0  0  0  0  0  0  0  0  0  0  0  0
   -1.7921   -3.4492    0.0000 C   0  0  0  0  0  0  0  0  0  0  0  0
   -2.0470   -4.2338    0.0000 C   0  0  0  0  0  0  0  0  0  0  0  0
   -2.8540   -4.4054    0.0000 C   0  0  0  0  0  0  0  0  0  0  0  0
   -3.4060   -3.7923    0.0000 C   0  0  0  0  0  0  0  0  0  0  0  0
   -3.1511   -3.0076    0.0000 C   0  0  0  0  0  0  0  0  0  0  0  0
   -2.3441   -2.8361    0.0000 C   0  0  0  0  0  0  0  0  0  0  0  0
   -2.0892   -2.0515    0.0000 C   0  0  0  0  0  0  0  0  0  0  0  0
   -3.1089   -5.1900    0.0000 N   0  3  0  0  0  0  0  0  0  0  0  0
   -2.5569   -5.8031    0.0000 O   0  5  0  0  0  0  0  0  0  0  0  0
   -3.9159   -5.3615    0.0000 O   0  0  0  0  0  0  0  0  0  0  0  0
    0.0433   -4.7368    0.0000 H   0  0  0  0  0  0  0  0  0  0  0  0
    1.4205   -3.4967    0.0000 H   0  0  0  0  0  0  0  0  0  0  0  0
    1.0899   -4.5143    0.0000 H   0  0  0  0  0  0  0  0  0  0  0  0
    1.5743   -2.9169    0.0000 H   0  0  0  0  0  0  0  0  0  0  0  0
   -0.3782   -0.6979    0.0000 H   0  0  0  0  0  0  0  0  0  0  0  0
    2.6378    1.1591    0.0000 H   0  0  0  0  0  0  0  0  0  0  0  0
    4.2460    0.2306    0.0000 H   0  0  0  0  0  0  0  0  0  0  0  0
    2.6378   -2.5549    0.0000 H   0  0  0  0  0  0  0  0  0  0  0  0
   -1.3564   -5.0007    0.0000 H   0  0  0  0  0  0  0  0  0  0  0  0
   -4.4154   -4.0069    0.0000 H   0  0  0  0  0  0  0  0  0  0  0  0
   -3.8417   -2.2407    0.0000 H   0  0  0  0  0  0  0  0  0  0  0  0
   -1.0426   -1.8290    0.0000 H   0  0  0  0  0  0  0  0  0  0  0  0
   -2.8052   -1.2564    0.0000 H   0  0  0  0  0  0  0  0  0  0  0  0
   -1.7586   -1.0339    0.0000 H   0  0  0  0  0  0  0  0  0  0  0  0
  1  2  1  0  0  0  0
  1 28  1  0  0  0  0
  1 29  1  0  0  0  0
  1 30  1  0  0  0  0
  2  3  1  0  0  0  0
  2 15  1  0  0  0  0
  3  4  2  0  0  0  0
  4  5  1  0  0  0  0
  4 31  1  0  0  0  0
  5  6  2  0  0  0  0
  5 14  1  0  0  0  0
  6  7  1  0  0  0  0
  6 32  1  0  0  0  0
  7  8  2  0  0  0  0
  8  9  1  0  0  0  0
  8 14  1  0  0  0  0
  9 10  2  0  0  0  0
  9 33  1  0  0  0  0
 10 11  1  0  0  0  0
 10 34  1  0  0  0  0
 11 12  1  0  0  0  0
 11 13  2  0  0  0  0
 13 14  1  0  0  0  0
 13 35  1  0  0  0  0
 15 16  2  0  0  0  0
 15 17  2  0  0  0  0
 15 18  1  0  0  0  0
 18 19  2  0  0  0  0
 18 23  1  0  0  0  0
 19 20  1  0  0  0  0
 19 36  1  0  0  0  0
 20 21  2  0  0  0  0
 20 25  1  0  0  0  0
 21 22  1  0  0  0  0
 21 37  1  0  0  0  0
 22 23  2  0  0  0  0
 22 38  1  0  0  0  0
 23 24  1  0  0  0  0
 24 39  1  0  0  0  0
 24 40  1  0  0  0  0
 24 41  1  0  0  0  0
 25 26  1  0  0  0  0
 25 27  2  0  0  0  0
M  CHG  2  25   1  26  -1
M  END
>  <DRUGBANK_ID>
DB17047

>  <COMMON_NAME>
PIK-75

>  <CAS_NUMBER>
945619-31-8

>  <UNII>
9058I8S63D

>  <SYNONYMS>
Benzenesulfonic acid, 2-methyl-5-nitro-, 2-((6-bromoimidazo(1,2-a)pyridin-3-yl)methylene)-1-methylhydrazide

$$$$
