
 OpenBabel10282417072D

 53 57  0  0  0  0  0  0  0  0999 V2000
   -4.1282   -1.0228    0.0000 O   0  0  0  0  0  0  0  0  0  0  0  0
   -3.9567   -0.2159    0.0000 C   0  0  0  0  0  0  0  0  0  0  0  0
   -4.5088    0.3972    0.0000 C   0  0  0  0  0  0  0  0  0  0  0  0
   -4.0962    1.1116    0.0000 S   0  0  0  0  0  0  0  0  0  0  0  0
   -3.2892    0.9401    0.0000 C   0  0  0  0  0  0  0  0  0  0  0  0
   -2.6762    1.4922    0.0000 O   0  0  0  0  0  0  0  0  0  0  0  0
   -3.2030    0.1196    0.0000 N   0  0  0  0  0  0  0  0  0  0  0  0
   -2.4885   -0.2928    0.0000 C   0  0  0  0  0  0  0  0  0  0  0  0
   -1.7741    0.1196    0.0000 C   0  0  0  0  0  0  0  0  0  0  0  0
   -1.0596   -0.2928    0.0000 C   0  0  0  0  0  0  0  0  0  0  0  0
   -0.3451    0.1196    0.0000 C   0  0  0  0  0  0  0  0  0  0  0  0
    0.4394   -0.1352    0.0000 C   0  0  0  0  0  0  0  0  0  0  0  0
    0.6944   -0.9198    0.0000 C   0  0  0  0  0  0  0  0  0  0  0  0
    1.5013   -1.0914    0.0000 C   0  0  0  0  0  0  0  0  0  0  0  0
    2.1144   -0.5393    0.0000 C   0  0  0  0  0  0  0  0  0  0  0  0
    2.8289   -0.9518    0.0000 C   0  0  0  0  0  0  0  0  0  0  0  0
    3.5825   -0.6163    0.0000 C   0  0  0  0  0  0  0  0  0  0  0  0
    3.6688    0.2041    0.0000 N   0  0  0  0  0  0  0  0  0  0  0  0
    3.0014    0.6890    0.0000 C   0  0  0  0  0  0  0  0  0  0  0  0
    3.0876    1.5096    0.0000 C   0  0  0  0  0  0  0  0  0  0  0  0
    3.8413    1.8450    0.0000 O   0  0  0  0  0  0  0  0  0  0  0  0
    4.5088    1.3601    0.0000 C   0  0  0  0  0  0  0  0  0  0  0  0
    4.4225    0.5397    0.0000 C   0  0  0  0  0  0  0  0  0  0  0  0
    2.6574   -1.7588    0.0000 C   0  0  0  0  0  0  0  0  0  0  0  0
    1.8368   -1.8450    0.0000 N   0  0  0  0  0  0  0  0  0  0  0  0
    0.9243    0.5321    0.0000 C   0  0  0  0  0  0  0  0  0  0  0  0
    1.7493    0.5321    0.0000 O   0  0  0  0  0  0  0  0  0  0  0  0
    0.4394    1.1996    0.0000 N   0  0  0  0  0  0  0  0  0  0  0  0
   -0.3451    0.9446    0.0000 C   0  0  0  0  0  0  0  0  0  0  0  0
   -1.0596    1.3571    0.0000 C   0  0  0  0  0  0  0  0  0  0  0  0
   -1.7740    0.9446    0.0000 C   0  0  0  0  0  0  0  0  0  0  0  0
   -5.5729    0.2854    0.0000 H   0  0  0  0  0  0  0  0  0  0  0  0
   -5.0915    1.2946    0.0000 H   0  0  0  0  0  0  0  0  0  0  0  0
   -2.4885   -1.3628    0.0000 H   0  0  0  0  0  0  0  0  0  0  0  0
   -1.5619   -0.8278    0.0000 H   0  0  0  0  0  0  0  0  0  0  0  0
   -1.0596   -1.3248    0.0000 H   0  0  0  0  0  0  0  0  0  0  0  0
    0.0038   -1.6867    0.0000 H   0  0  0  0  0  0  0  0  0  0  0  0
    2.0065    0.4870    0.0000 H   0  0  0  0  0  0  0  0  0  0  0  0
    4.4481   -1.2453    0.0000 H   0  0  0  0  0  0  0  0  0  0  0  0
    4.5600   -0.1812    0.0000 H   0  0  0  0  0  0  0  0  0  0  0  0
    2.0239    0.2538    0.0000 H   0  0  0  0  0  0  0  0  0  0  0  0
    2.1357    1.3179    0.0000 H   0  0  0  0  0  0  0  0  0  0  0  0
    2.2220    2.1386    0.0000 H   0  0  0  0  0  0  0  0  0  0  0  0
    3.1996    2.5737    0.0000 H   0  0  0  0  0  0  0  0  0  0  0  0
    5.4863    1.7953    0.0000 H   0  0  0  0  0  0  0  0  0  0  0  0
    5.3744    0.7311    0.0000 H   0  0  0  0  0  0  0  0  0  0  0  0
    5.2881   -0.0893    0.0000 H   0  0  0  0  0  0  0  0  0  0  0  0
    4.3107   -0.5244    0.0000 H   0  0  0  0  0  0  0  0  0  0  0  0
    3.3479   -2.5257    0.0000 H   0  0  0  0  0  0  0  0  0  0  0  0
    1.3445   -2.6976    0.0000 H   0  0  0  0  0  0  0  0  0  0  0  0
    0.7436    2.1359    0.0000 H   0  0  0  0  0  0  0  0  0  0  0  0
   -1.0596    2.3891    0.0000 H   0  0  0  0  0  0  0  0  0  0  0  0
   -2.6677    1.4606    0.0000 H   0  0  0  0  0  0  0  0  0  0  0  0
  1  2  2  0  0  0  0
  2  3  1  0  0  0  0
  2  7  1  0  0  0  0
  3  4  1  0  0  0  0
  3 32  1  0  0  0  0
  3 33  1  0  0  0  0
  4  5  1  0  0  0  0
  5  6  2  0  0  0  0
  5  7  1  0  0  0  0
  7  8  1  0  0  0  0
  8  9  1  0  0  0  0
  8 34  1  0  0  0  0
  8 35  1  0  0  0  0
  9 10  2  0  0  0  0
  9 31  1  0  0  0  0
 10 11  1  0  0  0  0
 10 36  1  0  0  0  0
 11 12  1  0  0  0  0
 11 29  2  0  0  0  0
 12 13  2  0  0  0  0
 13 14  1  0  0  0  0
 13 37  1  0  0  0  0
 14 15  2  0  0  0  0
 14 25  1  0  0  0  0
 15 16  1  0  0  0  0
 15 38  1  0  0  0  0
 16 17  1  0  0  0  0
 16 24  2  0  0  0  0
 17 18  1  0  0  0  0
 17 39  1  0  0  0  0
 17 40  1  0  0  0  0
 18 19  1  0  0  0  0
 18 23  1  0  0  0  0
 19 20  1  0  0  0  0
 19 41  1  0  0  0  0
 19 42  1  0  0  0  0
 20 21  1  0  0  0  0
 20 43  1  0  0  0  0
 20 44  1  0  0  0  0
 21 22  1  0  0  0  0
 22 23  1  0  0  0  0
 22 45  1  0  0  0  0
 22 46  1  0  0  0  0
 23 47  1  0  0  0  0
 23 48  1  0  0  0  0
 24 25  1  0  0  0  0
 24 49  1  0  0  0  0
 25 50  1  0  0  0  0
 26 12  1  0  0  0  0
 26 27  2  0  0  0  0
 28 26  1  0  0  0  0
 28 51  1  0  0  0  0
 29 28  1  0  0  0  0
 29 30  1  0  0  0  0
 30 31  2  0  0  0  0
 30 52  1  0  0  0  0
 31 53  1  0  0  0  0
M  END
>  <DRUGBANK_ID>
DB16821

>  <COMMON_NAME>
S-49076

>  <CAS_NUMBER>
1265965-22-7

>  <UNII>
65ZUU7MATU

$$$$
