TDA
 OpenBabel10282417072D

 41 40  0  0  0  0  0  0  0  0999 V2000
   -4.9362   -0.2196    0.0000 O   0  0  0  0  0  0  0  0  0  0  0  0
   -4.2216    1.0180    0.0000 O   0  0  0  0  0  0  0  0  0  0  0  0
   -4.2216    0.1929    0.0000 C   0  0  0  0  0  0  0  0  0  0  0  0
   -3.5072   -0.2196    0.0000 C   0  0  0  0  0  0  0  0  0  0  0  0
   -2.7926    0.1929    0.0000 C   0  0  0  0  0  0  0  0  0  0  0  0
   -2.0781   -0.2196    0.0000 C   0  0  0  0  0  0  0  0  0  0  0  0
   -1.3636    0.1929    0.0000 C   0  0  0  0  0  0  0  0  0  0  0  0
   -0.6490   -0.2196    0.0000 C   0  0  0  0  0  0  0  0  0  0  0  0
    0.0655    0.1929    0.0000 C   0  0  0  0  0  0  0  0  0  0  0  0
    0.7801   -0.2196    0.0000 C   0  0  0  0  0  0  0  0  0  0  0  0
    1.4945    0.1929    0.0000 C   0  0  0  0  0  0  0  0  0  0  0  0
    2.2091   -0.2196    0.0000 C   0  0  0  0  0  0  0  0  0  0  0  0
    2.9236    0.1929    0.0000 C   0  0  0  0  0  0  0  0  0  0  0  0
    3.6381   -0.2196    0.0000 C   0  0  0  0  0  0  0  0  0  0  0  0
    4.3526    0.1929    0.0000 C   0  0  0  0  0  0  0  0  0  0  0  0
   -5.7476    0.2490    0.0000 H   0  0  0  0  0  0  0  0  0  0  0  0
   -3.5073   -1.2896    0.0000 H   0  0  0  0  0  0  0  0  0  0  0  0
   -2.5806   -0.7547    0.0000 H   0  0  0  0  0  0  0  0  0  0  0  0
   -2.7926    1.2629    0.0000 H   0  0  0  0  0  0  0  0  0  0  0  0
   -1.8659    0.7279    0.0000 H   0  0  0  0  0  0  0  0  0  0  0  0
   -2.0781   -1.2896    0.0000 H   0  0  0  0  0  0  0  0  0  0  0  0
   -1.1515   -0.7546    0.0000 H   0  0  0  0  0  0  0  0  0  0  0  0
   -1.3636    1.2629    0.0000 H   0  0  0  0  0  0  0  0  0  0  0  0
   -0.4370    0.7280    0.0000 H   0  0  0  0  0  0  0  0  0  0  0  0
   -0.6490   -1.2896    0.0000 H   0  0  0  0  0  0  0  0  0  0  0  0
    0.2777   -0.7546    0.0000 H   0  0  0  0  0  0  0  0  0  0  0  0
    0.0655    1.2629    0.0000 H   0  0  0  0  0  0  0  0  0  0  0  0
    0.9921    0.7280    0.0000 H   0  0  0  0  0  0  0  0  0  0  0  0
    0.7802   -1.2896    0.0000 H   0  0  0  0  0  0  0  0  0  0  0  0
    1.7068   -0.7546    0.0000 H   0  0  0  0  0  0  0  0  0  0  0  0
    1.4944    1.2629    0.0000 H   0  0  0  0  0  0  0  0  0  0  0  0
    2.4211    0.7280    0.0000 H   0  0  0  0  0  0  0  0  0  0  0  0
    2.2091   -1.2896    0.0000 H   0  0  0  0  0  0  0  0  0  0  0  0
    3.1358   -0.7546    0.0000 H   0  0  0  0  0  0  0  0  0  0  0  0
    2.9236    1.2629    0.0000 H   0  0  0  0  0  0  0  0  0  0  0  0
    3.8502    0.7279    0.0000 H   0  0  0  0  0  0  0  0  0  0  0  0
    3.6381   -1.2896    0.0000 H   0  0  0  0  0  0  0  0  0  0  0  0
    4.5647   -0.7546    0.0000 H   0  0  0  0  0  0  0  0  0  0  0  0
    5.2792   -0.3421    0.0000 H   0  0  0  0  0  0  0  0  0  0  0  0
    4.3526    1.2629    0.0000 H   0  0  0  0  0  0  0  0  0  0  0  0
    5.2793    0.7279    0.0000 H   0  0  0  0  0  0  0  0  0  0  0  0
  1  3  1  0  0  0  0
  1 16  1  0  0  0  0
  2  3  2  0  0  0  0
  3  4  1  0  0  0  0
  4  5  1  0  0  0  0
  4 17  1  0  0  0  0
  4 18  1  0  0  0  0
  5  6  1  0  0  0  0
  5 19  1  0  0  0  0
  5 20  1  0  0  0  0
  6  7  1  0  0  0  0
  6 21  1  0  0  0  0
  6 22  1  0  0  0  0
  7  8  1  0  0  0  0
  7 23  1  0  0  0  0
  7 24  1  0  0  0  0
  8  9  1  0  0  0  0
  8 25  1  0  0  0  0
  8 26  1  0  0  0  0
  9 10  1  0  0  0  0
  9 27  1  0  0  0  0
  9 28  1  0  0  0  0
 10 11  1  0  0  0  0
 10 29  1  0  0  0  0
 10 30  1  0  0  0  0
 11 12  1  0  0  0  0
 11 31  1  0  0  0  0
 11 32  1  0  0  0  0
 12 13  1  0  0  0  0
 12 33  1  0  0  0  0
 12 34  1  0  0  0  0
 13 14  1  0  0  0  0
 13 35  1  0  0  0  0
 13 36  1  0  0  0  0
 14 15  1  0  0  0  0
 14 37  1  0  0  0  0
 14 38  1  0  0  0  0
 15 39  1  0  0  0  0
 15 40  1  0  0  0  0
 15 41  1  0  0  0  0
M  END
>  <DRUGBANK_ID>
DB02448

>  <SECONDARY_ACCESSION_NUMBERS>
EXPT03028

>  <COMMON_NAME>
N-Tridecanoic Acid

>  <CAS_NUMBER>
638-53-9

>  <UNII>
19936LIY2V

$$$$
