
 OpenBabel10282417072D

 26 27  0  0  0  0  0  0  0  0999 V2000
   -0.8212    6.0027    0.0000 C   0  0  0  0  0  0  0  0  0  0  0  0
   -0.1067    5.5902    0.0000 C   0  0  0  0  0  0  0  0  0  0  0  0
    0.6078    6.0027    0.0000 C   0  0  0  0  0  0  0  0  0  0  0  0
    1.3222    5.5902    0.0000 C   0  0  0  0  0  0  0  0  0  0  0  0
    1.3222    4.7652    0.0000 C   0  0  0  0  0  0  0  0  0  0  0  0
    0.6078    4.3527    0.0000 C   0  0  0  0  0  0  0  0  0  0  0  0
   -0.1067    4.7652    0.0000 C   0  0  0  0  0  0  0  0  0  0  0  0
    0.6078    3.5277    0.0000 Cl  0  0  0  0  0  0  0  0  0  0  0  0
    2.0367    4.3527    0.0000 N   0  0  0  0  0  0  0  0  0  0  0  0
    2.0367    3.5277    0.0000 C   0  0  0  0  0  0  0  0  0  0  0  0
    2.7041    3.0428    0.0000 N   0  0  0  0  0  0  0  0  0  0  0  0
    2.4492    2.2581    0.0000 C   0  0  0  0  0  0  0  0  0  0  0  0
    1.6242    2.2581    0.0000 C   0  0  0  0  0  0  0  0  0  0  0  0
    1.3693    3.0428    0.0000 N   0  0  0  0  0  0  0  0  0  0  0  0
   -0.8212    7.0727    0.0000 H   0  0  0  0  0  0  0  0  0  0  0  0
   -1.7478    5.4677    0.0000 H   0  0  0  0  0  0  0  0  0  0  0  0
   -1.7479    6.5377    0.0000 H   0  0  0  0  0  0  0  0  0  0  0  0
    0.6078    7.0347    0.0000 H   0  0  0  0  0  0  0  0  0  0  0  0
    2.2159    6.1062    0.0000 H   0  0  0  0  0  0  0  0  0  0  0  0
   -1.0004    4.2492    0.0000 H   0  0  0  0  0  0  0  0  0  0  0  0
    2.8893    4.8450    0.0000 H   0  0  0  0  0  0  0  0  0  0  0  0
    3.0782    1.3925    0.0000 H   0  0  0  0  0  0  0  0  0  0  0  0
    1.9634    1.3047    0.0000 H   0  0  0  0  0  0  0  0  0  0  0  0
    0.9952    1.3925    0.0000 H   0  0  0  0  0  0  0  0  0  0  0  0
    0.5674    2.4255    0.0000 H   0  0  0  0  0  0  0  0  0  0  0  0
    0.4330    3.3471    0.0000 H   0  0  0  0  0  0  0  0  0  0  0  0
  1  2  1  0  0  0  0
  1 15  1  0  0  0  0
  1 16  1  0  0  0  0
  1 17  1  0  0  0  0
  2  3  2  0  0  0  0
  2  7  1  0  0  0  0
  3  4  1  0  0  0  0
  3 18  1  0  0  0  0
  4  5  2  0  0  0  0
  4 19  1  0  0  0  0
  5  6  1  0  0  0  0
  5  9  1  0  0  0  0
  6  7  2  0  0  0  0
  6  8  1  0  0  0  0
  7 20  1  0  0  0  0
  9 10  1  0  0  0  0
  9 21  1  0  0  0  0
 10 11  2  0  0  0  0
 10 14  1  0  0  0  0
 11 12  1  0  0  0  0
 12 13  1  0  0  0  0
 12 22  1  0  0  0  0
 12 23  1  0  0  0  0
 13 14  1  0  0  0  0
 13 24  1  0  0  0  0
 13 25  1  0  0  0  0
 14 26  1  0  0  0  0
M  END
>  <DRUGBANK_ID>
DB13429

>  <COMMON_NAME>
Tolonidine

>  <CAS_NUMBER>
4201-22-3

>  <UNII>
I4O795Q03O

>  <SYNONYMS>
Tolonidine

$$$$
