
 OpenBabel10282417072D

 53 56  0  0  0  0  0  0  0  0999 V2000
   -0.1230    0.8342    0.0000 N   0  0  0  0  0  0  0  0  0  0  0  0
   -0.1230    0.0092    0.0000 C   0  0  0  0  0  0  0  0  0  0  0  0
   -0.8374   -0.4033    0.0000 N   0  0  0  0  0  0  0  0  0  0  0  0
   -0.8374   -1.2283    0.0000 C   0  0  0  0  0  0  0  0  0  0  0  0
   -0.1230   -1.6408    0.0000 N   0  0  0  0  0  0  0  0  0  0  0  0
    0.5915   -1.2283    0.0000 C   0  0  0  0  0  0  0  0  0  0  0  0
    0.5915   -0.4033    0.0000 C   0  0  0  0  0  0  0  0  0  0  0  0
    1.2365    0.1111    0.0000 C   0  0  0  0  0  0  0  0  0  0  0  0
    1.0529    0.9154    0.0000 O   0  0  0  0  0  0  0  0  0  0  0  0
    2.0408   -0.0725    0.0000 N   0  0  0  0  0  0  0  0  0  0  0  0
    2.3988   -0.8158    0.0000 C   0  0  0  0  0  0  0  0  0  0  0  0
    2.0408   -1.5591    0.0000 C   0  0  0  0  0  0  0  0  0  0  0  0
    1.2365   -1.7427    0.0000 O   0  0  0  0  0  0  0  0  0  0  0  0
    2.5552    0.5725    0.0000 C   0  0  0  0  0  0  0  0  0  0  0  0
    2.2538    1.3405    0.0000 C   0  0  0  0  0  0  0  0  0  0  0  0
    2.7682    1.9855    0.0000 C   0  0  0  0  0  0  0  0  0  0  0  0
    3.5840    1.8625    0.0000 C   0  0  0  0  0  0  0  0  0  0  0  0
    3.8854    1.0946    0.0000 C   0  0  0  0  0  0  0  0  0  0  0  0
    3.3710    0.4496    0.0000 C   0  0  0  0  0  0  0  0  0  0  0  0
    4.0984    2.5076    0.0000 C   0  0  1  0  0  0  0  0  0  0  0  0
    3.7969    3.2755    0.0000 C   0  0  0  0  0  0  0  0  0  0  0  0
    4.3113    3.9205    0.0000 C   0  0  0  0  0  0  0  0  0  0  0  0
    5.1271    3.7976    0.0000 C   0  0  2  0  0  0  0  0  0  0  0  0
    5.6415    4.4426    0.0000 C   0  0  0  0  0  0  0  0  0  0  0  0
    6.4573    4.3196    0.0000 C   0  0  0  0  0  0  0  0  0  0  0  0
    6.9717    4.9646    0.0000 O   0  0  0  0  0  0  0  0  0  0  0  0
    6.7587    3.5517    0.0000 O   0  0  0  0  0  0  0  0  0  0  0  0
    5.4285    3.0296    0.0000 C   0  0  0  0  0  0  0  0  0  0  0  0
    4.9141    2.3846    0.0000 C   0  0  0  0  0  0  0  0  0  0  0  0
    0.7296    1.3265    0.0000 H   0  0  0  0  0  0  0  0  0  0  0  0
   -0.9756    1.3264    0.0000 H   0  0  0  0  0  0  0  0  0  0  0  0
   -1.7311   -1.7443    0.0000 H   0  0  0  0  0  0  0  0  0  0  0  0
    3.4688   -0.8158    0.0000 H   0  0  0  0  0  0  0  0  0  0  0  0
    2.9681   -1.7218    0.0000 H   0  0  0  0  0  0  0  0  0  0  0  0
    2.7079   -2.3957    0.0000 H   0  0  0  0  0  0  0  0  0  0  0  0
    1.6874   -2.5691    0.0000 H   0  0  0  0  0  0  0  0  0  0  0  0
    1.2333    1.4943    0.0000 H   0  0  0  0  0  0  0  0  0  0  0  0
    2.3912    2.9462    0.0000 H   0  0  0  0  0  0  0  0  0  0  0  0
    4.9059    0.9408    0.0000 H   0  0  0  0  0  0  0  0  0  0  0  0
    3.7481   -0.5111    0.0000 H   0  0  0  0  0  0  0  0  0  0  0  0
    3.0403    2.6670    0.0000 H   0  0  0  0  0  0  0  0  0  0  0  0
    2.7388    3.4349    0.0000 H   0  0  0  0  0  0  0  0  0  0  0  0
    3.4060    4.2715    0.0000 H   0  0  0  0  0  0  0  0  0  0  0  0
    3.9204    4.9165    0.0000 H   0  0  0  0  0  0  0  0  0  0  0  0
    4.9784    4.7571    0.0000 H   0  0  0  0  0  0  0  0  0  0  0  0
    4.7362    4.7936    0.0000 H   0  0  0  0  0  0  0  0  0  0  0  0
    5.2506    5.4386    0.0000 H   0  0  0  0  0  0  0  0  0  0  0  0
    6.3087    5.2791    0.0000 H   0  0  0  0  0  0  0  0  0  0  0  0
    7.8982    4.8249    0.0000 H   0  0  0  0  0  0  0  0  0  0  0  0
    6.4865    2.8701    0.0000 H   0  0  0  0  0  0  0  0  0  0  0  0
    5.8194    2.0336    0.0000 H   0  0  0  0  0  0  0  0  0  0  0  0
    5.3050    1.3885    0.0000 H   0  0  0  0  0  0  0  0  0  0  0  0
    4.2469    1.5481    0.0000 H   0  0  0  0  0  0  0  0  0  0  0  0
  1  2  1  0  0  0  0
  1 30  1  0  0  0  0
  1 31  1  0  0  0  0
  2  3  2  0  0  0  0
  2  7  1  0  0  0  0
  3  4  1  0  0  0  0
  4  5  2  0  0  0  0
  4 32  1  0  0  0  0
  5  6  1  0  0  0  0
  6  7  2  0  0  0  0
  6 13  1  0  0  0  0
  7  8  1  0  0  0  0
  8  9  2  0  0  0  0
  8 10  1  0  0  0  0
 10 11  1  0  0  0  0
 10 14  1  0  0  0  0
 11 12  1  0  0  0  0
 11 33  1  0  0  0  0
 11 34  1  0  0  0  0
 12 13  1  0  0  0  0
 12 35  1  0  0  0  0
 12 36  1  0  0  0  0
 14 15  2  0  0  0  0
 14 19  1  0  0  0  0
 15 16  1  0  0  0  0
 15 37  1  0  0  0  0
 16 17  2  0  0  0  0
 16 38  1  0  0  0  0
 17 18  1  0  0  0  0
 18 19  2  0  0  0  0
 18 39  1  0  0  0  0
 19 40  1  0  0  0  0
 20 17  1  0  0  0  0
 20 21  1  0  0  0  0
 20 29  1  0  0  0  0
 20 41  1  6  0  0  0
 21 22  1  0  0  0  0
 21 42  1  0  0  0  0
 21 43  1  0  0  0  0
 22 44  1  0  0  0  0
 22 45  1  0  0  0  0
 23 22  1  0  0  0  0
 23 24  1  0  0  0  0
 23 28  1  0  0  0  0
 23 46  1  1  0  0  0
 24 25  1  0  0  0  0
 24 47  1  0  0  0  0
 24 48  1  0  0  0  0
 25 26  1  0  0  0  0
 25 27  2  0  0  0  0
 26 49  1  0  0  0  0
 28 29  1  0  0  0  0
 28 50  1  0  0  0  0
 28 51  1  0  0  0  0
 29 52  1  0  0  0  0
 29 53  1  0  0  0  0
M  END
>  <DRUGBANK_ID>
DB14887

>  <COMMON_NAME>
PF-04620110

>  <CAS_NUMBER>
1109276-89-2

>  <UNII>
CQ4M18RLJW

$$$$
