
 OpenBabel10282417072D

 24 23  0  0  0  0  0  0  0  0999 V2000
   -1.4289    1.0312    0.0000 N   0  0  0  0  0  0  0  0  0  0  0  0
   -1.4289    0.2062    0.0000 C   0  0  2  0  0  0  0  0  0  0  0  0
   -2.1434   -0.2062    0.0000 C   0  0  0  0  0  0  0  0  0  0  0  0
   -2.8578    0.2062    0.0000 O   0  0  0  0  0  0  0  0  0  0  0  0
   -0.7144   -0.2062    0.0000 C   0  0  0  0  0  0  0  0  0  0  0  0
    0.0000    0.2062    0.0000 C   0  0  0  0  0  0  0  0  0  0  0  0
    0.7144   -0.2062    0.0000 N   0  0  0  0  0  0  0  0  0  0  0  0
    1.4289    0.2062    0.0000 C   0  0  0  0  0  0  0  0  0  0  0  0
    2.1434   -0.2062    0.0000 N   0  0  0  0  0  0  0  0  0  0  0  0
    1.4289    1.0312    0.0000 N   0  0  0  0  0  0  0  0  0  0  0  0
    2.8578    0.2062    0.0000 O   0  0  0  0  0  0  0  0  0  0  0  0
   -2.1434   -1.0312    0.0000 O   0  0  0  0  0  0  0  0  0  0  0  0
   -0.5456    1.5412    0.0000 H   0  0  0  0  0  0  0  0  0  0  0  0
   -2.3122    1.5412    0.0000 H   0  0  0  0  0  0  0  0  0  0  0  0
   -2.3555    0.7413    0.0000 H   0  0  0  0  0  0  0  0  0  0  0  0
   -0.7144   -1.2762    0.0000 H   0  0  0  0  0  0  0  0  0  0  0  0
    0.2122   -0.7412    0.0000 H   0  0  0  0  0  0  0  0  0  0  0  0
    0.0000    1.2762    0.0000 H   0  0  0  0  0  0  0  0  0  0  0  0
    0.9266    0.7412    0.0000 H   0  0  0  0  0  0  0  0  0  0  0  0
    0.7144   -1.1907    0.0000 H   0  0  0  0  0  0  0  0  0  0  0  0
    2.1434   -1.1907    0.0000 H   0  0  0  0  0  0  0  0  0  0  0  0
    2.2815    1.5234    0.0000 H   0  0  0  0  0  0  0  0  0  0  0  0
    3.6978   -0.2789    0.0000 H   0  0  0  0  0  0  0  0  0  0  0  0
   -2.9549   -1.4997    0.0000 H   0  0  0  0  0  0  0  0  0  0  0  0
  1 13  1  0  0  0  0
  1 14  1  0  0  0  0
  2  1  1  0  0  0  0
  2  5  1  0  0  0  0
  2 15  1  6  0  0  0
  3  2  1  0  0  0  0
  3  4  2  0  0  0  0
  3 12  1  0  0  0  0
  5  6  1  0  0  0  0
  5 16  1  0  0  0  0
  5 17  1  0  0  0  0
  6  7  1  0  0  0  0
  6 18  1  0  0  0  0
  6 19  1  0  0  0  0
  7 20  1  0  0  0  0
  8  7  1  0  0  0  0
  8  9  1  0  0  0  0
  8 10  2  0  0  0  0
  9 11  1  0  0  0  0
  9 21  1  0  0  0  0
 10 22  1  0  0  0  0
 11 23  1  0  0  0  0
 12 24  1  0  0  0  0
M  END
>  <DRUGBANK_ID>
DB02381

>  <SECONDARY_ACCESSION_NUMBERS>
EXPT02371; DB12913

>  <COMMON_NAME>
nor-NOHA

>  <CAS_NUMBER>
189302-40-7

>  <UNII>
U0F1149OFR

>  <SYNONYMS>
(2S)-2-amino-4-(((hydroxyamino)iminomethyl)amino)butanoic acid; N-hydroxy-nor-arginine; N-hydroxy-nor-L-arginine; Nomega-Hydroxy-nor-L-arginine

$$$$
