
 OpenBabel10282417072D

 57 60  0  0  1  0  0  0  0  0999 V2000
    1.6500   -1.6941    0.0000 Cl  0  0  0  0  0  0  0  0  0  0  0  0
    2.0054    1.0865    0.0000 O   0  0  0  0  0  0  0  0  0  0  0  0
    5.0020   -1.2316    0.0000 O   0  0  0  0  0  0  0  0  0  0  0  0
    8.7189   -0.5404    0.0000 O   0  0  0  0  0  0  0  0  0  0  0  0
    4.4799    0.0986    0.0000 N   0  0  0  0  0  0  0  0  0  0  0  0
    8.1969    0.7899    0.0000 N   0  0  0  0  0  0  0  0  0  0  0  0
    3.3241    1.5479    0.0000 C   0  0  0  0  0  0  0  0  0  0  0  0
    4.1491    1.5479    0.0000 C   0  0  0  0  0  0  0  0  0  0  0  0
    2.8097    0.9029    0.0000 C   0  0  2  0  0  0  0  0  0  0  0  0
    4.6635    0.9029    0.0000 C   0  0  0  0  0  0  0  0  0  0  0  0
    2.9933    0.0986    0.0000 C   0  0  0  0  0  0  0  0  0  0  0  0
    3.7366   -0.2594    0.0000 C   0  0  0  0  0  0  0  0  0  0  0  0
    5.1249   -0.4158    0.0000 C   0  0  0  0  0  0  0  0  0  0  0  0
    2.2759   -0.3746    0.0000 C   0  0  0  0  0  0  0  0  0  0  0  0
    3.8140   -1.1153    0.0000 C   0  0  0  0  0  0  0  0  0  0  0  0
    5.8929   -0.1144    0.0000 C   0  0  0  0  0  0  0  0  0  0  0  0
    2.3335   -1.2319    0.0000 C   0  0  0  0  0  0  0  0  0  0  0  0
    3.1077   -1.6048    0.0000 C   0  0  0  0  0  0  0  0  0  0  0  0
    6.5379   -0.6288    0.0000 C   0  0  0  0  0  0  0  0  0  0  0  0
    6.0158    0.7014    0.0000 C   0  0  0  0  0  0  0  0  0  0  0  0
    7.3059   -0.3274    0.0000 C   0  0  0  0  0  0  0  0  0  0  0  0
    7.4288    0.4884    0.0000 C   0  0  0  0  0  0  0  0  0  0  0  0
    6.7839    1.0028    0.0000 C   0  0  0  0  0  0  0  0  0  0  0  0
    6.4150   -1.4446    0.0000 C   0  0  0  0  0  0  0  0  0  0  0  0
    8.8419    0.2755    0.0000 C   0  0  0  0  0  0  0  0  0  0  0  0
    9.6099    0.5769    0.0000 C   0  0  0  0  0  0  0  0  0  0  0  0
   10.2549    0.0625    0.0000 C   0  0  0  0  0  0  0  0  0  0  0  0
    9.7329    1.3926    0.0000 C   0  0  0  0  0  0  0  0  0  0  0  0
   11.0229    0.3639    0.0000 C   0  0  0  0  0  0  0  0  0  0  0  0
   10.1319   -0.7533    0.0000 C   0  0  0  0  0  0  0  0  0  0  0  0
   10.5008    1.6941    0.0000 C   0  0  0  0  0  0  0  0  0  0  0  0
   11.1459    1.1797    0.0000 C   0  0  0  0  0  0  0  0  0  0  0  0
    1.7195    2.0134    0.0000 H   0  0  0  0  0  0  0  0  0  0  0  0
    8.3436    1.7634    0.0000 H   0  0  0  0  0  0  0  0  0  0  0  0
    2.8599    2.5119    0.0000 H   0  0  0  0  0  0  0  0  0  0  0  0
    2.2608    1.6677    0.0000 H   0  0  0  0  0  0  0  0  0  0  0  0
    4.6133    2.5119    0.0000 H   0  0  0  0  0  0  0  0  0  0  0  0
    5.2124    1.6677    0.0000 H   0  0  0  0  0  0  0  0  0  0  0  0
    2.4563    1.9129    0.0000 H   0  0  0  0  0  0  0  0  0  0  0  0
    5.7067    1.1410    0.0000 H   0  0  0  0  0  0  0  0  0  0  0  0
    5.0169    1.9129    0.0000 H   0  0  0  0  0  0  0  0  0  0  0  0
    1.3513    0.0838    0.0000 H   0  0  0  0  0  0  0  0  0  0  0  0
    4.7489   -1.5523    0.0000 H   0  0  0  0  0  0  0  0  0  0  0  0
    3.1887   -2.6336    0.0000 H   0  0  0  0  0  0  0  0  0  0  0  0
    5.2089    1.3448    0.0000 H   0  0  0  0  0  0  0  0  0  0  0  0
    8.1128   -0.9708    0.0000 H   0  0  0  0  0  0  0  0  0  0  0  0
    6.9378    2.0233    0.0000 H   0  0  0  0  0  0  0  0  0  0  0  0
    5.4190   -1.8356    0.0000 H   0  0  0  0  0  0  0  0  0  0  0  0
    7.2516   -2.1117    0.0000 H   0  0  0  0  0  0  0  0  0  0  0  0
    6.2556   -2.5027    0.0000 H   0  0  0  0  0  0  0  0  0  0  0  0
    8.9260    2.0360    0.0000 H   0  0  0  0  0  0  0  0  0  0  0  0
   11.8297   -0.2796    0.0000 H   0  0  0  0  0  0  0  0  0  0  0  0
    9.1358   -1.1442    0.0000 H   0  0  0  0  0  0  0  0  0  0  0  0
   10.9684   -1.4205    0.0000 H   0  0  0  0  0  0  0  0  0  0  0  0
    9.9724   -1.8113    0.0000 H   0  0  0  0  0  0  0  0  0  0  0  0
   10.6545    2.7146    0.0000 H   0  0  0  0  0  0  0  0  0  0  0  0
   12.1066    1.5567    0.0000 H   0  0  0  0  0  0  0  0  0  0  0  0
  1 17  1  0  0  0  0
  2 33  1  0  0  0  0
  3 13  2  0  0  0  0
  4 25  2  0  0  0  0
  5 10  1  0  0  0  0
  5 12  1  0  0  0  0
  5 13  1  0  0  0  0
  6 22  1  0  0  0  0
  6 25  1  0  0  0  0
  6 34  1  0  0  0  0
  7  8  1  0  0  0  0
  7  9  1  0  0  0  0
  7 35  1  0  0  0  0
  7 36  1  0  0  0  0
  8 10  1  0  0  0  0
  8 37  1  0  0  0  0
  8 38  1  0  0  0  0
  9  2  1  0  0  0  0
  9 11  1  0  0  0  0
  9 39  1  1  0  0  0
 10 40  1  0  0  0  0
 10 41  1  0  0  0  0
 11 12  2  0  0  0  0
 11 14  1  0  0  0  0
 12 15  1  0  0  0  0
 13 16  1  0  0  0  0
 14 17  2  0  0  0  0
 14 42  1  0  0  0  0
 15 18  2  0  0  0  0
 15 43  1  0  0  0  0
 16 19  2  0  0  0  0
 16 20  1  0  0  0  0
 17 18  1  0  0  0  0
 18 44  1  0  0  0  0
 19 21  1  0  0  0  0
 19 24  1  0  0  0  0
 20 23  2  0  0  0  0
 20 45  1  0  0  0  0
 21 22  2  0  0  0  0
 21 46  1  0  0  0  0
 22 23  1  0  0  0  0
 23 47  1  0  0  0  0
 24 48  1  0  0  0  0
 24 49  1  0  0  0  0
 24 50  1  0  0  0  0
 25 26  1  0  0  0  0
 26 27  1  0  0  0  0
 26 28  2  0  0  0  0
 27 29  2  0  0  0  0
 27 30  1  0  0  0  0
 28 31  1  0  0  0  0
 28 51  1  0  0  0  0
 29 32  1  0  0  0  0
 29 52  1  0  0  0  0
 30 53  1  0  0  0  0
 30 54  1  0  0  0  0
 30 55  1  0  0  0  0
 31 32  2  0  0  0  0
 31 56  1  0  0  0  0
 32 57  1  0  0  0  0
M  END
>  <DRUGBANK_ID>
DB06212

>  <COMMON_NAME>
Tolvaptan

>  <CAS_NUMBER>
150683-30-0

>  <UNII>
1E2497LPNY

$$$$
