
 OpenBabel10282417072D

 25 26  0  0  0  0  0  0  0  0999 V2000
    1.6500    0.4125    0.0000 O   0  0  0  0  0  0  0  0  0  0  0  0
    3.0790    0.4125    0.0000 N   0  0  0  0  0  0  0  0  0  0  0  0
    3.0790   -0.4125    0.0000 C   0  0  0  0  0  0  0  0  0  0  0  0
    3.7934    0.8250    0.0000 C   0  0  0  0  0  0  0  0  0  0  0  0
    3.7934    1.6500    0.0000 C   0  0  0  0  0  0  0  0  0  0  0  0
    2.3644    0.8250    0.0000 C   0  0  0  0  0  0  0  0  0  0  0  0
    3.0790    2.0625    0.0000 C   0  0  0  0  0  0  0  0  0  0  0  0
    2.3644    1.6500    0.0000 C   0  0  0  0  0  0  0  0  0  0  0  0
    3.7934   -0.8250    0.0000 C   0  0  0  0  0  0  0  0  0  0  0  0
    2.3644   -0.8250    0.0000 C   0  0  0  0  0  0  0  0  0  0  0  0
    4.5079    2.0625    0.0000 C   0  0  0  0  0  0  0  0  0  0  0  0
    3.7934   -1.6500    0.0000 C   0  0  0  0  0  0  0  0  0  0  0  0
    2.3644   -1.6500    0.0000 C   0  0  0  0  0  0  0  0  0  0  0  0
    3.0790   -2.0625    0.0000 C   0  0  0  0  0  0  0  0  0  0  0  0
    4.6871    0.3090    0.0000 H   0  0  0  0  0  0  0  0  0  0  0  0
    3.0791    3.0945    0.0000 H   0  0  0  0  0  0  0  0  0  0  0  0
    1.4707    2.1660    0.0000 H   0  0  0  0  0  0  0  0  0  0  0  0
    4.6871   -0.3090    0.0000 H   0  0  0  0  0  0  0  0  0  0  0  0
    1.4707   -0.3090    0.0000 H   0  0  0  0  0  0  0  0  0  0  0  0
    5.4345    1.5275    0.0000 H   0  0  0  0  0  0  0  0  0  0  0  0
    4.5079    3.1325    0.0000 H   0  0  0  0  0  0  0  0  0  0  0  0
    5.4346    2.5975    0.0000 H   0  0  0  0  0  0  0  0  0  0  0  0
    4.6871   -2.1660    0.0000 H   0  0  0  0  0  0  0  0  0  0  0  0
    1.4707   -2.1660    0.0000 H   0  0  0  0  0  0  0  0  0  0  0  0
    3.0791   -3.0945    0.0000 H   0  0  0  0  0  0  0  0  0  0  0  0
  1  6  2  0  0  0  0
  2  3  1  0  0  0  0
  2  4  1  0  0  0  0
  2  6  1  0  0  0  0
  3  9  2  0  0  0  0
  3 10  1  0  0  0  0
  4  5  2  0  0  0  0
  4 15  1  0  0  0  0
  5  7  1  0  0  0  0
  5 11  1  0  0  0  0
  6  8  1  0  0  0  0
  7  8  2  0  0  0  0
  7 16  1  0  0  0  0
  8 17  1  0  0  0  0
  9 12  1  0  0  0  0
  9 18  1  0  0  0  0
 10 13  2  0  0  0  0
 10 19  1  0  0  0  0
 11 20  1  0  0  0  0
 11 21  1  0  0  0  0
 11 22  1  0  0  0  0
 12 14  2  0  0  0  0
 12 23  1  0  0  0  0
 13 14  1  0  0  0  0
 13 24  1  0  0  0  0
 14 25  1  0  0  0  0
M  END
>  <DRUGBANK_ID>
DB04951

>  <COMMON_NAME>
Pirfenidone

>  <CAS_NUMBER>
53179-13-8

>  <UNII>
D7NLD2JX7U

>  <SYNONYMS>
Pirfenidona; Pirfenidone

$$$$
