
 OpenBabel10282417072D

 48 52  0  0  0  0  0  0  0  0999 V2000
    0.3480    0.6612    0.0000 N   0  0  0  0  0  0  0  0  0  0  0  0
    1.0788    0.2436    0.0000 C   0  0  0  0  0  0  0  0  0  0  0  0
    1.0788   -0.5568    0.0000 C   0  0  0  0  0  0  0  0  0  0  0  0
   -0.3828    0.2436    0.0000 C   0  0  0  0  0  0  0  0  0  0  0  0
    1.7748    0.6612    0.0000 C   0  0  0  0  0  0  0  0  0  0  0  0
    1.7748   -0.9745    0.0000 C   0  0  0  0  0  0  0  0  0  0  0  0
    0.3480   -0.9745    0.0000 C   0  0  0  0  0  0  0  0  0  0  0  0
   -0.3828   -0.5568    0.0000 C   0  0  0  0  0  0  0  0  0  0  0  0
    2.5058   -0.5568    0.0000 C   0  0  0  0  0  0  0  0  0  0  0  0
    2.5058    0.2436    0.0000 C   0  0  0  0  0  0  0  0  0  0  0  0
   -1.0788    0.6612    0.0000 O   0  0  0  0  0  0  0  0  0  0  0  0
    0.3480    1.4965    0.0000 C   0  0  0  0  0  0  0  0  0  0  0  0
   -0.3480    1.9141    0.0000 C   0  0  0  0  0  0  0  0  0  0  0  0
   -0.3480    2.7493    0.0000 C   0  0  0  0  0  0  0  0  0  0  0  0
   -0.7656    3.4802    0.0000 C   0  0  0  0  0  0  0  0  0  0  0  0
    0.0348    3.4454    0.0000 C   0  0  0  0  0  0  0  0  0  0  0  0
   -2.5406   -1.0092    0.0000 S   0  0  0  0  0  0  0  0  0  0  0  0
   -1.8097   -0.5915    0.0000 N   0  0  0  0  0  0  0  0  0  0  0  0
   -1.0788   -0.9745    0.0000 C   0  0  0  0  0  0  0  0  0  0  0  0
   -1.0788   -1.8097    0.0000 N   0  0  0  0  0  0  0  0  0  0  0  0
   -1.8097   -2.2621    0.0000 C   0  0  0  0  0  0  0  0  0  0  0  0
   -2.5058   -1.8445    0.0000 C   0  0  0  0  0  0  0  0  0  0  0  0
   -3.2366   -2.2273    0.0000 C   0  0  0  0  0  0  0  0  0  0  0  0
   -3.2366   -3.0625    0.0000 C   0  0  0  0  0  0  0  0  0  0  0  0
   -2.5058   -3.4802    0.0000 C   0  0  0  0  0  0  0  0  0  0  0  0
   -1.7748   -3.0625    0.0000 C   0  0  0  0  0  0  0  0  0  0  0  0
   -3.2366   -0.5915    0.0000 O   0  0  0  0  0  0  0  0  0  0  0  0
   -2.5406   -0.1740    0.0000 O   0  0  0  0  0  0  0  0  0  0  0  0
    3.2366   -0.9745    0.0000 F   0  0  0  0  0  0  0  0  0  0  0  0
    0.3480   -1.8097    0.0000 O   0  0  0  0  0  0  0  0  0  0  0  0
    1.7638    1.6931    0.0000 H   0  0  0  0  0  0  0  0  0  0  0  0
    1.7638   -2.0064    0.0000 H   0  0  0  0  0  0  0  0  0  0  0  0
    3.3984    0.7616    0.0000 H   0  0  0  0  0  0  0  0  0  0  0  0
    1.2791    2.0237    0.0000 H   0  0  0  0  0  0  0  0  0  0  0  0
    0.3615    2.5664    0.0000 H   0  0  0  0  0  0  0  0  0  0  0  0
   -1.2791    1.3869    0.0000 H   0  0  0  0  0  0  0  0  0  0  0  0
   -1.2724    2.4530    0.0000 H   0  0  0  0  0  0  0  0  0  0  0  0
   -0.3567    3.8193    0.0000 H   0  0  0  0  0  0  0  0  0  0  0  0
   -1.6792    4.0373    0.0000 H   0  0  0  0  0  0  0  0  0  0  0  0
   -0.4540    4.5038    0.0000 H   0  0  0  0  0  0  0  0  0  0  0  0
    0.9674    3.9699    0.0000 H   0  0  0  0  0  0  0  0  0  0  0  0
   -0.2137    4.4861    0.0000 H   0  0  0  0  0  0  0  0  0  0  0  0
   -0.2188   -2.2888    0.0000 H   0  0  0  0  0  0  0  0  0  0  0  0
   -4.1196   -1.6931    0.0000 H   0  0  0  0  0  0  0  0  0  0  0  0
   -4.1292   -3.5804    0.0000 H   0  0  0  0  0  0  0  0  0  0  0  0
   -2.5059   -4.5122    0.0000 H   0  0  0  0  0  0  0  0  0  0  0  0
   -0.8711   -3.5609    0.0000 H   0  0  0  0  0  0  0  0  0  0  0  0
   -0.4635   -2.2782    0.0000 H   0  0  0  0  0  0  0  0  0  0  0  0
  1  2  1  0  0  0  0
  1  4  1  0  0  0  0
  1 12  1  0  0  0  0
  2  3  2  0  0  0  0
  2  5  1  0  0  0  0
  3  6  1  0  0  0  0
  3  7  1  0  0  0  0
  4  8  1  0  0  0  0
  4 11  2  0  0  0  0
  5 10  2  0  0  0  0
  5 31  1  0  0  0  0
  6  9  2  0  0  0  0
  6 32  1  0  0  0  0
  7  8  2  0  0  0  0
  7 30  1  0  0  0  0
  8 19  1  0  0  0  0
  9 10  1  0  0  0  0
  9 29  1  0  0  0  0
 10 33  1  0  0  0  0
 12 13  1  0  0  0  0
 12 34  1  0  0  0  0
 12 35  1  0  0  0  0
 13 14  1  0  0  0  0
 13 36  1  0  0  0  0
 13 37  1  0  0  0  0
 14 15  1  0  0  0  0
 14 16  1  0  0  0  0
 14 38  1  0  0  0  0
 15 16  1  0  0  0  0
 15 39  1  0  0  0  0
 15 40  1  0  0  0  0
 16 41  1  0  0  0  0
 16 42  1  0  0  0  0
 17 18  1  0  0  0  0
 17 22  1  0  0  0  0
 17 27  2  0  0  0  0
 17 28  2  0  0  0  0
 18 19  2  0  0  0  0
 19 20  1  0  0  0  0
 20 21  1  0  0  0  0
 20 43  1  0  0  0  0
 21 22  2  0  0  0  0
 21 26  1  0  0  0  0
 22 23  1  0  0  0  0
 23 24  2  0  0  0  0
 23 44  1  0  0  0  0
 24 25  1  0  0  0  0
 24 45  1  0  0  0  0
 25 26  2  0  0  0  0
 25 46  1  0  0  0  0
 26 47  1  0  0  0  0
 30 48  1  0  0  0  0
M  END
>  <DRUGBANK_ID>
DB08278

>  <COMMON_NAME>
1-(2-cyclopropylethyl)-3-(1,1-dioxo-2H-1,2,4-benzothiadiazin-3-yl)-6-fluoro-4-hydroxy-2(1H)-quinolinone

>  <CAS_NUMBER>
477931-14-9

$$$$
