
 OpenBabel10282417072D

 17 16  0  0  1  0  0  0  0  0999 V2000
    1.2375    2.1434    0.0000 C   0  0  0  0  0  0  0  0  0  0  0  0
    0.8250    1.4289    0.0000 C   0  0  1  0  0  0  0  0  0  0  0  0
    0.0000    1.4289    0.0000 O   0  0  0  0  0  0  0  0  0  0  0  0
    1.2375    0.7145    0.0000 C   0  0  1  0  0  0  0  0  0  0  0  0
    2.0625    0.7145    0.0000 N   0  0  0  0  0  0  0  0  0  0  0  0
    0.8250    0.0000    0.0000 C   0  0  0  0  0  0  0  0  0  0  0  0
    1.2375   -0.7145    0.0000 O   0  0  0  0  0  0  0  0  0  0  0  0
    0.0000    0.0000    0.0000 O   0  0  0  0  0  0  0  0  0  0  0  0
    2.3075    2.1434    0.0000 H   0  0  0  0  0  0  0  0  0  0  0  0
    0.7025    3.0700    0.0000 H   0  0  0  0  0  0  0  0  0  0  0  0
    1.7725    3.0701    0.0000 H   0  0  0  0  0  0  0  0  0  0  0  0
    0.2900    2.3555    0.0000 H   0  0  0  0  0  0  0  0  0  0  0  0
   -0.4850    2.2689    0.0000 H   0  0  0  0  0  0  0  0  0  0  0  0
    1.7725    1.6412    0.0000 H   0  0  0  0  0  0  0  0  0  0  0  0
    2.5725   -0.1688    0.0000 H   0  0  0  0  0  0  0  0  0  0  0  0
    2.5725    1.5978    0.0000 H   0  0  0  0  0  0  0  0  0  0  0  0
    0.7690   -1.5260    0.0000 H   0  0  0  0  0  0  0  0  0  0  0  0
  1  2  1  0  0  0  0
  1  9  1  0  0  0  0
  1 10  1  0  0  0  0
  1 11  1  0  0  0  0
  2  3  1  0  0  0  0
  2  4  1  0  0  0  0
  2 12  1  1  0  0  0
  3 13  1  0  0  0  0
  4  5  1  0  0  0  0
  4  6  1  0  0  0  0
  4 14  1  6  0  0  0
  5 15  1  0  0  0  0
  5 16  1  0  0  0  0
  6  7  1  0  0  0  0
  6  8  2  0  0  0  0
  7 17  1  0  0  0  0
M  END
>  <DRUGBANK_ID>
DB03700

>  <SECONDARY_ACCESSION_NUMBERS>
EXPT01284

>  <COMMON_NAME>
D-Threonine

>  <CAS_NUMBER>
632-20-2

>  <UNII>
0756UWA0SA

$$$$
