NHL
 OpenBabel10282417072D

 38 39  0  0  0  0  0  0  0  0999 V2000
   -2.0786   -2.8378    0.0000 C   0  0  0  0  0  0  0  0  0  0  0  0
   -2.9036   -2.8378    0.0000 C   0  0  0  0  0  0  0  0  0  0  0  0
   -3.3161   -2.1234    0.0000 C   0  0  0  0  0  0  0  0  0  0  0  0
   -4.1411   -2.1234    0.0000 C   0  0  0  0  0  0  0  0  0  0  0  0
   -4.5536   -1.4089    0.0000 C   0  0  0  0  0  0  0  0  0  0  0  0
   -4.1411   -0.6944    0.0000 C   0  0  0  0  0  0  0  0  0  0  0  0
   -3.3161   -0.6944    0.0000 C   0  0  0  0  0  0  0  0  0  0  0  0
   -2.9036   -1.4089    0.0000 C   0  0  0  0  0  0  0  0  0  0  0  0
   -2.0786   -1.4089    0.0000 C   0  0  0  0  0  0  0  0  0  0  0  0
   -1.6661   -2.1234    0.0000 C   0  0  0  0  0  0  0  0  0  0  0  0
   -0.8411   -2.1234    0.0000 C   0  0  0  0  0  0  0  0  0  0  0  0
   -0.4286   -1.4089    0.0000 C   0  0  2  0  0  0  0  0  0  0  0  0
   -0.8411   -0.6944    0.0000 C   0  0  0  0  0  0  0  0  0  0  0  0
   -0.4286    0.0201    0.0000 O   0  0  0  0  0  0  0  0  0  0  0  0
   -1.6661   -0.6944    0.0000 O   0  0  0  0  0  0  0  0  0  0  0  0
    0.3964   -1.4089    0.0000 C   0  0  0  0  0  0  0  0  0  0  0  0
    0.8089   -0.6944    0.0000 C   0  0  1  0  0  0  0  0  0  0  0  0
    0.3964    0.0201    0.0000 N   0  0  0  0  0  0  0  0  0  0  0  0
    1.6339   -0.6944    0.0000 C   0  0  0  0  0  0  0  0  0  0  0  0
    2.0464   -1.4089    0.0000 O   0  0  0  0  0  0  0  0  0  0  0  0
    2.0464    0.0201    0.0000 O   0  0  0  0  0  0  0  0  0  0  0  0
   -1.0125   -1.4089    0.0000 H   0  0  0  0  0  0  0  0  0  0  0  0
    0.2250   -0.6944    0.0000 H   0  0  0  0  0  0  0  0  0  0  0  0
   -1.5626   -3.7315    0.0000 H   0  0  0  0  0  0  0  0  0  0  0  0
   -3.4196   -3.7315    0.0000 H   0  0  0  0  0  0  0  0  0  0  0  0
   -4.6571   -3.0171    0.0000 H   0  0  0  0  0  0  0  0  0  0  0  0
   -5.5856   -1.4089    0.0000 H   0  0  0  0  0  0  0  0  0  0  0  0
   -4.6571    0.1993    0.0000 H   0  0  0  0  0  0  0  0  0  0  0  0
   -2.8001    0.1993    0.0000 H   0  0  0  0  0  0  0  0  0  0  0  0
   -1.5626   -0.5152    0.0000 H   0  0  0  0  0  0  0  0  0  0  0  0
   -0.3061   -3.0500    0.0000 H   0  0  0  0  0  0  0  0  0  0  0  0
    0.2289   -2.1234    0.0000 H   0  0  0  0  0  0  0  0  0  0  0  0
    0.5084    0.0201    0.0000 H   0  0  0  0  0  0  0  0  0  0  0  0
    0.9314   -2.3355    0.0000 H   0  0  0  0  0  0  0  0  0  0  0  0
    1.4664   -1.4089    0.0000 H   0  0  0  0  0  0  0  0  0  0  0  0
    0.9064    0.9034    0.0000 H   0  0  0  0  0  0  0  0  0  0  0  0
   -0.6236    0.0201    0.0000 H   0  0  0  0  0  0  0  0  0  0  0  0
    1.5779   -2.2204    0.0000 H   0  0  0  0  0  0  0  0  0  0  0  0
  1  2  2  0  0  0  0
  1 10  1  0  0  0  0
  1 24  1  0  0  0  0
  2  3  1  0  0  0  0
  2 25  1  0  0  0  0
  3  4  2  0  0  0  0
  3  8  1  0  0  0  0
  4  5  1  0  0  0  0
  4 26  1  0  0  0  0
  5  6  2  0  0  0  0
  5 27  1  0  0  0  0
  6  7  1  0  0  0  0
  6 28  1  0  0  0  0
  7  8  2  0  0  0  0
  7 29  1  0  0  0  0
  8  9  1  0  0  0  0
  9 10  2  0  0  0  0
  9 30  1  0  0  0  0
 10 11  1  0  0  0  0
 11 12  1  0  0  0  0
 11 31  1  0  0  0  0
 11 32  1  0  0  0  0
 12 13  1  0  0  0  0
 12 16  1  0  0  0  0
 12 22  1  1  0  0  0
 13 15  2  0  0  0  0
 13 14  1  0  0  0  0
 14 33  1  0  0  0  0
 16 17  1  0  0  0  0
 16 34  1  0  0  0  0
 16 35  1  0  0  0  0
 17 18  1  0  0  0  0
 17 19  1  0  0  0  0
 17 23  1  6  0  0  0
 18 36  1  0  0  0  0
 18 37  1  0  0  0  0
 19 21  2  0  0  0  0
 19 20  1  0  0  0  0
 20 38  1  0  0  0  0
M  END
>  <DRUGBANK_ID>
DB08272

>  <COMMON_NAME>
(4S)-4-(2-NAPHTHYLMETHYL)-D-GLUTAMIC ACID

$$$$
