HZ3
 OpenBabel10282417072D

 47 50  0  0  0  0  0  0  0  0999 V2000
   -1.3672    0.6789    0.0000 C   0  0  0  0  0  0  0  0  0  0  0  0
   -1.9811    1.2300    0.0000 C   0  0  0  0  0  0  0  0  0  0  0  0
   -1.8107    2.0372    0.0000 C   0  0  0  0  0  0  0  0  0  0  0  0
   -2.4246    2.5884    0.0000 O   0  0  0  0  0  0  0  0  0  0  0  0
   -1.0265    2.2933    0.0000 C   0  0  0  0  0  0  0  0  0  0  0  0
   -0.4126    1.7422    0.0000 C   0  0  0  0  0  0  0  0  0  0  0  0
   -0.5830    0.9350    0.0000 C   0  0  0  0  0  0  0  0  0  0  0  0
    0.0309    0.3838    0.0000 C   0  0  0  0  0  0  0  0  0  0  0  0
    0.6712    0.8340    0.0000 C   0  0  1  0  0  0  0  0  0  0  0  0
    0.5112    1.6494    0.0000 O   0  0  0  0  0  0  0  0  0  0  0  0
    1.4667    0.3687    0.0000 C   0  0  0  0  0  0  0  0  0  0  0  0
    2.2548    0.6128    0.0000 C   0  0  0  0  0  0  0  0  0  0  0  0
    2.4375    1.4173    0.0000 O   0  0  0  0  0  0  0  0  0  0  0  0
    3.2255    1.6614    0.0000 C   0  0  0  0  0  0  0  0  0  0  0  0
    2.8602    0.0523    0.0000 O   0  0  0  0  0  0  0  0  0  0  0  0
    1.1716   -0.2567    0.0000 C   0  0  0  0  0  0  0  0  0  0  0  0
    1.4393   -1.0371    0.0000 C   0  0  0  0  0  0  0  0  0  0  0  0
    0.8972   -1.6590    0.0000 O   0  0  0  0  0  0  0  0  0  0  0  0
    1.1649   -2.4394    0.0000 C   0  0  0  0  0  0  0  0  0  0  0  0
    2.2489   -1.1955    0.0000 O   0  0  0  0  0  0  0  0  0  0  0  0
    0.4411    0.1136    0.0000 C   0  0  2  0  0  0  0  0  0  0  0  0
   -0.3344   -0.2767    0.0000 C   0  0  0  0  0  0  0  0  0  0  0  0
   -0.9290   -0.8486    0.0000 C   0  0  0  0  0  0  0  0  0  0  0  0
   -1.7216   -0.6196    0.0000 C   0  0  0  0  0  0  0  0  0  0  0  0
   -2.3162   -1.1915    0.0000 C   0  0  0  0  0  0  0  0  0  0  0  0
   -2.1182   -1.9924    0.0000 C   0  0  0  0  0  0  0  0  0  0  0  0
   -2.7128   -2.5643    0.0000 O   0  0  0  0  0  0  0  0  0  0  0  0
   -1.3256   -2.2214    0.0000 C   0  0  0  0  0  0  0  0  0  0  0  0
   -0.7310   -1.6495    0.0000 C   0  0  0  0  0  0  0  0  0  0  0  0
    0.8479    1.3906    0.0000 H   0  0  0  0  0  0  0  0  0  0  0  0
    0.4403   -0.4703    0.0000 H   0  0  0  0  0  0  0  0  0  0  0  0
   -1.5803   -0.3309    0.0000 H   0  0  0  0  0  0  0  0  0  0  0  0
   -2.9621    0.9097    0.0000 H   0  0  0  0  0  0  0  0  0  0  0  0
   -2.2311    3.5052    0.0000 H   0  0  0  0  0  0  0  0  0  0  0  0
   -0.8134    3.3031    0.0000 H   0  0  0  0  0  0  0  0  0  0  0  0
    0.5684    2.0625    0.0000 H   0  0  0  0  0  0  0  0  0  0  0  0
    4.0107    0.9346    0.0000 H   0  0  0  0  0  0  0  0  0  0  0  0
    3.4623    2.7049    0.0000 H   0  0  0  0  0  0  0  0  0  0  0  0
    4.2476    1.9780    0.0000 H   0  0  0  0  0  0  0  0  0  0  0  0
    0.4620   -3.2461    0.0000 H   0  0  0  0  0  0  0  0  0  0  0  0
    2.2150   -2.6448    0.0000 H   0  0  0  0  0  0  0  0  0  0  0  0
    1.5121   -3.4515    0.0000 H   0  0  0  0  0  0  0  0  0  0  0  0
   -1.9693    0.3822    0.0000 H   0  0  0  0  0  0  0  0  0  0  0  0
   -3.3077   -0.9051    0.0000 H   0  0  0  0  0  0  0  0  0  0  0  0
   -3.6130   -2.3042    0.0000 H   0  0  0  0  0  0  0  0  0  0  0  0
   -1.0779   -3.2232    0.0000 H   0  0  0  0  0  0  0  0  0  0  0  0
    0.2605   -1.9359    0.0000 H   0  0  0  0  0  0  0  0  0  0  0  0
  1  2  2  0  0  0  0
  1 32  1  0  0  0  0
  2  3  1  0  0  0  0
  2 33  1  0  0  0  0
  3  4  1  0  0  0  0
  4 34  1  0  0  0  0
  5  3  2  0  0  0  0
  5 35  1  0  0  0  0
  6  5  1  0  0  0  0
  6 36  1  0  0  0  0
  7  6  2  0  0  0  0
  7  1  1  0  0  0  0
  8  7  1  0  0  0  0
  8 22  2  0  0  0  0
  9  8  1  0  0  0  0
  9 30  1  6  0  0  0
 10  9  1  0  0  0  0
 10 21  1  0  0  0  0
 11  9  1  0  0  0  0
 11 16  2  0  0  0  0
 12 13  1  0  0  0  0
 12 11  1  0  0  0  0
 13 14  1  0  0  0  0
 14 37  1  0  0  0  0
 14 38  1  0  0  0  0
 14 39  1  0  0  0  0
 15 12  2  0  0  0  0
 16 21  1  0  0  0  0
 17 16  1  0  0  0  0
 17 18  1  0  0  0  0
 19 18  1  0  0  0  0
 19 40  1  0  0  0  0
 19 41  1  0  0  0  0
 19 42  1  0  0  0  0
 20 17  2  0  0  0  0
 21 22  1  0  0  0  0
 21 31  1  1  0  0  0
 22 23  1  0  0  0  0
 23 29  2  0  0  0  0
 23 24  1  0  0  0  0
 24 25  2  0  0  0  0
 24 43  1  0  0  0  0
 25 26  1  0  0  0  0
 25 44  1  0  0  0  0
 26 27  1  0  0  0  0
 27 45  1  0  0  0  0
 28 26  2  0  0  0  0
 28 46  1  0  0  0  0
 29 28  1  0  0  0  0
 29 47  1  0  0  0  0
M  END
>  <DRUGBANK_ID>
DB07932

>  <COMMON_NAME>
dimethyl (1R,4S)-5,6-bis(4-hydroxyphenyl)-7-oxabicyclo[2.2.1]hepta-2,5-diene-2,3-dicarboxylate

$$$$
