521
 OpenBabel10282417072D

 29 31  0  0  0  0  0  0  0  0999 V2000
    0.3110    1.9341    0.0000 C   0  0  0  0  0  0  0  0  0  0  0  0
   -0.4035    1.5216    0.0000 C   0  0  0  0  0  0  0  0  0  0  0  0
   -0.4035    0.6966    0.0000 C   0  0  0  0  0  0  0  0  0  0  0  0
    0.3110    0.2841    0.0000 C   0  0  0  0  0  0  0  0  0  0  0  0
    1.0255    0.6966    0.0000 C   0  0  0  0  0  0  0  0  0  0  0  0
    1.0255    1.5216    0.0000 C   0  0  0  0  0  0  0  0  0  0  0  0
    0.3110   -0.5409    0.0000 C   0  0  0  0  0  0  0  0  0  0  0  0
    1.2084   -2.4779    0.0000 N   0  0  0  0  0  0  0  0  0  0  0  0
    2.2883   -3.2625    0.0000 N   0  0  0  0  0  0  0  0  0  0  0  0
    0.7235   -1.8104    0.0000 C   0  0  0  0  0  0  0  0  0  0  0  0
    0.9784   -1.0258    0.0000 C   0  0  0  0  0  0  0  0  0  0  0  0
   -0.1015   -1.8104    0.0000 C   0  0  0  0  0  0  0  0  0  0  0  0
   -0.3565   -1.0258    0.0000 S   0  0  0  0  0  0  0  0  0  0  0  0
    0.9535   -3.2625    0.0000 C   0  0  0  0  0  0  0  0  0  0  0  0
    1.6209   -3.7474    0.0000 C   0  0  0  0  0  0  0  0  0  0  0  0
    1.6209   -4.5724    0.0000 O   0  0  0  0  0  0  0  0  0  0  0  0
    2.0334   -2.4779    0.0000 S   0  0  0  0  0  0  0  0  0  0  0  0
    2.7835   -2.1344    0.0000 O   0  0  0  0  0  0  0  0  0  0  0  0
    2.1282   -1.6583    0.0000 O   0  0  0  0  0  0  0  0  0  0  0  0
    1.7630   -0.7709    0.0000 Cl  0  0  0  0  0  0  0  0  0  0  0  0
    0.3110    2.9661    0.0000 H   0  0  0  0  0  0  0  0  0  0  0  0
   -1.2972    2.0376    0.0000 H   0  0  0  0  0  0  0  0  0  0  0  0
   -1.2972    0.1806    0.0000 H   0  0  0  0  0  0  0  0  0  0  0  0
    1.9192    0.1806    0.0000 H   0  0  0  0  0  0  0  0  0  0  0  0
    1.9192    2.0376    0.0000 H   0  0  0  0  0  0  0  0  0  0  0  0
    3.2246   -3.5667    0.0000 H   0  0  0  0  0  0  0  0  0  0  0  0
   -0.7081   -2.6453    0.0000 H   0  0  0  0  0  0  0  0  0  0  0  0
   -0.0641   -3.5932    0.0000 H   0  0  0  0  0  0  0  0  0  0  0  0
    0.7861   -4.3193    0.0000 H   0  0  0  0  0  0  0  0  0  0  0  0
  1  6  2  0  0  0  0
  1  2  1  0  0  0  0
  1 21  1  0  0  0  0
  2  3  2  0  0  0  0
  2 22  1  0  0  0  0
  3  4  1  0  0  0  0
  3 23  1  0  0  0  0
  4  7  1  0  0  0  0
  4  5  2  0  0  0  0
  5  6  1  0  0  0  0
  5 24  1  0  0  0  0
  6 25  1  0  0  0  0
  7 11  2  0  0  0  0
  7 13  1  0  0  0  0
  8 17  1  0  0  0  0
  8 14  1  0  0  0  0
  8 10  1  0  0  0  0
  9 17  1  0  0  0  0
  9 15  1  0  0  0  0
  9 26  1  0  0  0  0
 10 11  1  0  0  0  0
 10 12  2  0  0  0  0
 11 20  1  0  0  0  0
 12 13  1  0  0  0  0
 12 27  1  0  0  0  0
 14 15  1  0  0  0  0
 14 28  1  0  0  0  0
 14 29  1  0  0  0  0
 15 16  2  0  0  0  0
 17 19  2  0  0  0  0
 17 18  2  0  0  0  0
M  END
>  <DRUGBANK_ID>
DB07134

>  <COMMON_NAME>
5-(4-CHLORO-5-PHENYL-3-THIENYL)-1,2,5-THIADIAZOLIDIN-3-ONE 1,1-DIOXIDE

$$$$
