GB5
 OpenBabel10282417072D

 21 21  0  0  0  0  0  0  0  0999 V2000
    2.2375    0.8469    0.0000 O   0  0  0  0  0  0  0  0  0  0  0  0
    2.2375    0.0219    0.0000 C   0  0  0  0  0  0  0  0  0  0  0  0
    2.9520   -0.3906    0.0000 N   0  0  0  0  0  0  0  0  0  0  0  0
    3.6665    0.0219    0.0000 O   0  0  0  0  0  0  0  0  0  0  0  0
    1.5231   -0.3906    0.0000 C   0  0  0  0  0  0  0  0  0  0  0  0
    0.8086    0.0219    0.0000 C   0  0  0  0  0  0  0  0  0  0  0  0
    0.0941   -0.3906    0.0000 C   0  0  0  0  0  0  0  0  0  0  0  0
   -0.6203    0.0219    0.0000 C   0  0  0  0  0  0  0  0  0  0  0  0
   -1.3348   -0.3906    0.0000 C   0  0  0  0  0  0  0  0  0  0  0  0
   -1.3348   -1.2156    0.0000 C   0  0  0  0  0  0  0  0  0  0  0  0
   -2.0493   -1.6281    0.0000 Cl  0  0  0  0  0  0  0  0  0  0  0  0
   -0.6203   -1.6281    0.0000 C   0  0  0  0  0  0  0  0  0  0  0  0
    0.0941   -1.2156    0.0000 C   0  0  0  0  0  0  0  0  0  0  0  0
    2.9520   -1.3751    0.0000 H   0  0  0  0  0  0  0  0  0  0  0  0
    4.5065   -0.4631    0.0000 H   0  0  0  0  0  0  0  0  0  0  0  0
    1.5231   -1.4226    0.0000 H   0  0  0  0  0  0  0  0  0  0  0  0
    0.8086    1.0539    0.0000 H   0  0  0  0  0  0  0  0  0  0  0  0
   -0.6203    1.0539    0.0000 H   0  0  0  0  0  0  0  0  0  0  0  0
   -2.2285    0.1254    0.0000 H   0  0  0  0  0  0  0  0  0  0  0  0
   -0.6203   -2.6601    0.0000 H   0  0  0  0  0  0  0  0  0  0  0  0
    0.9878   -1.7316    0.0000 H   0  0  0  0  0  0  0  0  0  0  0  0
  1  2  2  0  0  0  0
  2  5  1  0  0  0  0
  2  3  1  0  0  0  0
  3  4  1  0  0  0  0
  3 14  1  0  0  0  0
  4 15  1  0  0  0  0
  5  6  2  0  0  0  0
  5 16  1  0  0  0  0
  6  7  1  0  0  0  0
  6 17  1  0  0  0  0
  7 13  1  0  0  0  0
  7  8  2  0  0  0  0
  8  9  1  0  0  0  0
  8 18  1  0  0  0  0
  9 10  2  0  0  0  0
  9 19  1  0  0  0  0
 10 12  1  0  0  0  0
 10 11  1  0  0  0  0
 12 13  2  0  0  0  0
 12 20  1  0  0  0  0
 13 21  1  0  0  0  0
M  END
>  <DRUGBANK_ID>
DB07819

>  <COMMON_NAME>
(2E)-3-(4-CHLOROPHENYL)-N-HYDROXYACRYLAMIDE

$$$$
