
 OpenBabel10282417072D

 32 33  0  0  0  0  0  0  0  0999 V2000
    1.0557    0.9694    0.0000 S   0  0  0  0  0  0  0  0  0  0  0  0
   -1.8722    1.1270    0.0000 O   0  0  0  0  0  0  0  0  0  0  0  0
    3.6031   -0.4125    0.0000 O   0  0  0  0  0  0  0  0  0  0  0  0
    2.3656   -1.1270    0.0000 O   0  0  0  0  0  0  0  0  0  0  0  0
    1.0557   -0.3655    0.0000 N   0  0  0  0  0  0  0  0  0  0  0  0
    2.3656    0.3020    0.0000 N   0  0  0  0  0  0  0  0  0  0  0  0
    0.2711    0.7145    0.0000 C   0  0  0  0  0  0  0  0  0  0  0  0
    0.2711   -0.1105    0.0000 C   0  0  0  0  0  0  0  0  0  0  0  0
    1.5406    0.3020    0.0000 C   0  0  0  0  0  0  0  0  0  0  0  0
   -0.4433    1.1270    0.0000 C   0  0  0  0  0  0  0  0  0  0  0  0
   -1.1577    0.7145    0.0000 C   0  0  0  0  0  0  0  0  0  0  0  0
   -0.4433   -0.5230    0.0000 C   0  0  0  0  0  0  0  0  0  0  0  0
   -1.1577   -0.1105    0.0000 C   0  0  0  0  0  0  0  0  0  0  0  0
    2.7781   -0.4125    0.0000 C   0  0  0  0  0  0  0  0  0  0  0  0
   -2.5867    0.7145    0.0000 C   0  0  0  0  0  0  0  0  0  0  0  0
   -3.3011    1.1270    0.0000 C   0  0  0  0  0  0  0  0  0  0  0  0
    4.0156   -1.1270    0.0000 C   0  0  0  0  0  0  0  0  0  0  0  0
   -4.0156    0.7145    0.0000 C   0  0  0  0  0  0  0  0  0  0  0  0
    2.8579    1.1546    0.0000 H   0  0  0  0  0  0  0  0  0  0  0  0
   -0.4433    2.1590    0.0000 H   0  0  0  0  0  0  0  0  0  0  0  0
   -0.4433   -1.5550    0.0000 H   0  0  0  0  0  0  0  0  0  0  0  0
   -2.0514   -0.6265    0.0000 H   0  0  0  0  0  0  0  0  0  0  0  0
   -2.5867   -0.3555    0.0000 H   0  0  0  0  0  0  0  0  0  0  0  0
   -3.5134    0.1795    0.0000 H   0  0  0  0  0  0  0  0  0  0  0  0
   -3.3011    2.1970    0.0000 H   0  0  0  0  0  0  0  0  0  0  0  0
   -4.2277    1.6620    0.0000 H   0  0  0  0  0  0  0  0  0  0  0  0
    3.4806   -2.0536    0.0000 H   0  0  0  0  0  0  0  0  0  0  0  0
    5.0856   -1.1270    0.0000 H   0  0  0  0  0  0  0  0  0  0  0  0
    4.5506   -2.0537    0.0000 H   0  0  0  0  0  0  0  0  0  0  0  0
   -4.9422    1.2495    0.0000 H   0  0  0  0  0  0  0  0  0  0  0  0
   -4.0156   -0.3555    0.0000 H   0  0  0  0  0  0  0  0  0  0  0  0
   -4.9423    0.1795    0.0000 H   0  0  0  0  0  0  0  0  0  0  0  0
  1  7  1  0  0  0  0
  1  9  1  0  0  0  0
  2 11  1  0  0  0  0
  2 15  1  0  0  0  0
  3 14  1  0  0  0  0
  3 17  1  0  0  0  0
  4 14  2  0  0  0  0
  5  8  1  0  0  0  0
  5  9  2  0  0  0  0
  6  9  1  0  0  0  0
  6 14  1  0  0  0  0
  6 19  1  0  0  0  0
  7  8  1  0  0  0  0
  7 10  2  0  0  0  0
  8 12  2  0  0  0  0
 10 11  1  0  0  0  0
 10 20  1  0  0  0  0
 11 13  2  0  0  0  0
 12 13  1  0  0  0  0
 12 21  1  0  0  0  0
 13 22  1  0  0  0  0
 15 16  1  0  0  0  0
 15 23  1  0  0  0  0
 15 24  1  0  0  0  0
 16 18  1  0  0  0  0
 16 25  1  0  0  0  0
 16 26  1  0  0  0  0
 17 27  1  0  0  0  0
 17 28  1  0  0  0  0
 17 29  1  0  0  0  0
 18 30  1  0  0  0  0
 18 31  1  0  0  0  0
 18 32  1  0  0  0  0
M  END
>  <DRUGBANK_ID>
DB11472

>  <COMMON_NAME>
Tioxidazole

>  <CAS_NUMBER>
61570-90-9

>  <UNII>
NZW046NI85

>  <SYNONYMS>
Tioxidazol; Tioxidazole; Tioxidazolum

$$$$
