
 OpenBabel10282417072D

 28 28  0  0  0  0  0  0  0  0999 V2000
    1.4289    0.2062    0.0000 O   0  0  0  0  0  0  0  0  0  0  0  0
    0.7145   -1.0312    0.0000 O   0  0  0  0  0  0  0  0  0  0  0  0
    1.4289    1.0312    0.0000 O   0  0  0  0  0  0  0  0  0  0  0  0
    1.4289    2.6813    0.0000 O   0  0  0  0  0  0  0  0  0  0  0  0
    0.0000    1.0312    0.0000 N   0  0  0  0  0  0  0  0  0  0  0  0
    0.7145    2.2687    0.0000 N   0  0  0  0  0  0  0  0  0  0  0  0
    0.0000    0.2062    0.0000 C   0  0  1  0  0  0  0  0  0  0  0  0
   -0.7145   -0.2062    0.0000 C   0  0  0  0  0  0  0  0  0  0  0  0
   -0.7145   -1.0312    0.0000 C   0  0  0  0  0  0  0  0  0  0  0  0
    0.7145   -0.2062    0.0000 C   0  0  0  0  0  0  0  0  0  0  0  0
    0.0000   -1.4437    0.0000 C   0  0  0  0  0  0  0  0  0  0  0  0
   -1.4289   -1.4437    0.0000 C   0  0  0  0  0  0  0  0  0  0  0  0
    0.0000   -2.2687    0.0000 C   0  0  0  0  0  0  0  0  0  0  0  0
   -1.4289   -2.2687    0.0000 C   0  0  0  0  0  0  0  0  0  0  0  0
    0.7145    1.4437    0.0000 C   0  0  0  0  0  0  0  0  0  0  0  0
   -0.7145   -2.6813    0.0000 C   0  0  0  0  0  0  0  0  0  0  0  0
   -0.4429    1.2870    0.0000 H   0  0  0  0  0  0  0  0  0  0  0  0
    0.2714    2.5245    0.0000 H   0  0  0  0  0  0  0  0  0  0  0  0
    2.2403   -0.2624    0.0000 H   0  0  0  0  0  0  0  0  0  0  0  0
    2.2690    2.1964    0.0000 H   0  0  0  0  0  0  0  0  0  0  0  0
   -0.9266    0.7413    0.0000 H   0  0  0  0  0  0  0  0  0  0  0  0
   -1.6411    0.3289    0.0000 H   0  0  0  0  0  0  0  0  0  0  0  0
   -1.6412   -0.7412    0.0000 H   0  0  0  0  0  0  0  0  0  0  0  0
    0.8937   -0.9277    0.0000 H   0  0  0  0  0  0  0  0  0  0  0  0
   -2.3226   -0.9277    0.0000 H   0  0  0  0  0  0  0  0  0  0  0  0
    0.8938   -2.7847    0.0000 H   0  0  0  0  0  0  0  0  0  0  0  0
   -2.3227   -2.7846    0.0000 H   0  0  0  0  0  0  0  0  0  0  0  0
   -0.7145   -3.7133    0.0000 H   0  0  0  0  0  0  0  0  0  0  0  0
  1 10  1  0  0  0  0
  1 19  1  0  0  0  0
  2 10  2  0  0  0  0
  3 15  2  0  0  0  0
  4  6  1  0  0  0  0
  4 20  1  0  0  0  0
  5 15  1  0  0  0  0
  5 17  1  0  0  0  0
  6 15  1  0  0  0  0
  6 18  1  0  0  0  0
  7  5  1  0  0  0  0
  7  8  1  0  0  0  0
  7 10  1  0  0  0  0
  7 21  1  1  0  0  0
  8  9  1  0  0  0  0
  8 22  1  0  0  0  0
  8 23  1  0  0  0  0
  9 11  2  0  0  0  0
  9 12  1  0  0  0  0
 11 13  1  0  0  0  0
 11 24  1  0  0  0  0
 12 14  2  0  0  0  0
 12 25  1  0  0  0  0
 13 16  2  0  0  0  0
 13 26  1  0  0  0  0
 14 16  1  0  0  0  0
 14 27  1  0  0  0  0
 16 28  1  0  0  0  0
M  END
>  <DRUGBANK_ID>
DB02652

>  <SECONDARY_ACCESSION_NUMBERS>
EXPT02026

>  <COMMON_NAME>
L-[(N-Hydroxyamino)Carbonyl]Phenylalanine

$$$$
