
 OpenBabel10282417072D

 62 61  0  0  0  0  0  0  0  0999 V2000
    1.7719    0.4370    0.0000 C   0  0  0  0  0  0  0  0  0  0  0  0
    1.0644    0.0125    0.0000 C   0  0  0  0  0  0  0  0  0  0  0  0
    0.3570    0.4370    0.0000 C   0  0  0  0  0  0  0  0  0  0  0  0
   -0.3504    0.0125    0.0000 C   0  0  0  0  0  0  0  0  0  0  0  0
   -1.0576    0.4370    0.0000 C   0  0  0  0  0  0  0  0  0  0  0  0
   -1.7650    0.0125    0.0000 C   0  0  0  0  0  0  0  0  0  0  0  0
   -2.4725    0.4370    0.0000 C   0  0  0  0  0  0  0  0  0  0  0  0
    1.7719    1.2388    0.0000 O   0  0  0  0  0  0  0  0  0  0  0  0
    2.4794    0.0125    0.0000 N   0  0  0  0  0  0  0  0  0  0  0  0
   -3.1939    0.0365    0.0000 C   0  0  0  0  0  0  0  0  0  0  0  0
   -3.2078   -0.7883    0.0000 C   0  0  0  0  0  0  0  0  0  0  0  0
    0.3434   -1.2388    0.0000 C   0  0  0  0  0  0  0  0  0  0  0  0
   -0.3639   -0.8142    0.0000 C   0  0  0  0  0  0  0  0  0  0  0  0
   -1.0715   -1.2387    0.0000 C   0  0  0  0  0  0  0  0  0  0  0  0
   -1.7788   -0.8142    0.0000 C   0  0  0  0  0  0  0  0  0  0  0  0
   -2.5081   -1.2253    0.0000 C   0  0  0  0  0  0  0  0  0  0  0  0
   -4.6227    0.0365    0.0000 C   0  0  0  0  0  0  0  0  0  0  0  0
   -4.6227   -0.7884    0.0000 C   0  0  0  0  0  0  0  0  0  0  0  0
   -3.9083    0.4490    0.0000 C   0  0  0  0  0  0  0  0  0  0  0  0
   -3.9083   -1.2008    0.0000 C   0  0  0  0  0  0  0  0  0  0  0  0
    3.1937    0.4249    0.0000 C   0  0  0  0  0  0  0  0  0  0  0  0
    3.9082    0.0125    0.0000 C   0  0  0  0  0  0  0  0  0  0  0  0
    4.6227    0.4249    0.0000 O   0  0  0  0  0  0  0  0  0  0  0  0
    1.0644   -1.0575    0.0000 H   0  0  0  0  0  0  0  0  0  0  0  0
    0.1333   -0.5146    0.0000 H   0  0  0  0  0  0  0  0  0  0  0  0
    0.3570    1.5070    0.0000 H   0  0  0  0  0  0  0  0  0  0  0  0
   -0.5741    0.9642    0.0000 H   0  0  0  0  0  0  0  0  0  0  0  0
   -0.3505   -1.0575    0.0000 H   0  0  0  0  0  0  0  0  0  0  0  0
   -1.2816   -0.5146    0.0000 H   0  0  0  0  0  0  0  0  0  0  0  0
   -1.0575    1.5070    0.0000 H   0  0  0  0  0  0  0  0  0  0  0  0
   -1.9887    0.9642    0.0000 H   0  0  0  0  0  0  0  0  0  0  0  0
   -1.7650   -1.0575    0.0000 H   0  0  0  0  0  0  0  0  0  0  0  0
   -2.6961   -0.5147    0.0000 H   0  0  0  0  0  0  0  0  0  0  0  0
   -2.4545    1.5068    0.0000 H   0  0  0  0  0  0  0  0  0  0  0  0
   -3.3900    0.9875    0.0000 H   0  0  0  0  0  0  0  0  0  0  0  0
    2.4711   -0.9720    0.0000 H   0  0  0  0  0  0  0  0  0  0  0  0
   -3.2029   -1.0335    0.0000 H   0  0  0  0  0  0  0  0  0  0  0  0
   -4.1228   -0.4946    0.0000 H   0  0  0  0  0  0  0  0  0  0  0  0
   -3.1938    0.2816    0.0000 H   0  0  0  0  0  0  0  0  0  0  0  0
   -4.1333   -0.2512    0.0000 H   0  0  0  0  0  0  0  0  0  0  0  0
    0.3252   -2.3086    0.0000 H   0  0  0  0  0  0  0  0  0  0  0  0
    1.2790   -0.7197    0.0000 H   0  0  0  0  0  0  0  0  0  0  0  0
    1.2608   -1.7895    0.0000 H   0  0  0  0  0  0  0  0  0  0  0  0
   -0.3637    0.2558    0.0000 H   0  0  0  0  0  0  0  0  0  0  0  0
   -1.2950   -0.2869    0.0000 H   0  0  0  0  0  0  0  0  0  0  0  0
   -1.0716   -2.3087    0.0000 H   0  0  0  0  0  0  0  0  0  0  0  0
   -2.0027   -1.7658    0.0000 H   0  0  0  0  0  0  0  0  0  0  0  0
   -1.7642    0.2557    0.0000 H   0  0  0  0  0  0  0  0  0  0  0  0
   -2.6990   -0.2682    0.0000 H   0  0  0  0  0  0  0  0  0  0  0  0
   -2.5322   -2.2950    0.0000 H   0  0  0  0  0  0  0  0  0  0  0  0
   -3.4497   -1.7336    0.0000 H   0  0  0  0  0  0  0  0  0  0  0  0
   -5.5164    0.5525    0.0000 H   0  0  0  0  0  0  0  0  0  0  0  0
   -5.5493   -1.3234    0.0000 H   0  0  0  0  0  0  0  0  0  0  0  0
   -4.6227   -1.8584    0.0000 H   0  0  0  0  0  0  0  0  0  0  0  0
   -3.9083    1.4810    0.0000 H   0  0  0  0  0  0  0  0  0  0  0  0
   -3.9037   -2.2708    0.0000 H   0  0  0  0  0  0  0  0  0  0  0  0
   -2.9782   -1.7298    0.0000 H   0  0  0  0  0  0  0  0  0  0  0  0
    3.1936    1.4949    0.0000 H   0  0  0  0  0  0  0  0  0  0  0  0
    4.1203    0.9600    0.0000 H   0  0  0  0  0  0  0  0  0  0  0  0
    3.9082   -1.0575    0.0000 H   0  0  0  0  0  0  0  0  0  0  0  0
    4.8348   -0.5226    0.0000 H   0  0  0  0  0  0  0  0  0  0  0  0
    5.4627   -0.0602    0.0000 H   0  0  0  0  0  0  0  0  0  0  0  0
  2  1  1  0  0  0  0
  2 24  1  0  0  0  0
  2 25  1  0  0  0  0
  3  2  1  0  0  0  0
  3  4  1  0  0  0  0
  3 26  1  0  0  0  0
  3 27  1  0  0  0  0
  4 28  1  0  0  0  0
  4 29  1  0  0  0  0
  5  4  1  0  0  0  0
  5  6  1  0  0  0  0
  5 30  1  0  0  0  0
  5 31  1  0  0  0  0
  6 32  1  0  0  0  0
  6 33  1  0  0  0  0
  7  6  1  0  0  0  0
  7 10  1  0  0  0  0
  7 34  1  0  0  0  0
  7 35  1  0  0  0  0
  8  1  2  0  0  0  0
  9  1  1  0  0  0  0
  9 21  1  0  0  0  0
  9 36  1  0  0  0  0
 10 19  1  0  0  0  0
 10 37  1  0  0  0  0
 10 38  1  0  0  0  0
 11 20  1  0  0  0  0
 11 39  1  0  0  0  0
 11 40  1  0  0  0  0
 12 13  1  0  0  0  0
 12 41  1  0  0  0  0
 12 42  1  0  0  0  0
 12 43  1  0  0  0  0
 13 14  1  0  0  0  0
 13 44  1  0  0  0  0
 13 45  1  0  0  0  0
 14 15  1  0  0  0  0
 14 46  1  0  0  0  0
 14 47  1  0  0  0  0
 15 16  1  0  0  0  0
 15 48  1  0  0  0  0
 15 49  1  0  0  0  0
 16 11  1  0  0  0  0
 16 50  1  0  0  0  0
 16 51  1  0  0  0  0
 17 52  1  0  0  0  0
 18 17  1  0  0  0  0
 18 53  1  0  0  0  0
 18 54  1  0  0  0  0
 19 17  2  0  0  0  0
 19 55  1  0  0  0  0
 20 18  1  0  0  0  0
 20 56  1  0  0  0  0
 20 57  1  0  0  0  0
 21 22  1  0  0  0  0
 21 58  1  0  0  0  0
 21 59  1  0  0  0  0
 22 23  1  0  0  0  0
 22 60  1  0  0  0  0
 22 61  1  0  0  0  0
 23 62  1  0  0  0  0
M  END
>  <DRUGBANK_ID>
DB16495

>  <COMMON_NAME>
Oleic monoethanolamide

>  <CAS_NUMBER>
111-58-0

>  <UNII>
1HI5J9N8E6

>  <SYNONYMS>
N-(2-Hydroxyethyl)oleamide; N-OEA; N-oleoyl ethanolamine; N-oleoylethanolamine; OEA; Oleamide MEA; Oleoyl Ethanolamide; Oleoyl monoethanolamide; Oleoylethanolamide; Oleylethanolamide

$$$$
