
 OpenBabel10282417072D

133135  0  0  1  0  0  0  0  0999 V2000
   -4.5990    6.5081    0.0000 C   0  0  0  0  0  0  0  0  0  0  0  0
   -4.3441    7.2927    0.0000 C   0  0  0  0  0  0  0  0  0  0  0  0
   -3.5371    7.4642    0.0000 C   0  0  2  0  0  0  0  0  0  0  0  0
   -3.2822    8.2489    0.0000 C   0  0  0  0  0  0  0  0  0  0  0  0
   -2.9851    6.8512    0.0000 C   0  0  1  0  0  0  0  0  0  0  0  0
   -2.7301    7.6358    0.0000 C   0  0  0  0  0  0  0  0  0  0  0  0
   -2.8164    8.4563    0.0000 O   0  0  0  0  0  0  0  0  0  0  0  0
   -1.9232    7.8073    0.0000 N   0  0  0  0  0  0  0  0  0  0  0  0
   -1.3711    7.1942    0.0000 C   0  0  2  0  0  0  0  0  0  0  0  0
   -1.6261    6.4096    0.0000 C   0  0  0  0  0  0  0  0  0  0  0  0
   -2.4331    6.2381    0.0000 O   0  0  0  0  0  0  0  0  0  0  0  0
   -1.0740    5.7965    0.0000 N   0  0  0  0  0  0  0  0  0  0  0  0
   -1.3290    5.0119    0.0000 C   0  0  2  0  0  0  0  0  0  0  0  0
   -0.7770    4.3988    0.0000 C   0  0  0  0  0  0  0  0  0  0  0  0
    0.0300    4.5703    0.0000 O   0  0  0  0  0  0  0  0  0  0  0  0
   -1.0319    3.6142    0.0000 N   0  0  0  0  0  0  0  0  0  0  0  0
   -0.4799    3.0011    0.0000 C   0  0  1  0  0  0  0  0  0  0  0  0
   -0.7348    2.2164    0.0000 C   0  0  0  0  0  0  0  0  0  0  0  0
   -1.5418    2.0449    0.0000 S   0  0  0  0  0  0  0  0  0  0  0  0
   -2.0938    2.6580    0.0000 S   0  0  0  0  0  0  0  0  0  0  0  0
   -2.9008    2.4865    0.0000 C   0  0  0  0  0  0  0  0  0  0  0  0
   -3.4528    3.0996    0.0000 C   0  0  0  0  0  0  0  0  0  0  0  0
   -3.1979    3.8842    0.0000 C   0  0  0  0  0  0  0  0  0  0  0  0
   -2.3909    4.0557    0.0000 O   0  0  0  0  0  0  0  0  0  0  0  0
   -3.7499    4.4973    0.0000 N   0  0  0  0  0  0  0  0  0  0  0  0
   -3.4950    5.2819    0.0000 C   0  0  2  0  0  0  0  0  0  0  0  0
   -4.0470    5.8950    0.0000 C   0  0  0  0  0  0  0  0  0  0  0  0
   -4.8540    5.7235    0.0000 O   0  0  0  0  0  0  0  0  0  0  0  0
   -3.7921    6.6796    0.0000 N   0  0  0  0  0  0  0  0  0  0  0  0
   -4.3019    5.1104    0.0000 C   0  0  0  0  0  0  0  0  0  0  0  0
   -4.5569    4.3258    0.0000 C   0  0  0  0  0  0  0  0  0  0  0  0
   -4.0048    3.7127    0.0000 C   0  0  0  0  0  0  0  0  0  0  0  0
   -4.2598    2.9280    0.0000 C   0  0  0  0  0  0  0  0  0  0  0  0
   -5.0668    2.7565    0.0000 C   0  0  0  0  0  0  0  0  0  0  0  0
   -5.6188    3.3696    0.0000 C   0  0  0  0  0  0  0  0  0  0  0  0
   -5.3638    4.1542    0.0000 C   0  0  0  0  0  0  0  0  0  0  0  0
   -5.3217    1.9719    0.0000 O   0  0  0  0  0  0  0  0  0  0  0  0
    0.3271    3.1726    0.0000 C   0  0  0  0  0  0  0  0  0  0  0  0
    0.5821    3.9572    0.0000 O   0  0  0  0  0  0  0  0  0  0  0  0
    0.8791    2.5595    0.0000 N   0  0  0  0  0  0  0  0  0  0  0  0
    0.7076    1.7525    0.0000 C   0  0  0  0  0  0  0  0  0  0  0  0
    1.4221    1.3400    0.0000 C   0  0  0  0  0  0  0  0  0  0  0  0
    2.0352    1.8921    0.0000 C   0  0  0  0  0  0  0  0  0  0  0  0
    1.6996    2.6457    0.0000 C   0  0  1  0  0  0  0  0  0  0  0  0
    2.1121    3.3602    0.0000 C   0  0  0  0  0  0  0  0  0  0  0  0
    1.6996    4.0747    0.0000 O   0  0  0  0  0  0  0  0  0  0  0  0
    2.9371    3.3602    0.0000 N   0  0  0  0  0  0  0  0  0  0  0  0
    3.3496    4.0747    0.0000 C   0  0  1  0  0  0  0  0  0  0  0  0
    2.9371    4.7891    0.0000 C   0  0  0  0  0  0  0  0  0  0  0  0
    3.3496    5.5036    0.0000 C   0  0  0  0  0  0  0  0  0  0  0  0
    4.1746    5.5036    0.0000 C   0  0  0  0  0  0  0  0  0  0  0  0
    2.9371    6.2181    0.0000 C   0  0  0  0  0  0  0  0  0  0  0  0
    4.1746    4.0747    0.0000 C   0  0  0  0  0  0  0  0  0  0  0  0
    4.5871    3.3602    0.0000 O   0  0  0  0  0  0  0  0  0  0  0  0
    4.5871    4.7891    0.0000 N   0  0  0  0  0  0  0  0  0  0  0  0
    5.4121    4.7891    0.0000 C   0  0  0  0  0  0  0  0  0  0  0  0
    5.8246    5.5036    0.0000 C   0  0  0  0  0  0  0  0  0  0  0  0
    6.6496    5.5036    0.0000 O   0  0  0  0  0  0  0  0  0  0  0  0
    5.4121    6.2181    0.0000 N   0  0  0  0  0  0  0  0  0  0  0  0
   -0.5220    5.1834    0.0000 C   0  0  0  0  0  0  0  0  0  0  0  0
   -0.2671    5.9680    0.0000 C   0  0  0  0  0  0  0  0  0  0  0  0
   -0.8191    6.5811    0.0000 O   0  0  0  0  0  0  0  0  0  0  0  0
    0.5399    6.1395    0.0000 N   0  0  0  0  0  0  0  0  0  0  0  0
   -0.5642    7.3657    0.0000 C   0  0  0  0  0  0  0  0  0  0  0  0
   -0.3092    8.1504    0.0000 C   0  0  0  0  0  0  0  0  0  0  0  0
   -0.8613    8.7635    0.0000 C   0  0  0  0  0  0  0  0  0  0  0  0
   -1.6682    8.5919    0.0000 O   0  0  0  0  0  0  0  0  0  0  0  0
   -0.6063    9.5481    0.0000 N   0  0  0  0  0  0  0  0  0  0  0  0
   -5.6456    6.2856    0.0000 H   0  0  0  0  0  0  0  0  0  0  0  0
   -3.8830    5.7130    0.0000 H   0  0  0  0  0  0  0  0  0  0  0  0
   -4.9296    5.4905    0.0000 H   0  0  0  0  0  0  0  0  0  0  0  0
   -5.0601    8.0879    0.0000 H   0  0  0  0  0  0  0  0  0  0  0  0
   -4.0134    8.3103    0.0000 H   0  0  0  0  0  0  0  0  0  0  0  0
   -3.8677    6.4466    0.0000 H   0  0  0  0  0  0  0  0  0  0  0  0
   -2.2356    8.4714    0.0000 H   0  0  0  0  0  0  0  0  0  0  0  0
   -3.9982    9.0440    0.0000 H   0  0  0  0  0  0  0  0  0  0  0  0
   -2.9516    9.2666    0.0000 H   0  0  0  0  0  0  0  0  0  0  0  0
   -3.2075    7.8978    0.0000 H   0  0  0  0  0  0  0  0  0  0  0  0
   -1.6190    8.7436    0.0000 H   0  0  0  0  0  0  0  0  0  0  0  0
   -1.0405    8.2118    0.0000 H   0  0  0  0  0  0  0  0  0  0  0  0
   -0.1110    6.0012    0.0000 H   0  0  0  0  0  0  0  0  0  0  0  0
   -0.5338    5.7278    0.0000 H   0  0  0  0  0  0  0  0  0  0  0  0
   -1.9949    3.4095    0.0000 H   0  0  0  0  0  0  0  0  0  0  0  0
   -0.1492    4.0187    0.0000 H   0  0  0  0  0  0  0  0  0  0  0  0
   -0.0188    1.4212    0.0000 H   0  0  0  0  0  0  0  0  0  0  0  0
   -1.0655    1.1988    0.0000 H   0  0  0  0  0  0  0  0  0  0  0  0
   -3.2315    1.4689    0.0000 H   0  0  0  0  0  0  0  0  0  0  0  0
   -3.9474    2.2641    0.0000 H   0  0  0  0  0  0  0  0  0  0  0  0
   -4.4994    2.8771    0.0000 H   0  0  0  0  0  0  0  0  0  0  0  0
   -4.1688    3.8948    0.0000 H   0  0  0  0  0  0  0  0  0  0  0  0
   -4.7129    4.2926    0.0000 H   0  0  0  0  0  0  0  0  0  0  0  0
   -4.2902    4.5659    0.0000 H   0  0  0  0  0  0  0  0  0  0  0  0
   -4.4509    7.4112    0.0000 H   0  0  0  0  0  0  0  0  0  0  0  0
   -5.0178    5.9056    0.0000 H   0  0  0  0  0  0  0  0  0  0  0  0
   -5.3485    4.8880    0.0000 H   0  0  0  0  0  0  0  0  0  0  0  0
   -2.9954    3.9273    0.0000 H   0  0  0  0  0  0  0  0  0  0  0  0
   -3.5693    2.1610    0.0000 H   0  0  0  0  0  0  0  0  0  0  0  0
   -6.6283    3.1551    0.0000 H   0  0  0  0  0  0  0  0  0  0  0  0
   -6.0544    4.9211    0.0000 H   0  0  0  0  0  0  0  0  0  0  0  0
   -6.2382    1.7771    0.0000 H   0  0  0  0  0  0  0  0  0  0  0  0
   -0.2699    1.3173    0.0000 H   0  0  0  0  0  0  0  0  0  0  0  0
    0.6516    0.6840    0.0000 H   0  0  0  0  0  0  0  0  0  0  0  0
    1.5340    0.2759    0.0000 H   0  0  0  0  0  0  0  0  0  0  0  0
    2.4210    0.9566    0.0000 H   0  0  0  0  0  0  0  0  0  0  0  0
    3.0818    1.6697    0.0000 H   0  0  0  0  0  0  0  0  0  0  0  0
    2.7085    2.7237    0.0000 H   0  0  0  0  0  0  0  0  0  0  0  0
    2.7681    2.5898    0.0000 H   0  0  0  0  0  0  0  0  0  0  0  0
    3.4294    2.5076    0.0000 H   0  0  0  0  0  0  0  0  0  0  0  0
    2.2796    4.0747    0.0000 H   0  0  0  0  0  0  0  0  0  0  0  0
    1.8671    4.7891    0.0000 H   0  0  0  0  0  0  0  0  0  0  0  0
    2.4021    5.7157    0.0000 H   0  0  0  0  0  0  0  0  0  0  0  0
    3.8846    6.4302    0.0000 H   0  0  0  0  0  0  0  0  0  0  0  0
    4.7096    4.5770    0.0000 H   0  0  0  0  0  0  0  0  0  0  0  0
    4.7096    6.4302    0.0000 H   0  0  0  0  0  0  0  0  0  0  0  0
    5.2446    5.5036    0.0000 H   0  0  0  0  0  0  0  0  0  0  0  0
    3.4721    7.1447    0.0000 H   0  0  0  0  0  0  0  0  0  0  0  0
    1.8671    6.2181    0.0000 H   0  0  0  0  0  0  0  0  0  0  0  0
    2.4021    7.1448    0.0000 H   0  0  0  0  0  0  0  0  0  0  0  0
    4.0949    5.6417    0.0000 H   0  0  0  0  0  0  0  0  0  0  0  0
    5.9471    3.8625    0.0000 H   0  0  0  0  0  0  0  0  0  0  0  0
    6.4821    4.7891    0.0000 H   0  0  0  0  0  0  0  0  0  0  0  0
    5.9044    7.0707    0.0000 H   0  0  0  0  0  0  0  0  0  0  0  0
    4.4276    6.2181    0.0000 H   0  0  0  0  0  0  0  0  0  0  0  0
    0.1940    4.3882    0.0000 H   0  0  0  0  0  0  0  0  0  0  0  0
    0.5246    5.4059    0.0000 H   0  0  0  0  0  0  0  0  0  0  0  0
    1.1986    5.4078    0.0000 H   0  0  0  0  0  0  0  0  0  0  0  0
    0.8442    7.0758    0.0000 H   0  0  0  0  0  0  0  0  0  0  0  0
    0.1517    6.5705    0.0000 H   0  0  0  0  0  0  0  0  0  0  0  0
    0.4824    7.5881    0.0000 H   0  0  0  0  0  0  0  0  0  0  0  0
    0.7374    8.3729    0.0000 H   0  0  0  0  0  0  0  0  0  0  0  0
    0.0214    9.1680    0.0000 H   0  0  0  0  0  0  0  0  0  0  0  0
    0.3567    9.7527    0.0000 H   0  0  0  0  0  0  0  0  0  0  0  0
   -1.2650   10.2798    0.0000 H   0  0  0  0  0  0  0  0  0  0  0  0
  1  2  1  0  0  0  0
  1 69  1  0  0  0  0
  1 70  1  0  0  0  0
  1 71  1  0  0  0  0
  2  3  1  0  0  0  0
  2 72  1  0  0  0  0
  2 73  1  0  0  0  0
  3  4  1  0  0  0  0
  3 74  1  1  0  0  0
  4 75  1  0  0  0  0
  4 76  1  0  0  0  0
  4 77  1  0  0  0  0
  5  3  1  0  0  0  0
  5  6  1  0  0  0  0
  5 29  1  0  0  0  0
  5 78  1  6  0  0  0
  6  7  2  0  0  0  0
  6  8  1  0  0  0  0
  8  9  1  0  0  0  0
  8 79  1  0  0  0  0
  9 10  1  0  0  0  0
  9 64  1  0  0  0  0
  9 80  1  6  0  0  0
 10 11  2  0  0  0  0
 10 12  1  0  0  0  0
 12 13  1  0  0  0  0
 12 81  1  0  0  0  0
 13 14  1  0  0  0  0
 13 60  1  0  0  0  0
 13 82  1  6  0  0  0
 14 15  2  0  0  0  0
 14 16  1  0  0  0  0
 16 17  1  0  0  0  0
 16 83  1  0  0  0  0
 17 18  1  0  0  0  0
 17 38  1  0  0  0  0
 17 84  1  1  0  0  0
 18 19  1  0  0  0  0
 18 85  1  0  0  0  0
 18 86  1  0  0  0  0
 19 20  1  0  0  0  0
 20 21  1  0  0  0  0
 21 22  1  0  0  0  0
 21 87  1  0  0  0  0
 21 88  1  0  0  0  0
 22 23  1  0  0  0  0
 22 89  1  0  0  0  0
 22 90  1  0  0  0  0
 23 24  2  0  0  0  0
 23 25  1  0  0  0  0
 25 26  1  0  0  0  0
 25 91  1  0  0  0  0
 26 27  1  0  0  0  0
 26 30  1  0  0  0  0
 26 92  1  6  0  0  0
 27 28  2  0  0  0  0
 27 29  1  0  0  0  0
 29 93  1  0  0  0  0
 30 31  1  0  0  0  0
 30 94  1  0  0  0  0
 30 95  1  0  0  0  0
 31 32  2  0  0  0  0
 31 36  1  0  0  0  0
 32 33  1  0  0  0  0
 32 96  1  0  0  0  0
 33 34  2  0  0  0  0
 33 97  1  0  0  0  0
 34 35  1  0  0  0  0
 34 37  1  0  0  0  0
 35 36  2  0  0  0  0
 35 98  1  0  0  0  0
 36 99  1  0  0  0  0
 37100  1  0  0  0  0
 38 39  2  0  0  0  0
 38 40  1  0  0  0  0
 40 41  1  0  0  0  0
 40 44  1  0  0  0  0
 41 42  1  0  0  0  0
 41101  1  0  0  0  0
 41102  1  0  0  0  0
 42 43  1  0  0  0  0
 42103  1  0  0  0  0
 42104  1  0  0  0  0
 43 44  1  0  0  0  0
 43105  1  0  0  0  0
 43106  1  0  0  0  0
 44 45  1  0  0  0  0
 44107  1  1  0  0  0
 45 46  2  0  0  0  0
 45 47  1  0  0  0  0
 47108  1  0  0  0  0
 48 47  1  0  0  0  0
 48 49  1  0  0  0  0
 48 53  1  0  0  0  0
 48109  1  6  0  0  0
 49 50  1  0  0  0  0
 49110  1  0  0  0  0
 49111  1  0  0  0  0
 50 51  1  0  0  0  0
 50 52  1  0  0  0  0
 50112  1  0  0  0  0
 51113  1  0  0  0  0
 51114  1  0  0  0  0
 51115  1  0  0  0  0
 52116  1  0  0  0  0
 52117  1  0  0  0  0
 52118  1  0  0  0  0
 53 54  2  0  0  0  0
 53 55  1  0  0  0  0
 55 56  1  0  0  0  0
 55119  1  0  0  0  0
 56 57  1  0  0  0  0
 56120  1  0  0  0  0
 56121  1  0  0  0  0
 57 58  2  0  0  0  0
 57 59  1  0  0  0  0
 59122  1  0  0  0  0
 59123  1  0  0  0  0
 60 61  1  0  0  0  0
 60124  1  0  0  0  0
 60125  1  0  0  0  0
 61 62  2  0  0  0  0
 61 63  1  0  0  0  0
 63126  1  0  0  0  0
 63127  1  0  0  0  0
 64 65  1  0  0  0  0
 64128  1  0  0  0  0
 64129  1  0  0  0  0
 65 66  1  0  0  0  0
 65130  1  0  0  0  0
 65131  1  0  0  0  0
 66 67  2  0  0  0  0
 66 68  1  0  0  0  0
 68132  1  0  0  0  0
 68133  1  0  0  0  0
M  END
>  <DRUGBANK_ID>
DB13798

>  <COMMON_NAME>
Demoxytocin

>  <CAS_NUMBER>
113-78-0

>  <UNII>
2N9HM3X95F

>  <SYNONYMS>
Demoxytocin

$$$$
