116
 OpenBabel10282417072D

 55 57  0  0  1  0  0  0  0  0999 V2000
    3.5220   -0.2143    0.0000 O   0  0  0  0  0  0  0  0  0  0  0  0
    9.9988    1.0569    0.0000 O   0  0  0  0  0  0  0  0  0  0  0  0
   12.8598    0.2429    0.0000 O   0  0  0  0  0  0  0  0  0  0  0  0
   12.1501   -0.9974    0.0000 O   0  0  0  0  0  0  0  0  0  0  0  0
   12.8502    2.7179    0.0000 O   0  0  0  0  0  0  0  0  0  0  0  0
   11.4213    2.7124    0.0000 O   0  0  0  0  0  0  0  0  0  0  0  0
    4.9740   -1.0107    0.0000 N   0  0  0  0  0  0  0  0  0  0  0  0
    4.9740   -2.7179    0.0000 N   0  0  0  0  0  0  0  0  0  0  0  0
    7.1504   -1.4292    0.0000 N   0  0  0  0  0  0  0  0  0  0  0  0
    3.5220   -2.6894    0.0000 N   0  0  0  0  0  0  0  0  0  0  0  0
    2.8075   -1.4518    0.0000 N   0  0  0  0  0  0  0  0  0  0  0  0
   10.7180   -0.1779    0.0000 N   0  0  0  0  0  0  0  0  0  0  0  0
    2.0930   -2.6894    0.0000 N   0  0  0  0  0  0  0  0  0  0  0  0
    5.7214   -1.4347    0.0000 C   0  0  3  0  0  0  0  0  0  0  0  0
    5.7214   -2.2940    0.0000 C   0  0  0  0  0  0  0  0  0  0  0  0
    6.4343   -1.0194    0.0000 C   0  0  0  0  0  0  0  0  0  0  0  0
    4.2364   -1.4518    0.0000 C   0  0  0  0  0  0  0  0  0  0  0  0
    4.2364   -2.2769    0.0000 C   0  0  0  0  0  0  0  0  0  0  0  0
    7.8633   -1.0139    0.0000 C   0  0  0  0  0  0  0  0  0  0  0  0
    3.5220   -1.0393    0.0000 C   0  0  0  0  0  0  0  0  0  0  0  0
    2.8075   -2.2769    0.0000 C   0  0  0  0  0  0  0  0  0  0  0  0
   11.4309    0.2374    0.0000 C   0  0  1  0  0  0  0  0  0  0  0  0
   11.4277    1.0624    0.0000 C   0  0  0  0  0  0  0  0  0  0  0  0
    8.5793   -1.4236    0.0000 C   0  0  0  0  0  0  0  0  0  0  0  0
    7.8601   -0.1888    0.0000 C   0  0  0  0  0  0  0  0  0  0  0  0
    9.2890   -0.1834    0.0000 C   0  0  0  0  0  0  0  0  0  0  0  0
    9.2922   -1.0084    0.0000 C   0  0  0  0  0  0  0  0  0  0  0  0
    8.5730    0.2264    0.0000 C   0  0  0  0  0  0  0  0  0  0  0  0
   12.1406    1.4777    0.0000 C   0  0  0  0  0  0  0  0  0  0  0  0
   10.0019    0.2319    0.0000 C   0  0  0  0  0  0  0  0  0  0  0  0
   12.1469   -0.1723    0.0000 C   0  0  0  0  0  0  0  0  0  0  0  0
   12.1374    2.3027    0.0000 C   0  0  0  0  0  0  0  0  0  0  0  0
   13.6730   -0.2225    0.0000 H   0  0  0  0  0  0  0  0  0  0  0  0
   13.6635    2.2525    0.0000 H   0  0  0  0  0  0  0  0  0  0  0  0
    4.9627   -0.0263    0.0000 H   0  0  0  0  0  0  0  0  0  0  0  0
    4.9627   -3.7023    0.0000 H   0  0  0  0  0  0  0  0  0  0  0  0
    7.1542   -2.4137    0.0000 H   0  0  0  0  0  0  0  0  0  0  0  0
    3.5220   -3.6739    0.0000 H   0  0  0  0  0  0  0  0  0  0  0  0
   10.7218   -1.1624    0.0000 H   0  0  0  0  0  0  0  0  0  0  0  0
    1.2404   -2.1971    0.0000 H   0  0  0  0  0  0  0  0  0  0  0  0
    2.0930   -3.6739    0.0000 H   0  0  0  0  0  0  0  0  0  0  0  0
    4.7968   -1.9732    0.0000 H   0  0  0  0  0  0  0  0  0  0  0  0
    6.6460   -2.8326    0.0000 H   0  0  0  0  0  0  0  0  0  0  0  0
    6.6491   -1.7608    0.0000 H   0  0  0  0  0  0  0  0  0  0  0  0
    6.4302    0.0506    0.0000 H   0  0  0  0  0  0  0  0  0  0  0  0
    5.5056   -0.4880    0.0000 H   0  0  0  0  0  0  0  0  0  0  0  0
   10.5022    0.7688    0.0000 H   0  0  0  0  0  0  0  0  0  0  0  0
   10.4990    1.5938    0.0000 H   0  0  0  0  0  0  0  0  0  0  0  0
   11.4235    2.1324    0.0000 H   0  0  0  0  0  0  0  0  0  0  0  0
    8.5832   -2.4556    0.0000 H   0  0  0  0  0  0  0  0  0  0  0  0
    6.9644    0.3238    0.0000 H   0  0  0  0  0  0  0  0  0  0  0  0
   10.1879   -1.5210    0.0000 H   0  0  0  0  0  0  0  0  0  0  0  0
    8.5691    1.2584    0.0000 H   0  0  0  0  0  0  0  0  0  0  0  0
   13.0693    0.9463    0.0000 H   0  0  0  0  0  0  0  0  0  0  0  0
   13.0652    2.0163    0.0000 H   0  0  0  0  0  0  0  0  0  0  0  0
  1 20  2  0  0  0  0
  2 30  2  0  0  0  0
  3 31  1  0  0  0  0
  3 33  1  0  0  0  0
  4 31  2  0  0  0  0
  5 32  1  0  0  0  0
  5 34  1  0  0  0  0
  6 32  2  0  0  0  0
  7 14  1  0  0  0  0
  7 17  1  0  0  0  0
  7 35  1  0  0  0  0
  8 15  1  0  0  0  0
  8 18  1  0  0  0  0
  8 36  1  0  0  0  0
  9 16  1  0  0  0  0
  9 19  1  0  0  0  0
  9 37  1  0  0  0  0
 10 18  1  0  0  0  0
 10 21  1  0  0  0  0
 10 38  1  0  0  0  0
 11 20  1  0  0  0  0
 11 21  2  0  0  0  0
 12 30  1  0  0  0  0
 12 39  1  0  0  0  0
 13 21  1  0  0  0  0
 13 40  1  0  0  0  0
 13 41  1  0  0  0  0
 14 15  1  0  0  0  0
 14 16  1  0  0  0  0
 14 42  1  0  0  0  0
 15 43  1  0  0  0  0
 15 44  1  0  0  0  0
 16 45  1  0  0  0  0
 16 46  1  0  0  0  0
 17 18  2  0  0  0  0
 17 20  1  0  0  0  0
 19 24  2  0  0  0  0
 19 25  1  0  0  0  0
 22 12  1  0  0  0  0
 22 23  1  0  0  0  0
 22 31  1  0  0  0  0
 22 47  1  6  0  0  0
 23 29  1  0  0  0  0
 23 48  1  0  0  0  0
 23 49  1  0  0  0  0
 24 27  1  0  0  0  0
 24 50  1  0  0  0  0
 25 28  2  0  0  0  0
 25 51  1  0  0  0  0
 26 27  2  0  0  0  0
 26 28  1  0  0  0  0
 26 30  1  0  0  0  0
 27 52  1  0  0  0  0
 28 53  1  0  0  0  0
 29 32  1  0  0  0  0
 29 54  1  0  0  0  0
 29 55  1  0  0  0  0
M  END
>  <DRUGBANK_ID>
DB00116

>  <SECONDARY_ACCESSION_NUMBERS>
NUTR00056

>  <COMMON_NAME>
Tetrahydrofolic acid

>  <CAS_NUMBER>
135-16-0

>  <UNII>
43ZWB253H4

>  <SYNONYMS>
5,6,7,8-tetrahydrofolate; 5,6,7,8-tetrahydrofolic acid; Tetrahydrofolate

$$$$
