
 OpenBabel10282417072D

 71 76  0  0  0  0  0  0  0  0999 V2000
    1.1311   -1.0011    0.0000 C   0  0  0  0  0  0  0  0  0  0  0  0
   -0.3679   -1.9837    0.0000 C   0  0  0  0  0  0  0  0  0  0  0  0
    1.1311    0.3337    0.0000 C   0  0  2  0  0  0  0  0  0  0  0  0
   -0.3679    0.4912    0.0000 C   0  0  0  0  0  0  0  0  0  0  0  0
    1.6160   -0.3337    0.0000 C   0  0  2  0  0  0  0  0  0  0  0  0
   -1.7969   -1.1587    0.0000 C   0  0  2  0  0  0  0  0  0  0  0  0
   -1.0824    0.0787    0.0000 C   0  0  1  0  0  0  0  0  0  0  0  0
   -1.0824   -2.3962    0.0000 C   0  0  0  0  0  0  0  0  0  0  0  0
   -1.7969   -1.9837    0.0000 C   0  0  0  0  0  0  0  0  0  0  0  0
   -2.5114   -0.7462    0.0000 C   0  0  0  0  0  0  0  0  0  0  0  0
   -2.5114   -2.3962    0.0000 C   0  0  0  0  0  0  0  0  0  0  0  0
   -3.2258   -1.1587    0.0000 C   0  0  0  0  0  0  0  0  0  0  0  0
   -0.3679   -1.1587    0.0000 C   0  0  2  0  0  0  0  0  0  0  0  0
   -0.3679   -0.3337    0.0000 H   0  0  0  0  0  0  0  0  0  0  0  0
   -1.0824   -0.7462    0.0000 C   0  0  1  0  0  0  0  0  0  0  0  0
   -1.0824   -1.5712    0.0000 F   0  0  0  0  0  0  0  0  0  0  0  0
    0.3464    0.0787    0.0000 C   0  0  2  0  0  0  0  0  0  0  0  0
    0.3464    0.9037    0.0000 C   0  0  0  0  0  0  0  0  0  0  0  0
    0.3464   -0.7462    0.0000 C   0  0  1  0  0  0  0  0  0  0  0  0
    0.3464   -1.5712    0.0000 H   0  0  0  0  0  0  0  0  0  0  0  0
   -3.9403   -2.3962    0.0000 O   0  0  0  0  0  0  0  0  0  0  0  0
   -3.2258   -1.9837    0.0000 C   0  0  0  0  0  0  0  0  0  0  0  0
   -1.7969   -0.3337    0.0000 C   0  0  0  0  0  0  0  0  0  0  0  0
    1.8456    0.7462    0.0000 O   0  0  0  0  0  0  0  0  0  0  0  0
    1.1311    1.1587    0.0000 C   0  0  0  0  0  0  0  0  0  0  0  0
   -1.7969    0.4912    0.0000 O   0  0  0  0  0  0  0  0  0  0  0  0
    0.4166    1.5712    0.0000 C   0  0  0  0  0  0  0  0  0  0  0  0
   -0.2977    1.1587    0.0000 O   0  0  0  0  0  0  0  0  0  0  0  0
    1.8456    1.5712    0.0000 O   0  0  0  0  0  0  0  0  0  0  0  0
    2.4129   -0.1202    0.0000 O   0  0  0  0  0  0  0  0  0  0  0  0
    2.6425    0.5327    0.0000 C   0  0  0  0  0  0  0  0  0  0  0  0
   -1.0122    1.5712    0.0000 C   0  0  0  0  0  0  0  0  0  0  0  0
   -1.7266    1.1587    0.0000 C   0  0  0  0  0  0  0  0  0  0  0  0
   -1.0122    2.3962    0.0000 O   0  0  0  0  0  0  0  0  0  0  0  0
    3.3569    0.1202    0.0000 C   0  0  0  0  0  0  0  0  0  0  0  0
    2.6425    1.3577    0.0000 C   0  0  0  0  0  0  0  0  0  0  0  0
    3.4394    1.5712    0.0000 C   0  0  0  0  0  0  0  0  0  0  0  0
    3.9403    0.7036    0.0000 C   0  0  0  0  0  0  0  0  0  0  0  0
    1.4618   -2.0187    0.0000 H   0  0  0  0  0  0  0  0  0  0  0  0
    2.1879   -1.1685    0.0000 H   0  0  0  0  0  0  0  0  0  0  0  0
    0.5587   -2.5187    0.0000 H   0  0  0  0  0  0  0  0  0  0  0  0
   -0.3679   -3.0537    0.0000 H   0  0  0  0  0  0  0  0  0  0  0  0
   -0.3678    1.5612    0.0000 H   0  0  0  0  0  0  0  0  0  0  0  0
   -1.2945    1.0262    0.0000 H   0  0  0  0  0  0  0  0  0  0  0  0
    2.2220   -1.2155    0.0000 H   0  0  0  0  0  0  0  0  0  0  0  0
   -2.0090   -0.4563    0.0000 H   0  0  0  0  0  0  0  0  0  0  0  0
   -1.0824   -3.4662    0.0000 H   0  0  0  0  0  0  0  0  0  0  0  0
   -2.0090   -2.9312    0.0000 H   0  0  0  0  0  0  0  0  0  0  0  0
   -2.5114    0.2858    0.0000 H   0  0  0  0  0  0  0  0  0  0  0  0
   -2.5114   -3.4282    0.0000 H   0  0  0  0  0  0  0  0  0  0  0  0
   -4.1195   -0.6427    0.0000 H   0  0  0  0  0  0  0  0  0  0  0  0
    1.2730    1.4387    0.0000 H   0  0  0  0  0  0  0  0  0  0  0  0
   -0.5802    1.4387    0.0000 H   0  0  0  0  0  0  0  0  0  0  0  0
    0.3464    1.9737    0.0000 H   0  0  0  0  0  0  0  0  0  0  0  0
   -0.8703    0.2013    0.0000 H   0  0  0  0  0  0  0  0  0  0  0  0
   -2.7235    0.2013    0.0000 H   0  0  0  0  0  0  0  0  0  0  0  0
   -1.7969    0.7363    0.0000 H   0  0  0  0  0  0  0  0  0  0  0  0
   -1.7969    1.4612    0.0000 H   0  0  0  0  0  0  0  0  0  0  0  0
    0.4165    2.6412    0.0000 H   0  0  0  0  0  0  0  0  0  0  0  0
   -0.5101    2.1061    0.0000 H   0  0  0  0  0  0  0  0  0  0  0  0
   -2.6533    1.6937    0.0000 H   0  0  0  0  0  0  0  0  0  0  0  0
   -1.7266    0.0887    0.0000 H   0  0  0  0  0  0  0  0  0  0  0  0
   -2.6532    0.6237    0.0000 H   0  0  0  0  0  0  0  0  0  0  0  0
    3.4965   -0.9406    0.0000 H   0  0  0  0  0  0  0  0  0  0  0  0
    4.3701   -0.2238    0.0000 H   0  0  0  0  0  0  0  0  0  0  0  0
    1.7936    2.0091    0.0000 H   0  0  0  0  0  0  0  0  0  0  0  0
    2.8513    2.4071    0.0000 H   0  0  0  0  0  0  0  0  0  0  0  0
    3.8489    2.5597    0.0000 H   0  0  0  0  0  0  0  0  0  0  0  0
    4.5071    1.6412    0.0000 H   0  0  0  0  0  0  0  0  0  0  0  0
    5.0011    0.5639    0.0000 H   0  0  0  0  0  0  0  0  0  0  0  0
    4.5348    1.5933    0.0000 H   0  0  0  0  0  0  0  0  0  0  0  0
  1 39  1  0  0  0  0
  1 40  1  0  0  0  0
  2  8  1  0  0  0  0
  2 41  1  0  0  0  0
  2 42  1  0  0  0  0
  3  5  1  0  0  0  0
  3 24  1  0  0  0  0
  3 25  1  1  0  0  0
  4  7  1  0  0  0  0
  4 43  1  0  0  0  0
  4 44  1  0  0  0  0
  5  1  1  0  0  0  0
  5 30  1  0  0  0  0
  5 45  1  1  0  0  0
  6  9  1  0  0  0  0
  6 10  1  0  0  0  0
  6 23  1  1  0  0  0
  7 26  1  0  0  0  0
  7 46  1  6  0  0  0
  8  9  1  0  0  0  0
  8 47  1  0  0  0  0
  8 48  1  0  0  0  0
  9 11  2  0  0  0  0
 10 12  2  0  0  0  0
 10 49  1  0  0  0  0
 11 22  1  0  0  0  0
 11 50  1  0  0  0  0
 12 22  1  0  0  0  0
 12 51  1  0  0  0  0
 13 15  1  0  0  0  0
 13  2  1  0  0  0  0
 13 14  1  1  0  0  0
 15  6  1  0  0  0  0
 15  7  1  0  0  0  0
 15 16  1  6  0  0  0
 17  3  1  0  0  0  0
 17  4  1  0  0  0  0
 17 18  1  1  0  0  0
 18 52  1  0  0  0  0
 18 53  1  0  0  0  0
 18 54  1  0  0  0  0
 19 13  1  0  0  0  0
 19 17  1  0  0  0  0
 19  1  1  0  0  0  0
 19 20  1  6  0  0  0
 22 21  2  0  0  0  0
 23 55  1  0  0  0  0
 23 56  1  0  0  0  0
 23 57  1  0  0  0  0
 24 31  1  0  0  0  0
 25 27  1  0  0  0  0
 25 29  2  0  0  0  0
 26 58  1  0  0  0  0
 27 28  1  0  0  0  0
 27 59  1  0  0  0  0
 27 60  1  0  0  0  0
 28 32  1  0  0  0  0
 30 31  1  0  0  0  0
 31 36  1  0  0  0  0
 32 33  1  0  0  0  0
 32 34  2  0  0  0  0
 33 61  1  0  0  0  0
 33 62  1  0  0  0  0
 33 63  1  0  0  0  0
 35 31  1  0  0  0  0
 35 38  1  0  0  0  0
 35 64  1  0  0  0  0
 35 65  1  0  0  0  0
 36 37  1  0  0  0  0
 36 66  1  0  0  0  0
 36 67  1  0  0  0  0
 37 68  1  0  0  0  0
 37 69  1  0  0  0  0
 38 37  1  0  0  0  0
 38 70  1  0  0  0  0
 38 71  1  0  0  0  0
M  END
>  <DRUGBANK_ID>
DB00288

>  <SECONDARY_ACCESSION_NUMBERS>
APRD00788

>  <COMMON_NAME>
Amcinonide

>  <CAS_NUMBER>
51022-69-6

>  <UNII>
423W026MA9

>  <SYNONYMS>
Amcin√≥nida; Amcinonide; Amcinonidum; Triamcinolonacetatcyclopentanonid

$$$$
