
 OpenBabel10282417072D

 63 65  0  0  0  0  0  0  0  0999 V2000
   -4.4126    4.2065    0.0000 C   0  0  0  0  0  0  0  0  0  0  0  0
   -4.1304    3.4313    0.0000 C   0  0  0  0  0  0  0  0  0  0  0  0
   -3.3179    3.2880    0.0000 C   0  0  0  0  0  0  0  0  0  0  0  0
   -3.0358    2.5128    0.0000 N   0  0  0  0  0  0  0  0  0  0  0  0
   -2.2233    2.3695    0.0000 C   0  0  0  0  0  0  0  0  0  0  0  0
   -1.9411    1.5942    0.0000 C   0  0  0  0  0  0  0  0  0  0  0  0
   -2.4714    0.9623    0.0000 N   0  0  0  0  0  0  0  0  0  0  0  0
   -3.2839    1.1055    0.0000 C   0  0  0  0  0  0  0  0  0  0  0  0
   -3.5661    1.8808    0.0000 C   0  0  0  0  0  0  0  0  0  0  0  0
   -2.1893    0.1870    0.0000 C   0  0  0  0  0  0  0  0  0  0  0  0
   -1.3768    0.0438    0.0000 C   0  0  0  0  0  0  0  0  0  0  0  0
   -1.0946   -0.7315    0.0000 C   0  0  0  0  0  0  0  0  0  0  0  0
   -1.6249   -1.3635    0.0000 C   0  0  0  0  0  0  0  0  0  0  0  0
   -2.4374   -1.2202    0.0000 C   0  0  0  0  0  0  0  0  0  0  0  0
   -2.7196   -0.4450    0.0000 C   0  0  0  0  0  0  0  0  0  0  0  0
   -1.3428   -2.1387    0.0000 C   0  0  0  0  0  0  0  0  0  0  0  0
   -1.8731   -2.7707    0.0000 O   0  0  0  0  0  0  0  0  0  0  0  0
   -0.5303   -2.2820    0.0000 N   0  0  0  0  0  0  0  0  0  0  0  0
   -0.2481   -3.0572    0.0000 C   0  0  0  0  0  0  0  0  0  0  0  0
    0.2822   -3.6892    0.0000 C   0  0  0  0  0  0  0  0  0  0  0  0
    0.0000   -4.4645    0.0000 C   0  0  0  0  0  0  0  0  0  0  0  0
   -0.8125   -4.6077    0.0000 C   0  0  0  0  0  0  0  0  0  0  0  0
   -1.3428   -3.9757    0.0000 C   0  0  0  0  0  0  0  0  0  0  0  0
   -1.0606   -3.2005    0.0000 C   0  0  0  0  0  0  0  0  0  0  0  0
    0.4663   -2.6447    0.0000 C   0  0  0  0  0  0  0  0  0  0  0  0
    1.1808   -3.0572    0.0000 O   0  0  0  0  0  0  0  0  0  0  0  0
    0.4663   -1.8197    0.0000 N   0  0  0  0  0  0  0  0  0  0  0  0
    1.1808   -1.4072    0.0000 C   0  0  0  0  0  0  0  0  0  0  0  0
    1.8953   -1.8197    0.0000 C   0  0  0  0  0  0  0  0  0  0  0  0
    2.6098   -2.2322    0.0000 N   0  0  0  0  0  0  0  0  0  0  0  0
   -3.7249    5.0262    0.0000 H   0  0  0  0  0  0  0  0  0  0  0  0
   -5.4664    4.3922    0.0000 H   0  0  0  0  0  0  0  0  0  0  0  0
   -4.7786    5.2120    0.0000 H   0  0  0  0  0  0  0  0  0  0  0  0
   -4.8182    2.6116    0.0000 H   0  0  0  0  0  0  0  0  0  0  0  0
   -3.7645    2.4258    0.0000 H   0  0  0  0  0  0  0  0  0  0  0  0
   -2.6301    4.1076    0.0000 H   0  0  0  0  0  0  0  0  0  0  0  0
   -2.2642    3.1021    0.0000 H   0  0  0  0  0  0  0  0  0  0  0  0
   -1.5355    3.1892    0.0000 H   0  0  0  0  0  0  0  0  0  0  0  0
   -1.1696    2.1837    0.0000 H   0  0  0  0  0  0  0  0  0  0  0  0
   -0.8874    1.4084    0.0000 H   0  0  0  0  0  0  0  0  0  0  0  0
   -1.5752    0.5887    0.0000 H   0  0  0  0  0  0  0  0  0  0  0  0
   -3.9716    0.2858    0.0000 H   0  0  0  0  0  0  0  0  0  0  0  0
   -4.3377    1.2913    0.0000 H   0  0  0  0  0  0  0  0  0  0  0  0
   -4.6198    2.0666    0.0000 H   0  0  0  0  0  0  0  0  0  0  0  0
   -3.9321    2.8863    0.0000 H   0  0  0  0  0  0  0  0  0  0  0  0
   -0.7135    0.8344    0.0000 H   0  0  0  0  0  0  0  0  0  0  0  0
   -0.0783   -0.9107    0.0000 H   0  0  0  0  0  0  0  0  0  0  0  0
   -3.1008   -2.0108    0.0000 H   0  0  0  0  0  0  0  0  0  0  0  0
   -3.7359   -0.2658    0.0000 H   0  0  0  0  0  0  0  0  0  0  0  0
    0.1025   -1.5278    0.0000 H   0  0  0  0  0  0  0  0  0  0  0  0
    1.3359   -3.5034    0.0000 H   0  0  0  0  0  0  0  0  0  0  0  0
    0.9700   -4.5089    0.0000 H   0  0  0  0  0  0  0  0  0  0  0  0
    0.6877   -5.2842    0.0000 H   0  0  0  0  0  0  0  0  0  0  0  0
   -0.3660   -5.4699    0.0000 H   0  0  0  0  0  0  0  0  0  0  0  0
   -1.1785   -5.6132    0.0000 H   0  0  0  0  0  0  0  0  0  0  0  0
   -1.8662   -4.7935    0.0000 H   0  0  0  0  0  0  0  0  0  0  0  0
   -2.3966   -4.1615    0.0000 H   0  0  0  0  0  0  0  0  0  0  0  0
   -2.0305   -3.1560    0.0000 H   0  0  0  0  0  0  0  0  0  0  0  0
   -1.7484   -2.3808    0.0000 H   0  0  0  0  0  0  0  0  0  0  0  0
   -0.6947   -2.1950    0.0000 H   0  0  0  0  0  0  0  0  0  0  0  0
   -0.3863   -1.3274    0.0000 H   0  0  0  0  0  0  0  0  0  0  0  0
    1.1808   -0.3372    0.0000 H   0  0  0  0  0  0  0  0  0  0  0  0
    2.1074   -0.8722    0.0000 H   0  0  0  0  0  0  0  0  0  0  0  0
  1  2  1  0  0  0  0
  1 31  1  0  0  0  0
  1 32  1  0  0  0  0
  1 33  1  0  0  0  0
  2  3  1  0  0  0  0
  2 34  1  0  0  0  0
  2 35  1  0  0  0  0
  3  4  1  0  0  0  0
  3 36  1  0  0  0  0
  3 37  1  0  0  0  0
  4  5  1  0  0  0  0
  4  9  1  0  0  0  0
  5  6  1  0  0  0  0
  5 38  1  0  0  0  0
  5 39  1  0  0  0  0
  6  7  1  0  0  0  0
  6 40  1  0  0  0  0
  6 41  1  0  0  0  0
  7  8  1  0  0  0  0
  7 10  1  0  0  0  0
  8  9  1  0  0  0  0
  8 42  1  0  0  0  0
  8 43  1  0  0  0  0
  9 44  1  0  0  0  0
  9 45  1  0  0  0  0
 10 11  2  0  0  0  0
 10 15  1  0  0  0  0
 11 12  1  0  0  0  0
 11 46  1  0  0  0  0
 12 13  2  0  0  0  0
 12 47  1  0  0  0  0
 13 14  1  0  0  0  0
 13 16  1  0  0  0  0
 14 15  2  0  0  0  0
 14 48  1  0  0  0  0
 15 49  1  0  0  0  0
 16 17  2  0  0  0  0
 16 18  1  0  0  0  0
 18 19  1  0  0  0  0
 18 50  1  0  0  0  0
 19 20  1  0  0  0  0
 19 24  1  0  0  0  0
 19 25  1  0  0  0  0
 20 21  1  0  0  0  0
 20 51  1  0  0  0  0
 20 52  1  0  0  0  0
 21 22  1  0  0  0  0
 21 53  1  0  0  0  0
 21 54  1  0  0  0  0
 22 23  1  0  0  0  0
 22 55  1  0  0  0  0
 22 56  1  0  0  0  0
 23 24  1  0  0  0  0
 23 57  1  0  0  0  0
 23 58  1  0  0  0  0
 24 59  1  0  0  0  0
 24 60  1  0  0  0  0
 25 26  2  0  0  0  0
 25 27  1  0  0  0  0
 27 28  1  0  0  0  0
 27 61  1  0  0  0  0
 28 29  1  0  0  0  0
 28 62  1  0  0  0  0
 28 63  1  0  0  0  0
 29 30  3  0  0  0  0
M  END
>  <DRUGBANK_ID>
DB12239

>  <COMMON_NAME>
Balicatib

>  <CAS_NUMBER>
354813-19-7

>  <UNII>
E00MVC7O57

>  <SYNONYMS>
Balicatib

$$$$
