
 OpenBabel10282417072D

 83 87  0  0  1  0  0  0  0  0999 V2000
    2.7512   -6.6616    0.0000 C   0  0  0  0  0  0  0  0  0  0  0  0
    3.4656   -6.2491    0.0000 C   0  0  0  0  0  0  0  0  0  0  0  0
    3.4656   -5.4241    0.0000 C   0  0  0  0  0  0  0  0  0  0  0  0
    4.1801   -5.0116    0.0000 C   0  0  0  0  0  0  0  0  0  0  0  0
    4.1801   -4.1866    0.0000 N   0  0  0  0  0  0  0  0  0  0  0  0
    3.4656   -3.7741    0.0000 C   0  0  0  0  0  0  0  0  0  0  0  0
    2.7512   -4.1866    0.0000 C   0  0  0  0  0  0  0  0  0  0  0  0
    2.7512   -5.0116    0.0000 N   0  0  0  0  0  0  0  0  0  0  0  0
    2.0367   -3.7741    0.0000 C   0  0  0  0  0  0  0  0  0  0  0  0
    2.0367   -2.9491    0.0000 O   0  0  0  0  0  0  0  0  0  0  0  0
    1.3222   -4.1866    0.0000 N   0  0  0  0  0  0  0  0  0  0  0  0
    3.4656   -2.9491    0.0000 N   0  0  0  0  0  0  0  0  0  0  0  0
    4.1801   -2.5366    0.0000 C   0  0  0  0  0  0  0  0  0  0  0  0
    4.1801   -1.7116    0.0000 C   0  0  0  0  0  0  0  0  0  0  0  0
    4.8946   -1.2991    0.0000 C   0  0  0  0  0  0  0  0  0  0  0  0
    5.6091   -1.7116    0.0000 C   0  0  0  0  0  0  0  0  0  0  0  0
    5.6091   -2.5366    0.0000 C   0  0  0  0  0  0  0  0  0  0  0  0
    4.8946   -2.9491    0.0000 C   0  0  0  0  0  0  0  0  0  0  0  0
    6.3235   -1.2991    0.0000 N   0  0  0  0  0  0  0  0  0  0  0  0
    6.3235   -0.4741    0.0000 C   0  0  0  0  0  0  0  0  0  0  0  0
    7.0380   -0.0616    0.0000 C   0  0  0  0  0  0  0  0  0  0  0  0
    7.7525   -0.4741    0.0000 C   0  0  3  0  0  0  0  0  0  0  0  0
    7.7525   -1.2991    0.0000 C   0  0  0  0  0  0  0  0  0  0  0  0
    7.0380   -1.7116    0.0000 C   0  0  0  0  0  0  0  0  0  0  0  0
    8.4669   -0.0616    0.0000 N   0  0  0  0  0  0  0  0  0  0  0  0
    8.4669    0.7634    0.0000 C   0  0  0  0  0  0  0  0  0  0  0  0
    9.1814    1.1759    0.0000 C   0  0  0  0  0  0  0  0  0  0  0  0
    9.8959    0.7634    0.0000 N   0  0  0  0  0  0  0  0  0  0  0  0
    9.8959   -0.0616    0.0000 C   0  0  0  0  0  0  0  0  0  0  0  0
    9.1814   -0.4741    0.0000 C   0  0  0  0  0  0  0  0  0  0  0  0
   10.6104    1.1759    0.0000 C   0  0  0  0  0  0  0  0  0  0  0  0
    4.8946   -5.4241    0.0000 O   0  0  0  0  0  0  0  0  0  0  0  0
    4.8946   -6.2491    0.0000 C   0  0  2  0  0  0  0  0  0  0  0  0
    5.5620   -6.7340    0.0000 C   0  0  0  0  0  0  0  0  0  0  0  0
    5.3071   -7.5187    0.0000 C   0  0  0  0  0  0  0  0  0  0  0  0
    4.4821   -7.5187    0.0000 N   0  0  0  0  0  0  0  0  0  0  0  0
    4.2272   -6.7340    0.0000 C   0  0  0  0  0  0  0  0  0  0  0  0
    3.9972   -8.1861    0.0000 C   0  0  0  0  0  0  0  0  0  0  0  0
    4.3327   -8.9398    0.0000 O   0  0  0  0  0  0  0  0  0  0  0  0
    3.1767   -8.0999    0.0000 C   0  0  0  0  0  0  0  0  0  0  0  0
    2.6918   -8.7673    0.0000 C   0  0  0  0  0  0  0  0  0  0  0  0
    1.8245   -6.1266    0.0000 H   0  0  0  0  0  0  0  0  0  0  0  0
    2.7512   -7.7316    0.0000 H   0  0  0  0  0  0  0  0  0  0  0  0
    1.8246   -7.1966    0.0000 H   0  0  0  0  0  0  0  0  0  0  0  0
    4.3923   -6.7841    0.0000 H   0  0  0  0  0  0  0  0  0  0  0  0
    4.3922   -5.7141    0.0000 H   0  0  0  0  0  0  0  0  0  0  0  0
    0.4696   -3.6943    0.0000 H   0  0  0  0  0  0  0  0  0  0  0  0
    1.3222   -5.1711    0.0000 H   0  0  0  0  0  0  0  0  0  0  0  0
    2.6130   -2.4568    0.0000 H   0  0  0  0  0  0  0  0  0  0  0  0
    3.2864   -1.1956    0.0000 H   0  0  0  0  0  0  0  0  0  0  0  0
    4.8946   -0.2671    0.0000 H   0  0  0  0  0  0  0  0  0  0  0  0
    6.5028   -3.0526    0.0000 H   0  0  0  0  0  0  0  0  0  0  0  0
    4.8946   -3.9811    0.0000 H   0  0  0  0  0  0  0  0  0  0  0  0
    5.3969    0.0609    0.0000 H   0  0  0  0  0  0  0  0  0  0  0  0
    6.3235    0.5959    0.0000 H   0  0  0  0  0  0  0  0  0  0  0  0
    7.0380    1.0084    0.0000 H   0  0  0  0  0  0  0  0  0  0  0  0
    7.9646    0.4734    0.0000 H   0  0  0  0  0  0  0  0  0  0  0  0
    6.8259   -1.0091    0.0000 H   0  0  0  0  0  0  0  0  0  0  0  0
    8.6791   -1.8341    0.0000 H   0  0  0  0  0  0  0  0  0  0  0  0
    7.7525   -2.3691    0.0000 H   0  0  0  0  0  0  0  0  0  0  0  0
    7.0380   -2.7816    0.0000 H   0  0  0  0  0  0  0  0  0  0  0  0
    6.1114   -2.2466    0.0000 H   0  0  0  0  0  0  0  0  0  0  0  0
    7.5403    1.2984    0.0000 H   0  0  0  0  0  0  0  0  0  0  0  0
    8.4669    1.8334    0.0000 H   0  0  0  0  0  0  0  0  0  0  0  0
    9.1814    2.2459    0.0000 H   0  0  0  0  0  0  0  0  0  0  0  0
   10.1080    1.7109    0.0000 H   0  0  0  0  0  0  0  0  0  0  0  0
   10.8225   -0.5966    0.0000 H   0  0  0  0  0  0  0  0  0  0  0  0
    9.8959   -1.1316    0.0000 H   0  0  0  0  0  0  0  0  0  0  0  0
    9.1814   -1.5441    0.0000 H   0  0  0  0  0  0  0  0  0  0  0  0
    8.2548   -1.0091    0.0000 H   0  0  0  0  0  0  0  0  0  0  0  0
   11.5370    0.6409    0.0000 H   0  0  0  0  0  0  0  0  0  0  0  0
   10.6104    2.2459    0.0000 H   0  0  0  0  0  0  0  0  0  0  0  0
   11.5371    1.7109    0.0000 H   0  0  0  0  0  0  0  0  0  0  0  0
    5.8480   -5.7633    0.0000 H   0  0  0  0  0  0  0  0  0  0  0  0
    6.5796   -6.4033    0.0000 H   0  0  0  0  0  0  0  0  0  0  0  0
    6.3186   -7.4906    0.0000 H   0  0  0  0  0  0  0  0  0  0  0  0
    5.9361   -8.3843    0.0000 H   0  0  0  0  0  0  0  0  0  0  0  0
    4.8213   -8.4721    0.0000 H   0  0  0  0  0  0  0  0  0  0  0  0
    3.2096   -6.4033    0.0000 H   0  0  0  0  0  0  0  0  0  0  0  0
    4.0598   -5.6772    0.0000 H   0  0  0  0  0  0  0  0  0  0  0  0
    2.7569   -7.1571    0.0000 H   0  0  0  0  0  0  0  0  0  0  0  0
    1.6655   -8.6594    0.0000 H   0  0  0  0  0  0  0  0  0  0  0  0
    3.1115   -9.7101    0.0000 H   0  0  0  0  0  0  0  0  0  0  0  0
  1  2  1  0  0  0  0
  1 42  1  0  0  0  0
  1 43  1  0  0  0  0
  1 44  1  0  0  0  0
  2  3  1  0  0  0  0
  2 45  1  0  0  0  0
  2 46  1  0  0  0  0
  3  4  2  0  0  0  0
  3  8  1  0  0  0  0
  4  5  1  0  0  0  0
  4 32  1  0  0  0  0
  5  6  2  0  0  0  0
  6  7  1  0  0  0  0
  6 12  1  0  0  0  0
  7  8  2  0  0  0  0
  7  9  1  0  0  0  0
  9 10  2  0  0  0  0
  9 11  1  0  0  0  0
 11 47  1  0  0  0  0
 11 48  1  0  0  0  0
 12 13  1  0  0  0  0
 12 49  1  0  0  0  0
 13 14  2  0  0  0  0
 13 18  1  0  0  0  0
 14 15  1  0  0  0  0
 14 50  1  0  0  0  0
 15 16  2  0  0  0  0
 15 51  1  0  0  0  0
 16 17  1  0  0  0  0
 16 19  1  0  0  0  0
 17 18  2  0  0  0  0
 17 52  1  0  0  0  0
 18 53  1  0  0  0  0
 19 20  1  0  0  0  0
 19 24  1  0  0  0  0
 20 21  1  0  0  0  0
 20 54  1  0  0  0  0
 20 55  1  0  0  0  0
 21 22  1  0  0  0  0
 21 56  1  0  0  0  0
 21 57  1  0  0  0  0
 22 23  1  0  0  0  0
 22 25  1  0  0  0  0
 22 58  1  0  0  0  0
 23 24  1  0  0  0  0
 23 59  1  0  0  0  0
 23 60  1  0  0  0  0
 24 61  1  0  0  0  0
 24 62  1  0  0  0  0
 25 26  1  0  0  0  0
 25 30  1  0  0  0  0
 26 27  1  0  0  0  0
 26 63  1  0  0  0  0
 26 64  1  0  0  0  0
 27 28  1  0  0  0  0
 27 65  1  0  0  0  0
 27 66  1  0  0  0  0
 28 29  1  0  0  0  0
 28 31  1  0  0  0  0
 29 30  1  0  0  0  0
 29 67  1  0  0  0  0
 29 68  1  0  0  0  0
 30 69  1  0  0  0  0
 30 70  1  0  0  0  0
 31 71  1  0  0  0  0
 31 72  1  0  0  0  0
 31 73  1  0  0  0  0
 33 32  1  0  0  0  0
 33 34  1  0  0  0  0
 33 37  1  0  0  0  0
 33 74  1  1  0  0  0
 34 35  1  0  0  0  0
 34 75  1  0  0  0  0
 34 76  1  0  0  0  0
 35 36  1  0  0  0  0
 35 77  1  0  0  0  0
 35 78  1  0  0  0  0
 36 37  1  0  0  0  0
 36 38  1  0  0  0  0
 37 79  1  0  0  0  0
 37 80  1  0  0  0  0
 38 39  2  0  0  0  0
 38 40  1  0  0  0  0
 40 41  2  0  0  0  0
 40 81  1  0  0  0  0
 41 82  1  0  0  0  0
 41 83  1  0  0  0  0
M  END
>  <DRUGBANK_ID>
DB12036

>  <COMMON_NAME>
Naquotinib

>  <CAS_NUMBER>
1448232-80-1

>  <UNII>
47DD4548PB

>  <SYNONYMS>
Naquotinib

$$$$
