
 OpenBabel10282417072D

143148  0  0  1  0  0  0  0  0999 V2000
   -0.8568    1.7694    0.0000 C   0  0  0  0  0  0  0  0  0  0  0  0
   -0.2103   -0.9458    0.0000 C   0  0  0  0  0  0  0  0  0  0  0  0
    2.1361   -0.1588    0.0000 C   0  0  0  0  0  0  0  0  0  0  0  0
    3.4293    2.5199    0.0000 C   0  0  0  0  0  0  0  0  0  0  0  0
    5.8220   -3.4628    0.0000 C   0  0  0  0  0  0  0  0  0  0  0  0
    2.9201    0.0979    0.0000 C   0  0  0  0  0  0  0  0  0  0  0  0
    9.0900    7.0289    0.0000 C   0  0  0  0  0  0  0  0  0  0  0  0
    4.1082    5.7493    0.0000 C   0  0  0  0  0  0  0  0  0  0  0  0
    2.4109   -2.3242    0.0000 C   0  0  0  0  0  0  0  0  0  0  0  0
    2.8555   -3.6822    0.0000 C   0  0  0  0  0  0  0  0  0  0  0  0
   -0.5196    1.0165    0.0000 C   0  0  0  0  0  0  0  0  0  0  0  0
    7.2850    0.0233    0.0000 C   0  0  0  0  0  0  0  0  0  0  0  0
    7.4084   -0.5928    0.0000 C   0  0  0  0  0  0  0  0  0  0  0  0
    6.6707    0.5739    0.0000 C   0  0  0  0  0  0  0  0  0  0  0  0
    5.7815    3.2900    0.0000 C   0  0  0  0  0  0  0  0  0  0  0  0
    6.4604    6.5194    0.0000 C   0  0  0  0  0  0  0  0  0  0  0  0
    7.2444    6.7761    0.0000 C   0  0  0  0  0  0  0  0  0  0  0  0
    5.9512    4.0973    0.0000 C   0  0  0  0  0  0  0  0  0  0  0  0
    8.4044    5.0071    0.0000 C   0  0  0  0  0  0  0  0  0  0  0  0
    6.5225   -1.3339    0.0000 C   0  0  0  0  0  0  0  0  0  0  0  0
    9.0163    5.5605    0.0000 C   0  0  0  0  0  0  0  0  0  0  0  0
    4.8277    2.2259    0.0000 C   0  0  0  0  0  0  0  0  0  0  0  0
    0.7152    0.2185    0.0000 C   0  0  0  0  0  0  0  0  0  0  0  0
    2.5807   -1.5168    0.0000 C   0  0  0  0  0  0  0  0  0  0  0  0
    4.4236   -3.1688    0.0000 C   0  0  0  0  0  0  0  0  0  0  0  0
    4.3831    3.5840    0.0000 C   0  0  0  0  0  0  0  0  0  0  0  0
    6.9050    5.1614    0.0000 C   0  0  0  0  0  0  0  0  0  0  0  0
    1.6062    1.2125    0.0000 C   0  0  0  0  0  0  0  0  0  0  0  0
    0.5680   -0.6722    0.0000 C   0  0  0  0  0  0  0  0  0  0  0  0
    1.9663   -0.9662    0.0000 C   0  0  2  0  0  0  0  0  0  0  0  0
    4.0436    1.9693    0.0000 C   0  0  0  0  0  0  0  0  0  0  0  0
    5.2077   -2.9122    0.0000 C   0  0  2  0  0  0  0  0  0  0  0  0
    3.0899    0.9052    0.0000 C   0  0  2  0  0  0  0  0  0  0  0  0
    4.9974    3.0333    0.0000 C   0  0  1  0  0  0  0  0  0  0  0  0
    0.3011    0.9321    0.0000 C   0  0  2  0  0  0  0  0  0  0  0  0
    7.6890    5.4181    0.0000 C   0  0  0  0  0  0  0  0  0  0  0  0
    6.2907    5.7120    0.0000 C   0  0  0  0  0  0  0  0  0  0  0  0
    7.8588    6.2254    0.0000 C   0  0  0  0  0  0  0  0  0  0  0  0
    5.8866    0.3173    0.0000 C   0  0  1  0  0  0  0  0  0  0  0  0
    2.4755    1.4559    0.0000 C   0  0  1  0  0  0  0  0  0  0  0  0
    0.8517    1.5464    0.0000 C   0  0  0  0  0  0  0  0  0  0  0  0
    5.3369    4.6480    0.0000 C   0  0  2  0  0  0  0  0  0  0  0  0
    4.5528    4.3913    0.0000 C   0  0  2  0  0  0  0  0  0  0  0  0
    3.3647   -1.2602    0.0000 C   0  0  1  0  0  0  0  0  0  0  0  0
    3.8093   -2.6182    0.0000 C   0  0  1  0  0  0  0  0  0  0  0  0
    1.1823   -1.2229    0.0000 C   0  0  2  0  0  0  0  0  0  0  0  0
    3.8739    1.1619    0.0000 C   0  0  2  0  0  0  0  0  0  0  0  0
    3.9790   -1.8108    0.0000 C   0  0  2  0  0  0  0  0  0  0  0  0
    6.1615   -1.8481    0.0000 C   0  0  0  0  0  0  0  0  0  0  0  0
    6.3312   -1.0408    0.0000 C   0  0  0  0  0  0  0  0  0  0  0  0
    5.2723    0.8679    0.0000 C   0  0  0  0  0  0  0  0  0  0  0  0
    5.3774   -2.1048    0.0000 C   0  0  1  0  0  0  0  0  0  0  0  0
    8.6791    6.3135    0.0000 N   0  0  0  0  0  0  0  0  0  0  0  0
    5.7169   -0.4901    0.0000 N   0  0  0  0  0  0  0  0  0  0  0  0
    2.6628    2.2594    0.0000 O   0  0  0  0  0  0  0  0  0  0  0  0
    0.6784    2.3530    0.0000 O   0  0  0  0  0  0  0  0  0  0  0  0
    1.0126   -2.0302    0.0000 O   0  0  0  0  0  0  0  0  0  0  0  0
    6.7758   -2.3988    0.0000 O   0  0  0  0  0  0  0  0  0  0  0  0
    7.1153   -0.7841    0.0000 O   0  0  0  0  0  0  0  0  0  0  0  0
    5.4420    1.6753    0.0000 O   0  0  0  0  0  0  0  0  0  0  0  0
    5.9917   -2.6555    0.0000 O   0  0  0  0  0  0  0  0  0  0  0  0
    3.9385    4.9420    0.0000 O   0  0  0  0  0  0  0  0  0  0  0  0
    3.1950   -2.0675    0.0000 O   0  0  0  0  0  0  0  0  0  0  0  0
    3.0253   -2.8749    0.0000 O   0  0  0  0  0  0  0  0  0  0  0  0
    5.5066    5.4553    0.0000 O   0  0  0  0  0  0  0  0  0  0  0  0
    4.4882    0.6112    0.0000 O   0  0  0  0  0  0  0  0  0  0  0  0
    4.7631   -1.5541    0.0000 O   0  0  0  0  0  0  0  0  0  0  0  0
    5.5933    1.9186    0.0000 H   0  0  0  0  0  0  0  0  0  0  0  0
    1.5267    0.3671    0.0000 H   0  0  0  0  0  0  0  0  0  0  0  0
    2.7504   -0.7095    0.0000 H   0  0  0  0  0  0  0  0  0  0  0  0
    5.0380   -3.7195    0.0000 H   0  0  0  0  0  0  0  0  0  0  0  0
    2.3058    0.6485    0.0000 H   0  0  0  0  0  0  0  0  0  0  0  0
    5.6117    2.4826    0.0000 H   0  0  0  0  0  0  0  0  0  0  0  0
   -0.1467    0.2392    0.0000 H   0  0  0  0  0  0  0  0  0  0  0  0
    6.0563    1.1246    0.0000 H   0  0  0  0  0  0  0  0  0  0  0  0
    1.8795    2.0263    0.0000 H   0  0  0  0  0  0  0  0  0  0  0  0
    6.1209    4.9047    0.0000 H   0  0  0  0  0  0  0  0  0  0  0  0
    3.7688    4.1346    0.0000 H   0  0  0  0  0  0  0  0  0  0  0  0
    2.8141   -1.8745    0.0000 H   0  0  0  0  0  0  0  0  0  0  0  0
    3.6396   -3.4255    0.0000 H   0  0  0  0  0  0  0  0  0  0  0  0
    0.3982   -1.4795    0.0000 H   0  0  0  0  0  0  0  0  0  0  0  0
    3.2596    1.7126    0.0000 H   0  0  0  0  0  0  0  0  0  0  0  0
    3.3301   -2.3202    0.0000 H   0  0  0  0  0  0  0  0  0  0  0  0
   -0.2298    2.6364    0.0000 H   0  0  0  0  0  0  0  0  0  0  0  0
   -1.9212    1.8789    0.0000 H   0  0  0  0  0  0  0  0  0  0  0  0
   -1.2942    2.7459    0.0000 H   0  0  0  0  0  0  0  0  0  0  0  0
   -1.0223   -0.2490    0.0000 H   0  0  0  0  0  0  0  0  0  0  0  0
   -0.4077   -1.9974    0.0000 H   0  0  0  0  0  0  0  0  0  0  0  0
   -1.2197   -1.3007    0.0000 H   0  0  0  0  0  0  0  0  0  0  0  0
    3.1530    0.1740    0.0000 H   0  0  0  0  0  0  0  0  0  0  0  0
    1.3394    0.5555    0.0000 H   0  0  0  0  0  0  0  0  0  0  0  0
    2.3563    0.8883    0.0000 H   0  0  0  0  0  0  0  0  0  0  0  0
    3.6494    3.5670    0.0000 H   0  0  0  0  0  0  0  0  0  0  0  0
    2.4124    2.1869    0.0000 H   0  0  0  0  0  0  0  0  0  0  0  0
    2.6325    3.2341    0.0000 H   0  0  0  0  0  0  0  0  0  0  0  0
    5.6019   -4.5099    0.0000 H   0  0  0  0  0  0  0  0  0  0  0  0
    6.8389   -3.1298    0.0000 H   0  0  0  0  0  0  0  0  0  0  0  0
    6.6188   -4.1770    0.0000 H   0  0  0  0  0  0  0  0  0  0  0  0
    1.9032   -0.2349    0.0000 H   0  0  0  0  0  0  0  0  0  0  0  0
    3.7168   -0.6164    0.0000 H   0  0  0  0  0  0  0  0  0  0  0  0
    2.6999   -0.9492    0.0000 H   0  0  0  0  0  0  0  0  0  0  0  0
   10.1600    7.0313    0.0000 H   0  0  0  0  0  0  0  0  0  0  0  0
    8.5529    7.9543    0.0000 H   0  0  0  0  0  0  0  0  0  0  0  0
    9.6229    7.9567    0.0000 H   0  0  0  0  0  0  0  0  0  0  0  0
    5.1251    6.0822    0.0000 H   0  0  0  0  0  0  0  0  0  0  0  0
    3.3114    6.4635    0.0000 H   0  0  0  0  0  0  0  0  0  0  0  0
    4.3283    6.7964    0.0000 H   0  0  0  0  0  0  0  0  0  0  0  0
    1.6141   -1.6100    0.0000 H   0  0  0  0  0  0  0  0  0  0  0  0
    2.1908   -3.3713    0.0000 H   0  0  0  0  0  0  0  0  0  0  0  0
    1.3940   -2.6571    0.0000 H   0  0  0  0  0  0  0  0  0  0  0  0
    1.8386   -4.0150    0.0000 H   0  0  0  0  0  0  0  0  0  0  0  0
    3.6522   -4.3965    0.0000 H   0  0  0  0  0  0  0  0  0  0  0  0
    2.6353   -4.7293    0.0000 H   0  0  0  0  0  0  0  0  0  0  0  0
   -1.1466    0.1495    0.0000 H   0  0  0  0  0  0  0  0  0  0  0  0
   -0.0822    0.0400    0.0000 H   0  0  0  0  0  0  0  0  0  0  0  0
    8.2142    0.5539    0.0000 H   0  0  0  0  0  0  0  0  0  0  0  0
    7.3982    1.0873    0.0000 H   0  0  0  0  0  0  0  0  0  0  0  0
    8.4178   -0.9479    0.0000 H   0  0  0  0  0  0  0  0  0  0  0  0
    7.5991   -1.6457    0.0000 H   0  0  0  0  0  0  0  0  0  0  0  0
    6.8909    1.6210    0.0000 H   0  0  0  0  0  0  0  0  0  0  0  0
    5.8740    1.2882    0.0000 H   0  0  0  0  0  0  0  0  0  0  0  0
    6.5783    2.5758    0.0000 H   0  0  0  0  0  0  0  0  0  0  0  0
    5.5614    2.2429    0.0000 H   0  0  0  0  0  0  0  0  0  0  0  0
    5.6919    7.2082    0.0000 H   0  0  0  0  0  0  0  0  0  0  0  0
    7.4567    7.7860    0.0000 H   0  0  0  0  0  0  0  0  0  0  0  0
    6.9681    4.4302    0.0000 H   0  0  0  0  0  0  0  0  0  0  0  0
    6.1714    5.1444    0.0000 H   0  0  0  0  0  0  0  0  0  0  0  0
    8.5145    3.9810    0.0000 H   0  0  0  0  0  0  0  0  0  0  0  0
    6.4627   -2.4022    0.0000 H   0  0  0  0  0  0  0  0  0  0  0  0
    5.5185   -1.7040    0.0000 H   0  0  0  0  0  0  0  0  0  0  0  0
   10.0262    5.3481    0.0000 H   0  0  0  0  0  0  0  0  0  0  0  0
    2.3606   -2.5639    0.0000 H   0  0  0  0  0  0  0  0  0  0  0  0
    3.3774   -2.2310    0.0000 H   0  0  0  0  0  0  0  0  0  0  0  0
    4.2034   -4.2159    0.0000 H   0  0  0  0  0  0  0  0  0  0  0  0
    3.4067   -3.5017    0.0000 H   0  0  0  0  0  0  0  0  0  0  0  0
    3.3662    3.2511    0.0000 H   0  0  0  0  0  0  0  0  0  0  0  0
    3.5863    4.2982    0.0000 H   0  0  0  0  0  0  0  0  0  0  0  0
    6.6927    4.1515    0.0000 H   0  0  0  0  0  0  0  0  0  0  0  0
    1.5294    0.1453    0.0000 H   0  0  0  0  0  0  0  0  0  0  0  0
    0.6891    0.6613    0.0000 H   0  0  0  0  0  0  0  0  0  0  0  0
    3.5910    2.5410    0.0000 H   0  0  0  0  0  0  0  0  0  0  0  0
    0.0908   -2.3320    0.0000 H   0  0  0  0  0  0  0  0  0  0  0  0
    5.7921   -3.6047    0.0000 H   0  0  0  0  0  0  0  0  0  0  0  0
  1 84  1  0  0  0  0
  1 85  1  0  0  0  0
  1 86  1  0  0  0  0
  2 87  1  0  0  0  0
  2 88  1  0  0  0  0
  2 89  1  0  0  0  0
  3 90  1  0  0  0  0
  3 91  1  0  0  0  0
  3 92  1  0  0  0  0
  4 93  1  0  0  0  0
  4 94  1  0  0  0  0
  4 95  1  0  0  0  0
  5 96  1  0  0  0  0
  5 97  1  0  0  0  0
  5 98  1  0  0  0  0
  6 99  1  0  0  0  0
  6100  1  0  0  0  0
  6101  1  0  0  0  0
  7102  1  0  0  0  0
  7103  1  0  0  0  0
  7104  1  0  0  0  0
  8105  1  0  0  0  0
  8106  1  0  0  0  0
  8107  1  0  0  0  0
  9108  1  0  0  0  0
  9109  1  0  0  0  0
  9110  1  0  0  0  0
 10111  1  0  0  0  0
 10112  1  0  0  0  0
 10113  1  0  0  0  0
 11  1  1  0  0  0  0
 11114  1  0  0  0  0
 11115  1  0  0  0  0
 12116  1  0  0  0  0
 12117  1  0  0  0  0
 13 12  1  0  0  0  0
 13118  1  0  0  0  0
 13119  1  0  0  0  0
 14 12  1  0  0  0  0
 14120  1  0  0  0  0
 14121  1  0  0  0  0
 15122  1  0  0  0  0
 15123  1  0  0  0  0
 16124  1  0  0  0  0
 17 16  1  0  0  0  0
 17125  1  0  0  0  0
 18 15  1  0  0  0  0
 18126  1  0  0  0  0
 18127  1  0  0  0  0
 19128  1  0  0  0  0
 20 13  1  0  0  0  0
 20129  1  0  0  0  0
 20130  1  0  0  0  0
 21 19  2  0  0  0  0
 21131  1  0  0  0  0
 24132  1  0  0  0  0
 24133  1  0  0  0  0
 25134  1  0  0  0  0
 25135  1  0  0  0  0
 26136  1  0  0  0  0
 26137  1  0  0  0  0
 27138  1  0  0  0  0
 28139  1  0  0  0  0
 28140  1  0  0  0  0
 29  2  1  0  0  0  0
 29 23  2  0  0  0  0
 30  3  1  0  0  0  0
 30 24  1  0  0  0  0
 30 70  1  1  0  0  0
 31  4  1  0  0  0  0
 31 22  2  0  0  0  0
 32  5  1  0  0  0  0
 32 25  1  0  0  0  0
 32 71  1  1  0  0  0
 33  6  1  0  0  0  0
 33 72  1  1  0  0  0
 34 15  1  0  0  0  0
 34 22  1  0  0  0  0
 34 26  1  0  0  0  0
 34 73  1  6  0  0  0
 35 11  1  0  0  0  0
 35 23  1  0  0  0  0
 35 74  1  6  0  0  0
 36 19  1  0  0  0  0
 36 27  2  0  0  0  0
 37 16  2  0  0  0  0
 37 27  1  0  0  0  0
 38 17  2  0  0  0  0
 38 36  1  0  0  0  0
 39 14  1  0  0  0  0
 39 75  1  1  0  0  0
 40 28  1  0  0  0  0
 40 33  1  0  0  0  0
 40 55  1  0  0  0  0
 40 76  1  1  0  0  0
 41 28  1  0  0  0  0
 41 35  1  0  0  0  0
 42 18  1  0  0  0  0
 42 65  1  0  0  0  0
 42 77  1  1  0  0  0
 43 26  1  0  0  0  0
 43 42  1  0  0  0  0
 43 62  1  0  0  0  0
 43 78  1  6  0  0  0
 44 24  1  0  0  0  0
 44 63  1  0  0  0  0
 44 79  1  6  0  0  0
 45 25  1  0  0  0  0
 45 64  1  0  0  0  0
 45 80  1  1  0  0  0
 46 29  1  0  0  0  0
 46 30  1  0  0  0  0
 46 57  1  0  0  0  0
 46 81  1  1  0  0  0
 47 31  1  0  0  0  0
 47 33  1  0  0  0  0
 47 82  1  6  0  0  0
 48 44  1  0  0  0  0
 48 45  1  0  0  0  0
 48 83  1  6  0  0  0
 50 49  1  0  0  0  0
 51 39  1  0  0  0  0
 52 32  1  0  0  0  0
 52 49  1  0  0  0  0
 52 61  1  6  0  0  0
 53  7  1  0  0  0  0
 53 21  1  0  0  0  0
 53 38  1  0  0  0  0
 54 20  1  0  0  0  0
 54 39  1  0  0  0  0
 54 50  1  0  0  0  0
 55141  1  0  0  0  0
 56 41  2  0  0  0  0
 57142  1  0  0  0  0
 58 49  2  0  0  0  0
 59 50  2  0  0  0  0
 60 51  2  0  0  0  0
 61143  1  0  0  0  0
 62  8  1  0  0  0  0
 63  9  1  0  0  0  0
 64 10  1  0  0  0  0
 65 37  1  0  0  0  0
 66 47  1  0  0  0  0
 66 51  1  0  0  0  0
 67 48  1  0  0  0  0
 67 52  1  0  0  0  0
 68 22  1  0  0  0  0
 69 23  1  0  0  0  0
M  END
>  <DRUGBANK_ID>
DB03621

>  <SECONDARY_ACCESSION_NUMBERS>
EXPT00237

>  <COMMON_NAME>
L-709,587

$$$$
