
 OpenBabel10282417072D

  6  5  0  0  0  0  0  0  0  0999 V2000
    0.8250    0.0000    0.0000 O   0  0  0  0  0  0  0  0  0  0  0  0
    0.0000    0.0000    0.0000 Si  0  0  0  0  0  0  0  0  0  0  0  0
    1.3100   -0.8400    0.0000 H   0  0  0  0  0  0  0  0  0  0  0  0
   -0.7100    1.2298    0.0000 H   0  0  0  0  0  0  0  0  0  0  0  0
   -0.7100   -1.2298    0.0000 H   0  0  0  0  0  0  0  0  0  0  0  0
   -1.4200   -0.0000    0.0000 H   0  0  0  0  0  0  0  0  0  0  0  0
  1  2  1  0  0  0  0
  1  3  1  0  0  0  0
  2  4  1  0  0  0  0
  2  5  1  0  0  0  0
  2  6  1  0  0  0  0
M  END
>  <DRUGBANK_ID>
DB11343

>  <COMMON_NAME>
Silanol

>  <CAS_NUMBER>
70131-67-8

>  <UNII>
079V3J9O3X

$$$$
