
 OpenBabel10282417072D

120119  0  0  1  0  0  0  0  0999 V2000
   -7.3826    2.3015    0.0000 C   0  0  0  0  0  0  0  0  0  0  0  0
   -7.3826    1.4765    0.0000 C   0  0  2  0  0  0  0  0  0  0  0  0
   -8.0971    1.0640    0.0000 C   0  0  0  0  0  0  0  0  0  0  0  0
   -8.0971    0.2390    0.0000 C   0  0  0  0  0  0  0  0  0  0  0  0
   -7.3826   -0.1735    0.0000 C   0  0  2  0  0  0  0  0  0  0  0  0
   -6.6682    0.2390    0.0000 C   0  0  1  0  0  0  0  0  0  0  0  0
   -6.6682    1.0640    0.0000 C   0  0  0  0  0  0  0  0  0  0  0  0
   -5.9537   -0.1735    0.0000 O   0  0  0  0  0  0  0  0  0  0  0  0
   -5.2392    0.2390    0.0000 C   0  0  0  0  0  0  0  0  0  0  0  0
   -5.2392    1.0640    0.0000 O   0  0  0  0  0  0  0  0  0  0  0  0
   -4.5247   -0.1735    0.0000 C   0  0  0  0  0  0  0  0  0  0  0  0
   -3.8103    0.2390    0.0000 N   0  3  0  0  0  0  0  0  0  0  0  0
   -3.3978   -0.4754    0.0000 C   0  0  0  0  0  0  0  0  0  0  0  0
   -4.2228    0.9535    0.0000 C   0  0  0  0  0  0  0  0  0  0  0  0
   -3.0958    0.6515    0.0000 C   0  0  0  0  0  0  0  0  0  0  0  0
   -2.3813    0.2390    0.0000 C   0  0  0  0  0  0  0  0  0  0  0  0
   -1.6669    0.6515    0.0000 C   0  0  0  0  0  0  0  0  0  0  0  0
   -0.9524    0.2390    0.0000 C   0  0  0  0  0  0  0  0  0  0  0  0
   -0.2379    0.6515    0.0000 C   0  0  0  0  0  0  0  0  0  0  0  0
    0.4766    0.2390    0.0000 C   0  0  0  0  0  0  0  0  0  0  0  0
    1.1910    0.6515    0.0000 C   0  0  0  0  0  0  0  0  0  0  0  0
    1.9055    0.2390    0.0000 C   0  0  0  0  0  0  0  0  0  0  0  0
    2.6200    0.6515    0.0000 C   0  0  0  0  0  0  0  0  0  0  0  0
    3.3344    0.2390    0.0000 C   0  0  0  0  0  0  0  0  0  0  0  0
    4.0489    0.6515    0.0000 N   0  3  0  0  0  0  0  0  0  0  0  0
    4.7634    1.0640    0.0000 C   0  0  0  0  0  0  0  0  0  0  0  0
    3.6364    1.3660    0.0000 C   0  0  0  0  0  0  0  0  0  0  0  0
    4.4614   -0.0629    0.0000 C   0  0  0  0  0  0  0  0  0  0  0  0
    5.2864   -0.0629    0.0000 C   0  0  0  0  0  0  0  0  0  0  0  0
    5.6989    0.6515    0.0000 O   0  0  0  0  0  0  0  0  0  0  0  0
    5.6989   -0.7774    0.0000 O   0  0  0  0  0  0  0  0  0  0  0  0
    6.5239   -0.7774    0.0000 C   0  0  2  0  0  0  0  0  0  0  0  0
    6.9364   -0.0629    0.0000 C   0  0  0  0  0  0  0  0  0  0  0  0
    7.7614   -0.0629    0.0000 C   0  0  1  0  0  0  0  0  0  0  0  0
    8.1739   -0.7774    0.0000 C   0  0  0  0  0  0  0  0  0  0  0  0
    7.7614   -1.4919    0.0000 C   0  0  0  0  0  0  0  0  0  0  0  0
    6.9364   -1.4919    0.0000 C   0  0  1  0  0  0  0  0  0  0  0  0
    6.5239   -2.2063    0.0000 C   0  0  0  0  0  0  0  0  0  0  0  0
    5.6989   -2.2063    0.0000 C   0  0  0  0  0  0  0  0  0  0  0  0
    6.9364   -2.9208    0.0000 C   0  0  0  0  0  0  0  0  0  0  0  0
    8.1739    0.6515    0.0000 C   0  0  0  0  0  0  0  0  0  0  0  0
   -7.3826   -0.9985    0.0000 C   0  0  0  0  0  0  0  0  0  0  0  0
   -6.6682   -1.4110    0.0000 C   0  0  0  0  0  0  0  0  0  0  0  0
   -8.0971   -1.4110    0.0000 C   0  0  0  0  0  0  0  0  0  0  0  0
   10.5310    0.0000    0.0000 Cl  0  5  0  0  0  0  0  0  0  0  0  0
    0.0000   -4.5708    0.0000 Cl  0  5  0  0  0  0  0  0  0  0  0  0
   -6.4560    2.8365    0.0000 H   0  0  0  0  0  0  0  0  0  0  0  0
   -8.3092    2.8365    0.0000 H   0  0  0  0  0  0  0  0  0  0  0  0
   -7.3826    3.3715    0.0000 H   0  0  0  0  0  0  0  0  0  0  0  0
   -8.3092    2.0115    0.0000 H   0  0  0  0  0  0  0  0  0  0  0  0
   -9.0237    1.5990    0.0000 H   0  0  0  0  0  0  0  0  0  0  0  0
   -9.0237    0.5290    0.0000 H   0  0  0  0  0  0  0  0  0  0  0  0
   -9.0237   -0.2960    0.0000 H   0  0  0  0  0  0  0  0  0  0  0  0
   -8.0971   -0.8310    0.0000 H   0  0  0  0  0  0  0  0  0  0  0  0
   -8.3092   -0.7085    0.0000 H   0  0  0  0  0  0  0  0  0  0  0  0
   -6.6682   -0.8310    0.0000 H   0  0  0  0  0  0  0  0  0  0  0  0
   -5.7415    1.5990    0.0000 H   0  0  0  0  0  0  0  0  0  0  0  0
   -6.6682    2.1340    0.0000 H   0  0  0  0  0  0  0  0  0  0  0  0
   -4.5247   -1.2435    0.0000 H   0  0  0  0  0  0  0  0  0  0  0  0
   -3.5980   -0.7085    0.0000 H   0  0  0  0  0  0  0  0  0  0  0  0
   -3.9328   -1.4021    0.0000 H   0  0  0  0  0  0  0  0  0  0  0  0
   -2.3278   -0.4754    0.0000 H   0  0  0  0  0  0  0  0  0  0  0  0
   -2.8628   -1.4020    0.0000 H   0  0  0  0  0  0  0  0  0  0  0  0
   -3.6878    1.8801    0.0000 H   0  0  0  0  0  0  0  0  0  0  0  0
   -5.2928    0.9535    0.0000 H   0  0  0  0  0  0  0  0  0  0  0  0
   -4.7578    1.8802    0.0000 H   0  0  0  0  0  0  0  0  0  0  0  0
   -3.0958    1.7215    0.0000 H   0  0  0  0  0  0  0  0  0  0  0  0
   -2.1692    1.1865    0.0000 H   0  0  0  0  0  0  0  0  0  0  0  0
   -2.3813   -0.8310    0.0000 H   0  0  0  0  0  0  0  0  0  0  0  0
   -1.4546   -0.2960    0.0000 H   0  0  0  0  0  0  0  0  0  0  0  0
   -1.6669    1.7215    0.0000 H   0  0  0  0  0  0  0  0  0  0  0  0
   -0.7403    1.1865    0.0000 H   0  0  0  0  0  0  0  0  0  0  0  0
   -0.9524   -0.8310    0.0000 H   0  0  0  0  0  0  0  0  0  0  0  0
   -0.0258   -0.2960    0.0000 H   0  0  0  0  0  0  0  0  0  0  0  0
   -0.2379    1.7215    0.0000 H   0  0  0  0  0  0  0  0  0  0  0  0
    0.6887    1.1865    0.0000 H   0  0  0  0  0  0  0  0  0  0  0  0
    0.4766   -0.8310    0.0000 H   0  0  0  0  0  0  0  0  0  0  0  0
    1.4033   -0.2960    0.0000 H   0  0  0  0  0  0  0  0  0  0  0  0
    1.1910    1.7215    0.0000 H   0  0  0  0  0  0  0  0  0  0  0  0
    2.1176    1.1865    0.0000 H   0  0  0  0  0  0  0  0  0  0  0  0
    1.9055   -0.8310    0.0000 H   0  0  0  0  0  0  0  0  0  0  0  0
    2.8321   -0.2960    0.0000 H   0  0  0  0  0  0  0  0  0  0  0  0
    2.6200    1.7215    0.0000 H   0  0  0  0  0  0  0  0  0  0  0  0
    3.5467    1.1865    0.0000 H   0  0  0  0  0  0  0  0  0  0  0  0
    3.3344   -0.8310    0.0000 H   0  0  0  0  0  0  0  0  0  0  0  0
    4.2610   -0.2960    0.0000 H   0  0  0  0  0  0  0  0  0  0  0  0
    5.6900    0.5290    0.0000 H   0  0  0  0  0  0  0  0  0  0  0  0
    4.7634    2.1340    0.0000 H   0  0  0  0  0  0  0  0  0  0  0  0
    5.6901    1.5990    0.0000 H   0  0  0  0  0  0  0  0  0  0  0  0
    4.1714    2.2926    0.0000 H   0  0  0  0  0  0  0  0  0  0  0  0
    2.5664    1.3660    0.0000 H   0  0  0  0  0  0  0  0  0  0  0  0
    3.1014    2.2927    0.0000 H   0  0  0  0  0  0  0  0  0  0  0  0
    3.9264   -0.9896    0.0000 H   0  0  0  0  0  0  0  0  0  0  0  0
    4.9964   -0.9895    0.0000 H   0  0  0  0  0  0  0  0  0  0  0  0
    5.9889    0.1492    0.0000 H   0  0  0  0  0  0  0  0  0  0  0  0
    6.4014    0.8637    0.0000 H   0  0  0  0  0  0  0  0  0  0  0  0
    7.4714    0.8637    0.0000 H   0  0  0  0  0  0  0  0  0  0  0  0
    7.2264    0.8638    0.0000 H   0  0  0  0  0  0  0  0  0  0  0  0
    9.2439   -0.7774    0.0000 H   0  0  0  0  0  0  0  0  0  0  0  0
    8.7089   -1.7040    0.0000 H   0  0  0  0  0  0  0  0  0  0  0  0
    8.2964   -2.4185    0.0000 H   0  0  0  0  0  0  0  0  0  0  0  0
    7.2264   -2.4185    0.0000 H   0  0  0  0  0  0  0  0  0  0  0  0
    7.4714   -2.4186    0.0000 H   0  0  0  0  0  0  0  0  0  0  0  0
    5.9889   -3.1329    0.0000 H   0  0  0  0  0  0  0  0  0  0  0  0
    5.1639   -1.2797    0.0000 H   0  0  0  0  0  0  0  0  0  0  0  0
    5.1639   -3.1329    0.0000 H   0  0  0  0  0  0  0  0  0  0  0  0
    4.6289   -2.2063    0.0000 H   0  0  0  0  0  0  0  0  0  0  0  0
    6.4014   -3.8474    0.0000 H   0  0  0  0  0  0  0  0  0  0  0  0
    8.0064   -2.9208    0.0000 H   0  0  0  0  0  0  0  0  0  0  0  0
    7.4714   -3.8475    0.0000 H   0  0  0  0  0  0  0  0  0  0  0  0
    9.2439    0.6515    0.0000 H   0  0  0  0  0  0  0  0  0  0  0  0
    7.6389    1.5782    0.0000 H   0  0  0  0  0  0  0  0  0  0  0  0
    8.7089    1.5781    0.0000 H   0  0  0  0  0  0  0  0  0  0  0  0
   -7.3826   -2.0685    0.0000 H   0  0  0  0  0  0  0  0  0  0  0  0
   -6.6682   -2.4810    0.0000 H   0  0  0  0  0  0  0  0  0  0  0  0
   -5.7415   -0.8760    0.0000 H   0  0  0  0  0  0  0  0  0  0  0  0
   -5.7416   -1.9460    0.0000 H   0  0  0  0  0  0  0  0  0  0  0  0
   -9.0237   -0.8760    0.0000 H   0  0  0  0  0  0  0  0  0  0  0  0
   -8.0971   -2.4810    0.0000 H   0  0  0  0  0  0  0  0  0  0  0  0
   -9.0238   -1.9460    0.0000 H   0  0  0  0  0  0  0  0  0  0  0  0
  1 47  1  0  0  0  0
  1 48  1  0  0  0  0
  1 49  1  0  0  0  0
  2  1  1  0  0  0  0
  2  3  1  0  0  0  0
  2  7  1  0  0  0  0
  2 50  1  6  0  0  0
  3  4  1  0  0  0  0
  3 51  1  0  0  0  0
  3 52  1  0  0  0  0
  4  5  1  0  0  0  0
  4 53  1  0  0  0  0
  4 54  1  0  0  0  0
  5  6  1  0  0  0  0
  5 42  1  0  0  0  0
  5 55  1  1  0  0  0
  6  7  1  0  0  0  0
  6  8  1  0  0  0  0
  6 56  1  6  0  0  0
  7 57  1  0  0  0  0
  7 58  1  0  0  0  0
  8  9  1  0  0  0  0
  9 10  2  0  0  0  0
  9 11  1  0  0  0  0
 11 12  1  0  0  0  0
 11 59  1  0  0  0  0
 11 60  1  0  0  0  0
 12 13  1  0  0  0  0
 12 14  1  0  0  0  0
 12 15  1  0  0  0  0
 13 61  1  0  0  0  0
 13 62  1  0  0  0  0
 13 63  1  0  0  0  0
 14 64  1  0  0  0  0
 14 65  1  0  0  0  0
 14 66  1  0  0  0  0
 15 16  1  0  0  0  0
 15 67  1  0  0  0  0
 15 68  1  0  0  0  0
 16 17  1  0  0  0  0
 16 69  1  0  0  0  0
 16 70  1  0  0  0  0
 17 18  1  0  0  0  0
 17 71  1  0  0  0  0
 17 72  1  0  0  0  0
 18 19  1  0  0  0  0
 18 73  1  0  0  0  0
 18 74  1  0  0  0  0
 19 20  1  0  0  0  0
 19 75  1  0  0  0  0
 19 76  1  0  0  0  0
 20 21  1  0  0  0  0
 20 77  1  0  0  0  0
 20 78  1  0  0  0  0
 21 22  1  0  0  0  0
 21 79  1  0  0  0  0
 21 80  1  0  0  0  0
 22 23  1  0  0  0  0
 22 81  1  0  0  0  0
 22 82  1  0  0  0  0
 23 24  1  0  0  0  0
 23 83  1  0  0  0  0
 23 84  1  0  0  0  0
 24 25  1  0  0  0  0
 24 85  1  0  0  0  0
 24 86  1  0  0  0  0
 25 26  1  0  0  0  0
 25 27  1  0  0  0  0
 25 28  1  0  0  0  0
 26 87  1  0  0  0  0
 26 88  1  0  0  0  0
 26 89  1  0  0  0  0
 27 90  1  0  0  0  0
 27 91  1  0  0  0  0
 27 92  1  0  0  0  0
 28 29  1  0  0  0  0
 28 93  1  0  0  0  0
 28 94  1  0  0  0  0
 29 30  2  0  0  0  0
 29 31  1  0  0  0  0
 32 31  1  0  0  0  0
 32 33  1  0  0  0  0
 32 37  1  0  0  0  0
 32 95  1  1  0  0  0
 33 34  1  0  0  0  0
 33 96  1  0  0  0  0
 33 97  1  0  0  0  0
 34 35  1  0  0  0  0
 34 41  1  0  0  0  0
 34 98  1  1  0  0  0
 35 36  1  0  0  0  0
 35 99  1  0  0  0  0
 35100  1  0  0  0  0
 36 37  1  0  0  0  0
 36101  1  0  0  0  0
 36102  1  0  0  0  0
 37 38  1  0  0  0  0
 37103  1  6  0  0  0
 38 39  1  0  0  0  0
 38 40  1  0  0  0  0
 38104  1  0  0  0  0
 39105  1  0  0  0  0
 39106  1  0  0  0  0
 39107  1  0  0  0  0
 40108  1  0  0  0  0
 40109  1  0  0  0  0
 40110  1  0  0  0  0
 41111  1  0  0  0  0
 41112  1  0  0  0  0
 41113  1  0  0  0  0
 42 43  1  0  0  0  0
 42 44  1  0  0  0  0
 42114  1  0  0  0  0
 43115  1  0  0  0  0
 43116  1  0  0  0  0
 43117  1  0  0  0  0
 44118  1  0  0  0  0
 44119  1  0  0  0  0
 44120  1  0  0  0  0
M  CHG  4  12   1  25   1  45  -1  46  -1
M  END
>  <DRUGBANK_ID>
DB13705

>  <COMMON_NAME>
Decamethoxine

>  <CAS_NUMBER>
38146-42-8

>  <UNII>
81I73K1HKN

>  <SYNONYMS>
Decamethoxin

$$$$
