444703
 OpenBabel10282417072D

 35 38  0  0  1  0  0  0  0  0999 V2000
    4.5933    0.5604    0.0000 S   0  0  0  0  0  0  0  0  0  0  0  0
    3.5644   -2.0398    0.0000 O   0  0  0  0  0  0  0  0  0  0  0  0
    4.2059   -0.7170    0.0000 N   0  0  0  0  0  0  0  0  0  0  0  0
    3.9356    0.0625    0.0000 C   0  0  1  0  0  0  0  0  0  0  0  0
    3.1107    0.0462    0.0000 C   0  0  0  0  0  0  0  0  0  0  0  0
    5.0308   -0.7007    0.0000 C   0  0  0  0  0  0  0  0  0  0  0  0
    5.2702    0.0888    0.0000 C   0  0  0  0  0  0  0  0  0  0  0  0
    3.6652    0.8419    0.0000 C   0  0  0  0  0  0  0  0  0  0  0  0
    2.8713   -0.7433    0.0000 C   0  0  0  0  0  0  0  0  0  0  0  0
    3.5482   -1.2150    0.0000 C   0  0  0  0  0  0  0  0  0  0  0  0
    2.5467    0.6483    0.0000 C   0  0  0  0  0  0  0  0  0  0  0  0
    2.8550    0.9975    0.0000 C   0  0  0  0  0  0  0  0  0  0  0  0
    2.0679   -0.9307    0.0000 C   0  0  0  0  0  0  0  0  0  0  0  0
    4.2051    1.4658    0.0000 C   0  0  0  0  0  0  0  0  0  0  0  0
    1.7433    0.4609    0.0000 C   0  0  0  0  0  0  0  0  0  0  0  0
    2.5847    1.7769    0.0000 C   0  0  0  0  0  0  0  0  0  0  0  0
    1.5039   -0.3286    0.0000 C   0  0  0  0  0  0  0  0  0  0  0  0
    3.9347    2.2452    0.0000 C   0  0  0  0  0  0  0  0  0  0  0  0
    3.1245    2.4008    0.0000 C   0  0  0  0  0  0  0  0  0  0  0  0
    1.7745    1.9325    0.0000 C   0  0  0  0  0  0  0  0  0  0  0  0
    5.6767   -1.5538    0.0000 H   0  0  0  0  0  0  0  0  0  0  0  0
    6.0841   -0.5125    0.0000 H   0  0  0  0  0  0  0  0  0  0  0  0
    6.2811    0.4395    0.0000 H   0  0  0  0  0  0  0  0  0  0  0  0
    6.0416   -0.6527    0.0000 H   0  0  0  0  0  0  0  0  0  0  0  0
    2.8462    1.6359    0.0000 H   0  0  0  0  0  0  0  0  0  0  0  0
    2.1797    0.2171    0.0000 H   0  0  0  0  0  0  0  0  0  0  0  0
    1.7684   -1.9183    0.0000 H   0  0  0  0  0  0  0  0  0  0  0  0
    5.2186    1.2712    0.0000 H   0  0  0  0  0  0  0  0  0  0  0  0
    1.0378    1.2141    0.0000 H   0  0  0  0  0  0  0  0  0  0  0  0
    0.4989   -0.5630    0.0000 H   0  0  0  0  0  0  0  0  0  0  0  0
    4.6100    3.0256    0.0000 H   0  0  0  0  0  0  0  0  0  0  0  0
    2.7863    3.3758    0.0000 H   0  0  0  0  0  0  0  0  0  0  0  0
    1.4239    2.9434    0.0000 H   0  0  0  0  0  0  0  0  0  0  0  0
    1.0743    1.1234    0.0000 H   0  0  0  0  0  0  0  0  0  0  0  0
    0.7237    2.1343    0.0000 H   0  0  0  0  0  0  0  0  0  0  0  0
  1  4  1  0  0  0  0
  1  7  1  0  0  0  0
  2 10  2  0  0  0  0
  3  4  1  0  0  0  0
  3  6  1  0  0  0  0
  3 10  1  0  0  0  0
  4  5  1  0  0  0  0
  4  8  1  6  0  0  0
  5  9  1  0  0  0  0
  5 11  2  0  0  0  0
  6  7  1  0  0  0  0
  6 21  1  0  0  0  0
  6 22  1  0  0  0  0
  7 23  1  0  0  0  0
  7 24  1  0  0  0  0
  8 12  1  0  0  0  0
  8 14  2  0  0  0  0
  9 10  1  0  0  0  0
  9 13  2  0  0  0  0
 11 15  1  0  0  0  0
 11 25  1  0  0  0  0
 12 16  2  0  0  0  0
 12 26  1  0  0  0  0
 13 17  1  0  0  0  0
 13 27  1  0  0  0  0
 14 18  1  0  0  0  0
 14 28  1  0  0  0  0
 15 17  2  0  0  0  0
 15 29  1  0  0  0  0
 16 19  1  0  0  0  0
 16 20  1  0  0  0  0
 17 30  1  0  0  0  0
 18 19  2  0  0  0  0
 18 31  1  0  0  0  0
 19 32  1  0  0  0  0
 20 33  1  0  0  0  0
 20 34  1  0  0  0  0
 20 35  1  0  0  0  0
M  END
>  <DRUGBANK_ID>
DB07472

>  <COMMON_NAME>
(R)-(+)9B-(3-METHYL)PHENYL-2,3-DIHYDROTHIAZOLO[2,3-A]ISOINDOL-5(9BH)-ONE

$$$$
