
 OpenBabel10282417072D

208220  0  0  1  0  0  0  0  0999 V2000
    8.7148   -0.8603    0.0000 C   0  0  2  0  0  0  0  0  0  0  0  0
    7.2802   -0.6553    0.0000 O   0  0  0  0  0  0  0  0  0  0  0  0
    6.9370    0.1834    0.0000 C   0  0  1  0  0  0  0  0  0  0  0  0
    6.1030    0.4408    0.0000 C   0  0  2  0  0  0  0  0  0  0  0  0
    5.9170    1.2033    0.0000 C   0  0  2  0  0  0  0  0  0  0  0  0
    4.9258    1.6706    0.0000 O   0  0  0  0  0  0  0  0  0  0  0  0
    4.0439    1.1463    0.0000 C   0  0  1  0  0  0  0  0  0  0  0  0
    4.0439    0.3408    0.0000 C   0  0  2  0  0  0  0  0  0  0  0  0
    3.3100   -0.0500    0.0000 C   0  0  1  0  0  0  0  0  0  0  0  0
    3.3100   -0.8603    0.0000 O   0  0  0  0  0  0  0  0  0  0  0  0
    2.6333    0.3645    0.0000 C   0  0  1  0  0  0  0  0  0  0  0  0
    2.6333    1.1463    0.0000 C   0  0  2  0  0  0  0  0  0  0  0  0
    3.3624    1.5942    0.0000 O   0  0  0  0  0  0  0  0  0  0  0  0
    1.9280    1.5942    0.0000 C   0  0  0  0  0  0  0  0  0  0  0  0
    1.9280    2.5045    0.0000 O   0  0  0  0  0  0  0  0  0  0  0  0
    2.7428    3.0526    0.0000 C   0  0  0  0  0  0  0  0  0  0  0  0
    1.9040   -0.0261    0.0000 O   0  0  0  0  0  0  0  0  0  0  0  0
    1.2272    0.3645    0.0000 C   0  0  1  0  0  0  0  0  0  0  0  0
    0.4933   -0.0261    0.0000 C   0  0  1  0  0  0  0  0  0  0  0  0
   -0.1834    0.3884    0.0000 C   0  0  1  0  0  0  0  0  0  0  0  0
   -0.9127   -0.0261    0.0000 O   0  0  0  0  0  0  0  0  0  0  0  0
   -1.5894    0.3884    0.0000 C   0  0  1  0  0  0  0  0  0  0  0  0
   -2.3187   -0.0261    0.0000 C   0  0  2  0  0  0  0  0  0  0  0  0
   -3.0002    0.3884    0.0000 C   0  0  1  0  0  0  0  0  0  0  0  0
   -3.8342    0.3884    0.0000 O   0  0  0  0  0  0  0  0  0  0  0  0
   -4.3585    0.7315    0.0000 C   0  0  1  0  0  0  0  0  0  0  0  0
   -4.3585    1.5370    0.0000 O   0  0  0  0  0  0  0  0  0  0  0  0
   -5.0592    1.9517    0.0000 C   0  0  2  0  0  0  0  0  0  0  0  0
   -5.0592    2.7904    0.0000 C   0  0  0  0  0  0  0  0  0  0  0  0
   -5.7692    1.5609    0.0000 C   0  0  2  0  0  0  0  0  0  0  0  0
   -5.7692    0.7315    0.0000 C   0  0  1  0  0  0  0  0  0  0  0  0
   -5.0592    0.3408    0.0000 C   0  0  0  0  0  0  0  0  0  0  0  0
   -6.4698    0.3408    0.0000 O   0  0  0  0  0  0  0  0  0  0  0  0
   -6.4698    1.9517    0.0000 O   0  0  0  0  0  0  0  0  0  0  0  0
   -7.1707    1.5609    0.0000 C   0  0  2  0  0  0  0  0  0  0  0  0
   -7.8759    1.9517    0.0000 O   0  0  0  0  0  0  0  0  0  0  0  0
   -8.5813    1.5609    0.0000 C   0  0  2  0  0  0  0  0  0  0  0  0
   -9.3868    2.1376    0.0000 C   0  0  0  0  0  0  0  0  0  0  0  0
   -8.5813    0.7315    0.0000 C   0  0  2  0  0  0  0  0  0  0  0  0
   -7.8759    0.3408    0.0000 C   0  0  1  0  0  0  0  0  0  0  0  0
   -7.1707    0.7315    0.0000 C   0  0  0  0  0  0  0  0  0  0  0  0
   -7.0943   -0.4170    0.0000 O   0  0  0  0  0  0  0  0  0  0  0  0
   -7.3564   -1.3321    0.0000 C   0  0  1  0  0  0  0  0  0  0  0  0
   -7.3564   -2.1662    0.0000 C   0  0  0  0  0  0  0  0  0  0  0  0
   -8.0570   -2.5570    0.0000 C   0  0  1  0  0  0  0  0  0  0  0  0
   -8.9196   -3.2861    0.0000 N   0  3  0  0  0  0  0  0  0  0  0  0
   -9.8347   -3.9392    0.0000 O   0  5  0  0  0  0  0  0  0  0  0  0
   -8.4288   -4.0964    0.0000 O   0  0  0  0  0  0  0  0  0  0  0  0
   -7.3326   -3.1813    0.0000 C   0  0  0  0  0  0  0  0  0  0  0  0
   -8.7671   -2.1137    0.0000 C   0  0  2  0  0  0  0  0  0  0  0  0
   -8.7671   -1.3083    0.0000 C   0  0  1  0  0  0  0  0  0  0  0  0
   -8.0332   -0.9173    0.0000 O   0  0  0  0  0  0  0  0  0  0  0  0
   -9.2056   -0.5742    0.0000 C   0  0  0  0  0  0  0  0  0  0  0  0
   -9.6251   -2.7142    0.0000 O   0  0  0  0  0  0  0  0  0  0  0  0
  -10.8545   -2.7142    0.0000 C   0  0  0  0  0  0  0  0  0  0  0  0
   -6.5844   -1.3321    0.0000 H   0  0  0  0  0  0  0  0  0  0  0  0
   -9.2865    0.3121    0.0000 O   0  0  0  0  0  0  0  0  0  0  0  0
  -10.0159    0.7315    0.0000 C   0  0  0  0  0  0  0  0  0  0  0  0
  -10.7450    0.3121    0.0000 C   0  0  0  0  0  0  0  0  0  0  0  0
  -10.7450   -0.4932    0.0000 C   0  0  0  0  0  0  0  0  0  0  0  0
  -11.4218   -0.9173    0.0000 C   0  0  0  0  0  0  0  0  0  0  0  0
  -11.4218   -1.7229    0.0000 Cl  0  0  0  0  0  0  0  0  0  0  0  0
  -12.1559   -0.4932    0.0000 C   0  0  0  0  0  0  0  0  0  0  0  0
  -12.1559    0.3121    0.0000 C   0  0  0  0  0  0  0  0  0  0  0  0
  -11.4218    0.7315    0.0000 C   0  0  0  0  0  0  0  0  0  0  0  0
  -11.4218    1.5370    0.0000 C   0  0  0  0  0  0  0  0  0  0  0  0
  -13.0423    0.8840    0.0000 Cl  0  0  0  0  0  0  0  0  0  0  0  0
  -12.8564   -0.9412    0.0000 O   0  0  0  0  0  0  0  0  0  0  0  0
  -10.1493   -0.9651    0.0000 O   0  0  0  0  0  0  0  0  0  0  0  0
  -10.1493   -1.7229    0.0000 C   0  0  0  0  0  0  0  0  0  0  0  0
  -10.0159    1.4083    0.0000 O   0  0  0  0  0  0  0  0  0  0  0  0
   -6.4747    1.1604    0.0000 H   0  0  0  0  0  0  0  0  0  0  0  0
   -3.7819    1.2272    0.0000 O   0  0  0  0  0  0  0  0  0  0  0  0
   -3.0002    1.2272    0.0000 C   0  0  2  0  0  0  0  0  0  0  0  0
   -2.3187    1.6706    0.0000 C   0  0  2  0  0  0  0  0  0  0  0  0
   -1.5894    1.2033    0.0000 O   0  0  0  0  0  0  0  0  0  0  0  0
   -2.3187    2.4760    0.0000 C   0  0  0  0  0  0  0  0  0  0  0  0
   -3.3862    1.8944    0.0000 H   0  0  0  0  0  0  0  0  0  0  0  0
   -3.4673   -0.6553    0.0000 C   0  0  0  0  0  0  0  0  0  0  0  0
   -2.3187   -0.8316    0.0000 O   0  0  0  0  0  0  0  0  0  0  0  0
   -0.9174    0.7792    0.0000 H   0  0  0  0  0  0  0  0  0  0  0  0
   -0.1834    1.2272    0.0000 C   0  0  2  0  0  0  0  0  0  0  0  0
    0.5220    1.6181    0.0000 C   0  0  2  0  0  0  0  0  0  0  0  0
    1.2272    1.2510    0.0000 O   0  0  0  0  0  0  0  0  0  0  0  0
    0.5220    2.4283    0.0000 C   0  0  0  0  0  0  0  0  0  0  0  0
   -0.8840    1.6419    0.0000 O   0  0  0  0  0  0  0  0  0  0  0  0
   -0.8840    2.5808    0.0000 C   0  0  0  0  0  0  0  0  0  0  0  0
    0.4408   -0.8316    0.0000 O   0  0  0  0  0  0  0  0  0  0  0  0
    1.8897    0.7506    0.0000 H   0  0  0  0  0  0  0  0  0  0  0  0
    4.7732   -0.0786    0.0000 O   0  0  0  0  0  0  0  0  0  0  0  0
    4.7732   -1.0699    0.0000 C   0  0  0  0  0  0  0  0  0  0  0  0
    4.7114    0.7601    0.0000 H   0  0  0  0  0  0  0  0  0  0  0  0
    6.4938    1.7991    0.0000 O   0  0  0  0  0  0  0  0  0  0  0  0
    7.3278    1.6419    0.0000 C   0  0  0  0  0  0  0  0  0  0  0  0
    7.5661    0.8077    0.0000 C   0  0  2  0  0  0  0  0  0  0  0  0
    8.0046   -0.0261    0.0000 O   0  0  0  0  0  0  0  0  0  0  0  0
    8.2287    1.1938    0.0000 H   0  0  0  0  0  0  0  0  0  0  0  0
    5.4786   -0.0786    0.0000 O   0  0  0  0  0  0  0  0  0  0  0  0
    6.4843   -0.5982    0.0000 H   0  0  0  0  0  0  0  0  0  0  0  0
    9.3390   -1.2797    0.0000 C   0  0  1  0  0  0  0  0  0  0  0  0
   10.0969   -1.0699    0.0000 C   0  0  2  0  0  0  0  0  0  0  0  0
   10.2495   -0.2883    0.0000 C   0  0  2  0  0  0  0  0  0  0  0  0
   11.0073    0.0262    0.0000 O   0  0  0  0  0  0  0  0  0  0  0  0
   11.6602    0.7315    0.0000 C   0  0  0  0  0  0  0  0  0  0  0  0
   11.6602    1.5942    0.0000 C   0  0  0  0  0  0  0  0  0  0  0  0
   10.9786    2.0614    0.0000 C   0  0  0  0  0  0  0  0  0  0  0  0
   10.9786    2.9191    0.0000 C   0  0  0  0  0  0  0  0  0  0  0  0
   11.7365    3.3099    0.0000 C   0  0  0  0  0  0  0  0  0  0  0  0
   12.3656    2.8954    0.0000 C   0  0  0  0  0  0  0  0  0  0  0  0
   12.3656    1.9851    0.0000 C   0  0  0  0  0  0  0  0  0  0  0  0
   13.0423    1.5132    0.0000 C   0  0  0  0  0  0  0  0  0  0  0  0
   11.7365    4.0964    0.0000 O   0  0  0  0  0  0  0  0  0  0  0  0
   10.1732    1.6943    0.0000 O   0  0  0  0  0  0  0  0  0  0  0  0
   12.5991    0.0500    0.0000 O   0  0  0  0  0  0  0  0  0  0  0  0
    9.6298    0.1834    0.0000 C   0  0  0  0  0  0  0  0  0  0  0  0
    8.8434   -0.0786    0.0000 O   0  0  0  0  0  0  0  0  0  0  0  0
   10.8262   -1.6752    0.0000 O   0  0  0  0  0  0  0  0  0  0  0  0
   10.3019   -2.4568    0.0000 C   0  0  0  0  0  0  0  0  0  0  0  0
    9.2628   -2.1947    0.0000 O   0  0  0  0  0  0  0  0  0  0  0  0
   10.8405   -0.8651    0.0000 H   0  0  0  0  0  0  0  0  0  0  0  0
    8.5956   -1.4798    0.0000 H   0  0  0  0  0  0  0  0  0  0  0  0
    6.3127   -0.6085    0.0000 H   0  0  0  0  0  0  0  0  0  0  0  0
    5.0882    0.5265    0.0000 H   0  0  0  0  0  0  0  0  0  0  0  0
    4.9701    0.8766    0.0000 H   0  0  0  0  0  0  0  0  0  0  0  0
    4.2273   -0.6008    0.0000 H   0  0  0  0  0  0  0  0  0  0  0  0
    2.4700   -1.3453    0.0000 H   0  0  0  0  0  0  0  0  0  0  0  0
    2.6023   -0.7051    0.0000 H   0  0  0  0  0  0  0  0  0  0  0  0
    1.6956    0.6310    0.0000 H   0  0  0  0  0  0  0  0  0  0  0  0
    0.9903    1.0789    0.0000 H   0  0  0  0  0  0  0  0  0  0  0  0
    1.0070    2.1389    0.0000 H   0  0  0  0  0  0  0  0  0  0  0  0
    3.7039    2.5823    0.0000 H   0  0  0  0  0  0  0  0  0  0  0  0
    2.6695    4.1201    0.0000 H   0  0  0  0  0  0  0  0  0  0  0  0
    3.6306    3.6498    0.0000 H   0  0  0  0  0  0  0  0  0  0  0  0
    1.3922   -0.6066    0.0000 H   0  0  0  0  0  0  0  0  0  0  0  0
   -0.2009   -0.6815    0.0000 H   0  0  0  0  0  0  0  0  0  0  0  0
   -1.3939   -0.5642    0.0000 H   0  0  0  0  0  0  0  0  0  0  0  0
   -4.1297    2.4817    0.0000 H   0  0  0  0  0  0  0  0  0  0  0  0
   -4.1326    3.3254    0.0000 H   0  0  0  0  0  0  0  0  0  0  0  0
   -5.9858    3.3254    0.0000 H   0  0  0  0  0  0  0  0  0  0  0  0
   -5.0592    3.8604    0.0000 H   0  0  0  0  0  0  0  0  0  0  0  0
   -5.7662    2.6309    0.0000 H   0  0  0  0  0  0  0  0  0  0  0  0
   -6.6918    1.2734    0.0000 H   0  0  0  0  0  0  0  0  0  0  0  0
   -5.0562   -0.7292    0.0000 H   0  0  0  0  0  0  0  0  0  0  0  0
   -4.1358   -0.1998    0.0000 H   0  0  0  0  0  0  0  0  0  0  0  0
   -7.3025    0.8383    0.0000 H   0  0  0  0  0  0  0  0  0  0  0  0
   -8.5196    2.6291    0.0000 H   0  0  0  0  0  0  0  0  0  0  0  0
   -9.2824    3.2025    0.0000 H   0  0  0  0  0  0  0  0  0  0  0  0
  -10.3612    1.6956    0.0000 H   0  0  0  0  0  0  0  0  0  0  0  0
  -10.2568    2.7605    0.0000 H   0  0  0  0  0  0  0  0  0  0  0  0
   -9.5114    1.2605    0.0000 H   0  0  0  0  0  0  0  0  0  0  0  0
   -8.5131   -0.5188    0.0000 H   0  0  0  0  0  0  0  0  0  0  0  0
   -6.2488    0.1883    0.0000 H   0  0  0  0  0  0  0  0  0  0  0  0
   -6.2417    1.2624    0.0000 H   0  0  0  0  0  0  0  0  0  0  0  0
   -6.4337   -2.7080    0.0000 H   0  0  0  0  0  0  0  0  0  0  0  0
   -7.3683   -3.2361    0.0000 H   0  0  0  0  0  0  0  0  0  0  0  0
   -7.5323   -4.2325    0.0000 H   0  0  0  0  0  0  0  0  0  0  0  0
   -6.3224   -2.8286    0.0000 H   0  0  0  0  0  0  0  0  0  0  0  0
   -6.5221   -3.8798    0.0000 H   0  0  0  0  0  0  0  0  0  0  0  0
   -8.7390   -3.1833    0.0000 H   0  0  0  0  0  0  0  0  0  0  0  0
   -9.7986   -1.5929    0.0000 H   0  0  0  0  0  0  0  0  0  0  0  0
   -8.6844    0.3603    0.0000 H   0  0  0  0  0  0  0  0  0  0  0  0
  -10.2755   -0.5901    0.0000 H   0  0  0  0  0  0  0  0  0  0  0  0
   -9.7543    0.3444    0.0000 H   0  0  0  0  0  0  0  0  0  0  0  0
  -11.3895   -1.7876    0.0000 H   0  0  0  0  0  0  0  0  0  0  0  0
  -11.3895   -3.6408    0.0000 H   0  0  0  0  0  0  0  0  0  0  0  0
  -11.9245   -2.7142    0.0000 H   0  0  0  0  0  0  0  0  0  0  0  0
  -10.4952    2.0720    0.0000 H   0  0  0  0  0  0  0  0  0  0  0  0
  -12.3484    2.0720    0.0000 H   0  0  0  0  0  0  0  0  0  0  0  0
  -11.4218    2.6070    0.0000 H   0  0  0  0  0  0  0  0  0  0  0  0
  -13.6883   -0.5100    0.0000 H   0  0  0  0  0  0  0  0  0  0  0  0
  -11.0759   -2.2579    0.0000 H   0  0  0  0  0  0  0  0  0  0  0  0
   -9.2227   -2.2579    0.0000 H   0  0  0  0  0  0  0  0  0  0  0  0
  -10.1493   -2.7929    0.0000 H   0  0  0  0  0  0  0  0  0  0  0  0
   -3.2593    2.1808    0.0000 H   0  0  0  0  0  0  0  0  0  0  0  0
   -1.3921    3.0110    0.0000 H   0  0  0  0  0  0  0  0  0  0  0  0
   -3.2453    3.0110    0.0000 H   0  0  0  0  0  0  0  0  0  0  0  0
   -2.3187    3.5460    0.0000 H   0  0  0  0  0  0  0  0  0  0  0  0
   -4.5317   -0.7651    0.0000 H   0  0  0  0  0  0  0  0  0  0  0  0
   -2.8400   -1.5222    0.0000 H   0  0  0  0  0  0  0  0  0  0  0  0
   -3.9044   -1.6320    0.0000 H   0  0  0  0  0  0  0  0  0  0  0  0
   -3.1587   -1.3166    0.0000 H   0  0  0  0  0  0  0  0  0  0  0  0
   -1.1129    0.6972    0.0000 H   0  0  0  0  0  0  0  0  0  0  0  0
   -0.3999    2.1612    0.0000 H   0  0  0  0  0  0  0  0  0  0  0  0
    1.4486    2.9633    0.0000 H   0  0  0  0  0  0  0  0  0  0  0  0
   -0.4046    2.9633    0.0000 H   0  0  0  0  0  0  0  0  0  0  0  0
    0.5220    3.4983    0.0000 H   0  0  0  0  0  0  0  0  0  0  0  0
    0.0426    3.1158    0.0000 H   0  0  0  0  0  0  0  0  0  0  0  0
   -1.8106    3.1158    0.0000 H   0  0  0  0  0  0  0  0  0  0  0  0
   -0.8840    3.6508    0.0000 H   0  0  0  0  0  0  0  0  0  0  0  0
   -0.4290   -1.2609    0.0000 H   0  0  0  0  0  0  0  0  0  0  0  0
    3.8466   -1.6049    0.0000 H   0  0  0  0  0  0  0  0  0  0  0  0
    5.6998   -1.6049    0.0000 H   0  0  0  0  0  0  0  0  0  0  0  0
    4.7732   -2.1399    0.0000 H   0  0  0  0  0  0  0  0  0  0  0  0
    8.0488    2.4325    0.0000 H   0  0  0  0  0  0  0  0  0  0  0  0
    8.3695    1.3974    0.0000 H   0  0  0  0  0  0  0  0  0  0  0  0
    4.5685    0.2571    0.0000 H   0  0  0  0  0  0  0  0  0  0  0  0
   11.0781   -0.9654    0.0000 H   0  0  0  0  0  0  0  0  0  0  0  0
   10.0974    3.4562    0.0000 H   0  0  0  0  0  0  0  0  0  0  0  0
   13.2742    3.3848    0.0000 H   0  0  0  0  0  0  0  0  0  0  0  0
   12.9511    0.4471    0.0000 H   0  0  0  0  0  0  0  0  0  0  0  0
   14.0112    1.9673    0.0000 H   0  0  0  0  0  0  0  0  0  0  0  0
   13.9200    0.9012    0.0000 H   0  0  0  0  0  0  0  0  0  0  0  0
   12.5480    4.5649    0.0000 H   0  0  0  0  0  0  0  0  0  0  0  0
    9.4103    2.2384    0.0000 H   0  0  0  0  0  0  0  0  0  0  0  0
    9.8050    1.2390    0.0000 H   0  0  0  0  0  0  0  0  0  0  0  0
    8.8162    0.8783    0.0000 H   0  0  0  0  0  0  0  0  0  0  0  0
   10.6853   -3.4558    0.0000 H   0  0  0  0  0  0  0  0  0  0  0  0
    9.5918   -3.2572    0.0000 H   0  0  0  0  0  0  0  0  0  0  0  0
  1  2  1  1  0  0  0
  1 96  1  0  0  0  0
  3  2  1  0  0  0  0
  3 99  1  6  0  0  0
  4  3  1  0  0  0  0
  4 98  1  0  0  0  0
  4122  1  6  0  0  0
  5  4  1  0  0  0  0
  5  6  1  0  0  0  0
  5123  1  1  0  0  0
  7  6  1  0  0  0  0
  7 92  1  6  0  0  0
  8  7  1  0  0  0  0
  8 90  1  0  0  0  0
  8124  1  6  0  0  0
  9  8  1  0  0  0  0
  9 10  1  0  0  0  0
  9125  1  6  0  0  0
 10126  1  0  0  0  0
 11  9  1  0  0  0  0
 11 12  1  0  0  0  0
 11 17  1  0  0  0  0
 11127  1  1  0  0  0
 12 13  1  0  0  0  0
 12 14  1  0  0  0  0
 12128  1  6  0  0  0
 13  7  1  0  0  0  0
 14129  1  0  0  0  0
 14130  1  0  0  0  0
 15 14  1  0  0  0  0
 16 15  1  0  0  0  0
 16131  1  0  0  0  0
 16132  1  0  0  0  0
 16133  1  0  0  0  0
 18 17  1  0  0  0  0
 18 89  1  6  0  0  0
 19 18  1  0  0  0  0
 19 88  1  0  0  0  0
 19134  1  1  0  0  0
 20 19  1  0  0  0  0
 20 21  1  0  0  0  0
 20135  1  6  0  0  0
 22 21  1  0  0  0  0
 22 81  1  6  0  0  0
 23 22  1  0  0  0  0
 23 80  1  0  0  0  0
 23136  1  6  0  0  0
 24 23  1  0  0  0  0
 24 79  1  6  0  0  0
 25 24  1  0  0  0  0
 26 25  1  6  0  0  0
 27 26  1  0  0  0  0
 28 27  1  0  0  0  0
 28 29  1  0  0  0  0
 28 30  1  0  0  0  0
 28137  1  6  0  0  0
 29138  1  0  0  0  0
 29139  1  0  0  0  0
 29140  1  0  0  0  0
 30 31  1  0  0  0  0
 30 34  1  0  0  0  0
 30141  1  1  0  0  0
 31 32  1  0  0  0  0
 31 33  1  0  0  0  0
 31142  1  6  0  0  0
 32 26  1  0  0  0  0
 32143  1  0  0  0  0
 32144  1  0  0  0  0
 33145  1  0  0  0  0
 35 34  1  0  0  0  0
 35 72  1  6  0  0  0
 36 35  1  0  0  0  0
 37 36  1  0  0  0  0
 37 38  1  0  0  0  0
 37 39  1  0  0  0  0
 37146  1  6  0  0  0
 38147  1  0  0  0  0
 38148  1  0  0  0  0
 38149  1  0  0  0  0
 39 40  1  0  0  0  0
 39 57  1  0  0  0  0
 39150  1  1  0  0  0
 40 41  1  0  0  0  0
 40 42  1  0  0  0  0
 40151  1  6  0  0  0
 41 35  1  0  0  0  0
 41152  1  0  0  0  0
 41153  1  0  0  0  0
 43 42  1  0  0  0  0
 43 56  1  6  0  0  0
 44 43  1  0  0  0  0
 44154  1  0  0  0  0
 44155  1  0  0  0  0
 45 44  1  0  0  0  0
 45 46  1  6  0  0  0
 45 49  1  0  0  0  0
 47 46  1  0  0  0  0
 48 46  2  0  0  0  0
 49156  1  0  0  0  0
 49157  1  0  0  0  0
 49158  1  0  0  0  0
 50 45  1  0  0  0  0
 50 51  1  0  0  0  0
 50 54  1  0  0  0  0
 50159  1  6  0  0  0
 51 52  1  0  0  0  0
 51 53  1  0  0  0  0
 51160  1  1  0  0  0
 52 43  1  0  0  0  0
 53161  1  0  0  0  0
 53162  1  0  0  0  0
 53163  1  0  0  0  0
 55 54  1  0  0  0  0
 55164  1  0  0  0  0
 55165  1  0  0  0  0
 55166  1  0  0  0  0
 58 57  1  0  0  0  0
 59 58  1  0  0  0  0
 60 59  2  0  0  0  0
 61 60  1  0  0  0  0
 62 61  1  0  0  0  0
 63 61  2  0  0  0  0
 63 64  1  0  0  0  0
 64 65  2  0  0  0  0
 65 59  1  0  0  0  0
 66 65  1  0  0  0  0
 66167  1  0  0  0  0
 66168  1  0  0  0  0
 66169  1  0  0  0  0
 67 64  1  0  0  0  0
 68 63  1  0  0  0  0
 68170  1  0  0  0  0
 69 60  1  0  0  0  0
 70 69  1  0  0  0  0
 70171  1  0  0  0  0
 70172  1  0  0  0  0
 70173  1  0  0  0  0
 71 58  2  0  0  0  0
 73 26  1  0  0  0  0
 73 74  1  0  0  0  0
 74 75  1  0  0  0  0
 74 78  1  1  0  0  0
 74 24  1  0  0  0  0
 75 76  1  0  0  0  0
 75 77  1  0  0  0  0
 75174  1  6  0  0  0
 76 22  1  0  0  0  0
 77175  1  0  0  0  0
 77176  1  0  0  0  0
 77177  1  0  0  0  0
 79178  1  0  0  0  0
 79179  1  0  0  0  0
 79180  1  0  0  0  0
 80181  1  0  0  0  0
 82 20  1  0  0  0  0
 82 83  1  0  0  0  0
 82 86  1  0  0  0  0
 82182  1  6  0  0  0
 83 84  1  0  0  0  0
 83 85  1  0  0  0  0
 83183  1  6  0  0  0
 84 18  1  0  0  0  0
 85184  1  0  0  0  0
 85185  1  0  0  0  0
 85186  1  0  0  0  0
 87 86  1  0  0  0  0
 87187  1  0  0  0  0
 87188  1  0  0  0  0
 87189  1  0  0  0  0
 88190  1  0  0  0  0
 91 90  1  0  0  0  0
 91191  1  0  0  0  0
 91192  1  0  0  0  0
 91193  1  0  0  0  0
 93  5  1  0  0  0  0
 93 94  1  0  0  0  0
 94 95  1  0  0  0  0
 94194  1  0  0  0  0
 94195  1  0  0  0  0
 95 96  1  0  0  0  0
 95 97  1  1  0  0  0
 95  3  1  0  0  0  0
 98196  1  0  0  0  0
100  1  1  0  0  0  0
100121  1  6  0  0  0
101100  1  0  0  0  0
101120  1  1  0  0  0
102101  1  0  0  0  0
102103  1  0  0  0  0
102197  1  6  0  0  0
104103  1  0  0  0  0
105104  1  0  0  0  0
106105  2  0  0  0  0
107106  1  0  0  0  0
107198  1  0  0  0  0
108107  2  0  0  0  0
108109  1  0  0  0  0
109110  2  0  0  0  0
109199  1  0  0  0  0
110105  1  0  0  0  0
111110  1  0  0  0  0
111200  1  0  0  0  0
111201  1  0  0  0  0
111202  1  0  0  0  0
112108  1  0  0  0  0
112203  1  0  0  0  0
113106  1  0  0  0  0
113204  1  0  0  0  0
114104  2  0  0  0  0
115102  1  0  0  0  0
115116  1  0  0  0  0
115205  1  0  0  0  0
115206  1  0  0  0  0
116  1  1  0  0  0  0
117101  1  0  0  0  0
118117  1  0  0  0  0
118119  1  0  0  0  0
118207  1  0  0  0  0
118208  1  0  0  0  0
119100  1  0  0  0  0
M  CHG  2  46   1  47  -1
M  END
>  <DRUGBANK_ID>
DB06431

>  <COMMON_NAME>
Evernimicin

>  <CAS_NUMBER>
109545-84-8

>  <UNII>
5X287491KH

>  <SYNONYMS>
Evernimicin

$$$$
