
 OpenBabel10282417072D

 43 42  0  0  1  0  0  0  0  0999 V2000
   -1.6500   -1.4289    0.0000 C   0  0  0  0  0  0  0  0  0  0  0  0
    2.0625   -2.1434    0.0000 C   0  0  0  0  0  0  0  0  0  0  0  0
    1.2375   -2.1434    0.0000 C   0  0  0  0  0  0  0  0  0  0  0  0
    2.4750   -2.8579    0.0000 C   0  0  0  0  0  0  0  0  0  0  0  0
    0.8250   -1.4289    0.0000 C   0  0  0  0  0  0  0  0  0  0  0  0
    3.7125   -5.0013    0.0000 C   0  0  0  0  0  0  0  0  0  0  0  0
   -1.2375   -0.7145    0.0000 C   0  0  1  0  0  0  0  0  0  0  0  0
    3.3000   -2.8579    0.0000 C   0  0  1  0  0  0  0  0  0  0  0  0
    0.0000   -1.4289    0.0000 C   0  0  0  0  0  0  0  0  0  0  0  0
    3.3000   -4.2868    0.0000 C   0  0  0  0  0  0  0  0  0  0  0  0
    3.7125   -2.1434    0.0000 C   0  0  0  0  0  0  0  0  0  0  0  0
    3.3000   -5.7158    0.0000 N   0  0  0  0  0  0  0  0  0  0  0  0
   -0.4125   -0.7145    0.0000 N   0  0  0  0  0  0  0  0  0  0  0  0
    3.7125   -3.5724    0.0000 N   0  0  0  0  0  0  0  0  0  0  0  0
   -0.4125   -2.1434    0.0000 O   0  5  0  0  0  0  0  0  0  0  0  0
    2.4750   -4.2868    0.0000 O   0  0  0  0  0  0  0  0  0  0  0  0
    3.3000   -1.4289    0.0000 O   0  0  0  0  0  0  0  0  0  0  0  0
    4.5375   -2.1434    0.0000 O   0  0  0  0  0  0  0  0  0  0  0  0
   -2.0625    0.7145    0.0000 O   0  0  0  0  0  0  0  0  0  0  0  0
   -0.9355    0.4125    0.0000 O   0  0  0  0  0  0  0  0  0  0  0  0
   -2.3645   -0.4125    0.0000 O   0  0  0  0  0  0  0  0  0  0  0  0
   -1.6500    0.0000    0.0000 P   0  0  0  0  0  0  0  0  0  0  0  0
   -0.8250   -1.4289    0.0000 H   0  0  0  0  0  0  0  0  0  0  0  0
    2.8875   -2.1434    0.0000 H   0  0  0  0  0  0  0  0  0  0  0  0
   -2.7200   -1.4289    0.0000 H   0  0  0  0  0  0  0  0  0  0  0  0
   -1.1150   -2.3556    0.0000 H   0  0  0  0  0  0  0  0  0  0  0  0
   -2.1850   -2.3555    0.0000 H   0  0  0  0  0  0  0  0  0  0  0  0
    2.5975   -1.2168    0.0000 H   0  0  0  0  0  0  0  0  0  0  0  0
    3.1325   -2.1434    0.0000 H   0  0  0  0  0  0  0  0  0  0  0  0
    0.7025   -3.0700    0.0000 H   0  0  0  0  0  0  0  0  0  0  0  0
    0.1675   -2.1434    0.0000 H   0  0  0  0  0  0  0  0  0  0  0  0
    1.9400   -3.7845    0.0000 H   0  0  0  0  0  0  0  0  0  0  0  0
    3.0100   -3.7845    0.0000 H   0  0  0  0  0  0  0  0  0  0  0  0
    1.3600   -0.5023    0.0000 H   0  0  0  0  0  0  0  0  0  0  0  0
    0.2900   -0.5023    0.0000 H   0  0  0  0  0  0  0  0  0  0  0  0
    4.7825   -5.0013    0.0000 H   0  0  0  0  0  0  0  0  0  0  0  0
    4.2475   -5.9279    0.0000 H   0  0  0  0  0  0  0  0  0  0  0  0
    2.2800   -5.7158    0.0000 H   0  0  0  0  0  0  0  0  0  0  0  0
    3.8100   -6.5991    0.0000 H   0  0  0  0  0  0  0  0  0  0  0  0
    2.0065   -3.4753    0.0000 H   0  0  0  0  0  0  0  0  0  0  0  0
    5.0060   -2.9549    0.0000 H   0  0  0  0  0  0  0  0  0  0  0  0
   -1.5775    1.5545    0.0000 H   0  0  0  0  0  0  0  0  0  0  0  0
   -0.0955   -0.0725    0.0000 H   0  0  0  0  0  0  0  0  0  0  0  0
  1 25  1  0  0  0  0
  1 26  1  0  0  0  0
  1 27  1  0  0  0  0
  2 28  1  0  0  0  0
  2 29  1  0  0  0  0
  3  2  1  0  0  0  0
  3 30  1  0  0  0  0
  3 31  1  0  0  0  0
  4  2  1  0  0  0  0
  4 32  1  0  0  0  0
  4 33  1  0  0  0  0
  5  3  1  0  0  0  0
  5 34  1  0  0  0  0
  5 35  1  0  0  0  0
  6 36  1  0  0  0  0
  6 37  1  0  0  0  0
  7  1  1  0  0  0  0
  7 23  1  1  0  0  0
  8  4  1  0  0  0  0
  8 14  1  0  0  0  0
  8 24  1  6  0  0  0
  9  5  1  0  0  0  0
  9 15  1  0  0  0  0
 10  6  1  0  0  0  0
 10 16  1  0  0  0  0
 11  8  1  0  0  0  0
 12  6  1  0  0  0  0
 12 38  1  0  0  0  0
 12 39  1  0  0  0  0
 13  7  1  0  0  0  0
 13  9  2  3  0  0  0
 14 10  2  3  0  0  0
 16 40  1  0  0  0  0
 17 11  2  0  0  0  0
 18 11  1  0  0  0  0
 18 41  1  0  0  0  0
 19 42  1  0  0  0  0
 20 43  1  0  0  0  0
 22  7  1  0  0  0  0
 22 19  1  0  0  0  0
 22 20  1  0  0  0  0
 22 21  2  0  0  0  0
M  CHG  1  15  -1
M  END
>  <DRUGBANK_ID>
DB01868

>  <SECONDARY_ACCESSION_NUMBERS>
EXPT02767

>  <COMMON_NAME>
Glycyl-L-a-Aminopimelyl-E-(D-2-Aminoethyl)Phosphonate

$$$$
