
 OpenBabel10282417072D

  9  8  0  0  0  0  0  0  0  0999 V2000
    1.2375    2.1434    0.0000 O   0  5  0  0  0  0  0  0  0  0  0  0
    0.8250    1.4289    0.0000 C   0  0  0  0  0  0  0  0  0  0  0  0
    0.0000    1.4289    0.0000 O   0  0  0  0  0  0  0  0  0  0  0  0
    1.2375    0.7145    0.0000 C   0  0  0  0  0  0  0  0  0  0  0  0
    0.8250    0.0000    0.0000 C   0  0  0  0  0  0  0  0  0  0  0  0
    1.2375   -0.7145    0.0000 O   0  5  0  0  0  0  0  0  0  0  0  0
    0.0000    0.0000    0.0000 O   0  0  0  0  0  0  0  0  0  0  0  0
    2.3075    0.7145    0.0000 H   0  0  0  0  0  0  0  0  0  0  0  0
    1.7725   -0.2121    0.0000 H   0  0  0  0  0  0  0  0  0  0  0  0
  1  2  1  0  0  0  0
  2  3  2  0  0  0  0
  2  4  1  0  0  0  0
  4  5  1  0  0  0  0
  4  8  1  0  0  0  0
  4  9  1  0  0  0  0
  5  6  1  0  0  0  0
  5  7  2  0  0  0  0
M  CHG  2   1  -1   6  -1
M  END
>  <DRUGBANK_ID>
DB02201

>  <SECONDARY_ACCESSION_NUMBERS>
EXPT02183

>  <COMMON_NAME>
Malonate Ion

>  <UNII>
4N2NU7R76L

$$$$
