
 OpenBabel10282417072D

 40 42  0  0  0  0  0  0  0  0999 V2000
    3.5563   -1.1273    0.0000 Cl  0  0  0  0  0  0  0  0  0  0  0  0
    2.8450   -0.7148    0.0000 C   0  0  0  0  0  0  0  0  0  0  0  0
    2.1267   -1.1273    0.0000 C   0  0  0  0  0  0  0  0  0  0  0  0
    1.4154   -0.7077    0.0000 C   0  0  0  0  0  0  0  0  0  0  0  0
    0.7041   -1.1202    0.0000 O   0  0  0  0  0  0  0  0  0  0  0  0
   -0.0071   -0.7077    0.0000 C   0  0  0  0  0  0  0  0  0  0  0  0
   -0.7254   -1.1202    0.0000 C   0  0  0  0  0  0  0  0  0  0  0  0
   -0.7254   -1.9381    0.0000 C   0  0  0  0  0  0  0  0  0  0  0  0
    0.0996   -1.9381    0.0000 F   0  0  0  0  0  0  0  0  0  0  0  0
   -1.5434   -1.9381    0.0000 F   0  0  0  0  0  0  0  0  0  0  0  0
   -0.7254   -2.7632    0.0000 F   0  0  0  0  0  0  0  0  0  0  0  0
   -1.4367   -0.7077    0.0000 C   0  0  0  0  0  0  0  0  0  0  0  0
   -1.4367    0.1173    0.0000 C   0  0  0  0  0  0  0  0  0  0  0  0
   -0.7254    0.5370    0.0000 N   0  0  0  0  0  0  0  0  0  0  0  0
   -0.7254    1.3621    0.0000 C   0  0  0  0  0  0  0  0  0  0  0  0
   -1.4367    1.7746    0.0000 C   0  0  0  0  0  0  0  0  0  0  0  0
   -1.5220    2.5925    0.0000 N   0  0  0  0  0  0  0  0  0  0  0  0
   -2.3329    2.7632    0.0000 N   0  0  0  0  0  0  0  0  0  0  0  0
   -2.7383    2.0519    0.0000 C   0  0  0  0  0  0  0  0  0  0  0  0
   -2.1907    1.4331    0.0000 N   0  0  0  0  0  0  0  0  0  0  0  0
   -2.3614    0.6294    0.0000 C   0  0  0  0  0  0  0  0  0  0  0  0
   -3.5563    1.9595    0.0000 O   0  0  0  0  0  0  0  0  0  0  0  0
   -0.0071    0.1173    0.0000 C   0  0  0  0  0  0  0  0  0  0  0  0
    0.7041    0.5299    0.0000 O   0  0  0  0  0  0  0  0  0  0  0  0
    1.4154    0.1102    0.0000 C   0  0  0  0  0  0  0  0  0  0  0  0
    2.1338    0.5227    0.0000 C   0  0  0  0  0  0  0  0  0  0  0  0
    2.1338    1.3478    0.0000 C   0  0  0  0  0  0  0  0  0  0  0  0
    2.1338    2.1729    0.0000 N   0  0  0  0  0  0  0  0  0  0  0  0
    2.8450    0.1173    0.0000 C   0  0  0  0  0  0  0  0  0  0  0  0
    2.1207   -2.1593    0.0000 H   0  0  0  0  0  0  0  0  0  0  0  0
   -2.3309   -1.2228    0.0000 H   0  0  0  0  0  0  0  0  0  0  0  0
   -2.3329    0.6291    0.0000 H   0  0  0  0  0  0  0  0  0  0  0  0
    0.2018    1.8962    0.0000 H   0  0  0  0  0  0  0  0  0  0  0  0
   -0.7239    2.4321    0.0000 H   0  0  0  0  0  0  0  0  0  0  0  0
   -2.7367    3.6611    0.0000 H   0  0  0  0  0  0  0  0  0  0  0  0
   -3.3790    0.2986    0.0000 H   0  0  0  0  0  0  0  0  0  0  0  0
   -1.5661   -0.0864    0.0000 H   0  0  0  0  0  0  0  0  0  0  0  0
   -2.5837   -0.4173    0.0000 H   0  0  0  0  0  0  0  0  0  0  0  0
    0.5223    0.6273    0.0000 H   0  0  0  0  0  0  0  0  0  0  0  0
    3.7373    0.6358    0.0000 H   0  0  0  0  0  0  0  0  0  0  0  0
  1  2  1  0  0  0  0
  2  3  2  0  0  0  0
  2 29  1  0  0  0  0
  3  4  1  0  0  0  0
  3 30  1  0  0  0  0
  4  5  1  0  0  0  0
  4 25  2  0  0  0  0
  5  6  1  0  0  0  0
  6  7  2  0  0  0  0
  6 23  1  0  0  0  0
  7  8  1  0  0  0  0
  7 12  1  0  0  0  0
  8  9  1  0  0  0  0
  8 10  1  0  0  0  0
  8 11  1  0  0  0  0
 12 13  2  0  0  0  0
 12 31  1  0  0  0  0
 13 14  1  0  0  0  0
 13 32  1  0  0  0  0
 14 15  1  0  0  0  0
 14 23  1  0  0  0  0
 15 16  1  0  0  0  0
 15 33  1  0  0  0  0
 15 34  1  0  0  0  0
 16 17  2  0  0  0  0
 16 20  1  0  0  0  0
 17 18  1  0  0  0  0
 18 19  1  0  0  0  0
 18 35  1  0  0  0  0
 19 20  1  0  0  0  0
 19 22  2  0  0  0  0
 20 21  1  0  0  0  0
 21 36  1  0  0  0  0
 21 37  1  0  0  0  0
 21 38  1  0  0  0  0
 23 24  2  0  0  0  0
 25 26  1  0  0  0  0
 25 39  1  0  0  0  0
 26 27  1  0  0  0  0
 26 29  2  0  0  0  0
 27 28  3  0  0  0  0
 29 40  1  0  0  0  0
M  END
>  <DRUGBANK_ID>
DB12301

>  <COMMON_NAME>
Doravirine

>  <CAS_NUMBER>
1338225-97-0

>  <UNII>
913P6LK81M

>  <SYNONYMS>
Doravirine; Doravirinum

$$$$
