A84
 OpenBabel10282417072D

 55 57  0  0  0  0  0  0  0  0999 V2000
   -3.0990   -0.8921    0.0000 C   0  0  0  0  0  0  0  0  0  0  0  0
   -2.3846   -1.3046    0.0000 C   0  0  0  0  0  0  0  0  0  0  0  0
   -1.6701   -0.8921    0.0000 C   0  0  0  0  0  0  0  0  0  0  0  0
   -1.6701   -0.0671    0.0000 C   0  0  0  0  0  0  0  0  0  0  0  0
   -2.3846    0.3454    0.0000 C   0  0  0  0  0  0  0  0  0  0  0  0
   -3.0990   -0.0671    0.0000 C   0  0  0  0  0  0  0  0  0  0  0  0
   -0.9556   -1.3046    0.0000 C   0  0  0  0  0  0  0  0  0  0  0  0
   -0.2411   -0.8921    0.0000 C   0  0  0  0  0  0  0  0  0  0  0  0
   -0.2411   -0.0671    0.0000 C   0  0  0  0  0  0  0  0  0  0  0  0
   -0.9556    0.3454    0.0000 C   0  0  0  0  0  0  0  0  0  0  0  0
   -0.9556    1.1704    0.0000 C   0  0  0  0  0  0  0  0  0  0  0  0
   -0.2411    1.5829    0.0000 O   0  0  0  0  0  0  0  0  0  0  0  0
   -1.6701    1.5829    0.0000 O   0  0  0  0  0  0  0  0  0  0  0  0
    0.4733    0.3454    0.0000 N   0  0  0  0  0  0  0  0  0  0  0  0
    1.1878   -0.0671    0.0000 S   0  0  0  0  0  0  0  0  0  0  0  0
    0.7753   -0.7815    0.0000 O   0  0  0  0  0  0  0  0  0  0  0  0
    1.6003    0.6474    0.0000 O   0  0  0  0  0  0  0  0  0  0  0  0
    1.9023   -0.4796    0.0000 C   0  0  0  0  0  0  0  0  0  0  0  0
    2.6167   -0.0671    0.0000 C   0  0  0  0  0  0  0  0  0  0  0  0
    3.3312   -0.4796    0.0000 C   0  0  0  0  0  0  0  0  0  0  0  0
    3.3312   -1.3046    0.0000 C   0  0  0  0  0  0  0  0  0  0  0  0
    2.6167   -1.7171    0.0000 C   0  0  0  0  0  0  0  0  0  0  0  0
    1.9023   -1.3046    0.0000 C   0  0  0  0  0  0  0  0  0  0  0  0
    4.0457   -1.7171    0.0000 F   0  0  0  0  0  0  0  0  0  0  0  0
    2.6167    0.7579    0.0000 C   0  0  0  0  0  0  0  0  0  0  0  0
    1.9023    1.1704    0.0000 C   0  0  0  0  0  0  0  0  0  0  0  0
    1.1878    0.7579    0.0000 C   0  0  0  0  0  0  0  0  0  0  0  0
    0.4733    1.1704    0.0000 N   0  0  0  0  0  0  0  0  0  0  0  0
   -0.2411    0.7579    0.0000 C   0  0  0  0  0  0  0  0  0  0  0  0
    0.4733    1.9954    0.0000 C   0  0  0  0  0  0  0  0  0  0  0  0
   -4.0257   -1.4271    0.0000 H   0  0  0  0  0  0  0  0  0  0  0  0
   -4.0256   -0.3571    0.0000 H   0  0  0  0  0  0  0  0  0  0  0  0
   -2.3846   -2.3746    0.0000 H   0  0  0  0  0  0  0  0  0  0  0  0
   -1.4580   -1.8396    0.0000 H   0  0  0  0  0  0  0  0  0  0  0  0
   -2.3846    1.4154    0.0000 H   0  0  0  0  0  0  0  0  0  0  0  0
   -3.3113    0.8804    0.0000 H   0  0  0  0  0  0  0  0  0  0  0  0
   -4.0257    0.4679    0.0000 H   0  0  0  0  0  0  0  0  0  0  0  0
   -3.0990    1.0029    0.0000 H   0  0  0  0  0  0  0  0  0  0  0  0
   -0.9556   -2.3366    0.0000 H   0  0  0  0  0  0  0  0  0  0  0  0
    0.6526   -1.4081    0.0000 H   0  0  0  0  0  0  0  0  0  0  0  0
   -1.6701    2.5199    0.0000 H   0  0  0  0  0  0  0  0  0  0  0  0
    0.4733    1.3299    0.0000 H   0  0  0  0  0  0  0  0  0  0  0  0
    4.2249    0.0364    0.0000 H   0  0  0  0  0  0  0  0  0  0  0  0
    2.6167   -2.7491    0.0000 H   0  0  0  0  0  0  0  0  0  0  0  0
    1.0086   -1.8206    0.0000 H   0  0  0  0  0  0  0  0  0  0  0  0
    3.5104    1.2739    0.0000 H   0  0  0  0  0  0  0  0  0  0  0  0
    1.9023    2.2024    0.0000 H   0  0  0  0  0  0  0  0  0  0  0  0
    1.1878   -0.3121    0.0000 H   0  0  0  0  0  0  0  0  0  0  0  0
    0.2612    0.2229    0.0000 H   0  0  0  0  0  0  0  0  0  0  0  0
   -1.1678    1.2929    0.0000 H   0  0  0  0  0  0  0  0  0  0  0  0
   -0.2411   -0.3121    0.0000 H   0  0  0  0  0  0  0  0  0  0  0  0
   -1.1677    0.2229    0.0000 H   0  0  0  0  0  0  0  0  0  0  0  0
    1.3999    2.5304    0.0000 H   0  0  0  0  0  0  0  0  0  0  0  0
   -0.4533    2.5304    0.0000 H   0  0  0  0  0  0  0  0  0  0  0  0
    0.4733    3.0654    0.0000 H   0  0  0  0  0  0  0  0  0  0  0  0
  1  2  1  0  0  0  0
  1  6  1  0  0  0  0
  1 31  1  0  0  0  0
  1 32  1  0  0  0  0
  2  3  1  0  0  0  0
  2 33  1  0  0  0  0
  2 34  1  0  0  0  0
  3  4  1  0  0  0  0
  3  7  2  0  0  0  0
  4  5  1  0  0  0  0
  4 10  2  0  0  0  0
  5  6  1  0  0  0  0
  5 35  1  0  0  0  0
  5 36  1  0  0  0  0
  6 37  1  0  0  0  0
  6 38  1  0  0  0  0
  7  8  1  0  0  0  0
  7 39  1  0  0  0  0
  8  9  2  0  0  0  0
  8 40  1  0  0  0  0
  9 10  1  0  0  0  0
  9 14  1  0  0  0  0
 10 11  1  0  0  0  0
 11 12  2  0  0  0  0
 11 13  1  0  0  0  0
 13 41  1  0  0  0  0
 14 15  1  0  0  0  0
 14 42  1  0  0  0  0
 15 16  2  0  0  0  0
 15 17  2  0  0  0  0
 15 18  1  0  0  0  0
 18 19  1  0  0  0  0
 18 23  2  0  0  0  0
 19 20  2  0  0  0  0
 19 25  1  0  0  0  0
 20 21  1  0  0  0  0
 20 43  1  0  0  0  0
 21 22  2  0  0  0  0
 21 24  1  0  0  0  0
 22 23  1  0  0  0  0
 22 44  1  0  0  0  0
 23 45  1  0  0  0  0
 25 26  2  0  0  0  0
 25 46  1  0  0  0  0
 26 27  1  0  0  0  0
 26 47  1  0  0  0  0
 27 28  1  0  0  0  0
 27 48  1  0  0  0  0
 27 49  1  0  0  0  0
 28 29  1  0  0  0  0
 28 30  1  0  0  0  0
 29 50  1  0  0  0  0
 29 51  1  0  0  0  0
 29 52  1  0  0  0  0
 30 53  1  0  0  0  0
 30 54  1  0  0  0  0
 30 55  1  0  0  0  0
M  END
>  <DRUGBANK_ID>
DB07323

>  <COMMON_NAME>
2-[({2-[(1Z)-3-(DIMETHYLAMINO)PROP-1-ENYL]-4-FLUOROPHENYL}SULFONYL)AMINO]-5,6,7,8-TETRAHYDRONAPHTHALENE-1-CARBOXYLIC ACID

$$$$
