B78
 OpenBabel10282417072D

 32 33  0  0  0  0  0  0  0  0999 V2000
   -1.0636    0.8282    0.0000 C   0  0  0  0  0  0  0  0  0  0  0  0
   -1.0636    0.0032    0.0000 C   0  0  0  0  0  0  0  0  0  0  0  0
   -0.3491   -0.4093    0.0000 C   0  0  0  0  0  0  0  0  0  0  0  0
   -0.3491   -1.2343    0.0000 C   0  0  0  0  0  0  0  0  0  0  0  0
   -1.0636   -1.6468    0.0000 C   0  0  0  0  0  0  0  0  0  0  0  0
   -1.7781   -1.2343    0.0000 C   0  0  0  0  0  0  0  0  0  0  0  0
   -1.7781   -0.4093    0.0000 C   0  0  0  0  0  0  0  0  0  0  0  0
   -1.0636   -2.4718    0.0000 O   0  0  0  0  0  0  0  0  0  0  0  0
   -1.7781   -2.8843    0.0000 C   0  0  0  0  0  0  0  0  0  0  0  0
    0.3654    0.0032    0.0000 O   0  0  0  0  0  0  0  0  0  0  0  0
    0.3654    0.8282    0.0000 C   0  0  0  0  0  0  0  0  0  0  0  0
    1.0798    1.2407    0.0000 C   0  0  0  0  0  0  0  0  0  0  0  0
    1.0798    2.0657    0.0000 C   0  0  0  0  0  0  0  0  0  0  0  0
    1.7943    2.4782    0.0000 C   0  0  0  0  0  0  0  0  0  0  0  0
    2.5088    2.0657    0.0000 N   0  0  0  0  0  0  0  0  0  0  0  0
    2.5088    1.2407    0.0000 C   0  0  0  0  0  0  0  0  0  0  0  0
    1.7943    0.8282    0.0000 C   0  0  0  0  0  0  0  0  0  0  0  0
   -0.1370    1.3632    0.0000 H   0  0  0  0  0  0  0  0  0  0  0  0
   -1.9902    1.3632    0.0000 H   0  0  0  0  0  0  0  0  0  0  0  0
   -1.0636    1.8982    0.0000 H   0  0  0  0  0  0  0  0  0  0  0  0
    0.5446   -1.7503    0.0000 H   0  0  0  0  0  0  0  0  0  0  0  0
   -2.6718   -1.7503    0.0000 H   0  0  0  0  0  0  0  0  0  0  0  0
   -2.6718    0.1067    0.0000 H   0  0  0  0  0  0  0  0  0  0  0  0
   -2.7047   -2.3493    0.0000 H   0  0  0  0  0  0  0  0  0  0  0  0
   -1.7781   -3.9543    0.0000 H   0  0  0  0  0  0  0  0  0  0  0  0
   -2.7048   -3.4193    0.0000 H   0  0  0  0  0  0  0  0  0  0  0  0
   -0.5613    1.3632    0.0000 H   0  0  0  0  0  0  0  0  0  0  0  0
    0.3654    1.8982    0.0000 H   0  0  0  0  0  0  0  0  0  0  0  0
    0.1861    2.5817    0.0000 H   0  0  0  0  0  0  0  0  0  0  0  0
    1.7943    3.5102    0.0000 H   0  0  0  0  0  0  0  0  0  0  0  0
    3.4025    0.7247    0.0000 H   0  0  0  0  0  0  0  0  0  0  0  0
    1.7943   -0.2038    0.0000 H   0  0  0  0  0  0  0  0  0  0  0  0
  1  2  1  0  0  0  0
  1 18  1  0  0  0  0
  1 19  1  0  0  0  0
  1 20  1  0  0  0  0
  2  3  2  0  0  0  0
  2  7  1  0  0  0  0
  3  4  1  0  0  0  0
  3 10  1  0  0  0  0
  4  5  2  0  0  0  0
  4 21  1  0  0  0  0
  5  6  1  0  0  0  0
  5  8  1  0  0  0  0
  6  7  2  0  0  0  0
  6 22  1  0  0  0  0
  7 23  1  0  0  0  0
  8  9  1  0  0  0  0
  9 24  1  0  0  0  0
  9 25  1  0  0  0  0
  9 26  1  0  0  0  0
 10 11  1  0  0  0  0
 11 12  1  0  0  0  0
 11 27  1  0  0  0  0
 11 28  1  0  0  0  0
 12 13  2  0  0  0  0
 12 17  1  0  0  0  0
 13 14  1  0  0  0  0
 13 29  1  0  0  0  0
 14 15  2  0  0  0  0
 14 30  1  0  0  0  0
 15 16  1  0  0  0  0
 16 17  2  0  0  0  0
 16 31  1  0  0  0  0
 17 32  1  0  0  0  0
M  END
>  <DRUGBANK_ID>
DB07428

>  <COMMON_NAME>
4-[(5-methoxy-2-methylphenoxy)methyl]pyridine

$$$$
