
 OpenBabel10282417072D

 48 51  0  0  0  0  0  0  0  0999 V2000
   -0.8358    1.1971    0.0000 C   0  0  0  0  0  0  0  0  0  0  0  0
   -0.5003    0.4434    0.0000 C   0  0  0  0  0  0  0  0  0  0  0  0
    0.3066    0.2719    0.0000 C   0  0  0  0  0  0  0  0  0  0  0  0
    0.3928   -0.5485    0.0000 C   0  0  0  0  0  0  0  0  0  0  0  0
    1.1073   -0.9610    0.0000 O   0  0  0  0  0  0  0  0  0  0  0  0
    1.8218   -0.5485    0.0000 C   0  0  0  0  0  0  0  0  0  0  0  0
    2.5362   -0.9610    0.0000 C   0  0  0  0  0  0  0  0  0  0  0  0
    3.2507   -0.5485    0.0000 N   0  0  0  0  0  0  0  0  0  0  0  0
    3.9652   -0.9610    0.0000 C   0  0  0  0  0  0  0  0  0  0  0  0
    4.6796   -0.5485    0.0000 C   0  0  0  0  0  0  0  0  0  0  0  0
    4.6796    0.2764    0.0000 O   0  0  0  0  0  0  0  0  0  0  0  0
    3.9652    0.6889    0.0000 C   0  0  0  0  0  0  0  0  0  0  0  0
    3.2507    0.2764    0.0000 C   0  0  0  0  0  0  0  0  0  0  0  0
   -0.3608   -0.8840    0.0000 N   0  0  0  0  0  0  0  0  0  0  0  0
   -0.9128   -0.2710    0.0000 N   0  0  0  0  0  0  0  0  0  0  0  0
   -1.7333   -0.3572    0.0000 C   0  0  0  0  0  0  0  0  0  0  0  0
   -2.0688   -1.1108    0.0000 C   0  0  0  0  0  0  0  0  0  0  0  0
   -2.8893   -1.1971    0.0000 C   0  0  0  0  0  0  0  0  0  0  0  0
   -3.3742   -0.5297    0.0000 C   0  0  0  0  0  0  0  0  0  0  0  0
   -4.1947   -0.6159    0.0000 C   0  0  0  0  0  0  0  0  0  0  0  0
   -4.6796    0.0514    0.0000 C   0  0  0  0  0  0  0  0  0  0  0  0
   -4.3440    0.8051    0.0000 C   0  0  0  0  0  0  0  0  0  0  0  0
   -3.5236    0.8914    0.0000 C   0  0  0  0  0  0  0  0  0  0  0  0
   -3.0387    0.2239    0.0000 C   0  0  0  0  0  0  0  0  0  0  0  0
   -2.2182    0.3102    0.0000 C   0  0  0  0  0  0  0  0  0  0  0  0
   -0.2068    2.0627    0.0000 H   0  0  0  0  0  0  0  0  0  0  0  0
   -1.8999    1.3090    0.0000 H   0  0  0  0  0  0  0  0  0  0  0  0
   -1.2709    2.1746    0.0000 H   0  0  0  0  0  0  0  0  0  0  0  0
    1.0735    0.9624    0.0000 H   0  0  0  0  0  0  0  0  0  0  0  0
    1.8218    0.5215    0.0000 H   0  0  0  0  0  0  0  0  0  0  0  0
    2.7485   -0.0135    0.0000 H   0  0  0  0  0  0  0  0  0  0  0  0
    2.5362   -2.0310    0.0000 H   0  0  0  0  0  0  0  0  0  0  0  0
    3.4628   -1.4960    0.0000 H   0  0  0  0  0  0  0  0  0  0  0  0
    3.9652   -2.0310    0.0000 H   0  0  0  0  0  0  0  0  0  0  0  0
    4.8919   -1.4960    0.0000 H   0  0  0  0  0  0  0  0  0  0  0  0
    5.6063   -1.0835    0.0000 H   0  0  0  0  0  0  0  0  0  0  0  0
    5.6062   -0.0135    0.0000 H   0  0  0  0  0  0  0  0  0  0  0  0
    3.9652    1.7589    0.0000 H   0  0  0  0  0  0  0  0  0  0  0  0
    3.0386    1.2239    0.0000 H   0  0  0  0  0  0  0  0  0  0  0  0
    2.3241    0.8114    0.0000 H   0  0  0  0  0  0  0  0  0  0  0  0
    2.3241   -0.2586    0.0000 H   0  0  0  0  0  0  0  0  0  0  0  0
   -1.4622   -1.9457    0.0000 H   0  0  0  0  0  0  0  0  0  0  0  0
   -3.3090   -2.1399    0.0000 H   0  0  0  0  0  0  0  0  0  0  0  0
   -4.6144   -1.5587    0.0000 H   0  0  0  0  0  0  0  0  0  0  0  0
   -5.7059   -0.0565    0.0000 H   0  0  0  0  0  0  0  0  0  0  0  0
   -4.9506    1.6400    0.0000 H   0  0  0  0  0  0  0  0  0  0  0  0
   -3.1039    1.8342    0.0000 H   0  0  0  0  0  0  0  0  0  0  0  0
   -1.7985    1.2530    0.0000 H   0  0  0  0  0  0  0  0  0  0  0  0
  1  2  1  0  0  0  0
  1 26  1  0  0  0  0
  1 27  1  0  0  0  0
  1 28  1  0  0  0  0
  2  3  2  0  0  0  0
  2 15  1  0  0  0  0
  3  4  1  0  0  0  0
  3 29  1  0  0  0  0
  4  5  1  0  0  0  0
  5  6  1  0  0  0  0
  6  7  1  0  0  0  0
  6 30  1  0  0  0  0
  6 31  1  0  0  0  0
  7  8  1  0  0  0  0
  7 32  1  0  0  0  0
  7 33  1  0  0  0  0
  8  9  1  0  0  0  0
  8 13  1  0  0  0  0
  9 10  1  0  0  0  0
  9 34  1  0  0  0  0
  9 35  1  0  0  0  0
 10 11  1  0  0  0  0
 10 36  1  0  0  0  0
 10 37  1  0  0  0  0
 12 11  1  0  0  0  0
 12 38  1  0  0  0  0
 12 39  1  0  0  0  0
 13 12  1  0  0  0  0
 13 40  1  0  0  0  0
 13 41  1  0  0  0  0
 14  4  2  0  0  0  0
 15 14  1  0  0  0  0
 15 16  1  0  0  0  0
 16 17  1  0  0  0  0
 16 25  2  0  0  0  0
 17 18  2  0  0  0  0
 17 42  1  0  0  0  0
 18 19  1  0  0  0  0
 18 43  1  0  0  0  0
 19 20  1  0  0  0  0
 20 21  2  0  0  0  0
 20 44  1  0  0  0  0
 21 45  1  0  0  0  0
 22 21  1  0  0  0  0
 22 46  1  0  0  0  0
 23 22  2  0  0  0  0
 23 47  1  0  0  0  0
 24 23  1  0  0  0  0
 24 19  2  0  0  0  0
 25 24  1  0  0  0  0
 25 48  1  0  0  0  0
M  END
>  <DRUGBANK_ID>
DB16881

>  <COMMON_NAME>
E-52862

>  <CAS_NUMBER>
878141-96-9

>  <UNII>
ZW18DSD1H4

$$$$
