
 OpenBabel10282417072D

 46 45  0  0  0  0  0  0  0  0999 V2000
    0.0000    0.0000    0.0000 Cl  0  0  0  0  0  0  0  0  0  0  0  0
    2.0036    0.0000    0.0000 Cl  0  0  0  0  0  0  0  0  0  0  0  0
   -4.2868   -3.3000    0.0000 C   0  0  0  0  0  0  0  0  0  0  0  0
   -3.5724   -2.8875    0.0000 C   0  0  0  0  0  0  0  0  0  0  0  0
   -2.8579   -3.3000    0.0000 N   0  0  0  0  0  0  0  0  0  0  0  0
   -2.8579   -4.1250    0.0000 C   0  0  0  0  0  0  0  0  0  0  0  0
   -3.5724   -4.5375    0.0000 C   0  0  0  0  0  0  0  0  0  0  0  0
   -2.1434   -2.8875    0.0000 C   0  0  0  0  0  0  0  0  0  0  0  0
   -1.4289   -3.3000    0.0000 C   0  0  0  0  0  0  0  0  0  0  0  0
   -0.7145   -2.8875    0.0000 C   0  0  0  0  0  0  0  0  0  0  0  0
    0.0000   -3.3000    0.0000 N   0  0  0  0  0  0  0  0  0  0  0  0
    0.7145   -2.8875    0.0000 C   0  0  0  0  0  0  0  0  0  0  0  0
    0.7145   -2.0625    0.0000 C   0  0  0  0  0  0  0  0  0  0  0  0
    1.4289   -1.6500    0.0000 C   0  0  0  0  0  0  0  0  0  0  0  0
    2.1434   -2.0625    0.0000 N   0  0  0  0  0  0  0  0  0  0  0  0
    2.1434   -2.8875    0.0000 C   0  0  0  0  0  0  0  0  0  0  0  0
    2.8579   -3.3000    0.0000 C   0  0  0  0  0  0  0  0  0  0  0  0
    2.8579   -4.1250    0.0000 C   0  0  0  0  0  0  0  0  0  0  0  0
    3.5724   -4.5375    0.0000 Cl  0  0  0  0  0  0  0  0  0  0  0  0
    2.1434   -4.5375    0.0000 C   0  0  0  0  0  0  0  0  0  0  0  0
    1.4289   -4.1250    0.0000 C   0  0  0  0  0  0  0  0  0  0  0  0
    1.4289   -3.3000    0.0000 C   0  0  0  0  0  0  0  0  0  0  0  0
    1.2280    0.0000    0.0000 H   0  0  0  0  0  0  0  0  0  0  0  0
    3.2316    0.0000    0.0000 H   0  0  0  0  0  0  0  0  0  0  0  0
   -5.2135   -2.7650    0.0000 H   0  0  0  0  0  0  0  0  0  0  0  0
   -4.2868   -4.3700    0.0000 H   0  0  0  0  0  0  0  0  0  0  0  0
   -5.2134   -3.8350    0.0000 H   0  0  0  0  0  0  0  0  0  0  0  0
   -3.5724   -1.8175    0.0000 H   0  0  0  0  0  0  0  0  0  0  0  0
   -2.6458   -2.3525    0.0000 H   0  0  0  0  0  0  0  0  0  0  0  0
   -1.9313   -4.6600    0.0000 H   0  0  0  0  0  0  0  0  0  0  0  0
   -2.8579   -5.1950    0.0000 H   0  0  0  0  0  0  0  0  0  0  0  0
   -4.4990   -4.0025    0.0000 H   0  0  0  0  0  0  0  0  0  0  0  0
   -3.5724   -5.6075    0.0000 H   0  0  0  0  0  0  0  0  0  0  0  0
   -4.4991   -5.0725    0.0000 H   0  0  0  0  0  0  0  0  0  0  0  0
   -2.1434   -1.8175    0.0000 H   0  0  0  0  0  0  0  0  0  0  0  0
   -1.2168   -2.3525    0.0000 H   0  0  0  0  0  0  0  0  0  0  0  0
   -1.4289   -4.3700    0.0000 H   0  0  0  0  0  0  0  0  0  0  0  0
   -0.5022   -3.8350    0.0000 H   0  0  0  0  0  0  0  0  0  0  0  0
   -0.7145   -1.8175    0.0000 H   0  0  0  0  0  0  0  0  0  0  0  0
    0.2121   -2.3525    0.0000 H   0  0  0  0  0  0  0  0  0  0  0  0
    0.0000   -4.2845    0.0000 H   0  0  0  0  0  0  0  0  0  0  0  0
   -0.1792   -1.5465    0.0000 H   0  0  0  0  0  0  0  0  0  0  0  0
    1.4289   -0.6180    0.0000 H   0  0  0  0  0  0  0  0  0  0  0  0
    3.7516   -2.7840    0.0000 H   0  0  0  0  0  0  0  0  0  0  0  0
    2.1434   -5.5695    0.0000 H   0  0  0  0  0  0  0  0  0  0  0  0
    0.5352   -4.6410    0.0000 H   0  0  0  0  0  0  0  0  0  0  0  0
  1 23  1  0  0  0  0
  2 24  1  0  0  0  0
  3  4  1  0  0  0  0
  3 25  1  0  0  0  0
  3 26  1  0  0  0  0
  3 27  1  0  0  0  0
  4  5  1  0  0  0  0
  4 28  1  0  0  0  0
  4 29  1  0  0  0  0
  5  6  1  0  0  0  0
  5  8  1  0  0  0  0
  6  7  1  0  0  0  0
  6 30  1  0  0  0  0
  6 31  1  0  0  0  0
  7 32  1  0  0  0  0
  7 33  1  0  0  0  0
  7 34  1  0  0  0  0
  8  9  1  0  0  0  0
  8 35  1  0  0  0  0
  8 36  1  0  0  0  0
  9 10  1  0  0  0  0
  9 37  1  0  0  0  0
  9 38  1  0  0  0  0
 10 11  1  0  0  0  0
 10 39  1  0  0  0  0
 10 40  1  0  0  0  0
 11 12  1  0  0  0  0
 11 41  1  0  0  0  0
 12 13  2  0  0  0  0
 12 22  1  0  0  0  0
 13 14  1  0  0  0  0
 13 42  1  0  0  0  0
 14 15  2  0  0  0  0
 14 43  1  0  0  0  0
 15 16  1  0  0  0  0
 16 17  2  0  0  0  0
 16 22  1  0  0  0  0
 17 18  1  0  0  0  0
 17 44  1  0  0  0  0
 18 19  1  0  0  0  0
 18 20  2  0  0  0  0
 20 21  1  0  0  0  0
 20 45  1  0  0  0  0
 21 22  2  0  0  0  0
 21 46  1  0  0  0  0
M  END
>  <DRUGBANK_ID>
DB17749

>  <COMMON_NAME>
AQ-13

>  <CAS_NUMBER>
169815-40-1

>  <UNII>
PKT9732S5K

>  <SYNONYMS>
1,3-propanediamine, n'-(7-chloro-4-quinolinyl)-n,n-diethyl-, dihydrochloride

$$$$
