
 OpenBabel10282417072D

 32 33  0  0  1  0  0  0  0  0999 V2000
    4.0668    2.3479    0.0000 C   0  0  0  0  0  0  0  0  0  0  0  0
    1.9233   -0.5396    0.0000 C   0  0  0  0  0  0  0  0  0  0  0  0
    3.3523    1.1104    0.0000 C   0  0  0  0  0  0  0  0  0  0  0  0
    1.1387    0.8555    0.0000 C   0  0  0  0  0  0  0  0  0  0  0  0
    3.3523    1.9354    0.0000 C   0  0  1  0  0  0  0  0  0  0  0  0
    1.9233    1.1104    0.0000 C   0  0  0  0  0  0  0  0  0  0  0  0
    2.6378    0.6979    0.0000 C   0  0  1  0  0  0  0  0  0  0  0  0
    0.6538    1.5229    0.0000 C   0  0  0  0  0  0  0  0  0  0  0  0
    1.9233    1.9354    0.0000 C   0  0  0  0  0  0  0  0  0  0  0  0
   -0.9962    1.5229    0.0000 N   0  0  0  0  0  0  0  0  0  0  0  0
    2.6378   -0.1271    0.0000 N   0  0  0  0  0  0  0  0  0  0  0  0
    3.0251    3.0764    0.0000 O   0  0  0  0  0  0  0  0  0  0  0  0
    2.2505    3.0764    0.0000 O   0  0  0  0  0  0  0  0  0  0  0  0
   -0.1712    2.3479    0.0000 O   0  0  0  0  0  0  0  0  0  0  0  0
   -0.1712    0.6979    0.0000 O   0  0  0  0  0  0  0  0  0  0  0  0
    1.1387    2.1904    0.0000 S   0  0  0  0  0  0  0  0  0  0  0  0
    2.6378    2.3479    0.0000 S   0  0  0  0  0  0  0  0  0  0  0  0
   -0.1712    1.5229    0.0000 S   0  0  0  0  0  0  0  0  0  0  0  0
    4.0668    1.5229    0.0000 H   0  0  0  0  0  0  0  0  0  0  0  0
    3.3523    0.2854    0.0000 H   0  0  0  0  0  0  0  0  0  0  0  0
    4.9934    1.8129    0.0000 H   0  0  0  0  0  0  0  0  0  0  0  0
    4.0668    3.4179    0.0000 H   0  0  0  0  0  0  0  0  0  0  0  0
    4.9935    2.8829    0.0000 H   0  0  0  0  0  0  0  0  0  0  0  0
    0.9967   -0.0046    0.0000 H   0  0  0  0  0  0  0  0  0  0  0  0
    1.9233   -1.6096    0.0000 H   0  0  0  0  0  0  0  0  0  0  0  0
    0.9966   -1.0746    0.0000 H   0  0  0  0  0  0  0  0  0  0  0  0
    4.2789    0.5754    0.0000 H   0  0  0  0  0  0  0  0  0  0  0  0
    3.3523    0.0404    0.0000 H   0  0  0  0  0  0  0  0  0  0  0  0
    0.8198   -0.1260    0.0000 H   0  0  0  0  0  0  0  0  0  0  0  0
   -1.5062    2.4062    0.0000 H   0  0  0  0  0  0  0  0  0  0  0  0
   -1.5062    0.6396    0.0000 H   0  0  0  0  0  0  0  0  0  0  0  0
    3.5211   -0.6371    0.0000 H   0  0  0  0  0  0  0  0  0  0  0  0
  1 21  1  0  0  0  0
  1 22  1  0  0  0  0
  1 23  1  0  0  0  0
  2 24  1  0  0  0  0
  2 25  1  0  0  0  0
  2 26  1  0  0  0  0
  3 27  1  0  0  0  0
  3 28  1  0  0  0  0
  4 29  1  0  0  0  0
  5  1  1  0  0  0  0
  5  3  1  0  0  0  0
  5 19  1  6  0  0  0
  6  4  1  0  0  0  0
  7  3  1  0  0  0  0
  7  6  1  0  0  0  0
  7 11  1  0  0  0  0
  7 20  1  1  0  0  0
  8  4  2  0  0  0  0
  9  6  2  0  0  0  0
 10 30  1  0  0  0  0
 10 31  1  0  0  0  0
 11  2  1  0  0  0  0
 11 32  1  0  0  0  0
 16  8  1  0  0  0  0
 16  9  1  0  0  0  0
 17  5  1  0  0  0  0
 17  9  1  0  0  0  0
 17 12  2  0  0  0  0
 17 13  2  0  0  0  0
 18  8  1  0  0  0  0
 18 10  1  0  0  0  0
 18 14  2  0  0  0  0
 18 15  2  0  0  0  0
M  END
>  <DRUGBANK_ID>
DB04081

>  <SECONDARY_ACCESSION_NUMBERS>
EXPT02251

>  <COMMON_NAME>
(4s-Trans)-4-(Methylamino)-5,6-Dihydro-6-Methyl-4h-Thieno(2,3-B)Thiopyran-2-Sulfonamide-7,7-Dioxide

$$$$
