
 OpenBabel10282417072D

 68 71  0  0  0  0  0  0  0  0999 V2000
    2.7512   -0.0616    0.0000 C   0  0  0  0  0  0  0  0  0  0  0  0
    3.4656   -0.4741    0.0000 C   0  0  0  0  0  0  0  0  0  0  0  0
    3.4656   -1.2991    0.0000 N   0  0  0  0  0  0  0  0  0  0  0  0
    4.1801   -1.7116    0.0000 C   0  0  0  0  0  0  0  0  0  0  0  0
    4.8946   -1.2991    0.0000 O   0  0  0  0  0  0  0  0  0  0  0  0
    4.1801   -2.5366    0.0000 C   0  0  0  0  0  0  0  0  0  0  0  0
    4.8476   -3.0215    0.0000 C   0  0  0  0  0  0  0  0  0  0  0  0
    4.5926   -3.8062    0.0000 C   0  0  0  0  0  0  0  0  0  0  0  0
    3.7676   -3.8062    0.0000 O   0  0  0  0  0  0  0  0  0  0  0  0
    3.5127   -3.0215    0.0000 N   0  0  0  0  0  0  0  0  0  0  0  0
    5.0775   -4.4736    0.0000 C   0  0  0  0  0  0  0  0  0  0  0  0
    5.8980   -4.3874    0.0000 C   0  0  0  0  0  0  0  0  0  0  0  0
    6.3829   -5.0548    0.0000 C   0  0  0  0  0  0  0  0  0  0  0  0
    6.0474   -5.8085    0.0000 C   0  0  0  0  0  0  0  0  0  0  0  0
    5.2269   -5.8947    0.0000 C   0  0  0  0  0  0  0  0  0  0  0  0
    4.7420   -5.2273    0.0000 C   0  0  0  0  0  0  0  0  0  0  0  0
    3.9215   -5.3135    0.0000 O   0  0  0  0  0  0  0  0  0  0  0  0
    6.5323   -6.4759    0.0000 O   0  0  0  0  0  0  0  0  0  0  0  0
    7.2034   -4.9686    0.0000 C   0  0  0  0  0  0  0  0  0  0  0  0
    8.0239   -4.8823    0.0000 C   0  0  0  0  0  0  0  0  0  0  0  0
    7.2897   -5.7890    0.0000 C   0  0  0  0  0  0  0  0  0  0  0  0
    7.1172   -4.1481    0.0000 C   0  0  0  0  0  0  0  0  0  0  0  0
    5.6322   -2.7666    0.0000 C   0  0  0  0  0  0  0  0  0  0  0  0
    5.8037   -1.9596    0.0000 C   0  0  0  0  0  0  0  0  0  0  0  0
    6.5883   -1.7047    0.0000 C   0  0  0  0  0  0  0  0  0  0  0  0
    7.2014   -2.2567    0.0000 C   0  0  0  0  0  0  0  0  0  0  0  0
    7.0299   -3.0637    0.0000 C   0  0  0  0  0  0  0  0  0  0  0  0
    6.2453   -3.3186    0.0000 C   0  0  0  0  0  0  0  0  0  0  0  0
    7.9860   -2.0018    0.0000 C   0  0  0  0  0  0  0  0  0  0  0  0
    8.5991   -2.5538    0.0000 N   0  0  0  0  0  0  0  0  0  0  0  0
    9.3838   -2.2989    0.0000 C   0  0  0  0  0  0  0  0  0  0  0  0
    9.9969   -2.8509    0.0000 C   0  0  0  0  0  0  0  0  0  0  0  0
    9.8253   -3.6579    0.0000 O   0  0  0  0  0  0  0  0  0  0  0  0
    9.0407   -3.9128    0.0000 C   0  0  0  0  0  0  0  0  0  0  0  0
    8.4276   -3.3608    0.0000 C   0  0  0  0  0  0  0  0  0  0  0  0
    2.7512    1.0084    0.0000 H   0  0  0  0  0  0  0  0  0  0  0  0
    1.8245   -0.5966    0.0000 H   0  0  0  0  0  0  0  0  0  0  0  0
    1.8246    0.4734    0.0000 H   0  0  0  0  0  0  0  0  0  0  0  0
    4.3923    0.0609    0.0000 H   0  0  0  0  0  0  0  0  0  0  0  0
    4.3922   -1.0091    0.0000 H   0  0  0  0  0  0  0  0  0  0  0  0
    2.6130   -1.7914    0.0000 H   0  0  0  0  0  0  0  0  0  0  0  0
    6.3178   -3.4446    0.0000 H   0  0  0  0  0  0  0  0  0  0  0  0
    4.8071   -6.8375    0.0000 H   0  0  0  0  0  0  0  0  0  0  0  0
    3.3708   -4.5554    0.0000 H   0  0  0  0  0  0  0  0  0  0  0  0
    6.1512   -7.3319    0.0000 H   0  0  0  0  0  0  0  0  0  0  0  0
    8.6529   -5.7479    0.0000 H   0  0  0  0  0  0  0  0  0  0  0  0
    8.4590   -3.9048    0.0000 H   0  0  0  0  0  0  0  0  0  0  0  0
    9.0880   -4.7704    0.0000 H   0  0  0  0  0  0  0  0  0  0  0  0
    6.4241   -6.4180    0.0000 H   0  0  0  0  0  0  0  0  0  0  0  0
    8.2672   -6.2241    0.0000 H   0  0  0  0  0  0  0  0  0  0  0  0
    7.4016   -6.8531    0.0000 H   0  0  0  0  0  0  0  0  0  0  0  0
    7.9829   -3.5192    0.0000 H   0  0  0  0  0  0  0  0  0  0  0  0
    6.1397   -3.7128    0.0000 H   0  0  0  0  0  0  0  0  0  0  0  0
    7.0054   -3.0840    0.0000 H   0  0  0  0  0  0  0  0  0  0  0  0
    5.0368   -1.2691    0.0000 H   0  0  0  0  0  0  0  0  0  0  0  0
    6.8029   -0.6953    0.0000 H   0  0  0  0  0  0  0  0  0  0  0  0
    7.7968   -3.7542    0.0000 H   0  0  0  0  0  0  0  0  0  0  0  0
    6.0307   -4.3280    0.0000 H   0  0  0  0  0  0  0  0  0  0  0  0
    8.2085   -0.9552    0.0000 H   0  0  0  0  0  0  0  0  0  0  0  0
    9.0036   -1.6711    0.0000 H   0  0  0  0  0  0  0  0  0  0  0  0
    9.6063   -1.2523    0.0000 H   0  0  0  0  0  0  0  0  0  0  0  0
   10.4014   -1.9682    0.0000 H   0  0  0  0  0  0  0  0  0  0  0  0
   11.0145   -2.5203    0.0000 H   0  0  0  0  0  0  0  0  0  0  0  0
   10.7920   -3.5669    0.0000 H   0  0  0  0  0  0  0  0  0  0  0  0
    8.8182   -4.9594    0.0000 H   0  0  0  0  0  0  0  0  0  0  0  0
    8.0231   -4.2435    0.0000 H   0  0  0  0  0  0  0  0  0  0  0  0
    7.4100   -3.6915    0.0000 H   0  0  0  0  0  0  0  0  0  0  0  0
    7.6324   -2.6449    0.0000 H   0  0  0  0  0  0  0  0  0  0  0  0
  1  2  1  0  0  0  0
  1 36  1  0  0  0  0
  1 37  1  0  0  0  0
  1 38  1  0  0  0  0
  2  3  1  0  0  0  0
  2 39  1  0  0  0  0
  2 40  1  0  0  0  0
  3  4  1  0  0  0  0
  3 41  1  0  0  0  0
  4  5  2  0  0  0  0
  4  6  1  0  0  0  0
  6  7  1  0  0  0  0
  6 10  2  0  0  0  0
  7  8  2  0  0  0  0
  7 23  1  0  0  0  0
  8  9  1  0  0  0  0
  8 11  1  0  0  0  0
  9 10  1  0  0  0  0
 11 12  2  0  0  0  0
 11 16  1  0  0  0  0
 12 13  1  0  0  0  0
 12 42  1  0  0  0  0
 13 14  2  0  0  0  0
 13 19  1  0  0  0  0
 14 15  1  0  0  0  0
 14 18  1  0  0  0  0
 15 16  2  0  0  0  0
 15 43  1  0  0  0  0
 16 17  1  0  0  0  0
 17 44  1  0  0  0  0
 18 45  1  0  0  0  0
 19 20  1  0  0  0  0
 19 21  1  0  0  0  0
 19 22  1  0  0  0  0
 20 46  1  0  0  0  0
 20 47  1  0  0  0  0
 20 48  1  0  0  0  0
 21 49  1  0  0  0  0
 21 50  1  0  0  0  0
 21 51  1  0  0  0  0
 22 52  1  0  0  0  0
 22 53  1  0  0  0  0
 22 54  1  0  0  0  0
 23 24  2  0  0  0  0
 23 28  1  0  0  0  0
 24 25  1  0  0  0  0
 24 55  1  0  0  0  0
 25 26  2  0  0  0  0
 25 56  1  0  0  0  0
 26 27  1  0  0  0  0
 26 29  1  0  0  0  0
 27 28  2  0  0  0  0
 27 57  1  0  0  0  0
 28 58  1  0  0  0  0
 29 30  1  0  0  0  0
 29 59  1  0  0  0  0
 29 60  1  0  0  0  0
 30 31  1  0  0  0  0
 30 35  1  0  0  0  0
 31 32  1  0  0  0  0
 31 61  1  0  0  0  0
 31 62  1  0  0  0  0
 32 33  1  0  0  0  0
 32 63  1  0  0  0  0
 32 64  1  0  0  0  0
 33 34  1  0  0  0  0
 34 35  1  0  0  0  0
 34 65  1  0  0  0  0
 34 66  1  0  0  0  0
 35 67  1  0  0  0  0
 35 68  1  0  0  0  0
M  END
>  <DRUGBANK_ID>
DB11881

>  <COMMON_NAME>
AUY922

>  <CAS_NUMBER>
747412-64-2

>  <UNII>
G1G66XE93W

$$$$
