
 OpenBabel10282417072D

 52 54  0  0  1  0  0  0  0  0999 V2000
    3.7935    1.0313    0.0000 O   0  0  0  0  0  0  0  0  0  0  0  0
    8.0804    1.0313    0.0000 O   0  0  0  0  0  0  0  0  0  0  0  0
    5.9370   -0.2063    0.0000 N   0  0  0  0  0  0  0  0  0  0  0  0
    5.2224    0.2063    0.0000 C   0  0  1  0  0  0  0  0  0  0  0  0
    6.6515    0.2063    0.0000 C   0  0  2  0  0  0  0  0  0  0  0  0
    5.2224    1.0313    0.0000 C   0  0  0  0  0  0  0  0  0  0  0  0
    6.6515    1.0313    0.0000 C   0  0  0  0  0  0  0  0  0  0  0  0
    5.9370    1.4438    0.0000 C   0  0  0  0  0  0  0  0  0  0  0  0
    4.5080   -0.2063    0.0000 C   0  0  0  0  0  0  0  0  0  0  0  0
    7.3659   -0.2063    0.0000 C   0  0  0  0  0  0  0  0  0  0  0  0
    5.9370   -1.0313    0.0000 C   0  0  0  0  0  0  0  0  0  0  0  0
    3.7935    0.2063    0.0000 C   0  0  1  0  0  0  0  0  0  0  0  0
    8.0804    0.2063    0.0000 C   0  0  0  0  0  0  0  0  0  0  0  0
    3.0791   -0.2063    0.0000 C   0  0  0  0  0  0  0  0  0  0  0  0
    8.7949   -0.2063    0.0000 C   0  0  0  0  0  0  0  0  0  0  0  0
    3.0791   -1.0313    0.0000 C   0  0  0  0  0  0  0  0  0  0  0  0
    2.3645    0.2063    0.0000 C   0  0  0  0  0  0  0  0  0  0  0  0
    8.7949   -1.0313    0.0000 C   0  0  0  0  0  0  0  0  0  0  0  0
    9.5094    0.2063    0.0000 C   0  0  0  0  0  0  0  0  0  0  0  0
    2.3645   -1.4438    0.0000 C   0  0  0  0  0  0  0  0  0  0  0  0
    1.6500   -0.2063    0.0000 C   0  0  0  0  0  0  0  0  0  0  0  0
    1.6500   -1.0313    0.0000 C   0  0  0  0  0  0  0  0  0  0  0  0
    9.5094   -1.4438    0.0000 C   0  0  0  0  0  0  0  0  0  0  0  0
   10.2239   -0.2063    0.0000 C   0  0  0  0  0  0  0  0  0  0  0  0
   10.2239   -1.0313    0.0000 C   0  0  0  0  0  0  0  0  0  0  0  0
    4.6335    1.5163    0.0000 H   0  0  0  0  0  0  0  0  0  0  0  0
    5.2225   -0.8637    0.0000 H   0  0  0  0  0  0  0  0  0  0  0  0
    6.6515   -0.8637    0.0000 H   0  0  0  0  0  0  0  0  0  0  0  0
    4.2958    1.5663    0.0000 H   0  0  0  0  0  0  0  0  0  0  0  0
    5.2225    2.1013    0.0000 H   0  0  0  0  0  0  0  0  0  0  0  0
    7.5781    1.5663    0.0000 H   0  0  0  0  0  0  0  0  0  0  0  0
    6.6515    2.1013    0.0000 H   0  0  0  0  0  0  0  0  0  0  0  0
    5.9370    2.5138    0.0000 H   0  0  0  0  0  0  0  0  0  0  0  0
    6.8637    1.9788    0.0000 H   0  0  0  0  0  0  0  0  0  0  0  0
    4.5080   -1.2763    0.0000 H   0  0  0  0  0  0  0  0  0  0  0  0
    3.5813   -0.7413    0.0000 H   0  0  0  0  0  0  0  0  0  0  0  0
    7.3659   -1.2763    0.0000 H   0  0  0  0  0  0  0  0  0  0  0  0
    8.2926   -0.7413    0.0000 H   0  0  0  0  0  0  0  0  0  0  0  0
    5.0104   -1.5663    0.0000 H   0  0  0  0  0  0  0  0  0  0  0  0
    6.8636   -1.5663    0.0000 H   0  0  0  0  0  0  0  0  0  0  0  0
    5.9370   -2.1013    0.0000 H   0  0  0  0  0  0  0  0  0  0  0  0
    4.7202    0.7413    0.0000 H   0  0  0  0  0  0  0  0  0  0  0  0
    3.9728   -1.5473    0.0000 H   0  0  0  0  0  0  0  0  0  0  0  0
    2.3645    1.2383    0.0000 H   0  0  0  0  0  0  0  0  0  0  0  0
    7.9012   -1.5473    0.0000 H   0  0  0  0  0  0  0  0  0  0  0  0
    9.5094    1.2383    0.0000 H   0  0  0  0  0  0  0  0  0  0  0  0
    2.3645   -2.4758    0.0000 H   0  0  0  0  0  0  0  0  0  0  0  0
    0.7562    0.3097    0.0000 H   0  0  0  0  0  0  0  0  0  0  0  0
    0.7563   -1.5473    0.0000 H   0  0  0  0  0  0  0  0  0  0  0  0
    9.5094   -2.4758    0.0000 H   0  0  0  0  0  0  0  0  0  0  0  0
   11.1177    0.3097    0.0000 H   0  0  0  0  0  0  0  0  0  0  0  0
   11.1176   -1.5473    0.0000 H   0  0  0  0  0  0  0  0  0  0  0  0
  1 26  1  0  0  0  0
  2 13  2  0  0  0  0
  3  4  1  0  0  0  0
  3  5  1  0  0  0  0
  3 11  1  0  0  0  0
  4  6  1  0  0  0  0
  4  9  1  0  0  0  0
  4 27  1  1  0  0  0
  5  7  1  0  0  0  0
  5 10  1  0  0  0  0
  5 28  1  1  0  0  0
  6  8  1  0  0  0  0
  6 29  1  0  0  0  0
  6 30  1  0  0  0  0
  7  8  1  0  0  0  0
  7 31  1  0  0  0  0
  7 32  1  0  0  0  0
  8 33  1  0  0  0  0
  8 34  1  0  0  0  0
  9 12  1  0  0  0  0
  9 35  1  0  0  0  0
  9 36  1  0  0  0  0
 10 13  1  0  0  0  0
 10 37  1  0  0  0  0
 10 38  1  0  0  0  0
 11 39  1  0  0  0  0
 11 40  1  0  0  0  0
 11 41  1  0  0  0  0
 12  1  1  0  0  0  0
 12 14  1  0  0  0  0
 12 42  1  6  0  0  0
 13 15  1  0  0  0  0
 14 16  2  0  0  0  0
 14 17  1  0  0  0  0
 15 18  2  0  0  0  0
 15 19  1  0  0  0  0
 16 20  1  0  0  0  0
 16 43  1  0  0  0  0
 17 21  2  0  0  0  0
 17 44  1  0  0  0  0
 18 23  1  0  0  0  0
 18 45  1  0  0  0  0
 19 24  2  0  0  0  0
 19 46  1  0  0  0  0
 20 22  2  0  0  0  0
 20 47  1  0  0  0  0
 21 22  1  0  0  0  0
 21 48  1  0  0  0  0
 22 49  1  0  0  0  0
 23 25  2  0  0  0  0
 23 50  1  0  0  0  0
 24 25  1  0  0  0  0
 24 51  1  0  0  0  0
 25 52  1  0  0  0  0
M  END
>  <DRUGBANK_ID>
DB05137

>  <COMMON_NAME>
Lobeline

>  <CAS_NUMBER>
90-69-7

>  <UNII>
D0P25S3P81

>  <SYNONYMS>
Lobelina; Lobeline

$$$$
