
 OpenBabel10282417072D

 29 29  0  0  0  0  0  0  0  0999 V2000
   -2.1434   -0.4125    0.0000 C   0  0  0  0  0  0  0  0  0  0  0  0
   -1.4289    0.0000    0.0000 C   0  0  0  0  0  0  0  0  0  0  0  0
   -0.7144    1.2375    0.0000 C   0  0  0  0  0  0  0  0  0  0  0  0
    1.4289    0.8250    0.0000 C   0  0  0  0  0  0  0  0  0  0  0  0
   -1.4289    0.8250    0.0000 C   0  0  3  0  0  0  0  0  0  0  0  0
    0.0000    0.8250    0.0000 C   0  0  0  0  0  0  0  0  0  0  0  0
    0.7144    1.2375    0.0000 C   0  0  0  0  0  0  0  0  0  0  0  0
    1.4289    0.0000    0.0000 C   0  0  0  0  0  0  0  0  0  0  0  0
    0.0000    0.0000    0.0000 C   0  0  0  0  0  0  0  0  0  0  0  0
    0.7144   -0.4125    0.0000 C   0  0  0  0  0  0  0  0  0  0  0  0
   -2.1434    1.2375    0.0000 C   0  0  0  0  0  0  0  0  0  0  0  0
    0.7144    2.0625    0.0000 I   0  0  0  0  0  0  0  0  0  0  0  0
    2.1434   -0.4125    0.0000 I   0  0  0  0  0  0  0  0  0  0  0  0
   -0.7144   -0.4125    0.0000 I   0  0  0  0  0  0  0  0  0  0  0  0
    0.7144   -1.2375    0.0000 N   0  0  0  0  0  0  0  0  0  0  0  0
   -2.1434    2.0625    0.0000 O   0  0  0  0  0  0  0  0  0  0  0  0
   -2.8578    0.8250    0.0000 O   0  0  0  0  0  0  0  0  0  0  0  0
   -3.0700    0.1225    0.0000 H   0  0  0  0  0  0  0  0  0  0  0  0
   -2.1434   -1.4825    0.0000 H   0  0  0  0  0  0  0  0  0  0  0  0
   -3.0701   -0.9475    0.0000 H   0  0  0  0  0  0  0  0  0  0  0  0
   -0.5023   -0.5350    0.0000 H   0  0  0  0  0  0  0  0  0  0  0  0
   -0.5023    0.5350    0.0000 H   0  0  0  0  0  0  0  0  0  0  0  0
   -0.7144    2.3075    0.0000 H   0  0  0  0  0  0  0  0  0  0  0  0
    0.2123    1.7725    0.0000 H   0  0  0  0  0  0  0  0  0  0  0  0
    2.3226    1.3410    0.0000 H   0  0  0  0  0  0  0  0  0  0  0  0
   -0.5023    0.2900    0.0000 H   0  0  0  0  0  0  0  0  0  0  0  0
   -0.1382   -1.7298    0.0000 H   0  0  0  0  0  0  0  0  0  0  0  0
    1.5670   -1.7298    0.0000 H   0  0  0  0  0  0  0  0  0  0  0  0
   -3.6693    1.2935    0.0000 H   0  0  0  0  0  0  0  0  0  0  0  0
  1 18  1  0  0  0  0
  1 19  1  0  0  0  0
  1 20  1  0  0  0  0
  2  1  1  0  0  0  0
  2 21  1  0  0  0  0
  2 22  1  0  0  0  0
  3 23  1  0  0  0  0
  3 24  1  0  0  0  0
  4 25  1  0  0  0  0
  5  2  1  0  0  0  0
  5  3  1  0  0  0  0
  5 26  1  0  0  0  0
  6  3  1  0  0  0  0
  7  4  2  0  0  0  0
  7  6  1  0  0  0  0
  8  4  1  0  0  0  0
  9  6  2  0  0  0  0
 10  8  2  0  0  0  0
 10  9  1  0  0  0  0
 11  5  1  0  0  0  0
 12  7  1  0  0  0  0
 13  8  1  0  0  0  0
 14  9  1  0  0  0  0
 15 10  1  0  0  0  0
 15 27  1  0  0  0  0
 15 28  1  0  0  0  0
 16 11  2  0  0  0  0
 17 11  1  0  0  0  0
 17 29  1  0  0  0  0
M  END
>  <DRUGBANK_ID>
DB08946

>  <COMMON_NAME>
Iopanoic acid

>  <CAS_NUMBER>
96-83-3

>  <UNII>
FE9794P71J

>  <SYNONYMS>
Acidum iopanoicum; Iodopanoic acid; Iopanoic acid

$$$$
