
 OpenBabel10282417072D

 27 27  0  0  1  0  0  0  0  0999 V2000
    1.1478    0.0874    0.0000 C   0  0  2  0  0  0  0  0  0  0  0  0
    1.8603    0.5000    0.0000 C   0  0  0  0  0  0  0  0  0  0  0  0
    0.7271   -0.6249    0.0000 C   0  0  0  0  0  0  0  0  0  0  0  0
    1.8521    1.3250    0.0000 O   0  0  0  0  0  0  0  0  0  0  0  0
    0.4354    0.5000    0.0000 N   0  0  0  0  0  0  0  0  0  0  0  0
   -0.0979   -0.6207    0.0000 C   0  0  0  0  0  0  0  0  0  0  0  0
    2.5729    0.0916    0.0000 O   0  0  0  0  0  0  0  0  0  0  0  0
   -1.7479   -0.6082    0.0000 C   0  0  0  0  0  0  0  0  0  0  0  0
   -0.5021    0.1000    0.0000 C   0  0  0  0  0  0  0  0  0  0  0  0
   -0.5103   -1.3250    0.0000 C   0  0  0  0  0  0  0  0  0  0  0  0
   -1.3353   -1.3250    0.0000 C   0  0  0  0  0  0  0  0  0  0  0  0
   -1.3270    0.1042    0.0000 C   0  0  0  0  0  0  0  0  0  0  0  0
   -2.5729   -0.6082    0.0000 O   0  0  0  0  0  0  0  0  0  0  0  0
    1.5521   -0.6249    0.0000 C   0  0  0  0  0  0  0  0  0  0  0  0
    1.2551   -1.5555    0.0000 H   0  0  0  0  0  0  0  0  0  0  0  0
    0.1863   -1.5482    0.0000 H   0  0  0  0  0  0  0  0  0  0  0  0
    0.4368    1.5200    0.0000 H   0  0  0  0  0  0  0  0  0  0  0  0
   -0.4486   -0.0088    0.0000 H   0  0  0  0  0  0  0  0  0  0  0  0
    2.5759   -0.8454    0.0000 H   0  0  0  0  0  0  0  0  0  0  0  0
    0.0217    0.9892    0.0000 H   0  0  0  0  0  0  0  0  0  0  0  0
    0.0030   -2.2203    0.0000 H   0  0  0  0  0  0  0  0  0  0  0  0
   -1.8519   -2.2184    0.0000 H   0  0  0  0  0  0  0  0  0  0  0  0
   -1.8362    1.0018    0.0000 H   0  0  0  0  0  0  0  0  0  0  0  0
   -3.0414    0.2033    0.0000 H   0  0  0  0  0  0  0  0  0  0  0  0
    1.0103   -1.5476    0.0000 H   0  0  0  0  0  0  0  0  0  0  0  0
    2.6221   -0.6328    0.0000 H   0  0  0  0  0  0  0  0  0  0  0  0
    2.0803   -1.5555    0.0000 H   0  0  0  0  0  0  0  0  0  0  0  0
  1  2  1  6  0  0  0
  1  3  1  0  0  0  0
  1 14  1  0  0  0  0
  3 15  1  0  0  0  0
  3 16  1  0  0  0  0
  4  2  2  0  0  0  0
  5  1  1  0  0  0  0
  5 17  1  0  0  0  0
  5 18  1  0  0  0  0
  6  3  1  0  0  0  0
  7  2  1  0  0  0  0
  7 19  1  0  0  0  0
  8 11  1  0  0  0  0
  9  6  2  0  0  0  0
  9 20  1  0  0  0  0
 10  6  1  0  0  0  0
 10 21  1  0  0  0  0
 11 10  2  0  0  0  0
 11 22  1  0  0  0  0
 12  9  1  0  0  0  0
 12  8  2  0  0  0  0
 12 23  1  0  0  0  0
 13  8  1  0  0  0  0
 13 24  1  0  0  0  0
 14 25  1  0  0  0  0
 14 26  1  0  0  0  0
 14 27  1  0  0  0  0
M  END
>  <DRUGBANK_ID>
DB00765

>  <SECONDARY_ACCESSION_NUMBERS>
APRD01112

>  <COMMON_NAME>
Metyrosine

>  <CAS_NUMBER>
672-87-7

>  <UNII>
DOQ0J0TPF7

>  <SYNONYMS>
(-)-alpha-Methyl-L-tyrosine; (–)-α-methyl-L-tyrosine; (S)-alpha-Methyltyrosine; Methyltyrosine; Metirosin; Metirosina; Métirosine; Metirosine; Metirosinum; Metyrosine; α-methyl-L-p-tyrosine; α-methyl-p-tyrosine; α-methyl-para-tyrosine; α-MPT

$$$$
