F1H
 OpenBabel10282417072D

 44 45  0  0  0  0  0  0  0  0999 V2000
    2.9505    1.0899    0.0000 C   0  0  0  0  0  0  0  0  0  0  0  0
    3.6649    0.6774    0.0000 C   0  0  0  0  0  0  0  0  0  0  0  0
    2.2360   -0.1476    0.0000 C   0  0  0  0  0  0  0  0  0  0  0  0
    2.2360    0.6774    0.0000 C   0  0  0  0  0  0  0  0  0  0  0  0
    0.8071   -0.1476    0.0000 C   0  0  0  0  0  0  0  0  0  0  0  0
    0.0926   -0.5601    0.0000 C   0  0  0  0  0  0  0  0  0  0  0  0
    1.5215    1.0899    0.0000 C   0  0  0  0  0  0  0  0  0  0  0  0
    0.0926    1.0899    0.0000 C   0  0  0  0  0  0  0  0  0  0  0  0
   -0.6219    0.6774    0.0000 C   0  0  0  0  0  0  0  0  0  0  0  0
   -4.1942   -0.5601    0.0000 C   0  0  0  0  0  0  0  0  0  0  0  0
   -2.7653   -0.5601    0.0000 C   0  0  0  0  0  0  0  0  0  0  0  0
   -3.4798   -0.1476    0.0000 C   0  0  0  0  0  0  0  0  0  0  0  0
   -2.0508   -0.1476    0.0000 C   0  0  0  0  0  0  0  0  0  0  0  0
   -0.6219   -0.1476    0.0000 C   0  0  0  0  0  0  0  0  0  0  0  0
   -2.0508    0.6774    0.0000 O   0  0  0  0  0  0  0  0  0  0  0  0
   -4.9087   -0.1476    0.0000 S   0  0  0  0  0  0  0  0  0  0  0  0
   -1.3363   -0.5601    0.0000 N   0  0  0  0  0  0  0  0  0  0  0  0
    0.8071    0.6774    0.0000 N   0  0  0  0  0  0  0  0  0  0  0  0
    3.6649   -0.1476    0.0000 C   0  0  0  0  0  0  0  0  0  0  0  0
    2.9505   -0.5601    0.0000 C   0  0  0  0  0  0  0  0  0  0  0  0
    2.9505    2.1219    0.0000 H   0  0  0  0  0  0  0  0  0  0  0  0
    4.5586    1.1934    0.0000 H   0  0  0  0  0  0  0  0  0  0  0  0
    1.3423   -0.6636    0.0000 H   0  0  0  0  0  0  0  0  0  0  0  0
    1.7337   -0.6826    0.0000 H   0  0  0  0  0  0  0  0  0  0  0  0
    1.7337    0.3874    0.0000 H   0  0  0  0  0  0  0  0  0  0  0  0
    0.0926   -1.6301    0.0000 H   0  0  0  0  0  0  0  0  0  0  0  0
   -0.8340   -1.0951    0.0000 H   0  0  0  0  0  0  0  0  0  0  0  0
    1.5215    2.1599    0.0000 H   0  0  0  0  0  0  0  0  0  0  0  0
    0.5948    1.6249    0.0000 H   0  0  0  0  0  0  0  0  0  0  0  0
    0.0926    2.1599    0.0000 H   0  0  0  0  0  0  0  0  0  0  0  0
    1.0192    1.6249    0.0000 H   0  0  0  0  0  0  0  0  0  0  0  0
   -1.5485    1.2124    0.0000 H   0  0  0  0  0  0  0  0  0  0  0  0
   -1.5485    0.1424    0.0000 H   0  0  0  0  0  0  0  0  0  0  0  0
   -4.1942   -1.6301    0.0000 H   0  0  0  0  0  0  0  0  0  0  0  0
   -5.1208   -1.0951    0.0000 H   0  0  0  0  0  0  0  0  0  0  0  0
   -2.7653   -1.6301    0.0000 H   0  0  0  0  0  0  0  0  0  0  0  0
   -1.8387   -1.0951    0.0000 H   0  0  0  0  0  0  0  0  0  0  0  0
   -3.4798    0.9224    0.0000 H   0  0  0  0  0  0  0  0  0  0  0  0
   -2.5532    0.3874    0.0000 H   0  0  0  0  0  0  0  0  0  0  0  0
   -1.5486    0.3874    0.0000 H   0  0  0  0  0  0  0  0  0  0  0  0
   -4.9087    1.2124    0.0000 H   0  0  0  0  0  0  0  0  0  0  0  0
   -1.3363   -1.5446    0.0000 H   0  0  0  0  0  0  0  0  0  0  0  0
    4.5586   -0.6636    0.0000 H   0  0  0  0  0  0  0  0  0  0  0  0
    2.9505   -1.5921    0.0000 H   0  0  0  0  0  0  0  0  0  0  0  0
  1  2  2  0  0  0  0
  1  4  1  0  0  0  0
  1 21  1  0  0  0  0
  2 19  1  0  0  0  0
  2 22  1  0  0  0  0
  3  4  2  0  0  0  0
  3 20  1  0  0  0  0
  3 23  1  0  0  0  0
  4  7  1  0  0  0  0
  5  6  1  0  0  0  0
  5 18  1  0  0  0  0
  5 24  1  0  0  0  0
  5 25  1  0  0  0  0
  6 14  1  0  0  0  0
  6 26  1  0  0  0  0
  6 27  1  0  0  0  0
  7 18  1  0  0  0  0
  7 28  1  0  0  0  0
  7 29  1  0  0  0  0
  8  9  1  0  0  0  0
  8 18  1  0  0  0  0
  8 30  1  0  0  0  0
  8 31  1  0  0  0  0
  9 14  1  0  0  0  0
  9 32  1  0  0  0  0
  9 33  1  0  0  0  0
 10 12  1  0  0  0  0
 10 16  1  0  0  0  0
 10 34  1  0  0  0  0
 10 35  1  0  0  0  0
 11 12  1  0  0  0  0
 11 13  1  0  0  0  0
 11 36  1  0  0  0  0
 11 37  1  0  0  0  0
 12 38  1  0  0  0  0
 12 39  1  0  0  0  0
 13 15  2  0  0  0  0
 13 17  1  0  0  0  0
 14 17  1  0  0  0  0
 14 40  1  0  0  0  0
 16 41  1  0  0  0  0
 17 42  1  0  0  0  0
 19 20  2  0  0  0  0
 19 43  1  0  0  0  0
 20 44  1  0  0  0  0
M  END
>  <DRUGBANK_ID>
DB07734

>  <COMMON_NAME>
N-(1-benzylpiperidin-4-yl)-4-sulfanylbutanamide

$$$$
