TQT
 OpenBabel10282417072D

 55 58  0  0  0  0  0  0  0  0999 V2000
    0.7637    2.8031    0.0000 C   0  0  1  0  0  0  0  0  0  0  0  0
   -0.5954    2.3616    0.0000 C   0  0  1  0  0  0  0  0  0  0  0  0
   -0.3404    1.5769    0.0000 C   0  0  1  0  0  0  0  0  0  0  0  0
   -0.6375    0.1792    0.0000 C   0  0  2  0  0  0  0  0  0  0  0  0
    0.1695    0.0077    0.0000 C   0  0  0  0  0  0  0  0  0  0  0  0
    0.4666    1.4054    0.0000 C   0  0  1  0  0  0  0  0  0  0  0  0
   -1.1895   -0.4339    0.0000 C   0  0  0  0  0  0  0  0  0  0  0  0
   -1.4195   -1.8859    0.0000 C   0  0  0  0  0  0  0  0  0  0  0  0
   -0.1500   -1.4734    0.0000 C   0  0  1  0  0  0  0  0  0  0  0  0
    0.5645   -1.0609    0.0000 C   0  0  0  0  0  0  0  0  0  0  0  0
    1.2790   -1.4734    0.0000 C   0  0  0  0  0  0  0  0  0  0  0  0
    1.2790   -2.2984    0.0000 C   0  0  0  0  0  0  0  0  0  0  0  0
    0.5645   -2.7109    0.0000 C   0  0  0  0  0  0  0  0  0  0  0  0
   -0.1500   -2.2984    0.0000 C   0  0  2  0  0  0  0  0  0  0  0  0
   -0.9346   -2.5534    0.0000 C   0  0  0  0  0  0  0  0  0  0  0  0
    1.0186    2.0185    0.0000 N   0  0  0  0  0  0  0  0  0  0  0  0
    1.3157    3.4162    0.0000 N   0  0  0  0  0  0  0  0  0  0  0  0
   -0.0433    2.9747    0.0000 N   0  0  0  0  0  0  0  0  0  0  0  0
   -1.4023    2.5331    0.0000 N   0  0  0  0  0  0  0  0  0  0  0  0
   -0.8924    0.9638    0.0000 C   0  0  0  0  0  0  0  0  0  0  0  0
    0.7215    0.6208    0.0000 C   0  0  0  0  0  0  0  0  0  0  0  0
   -0.9346   -1.2185    0.0000 N   0  0  0  0  0  0  0  0  0  0  0  0
    1.3348    2.6817    0.0000 H   0  0  0  0  0  0  0  0  0  0  0  0
   -0.8141    1.8201    0.0000 H   0  0  0  0  0  0  0  0  0  0  0  0
   -0.9187    1.4957    0.0000 H   0  0  0  0  0  0  0  0  0  0  0  0
   -0.4571   -0.3761    0.0000 H   0  0  0  0  0  0  0  0  0  0  0  0
    1.0377    1.2840    0.0000 H   0  0  0  0  0  0  0  0  0  0  0  0
   -0.2110   -0.8927    0.0000 H   0  0  0  0  0  0  0  0  0  0  0  0
   -0.2110   -2.8792    0.0000 H   0  0  0  0  0  0  0  0  0  0  0  0
    0.5002   -1.0099    0.0000 H   0  0  0  0  0  0  0  0  0  0  0  0
    1.2161   -0.2147    0.0000 H   0  0  0  0  0  0  0  0  0  0  0  0
   -2.2361   -0.2114    0.0000 H   0  0  0  0  0  0  0  0  0  0  0  0
   -1.9055   -1.2291    0.0000 H   0  0  0  0  0  0  0  0  0  0  0  0
   -2.4895   -1.8859    0.0000 H   0  0  0  0  0  0  0  0  0  0  0  0
   -1.9053   -0.9325    0.0000 H   0  0  0  0  0  0  0  0  0  0  0  0
    0.5645    0.0091    0.0000 H   0  0  0  0  0  0  0  0  0  0  0  0
    1.4911   -0.5259    0.0000 H   0  0  0  0  0  0  0  0  0  0  0  0
    2.2056   -0.9384    0.0000 H   0  0  0  0  0  0  0  0  0  0  0  0
    2.2056   -2.0084    0.0000 H   0  0  0  0  0  0  0  0  0  0  0  0
    2.2056   -2.8334    0.0000 H   0  0  0  0  0  0  0  0  0  0  0  0
    1.2790   -3.3684    0.0000 H   0  0  0  0  0  0  0  0  0  0  0  0
    0.5645   -3.7809    0.0000 H   0  0  0  0  0  0  0  0  0  0  0  0
   -0.3621   -3.2459    0.0000 H   0  0  0  0  0  0  0  0  0  0  0  0
   -1.2652   -3.5710    0.0000 H   0  0  0  0  0  0  0  0  0  0  0  0
   -0.1780   -3.3100    0.0000 H   0  0  0  0  0  0  0  0  0  0  0  0
    2.0163    1.8064    0.0000 H   0  0  0  0  0  0  0  0  0  0  0  0
    2.3134    3.2042    0.0000 H   0  0  0  0  0  0  0  0  0  0  0  0
    1.0005    4.3863    0.0000 H   0  0  0  0  0  0  0  0  0  0  0  0
   -0.3584    3.9448    0.0000 H   0  0  0  0  0  0  0  0  0  0  0  0
   -1.7175    3.5032    0.0000 H   0  0  0  0  0  0  0  0  0  0  0  0
   -2.0848    1.7751    0.0000 H   0  0  0  0  0  0  0  0  0  0  0  0
   -1.9390    1.1863    0.0000 H   0  0  0  0  0  0  0  0  0  0  0  0
   -1.6084    0.1686    0.0000 H   0  0  0  0  0  0  0  0  0  0  0  0
    1.7681    0.3983    0.0000 H   0  0  0  0  0  0  0  0  0  0  0  0
    1.4375    1.4160    0.0000 H   0  0  0  0  0  0  0  0  0  0  0  0
  1 16  1  0  0  0  0
  1 17  1  0  0  0  0
  1 18  1  0  0  0  0
  1 23  1  1  0  0  0
  2  3  1  0  0  0  0
  2 18  1  0  0  0  0
  2 19  1  0  0  0  0
  2 24  1  1  0  0  0
  3  6  1  0  0  0  0
  3 20  1  0  0  0  0
  3 25  1  6  0  0  0
  4  5  1  0  0  0  0
  4  7  1  0  0  0  0
  4 20  1  0  0  0  0
  4 26  1  1  0  0  0
  5 21  1  0  0  0  0
  5 30  1  0  0  0  0
  5 31  1  0  0  0  0
  6 16  1  0  0  0  0
  6 21  1  0  0  0  0
  6 27  1  6  0  0  0
  7 22  1  0  0  0  0
  7 32  1  0  0  0  0
  7 33  1  0  0  0  0
  8 15  1  0  0  0  0
  8 22  1  0  0  0  0
  8 34  1  0  0  0  0
  8 35  1  0  0  0  0
  9 10  1  0  0  0  0
  9 14  1  0  0  0  0
  9 22  1  0  0  0  0
  9 28  1  6  0  0  0
 10 11  1  0  0  0  0
 10 36  1  0  0  0  0
 10 37  1  0  0  0  0
 11 12  1  0  0  0  0
 11 38  1  0  0  0  0
 11 39  1  0  0  0  0
 12 13  1  0  0  0  0
 12 40  1  0  0  0  0
 12 41  1  0  0  0  0
 13 14  1  0  0  0  0
 13 42  1  0  0  0  0
 13 43  1  0  0  0  0
 14 15  1  0  0  0  0
 14 29  1  1  0  0  0
 15 44  1  0  0  0  0
 15 45  1  0  0  0  0
 16 46  1  0  0  0  0
 17 47  1  0  0  0  0
 17 48  1  0  0  0  0
 18 49  1  0  0  0  0
 19 50  1  0  0  0  0
 19 51  1  0  0  0  0
 20 52  1  0  0  0  0
 20 53  1  0  0  0  0
 21 54  1  0  0  0  0
 21 55  1  0  0  0  0
M  END
>  <DRUGBANK_ID>
DB02559

>  <SECONDARY_ACCESSION_NUMBERS>
EXPT03103

>  <COMMON_NAME>
6-(Octahydro-1h-Indol-1-Ylmethyl)Decahydroquinazoline-2,4-Diamine

$$$$
