
 OpenBabel10282417072D

 43 43  0  0  1  0  0  0  0  0999 V2000
   -0.1467    2.3518    0.0000 C   0  0  0  0  0  0  0  0  0  0  0  0
    4.1401    2.3518    0.0000 C   0  0  0  0  0  0  0  0  0  0  0  0
    1.9967    1.9393    0.0000 C   0  0  0  0  0  0  0  0  0  0  0  0
    1.2822    2.3518    0.0000 C   0  0  0  0  0  0  0  0  0  0  0  0
    2.7112    2.3518    0.0000 C   0  0  0  0  0  0  0  0  0  0  0  0
   -0.8843    0.8843    0.0000 C   0  0  0  0  0  0  0  0  0  0  0  0
    1.2352    0.6294    0.0000 C   0  0  0  0  0  0  0  0  0  0  0  0
    0.5678    1.9393    0.0000 C   0  0  0  0  0  0  0  0  0  0  0  0
    3.4256    1.9393    0.0000 C   0  0  2  0  0  0  0  0  0  0  0  0
   -0.0997    0.6294    0.0000 C   0  0  1  0  0  0  0  0  0  0  0  0
    0.5678    1.1143    0.0000 C   0  0  2  0  0  0  0  0  0  0  0  0
   -1.0558    1.6913    0.0000 C   0  0  0  0  0  0  0  0  0  0  0  0
    0.1553   -0.1553    0.0000 C   0  0  1  0  0  0  0  0  0  0  0  0
    3.4256    1.1143    0.0000 C   0  0  0  0  0  0  0  0  0  0  0  0
   -0.3297   -0.8227    0.0000 C   0  0  0  0  0  0  0  0  0  0  0  0
    0.9803   -0.1553    0.0000 N   0  0  0  0  0  0  0  0  0  0  0  0
   -0.4427    2.2433    0.0000 O   0  0  0  0  0  0  0  0  0  0  0  0
   -1.8405    1.9462    0.0000 O   0  0  0  0  0  0  0  0  0  0  0  0
    4.1401    0.7018    0.0000 O   0  0  0  0  0  0  0  0  0  0  0  0
    2.7112    0.7018    0.0000 O   0  0  0  0  0  0  0  0  0  0  0  0
    0.0059   -1.5764    0.0000 O   0  0  0  0  0  0  0  0  0  0  0  0
   -1.1501   -0.7365    0.0000 O   0  0  0  0  0  0  0  0  0  0  0  0
    1.9967    1.1143    0.0000 H   0  0  0  0  0  0  0  0  0  0  0  0
    1.2822    3.1768    0.0000 H   0  0  0  0  0  0  0  0  0  0  0  0
    2.7112    3.1768    0.0000 H   0  0  0  0  0  0  0  0  0  0  0  0
    3.4256    2.7643    0.0000 H   0  0  0  0  0  0  0  0  0  0  0  0
   -0.2287    1.4442    0.0000 H   0  0  0  0  0  0  0  0  0  0  0  0
    1.3028    1.4888    0.0000 H   0  0  0  0  0  0  0  0  0  0  0  0
   -0.6596   -0.0262    0.0000 H   0  0  0  0  0  0  0  0  0  0  0  0
   -0.1467    3.4218    0.0000 H   0  0  0  0  0  0  0  0  0  0  0  0
   -1.0733    1.8168    0.0000 H   0  0  0  0  0  0  0  0  0  0  0  0
   -1.0734    2.8868    0.0000 H   0  0  0  0  0  0  0  0  0  0  0  0
    5.0667    1.8168    0.0000 H   0  0  0  0  0  0  0  0  0  0  0  0
    4.1401    3.4218    0.0000 H   0  0  0  0  0  0  0  0  0  0  0  0
    5.0668    2.8868    0.0000 H   0  0  0  0  0  0  0  0  0  0  0  0
   -1.6795    0.1683    0.0000 H   0  0  0  0  0  0  0  0  0  0  0  0
   -1.9019    1.2150    0.0000 H   0  0  0  0  0  0  0  0  0  0  0  0
    2.2528    0.9601    0.0000 H   0  0  0  0  0  0  0  0  0  0  0  0
    1.9918   -0.1272    0.0000 H   0  0  0  0  0  0  0  0  0  0  0  0
    1.5799   -0.9805    0.0000 H   0  0  0  0  0  0  0  0  0  0  0  0
   -2.0354    2.8627    0.0000 H   0  0  0  0  0  0  0  0  0  0  0  0
    1.8997    1.1703    0.0000 H   0  0  0  0  0  0  0  0  0  0  0  0
   -1.5312    0.1195    0.0000 H   0  0  0  0  0  0  0  0  0  0  0  0
  1 30  1  0  0  0  0
  1 31  1  0  0  0  0
  1 32  1  0  0  0  0
  2 33  1  0  0  0  0
  2 34  1  0  0  0  0
  2 35  1  0  0  0  0
  4  3  1  0  0  0  0
  5  3  2  0  0  0  0
  6 36  1  0  0  0  0
  6 37  1  0  0  0  0
  7 38  1  0  0  0  0
  7 39  1  0  0  0  0
  8  1  1  0  0  0  0
  8  4  2  0  0  0  0
  9  2  1  0  0  0  0
  9  5  1  0  0  0  0
  9 26  1  6  0  0  0
 10  6  1  0  0  0  0
 10 27  1  6  0  0  0
 11  7  1  0  0  0  0
 11  8  1  0  0  0  0
 11 10  1  0  0  0  0
 11 28  1  6  0  0  0
 12  6  1  0  0  0  0
 13 10  1  0  0  0  0
 13 15  1  0  0  0  0
 13 29  1  1  0  0  0
 14  9  1  0  0  0  0
 16  7  1  0  0  0  0
 16 13  1  0  0  0  0
 16 40  1  0  0  0  0
 17 12  2  0  0  0  0
 18 12  1  0  0  0  0
 18 41  1  0  0  0  0
 19 14  2  0  0  0  0
 20 14  1  0  0  0  0
 20 42  1  0  0  0  0
 21 15  2  0  0  0  0
 22 15  1  0  0  0  0
 22 43  1  0  0  0  0
 23  3  1  0  0  0  0
 24  4  1  0  0  0  0
 25  5  1  0  0  0  0
M  END
>  <DRUGBANK_ID>
DB02852

>  <SECONDARY_ACCESSION_NUMBERS>
EXPT01248

>  <COMMON_NAME>
Domoic Acid

>  <CAS_NUMBER>
14277-97-5

>  <UNII>
M02525818H

>  <SYNONYMS>
(-)-domoic acid; L-domoic acid

$$$$
