
 OpenBabel10282417072D

132137  0  0  0  0  0  0  0  0999 V2000
    1.7624    4.1328    0.0000 C   0  0  0  0  0  0  0  0  0  0  0  0
    1.4269    3.3791    0.0000 C   0  0  0  0  0  0  0  0  0  0  0  0
    1.9088    2.7130    0.0000 C   0  0  0  0  0  0  0  0  0  0  0  0
    2.7393    2.7947    0.0000 N   0  0  0  0  0  0  0  0  0  0  0  0
    3.0748    3.5485    0.0000 C   0  0  0  0  0  0  0  0  0  0  0  0
    2.5799    4.2205    0.0000 C   0  0  0  0  0  0  0  0  0  0  0  0
    3.8924    3.6360    0.0000 C   0  0  0  0  0  0  0  0  0  0  0  0
    4.3745    2.9698    0.0000 N   0  0  0  0  0  0  0  0  0  0  0  0
    5.1921    3.0574    0.0000 C   0  0  0  0  0  0  0  0  0  0  0  0
    5.6740    2.3913    0.0000 C   0  0  0  0  0  0  0  0  0  0  0  0
    6.4916    2.4788    0.0000 N   0  0  0  0  0  0  0  0  0  0  0  0
    6.9866    1.8069    0.0000 C   0  0  2  0  0  0  0  0  0  0  0  0
    7.8042    1.8944    0.0000 C   0  0  0  0  0  0  0  0  0  0  0  0
    8.2861    1.2282    0.0000 N   0  0  0  0  0  0  0  0  0  0  0  0
    8.1397    2.6482    0.0000 O   0  0  0  0  0  0  0  0  0  0  0  0
    6.6509    1.0531    0.0000 C   0  0  0  0  0  0  0  0  0  0  0  0
    5.3384    1.6375    0.0000 O   0  0  0  0  0  0  0  0  0  0  0  0
    5.5276    3.8112    0.0000 C   0  0  0  0  0  0  0  0  0  0  0  0
    4.2281    4.3898    0.0000 O   0  0  0  0  0  0  0  0  0  0  0  0
    1.5790    1.9722    0.0000 C   0  0  0  0  0  0  0  0  0  0  0  0
    0.6093    3.2916    0.0000 C   0  0  0  0  0  0  0  0  0  0  0  0
    0.0593    3.9100    0.0000 N   0  0  0  0  0  0  0  0  0  0  0  0
   -0.6962    3.5769    0.0000 C   0  0  0  0  0  0  0  0  0  0  0  0
   -0.6086    2.7593    0.0000 C   0  0  0  0  0  0  0  0  0  0  0  0
    0.2015    2.5855    0.0000 S   0  0  0  0  0  0  0  0  0  0  0  0
   -1.4023    3.9846    0.0000 C   0  0  0  0  0  0  0  0  0  0  0  0
   -2.1160    3.5706    0.0000 N   0  0  0  0  0  0  0  0  0  0  0  0
   -1.4074    4.8123    0.0000 O   0  0  0  0  0  0  0  0  0  0  0  0
    0.7657    1.7892    0.0000 C   0  0  0  0  0  0  0  0  0  0  0  0
    0.6813    0.9703    0.0000 O   0  0  0  0  0  0  0  0  0  0  0  0
    1.4351    0.6348    0.0000 C   0  0  0  0  0  0  0  0  0  0  0  0
    1.9872    1.2453    0.0000 N   0  0  0  0  0  0  0  0  0  0  0  0
    1.6050   -0.1726    0.0000 C   0  0  0  0  0  0  0  0  0  0  0  0
    1.0052   -0.7153    0.0000 N   0  0  0  0  0  0  0  0  0  0  0  0
    2.3993   -0.4172    0.0000 C   0  0  0  0  0  0  0  0  0  0  0  0
   -2.8349    3.9842    0.0000 C   0  0  2  0  0  0  0  0  0  0  0  0
   -3.5488    3.5701    0.0000 C   0  0  0  0  0  0  0  0  0  0  0  0
   -2.8402    4.8117    0.0000 C   0  0  2  0  0  0  0  0  0  0  0  0
   -2.1264    5.2259    0.0000 C   0  0  0  0  0  0  0  0  0  0  0  0
   -3.5463    5.2196    0.0000 O   0  0  0  0  0  0  0  0  0  0  0  0
   -3.5566    2.7482    0.0000 O   0  0  0  0  0  0  0  0  0  0  0  0
   -4.2678    3.9836    0.0000 N   0  0  0  0  0  0  0  0  0  0  0  0
   -4.9758    3.5826    0.0000 C   0  0  0  0  0  0  0  0  0  0  0  0
   -5.6818    3.9903    0.0000 C   0  0  0  0  0  0  0  0  0  0  0  0
   -5.6871    4.8180    0.0000 C   0  0  0  0  0  0  0  0  0  0  0  0
   -4.9707    2.7550    0.0000 C   0  0  0  0  0  0  0  0  0  0  0  0
   -5.6425    2.2601    0.0000 N   0  0  0  0  0  0  0  0  0  0  0  0
   -5.3845    1.4756    0.0000 C   0  0  0  0  0  0  0  0  0  0  0  0
   -4.5569    1.4808    0.0000 C   0  0  0  0  0  0  0  0  0  0  0  0
   -4.3123    2.2750    0.0000 O   0  0  0  0  0  0  0  0  0  0  0  0
   -5.9381    0.8968    0.0000 C   0  0  0  0  0  0  0  0  0  0  0  0
   -5.6295   -0.0191    0.0000 N   0  0  0  0  0  0  0  0  0  0  0  0
   -6.7527    1.0258    0.0000 O   0  0  0  0  0  0  0  0  0  0  0  0
   -6.0893   -0.7019    0.0000 C   0  0  0  0  0  0  0  0  0  0  0  0
   -5.7244   -1.4561    0.0000 C   0  0  0  0  0  0  0  0  0  0  0  0
   -6.9069   -0.6494    0.0000 C   0  0  0  0  0  0  0  0  0  0  0  0
   -4.9069   -1.5087    0.0000 N   0  0  0  0  0  0  0  0  0  0  0  0
   -6.1842   -2.1390    0.0000 O   0  0  0  0  0  0  0  0  0  0  0  0
   -4.5362   -2.2500    0.0000 C   0  0  2  0  0  0  0  0  0  0  0  0
   -3.7187   -2.3025    0.0000 C   0  0  0  0  0  0  0  0  0  0  0  0
   -3.3610   -3.0379    0.0000 O   0  0  0  0  0  0  0  0  0  0  0  0
   -3.2589   -1.6196    0.0000 N   0  0  0  0  0  0  0  0  0  0  0  0
   -4.9959   -2.9328    0.0000 C   0  0  0  0  0  0  0  0  0  0  0  0
   -4.6382   -3.6682    0.0000 O   0  0  0  0  0  0  0  0  0  0  0  0
   -5.8263   -2.8745    0.0000 C   0  0  0  0  0  0  0  0  0  0  0  0
   -5.4557   -3.6157    0.0000 C   0  0  0  0  0  0  0  0  0  0  0  0
   -2.4415   -1.6720    0.0000 C   0  0  0  0  0  0  0  0  0  0  0  0
   -1.9817   -0.9892    0.0000 C   0  0  0  0  0  0  0  0  0  0  0  0
   -2.0707   -2.4134    0.0000 C   0  0  0  0  0  0  0  0  0  0  0  0
   -2.4584   -3.1440    0.0000 O   0  0  0  0  0  0  0  0  0  0  0  0
   -1.8780   -3.7292    0.0000 C   0  0  0  0  0  0  0  0  0  0  0  0
   -1.1427   -3.3715    0.0000 C   0  0  0  0  0  0  0  0  0  0  0  0
   -1.2620   -2.5554    0.0000 N   0  0  0  0  0  0  0  0  0  0  0  0
   -2.0260   -4.5510    0.0000 C   0  0  0  0  0  0  0  0  0  0  0  0
   -0.4122   -3.7590    0.0000 C   0  0  0  0  0  0  0  0  0  0  0  0
    0.2813   -3.3204    0.0000 N   0  0  0  0  0  0  0  0  0  0  0  0
   -0.3880   -4.5795    0.0000 O   0  0  0  0  0  0  0  0  0  0  0  0
    0.2443   -2.4942    0.0000 C   0  0  0  0  0  0  0  0  0  0  0  0
    0.9193   -1.9227    0.0000 C   0  0  0  0  0  0  0  0  0  0  0  0
   -0.4733   -2.1124    0.0000 C   0  0  0  0  0  0  0  0  0  0  0  0
    1.6730   -2.2584    0.0000 O   0  0  0  0  0  0  0  0  0  0  0  0
    1.1549    4.9670    0.0000 H   0  0  0  0  0  0  0  0  0  0  0  0
    2.9956    5.1651    0.0000 H   0  0  0  0  0  0  0  0  0  0  0  0
    3.9741    2.0704    0.0000 H   0  0  0  0  0  0  0  0  0  0  0  0
    6.8882    3.3799    0.0000 H   0  0  0  0  0  0  0  0  0  0  0  0
    5.9228    1.6916    0.0000 H   0  0  0  0  0  0  0  0  0  0  0  0
    7.8838    0.3297    0.0000 H   0  0  0  0  0  0  0  0  0  0  0  0
    9.2654    1.3291    0.0000 H   0  0  0  0  0  0  0  0  0  0  0  0
    5.5868    0.9414    0.0000 H   0  0  0  0  0  0  0  0  0  0  0  0
    7.2797    0.1874    0.0000 H   0  0  0  0  0  0  0  0  0  0  0  0
    6.2156    0.0756    0.0000 H   0  0  0  0  0  0  0  0  0  0  0  0
    6.5539    3.9192    0.0000 H   0  0  0  0  0  0  0  0  0  0  0  0
    4.9209    4.6460    0.0000 H   0  0  0  0  0  0  0  0  0  0  0  0
   -1.3755    2.0687    0.0000 H   0  0  0  0  0  0  0  0  0  0  0  0
   -2.1142    2.5861    0.0000 H   0  0  0  0  0  0  0  0  0  0  0  0
   -0.0060    2.4744    0.0000 H   0  0  0  0  0  0  0  0  0  0  0  0
    0.1201   -0.2843    0.0000 H   0  0  0  0  0  0  0  0  0  0  0  0
    2.6294   -1.4232    0.0000 H   0  0  0  0  0  0  0  0  0  0  0  0
    3.1555    0.2851    0.0000 H   0  0  0  0  0  0  0  0  0  0  0  0
   -2.8330    2.9142    0.0000 H   0  0  0  0  0  0  0  0  0  0  0  0
   -3.7652    4.2738    0.0000 H   0  0  0  0  0  0  0  0  0  0  0  0
   -1.1986    4.6929    0.0000 H   0  0  0  0  0  0  0  0  0  0  0  0
   -2.1287    6.2959    0.0000 H   0  0  0  0  0  0  0  0  0  0  0  0
   -1.2009    5.7629    0.0000 H   0  0  0  0  0  0  0  0  0  0  0  0
   -3.5461    6.1896    0.0000 H   0  0  0  0  0  0  0  0  0  0  0  0
   -4.2646    4.9681    0.0000 H   0  0  0  0  0  0  0  0  0  0  0  0
   -6.5739    3.4715    0.0000 H   0  0  0  0  0  0  0  0  0  0  0  0
   -4.7639    5.3589    0.0000 H   0  0  0  0  0  0  0  0  0  0  0  0
   -6.6172    5.3471    0.0000 H   0  0  0  0  0  0  0  0  0  0  0  0
   -5.6940    5.8880    0.0000 H   0  0  0  0  0  0  0  0  0  0  0  0
   -3.9413    0.6525    0.0000 H   0  0  0  0  0  0  0  0  0  0  0  0
   -4.6538   -0.1505    0.0000 H   0  0  0  0  0  0  0  0  0  0  0  0
   -7.3646    0.2756    0.0000 H   0  0  0  0  0  0  0  0  0  0  0  0
   -7.4791   -1.5082    0.0000 H   0  0  0  0  0  0  0  0  0  0  0  0
   -4.3627   -0.6883    0.0000 H   0  0  0  0  0  0  0  0  0  0  0  0
   -5.6040   -2.1811    0.0000 H   0  0  0  0  0  0  0  0  0  0  0  0
   -3.6934   -0.7362    0.0000 H   0  0  0  0  0  0  0  0  0  0  0  0
   -5.1815   -4.4718    0.0000 H   0  0  0  0  0  0  0  0  0  0  0  0
   -6.2951   -1.9127    0.0000 H   0  0  0  0  0  0  0  0  0  0  0  0
   -6.4249   -3.7614    0.0000 H   0  0  0  0  0  0  0  0  0  0  0  0
   -6.8937   -2.7996    0.0000 H   0  0  0  0  0  0  0  0  0  0  0  0
   -6.5232   -3.5419    0.0000 H   0  0  0  0  0  0  0  0  0  0  0  0
   -4.9858   -4.5770    0.0000 H   0  0  0  0  0  0  0  0  0  0  0  0
   -6.0533   -4.5033    0.0000 H   0  0  0  0  0  0  0  0  0  0  0  0
   -0.9522   -1.0604    0.0000 H   0  0  0  0  0  0  0  0  0  0  0  0
   -2.4348   -0.0620    0.0000 H   0  0  0  0  0  0  0  0  0  0  0  0
   -3.0328   -4.9133    0.0000 H   0  0  0  0  0  0  0  0  0  0  0  0
   -1.2088   -5.2418    0.0000 H   0  0  0  0  0  0  0  0  0  0  0  0
   -2.2156   -5.6041    0.0000 H   0  0  0  0  0  0  0  0  0  0  0  0
    1.1541   -3.7759    0.0000 H   0  0  0  0  0  0  0  0  0  0  0  0
   -0.5090   -1.0810    0.0000 H   0  0  0  0  0  0  0  0  0  0  0  0
   -1.3486   -2.6590    0.0000 H   0  0  0  0  0  0  0  0  0  0  0  0
  1  2  2  0  0  0  0
  1  6  1  0  0  0  0
  1 82  1  0  0  0  0
  2  3  1  0  0  0  0
  2 21  1  0  0  0  0
  3  4  2  0  0  0  0
  3 20  1  0  0  0  0
  4  5  1  0  0  0  0
  5  6  2  0  0  0  0
  5  7  1  0  0  0  0
  6 83  1  0  0  0  0
  7  8  1  0  0  0  0
  7 19  2  0  0  0  0
  8  9  1  0  0  0  0
  8 84  1  0  0  0  0
  9 10  1  0  0  0  0
  9 18  2  0  0  0  0
 10 11  1  0  0  0  0
 10 17  2  0  0  0  0
 11 12  1  0  0  0  0
 11 85  1  0  0  0  0
 12 13  1  0  0  0  0
 12 16  1  0  0  0  0
 12 86  1  1  0  0  0
 13 14  1  0  0  0  0
 13 15  2  0  0  0  0
 14 87  1  0  0  0  0
 14 88  1  0  0  0  0
 16 89  1  0  0  0  0
 16 90  1  0  0  0  0
 16 91  1  0  0  0  0
 18 92  1  0  0  0  0
 18 93  1  0  0  0  0
 20 29  2  0  0  0  0
 20 32  1  0  0  0  0
 21 22  2  0  0  0  0
 21 25  1  0  0  0  0
 22 23  1  0  0  0  0
 23 24  2  0  0  0  0
 23 26  1  0  0  0  0
 24 25  1  0  0  0  0
 24 94  1  0  0  0  0
 26 27  1  0  0  0  0
 26 28  2  0  0  0  0
 27 95  1  0  0  0  0
 29 30  1  0  0  0  0
 29 96  1  0  0  0  0
 30 31  1  0  0  0  0
 31 32  2  0  0  0  0
 31 33  1  0  0  0  0
 33 34  1  0  0  0  0
 33 35  2  0  0  0  0
 34 79  1  0  0  0  0
 34 97  1  0  0  0  0
 35 98  1  0  0  0  0
 35 99  1  0  0  0  0
 36 27  1  0  0  0  0
 36 37  1  0  0  0  0
 36 38  1  0  0  0  0
 36100  1  1  0  0  0
 37 41  2  0  0  0  0
 37 42  1  0  0  0  0
 38 39  1  0  0  0  0
 38 40  1  0  0  0  0
 38101  1  6  0  0  0
 39102  1  0  0  0  0
 39103  1  0  0  0  0
 39104  1  0  0  0  0
 40105  1  0  0  0  0
 42 43  1  0  0  0  0
 42106  1  0  0  0  0
 43 44  2  0  0  0  0
 43 46  1  0  0  0  0
 44 45  1  0  0  0  0
 44107  1  0  0  0  0
 45108  1  0  0  0  0
 45109  1  0  0  0  0
 45110  1  0  0  0  0
 46 47  2  0  0  0  0
 46 50  1  0  0  0  0
 47 48  1  0  0  0  0
 48 49  2  0  0  0  0
 48 51  1  0  0  0  0
 49 50  1  0  0  0  0
 49111  1  0  0  0  0
 51 52  1  0  0  0  0
 51 53  2  0  0  0  0
 52 54  1  0  0  0  0
 52112  1  0  0  0  0
 54 55  1  0  0  0  0
 54 56  2  0  0  0  0
 55 57  1  0  0  0  0
 55 58  2  0  0  0  0
 56113  1  0  0  0  0
 56114  1  0  0  0  0
 57 59  1  0  0  0  0
 57115  1  0  0  0  0
 59 60  1  0  0  0  0
 59 63  1  0  0  0  0
 59116  1  1  0  0  0
 60 61  2  0  0  0  0
 60 62  1  0  0  0  0
 62 67  1  0  0  0  0
 62117  1  0  0  0  0
 63 64  1  0  0  0  0
 63 65  1  0  0  0  0
 63 66  1  0  0  0  0
 64118  1  0  0  0  0
 65119  1  0  0  0  0
 65120  1  0  0  0  0
 65121  1  0  0  0  0
 66122  1  0  0  0  0
 66123  1  0  0  0  0
 66124  1  0  0  0  0
 67 68  2  0  0  0  0
 67 69  1  0  0  0  0
 68125  1  0  0  0  0
 68126  1  0  0  0  0
 69 70  1  0  0  0  0
 69 73  2  0  0  0  0
 70 71  1  0  0  0  0
 71 72  2  0  0  0  0
 71 74  1  0  0  0  0
 72 73  1  0  0  0  0
 72 75  1  0  0  0  0
 74127  1  0  0  0  0
 74128  1  0  0  0  0
 74129  1  0  0  0  0
 75 76  1  0  0  0  0
 75 77  2  0  0  0  0
 76 78  1  0  0  0  0
 76130  1  0  0  0  0
 78 79  1  0  0  0  0
 78 80  2  0  0  0  0
 79 81  2  0  0  0  0
 80131  1  0  0  0  0
 80132  1  0  0  0  0
M  END
>  <DRUGBANK_ID>
DB15657

>  <COMMON_NAME>
Ala-geninthiocin

$$$$
