
 OpenBabel10282417072D

 66 70  0  0  0  0  0  0  0  0999 V2000
    5.6358    1.6515    0.0000 C   0  0  0  0  0  0  0  0  0  0  0  0
    5.0058    1.1189    0.0000 N   0  0  0  0  0  0  0  0  0  0  0  0
    4.2295    1.3982    0.0000 C   0  0  0  0  0  0  0  0  0  0  0  0
    4.0833    2.2101    0.0000 O   0  0  0  0  0  0  0  0  0  0  0  0
    3.5995    0.8656    0.0000 C   0  0  0  0  0  0  0  0  0  0  0  0
    3.6601    0.0428    0.0000 N   0  0  0  0  0  0  0  0  0  0  0  0
    2.8963   -0.2691    0.0000 N   0  0  0  0  0  0  0  0  0  0  0  0
    2.6996   -1.0703    0.0000 C   0  0  0  0  0  0  0  0  0  0  0  0
    2.3637    0.3610    0.0000 C   0  0  0  0  0  0  0  0  0  0  0  0
    2.7983    1.0622    0.0000 C   0  0  0  0  0  0  0  0  0  0  0  0
    2.4083    1.7892    0.0000 C   0  0  0  0  0  0  0  0  0  0  0  0
    3.1920    2.0470    0.0000 C   0  0  0  0  0  0  0  0  0  0  0  0
    2.2905    2.6058    0.0000 C   0  0  0  0  0  0  0  0  0  0  0  0
    1.5837    1.8150    0.0000 C   0  0  0  0  0  0  0  0  0  0  0  0
    1.1491    1.1137    0.0000 C   0  0  0  0  0  0  0  0  0  0  0  0
    1.5391    0.3867    0.0000 C   0  0  0  0  0  0  0  0  0  0  0  0
    1.1045   -0.3145    0.0000 N   0  0  0  0  0  0  0  0  0  0  0  0
    0.2799   -0.2887    0.0000 C   0  0  0  0  0  0  0  0  0  0  0  0
   -0.1547   -0.9900    0.0000 N   0  0  0  0  0  0  0  0  0  0  0  0
   -0.9793   -0.9642    0.0000 C   0  0  0  0  0  0  0  0  0  0  0  0
   -1.4140   -1.6655    0.0000 C   0  0  0  0  0  0  0  0  0  0  0  0
   -2.2386   -1.6397    0.0000 C   0  0  0  0  0  0  0  0  0  0  0  0
   -2.6285   -0.9127    0.0000 C   0  0  0  0  0  0  0  0  0  0  0  0
   -2.1939   -0.2115    0.0000 C   0  0  0  0  0  0  0  0  0  0  0  0
   -1.3693   -0.2372    0.0000 C   0  0  0  0  0  0  0  0  0  0  0  0
   -3.4531   -0.8869    0.0000 N   0  0  0  0  0  0  0  0  0  0  0  0
   -3.8878   -1.5882    0.0000 C   0  0  0  0  0  0  0  0  0  0  0  0
   -4.7123   -1.5624    0.0000 C   0  0  0  0  0  0  0  0  0  0  0  0
   -5.1023   -0.8354    0.0000 N   0  0  0  0  0  0  0  0  0  0  0  0
   -5.9269   -0.8096    0.0000 C   0  0  0  0  0  0  0  0  0  0  0  0
   -4.6677   -0.1342    0.0000 C   0  0  0  0  0  0  0  0  0  0  0  0
   -3.8431   -0.1599    0.0000 C   0  0  0  0  0  0  0  0  0  0  0  0
   -0.1101    0.4383    0.0000 N   0  0  0  0  0  0  0  0  0  0  0  0
    0.3245    1.1395    0.0000 C   0  0  0  0  0  0  0  0  0  0  0  0
    6.6426    1.2892    0.0000 H   0  0  0  0  0  0  0  0  0  0  0  0
    5.4461    2.7046    0.0000 H   0  0  0  0  0  0  0  0  0  0  0  0
    6.4529    2.3423    0.0000 H   0  0  0  0  0  0  0  0  0  0  0  0
    5.1803    0.1500    0.0000 H   0  0  0  0  0  0  0  0  0  0  0  0
    1.6721   -1.3689    0.0000 H   0  0  0  0  0  0  0  0  0  0  0  0
    3.4720   -1.8108    0.0000 H   0  0  0  0  0  0  0  0  0  0  0  0
    2.4445   -2.1094    0.0000 H   0  0  0  0  0  0  0  0  0  0  0  0
    3.9898    1.3339    0.0000 H   0  0  0  0  0  0  0  0  0  0  0  0
    3.4107    3.0944    0.0000 H   0  0  0  0  0  0  0  0  0  0  0  0
    4.2084    2.3814    0.0000 H   0  0  0  0  0  0  0  0  0  0  0  0
    3.1313    3.2676    0.0000 H   0  0  0  0  0  0  0  0  0  0  0  0
    1.2970    3.0030    0.0000 H   0  0  0  0  0  0  0  0  0  0  0  0
    2.1377    3.6648    0.0000 H   0  0  0  0  0  0  0  0  0  0  0  0
    1.0779    2.7579    0.0000 H   0  0  0  0  0  0  0  0  0  0  0  0
    0.5142    1.8484    0.0000 H   0  0  0  0  0  0  0  0  0  0  0  0
    0.3107   -1.8576    0.0000 H   0  0  0  0  0  0  0  0  0  0  0  0
   -0.9262   -2.5749    0.0000 H   0  0  0  0  0  0  0  0  0  0  0  0
   -2.7823   -2.5169    0.0000 H   0  0  0  0  0  0  0  0  0  0  0  0
   -2.6818    0.6979    0.0000 H   0  0  0  0  0  0  0  0  0  0  0  0
   -0.8257    0.6400    0.0000 H   0  0  0  0  0  0  0  0  0  0  0  0
   -3.3820   -2.5311    0.0000 H   0  0  0  0  0  0  0  0  0  0  0  0
   -4.4515   -2.4977    0.0000 H   0  0  0  0  0  0  0  0  0  0  0  0
   -5.2760   -2.4719    0.0000 H   0  0  0  0  0  0  0  0  0  0  0  0
   -5.7818   -1.5290    0.0000 H   0  0  0  0  0  0  0  0  0  0  0  0
   -6.4327    0.1333    0.0000 H   0  0  0  0  0  0  0  0  0  0  0  0
   -6.4906   -1.7191    0.0000 H   0  0  0  0  0  0  0  0  0  0  0  0
   -6.9964   -0.7761    0.0000 H   0  0  0  0  0  0  0  0  0  0  0  0
   -5.1735    0.8087    0.0000 H   0  0  0  0  0  0  0  0  0  0  0  0
   -4.1041    0.7753    0.0000 H   0  0  0  0  0  0  0  0  0  0  0  0
   -3.2795    0.7496    0.0000 H   0  0  0  0  0  0  0  0  0  0  0  0
   -2.7736   -0.1933    0.0000 H   0  0  0  0  0  0  0  0  0  0  0  0
   -0.1633    2.0489    0.0000 H   0  0  0  0  0  0  0  0  0  0  0  0
  1  2  1  0  0  0  0
  1 35  1  0  0  0  0
  1 36  1  0  0  0  0
  1 37  1  0  0  0  0
  2  3  1  0  0  0  0
  2 38  1  0  0  0  0
  3  4  2  0  0  0  0
  3  5  1  0  0  0  0
  5  6  2  0  0  0  0
  5 10  1  0  0  0  0
  6  7  1  0  0  0  0
  7  8  1  0  0  0  0
  7  9  1  0  0  0  0
  8 39  1  0  0  0  0
  8 40  1  0  0  0  0
  8 41  1  0  0  0  0
  9 10  2  0  0  0  0
  9 16  1  0  0  0  0
 10 11  1  0  0  0  0
 11 12  1  0  0  0  0
 11 13  1  0  0  0  0
 11 14  1  0  0  0  0
 12 42  1  0  0  0  0
 12 43  1  0  0  0  0
 12 44  1  0  0  0  0
 13 45  1  0  0  0  0
 13 46  1  0  0  0  0
 13 47  1  0  0  0  0
 14 15  1  0  0  0  0
 14 48  1  0  0  0  0
 14 49  1  0  0  0  0
 15 16  2  0  0  0  0
 15 34  1  0  0  0  0
 16 17  1  0  0  0  0
 17 18  2  0  0  0  0
 18 19  1  0  0  0  0
 18 33  1  0  0  0  0
 19 20  1  0  0  0  0
 19 50  1  0  0  0  0
 20 21  2  0  0  0  0
 20 25  1  0  0  0  0
 21 22  1  0  0  0  0
 21 51  1  0  0  0  0
 22 23  2  0  0  0  0
 22 52  1  0  0  0  0
 23 24  1  0  0  0  0
 23 26  1  0  0  0  0
 24 25  2  0  0  0  0
 24 53  1  0  0  0  0
 25 54  1  0  0  0  0
 26 27  1  0  0  0  0
 26 32  1  0  0  0  0
 27 28  1  0  0  0  0
 27 55  1  0  0  0  0
 27 56  1  0  0  0  0
 28 29  1  0  0  0  0
 28 57  1  0  0  0  0
 28 58  1  0  0  0  0
 29 30  1  0  0  0  0
 29 31  1  0  0  0  0
 30 59  1  0  0  0  0
 30 60  1  0  0  0  0
 30 61  1  0  0  0  0
 31 32  1  0  0  0  0
 31 62  1  0  0  0  0
 31 63  1  0  0  0  0
 32 64  1  0  0  0  0
 32 65  1  0  0  0  0
 33 34  2  0  0  0  0
 34 66  1  0  0  0  0
M  END
>  <DRUGBANK_ID>
DB16232

>  <COMMON_NAME>
Milciclib Maleate

>  <CAS_NUMBER>
802539-81-7

>  <UNII>
688000M8S8

>  <SYNONYMS>
Milciclib

$$$$
