
 OpenBabel10282417072D

 28 28  0  0  0  0  0  0  0  0999 V2000
   -2.1659    0.4216    0.0000 C   0  0  0  0  0  0  0  0  0  0  0  0
   -2.8749    0.0000    0.0000 C   0  0  0  0  0  0  0  0  0  0  0  0
   -1.4566    0.0000    0.0000 N   0  0  0  0  0  0  0  0  0  0  0  0
   -2.1659    1.2458    0.0000 N   0  0  0  0  0  0  0  0  0  0  0  0
   -0.7282    0.4216    0.0000 C   0  0  0  0  0  0  0  0  0  0  0  0
    0.0000    0.0000    0.0000 C   0  0  0  0  0  0  0  0  0  0  0  0
    0.7091    0.4216    0.0000 C   0  0  0  0  0  0  0  0  0  0  0  0
    0.0000   -0.8241    0.0000 C   0  0  0  0  0  0  0  0  0  0  0  0
    1.4375    0.0000    0.0000 C   0  0  0  0  0  0  0  0  0  0  0  0
    0.7091   -1.2458    0.0000 C   0  0  0  0  0  0  0  0  0  0  0  0
    1.4375   -0.8241    0.0000 C   0  0  0  0  0  0  0  0  0  0  0  0
    2.1466    0.4216    0.0000 C   0  0  0  0  0  0  0  0  0  0  0  0
    2.8749    0.0000    0.0000 N   0  0  0  0  0  0  0  0  0  0  0  0
   -3.8084    0.5230    0.0000 H   0  0  0  0  0  0  0  0  0  0  0  0
   -2.8611   -1.0699    0.0000 H   0  0  0  0  0  0  0  0  0  0  0  0
   -3.7946   -0.5469    0.0000 H   0  0  0  0  0  0  0  0  0  0  0  0
   -1.4623   -0.9845    0.0000 H   0  0  0  0  0  0  0  0  0  0  0  0
   -1.3133    1.7381    0.0000 H   0  0  0  0  0  0  0  0  0  0  0  0
   -0.7281    1.4916    0.0000 H   0  0  0  0  0  0  0  0  0  0  0  0
    0.1988    0.9560    0.0000 H   0  0  0  0  0  0  0  0  0  0  0  0
    0.7031    1.4536    0.0000 H   0  0  0  0  0  0  0  0  0  0  0  0
   -0.8971   -1.3343    0.0000 H   0  0  0  0  0  0  0  0  0  0  0  0
    0.7031   -2.2778    0.0000 H   0  0  0  0  0  0  0  0  0  0  0  0
    2.3315   -1.3396    0.0000 H   0  0  0  0  0  0  0  0  0  0  0  0
    2.1404    1.4916    0.0000 H   0  0  0  0  0  0  0  0  0  0  0  0
    3.0720    0.9588    0.0000 H   0  0  0  0  0  0  0  0  0  0  0  0
    2.8737   -1.0200    0.0000 H   0  0  0  0  0  0  0  0  0  0  0  0
    3.7588    0.5090    0.0000 H   0  0  0  0  0  0  0  0  0  0  0  0
  2  1  1  0  0  0  0
  2 14  1  0  0  0  0
  2 15  1  0  0  0  0
  2 16  1  0  0  0  0
  3  1  1  0  0  0  0
  3 17  1  0  0  0  0
  4  1  2  0  0  0  0
  4 18  1  0  0  0  0
  5  3  1  0  0  0  0
  5 19  1  0  0  0  0
  5 20  1  0  0  0  0
  6  5  1  0  0  0  0
  7  6  2  0  0  0  0
  7 21  1  0  0  0  0
  8  6  1  0  0  0  0
  8 22  1  0  0  0  0
  9  7  1  0  0  0  0
 10  8  2  0  0  0  0
 10 23  1  0  0  0  0
 11  9  2  0  0  0  0
 11 10  1  0  0  0  0
 11 24  1  0  0  0  0
 12  9  1  0  0  0  0
 12 25  1  0  0  0  0
 12 26  1  0  0  0  0
 13 12  1  0  0  0  0
 13 27  1  0  0  0  0
 13 28  1  0  0  0  0
M  END
>  <DRUGBANK_ID>
DB02044

>  <SECONDARY_ACCESSION_NUMBERS>
EXPT00036

>  <COMMON_NAME>
N-[3-(aminomethyl)benzyl]acetamidine

>  <UNII>
M1VB8VP8OH

$$$$
