
 OpenBabel10282417072D

 64 64  0  0  0  0  0  0  0  0999 V2000
    1.1192    0.0438    0.0000 S   0  0  0  0  0  0  0  0  0  0  0  0
    2.0166    1.9807    0.0000 O   0  0  0  0  0  0  0  0  0  0  0  0
    3.4687    1.7508    0.0000 O   0  0  0  0  0  0  0  0  0  0  0  0
    0.8204   -2.7984    0.0000 O   0  0  0  0  0  0  0  0  0  0  0  0
    0.0000   -2.7122    0.0000 O   0  0  0  0  0  0  0  0  0  0  0  0
   -3.7668   -3.0346    0.0000 O   0  0  0  0  0  0  0  0  0  0  0  0
   -2.6108   -3.8746    0.0000 O   0  0  0  0  0  0  0  0  0  0  0  0
    3.6174   -3.8108    0.0000 O   0  0  0  0  0  0  0  0  0  0  0  0
    3.7668   -2.3897    0.0000 O   0  0  0  0  0  0  0  0  0  0  0  0
    0.1493   -1.2911    0.0000 N   0  0  0  0  0  0  0  0  0  0  0  0
    2.1258   -2.2172    0.0000 N   0  0  0  0  0  0  0  0  0  0  0  0
   -2.7970   -1.6998    0.0000 N   0  0  0  0  0  0  0  0  0  0  0  0
    1.3492    1.4958    0.0000 C   0  0  1  0  0  0  0  0  0  0  0  0
    1.6041    0.7112    0.0000 C   0  0  2  0  0  0  0  0  0  0  0  0
    2.4291    0.7112    0.0000 C   0  0  0  0  0  0  0  0  0  0  0  0
    0.5645    1.7508    0.0000 C   0  0  0  0  0  0  0  0  0  0  0  0
    2.6840    1.4958    0.0000 C   0  0  1  0  0  0  0  0  0  0  0  0
    0.3930    2.5577    0.0000 C   0  0  0  0  0  0  0  0  0  0  0  0
   -0.3915    2.8126    0.0000 C   0  0  0  0  0  0  0  0  0  0  0  0
    1.4548   -0.7099    0.0000 C   0  0  0  0  0  0  0  0  0  0  0  0
    0.9698   -1.3773    0.0000 C   0  0  1  0  0  0  0  0  0  0  0  0
   -0.5630    3.6197    0.0000 C   0  0  0  0  0  0  0  0  0  0  0  0
    1.3054   -2.1309    0.0000 C   0  0  0  0  0  0  0  0  0  0  0  0
   -1.3477    3.8746    0.0000 C   0  0  0  0  0  0  0  0  0  0  0  0
   -0.3355   -1.9585    0.0000 C   0  0  0  0  0  0  0  0  0  0  0  0
   -1.1560   -1.8722    0.0000 C   0  0  0  0  0  0  0  0  0  0  0  0
   -1.6409   -2.5397    0.0000 C   0  0  0  0  0  0  0  0  0  0  0  0
   -2.4614   -2.4534    0.0000 C   0  0  1  0  0  0  0  0  0  0  0  0
    2.4614   -2.9709    0.0000 C   0  0  0  0  0  0  0  0  0  0  0  0
   -2.9464   -3.1209    0.0000 C   0  0  0  0  0  0  0  0  0  0  0  0
    3.2819   -3.0571    0.0000 C   0  0  0  0  0  0  0  0  0  0  0  0
    1.9037    0.1231    0.0000 H   0  0  0  0  0  0  0  0  0  0  0  0
   -0.0586   -0.8238    0.0000 H   0  0  0  0  0  0  0  0  0  0  0  0
    2.4265   -1.8034    0.0000 H   0  0  0  0  0  0  0  0  0  0  0  0
   -2.4963   -1.2860    0.0000 H   0  0  0  0  0  0  0  0  0  0  0  0
   -3.3057   -1.6463    0.0000 H   0  0  0  0  0  0  0  0  0  0  0  0
    4.1896    1.1018    0.0000 H   0  0  0  0  0  0  0  0  0  0  0  0
   -4.1478   -2.1786    0.0000 H   0  0  0  0  0  0  0  0  0  0  0  0
    3.0666   -4.5688    0.0000 H   0  0  0  0  0  0  0  0  0  0  0  0
    1.1818    2.5526    0.0000 H   0  0  0  0  0  0  0  0  0  0  0  0
    3.0580   -0.1544    0.0000 H   0  0  0  0  0  0  0  0  0  0  0  0
    3.4859    0.8786    0.0000 H   0  0  0  0  0  0  0  0  0  0  0  0
   -0.2307    1.0349    0.0000 H   0  0  0  0  0  0  0  0  0  0  0  0
   -0.4531    2.0815    0.0000 H   0  0  0  0  0  0  0  0  0  0  0  0
    2.8514    2.5526    0.0000 H   0  0  0  0  0  0  0  0  0  0  0  0
    1.1882    3.2737    0.0000 H   0  0  0  0  0  0  0  0  0  0  0  0
    0.1705    3.6043    0.0000 H   0  0  0  0  0  0  0  0  0  0  0  0
   -1.1867    2.0967    0.0000 H   0  0  0  0  0  0  0  0  0  0  0  0
   -1.4091    3.1433    0.0000 H   0  0  0  0  0  0  0  0  0  0  0  0
    2.5189   -0.8218    0.0000 H   0  0  0  0  0  0  0  0  0  0  0  0
    1.8899   -1.6874    0.0000 H   0  0  0  0  0  0  0  0  0  0  0  0
    0.5346   -0.3998    0.0000 H   0  0  0  0  0  0  0  0  0  0  0  0
    0.2322    4.3357    0.0000 H   0  0  0  0  0  0  0  0  0  0  0  0
   -0.7855    4.6663    0.0000 H   0  0  0  0  0  0  0  0  0  0  0  0
   -1.5702    4.9212    0.0000 H   0  0  0  0  0  0  0  0  0  0  0  0
   -2.1428    3.1586    0.0000 H   0  0  0  0  0  0  0  0  0  0  0  0
   -2.3654    4.2052    0.0000 H   0  0  0  0  0  0  0  0  0  0  0  0
   -1.5912   -0.8947    0.0000 H   0  0  0  0  0  0  0  0  0  0  0  0
   -2.2201   -1.7604    0.0000 H   0  0  0  0  0  0  0  0  0  0  0  0
   -1.2057   -3.5172    0.0000 H   0  0  0  0  0  0  0  0  0  0  0  0
   -2.2699   -3.4053    0.0000 H   0  0  0  0  0  0  0  0  0  0  0  0
   -1.8325   -1.5877    0.0000 H   0  0  0  0  0  0  0  0  0  0  0  0
    1.8325   -3.8366    0.0000 H   0  0  0  0  0  0  0  0  0  0  0  0
    2.8967   -3.9484    0.0000 H   0  0  0  0  0  0  0  0  0  0  0  0
  1 14  1  0  0  0  0
  1 20  1  0  0  0  0
  2 13  1  0  0  0  0
  2 17  1  0  0  0  0
  3 37  1  0  0  0  0
  4 23  2  0  0  0  0
  5 25  2  0  0  0  0
  6 30  1  0  0  0  0
  6 38  1  0  0  0  0
  7 30  2  0  0  0  0
  8 31  1  0  0  0  0
  8 39  1  0  0  0  0
  9 31  2  0  0  0  0
 10 25  1  0  0  0  0
 10 33  1  0  0  0  0
 11 23  1  0  0  0  0
 11 29  1  0  0  0  0
 11 34  1  0  0  0  0
 12 35  1  0  0  0  0
 12 36  1  0  0  0  0
 13 14  1  0  0  0  0
 13 16  1  0  0  0  0
 13 40  1  6  0  0  0
 14 15  1  0  0  0  0
 14 32  1  1  0  0  0
 15 17  1  0  0  0  0
 15 41  1  0  0  0  0
 15 42  1  0  0  0  0
 16 18  1  0  0  0  0
 16 43  1  0  0  0  0
 16 44  1  0  0  0  0
 17  3  1  0  0  0  0
 17 45  1  6  0  0  0
 18 19  1  0  0  0  0
 18 46  1  0  0  0  0
 18 47  1  0  0  0  0
 19 22  1  0  0  0  0
 19 48  1  0  0  0  0
 19 49  1  0  0  0  0
 20 21  1  0  0  0  0
 20 50  1  0  0  0  0
 20 51  1  0  0  0  0
 21 10  1  0  0  0  0
 21 23  1  0  0  0  0
 21 52  1  6  0  0  0
 22 24  1  0  0  0  0
 22 53  1  0  0  0  0
 22 54  1  0  0  0  0
 24 55  1  0  0  0  0
 24 56  1  0  0  0  0
 24 57  1  0  0  0  0
 25 26  1  0  0  0  0
 26 27  1  0  0  0  0
 26 58  1  0  0  0  0
 26 59  1  0  0  0  0
 27 28  1  0  0  0  0
 27 60  1  0  0  0  0
 27 61  1  0  0  0  0
 28 12  1  0  0  0  0
 28 30  1  0  0  0  0
 28 62  1  6  0  0  0
 29 31  1  0  0  0  0
 29 63  1  0  0  0  0
 29 64  1  0  0  0  0
M  END
>  <DRUGBANK_ID>
DB04521

>  <SECONDARY_ACCESSION_NUMBERS>
EXPT01689

>  <COMMON_NAME>
4-S-Glutathionyl-5-pentyl-tetrahydro-furan-2-ol

>  <SYNONYMS>
GSHNA

$$$$
