D28
 OpenBabel10282417072D

 37 39  0  0  0  0  0  0  0  0999 V2000
    7.6194    3.5966    0.0000 C   0  0  0  0  0  0  0  0  0  0  0  0
    7.6194    4.4216    0.0000 C   0  0  0  0  0  0  0  0  0  0  0  0
    8.2869    3.1116    0.0000 N   0  0  0  0  0  0  0  0  0  0  0  0
    6.9520    3.1116    0.0000 C   0  0  0  0  0  0  0  0  0  0  0  0
    6.9050    4.8341    0.0000 C   0  0  0  0  0  0  0  0  0  0  0  0
    8.3339    4.8341    0.0000 C   0  0  0  0  0  0  0  0  0  0  0  0
    8.0319    2.3270    0.0000 C   0  0  0  0  0  0  0  0  0  0  0  0
    7.2069    2.3270    0.0000 S   0  0  0  0  0  0  0  0  0  0  0  0
    6.9050    5.6591    0.0000 C   0  0  0  0  0  0  0  0  0  0  0  0
    8.3339    5.6591    0.0000 C   0  0  0  0  0  0  0  0  0  0  0  0
    8.5169    1.6596    0.0000 N   0  0  0  0  0  0  0  0  0  0  0  0
    7.6194    6.0716    0.0000 C   0  0  0  0  0  0  0  0  0  0  0  0
    6.1905    6.0716    0.0000 C   0  0  0  0  0  0  0  0  0  0  0  0
    8.1813    0.9059    0.0000 C   0  0  0  0  0  0  0  0  0  0  0  0
    7.6194    6.8966    0.0000 F   0  0  0  0  0  0  0  0  0  0  0  0
    8.6662    0.2385    0.0000 C   0  0  0  0  0  0  0  0  0  0  0  0
    7.3608    0.8197    0.0000 C   0  0  0  0  0  0  0  0  0  0  0  0
    8.3307   -0.5152    0.0000 C   0  0  0  0  0  0  0  0  0  0  0  0
    7.0253    0.0660    0.0000 C   0  0  0  0  0  0  0  0  0  0  0  0
    7.5102   -0.6014    0.0000 C   0  0  0  0  0  0  0  0  0  0  0  0
    8.8156   -1.1826    0.0000 O   0  0  0  0  0  0  0  0  0  0  0  0
    7.1746   -1.3551    0.0000 C   0  0  0  0  0  0  0  0  0  0  0  0
    7.6596   -2.0226    0.0000 O   0  0  0  0  0  0  0  0  0  0  0  0
    6.3541   -1.4414    0.0000 O   0  0  0  0  0  0  0  0  0  0  0  0
    5.9705    3.4305    0.0000 H   0  0  0  0  0  0  0  0  0  0  0  0
    6.0113    4.3181    0.0000 H   0  0  0  0  0  0  0  0  0  0  0  0
    9.2276    4.3181    0.0000 H   0  0  0  0  0  0  0  0  0  0  0  0
    9.2276    6.1751    0.0000 H   0  0  0  0  0  0  0  0  0  0  0  0
    9.4960    1.7625    0.0000 H   0  0  0  0  0  0  0  0  0  0  0  0
    6.1905    7.1416    0.0000 H   0  0  0  0  0  0  0  0  0  0  0  0
    5.2639    5.5366    0.0000 H   0  0  0  0  0  0  0  0  0  0  0  0
    5.2638    6.6066    0.0000 H   0  0  0  0  0  0  0  0  0  0  0  0
    9.6925    0.3464    0.0000 H   0  0  0  0  0  0  0  0  0  0  0  0
    6.7542    1.6546    0.0000 H   0  0  0  0  0  0  0  0  0  0  0  0
    5.9990   -0.0419    0.0000 H   0  0  0  0  0  0  0  0  0  0  0  0
    8.4345   -2.0386    0.0000 H   0  0  0  0  0  0  0  0  0  0  0  0
    7.2785   -2.8786    0.0000 H   0  0  0  0  0  0  0  0  0  0  0  0
  1  2  1  0  0  0  0
  1  3  1  0  0  0  0
  1  4  2  0  0  0  0
  2  5  1  0  0  0  0
  2  6  2  0  0  0  0
  3  7  2  0  0  0  0
  4  8  1  0  0  0  0
  4 25  1  0  0  0  0
  5  9  2  0  0  0  0
  5 26  1  0  0  0  0
  6 10  1  0  0  0  0
  6 27  1  0  0  0  0
  7  8  1  0  0  0  0
  7 11  1  0  0  0  0
  9 12  1  0  0  0  0
  9 13  1  0  0  0  0
 10 12  2  0  0  0  0
 10 28  1  0  0  0  0
 11 14  1  0  0  0  0
 11 29  1  0  0  0  0
 12 15  1  0  0  0  0
 13 30  1  0  0  0  0
 13 31  1  0  0  0  0
 13 32  1  0  0  0  0
 14 16  1  0  0  0  0
 14 17  2  0  0  0  0
 16 18  2  0  0  0  0
 16 33  1  0  0  0  0
 17 19  1  0  0  0  0
 17 34  1  0  0  0  0
 18 20  1  0  0  0  0
 18 21  1  0  0  0  0
 19 20  2  0  0  0  0
 19 35  1  0  0  0  0
 20 22  1  0  0  0  0
 21 36  1  0  0  0  0
 22 23  1  0  0  0  0
 22 24  2  0  0  0  0
 23 37  1  0  0  0  0
M  END
>  <DRUGBANK_ID>
DB07616

>  <COMMON_NAME>
4-{[4-(4-fluoro-3-methylphenyl)-1,3-thiazol-2-yl]amino}-2-hydroxybenzoic acid

$$$$
