
 OpenBabel10282417072D

 15 14  0  0  0  0  0  0  0  0999 V2000
   -0.3546    0.0000    0.0000 C   0  0  1  0  0  0  0  0  0  0  0  0
    0.3592    0.4126    0.0000 C   0  0  0  0  0  0  0  0  0  0  0  0
    0.3592    1.2379    0.0000 O   0  0  0  0  0  0  0  0  0  0  0  0
    1.0733    0.0000    0.0000 N   0  0  0  0  0  0  0  0  0  0  0  0
   -1.0687    0.4126    0.0000 N   0  0  0  0  0  0  0  0  0  0  0  0
   -0.3546   -0.8253    0.0000 C   0  0  0  0  0  0  0  0  0  0  0  0
   -1.0733   -1.2379    0.0000 S   0  0  0  0  0  0  0  0  0  0  0  0
    0.5722   -0.5348    0.0000 H   0  0  0  0  0  0  0  0  0  0  0  0
    1.0730   -0.9845    0.0000 H   0  0  0  0  0  0  0  0  0  0  0  0
    1.9261    0.4920    0.0000 H   0  0  0  0  0  0  0  0  0  0  0  0
   -1.0684    1.4326    0.0000 H   0  0  0  0  0  0  0  0  0  0  0  0
   -1.9522   -0.0971    0.0000 H   0  0  0  0  0  0  0  0  0  0  0  0
    0.5714   -1.3614    0.0000 H   0  0  0  0  0  0  0  0  0  0  0  0
   -0.3566   -1.8953    0.0000 H   0  0  0  0  0  0  0  0  0  0  0  0
   -2.2494   -0.5550    0.0000 H   0  0  0  0  0  0  0  0  0  0  0  0
  1  6  1  0  0  0  0
  1  8  1  1  0  0  0
  2  1  1  0  0  0  0
  3  2  2  0  0  0  0
  4  2  1  0  0  0  0
  4  9  1  0  0  0  0
  4 10  1  0  0  0  0
  5  1  1  0  0  0  0
  5 11  1  0  0  0  0
  5 12  1  0  0  0  0
  6 13  1  0  0  0  0
  6 14  1  0  0  0  0
  7  6  1  0  0  0  0
  7 15  1  0  0  0  0
M  END
>  <DRUGBANK_ID>
DB03275

>  <SECONDARY_ACCESSION_NUMBERS>
EXPT01073

>  <COMMON_NAME>
Cysteinamide

>  <CAS_NUMBER>
74401-72-2

>  <UNII>
055X467671

>  <SYNONYMS>
2-amino-3-mercapto-propionamide; L-Cysteinamide

$$$$
