466
 OpenBabel10282417072D

 77 85  0  0  1  0  0  0  0  0999 V2000
    0.9422    0.6555    0.0000 O   0  0  0  0  0  0  0  0  0  0  0  0
    0.9422    8.6860    0.0000 O   0  0  0  0  0  0  0  0  0  0  0  0
    1.1537    2.7650    0.0000 O   0  0  0  0  0  0  0  0  0  0  0  0
    1.1537   10.7954    0.0000 O   0  0  0  0  0  0  0  0  0  0  0  0
    3.4066    1.3061    0.0000 O   0  0  0  0  0  0  0  0  0  0  0  0
    5.6444    2.8381    0.0000 O   0  0  0  0  0  0  0  0  0  0  0  0
    3.4066    9.3365    0.0000 O   0  0  0  0  0  0  0  0  0  0  0  0
    5.6444   10.8685    0.0000 O   0  0  0  0  0  0  0  0  0  0  0  0
    0.0000    1.8881    0.0000 O   0  0  0  0  0  0  0  0  0  0  0  0
    0.0000    9.9185    0.0000 O   0  0  0  0  0  0  0  0  0  0  0  0
    2.7002    5.7038    0.0000 O   0  0  0  0  0  0  0  0  0  0  0  0
    5.8433    1.3267    0.0000 O   0  0  0  0  0  0  0  0  0  0  0  0
    5.8433    9.3572    0.0000 O   0  0  0  0  0  0  0  0  0  0  0  0
    1.8992    1.9772    0.0000 C   0  0  1  0  0  0  0  0  0  0  0  0
    1.3520    1.3663    0.0000 C   0  0  1  0  0  0  0  0  0  0  0  0
    1.8992   10.0076    0.0000 C   0  0  1  0  0  0  0  0  0  0  0  0
    2.6528    1.6416    0.0000 C   0  0  2  0  0  0  0  0  0  0  0  0
    1.3520    9.3967    0.0000 C   0  0  1  0  0  0  0  0  0  0  0  0
    1.7627    0.6564    0.0000 C   0  0  1  0  0  0  0  0  0  0  0  0
    2.6528    9.6721    0.0000 C   0  0  2  0  0  0  0  0  0  0  0  0
    1.7627    8.6869    0.0000 C   0  0  3  0  0  0  0  0  0  0  0  0
    1.9854    2.7977    0.0000 C   0  0  1  0  0  0  0  0  0  0  0  0
    2.5651    0.8262    0.0000 C   0  0  0  0  0  0  0  0  0  0  0  0
    3.9194    2.6673    0.0000 C   0  0  3  0  0  0  0  0  0  0  0  0
    1.9854   10.8281    0.0000 C   0  0  1  0  0  0  0  0  0  0  0  0
    2.5651    8.8567    0.0000 C   0  0  0  0  0  0  0  0  0  0  0  0
    4.1329    3.4642    0.0000 C   0  0  3  0  0  0  0  0  0  0  0  0
    3.5252    4.2748    0.0000 C   0  0  1  0  0  0  0  0  0  0  0  0
    3.9194   10.6977    0.0000 C   0  0  3  0  0  0  0  0  0  0  0  0
    4.1329   11.4946    0.0000 C   0  0  3  0  0  0  0  0  0  0  0  0
    0.8169    2.0038    0.0000 C   0  0  0  0  0  0  0  0  0  0  0  0
    3.5252   12.3053    0.0000 C   0  0  1  0  0  0  0  0  0  0  0  0
    1.8130    1.1567    0.0000 C   0  0  0  0  0  0  0  0  0  0  0  0
    0.8169   10.0343    0.0000 C   0  0  0  0  0  0  0  0  0  0  0  0
    1.8130    9.1872    0.0000 C   0  0  0  0  0  0  0  0  0  0  0  0
    5.4308    2.0412    0.0000 C   0  0  0  0  0  0  0  0  0  0  0  0
    3.1127    4.9893    0.0000 C   0  0  0  0  0  0  0  0  0  0  0  0
    5.4308   10.0717    0.0000 C   0  0  0  0  0  0  0  0  0  0  0  0
    3.1127   13.0198    0.0000 C   0  0  0  0  0  0  0  0  0  0  0  0
    3.8272    5.4018    0.0000 C   0  0  0  0  0  0  0  0  0  0  0  0
    2.3982    4.5768    0.0000 C   0  0  0  0  0  0  0  0  0  0  0  0
    3.5252   13.7342    0.0000 C   0  0  0  0  0  0  0  0  0  0  0  0
    2.2877   13.0198    0.0000 C   0  0  0  0  0  0  0  0  0  0  0  0
    1.8317    0.0000    0.0000 H   0  0  0  0  0  0  0  0  0  0  0  0
    2.0544    3.4541    0.0000 H   0  0  0  0  0  0  0  0  0  0  0  0
    2.0544   11.4845    0.0000 H   0  0  0  0  0  0  0  0  0  0  0  0
    3.5081    0.3414    0.0000 H   0  0  0  0  0  0  0  0  0  0  0  0
    3.5080    8.3718    0.0000 H   0  0  0  0  0  0  0  0  0  0  0  0
    3.1852    6.5438    0.0000 H   0  0  0  0  0  0  0  0  0  0  0  0
    0.8355    9.2210    0.0000 H   0  0  0  0  0  0  0  0  0  0  0  0
    3.3591    0.1089    0.0000 H   0  0  0  0  0  0  0  0  0  0  0  0
    2.2868   -0.2070    0.0000 H   0  0  0  0  0  0  0  0  0  0  0  0
    2.9053    3.0088    0.0000 H   0  0  0  0  0  0  0  0  0  0  0  0
    3.3591    8.1394    0.0000 H   0  0  0  0  0  0  0  0  0  0  0  0
    2.2868    7.8235    0.0000 H   0  0  0  0  0  0  0  0  0  0  0  0
    4.0838    2.3953    0.0000 H   0  0  0  0  0  0  0  0  0  0  0  0
    2.5323    3.8759    0.0000 H   0  0  0  0  0  0  0  0  0  0  0  0
    2.9054   11.0392    0.0000 H   0  0  0  0  0  0  0  0  0  0  0  0
    4.0838   10.4257    0.0000 H   0  0  0  0  0  0  0  0  0  0  0  0
    2.5323   11.9064    0.0000 H   0  0  0  0  0  0  0  0  0  0  0  0
    0.8355    0.7214    0.0000 H   0  0  0  0  0  0  0  0  0  0  0  0
    2.6787    0.5278    0.0000 H   0  0  0  0  0  0  0  0  0  0  0  0
    1.7012    0.0926    0.0000 H   0  0  0  0  0  0  0  0  0  0  0  0
    0.8355    8.7520    0.0000 H   0  0  0  0  0  0  0  0  0  0  0  0
    2.6787    8.5583    0.0000 H   0  0  0  0  0  0  0  0  0  0  0  0
    1.7012    8.1231    0.0000 H   0  0  0  0  0  0  0  0  0  0  0  0
    4.7538    4.8668    0.0000 H   0  0  0  0  0  0  0  0  0  0  0  0
    3.8272    6.4718    0.0000 H   0  0  0  0  0  0  0  0  0  0  0  0
    4.7539    5.9368    0.0000 H   0  0  0  0  0  0  0  0  0  0  0  0
    1.4716    5.1118    0.0000 H   0  0  0  0  0  0  0  0  0  0  0  0
    2.3982    3.5068    0.0000 H   0  0  0  0  0  0  0  0  0  0  0  0
    1.4715    4.0418    0.0000 H   0  0  0  0  0  0  0  0  0  0  0  0
    4.5952   13.7342    0.0000 H   0  0  0  0  0  0  0  0  0  0  0  0
    2.9902   14.6609    0.0000 H   0  0  0  0  0  0  0  0  0  0  0  0
    4.0602   14.6608    0.0000 H   0  0  0  0  0  0  0  0  0  0  0  0
    1.7717   13.9135    0.0000 H   0  0  0  0  0  0  0  0  0  0  0  0
    1.7717   12.1261    0.0000 H   0  0  0  0  0  0  0  0  0  0  0  0
  1 19  1  0  0  0  0
  2 21  1  0  0  0  0
  3 22  1  0  0  0  0
  3 31  1  0  0  0  0
  4 25  1  0  0  0  0
  4 34  1  0  0  0  0
  5 47  1  0  0  0  0
  6 27  1  0  0  0  0
  6 36  1  0  0  0  0
  7 48  1  0  0  0  0
  8 30  1  0  0  0  0
  8 38  1  0  0  0  0
  9 31  2  0  0  0  0
 10 34  2  0  0  0  0
 11 37  1  0  0  0  0
 11 49  1  0  0  0  0
 12 36  2  0  0  0  0
 13 38  2  0  0  0  0
 14 15  1  0  0  0  0
 14 17  1  0  0  0  0
 14 22  1  0  0  0  0
 14 33  1  1  0  0  0
 15  1  1  1  0  0  0
 15 19  1  0  0  0  0
 15 31  1  0  0  0  0
 16 18  1  0  0  0  0
 16 20  1  0  0  0  0
 16 25  1  0  0  0  0
 16 35  1  1  0  0  0
 17  5  1  1  0  0  0
 17 23  1  0  0  0  0
 17 24  1  0  0  0  0
 18  2  1  1  0  0  0
 18 21  1  0  0  0  0
 18 34  1  0  0  0  0
 19 23  1  0  0  0  0
 19 44  1  6  0  0  0
 20  7  1  1  0  0  0
 20 26  1  0  0  0  0
 20 29  1  0  0  0  0
 21 26  1  0  0  0  0
 21 50  1  0  0  0  0
 22 27  1  0  0  0  0
 22 45  1  1  0  0  0
 23 51  1  0  0  0  0
 23 52  1  0  0  0  0
 24 28  1  0  0  0  0
 24 36  1  0  0  0  0
 24 53  1  0  0  0  0
 25 30  1  0  0  0  0
 25 46  1  1  0  0  0
 26 54  1  0  0  0  0
 26 55  1  0  0  0  0
 27 28  1  0  0  0  0
 27 56  1  0  0  0  0
 28 37  1  0  0  0  0
 28 57  1  1  0  0  0
 29 32  1  0  0  0  0
 29 38  1  0  0  0  0
 29 58  1  0  0  0  0
 30 32  1  0  0  0  0
 30 59  1  0  0  0  0
 32 39  1  0  0  0  0
 32 60  1  1  0  0  0
 33 61  1  0  0  0  0
 33 62  1  0  0  0  0
 33 63  1  0  0  0  0
 35 64  1  0  0  0  0
 35 65  1  0  0  0  0
 35 66  1  0  0  0  0
 37 40  1  0  0  0  0
 37 41  1  0  0  0  0
 39 42  1  0  0  0  0
 39 43  2  0  0  0  0
 40 67  1  0  0  0  0
 40 68  1  0  0  0  0
 40 69  1  0  0  0  0
 41 70  1  0  0  0  0
 41 71  1  0  0  0  0
 41 72  1  0  0  0  0
 42 73  1  0  0  0  0
 42 74  1  0  0  0  0
 42 75  1  0  0  0  0
 43 76  1  0  0  0  0
 43 77  1  0  0  0  0
M  END
>  <DRUGBANK_ID>
DB00466

>  <SECONDARY_ACCESSION_NUMBERS>
APRD00269

>  <COMMON_NAME>
Picrotoxin

>  <CAS_NUMBER>
124-87-8

>  <UNII>
ZLT174DL7U

>  <SYNONYMS>
cocculin

$$$$
