347
 OpenBabel10282417072D

 19 19  0  0  0  0  0  0  0  0999 V2000
    2.6897    0.6348    0.0000 O   0  0  0  0  0  0  0  0  0  0  0  0
    4.5544   -0.4049    0.0000 O   0  0  0  0  0  0  0  0  0  0  0  0
    1.6501   -0.4049    0.0000 O   0  0  0  0  0  0  0  0  0  0  0  0
    3.1023   -0.6348    0.0000 N   0  0  0  0  0  0  0  0  0  0  0  0
    3.5148    0.6348    0.0000 C   0  0  0  0  0  0  0  0  0  0  0  0
    3.7697   -0.1498    0.0000 C   0  0  0  0  0  0  0  0  0  0  0  0
    4.2994    0.8897    0.0000 C   0  0  0  0  0  0  0  0  0  0  0  0
    3.5148    1.4598    0.0000 C   0  0  0  0  0  0  0  0  0  0  0  0
    2.4348   -0.1498    0.0000 C   0  0  0  0  0  0  0  0  0  0  0  0
    3.1023   -1.4598    0.0000 C   0  0  0  0  0  0  0  0  0  0  0  0
    5.0945    0.1737    0.0000 H   0  0  0  0  0  0  0  0  0  0  0  0
    4.5219    1.9363    0.0000 H   0  0  0  0  0  0  0  0  0  0  0  0
    5.3170    1.2203    0.0000 H   0  0  0  0  0  0  0  0  0  0  0  0
    4.4414    1.9948    0.0000 H   0  0  0  0  0  0  0  0  0  0  0  0
    2.5882    1.9948    0.0000 H   0  0  0  0  0  0  0  0  0  0  0  0
    3.5148    2.5298    0.0000 H   0  0  0  0  0  0  0  0  0  0  0  0
    2.1757   -1.9948    0.0000 H   0  0  0  0  0  0  0  0  0  0  0  0
    4.0289   -1.9948    0.0000 H   0  0  0  0  0  0  0  0  0  0  0  0
    3.1023   -2.5298    0.0000 H   0  0  0  0  0  0  0  0  0  0  0  0
  1  5  1  0  0  0  0
  1  9  1  0  0  0  0
  2  6  2  0  0  0  0
  3  9  2  0  0  0  0
  4  6  1  0  0  0  0
  4  9  1  0  0  0  0
  4 10  1  0  0  0  0
  5  6  1  0  0  0  0
  5  7  1  0  0  0  0
  5  8  1  0  0  0  0
  7 11  1  0  0  0  0
  7 12  1  0  0  0  0
  7 13  1  0  0  0  0
  8 14  1  0  0  0  0
  8 15  1  0  0  0  0
  8 16  1  0  0  0  0
 10 17  1  0  0  0  0
 10 18  1  0  0  0  0
 10 19  1  0  0  0  0
M  END
>  <DRUGBANK_ID>
DB00347

>  <SECONDARY_ACCESSION_NUMBERS>
APRD00315

>  <COMMON_NAME>
Trimethadione

>  <CAS_NUMBER>
127-48-0

>  <UNII>
R7GV3H6FQ4

>  <SYNONYMS>
Trimetadiona; Trimethadion; Trimethadione; Trim√©thadione; Trimethadionum; Trimethinum; Troxidone

$$$$
