
 OpenBabel10282417072D

 30 31  0  0  0  0  0  0  0  0999 V2000
   -0.3572    1.0312    0.0000 C   0  0  0  0  0  0  0  0  0  0  0  0
   -0.3572    0.2062    0.0000 N   0  0  0  0  0  0  0  0  0  0  0  0
   -1.0717   -0.2062    0.0000 C   0  0  0  0  0  0  0  0  0  0  0  0
   -1.0717   -1.0312    0.0000 N   0  0  0  0  0  0  0  0  0  0  0  0
   -0.3572   -1.4437    0.0000 C   0  0  0  0  0  0  0  0  0  0  0  0
   -0.3572   -2.2687    0.0000 C   0  0  0  0  0  0  0  0  0  0  0  0
   -1.0717   -2.6812    0.0000 O   0  0  0  0  0  0  0  0  0  0  0  0
   -1.7861   -2.2687    0.0000 C   0  0  0  0  0  0  0  0  0  0  0  0
   -1.7861   -1.4437    0.0000 C   0  0  0  0  0  0  0  0  0  0  0  0
   -1.0717    1.4437    0.0000 O   0  0  0  0  0  0  0  0  0  0  0  0
    0.3572    1.4437    0.0000 C   0  0  0  0  0  0  0  0  0  0  0  0
    0.3572    2.2687    0.0000 C   0  0  0  0  0  0  0  0  0  0  0  0
    1.0717    2.6812    0.0000 N   0  0  0  0  0  0  0  0  0  0  0  0
    1.7861    2.2687    0.0000 C   0  0  0  0  0  0  0  0  0  0  0  0
    1.7861    1.4437    0.0000 C   0  0  0  0  0  0  0  0  0  0  0  0
    1.0717    1.0312    0.0000 N   0  0  0  0  0  0  0  0  0  0  0  0
    0.4954   -0.2861    0.0000 H   0  0  0  0  0  0  0  0  0  0  0  0
   -1.9983    0.3289    0.0000 H   0  0  0  0  0  0  0  0  0  0  0  0
   -1.9984   -0.7412    0.0000 H   0  0  0  0  0  0  0  0  0  0  0  0
    0.5694   -0.9087    0.0000 H   0  0  0  0  0  0  0  0  0  0  0  0
    0.5694   -1.9787    0.0000 H   0  0  0  0  0  0  0  0  0  0  0  0
    0.5694   -2.8037    0.0000 H   0  0  0  0  0  0  0  0  0  0  0  0
   -0.3572   -3.3387    0.0000 H   0  0  0  0  0  0  0  0  0  0  0  0
   -2.7128   -2.8037    0.0000 H   0  0  0  0  0  0  0  0  0  0  0  0
   -2.7127   -1.7337    0.0000 H   0  0  0  0  0  0  0  0  0  0  0  0
   -2.7128   -0.9087    0.0000 H   0  0  0  0  0  0  0  0  0  0  0  0
   -1.7861   -0.3737    0.0000 H   0  0  0  0  0  0  0  0  0  0  0  0
   -0.5365    2.7847    0.0000 H   0  0  0  0  0  0  0  0  0  0  0  0
    2.6798    2.7847    0.0000 H   0  0  0  0  0  0  0  0  0  0  0  0
    2.6798    0.9277    0.0000 H   0  0  0  0  0  0  0  0  0  0  0  0
  1  2  1  0  0  0  0
  1 10  2  0  0  0  0
  1 11  1  0  0  0  0
  2  3  1  0  0  0  0
  2 17  1  0  0  0  0
  3  4  1  0  0  0  0
  3 18  1  0  0  0  0
  3 19  1  0  0  0  0
  4  5  1  0  0  0  0
  4  9  1  0  0  0  0
  5  6  1  0  0  0  0
  5 20  1  0  0  0  0
  5 21  1  0  0  0  0
  6  7  1  0  0  0  0
  6 22  1  0  0  0  0
  6 23  1  0  0  0  0
  7  8  1  0  0  0  0
  8  9  1  0  0  0  0
  8 24  1  0  0  0  0
  8 25  1  0  0  0  0
  9 26  1  0  0  0  0
  9 27  1  0  0  0  0
 11 12  1  0  0  0  0
 11 16  2  0  0  0  0
 12 13  2  0  0  0  0
 12 28  1  0  0  0  0
 13 14  1  0  0  0  0
 14 15  2  0  0  0  0
 14 29  1  0  0  0  0
 15 16  1  0  0  0  0
 15 30  1  0  0  0  0
M  END
>  <DRUGBANK_ID>
DB13417

>  <COMMON_NAME>
Morinamide

>  <CAS_NUMBER>
952-54-5

>  <UNII>
8CFL28PA3W

>  <SYNONYMS>
Morinamide

$$$$
