
 OpenBabel10282417072D

 62 63  0  0  0  0  0  0  0  0999 V2000
   -0.8166   -6.9599    0.0000 C   0  0  0  0  0  0  0  0  0  0  0  0
   -0.1021   -7.3724    0.0000 C   0  0  0  0  0  0  0  0  0  0  0  0
    0.6124   -6.9599    0.0000 C   0  0  0  0  0  0  0  0  0  0  0  0
    1.3268   -7.3724    0.0000 C   0  0  0  0  0  0  0  0  0  0  0  0
    2.0413   -6.9599    0.0000 O   0  0  0  0  0  0  0  0  0  0  0  0
    2.7558   -7.3724    0.0000 C   0  0  0  0  0  0  0  0  0  0  0  0
    3.4703   -6.9599    0.0000 C   0  0  0  0  0  0  0  0  0  0  0  0
    3.4703   -6.1349    0.0000 O   0  0  0  0  0  0  0  0  0  0  0  0
    4.1847   -5.7224    0.0000 C   0  0  0  0  0  0  0  0  0  0  0  0
    4.1847   -7.3724    0.0000 C   0  0  0  0  0  0  0  0  0  0  0  0
    4.1847   -8.1974    0.0000 C   0  0  0  0  0  0  0  0  0  0  0  0
    3.4703   -8.6099    0.0000 C   0  0  0  0  0  0  0  0  0  0  0  0
    2.7558   -8.1974    0.0000 C   0  0  0  0  0  0  0  0  0  0  0  0
    2.0413   -8.6099    0.0000 O   0  0  0  0  0  0  0  0  0  0  0  0
    1.3268   -8.1974    0.0000 C   0  0  0  0  0  0  0  0  0  0  0  0
    4.8992   -8.6099    0.0000 C   0  0  0  0  0  0  0  0  0  0  0  0
    4.8992   -9.4349    0.0000 O   0  0  0  0  0  0  0  0  0  0  0  0
    5.6137   -8.1974    0.0000 N   0  0  0  0  0  0  0  0  0  0  0  0
    6.3281   -8.6099    0.0000 C   0  0  0  0  0  0  0  0  0  0  0  0
    7.0426   -8.1974    0.0000 C   0  0  0  0  0  0  0  0  0  0  0  0
    7.5729   -7.5655    0.0000 C   0  0  0  0  0  0  0  0  0  0  0  0
    8.3854   -7.7087    0.0000 C   0  0  0  0  0  0  0  0  0  0  0  0
    8.6675   -8.4840    0.0000 O   0  0  0  0  0  0  0  0  0  0  0  0
    8.1372   -9.1159    0.0000 C   0  0  0  0  0  0  0  0  0  0  0  0
    7.3248   -8.9727    0.0000 C   0  0  0  0  0  0  0  0  0  0  0  0
    6.5123   -7.5655    0.0000 N   0  0  0  0  0  0  0  0  0  0  0  0
    6.7945   -6.7902    0.0000 C   0  0  0  0  0  0  0  0  0  0  0  0
    5.6998   -7.7087    0.0000 C   0  0  0  0  0  0  0  0  0  0  0  0
   -0.8166   -5.8899    0.0000 H   0  0  0  0  0  0  0  0  0  0  0  0
   -1.7432   -7.4949    0.0000 H   0  0  0  0  0  0  0  0  0  0  0  0
   -1.7433   -6.4249    0.0000 H   0  0  0  0  0  0  0  0  0  0  0  0
   -0.1021   -8.4424    0.0000 H   0  0  0  0  0  0  0  0  0  0  0  0
    0.8245   -7.9074    0.0000 H   0  0  0  0  0  0  0  0  0  0  0  0
    0.6124   -5.8899    0.0000 H   0  0  0  0  0  0  0  0  0  0  0  0
    1.5391   -6.4249    0.0000 H   0  0  0  0  0  0  0  0  0  0  0  0
    1.3268   -8.4424    0.0000 H   0  0  0  0  0  0  0  0  0  0  0  0
    2.2534   -7.9074    0.0000 H   0  0  0  0  0  0  0  0  0  0  0  0
    5.1114   -6.2574    0.0000 H   0  0  0  0  0  0  0  0  0  0  0  0
    4.1847   -4.6524    0.0000 H   0  0  0  0  0  0  0  0  0  0  0  0
    5.1113   -5.1874    0.0000 H   0  0  0  0  0  0  0  0  0  0  0  0
    5.0784   -6.8564    0.0000 H   0  0  0  0  0  0  0  0  0  0  0  0
    3.4703   -9.6419    0.0000 H   0  0  0  0  0  0  0  0  0  0  0  0
    1.3268   -7.1274    0.0000 H   0  0  0  0  0  0  0  0  0  0  0  0
    0.4002   -8.7324    0.0000 H   0  0  0  0  0  0  0  0  0  0  0  0
    0.4001   -7.6624    0.0000 H   0  0  0  0  0  0  0  0  0  0  0  0
    5.6137   -7.2129    0.0000 H   0  0  0  0  0  0  0  0  0  0  0  0
    6.3281   -9.6799    0.0000 H   0  0  0  0  0  0  0  0  0  0  0  0
    7.2547   -9.1449    0.0000 H   0  0  0  0  0  0  0  0  0  0  0  0
    7.2069   -6.5600    0.0000 H   0  0  0  0  0  0  0  0  0  0  0  0
    8.2606   -6.7458    0.0000 H   0  0  0  0  0  0  0  0  0  0  0  0
    9.0732   -6.8890    0.0000 H   0  0  0  0  0  0  0  0  0  0  0  0
    9.4391   -7.8946    0.0000 H   0  0  0  0  0  0  0  0  0  0  0  0
    8.5032  -10.1214    0.0000 H   0  0  0  0  0  0  0  0  0  0  0  0
    7.4494   -9.9356    0.0000 H   0  0  0  0  0  0  0  0  0  0  0  0
    6.6370   -9.7924    0.0000 H   0  0  0  0  0  0  0  0  0  0  0  0
    6.2711   -8.7869    0.0000 H   0  0  0  0  0  0  0  0  0  0  0  0
    7.8482   -6.6044    0.0000 H   0  0  0  0  0  0  0  0  0  0  0  0
    6.1067   -5.9705    0.0000 H   0  0  0  0  0  0  0  0  0  0  0  0
    7.1605   -5.7847    0.0000 H   0  0  0  0  0  0  0  0  0  0  0  0
    5.0121   -6.8890    0.0000 H   0  0  0  0  0  0  0  0  0  0  0  0
    5.3338   -8.7141    0.0000 H   0  0  0  0  0  0  0  0  0  0  0  0
    4.6460   -7.8944    0.0000 H   0  0  0  0  0  0  0  0  0  0  0  0
  1  2  1  0  0  0  0
  1 29  1  0  0  0  0
  1 30  1  0  0  0  0
  1 31  1  0  0  0  0
  2  3  1  0  0  0  0
  2 32  1  0  0  0  0
  2 33  1  0  0  0  0
  3  4  1  0  0  0  0
  3 34  1  0  0  0  0
  3 35  1  0  0  0  0
  4  5  1  0  0  0  0
  4 36  1  0  0  0  0
  4 37  1  0  0  0  0
  5  6  1  0  0  0  0
  6  7  2  0  0  0  0
  6 13  1  0  0  0  0
  7  8  1  0  0  0  0
  7 10  1  0  0  0  0
  8  9  1  0  0  0  0
  9 38  1  0  0  0  0
  9 39  1  0  0  0  0
  9 40  1  0  0  0  0
 10 11  2  0  0  0  0
 10 41  1  0  0  0  0
 11 12  1  0  0  0  0
 11 16  1  0  0  0  0
 12 13  2  0  0  0  0
 12 42  1  0  0  0  0
 13 14  1  0  0  0  0
 14 15  1  0  0  0  0
 15 43  1  0  0  0  0
 15 44  1  0  0  0  0
 15 45  1  0  0  0  0
 16 17  2  0  0  0  0
 16 18  1  0  0  0  0
 18 19  1  0  0  0  0
 18 46  1  0  0  0  0
 19 20  1  0  0  0  0
 19 47  1  0  0  0  0
 19 48  1  0  0  0  0
 20 21  1  0  0  0  0
 20 25  1  0  0  0  0
 20 26  1  0  0  0  0
 21 22  1  0  0  0  0
 21 49  1  0  0  0  0
 21 50  1  0  0  0  0
 22 23  1  0  0  0  0
 22 51  1  0  0  0  0
 22 52  1  0  0  0  0
 23 24  1  0  0  0  0
 24 25  1  0  0  0  0
 24 53  1  0  0  0  0
 24 54  1  0  0  0  0
 25 55  1  0  0  0  0
 25 56  1  0  0  0  0
 26 27  1  0  0  0  0
 26 28  1  0  0  0  0
 27 57  1  0  0  0  0
 27 58  1  0  0  0  0
 27 59  1  0  0  0  0
 28 60  1  0  0  0  0
 28 61  1  0  0  0  0
 28 62  1  0  0  0  0
M  END
>  <DRUGBANK_ID>
DB16271

>  <COMMON_NAME>
Opiranserin

>  <CAS_NUMBER>
1441000-45-8

>  <UNII>
AP031EC2NI

>  <SYNONYMS>
Opiranserin; Vvz-149 free base

$$$$
