1477
 OpenBabel10282417072D

 48 51  0  0  1  0  0  0  0  0999 V2000
    0.0000    2.8384    0.0000 Br  0  5  0  0  0  0  0  0  0  0  0  0
    2.9071    2.6673    0.0000 O   0  0  0  0  0  0  0  0  0  0  0  0
    2.7064    0.5378    0.0000 O   0  0  0  0  0  0  0  0  0  0  0  0
    2.7064    4.7052    0.0000 O   0  0  0  0  0  0  0  0  0  0  0  0
    6.3153    1.7965    0.0000 N   0  3  0  0  0  0  0  0  0  0  0  0
    4.1720    2.2090    0.0000 C   0  0  2  0  0  0  0  0  0  0  0  0
    4.8864    1.7965    0.0000 C   0  0  2  0  0  0  0  0  0  0  0  0
    5.6009    2.2090    0.0000 C   0  0  1  0  0  0  0  0  0  0  0  0
    4.6487    2.8140    0.0000 C   0  0  0  0  0  0  0  0  0  0  0  0
    3.4575    1.7965    0.0000 C   0  0  2  0  0  0  0  0  0  0  0  0
    4.1720    3.0340    0.0000 C   0  0  0  0  0  0  0  0  0  0  0  0
    5.8220    2.8140    0.0000 C   0  0  0  0  0  0  0  0  0  0  0  0
    5.6009    3.0340    0.0000 C   0  0  0  0  0  0  0  0  0  0  0  0
    4.8864    3.4464    0.0000 C   0  0  0  0  0  0  0  0  0  0  0  0
    4.8864    0.9715    0.0000 C   0  0  0  0  0  0  0  0  0  0  0  0
    3.4575    0.9715    0.0000 C   0  0  2  0  0  0  0  0  0  0  0  0
    3.4575    3.4464    0.0000 C   0  0  0  0  0  0  0  0  0  0  0  0
    7.1446    1.5419    0.0000 C   0  0  0  0  0  0  0  0  0  0  0  0
    6.5096    0.9510    0.0000 C   0  0  0  0  0  0  0  0  0  0  0  0
    4.1720    0.5591    0.0000 C   0  0  0  0  0  0  0  0  0  0  0  0
    4.8864    4.2714    0.0000 C   0  0  0  0  0  0  0  0  0  0  0  0
    3.4575    4.2714    0.0000 C   0  0  0  0  0  0  0  0  0  0  0  0
    4.1720    4.6839    0.0000 C   0  0  0  0  0  0  0  0  0  0  0  0
    2.7064    5.5726    0.0000 C   0  0  0  0  0  0  0  0  0  0  0  0
    5.3326    1.2649    0.0000 H   0  0  0  0  0  0  0  0  0  0  0  0
    5.8388    1.5571    0.0000 H   0  0  0  0  0  0  0  0  0  0  0  0
    2.7910    1.6034    0.0000 H   0  0  0  0  0  0  0  0  0  0  0  0
    1.8663    1.0228    0.0000 H   0  0  0  0  0  0  0  0  0  0  0  0
    4.1816    3.7767    0.0000 H   0  0  0  0  0  0  0  0  0  0  0  0
    5.2166    3.7208    0.0000 H   0  0  0  0  0  0  0  0  0  0  0  0
    6.3901    3.7207    0.0000 H   0  0  0  0  0  0  0  0  0  0  0  0
    5.3038    3.7501    0.0000 H   0  0  0  0  0  0  0  0  0  0  0  0
    6.5275    3.5691    0.0000 H   0  0  0  0  0  0  0  0  0  0  0  0
    5.6008    4.1040    0.0000 H   0  0  0  0  0  0  0  0  0  0  0  0
    5.7801    0.4555    0.0000 H   0  0  0  0  0  0  0  0  0  0  0  0
    2.5308    1.5065    0.0000 H   0  0  0  0  0  0  0  0  0  0  0  0
    7.3841    0.4990    0.0000 H   0  0  0  0  0  0  0  0  0  0  0  0
    7.9280    2.2707    0.0000 H   0  0  0  0  0  0  0  0  0  0  0  0
    8.1675    1.2279    0.0000 H   0  0  0  0  0  0  0  0  0  0  0  0
    5.7263    0.2221    0.0000 H   0  0  0  0  0  0  0  0  0  0  0  0
    7.5325    0.6371    0.0000 H   0  0  0  0  0  0  0  0  0  0  0  0
    6.7492   -0.0918    0.0000 H   0  0  0  0  0  0  0  0  0  0  0  0
    4.1720   -0.4729    0.0000 H   0  0  0  0  0  0  0  0  0  0  0  0
    5.7801    4.7874    0.0000 H   0  0  0  0  0  0  0  0  0  0  0  0
    4.1720    5.7159    0.0000 H   0  0  0  0  0  0  0  0  0  0  0  0
    3.6330    6.1076    0.0000 H   0  0  0  0  0  0  0  0  0  0  0  0
    1.7798    6.1076    0.0000 H   0  0  0  0  0  0  0  0  0  0  0  0
    2.7064    6.6426    0.0000 H   0  0  0  0  0  0  0  0  0  0  0  0
  2 10  1  0  0  0  0
  2 17  1  0  0  0  0
  3 28  1  0  0  0  0
  4 22  1  0  0  0  0
  4 24  1  0  0  0  0
  5  8  1  0  0  0  0
  5 12  1  0  0  0  0
  5 18  1  0  0  0  0
  5 19  1  0  0  0  0
  6  7  1  0  0  0  0
  6  9  1  0  0  0  0
  6 10  1  0  0  0  0
  6 11  1  6  0  0  0
  7  8  1  0  0  0  0
  7 15  1  0  0  0  0
  7 25  1  1  0  0  0
  8 13  1  0  0  0  0
  8 26  1  6  0  0  0
  9 12  1  0  0  0  0
  9 29  1  0  0  0  0
  9 30  1  0  0  0  0
 10 16  1  0  0  0  0
 10 27  1  1  0  0  0
 11 14  2  0  0  0  0
 11 17  1  0  0  0  0
 12 31  1  0  0  0  0
 12 32  1  0  0  0  0
 13 14  1  0  0  0  0
 13 33  1  0  0  0  0
 13 34  1  0  0  0  0
 14 21  1  0  0  0  0
 15 20  2  0  0  0  0
 15 35  1  0  0  0  0
 16  3  1  0  0  0  0
 16 20  1  0  0  0  0
 16 36  1  1  0  0  0
 17 22  2  0  0  0  0
 18 37  1  0  0  0  0
 18 38  1  0  0  0  0
 18 39  1  0  0  0  0
 19 40  1  0  0  0  0
 19 41  1  0  0  0  0
 19 42  1  0  0  0  0
 20 43  1  0  0  0  0
 21 23  2  0  0  0  0
 21 44  1  0  0  0  0
 22 23  1  0  0  0  0
 23 45  1  0  0  0  0
 24 46  1  0  0  0  0
 24 47  1  0  0  0  0
 24 48  1  0  0  0  0
M  CHG  2   1  -1   5   1
M  END
>  <DRUGBANK_ID>
DB01477

>  <COMMON_NAME>
Codeine methylbromide

>  <CAS_NUMBER>
125-27-9

>  <UNII>
25007U9T7H

$$$$
