R99
 OpenBabel10282417072D

 54 54  0  0  0  0  0  0  0  0999 V2000
   -4.0071    1.4568    0.0000 C   0  0  0  0  0  0  0  0  0  0  0  0
   -4.3349    2.2138    0.0000 O   0  0  0  0  0  0  0  0  0  0  0  0
   -4.4988    0.7943    0.0000 O   0  0  0  0  0  0  0  0  0  0  0  0
   -3.1876    1.3621    0.0000 C   0  0  0  0  0  0  0  0  0  0  0  0
   -2.8597    0.6051    0.0000 C   0  0  2  0  0  0  0  0  0  0  0  0
   -3.3515   -0.0574    0.0000 O   0  0  0  0  0  0  0  0  0  0  0  0
   -2.0402    0.5104    0.0000 C   0  0  0  0  0  0  0  0  0  0  0  0
   -1.5484    1.1729    0.0000 O   0  0  0  0  0  0  0  0  0  0  0  0
   -1.7124   -0.2466    0.0000 N   0  0  0  0  0  0  0  0  0  0  0  0
   -0.8928   -0.3413    0.0000 C   0  0  2  0  0  0  0  0  0  0  0  0
   -0.5650   -1.0983    0.0000 C   0  0  0  0  0  0  0  0  0  0  0  0
    0.2546   -1.1930    0.0000 C   0  0  0  0  0  0  0  0  0  0  0  0
    0.5824   -1.9501    0.0000 C   0  0  0  0  0  0  0  0  0  0  0  0
    1.4020   -2.0447    0.0000 C   0  0  0  0  0  0  0  0  0  0  0  0
    1.7298   -2.8018    0.0000 C   0  0  0  0  0  0  0  0  0  0  0  0
    1.2380   -3.4642    0.0000 C   0  0  0  0  0  0  0  0  0  0  0  0
    0.4185   -3.3696    0.0000 C   0  0  0  0  0  0  0  0  0  0  0  0
    0.0907   -2.6125    0.0000 C   0  0  0  0  0  0  0  0  0  0  0  0
   -0.4011    0.3212    0.0000 C   0  0  0  0  0  0  0  0  0  0  0  0
    0.4185    0.2265    0.0000 N   0  0  0  0  0  0  0  0  0  0  0  0
    0.9102    0.8890    0.0000 C   0  0  0  0  0  0  0  0  0  0  0  0
    1.7298    0.7943    0.0000 C   0  0  0  0  0  0  0  0  0  0  0  0
    2.2215    1.4568    0.0000 C   0  0  0  0  0  0  0  0  0  0  0  0
    1.8937    2.2138    0.0000 C   0  0  0  0  0  0  0  0  0  0  0  0
    3.0411    1.3621    0.0000 C   0  0  0  0  0  0  0  0  0  0  0  0
   -0.7289    1.0782    0.0000 O   0  0  0  0  0  0  0  0  0  0  0  0
   -3.4398    0.6720    0.0000 H   0  0  0  0  0  0  0  0  0  0  0  0
   -1.2408   -0.8101    0.0000 H   0  0  0  0  0  0  0  0  0  0  0  0
   -5.4296    0.9017    0.0000 H   0  0  0  0  0  0  0  0  0  0  0  0
   -2.5499    2.2213    0.0000 H   0  0  0  0  0  0  0  0  0  0  0  0
   -2.1247    1.2394    0.0000 H   0  0  0  0  0  0  0  0  0  0  0  0
   -4.3151    0.0539    0.0000 H   0  0  0  0  0  0  0  0  0  0  0  0
   -2.2992   -1.0371    0.0000 H   0  0  0  0  0  0  0  0  0  0  0  0
   -1.2028   -1.9574    0.0000 H   0  0  0  0  0  0  0  0  0  0  0  0
   -0.1399   -2.0802    0.0000 H   0  0  0  0  0  0  0  0  0  0  0  0
    0.8924   -0.3339    0.0000 H   0  0  0  0  0  0  0  0  0  0  0  0
    1.3175   -1.3158    0.0000 H   0  0  0  0  0  0  0  0  0  0  0  0
    2.0171   -1.2160    0.0000 H   0  0  0  0  0  0  0  0  0  0  0  0
    2.7550   -2.9202    0.0000 H   0  0  0  0  0  0  0  0  0  0  0  0
    1.6480   -4.4112    0.0000 H   0  0  0  0  0  0  0  0  0  0  0  0
   -0.1966   -4.1982    0.0000 H   0  0  0  0  0  0  0  0  0  0  0  0
   -0.9345   -2.4941    0.0000 H   0  0  0  0  0  0  0  0  0  0  0  0
    0.8097   -0.6769    0.0000 H   0  0  0  0  0  0  0  0  0  0  0  0
    0.4850    1.8709    0.0000 H   0  0  0  0  0  0  0  0  0  0  0  0
    1.5480    1.7481    0.0000 H   0  0  0  0  0  0  0  0  0  0  0  0
    2.1550   -0.1876    0.0000 H   0  0  0  0  0  0  0  0  0  0  0  0
    2.7927    0.6716    0.0000 H   0  0  0  0  0  0  0  0  0  0  0  0
    2.8593    2.3159    0.0000 H   0  0  0  0  0  0  0  0  0  0  0  0
    2.5315    3.0730    0.0000 H   0  0  0  0  0  0  0  0  0  0  0  0
    0.8308    2.3365    0.0000 H   0  0  0  0  0  0  0  0  0  0  0  0
    1.4685    3.1957    0.0000 H   0  0  0  0  0  0  0  0  0  0  0  0
    3.4662    0.3802    0.0000 H   0  0  0  0  0  0  0  0  0  0  0  0
    3.6789    2.2212    0.0000 H   0  0  0  0  0  0  0  0  0  0  0  0
    4.1040    1.2393    0.0000 H   0  0  0  0  0  0  0  0  0  0  0  0
  1  2  2  0  0  0  0
  1  3  1  0  0  0  0
  1  4  1  0  0  0  0
  3 29  1  0  0  0  0
  4  5  1  0  0  0  0
  4 30  1  0  0  0  0
  4 31  1  0  0  0  0
  5  6  1  0  0  0  0
  5  7  1  0  0  0  0
  5 27  1  6  0  0  0
  6 32  1  0  0  0  0
  7  8  2  0  0  0  0
  7  9  1  0  0  0  0
  9 33  1  0  0  0  0
 10  9  1  0  0  0  0
 10 11  1  0  0  0  0
 10 19  1  0  0  0  0
 10 28  1  6  0  0  0
 11 12  1  0  0  0  0
 11 34  1  0  0  0  0
 11 35  1  0  0  0  0
 12 13  1  0  0  0  0
 12 36  1  0  0  0  0
 12 37  1  0  0  0  0
 13 14  2  0  0  0  0
 13 18  1  0  0  0  0
 14 15  1  0  0  0  0
 14 38  1  0  0  0  0
 15 16  2  0  0  0  0
 15 39  1  0  0  0  0
 16 17  1  0  0  0  0
 16 40  1  0  0  0  0
 17 18  2  0  0  0  0
 17 41  1  0  0  0  0
 18 42  1  0  0  0  0
 19 20  1  0  0  0  0
 19 26  2  0  0  0  0
 20 21  1  0  0  0  0
 20 43  1  0  0  0  0
 21 22  1  0  0  0  0
 21 44  1  0  0  0  0
 21 45  1  0  0  0  0
 22 23  1  0  0  0  0
 22 46  1  0  0  0  0
 22 47  1  0  0  0  0
 23 24  1  0  0  0  0
 23 25  1  0  0  0  0
 23 48  1  0  0  0  0
 24 49  1  0  0  0  0
 24 50  1  0  0  0  0
 24 51  1  0  0  0  0
 25 52  1  0  0  0  0
 25 53  1  0  0  0  0
 25 54  1  0  0  0  0
M  END
>  <DRUGBANK_ID>
DB03573

>  <SECONDARY_ACCESSION_NUMBERS>
EXPT02751

>  <COMMON_NAME>
WRR-99

$$$$
