
 OpenBabel10282417072D

 24 24  0  0  0  0  0  0  0  0999 V2000
   16.8663   -9.1650    0.0000 O   0  0  0  0  0  0  0  0  0  0  0  0
   18.2953   -9.9900    0.0000 O   0  0  0  0  0  0  0  0  0  0  0  0
   19.7242   -5.0399    0.0000 O   0  0  0  0  0  0  0  0  0  0  0  0
   18.2953   -5.0399    0.0000 O   0  0  0  0  0  0  0  0  0  0  0  0
   18.2953   -7.5150    0.0000 C   0  0  0  0  0  0  0  0  0  0  0  0
   17.5809   -8.7525    0.0000 C   0  0  0  0  0  0  0  0  0  0  0  0
   17.5809   -7.9275    0.0000 C   0  0  0  0  0  0  0  0  0  0  0  0
   19.0098   -7.9275    0.0000 C   0  0  0  0  0  0  0  0  0  0  0  0
   18.2953   -9.1650    0.0000 C   0  0  0  0  0  0  0  0  0  0  0  0
   19.0098   -8.7525    0.0000 C   0  0  0  0  0  0  0  0  0  0  0  0
   18.2953   -6.6900    0.0000 C   0  0  0  0  0  0  0  0  0  0  0  0
   19.0098   -6.2775    0.0000 C   0  0  0  0  0  0  0  0  0  0  0  0
   16.1518   -8.7525    0.0000 C   0  0  0  0  0  0  0  0  0  0  0  0
   19.0098   -5.4524    0.0000 C   0  0  0  0  0  0  0  0  0  0  0  0
   17.4838  -10.4585    0.0000 H   0  0  0  0  0  0  0  0  0  0  0  0
   20.5357   -5.5084    0.0000 H   0  0  0  0  0  0  0  0  0  0  0  0
   16.6872   -7.4115    0.0000 H   0  0  0  0  0  0  0  0  0  0  0  0
   19.9035   -7.4115    0.0000 H   0  0  0  0  0  0  0  0  0  0  0  0
   19.9035   -9.2685    0.0000 H   0  0  0  0  0  0  0  0  0  0  0  0
   17.4016   -6.1740    0.0000 H   0  0  0  0  0  0  0  0  0  0  0  0
   19.9035   -6.7935    0.0000 H   0  0  0  0  0  0  0  0  0  0  0  0
   16.1518   -7.6825    0.0000 H   0  0  0  0  0  0  0  0  0  0  0  0
   15.2252   -9.2875    0.0000 H   0  0  0  0  0  0  0  0  0  0  0  0
   15.2251   -8.2175    0.0000 H   0  0  0  0  0  0  0  0  0  0  0  0
  1  6  1  0  0  0  0
  1 13  1  0  0  0  0
  2  9  1  0  0  0  0
  2 15  1  0  0  0  0
  3 14  1  0  0  0  0
  3 16  1  0  0  0  0
  4 14  2  0  0  0  0
  5  7  2  0  0  0  0
  5  8  1  0  0  0  0
  5 11  1  0  0  0  0
  6  7  1  0  0  0  0
  6  9  2  0  0  0  0
  7 17  1  0  0  0  0
  8 10  2  0  0  0  0
  8 18  1  0  0  0  0
  9 10  1  0  0  0  0
 10 19  1  0  0  0  0
 11 12  2  0  0  0  0
 11 20  1  0  0  0  0
 12 14  1  0  0  0  0
 12 21  1  0  0  0  0
 13 22  1  0  0  0  0
 13 23  1  0  0  0  0
 13 24  1  0  0  0  0
M  END
>  <DRUGBANK_ID>
DB07767

>  <COMMON_NAME>
Ferulic acid

>  <CAS_NUMBER>
1135-24-6

>  <UNII>
AVM951ZWST

$$$$
