
 OpenBabel10282417072D

116127  0  0  0  0  0  0  0  0999 V2000
    2.0594   -2.5160    0.0000 C   0  0  0  0  0  0  0  0  0  0  0  0
    1.7238   -1.7623    0.0000 C   0  0  0  0  0  0  0  0  0  0  0  0
    0.9033   -1.6761    0.0000 C   0  0  0  0  0  0  0  0  0  0  0  0
    0.5678   -0.9224    0.0000 C   0  0  0  0  0  0  0  0  0  0  0  0
   -0.2169   -0.6674    0.0000 C   0  0  0  0  0  0  0  0  0  0  0  0
   -0.9313   -1.0799    0.0000 C   0  0  0  0  0  0  0  0  0  0  0  0
   -1.6458   -0.6674    0.0000 C   0  0  0  0  0  0  0  0  0  0  0  0
   -2.3603   -1.0799    0.0000 C   0  0  0  0  0  0  0  0  0  0  0  0
   -3.0747   -0.6674    0.0000 C   0  0  0  0  0  0  0  0  0  0  0  0
   -3.7892   -1.0799    0.0000 C   0  0  0  0  0  0  0  0  0  0  0  0
   -4.5037   -0.6674    0.0000 C   0  0  0  0  0  0  0  0  0  0  0  0
   -5.2182   -1.0799    0.0000 C   0  0  0  0  0  0  0  0  0  0  0  0
   -5.9326   -0.6674    0.0000 C   0  0  0  0  0  0  0  0  0  0  0  0
   -6.6471   -1.0799    0.0000 C   0  0  0  0  0  0  0  0  0  0  0  0
   -7.3616   -0.6674    0.0000 C   0  0  0  0  0  0  0  0  0  0  0  0
   -8.0760   -1.0799    0.0000 C   0  0  0  0  0  0  0  0  0  0  0  0
   -8.0760   -1.9049    0.0000 O   0  0  0  0  0  0  0  0  0  0  0  0
   -8.7905   -0.6674    0.0000 N   0  0  0  0  0  0  0  0  0  0  0  0
   -9.5050   -1.0799    0.0000 C   0  0  1  0  0  0  0  0  0  0  0  0
  -10.3078   -1.2694    0.0000 C   0  0  2  0  0  0  0  0  0  0  0  0
  -10.4843   -1.9957    0.0000 C   0  0  0  0  0  0  0  0  0  0  0  0
  -11.1077   -2.6575    0.0000 C   0  0  1  0  0  0  0  0  0  0  0  0
  -11.7342   -2.1207    0.0000 C   0  0  0  0  0  0  0  0  0  0  0  0
  -11.5578   -1.3945    0.0000 C   0  0  1  0  0  0  0  0  0  0  0  0
  -10.9344   -0.7326    0.0000 C   0  0  0  0  0  0  0  0  0  0  0  0
  -10.7547   -1.2050    0.0000 C   0  0  0  0  0  0  0  0  0  0  0  0
  -10.1283   -1.7418    0.0000 C   0  0  2  0  0  0  0  0  0  0  0  0
  -10.3047   -2.4681    0.0000 C   0  0  0  0  0  0  0  0  0  0  0  0
   -1.6458    0.1576    0.0000 C   0  0  0  0  0  0  0  0  0  0  0  0
   -0.9313    0.5701    0.0000 C   0  0  0  0  0  0  0  0  0  0  0  0
   -0.2169    0.1576    0.0000 N   0  0  0  0  0  0  0  0  0  0  0  0
    0.7846    1.0799    0.0000 Ru  0  2  0  0  0  0  0  0  0  0  0  0
    1.8066    1.9795    0.0000 N   0  0  0  0  0  0  0  0  0  0  0  0
    1.4711    2.7332    0.0000 C   0  0  0  0  0  0  0  0  0  0  0  0
    1.9560    3.4006    0.0000 C   0  0  0  0  0  0  0  0  0  0  0  0
    2.7765    3.3144    0.0000 C   0  0  0  0  0  0  0  0  0  0  0  0
    3.1120    2.5607    0.0000 C   0  0  0  0  0  0  0  0  0  0  0  0
    2.6271    1.8933    0.0000 C   0  0  0  0  0  0  0  0  0  0  0  0
    2.7986    1.0863    0.0000 C   0  0  0  0  0  0  0  0  0  0  0  0
    3.5131    0.6738    0.0000 C   0  0  0  0  0  0  0  0  0  0  0  0
    3.5131   -0.1512    0.0000 C   0  0  0  0  0  0  0  0  0  0  0  0
    2.7986   -0.5637    0.0000 C   0  0  0  0  0  0  0  0  0  0  0  0
    2.0842   -0.1512    0.0000 C   0  0  0  0  0  0  0  0  0  0  0  0
    2.0842    0.6738    0.0000 N   0  0  0  0  0  0  0  0  0  0  0  0
   -0.5054    1.5152    0.0000 N   0  0  0  0  0  0  0  0  0  0  0  0
   -0.9904    0.8478    0.0000 C   0  0  0  0  0  0  0  0  0  0  0  0
   -1.8108    0.9340    0.0000 C   0  0  0  0  0  0  0  0  0  0  0  0
   -2.1464    1.6877    0.0000 C   0  0  0  0  0  0  0  0  0  0  0  0
   -1.6615    2.3551    0.0000 C   0  0  0  0  0  0  0  0  0  0  0  0
   -0.8410    2.2689    0.0000 C   0  0  0  0  0  0  0  0  0  0  0  0
   -0.2279    2.8209    0.0000 C   0  0  0  0  0  0  0  0  0  0  0  0
   -0.2279    3.6459    0.0000 C   0  0  0  0  0  0  0  0  0  0  0  0
    0.4866    4.0584    0.0000 C   0  0  0  0  0  0  0  0  0  0  0  0
    1.2010    3.6459    0.0000 C   0  0  0  0  0  0  0  0  0  0  0  0
    1.2010    2.8209    0.0000 C   0  0  0  0  0  0  0  0  0  0  0  0
    0.4866    2.4084    0.0000 N   0  0  0  0  0  0  0  0  0  0  0  0
    1.0527   -0.2549    0.0000 N   0  0  0  0  0  0  0  0  0  0  0  0
    1.8732   -0.3412    0.0000 C   0  0  0  0  0  0  0  0  0  0  0  0
    2.2087   -1.0949    0.0000 C   0  0  0  0  0  0  0  0  0  0  0  0
    1.4305   -3.3817    0.0000 H   0  0  0  0  0  0  0  0  0  0  0  0
    3.1235   -2.6278    0.0000 H   0  0  0  0  0  0  0  0  0  0  0  0
    2.4946   -3.4935    0.0000 H   0  0  0  0  0  0  0  0  0  0  0  0
    0.2967   -2.5110    0.0000 H   0  0  0  0  0  0  0  0  0  0  0  0
   -0.9313   -2.1119    0.0000 H   0  0  0  0  0  0  0  0  0  0  0  0
   -2.3603   -2.1499    0.0000 H   0  0  0  0  0  0  0  0  0  0  0  0
   -3.2870   -1.6149    0.0000 H   0  0  0  0  0  0  0  0  0  0  0  0
   -3.0747    0.4026    0.0000 H   0  0  0  0  0  0  0  0  0  0  0  0
   -4.0013   -0.1324    0.0000 H   0  0  0  0  0  0  0  0  0  0  0  0
   -3.7892   -2.1499    0.0000 H   0  0  0  0  0  0  0  0  0  0  0  0
   -4.7158   -1.6149    0.0000 H   0  0  0  0  0  0  0  0  0  0  0  0
   -4.5037    0.4026    0.0000 H   0  0  0  0  0  0  0  0  0  0  0  0
   -5.4303   -0.1324    0.0000 H   0  0  0  0  0  0  0  0  0  0  0  0
   -5.2182   -2.1499    0.0000 H   0  0  0  0  0  0  0  0  0  0  0  0
   -6.1449   -1.6149    0.0000 H   0  0  0  0  0  0  0  0  0  0  0  0
   -5.9326    0.4026    0.0000 H   0  0  0  0  0  0  0  0  0  0  0  0
   -6.8592   -0.1324    0.0000 H   0  0  0  0  0  0  0  0  0  0  0  0
   -6.6471   -2.1499    0.0000 H   0  0  0  0  0  0  0  0  0  0  0  0
   -7.5737   -1.6149    0.0000 H   0  0  0  0  0  0  0  0  0  0  0  0
   -7.3616    0.4026    0.0000 H   0  0  0  0  0  0  0  0  0  0  0  0
   -8.2883   -0.1324    0.0000 H   0  0  0  0  0  0  0  0  0  0  0  0
   -8.7905    0.3171    0.0000 H   0  0  0  0  0  0  0  0  0  0  0  0
   -9.8996   -0.0853    0.0000 H   0  0  0  0  0  0  0  0  0  0  0  0
   -9.5537   -2.0285    0.0000 H   0  0  0  0  0  0  0  0  0  0  0  0
   -9.5437   -2.5058    0.0000 H   0  0  0  0  0  0  0  0  0  0  0  0
  -10.3147   -3.0522    0.0000 H   0  0  0  0  0  0  0  0  0  0  0  0
  -11.1648   -1.5890    0.0000 H   0  0  0  0  0  0  0  0  0  0  0  0
  -12.7525   -2.4492    0.0000 H   0  0  0  0  0  0  0  0  0  0  0  0
  -12.5182   -1.3925    0.0000 H   0  0  0  0  0  0  0  0  0  0  0  0
  -10.6172   -1.9045    0.0000 H   0  0  0  0  0  0  0  0  0  0  0  0
  -10.9916    0.3359    0.0000 H   0  0  0  0  0  0  0  0  0  0  0  0
   -9.9747   -0.2595    0.0000 H   0  0  0  0  0  0  0  0  0  0  0  0
  -10.5020   -0.1653    0.0000 H   0  0  0  0  0  0  0  0  0  0  0  0
   -9.7363   -0.8766    0.0000 H   0  0  0  0  0  0  0  0  0  0  0  0
  -10.1855   -0.6733    0.0000 H   0  0  0  0  0  0  0  0  0  0  0  0
   -9.5506   -3.2272    0.0000 H   0  0  0  0  0  0  0  0  0  0  0  0
  -10.5989   -3.4969    0.0000 H   0  0  0  0  0  0  0  0  0  0  0  0
   -2.5395    0.6736    0.0000 H   0  0  0  0  0  0  0  0  0  0  0  0
   -0.9313    1.6021    0.0000 H   0  0  0  0  0  0  0  0  0  0  0  0
    0.4448    2.8411    0.0000 H   0  0  0  0  0  0  0  0  0  0  0  0
    1.5362    4.3434    0.0000 H   0  0  0  0  0  0  0  0  0  0  0  0
    3.3831    4.1493    0.0000 H   0  0  0  0  0  0  0  0  0  0  0  0
    4.1383    2.4528    0.0000 H   0  0  0  0  0  0  0  0  0  0  0  0
    4.4068    1.1898    0.0000 H   0  0  0  0  0  0  0  0  0  0  0  0
    4.4068   -0.6672    0.0000 H   0  0  0  0  0  0  0  0  0  0  0  0
    2.7986   -1.5957    0.0000 H   0  0  0  0  0  0  0  0  0  0  0  0
    1.1905   -0.6672    0.0000 H   0  0  0  0  0  0  0  0  0  0  0  0
   -0.5707   -0.0950    0.0000 H   0  0  0  0  0  0  0  0  0  0  0  0
   -2.4174    0.0991    0.0000 H   0  0  0  0  0  0  0  0  0  0  0  0
   -3.1727    1.7956    0.0000 H   0  0  0  0  0  0  0  0  0  0  0  0
   -2.0813    3.2979    0.0000 H   0  0  0  0  0  0  0  0  0  0  0  0
   -1.1216    4.1619    0.0000 H   0  0  0  0  0  0  0  0  0  0  0  0
    0.4866    5.0904    0.0000 H   0  0  0  0  0  0  0  0  0  0  0  0
    2.0947    4.1619    0.0000 H   0  0  0  0  0  0  0  0  0  0  0  0
    2.0947    2.3049    0.0000 H   0  0  0  0  0  0  0  0  0  0  0  0
    2.4799    0.4937    0.0000 H   0  0  0  0  0  0  0  0  0  0  0  0
    3.2350   -1.2028    0.0000 H   0  0  0  0  0  0  0  0  0  0  0  0
  1  2  1  0  0  0  0
  1 60  1  0  0  0  0
  1 61  1  0  0  0  0
  1 62  1  0  0  0  0
  2  3  2  0  0  0  0
  2 59  1  0  0  0  0
  3  4  1  0  0  0  0
  3 63  1  0  0  0  0
  4  5  2  0  0  0  0
  4 57  1  0  0  0  0
  5  6  1  0  0  0  0
  5 31  1  0  0  0  0
  6  7  2  0  0  0  0
  6 64  1  0  0  0  0
  7  8  1  0  0  0  0
  7 29  1  0  0  0  0
  8  9  1  0  0  0  0
  8 65  1  0  0  0  0
  8 66  1  0  0  0  0
  9 10  1  0  0  0  0
  9 67  1  0  0  0  0
  9 68  1  0  0  0  0
 10 11  1  0  0  0  0
 10 69  1  0  0  0  0
 10 70  1  0  0  0  0
 11 12  1  0  0  0  0
 11 71  1  0  0  0  0
 11 72  1  0  0  0  0
 12 13  1  0  0  0  0
 12 73  1  0  0  0  0
 12 74  1  0  0  0  0
 13 14  1  0  0  0  0
 13 75  1  0  0  0  0
 13 76  1  0  0  0  0
 14 15  1  0  0  0  0
 14 77  1  0  0  0  0
 14 78  1  0  0  0  0
 15 16  1  0  0  0  0
 15 79  1  0  0  0  0
 15 80  1  0  0  0  0
 16 17  2  0  0  0  0
 16 18  1  0  0  0  0
 18 81  1  0  0  0  0
 19 18  1  0  0  0  0
 19 20  1  0  0  0  0
 19 27  1  0  0  0  0
 19 82  1  1  0  0  0
 20 21  1  0  0  0  0
 20 25  1  0  0  0  0
 20 83  1  1  0  0  0
 21 84  1  0  0  0  0
 21 85  1  0  0  0  0
 22 21  1  0  0  0  0
 22 23  1  0  0  0  0
 22 28  1  0  0  0  0
 22 86  1  1  0  0  0
 23 87  1  0  0  0  0
 23 88  1  0  0  0  0
 24 23  1  0  0  0  0
 24 25  1  0  0  0  0
 24 26  1  0  0  0  0
 24 89  1  6  0  0  0
 25 90  1  0  0  0  0
 25 91  1  0  0  0  0
 26 92  1  0  0  0  0
 26 93  1  0  0  0  0
 27 26  1  0  0  0  0
 27 28  1  0  0  0  0
 27 94  1  6  0  0  0
 28 95  1  0  0  0  0
 28 96  1  0  0  0  0
 29 30  2  0  0  0  0
 29 97  1  0  0  0  0
 30 31  1  0  0  0  0
 30 98  1  0  0  0  0
 31 32  1  0  0  0  0
 33 32  1  0  0  0  0
 33 34  1  0  0  0  0
 33 38  1  0  0  0  0
 34 35  2  0  0  0  0
 34 99  1  0  0  0  0
 35 36  1  0  0  0  0
 35100  1  0  0  0  0
 36 37  2  0  0  0  0
 36101  1  0  0  0  0
 37 38  1  0  0  0  0
 37102  1  0  0  0  0
 38 39  2  0  0  0  0
 39 40  1  0  0  0  0
 39 44  1  0  0  0  0
 40 41  2  0  0  0  0
 40103  1  0  0  0  0
 41 42  1  0  0  0  0
 41104  1  0  0  0  0
 42 43  2  0  0  0  0
 42105  1  0  0  0  0
 43 44  1  0  0  0  0
 43106  1  0  0  0  0
 44 32  1  0  0  0  0
 45 32  1  0  0  0  0
 45 46  1  0  0  0  0
 45 50  1  0  0  0  0
 46 47  2  0  0  0  0
 46107  1  0  0  0  0
 47 48  1  0  0  0  0
 47108  1  0  0  0  0
 48 49  2  0  0  0  0
 48109  1  0  0  0  0
 49 50  1  0  0  0  0
 49110  1  0  0  0  0
 50 51  2  0  0  0  0
 51 52  1  0  0  0  0
 51 56  1  0  0  0  0
 52 53  2  0  0  0  0
 52111  1  0  0  0  0
 53 54  1  0  0  0  0
 53112  1  0  0  0  0
 54 55  2  0  0  0  0
 54113  1  0  0  0  0
 55 56  1  0  0  0  0
 55114  1  0  0  0  0
 56 32  1  0  0  0  0
 57 32  1  0  0  0  0
 57 58  1  0  0  0  0
 58 59  2  0  0  0  0
 58115  1  0  0  0  0
 59116  1  0  0  0  0
M  CHG  1  32   2
M  END
>  <DRUGBANK_ID>
DB01663

>  <SECONDARY_ACCESSION_NUMBERS>
EXPT02060

>  <COMMON_NAME>
lambda-bis(2,2'-bipyridine)-(5-methyl-2-2'-bipyridine)-C9-adamantane ruthenium (II)

$$$$
