
 OpenBabel10282417072D

179185  0  0  0  0  0  0  0  0999 V2000
   -1.7343    2.2135    0.0000 C   0  0  0  0  0  0  0  0  0  0  0  0
   -3.3164   -1.0877    0.0000 C   0  0  0  0  0  0  0  0  0  0  0  0
    4.6095   -1.5897    0.0000 N   0  0  0  0  0  0  0  0  0  0  0  0
    4.6247   -2.8524    0.0000 C   0  0  2  0  0  0  0  0  0  0  0  0
   -3.3925    2.1222    0.0000 C   0  0  0  0  0  0  0  0  0  0  0  0
   -1.6278   -1.0421    0.0000 C   0  0  0  0  0  0  0  0  0  0  0  0
   -3.3925    1.2094    0.0000 N   0  0  0  0  0  0  0  0  0  0  0  0
   -1.7343    1.2094    0.0000 N   0  0  0  0  0  0  0  0  0  0  0  0
   -1.6278   -0.1293    0.0000 N   0  0  0  0  0  0  0  0  0  0  0  0
   -3.3468   -0.1445    0.0000 N   0  5  0  0  0  0  0  0  0  0  0  0
   -4.3205    1.2094    0.0000 C   0  0  2  0  0  0  0  0  0  0  0  0
   -0.4868   -0.1293    0.0000 C   0  0  0  0  0  0  0  0  0  0  0  0
   -2.5862    2.6242    0.0000 C   0  0  0  0  0  0  0  0  0  0  0  0
   -2.3427   -1.4224    0.0000 C   0  0  0  0  0  0  0  0  0  0  0  0
   -0.8671    2.6090    0.0000 C   0  0  2  0  0  0  0  0  0  0  0  0
    3.7880   -2.8372    0.0000 C   0  0  1  0  0  0  0  0  0  0  0  0
   -0.6237    1.2094    0.0000 C   0  0  0  0  0  0  0  0  0  0  0  0
   -3.9401   -1.5289    0.0000 C   0  0  1  0  0  0  0  0  0  0  0  0
    3.4077   -3.6131    0.0000 C   0  0  1  0  0  0  0  0  0  0  0  0
   -4.7616    1.8483    0.0000 C   0  0  2  0  0  0  0  0  0  0  0  0
    4.8377   -3.7196    0.0000 O   0  0  0  0  0  0  0  0  0  0  0  0
    1.0345   -3.6283    0.0000 P   0  0  3  0  0  0  0  0  0  0  0  0
    5.2941   -1.1942    0.0000 C   0  0  0  0  0  0  0  0  0  0  0  0
   -0.0912    0.5704    0.0000 C   0  0  0  0  0  0  0  0  0  0  0  0
   -4.2900   -0.0988    0.0000 C   0  0  1  0  0  0  0  0  0  0  0  0
    3.9706   -1.1789    0.0000 C   0  0  0  0  0  0  0  0  0  0  0  0
   -4.1835    2.5633    0.0000 C   0  0  2  0  0  0  0  0  0  0  0  0
   -0.1065   -0.7530    0.0000 C   0  0  0  0  0  0  0  0  0  0  0  0
   -0.6693   -1.3463    0.0000 C   0  0  2  0  0  0  0  0  0  0  0  0
    3.9553   -0.4031    0.0000 N   0  0  0  0  0  0  0  0  0  0  0  0
   -4.6399   -0.7986    0.0000 C   0  0  2  0  0  0  0  0  0  0  0  0
   -0.3347    2.0157    0.0000 C   0  0  1  0  0  0  0  0  0  0  0  0
    4.1683   -4.1912    0.0000 C   0  0  2  0  0  0  0  0  0  0  0  0
    5.3093   -0.4031    0.0000 C   0  0  0  0  0  0  0  0  0  0  0  0
    2.2971   -3.6131    0.0000 O   0  0  0  0  0  0  0  0  0  0  0  0
    6.1004   -1.5745    0.0000 C   0  0  0  0  0  0  0  0  0  0  0  0
   -3.9401   -2.8981    0.0000 C   0  0  0  0  0  0  0  0  0  0  0  0
    0.0912    3.3392    0.0000 C   0  0  0  0  0  0  0  0  0  0  0  0
    6.0092   -0.0684    0.0000 C   0  0  0  0  0  0  0  0  0  0  0  0
    6.7545   -1.2399    0.0000 C   0  0  0  0  0  0  0  0  0  0  0  0
   -5.4767    2.3655    0.0000 C   0  0  0  0  0  0  0  0  0  0  0  0
   -4.1835    3.2783    0.0000 C   0  0  0  0  0  0  0  0  0  0  0  0
   -0.4868   -1.9548    0.0000 C   0  0  0  0  0  0  0  0  0  0  0  0
    6.7545   -0.4488    0.0000 C   0  0  0  0  0  0  0  0  0  0  0  0
    0.7758    1.8179    0.0000 C   0  0  0  0  0  0  0  0  0  0  0  0
    0.7454    2.9741    0.0000 C   0  0  0  0  0  0  0  0  0  0  0  0
   -6.3742    2.3655    0.0000 C   0  0  0  0  0  0  0  0  0  0  0  0
   -0.4260   -5.1040    0.0000 O   0  5  0  0  0  0  0  0  0  0  0  0
   -6.0243   -0.8139    0.0000 C   0  0  0  0  0  0  0  0  0  0  0  0
    0.1217   -2.9436    0.0000 O   0  0  0  0  0  0  0  0  0  0  0  0
   -5.3854   -0.4183    0.0000 C   0  0  0  0  0  0  0  0  0  0  0  0
   -2.9056   -3.0198    0.0000 C   0  0  0  0  0  0  0  0  0  0  0  0
    1.3387   -4.8453    0.0000 O   0  0  0  0  0  0  0  0  0  0  0  0
    0.6845   -1.9092    0.0000 C   0  0  0  0  0  0  0  0  0  0  0  0
    2.0385    1.8483    0.0000 C   0  0  0  0  0  0  0  0  0  0  0  0
   -4.9138    4.3280    0.0000 C   0  0  0  0  0  0  0  0  0  0  0  0
   -2.1450   -3.3089    0.0000 N   0  0  0  0  0  0  0  0  0  0  0  0
    0.7454    2.3960    0.0000 O   0  0  0  0  0  0  0  0  0  0  0  0
   -6.0395   -1.5289    0.0000 O   0  0  0  0  0  0  0  0  0  0  0  0
   -6.8154    3.1414    0.0000 O   0  0  0  0  0  0  0  0  0  0  0  0
   -2.9056   -2.2895    0.0000 O   0  0  0  0  0  0  0  0  0  0  0  0
    3.3925   -2.0765    0.0000 O   0  0  0  0  0  0  0  0  0  0  0  0
    2.0385    1.0725    0.0000 O   0  0  0  0  0  0  0  0  0  0  0  0
    0.6997   -1.2702    0.0000 O   0  0  0  0  0  0  0  0  0  0  0  0
   -4.2596    4.7845    0.0000 O   0  0  0  0  0  0  0  0  0  0  0  0
   -3.3925   -3.3089    0.0000 C   0  0  0  0  0  0  0  0  0  0  0  0
   -4.9442    3.6131    0.0000 C   0  0  0  0  0  0  0  0  0  0  0  0
    0.1825   -2.2895    0.0000 C   0  0  0  0  0  0  0  0  0  0  0  0
    1.4603    2.2135    0.0000 C   0  0  0  0  0  0  0  0  0  0  0  0
   -0.6998   -3.2784    0.0000 C   0  0  2  0  0  0  0  0  0  0  0  0
   -2.3427   -2.0461    0.0000 C   0  0  0  0  0  0  0  0  0  0  0  0
   -2.5862    3.5066    0.0000 C   0  0  0  0  0  0  0  0  0  0  0  0
   -0.9432    4.0694    0.0000 C   0  0  0  0  0  0  0  0  0  0  0  0
   -6.7850   -0.4640    0.0000 N   0  0  0  0  0  0  0  0  0  0  0  0
    1.3083    3.2936    0.0000 N   0  0  0  0  0  0  0  0  0  0  0  0
   -6.8154    1.6049    0.0000 N   0  0  0  0  0  0  0  0  0  0  0  0
    2.6927    2.2287    0.0000 N   0  0  0  0  0  0  0  0  0  0  0  0
    1.3538   -2.1070    0.0000 N   0  0  0  0  0  0  0  0  0  0  0  0
   -5.6897    4.6627    0.0000 N   0  0  0  0  0  0  0  0  0  0  0  0
   -5.1571    0.6617    0.0000 C   0  0  0  0  0  0  0  0  0  0  0  0
   -1.4148   -2.9436    0.0000 C   0  0  0  0  0  0  0  0  0  0  0  0
   -4.5486   -1.9852    0.0000 C   0  0  0  0  0  0  0  0  0  0  0  0
   -5.6744    1.5745    0.0000 C   0  0  0  0  0  0  0  0  0  0  0  0
    4.1683   -4.8605    0.0000 C   0  0  0  0  0  0  0  0  0  0  0  0
    0.3650    0.0076    0.0000 C   0  0  0  0  0  0  0  0  0  0  0  0
    0.9128   -0.7530    0.0000 C   0  0  0  0  0  0  0  0  0  0  0  0
    4.9898   -5.2104    0.0000 O   0  0  0  0  0  0  0  0  0  0  0  0
    7.3631   -1.5745    0.0000 C   0  0  0  0  0  0  0  0  0  0  0  0
    7.3478   -0.1293    0.0000 C   0  0  0  0  0  0  0  0  0  0  0  0
   -1.0041   -4.2064    0.0000 C   0  0  0  0  0  0  0  0  0  0  0  0
   -5.6288   -0.0076    0.0000 H   0  0  0  0  0  0  0  0  0  0  0  0
   -2.7687    0.5856    0.0000 Co  0  2  0  0  0  0  0  0  0  0  0  0
   -2.0994   -3.8564    0.0000 H   0  0  0  0  0  0  0  0  0  0  0  0
   -6.8306    0.0836    0.0000 H   0  0  0  0  0  0  0  0  0  0  0  0
   -7.2413   -0.7834    0.0000 H   0  0  0  0  0  0  0  0  0  0  0  0
    1.7951    3.0198    0.0000 H   0  0  0  0  0  0  0  0  0  0  0  0
    1.3083    3.8412    0.0000 H   0  0  0  0  0  0  0  0  0  0  0  0
   -7.3631    1.6049    0.0000 H   0  0  0  0  0  0  0  0  0  0  0  0
   -6.5415    1.1333    0.0000 H   0  0  0  0  0  0  0  0  0  0  0  0
    3.1643    1.9548    0.0000 H   0  0  0  0  0  0  0  0  0  0  0  0
    2.6927    2.7763    0.0000 H   0  0  0  0  0  0  0  0  0  0  0  0
    1.4908   -2.6546    0.0000 H   0  0  0  0  0  0  0  0  0  0  0  0
    1.7494   -1.7267    0.0000 H   0  0  0  0  0  0  0  0  0  0  0  0
   -5.7352    5.2104    0.0000 H   0  0  0  0  0  0  0  0  0  0  0  0
   -6.1308    4.3432    0.0000 H   0  0  0  0  0  0  0  0  0  0  0  0
    3.8704   -2.0935    0.0000 H   0  0  0  0  0  0  0  0  0  0  0  0
    4.3516   -1.9277    0.0000 H   0  0  0  0  0  0  0  0  0  0  0  0
    2.8416   -2.7051    0.0000 H   0  0  0  0  0  0  0  0  0  0  0  0
    0.9366    0.6632    0.0000 H   0  0  0  0  0  0  0  0  0  0  0  0
    3.0697   -1.6823    0.0000 H   0  0  0  0  0  0  0  0  0  0  0  0
   -3.2609    3.1052    0.0000 H   0  0  0  0  0  0  0  0  0  0  0  0
   -1.4319   -2.0969    0.0000 H   0  0  0  0  0  0  0  0  0  0  0  0
   -5.2782   -1.6573    0.0000 H   0  0  0  0  0  0  0  0  0  0  0  0
    0.1856    2.9507    0.0000 H   0  0  0  0  0  0  0  0  0  0  0  0
    3.2097   -4.6667    0.0000 H   0  0  0  0  0  0  0  0  0  0  0  0
    6.1170   -2.6064    0.0000 H   0  0  0  0  0  0  0  0  0  0  0  0
   -4.8972   -3.3766    0.0000 H   0  0  0  0  0  0  0  0  0  0  0  0
   -4.0363   -3.9638    0.0000 H   0  0  0  0  0  0  0  0  0  0  0  0
    0.0152    4.4065    0.0000 H   0  0  0  0  0  0  0  0  0  0  0  0
    0.9941    3.9134    0.0000 H   0  0  0  0  0  0  0  0  0  0  0  0
    6.0225    0.9635    0.0000 H   0  0  0  0  0  0  0  0  0  0  0  0
   -5.1471    3.3835    0.0000 H   0  0  0  0  0  0  0  0  0  0  0  0
   -6.1061    3.2308    0.0000 H   0  0  0  0  0  0  0  0  0  0  0  0
   -3.2874    3.8630    0.0000 H   0  0  0  0  0  0  0  0  0  0  0  0
   -4.2709    4.3447    0.0000 H   0  0  0  0  0  0  0  0  0  0  0  0
   -1.3057   -2.6435    0.0000 H   0  0  0  0  0  0  0  0  0  0  0  0
   -0.3611   -3.0174    0.0000 H   0  0  0  0  0  0  0  0  0  0  0  0
    0.9609    0.7640    0.0000 H   0  0  0  0  0  0  0  0  0  0  0  0
    1.7455    1.3656    0.0000 H   0  0  0  0  0  0  0  0  0  0  0  0
   -5.4296    0.6508    0.0000 H   0  0  0  0  0  0  0  0  0  0  0  0
   -6.3307    0.0829    0.0000 H   0  0  0  0  0  0  0  0  0  0  0  0
    3.9141   -1.2587    0.0000 H   0  0  0  0  0  0  0  0  0  0  0  0
   -3.4501   -4.3773    0.0000 H   0  0  0  0  0  0  0  0  0  0  0  0
   -2.4772   -3.8631    0.0000 H   0  0  0  0  0  0  0  0  0  0  0  0
   -5.8526    3.0476    0.0000 H   0  0  0  0  0  0  0  0  0  0  0  0
   -5.8684    4.1524    0.0000 H   0  0  0  0  0  0  0  0  0  0  0  0
    0.2811   -3.3549    0.0000 H   0  0  0  0  0  0  0  0  0  0  0  0
    1.1616   -2.7210    0.0000 H   0  0  0  0  0  0  0  0  0  0  0  0
    1.4813    3.2833    0.0000 H   0  0  0  0  0  0  0  0  0  0  0  0
    2.4024    2.7207    0.0000 H   0  0  0  0  0  0  0  0  0  0  0  0
    0.0829   -4.0080    0.0000 H   0  0  0  0  0  0  0  0  0  0  0  0
   -3.2693   -2.5811    0.0000 H   0  0  0  0  0  0  0  0  0  0  0  0
   -1.4161   -2.5811    0.0000 H   0  0  0  0  0  0  0  0  0  0  0  0
   -2.3427   -3.1161    0.0000 H   0  0  0  0  0  0  0  0  0  0  0  0
   -1.6596    4.0416    0.0000 H   0  0  0  0  0  0  0  0  0  0  0  0
   -3.5128    4.0416    0.0000 H   0  0  0  0  0  0  0  0  0  0  0  0
   -2.5862    4.5766    0.0000 H   0  0  0  0  0  0  0  0  0  0  0  0
   -0.0456    4.6519    0.0000 H   0  0  0  0  0  0  0  0  0  0  0  0
   -1.8964    4.5555    0.0000 H   0  0  0  0  0  0  0  0  0  0  0  0
   -0.9989    5.1380    0.0000 H   0  0  0  0  0  0  0  0  0  0  0  0
   -6.1123    1.1439    0.0000 H   0  0  0  0  0  0  0  0  0  0  0  0
   -5.0972   -0.4066    0.0000 H   0  0  0  0  0  0  0  0  0  0  0  0
   -6.0523    0.0756    0.0000 H   0  0  0  0  0  0  0  0  0  0  0  0
   -1.4287   -1.8737    0.0000 H   0  0  0  0  0  0  0  0  0  0  0  0
   -0.5157   -2.3636    0.0000 H   0  0  0  0  0  0  0  0  0  0  0  0
   -5.5326   -1.5648    0.0000 H   0  0  0  0  0  0  0  0  0  0  0  0
   -4.4207   -3.0475    0.0000 H   0  0  0  0  0  0  0  0  0  0  0  0
   -5.4047   -2.6271    0.0000 H   0  0  0  0  0  0  0  0  0  0  0  0
   -6.4531    2.3084    0.0000 H   0  0  0  0  0  0  0  0  0  0  0  0
   -5.9206    0.5332    0.0000 H   0  0  0  0  0  0  0  0  0  0  0  0
   -6.6993    1.2671    0.0000 H   0  0  0  0  0  0  0  0  0  0  0  0
    3.2757   -5.4505    0.0000 H   0  0  0  0  0  0  0  0  0  0  0  0
    4.2652   -5.9261    0.0000 H   0  0  0  0  0  0  0  0  0  0  0  0
    1.4345   -0.0259    0.0000 H   0  0  0  0  0  0  0  0  0  0  0  0
   -0.1407    0.9506    0.0000 H   0  0  0  0  0  0  0  0  0  0  0  0
    0.9288    0.9170    0.0000 H   0  0  0  0  0  0  0  0  0  0  0  0
    1.4478   -1.6796    0.0000 H   0  0  0  0  0  0  0  0  0  0  0  0
    1.4478    0.1736    0.0000 H   0  0  0  0  0  0  0  0  0  0  0  0
    1.9828   -0.7530    0.0000 H   0  0  0  0  0  0  0  0  0  0  0  0
    5.1068   -6.1733    0.0000 H   0  0  0  0  0  0  0  0  0  0  0  0
    7.3855   -2.6443    0.0000 H   0  0  0  0  0  0  0  0  0  0  0  0
    8.2784   -1.0202    0.0000 H   0  0  0  0  0  0  0  0  0  0  0  0
    8.3007   -2.0900    0.0000 H   0  0  0  0  0  0  0  0  0  0  0  0
    8.2582   -0.6915    0.0000 H   0  0  0  0  0  0  0  0  0  0  0  0
    7.3795    0.9402    0.0000 H   0  0  0  0  0  0  0  0  0  0  0  0
    8.2899    0.3780    0.0000 H   0  0  0  0  0  0  0  0  0  0  0  0
   -2.0513   -4.4260    0.0000 H   0  0  0  0  0  0  0  0  0  0  0  0
   -0.2903   -5.0035    0.0000 H   0  0  0  0  0  0  0  0  0  0  0  0
   -1.3375   -5.2231    0.0000 H   0  0  0  0  0  0  0  0  0  0  0  0
  1  8  1  0  0  0  0
  1 13  2  0  0  0  0
  1 15  1  0  0  0  0
  2 10  1  0  0  0  0
  2 14  2  0  0  0  0
  2 18  1  0  0  0  0
  3 23  1  0  0  0  0
  3 26  1  0  0  0  0
  4  3  1  0  0  0  0
  4 16  1  0  0  0  0
  4 21  1  0  0  0  0
  4106  1  6  0  0  0
  5 13  1  0  0  0  0
  5  7  2  0  0  0  0
  5 27  1  0  0  0  0
  6  9  2  0  0  0  0
  6 14  1  0  0  0  0
  6 29  1  0  0  0  0
  7 11  1  0  0  0  0
  8 17  2  0  0  0  0
  9 12  1  0  0  0  0
 10 25  1  0  0  0  0
 11 80  1  6  0  0  0
 11 20  1  0  0  0  0
 11 25  1  0  0  0  0
 12 24  2  0  0  0  0
 12 28  1  0  0  0  0
 13 72  1  0  0  0  0
 14 71  1  0  0  0  0
 15 32  1  0  0  0  0
 15 38  1  1  0  0  0
 15 73  1  0  0  0  0
 16 19  1  0  0  0  0
 16 62  1  0  0  0  0
 16107  1  6  0  0  0
 17 24  1  0  0  0  0
 17 32  1  0  0  0  0
 18 31  1  0  0  0  0
 18 37  1  6  0  0  0
 18 82  1  0  0  0  0
 19 35  1  0  0  0  0
 19 33  1  0  0  0  0
 19108  1  6  0  0  0
 20 27  1  0  0  0  0
 20 41  1  1  0  0  0
 20 83  1  0  0  0  0
 21 33  1  0  0  0  0
 22 50  1  0  0  0  0
 22 35  1  0  0  0  0
 22 48  1  0  0  0  0
 22 53  2  0  0  0  0
 23 34  2  0  0  0  0
 23 36  1  0  0  0  0
 24109  1  0  0  0  0
 25 31  1  0  0  0  0
 25 91  1  1  0  0  0
 26 30  2  0  0  0  0
 26110  1  0  0  0  0
 27 42  1  0  0  0  0
 27111  1  1  0  0  0
 28 29  1  0  0  0  0
 28 85  1  0  0  0  0
 28 86  1  0  0  0  0
 29 43  1  0  0  0  0
 29112  1  1  0  0  0
 30 34  1  0  0  0  0
 31 51  1  0  0  0  0
 31113  1  6  0  0  0
 32 45  1  0  0  0  0
 32114  1  1  0  0  0
 33 84  1  0  0  0  0
 33115  1  1  0  0  0
 34 39  1  0  0  0  0
 36 40  2  0  0  0  0
 36116  1  0  0  0  0
 37 66  1  0  0  0  0
 37117  1  0  0  0  0
 37118  1  0  0  0  0
 38 46  1  0  0  0  0
 38119  1  0  0  0  0
 38120  1  0  0  0  0
 39 44  2  0  0  0  0
 39121  1  0  0  0  0
 40 44  1  0  0  0  0
 40 88  1  0  0  0  0
 41 47  1  0  0  0  0
 41122  1  0  0  0  0
 41123  1  0  0  0  0
 42 67  1  0  0  0  0
 42124  1  0  0  0  0
 42125  1  0  0  0  0
 43 68  1  0  0  0  0
 43126  1  0  0  0  0
 43127  1  0  0  0  0
 44 89  1  0  0  0  0
 45 69  1  0  0  0  0
 45128  1  0  0  0  0
 45129  1  0  0  0  0
 46 58  2  0  0  0  0
 46 75  1  0  0  0  0
 47 60  2  0  0  0  0
 47 76  1  0  0  0  0
 49 51  1  0  0  0  0
 49 59  2  0  0  0  0
 49 74  1  0  0  0  0
 50 70  1  0  0  0  0
 51130  1  0  0  0  0
 51131  1  0  0  0  0
 52 66  1  0  0  0  0
 52 57  1  0  0  0  0
 52 61  2  0  0  0  0
 54 68  1  0  0  0  0
 54 64  2  0  0  0  0
 54 78  1  0  0  0  0
 55 69  1  0  0  0  0
 55 63  2  0  0  0  0
 55 77  1  0  0  0  0
 56 67  1  0  0  0  0
 56 65  2  0  0  0  0
 56 79  1  0  0  0  0
 57 81  1  0  0  0  0
 57 93  1  0  0  0  0
 62132  1  0  0  0  0
 66133  1  0  0  0  0
 66134  1  0  0  0  0
 67135  1  0  0  0  0
 67136  1  0  0  0  0
 68137  1  0  0  0  0
 68138  1  0  0  0  0
 69139  1  0  0  0  0
 69140  1  0  0  0  0
 70 81  1  0  0  0  0
 70 90  1  0  0  0  0
 70141  1  6  0  0  0
 71142  1  0  0  0  0
 71143  1  0  0  0  0
 71144  1  0  0  0  0
 72145  1  0  0  0  0
 72146  1  0  0  0  0
 72147  1  0  0  0  0
 73148  1  0  0  0  0
 73149  1  0  0  0  0
 73150  1  0  0  0  0
 74 94  1  0  0  0  0
 74 95  1  0  0  0  0
 75 96  1  0  0  0  0
 75 97  1  0  0  0  0
 76 98  1  0  0  0  0
 76 99  1  0  0  0  0
 77100  1  0  0  0  0
 77101  1  0  0  0  0
 78102  1  0  0  0  0
 78103  1  0  0  0  0
 79104  1  0  0  0  0
 79105  1  0  0  0  0
 80151  1  0  0  0  0
 80152  1  0  0  0  0
 80153  1  0  0  0  0
 81154  1  0  0  0  0
 81155  1  0  0  0  0
 82156  1  0  0  0  0
 82157  1  0  0  0  0
 82158  1  0  0  0  0
 83159  1  0  0  0  0
 83160  1  0  0  0  0
 83161  1  0  0  0  0
 84 87  1  0  0  0  0
 84162  1  0  0  0  0
 84163  1  0  0  0  0
 85164  1  0  0  0  0
 85165  1  0  0  0  0
 85166  1  0  0  0  0
 86167  1  0  0  0  0
 86168  1  0  0  0  0
 86169  1  0  0  0  0
 87170  1  0  0  0  0
 88171  1  0  0  0  0
 88172  1  0  0  0  0
 88173  1  0  0  0  0
 89174  1  0  0  0  0
 89175  1  0  0  0  0
 89176  1  0  0  0  0
 90177  1  0  0  0  0
 90178  1  0  0  0  0
 90179  1  0  0  0  0
M  CHG  3  10  -1  48  -1  92   2
M  END
>  <DRUGBANK_ID>
DB14098

>  <COMMON_NAME>
Cobalamin

>  <CAS_NUMBER>
13408-78-1

>  <UNII>
8406EY2OQA

$$$$
