1450
 OpenBabel10282417072D

 65 70  0  0  1  0  0  0  0  0999 V2000
    4.3079   -1.4379    0.0000 O   0  0  0  0  0  0  0  0  0  0  0  0
    6.3946   -1.6094    0.0000 O   0  0  0  0  0  0  0  0  0  0  0  0
    7.2345    0.7003    0.0000 O   0  0  0  0  0  0  0  0  0  0  0  0
    2.2397   -1.6093    0.0000 O   0  0  0  0  0  0  0  0  0  0  0  0
    5.1422    1.9889    0.0000 N   0  0  0  0  0  0  0  0  0  0  0  0
    5.1422    0.5599    0.0000 C   0  0  2  0  0  0  0  0  0  0  0  0
    4.7296   -0.1546    0.0000 C   0  0  1  0  0  0  0  0  0  0  0  0
    5.9672   -0.8690    0.0000 C   0  0  1  0  0  0  0  0  0  0  0  0
    5.1422   -0.8690    0.0000 C   0  0  2  0  0  0  0  0  0  0  0  0
    5.9672    0.5599    0.0000 C   0  0  0  0  0  0  0  0  0  0  0  0
    6.3797   -0.1546    0.0000 C   0  0  2  0  0  0  0  0  0  0  0  0
    4.7296    1.2745    0.0000 C   0  0  1  0  0  0  0  0  0  0  0  0
    5.7380    0.1755    0.0000 C   0  0  0  0  0  0  0  0  0  0  0  0
    5.4263   -0.4479    0.0000 C   0  0  0  0  0  0  0  0  0  0  0  0
    4.3172    0.5599    0.0000 C   0  0  0  0  0  0  0  0  0  0  0  0
    3.9046   -0.1546    0.0000 C   0  0  0  0  0  0  0  0  0  0  0  0
    3.9046    1.2745    0.0000 C   0  0  0  0  0  0  0  0  0  0  0  0
    7.2345   -0.1546    0.0000 C   0  0  1  0  0  0  0  0  0  0  0  0
    4.3079    2.1372    0.0000 C   0  0  0  0  0  0  0  0  0  0  0  0
    3.4921    0.5599    0.0000 C   0  0  0  0  0  0  0  0  0  0  0  0
    3.4921   -0.8690    0.0000 C   0  0  0  0  0  0  0  0  0  0  0  0
    8.0894   -0.1546    0.0000 C   0  0  0  0  0  0  0  0  0  0  0  0
    5.9172    2.3497    0.0000 C   0  0  0  0  0  0  0  0  0  0  0  0
    7.2345   -1.0094    0.0000 C   0  0  0  0  0  0  0  0  0  0  0  0
    2.6671    0.5599    0.0000 C   0  0  0  0  0  0  0  0  0  0  0  0
    2.6671   -0.8690    0.0000 C   0  0  0  0  0  0  0  0  0  0  0  0
    5.9672   -2.3497    0.0000 C   0  0  0  0  0  0  0  0  0  0  0  0
    2.2545   -0.1546    0.0000 C   0  0  0  0  0  0  0  0  0  0  0  0
    8.5168    0.5857    0.0000 C   0  0  0  0  0  0  0  0  0  0  0  0
    9.3716    0.5857    0.0000 C   0  0  0  0  0  0  0  0  0  0  0  0
    5.3437   -1.5225    0.0000 H   0  0  0  0  0  0  0  0  0  0  0  0
    6.7216    0.4377    0.0000 H   0  0  0  0  0  0  0  0  0  0  0  0
    5.3702    1.0349    0.0000 H   0  0  0  0  0  0  0  0  0  0  0  0
    8.0745    1.1853    0.0000 H   0  0  0  0  0  0  0  0  0  0  0  0
    1.3027   -1.6093    0.0000 H   0  0  0  0  0  0  0  0  0  0  0  0
    6.5022    1.4865    0.0000 H   0  0  0  0  0  0  0  0  0  0  0  0
    7.0372    0.5599    0.0000 H   0  0  0  0  0  0  0  0  0  0  0  0
    6.7701    0.4579    0.0000 H   0  0  0  0  0  0  0  0  0  0  0  0
    6.4167   -0.6517    0.0000 H   0  0  0  0  0  0  0  0  0  0  0  0
    4.3828   -0.6844    0.0000 H   0  0  0  0  0  0  0  0  0  0  0  0
    4.7661    0.3941    0.0000 H   0  0  0  0  0  0  0  0  0  0  0  0
    3.2845    0.2800    0.0000 H   0  0  0  0  0  0  0  0  0  0  0  0
    3.4655    1.2075    0.0000 H   0  0  0  0  0  0  0  0  0  0  0  0
    3.3696    2.2011    0.0000 H   0  0  0  0  0  0  0  0  0  0  0  0
    2.8346    1.2744    0.0000 H   0  0  0  0  0  0  0  0  0  0  0  0
    3.6183    2.9553    0.0000 H   0  0  0  0  0  0  0  0  0  0  0  0
    3.3039    1.7671    0.0000 H   0  0  0  0  0  0  0  0  0  0  0  0
    8.6244   -1.0812    0.0000 H   0  0  0  0  0  0  0  0  0  0  0  0
    9.1594   -0.1546    0.0000 H   0  0  0  0  0  0  0  0  0  0  0  0
    6.7933    1.7354    0.0000 H   0  0  0  0  0  0  0  0  0  0  0  0
    6.0111    3.4156    0.0000 H   0  0  0  0  0  0  0  0  0  0  0  0
    6.8872    2.8013    0.0000 H   0  0  0  0  0  0  0  0  0  0  0  0
    6.3079   -1.5444    0.0000 H   0  0  0  0  0  0  0  0  0  0  0  0
    8.1611   -1.5444    0.0000 H   0  0  0  0  0  0  0  0  0  0  0  0
    7.2345   -2.0794    0.0000 H   0  0  0  0  0  0  0  0  0  0  0  0
    2.1511    1.4537    0.0000 H   0  0  0  0  0  0  0  0  0  0  0  0
    4.8972   -2.3497    0.0000 H   0  0  0  0  0  0  0  0  0  0  0  0
    6.5022   -3.2763    0.0000 H   0  0  0  0  0  0  0  0  0  0  0  0
    5.4322   -3.2764    0.0000 H   0  0  0  0  0  0  0  0  0  0  0  0
    1.2225   -0.1546    0.0000 H   0  0  0  0  0  0  0  0  0  0  0  0
    7.9818    1.5123    0.0000 H   0  0  0  0  0  0  0  0  0  0  0  0
    9.0518    1.5123    0.0000 H   0  0  0  0  0  0  0  0  0  0  0  0
    9.9066   -0.3409    0.0000 H   0  0  0  0  0  0  0  0  0  0  0  0
    9.9066    1.5123    0.0000 H   0  0  0  0  0  0  0  0  0  0  0  0
   10.4416    0.5857    0.0000 H   0  0  0  0  0  0  0  0  0  0  0  0
  1  9  1  0  0  0  0
  1 21  1  0  0  0  0
  2 27  1  0  0  0  0
  3 34  1  0  0  0  0
  4 26  1  0  0  0  0
  4 35  1  0  0  0  0
  5 12  1  0  0  0  0
  5 19  1  0  0  0  0
  5 23  1  0  0  0  0
  6  7  1  0  0  0  0
  6 10  1  1  0  0  0
  6 12  1  0  0  0  0
  6 13  1  0  0  0  0
  7  9  1  0  0  0  0
  7 15  1  0  0  0  0
  7 16  1  6  0  0  0
  8  2  1  6  0  0  0
  8  9  1  0  0  0  0
  8 11  1  0  0  0  0
  8 14  1  0  0  0  0
  9 31  1  1  0  0  0
 10 11  1  0  0  0  0
 10 36  1  0  0  0  0
 10 37  1  0  0  0  0
 11 18  1  0  0  0  0
 11 32  1  1  0  0  0
 12 17  1  0  0  0  0
 12 33  1  6  0  0  0
 13 14  1  0  0  0  0
 13 38  1  0  0  0  0
 13 39  1  0  0  0  0
 14 40  1  0  0  0  0
 14 41  1  0  0  0  0
 15 19  1  0  0  0  0
 15 42  1  0  0  0  0
 15 43  1  0  0  0  0
 16 20  2  0  0  0  0
 16 21  1  0  0  0  0
 17 20  1  0  0  0  0
 17 44  1  0  0  0  0
 17 45  1  0  0  0  0
 18  3  1  1  0  0  0
 18 22  1  0  0  0  0
 18 24  1  0  0  0  0
 19 46  1  0  0  0  0
 19 47  1  0  0  0  0
 20 25  1  0  0  0  0
 21 26  2  0  0  0  0
 22 29  1  0  0  0  0
 22 48  1  0  0  0  0
 22 49  1  0  0  0  0
 23 50  1  0  0  0  0
 23 51  1  0  0  0  0
 23 52  1  0  0  0  0
 24 53  1  0  0  0  0
 24 54  1  0  0  0  0
 24 55  1  0  0  0  0
 25 28  2  0  0  0  0
 25 56  1  0  0  0  0
 26 28  1  0  0  0  0
 27 57  1  0  0  0  0
 27 58  1  0  0  0  0
 27 59  1  0  0  0  0
 28 60  1  0  0  0  0
 29 30  1  0  0  0  0
 29 61  1  0  0  0  0
 29 62  1  0  0  0  0
 30 63  1  0  0  0  0
 30 64  1  0  0  0  0
 30 65  1  0  0  0  0
M  END
>  <DRUGBANK_ID>
DB01450

>  <COMMON_NAME>
Dihydroetorphine

>  <CAS_NUMBER>
14357-76-7

>  <UNII>
QQX8S479YV

$$$$
