BHY
 OpenBabel10282417072D

 56 57  0  0  0  0  0  0  0  0999 V2000
   -3.6987   -1.9369    0.0000 N   0  0  0  0  0  0  0  0  0  0  0  0
   -0.8409   -1.9369    0.0000 C   0  0  0  0  0  0  0  0  0  0  0  0
    3.4460    2.1881    0.0000 N   0  0  0  0  0  0  0  0  0  0  0  0
   -0.1264   -0.6994    0.0000 C   0  0  0  0  0  0  0  0  0  0  0  0
   -5.1277   -1.1119    0.0000 O   0  0  0  0  0  0  0  0  0  0  0  0
   -1.5553   -0.6994    0.0000 C   0  0  0  0  0  0  0  0  0  0  0  0
    2.0170    0.5381    0.0000 C   0  0  0  0  0  0  0  0  0  0  0  0
   -1.5553   -1.5244    0.0000 C   0  0  0  0  0  0  0  0  0  0  0  0
    3.4460    3.8381    0.0000 O   0  0  0  0  0  0  0  0  0  0  0  0
    3.4460    3.0131    0.0000 S   0  0  0  0  0  0  0  0  0  0  0  0
    4.2710    3.0131    0.0000 O   0  0  0  0  0  0  0  0  0  0  0  0
   -4.4132   -1.5244    0.0000 S   0  0  0  0  0  0  0  0  0  0  0  0
   -0.1264   -1.5244    0.0000 C   0  0  0  0  0  0  0  0  0  0  0  0
   -4.8257   -2.2388    0.0000 O   0  0  0  0  0  0  0  0  0  0  0  0
   -0.8409   -0.2869    0.0000 C   0  0  0  0  0  0  0  0  0  0  0  0
    2.0170   -0.2869    0.0000 C   0  0  0  0  0  0  0  0  0  0  0  0
    1.3026   -0.6994    0.0000 C   0  0  0  0  0  0  0  0  0  0  0  0
    0.5881   -0.2869    0.0000 C   0  0  0  0  0  0  0  0  0  0  0  0
    0.5881    0.5381    0.0000 C   0  0  0  0  0  0  0  0  0  0  0  0
    1.3026    0.9506    0.0000 C   0  0  0  0  0  0  0  0  0  0  0  0
    2.7315    0.9506    0.0000 C   0  0  1  0  0  0  0  0  0  0  0  0
   -2.2698   -1.9369    0.0000 C   0  0  2  0  0  0  0  0  0  0  0  0
   -2.9843   -1.5244    0.0000 C   0  0  0  0  0  0  0  0  0  0  0  0
   -2.2698   -2.7619    0.0000 C   0  0  0  0  0  0  0  0  0  0  0  0
    3.4460    0.5381    0.0000 C   0  0  0  0  0  0  0  0  0  0  0  0
    2.7315    1.7756    0.0000 C   0  0  0  0  0  0  0  0  0  0  0  0
    2.6210    3.0131    0.0000 C   0  0  0  0  0  0  0  0  0  0  0  0
   -4.0007   -0.8099    0.0000 C   0  0  0  0  0  0  0  0  0  0  0  0
    2.7315    0.3667    0.0000 H   0  0  0  0  0  0  0  0  0  0  0  0
   -2.2698   -1.3529    0.0000 H   0  0  0  0  0  0  0  0  0  0  0  0
   -3.6987   -2.9569    0.0000 H   0  0  0  0  0  0  0  0  0  0  0  0
   -0.8409   -2.9689    0.0000 H   0  0  0  0  0  0  0  0  0  0  0  0
    4.3293    1.6781    0.0000 H   0  0  0  0  0  0  0  0  0  0  0  0
   -2.4490   -0.1834    0.0000 H   0  0  0  0  0  0  0  0  0  0  0  0
    0.7673   -2.0404    0.0000 H   0  0  0  0  0  0  0  0  0  0  0  0
   -0.8409    0.7451    0.0000 H   0  0  0  0  0  0  0  0  0  0  0  0
    2.9107   -0.8029    0.0000 H   0  0  0  0  0  0  0  0  0  0  0  0
    1.3026   -1.7314    0.0000 H   0  0  0  0  0  0  0  0  0  0  0  0
   -0.3056    1.0541    0.0000 H   0  0  0  0  0  0  0  0  0  0  0  0
    1.3026    1.9826    0.0000 H   0  0  0  0  0  0  0  0  0  0  0  0
   -2.9843   -0.4544    0.0000 H   0  0  0  0  0  0  0  0  0  0  0  0
   -2.0577   -0.9894    0.0000 H   0  0  0  0  0  0  0  0  0  0  0  0
   -3.1964   -3.2969    0.0000 H   0  0  0  0  0  0  0  0  0  0  0  0
   -1.3432   -3.2969    0.0000 H   0  0  0  0  0  0  0  0  0  0  0  0
   -2.2698   -3.8319    0.0000 H   0  0  0  0  0  0  0  0  0  0  0  0
    3.4460   -0.5319    0.0000 H   0  0  0  0  0  0  0  0  0  0  0  0
    4.3726    1.0731    0.0000 H   0  0  0  0  0  0  0  0  0  0  0  0
    4.3727    0.0031    0.0000 H   0  0  0  0  0  0  0  0  0  0  0  0
    1.8049    2.3106    0.0000 H   0  0  0  0  0  0  0  0  0  0  0  0
    1.8049    1.2406    0.0000 H   0  0  0  0  0  0  0  0  0  0  0  0
    2.0860    3.9397    0.0000 H   0  0  0  0  0  0  0  0  0  0  0  0
    2.0860    2.0865    0.0000 H   0  0  0  0  0  0  0  0  0  0  0  0
    1.5510    3.0131    0.0000 H   0  0  0  0  0  0  0  0  0  0  0  0
   -2.9307   -0.8099    0.0000 H   0  0  0  0  0  0  0  0  0  0  0  0
   -4.5357    0.1167    0.0000 H   0  0  0  0  0  0  0  0  0  0  0  0
   -3.4657    0.1168    0.0000 H   0  0  0  0  0  0  0  0  0  0  0  0
  1 12  1  0  0  0  0
  1 23  1  0  0  0  0
  1 31  1  0  0  0  0
  2  8  2  0  0  0  0
  2 13  1  0  0  0  0
  2 32  1  0  0  0  0
  3 10  1  0  0  0  0
  3 26  1  0  0  0  0
  3 33  1  0  0  0  0
  4 13  2  0  0  0  0
  4 15  1  0  0  0  0
  4 18  1  0  0  0  0
  5 12  2  0  0  0  0
  6  8  1  0  0  0  0
  6 15  2  0  0  0  0
  6 34  1  0  0  0  0
  7 16  2  0  0  0  0
  7 20  1  0  0  0  0
  7 21  1  0  0  0  0
  8 22  1  0  0  0  0
  9 10  2  0  0  0  0
 10 11  2  0  0  0  0
 10 27  1  0  0  0  0
 12 14  2  0  0  0  0
 12 28  1  0  0  0  0
 13 35  1  0  0  0  0
 15 36  1  0  0  0  0
 16 17  1  0  0  0  0
 16 37  1  0  0  0  0
 17 18  2  0  0  0  0
 17 38  1  0  0  0  0
 18 19  1  0  0  0  0
 19 20  2  0  0  0  0
 19 39  1  0  0  0  0
 20 40  1  0  0  0  0
 21 25  1  0  0  0  0
 21 26  1  0  0  0  0
 21 29  1  1  0  0  0
 22 23  1  0  0  0  0
 22 24  1  0  0  0  0
 22 30  1  6  0  0  0
 23 41  1  0  0  0  0
 23 42  1  0  0  0  0
 24 43  1  0  0  0  0
 24 44  1  0  0  0  0
 24 45  1  0  0  0  0
 25 46  1  0  0  0  0
 25 47  1  0  0  0  0
 25 48  1  0  0  0  0
 26 49  1  0  0  0  0
 26 50  1  0  0  0  0
 27 51  1  0  0  0  0
 27 52  1  0  0  0  0
 27 53  1  0  0  0  0
 28 54  1  0  0  0  0
 28 55  1  0  0  0  0
 28 56  1  0  0  0  0
M  END
>  <DRUGBANK_ID>
DB07455

>  <COMMON_NAME>
N,N'-[biphenyl-4,4'-diyldi(2R)propane-2,1-diyl]dimethanesulfonamide

$$$$
