
 OpenBabel10282417072D

 49 46  0  0  0  0  0  0  0  0999 V2000
   -5.5869    0.1873    0.0000 C   0  0  0  0  0  0  0  0  0  0  0  0
   -4.8724   -0.2251    0.0000 C   0  0  2  0  0  0  0  0  0  0  0  0
   -4.1579    0.1873    0.0000 C   0  0  2  0  0  0  0  0  0  0  0  0
   -3.4435   -0.2251    0.0000 C   0  0  1  0  0  0  0  0  0  0  0  0
   -2.7290    0.1873    0.0000 C   0  0  2  0  0  0  0  0  0  0  0  0
   -2.0145   -0.2251    0.0000 C   0  0  0  0  0  0  0  0  0  0  0  0
   -6.3013   -0.2251    0.0000 O   0  0  0  0  0  0  0  0  0  0  0  0
   -4.8724   -1.0501    0.0000 O   0  0  0  0  0  0  0  0  0  0  0  0
   -4.1579    1.0123    0.0000 O   0  0  0  0  0  0  0  0  0  0  0  0
   -3.4435   -1.0501    0.0000 O   0  0  0  0  0  0  0  0  0  0  0  0
   -2.7290    1.0123    0.0000 O   0  0  0  0  0  0  0  0  0  0  0  0
   -2.0145   -1.0501    0.0000 O   0  0  0  0  0  0  0  0  0  0  0  0
   -1.3000    0.1873    0.0000 O   0  5  0  0  0  0  0  0  0  0  0  0
    2.0145    0.2251    0.0000 C   0  0  0  0  0  0  0  0  0  0  0  0
    2.7290   -0.1873    0.0000 C   0  0  2  0  0  0  0  0  0  0  0  0
    3.4435    0.2251    0.0000 C   0  0  2  0  0  0  0  0  0  0  0  0
    4.1579   -0.1873    0.0000 C   0  0  1  0  0  0  0  0  0  0  0  0
    4.8724    0.2251    0.0000 C   0  0  2  0  0  0  0  0  0  0  0  0
    5.5869   -0.1873    0.0000 C   0  0  0  0  0  0  0  0  0  0  0  0
    1.3000   -0.1873    0.0000 O   0  0  0  0  0  0  0  0  0  0  0  0
    2.7290   -1.0123    0.0000 O   0  0  0  0  0  0  0  0  0  0  0  0
    3.4435    1.0501    0.0000 O   0  0  0  0  0  0  0  0  0  0  0  0
    4.1579   -1.0123    0.0000 O   0  0  0  0  0  0  0  0  0  0  0  0
    4.8724    1.0501    0.0000 O   0  0  0  0  0  0  0  0  0  0  0  0
    6.3013    0.2251    0.0000 O   0  0  0  0  0  0  0  0  0  0  0  0
    5.5869   -1.0123    0.0000 O   0  5  0  0  0  0  0  0  0  0  0  0
   -0.5856    0.5998    0.0000 Fe  0  2  0  0  0  0  0  0  0  0  0  0
   -4.8724    0.5998    0.0000 H   0  0  0  0  0  0  0  0  0  0  0  0
   -4.1579   -0.6376    0.0000 H   0  0  0  0  0  0  0  0  0  0  0  0
   -3.4435    0.5998    0.0000 H   0  0  0  0  0  0  0  0  0  0  0  0
   -2.7290   -0.6376    0.0000 H   0  0  0  0  0  0  0  0  0  0  0  0
    2.7290    0.6376    0.0000 H   0  0  0  0  0  0  0  0  0  0  0  0
    3.4435   -0.5998    0.0000 H   0  0  0  0  0  0  0  0  0  0  0  0
    4.1579    0.6376    0.0000 H   0  0  0  0  0  0  0  0  0  0  0  0
    4.8724   -0.5998    0.0000 H   0  0  0  0  0  0  0  0  0  0  0  0
   -5.5869    1.2573    0.0000 H   0  0  0  0  0  0  0  0  0  0  0  0
   -6.5135    0.7223    0.0000 H   0  0  0  0  0  0  0  0  0  0  0  0
   -7.1413    0.2600    0.0000 H   0  0  0  0  0  0  0  0  0  0  0  0
   -5.7124   -1.5351    0.0000 H   0  0  0  0  0  0  0  0  0  0  0  0
   -3.3179    1.4973    0.0000 H   0  0  0  0  0  0  0  0  0  0  0  0
   -4.2835   -1.5351    0.0000 H   0  0  0  0  0  0  0  0  0  0  0  0
   -1.8890    1.4973    0.0000 H   0  0  0  0  0  0  0  0  0  0  0  0
    2.0145    1.2951    0.0000 H   0  0  0  0  0  0  0  0  0  0  0  0
    1.0879    0.7602    0.0000 H   0  0  0  0  0  0  0  0  0  0  0  0
    0.4600    0.2978    0.0000 H   0  0  0  0  0  0  0  0  0  0  0  0
    1.8890   -1.4973    0.0000 H   0  0  0  0  0  0  0  0  0  0  0  0
    4.2835    1.5351    0.0000 H   0  0  0  0  0  0  0  0  0  0  0  0
    3.3179   -1.4973    0.0000 H   0  0  0  0  0  0  0  0  0  0  0  0
    5.7124    1.5351    0.0000 H   0  0  0  0  0  0  0  0  0  0  0  0
  1 36  1  0  0  0  0
  1 37  1  0  0  0  0
  2  1  1  0  0  0  0
  2  8  1  0  0  0  0
  2 28  1  1  0  0  0
  3  2  1  0  0  0  0
  3  4  1  0  0  0  0
  3  9  1  0  0  0  0
  3 29  1  6  0  0  0
  4  5  1  0  0  0  0
  4 10  1  0  0  0  0
  4 30  1  6  0  0  0
  5  6  1  0  0  0  0
  5 11  1  0  0  0  0
  5 31  1  6  0  0  0
  7  1  1  0  0  0  0
  7 38  1  0  0  0  0
  8 39  1  0  0  0  0
  9 40  1  0  0  0  0
 10 41  1  0  0  0  0
 11 42  1  0  0  0  0
 12  6  2  0  0  0  0
 13  6  1  0  0  0  0
 14 43  1  0  0  0  0
 14 44  1  0  0  0  0
 15 14  1  0  0  0  0
 15 21  1  0  0  0  0
 15 32  1  1  0  0  0
 16 15  1  0  0  0  0
 16 17  1  0  0  0  0
 16 22  1  0  0  0  0
 16 33  1  6  0  0  0
 17 18  1  0  0  0  0
 17 23  1  0  0  0  0
 17 34  1  6  0  0  0
 18 19  1  0  0  0  0
 18 24  1  0  0  0  0
 18 35  1  6  0  0  0
 20 14  1  0  0  0  0
 20 45  1  0  0  0  0
 21 46  1  0  0  0  0
 22 47  1  0  0  0  0
 23 48  1  0  0  0  0
 24 49  1  0  0  0  0
 25 19  2  0  0  0  0
 26 19  1  0  0  0  0
M  CHG  3  13  -1  26  -1  27   2
M  END
>  <DRUGBANK_ID>
DB14488

>  <SECONDARY_ACCESSION_NUMBERS>
DBSALT000080

>  <COMMON_NAME>
Ferrous gluconate

>  <CAS_NUMBER>
299-29-6

>  <UNII>
781E2AXH0K

>  <SYNONYMS>
D-gluconic acid, iron(2+) salt (2:1); Ferric Gluconate; Ferrous gluconate anhydrous; Iron(2+) gluconate (1:2); Iron(II) gluconate, anhydrous

$$$$
