
 OpenBabel10282417072D

200205  0  0  0  0  0  0  0  0999 V2000
   -8.4762    3.5537    0.0000 Cl  0  0  0  0  0  0  0  0  0  0  0  0
    3.0008   -3.9046    0.0000 O   0  0  0  0  0  0  0  0  0  0  0  0
    3.1237   -5.0278    0.0000 O   0  0  0  0  0  0  0  0  0  0  0  0
    3.7204   -1.0090    0.0000 O   0  0  0  0  0  0  0  0  0  0  0  0
    4.4224   -7.7128    0.0000 O   0  0  0  0  0  0  0  0  0  0  0  0
    0.8423   -0.1842    0.0000 O   0  0  0  0  0  0  0  0  0  0  0  0
    1.5618    2.7113    0.0000 O   0  0  0  0  0  0  0  0  0  0  0  0
   -1.2986    3.5537    0.0000 O   0  0  0  0  0  0  0  0  0  0  0  0
   -1.2986    1.0617    0.0000 O   0  0  0  0  0  0  0  0  0  0  0  0
   -3.4572    1.4653    0.0000 O   0  0  0  0  0  0  0  0  0  0  0  0
    3.0008    5.2033    0.0000 O   0  0  0  0  0  0  0  0  0  0  0  0
    5.8789    0.2368    0.0000 O   0  0  0  0  0  0  0  0  0  0  0  0
   -5.5982    3.5537    0.0000 O   0  0  0  0  0  0  0  0  0  0  0  0
   -4.8962    6.4493    0.0000 O   0  0  0  0  0  0  0  0  0  0  0  0
   -4.8962    7.2741    0.0000 O   0  0  0  0  0  0  0  0  0  0  0  0
    4.4399   -3.9046    0.0000 N   0  0  0  0  0  0  0  0  0  0  0  0
    3.0008   -2.2550    0.0000 N   0  0  0  0  0  0  0  0  0  0  0  0
    4.0889   -6.0983    0.0000 N   0  0  0  0  0  0  0  0  0  0  0  0
    2.2813   -0.1842    0.0000 N   0  0  0  0  0  0  0  0  0  0  0  0
    6.5809   -2.6762    0.0000 N   0  0  0  0  0  0  0  0  0  0  0  0
    0.8423    1.4653    0.0000 N   0  0  0  0  0  0  0  0  0  0  0  0
    3.0184   -8.0112    0.0000 N   0  0  0  0  0  0  0  0  0  0  0  0
   -0.5791    2.3077    0.0000 N   0  0  0  0  0  0  0  0  0  0  0  0
    8.0200   -2.6762    0.0000 N   0  0  0  0  0  0  0  0  0  0  0  0
    7.3004   -1.4302    0.0000 N   0  0  0  0  0  0  0  0  0  0  0  0
    5.1594    1.4653    0.0000 N   0  0  0  0  0  0  0  0  0  0  0  0
   -2.7376    2.7113    0.0000 N   0  0  0  0  0  0  0  0  0  0  0  0
   -4.1767    3.5537    0.0000 N   0  0  0  0  0  0  0  0  0  0  0  0
   -4.1767    5.2033    0.0000 N   0  0  0  0  0  0  0  0  0  0  0  0
    6.5809    1.4653    0.0000 N   0  0  0  0  0  0  0  0  0  0  0  0
   -3.4572    7.2741    0.0000 N   0  0  0  0  0  0  0  0  0  0  0  0
   -4.1767    0.2368    0.0000 N   0  0  0  0  0  0  0  0  0  0  0  0
    4.5276   -4.7295    0.0000 C   0  0  1  0  0  0  0  0  0  0  0  0
    5.3349   -4.9050    0.0000 C   0  0  0  0  0  0  0  0  0  0  0  0
    5.7561   -4.1854    0.0000 C   0  0  0  0  0  0  0  0  0  0  0  0
    5.1945   -3.5712    0.0000 C   0  0  0  0  0  0  0  0  0  0  0  0
    3.7204   -3.5010    0.0000 C   0  0  0  0  0  0  0  0  0  0  0  0
    3.7204   -2.6762    0.0000 C   0  0  2  0  0  0  0  0  0  0  0  0
    3.9134   -5.2910    0.0000 C   0  0  0  0  0  0  0  0  0  0  0  0
    4.4399   -2.2550    0.0000 C   0  0  0  0  0  0  0  0  0  0  0  0
    5.1594   -2.6762    0.0000 C   0  0  0  0  0  0  0  0  0  0  0  0
    3.4571   -6.6599    0.0000 C   0  0  2  0  0  0  0  0  0  0  0  0
    3.0008   -1.4302    0.0000 C   0  0  0  0  0  0  0  0  0  0  0  0
    2.2813   -1.0090    0.0000 C   0  0  2  0  0  0  0  0  0  0  0  0
    5.8789   -2.2550    0.0000 C   0  0  0  0  0  0  0  0  0  0  0  0
    1.5618   -1.4302    0.0000 C   0  0  0  0  0  0  0  0  0  0  0  0
    2.6850   -6.3967    0.0000 C   0  0  0  0  0  0  0  0  0  0  0  0
    1.5618   -2.2550    0.0000 C   0  0  0  0  0  0  0  0  0  0  0  0
    3.6326   -7.4672    0.0000 C   0  0  0  0  0  0  0  0  0  0  0  0
    1.5618    1.0617    0.0000 C   0  0  1  0  0  0  0  0  0  0  0  0
    1.5618    0.2368    0.0000 C   0  0  0  0  0  0  0  0  0  0  0  0
    0.8423   -2.6762    0.0000 C   0  0  0  0  0  0  0  0  0  0  0  0
    2.2813    1.4653    0.0000 C   0  0  0  0  0  0  0  0  0  0  0  0
    3.0008    1.0617    0.0000 C   0  0  0  0  0  0  0  0  0  0  0  0
    0.1403    2.7113    0.0000 C   0  0  2  0  0  0  0  0  0  0  0  0
    7.3004   -2.2550    0.0000 C   0  0  0  0  0  0  0  0  0  0  0  0
    0.8423   -3.5010    0.0000 C   0  0  0  0  0  0  0  0  0  0  0  0
    3.7204    1.4653    0.0000 C   0  0  0  0  0  0  0  0  0  0  0  0
    0.8423    2.3077    0.0000 C   0  0  0  0  0  0  0  0  0  0  0  0
    0.1403    3.5537    0.0000 C   0  0  0  0  0  0  0  0  0  0  0  0
    4.4399    1.0617    0.0000 C   0  0  0  0  0  0  0  0  0  0  0  0
   -1.2986    2.7113    0.0000 C   0  0  0  0  0  0  0  0  0  0  0  0
    0.8423    3.9573    0.0000 C   0  0  0  0  0  0  0  0  0  0  0  0
   -2.0181    2.3077    0.0000 C   0  0  2  0  0  0  0  0  0  0  0  0
   -0.5791    1.4653    0.0000 C   0  0  0  0  0  0  0  0  0  0  0  0
   -2.0181    1.4653    0.0000 C   0  0  0  0  0  0  0  0  0  0  0  0
    1.5618    3.5537    0.0000 C   0  0  0  0  0  0  0  0  0  0  0  0
    0.8423    4.7821    0.0000 C   0  0  0  0  0  0  0  0  0  0  0  0
   -4.1767    2.7113    0.0000 C   0  0  1  0  0  0  0  0  0  0  0  0
   -3.4572    2.3077    0.0000 C   0  0  0  0  0  0  0  0  0  0  0  0
   -4.8962    2.3077    0.0000 C   0  0  0  0  0  0  0  0  0  0  0  0
    2.2813    3.9573    0.0000 C   0  0  0  0  0  0  0  0  0  0  0  0
    1.5618    5.2033    0.0000 C   0  0  0  0  0  0  0  0  0  0  0  0
   -4.8962    4.7821    0.0000 C   0  0  1  0  0  0  0  0  0  0  0  0
    5.8789    1.0617    0.0000 C   0  0  0  0  0  0  0  0  0  0  0  0
    2.2813    4.7821    0.0000 C   0  0  0  0  0  0  0  0  0  0  0  0
   -4.8962    3.9573    0.0000 C   0  0  0  0  0  0  0  0  0  0  0  0
   -5.5982    5.2033    0.0000 C   0  0  0  0  0  0  0  0  0  0  0  0
   -4.8962    1.4653    0.0000 C   0  0  0  0  0  0  0  0  0  0  0  0
   -3.4572    6.4493    0.0000 C   0  0  1  0  0  0  0  0  0  0  0  0
   -4.1767    6.0281    0.0000 C   0  0  0  0  0  0  0  0  0  0  0  0
   -2.7376    6.0281    0.0000 C   0  0  0  0  0  0  0  0  0  0  0  0
   -6.3177    4.7821    0.0000 C   0  0  0  0  0  0  0  0  0  0  0  0
   -5.5982    1.0617    0.0000 C   0  0  0  0  0  0  0  0  0  0  0  0
   -2.0181    6.4493    0.0000 C   0  0  0  0  0  0  0  0  0  0  0  0
   -4.1767    1.0617    0.0000 C   0  0  0  0  0  0  0  0  0  0  0  0
   -7.0372    5.2033    0.0000 C   0  0  0  0  0  0  0  0  0  0  0  0
   -6.3177    3.9573    0.0000 C   0  0  0  0  0  0  0  0  0  0  0  0
   -1.2986    6.0281    0.0000 C   0  0  0  0  0  0  0  0  0  0  0  0
   -2.0181    7.2741    0.0000 C   0  0  0  0  0  0  0  0  0  0  0  0
   -5.5982    0.2368    0.0000 C   0  0  0  0  0  0  0  0  0  0  0  0
   -0.5791    6.4493    0.0000 C   0  0  0  0  0  0  0  0  0  0  0  0
   -0.5791    7.2741    0.0000 C   0  0  0  0  0  0  0  0  0  0  0  0
   -7.7567    4.7821    0.0000 C   0  0  0  0  0  0  0  0  0  0  0  0
   -7.0372    3.5537    0.0000 C   0  0  0  0  0  0  0  0  0  0  0  0
   -4.1767    7.6953    0.0000 C   0  0  0  0  0  0  0  0  0  0  0  0
   -1.2986    7.6953    0.0000 C   0  0  0  0  0  0  0  0  0  0  0  0
   -4.8962   -0.1842    0.0000 C   0  0  0  0  0  0  0  0  0  0  0  0
   -7.7567    3.9573    0.0000 C   0  0  0  0  0  0  0  0  0  0  0  0
    0.1579    5.9930    0.0000 C   0  0  0  0  0  0  0  0  0  0  0  0
    0.1579    7.7128    0.0000 C   0  0  0  0  0  0  0  0  0  0  0  0
   -4.1767    8.5201    0.0000 C   0  0  0  0  0  0  0  0  0  0  0  0
    0.9125    6.4318    0.0000 C   0  0  0  0  0  0  0  0  0  0  0  0
    0.9125    7.2917    0.0000 C   0  0  0  0  0  0  0  0  0  0  0  0
    2.5621   -2.5183    0.0000 H   0  0  0  0  0  0  0  0  0  0  0  0
    4.5628   -6.2562    0.0000 H   0  0  0  0  0  0  0  0  0  0  0  0
    2.7376    0.0789    0.0000 H   0  0  0  0  0  0  0  0  0  0  0  0
    6.5809   -3.1851    0.0000 H   0  0  0  0  0  0  0  0  0  0  0  0
    0.4036    1.2196    0.0000 H   0  0  0  0  0  0  0  0  0  0  0  0
    2.5270   -7.8532    0.0000 H   0  0  0  0  0  0  0  0  0  0  0  0
    3.1237   -8.5201    0.0000 H   0  0  0  0  0  0  0  0  0  0  0  0
    8.0200   -3.1851    0.0000 H   0  0  0  0  0  0  0  0  0  0  0  0
    8.4762   -2.4129    0.0000 H   0  0  0  0  0  0  0  0  0  0  0  0
    7.7567   -1.1670    0.0000 H   0  0  0  0  0  0  0  0  0  0  0  0
    5.1594    1.9918    0.0000 H   0  0  0  0  0  0  0  0  0  0  0  0
   -2.7376    3.2378    0.0000 H   0  0  0  0  0  0  0  0  0  0  0  0
   -3.7204    3.7993    0.0000 H   0  0  0  0  0  0  0  0  0  0  0  0
   -3.7204    4.9401    0.0000 H   0  0  0  0  0  0  0  0  0  0  0  0
    7.0372    1.2196    0.0000 H   0  0  0  0  0  0  0  0  0  0  0  0
    6.5809    1.9918    0.0000 H   0  0  0  0  0  0  0  0  0  0  0  0
   -3.0009    7.5373    0.0000 H   0  0  0  0  0  0  0  0  0  0  0  0
   -1.2866    0.0918    0.0000 H   0  0  0  0  0  0  0  0  0  0  0  0
    3.8151    4.7397    0.0000 H   0  0  0  0  0  0  0  0  0  0  0  0
    3.5270   -4.3504    0.0000 H   0  0  0  0  0  0  0  0  0  0  0  0
    5.7649   -5.8848    0.0000 H   0  0  0  0  0  0  0  0  0  0  0  0
    6.4031   -4.9670    0.0000 H   0  0  0  0  0  0  0  0  0  0  0  0
    6.8201   -4.0727    0.0000 H   0  0  0  0  0  0  0  0  0  0  0  0
    6.1353   -3.1848    0.0000 H   0  0  0  0  0  0  0  0  0  0  0  0
    5.4144   -2.5241    0.0000 H   0  0  0  0  0  0  0  0  0  0  0  0
    6.2266   -3.2891    0.0000 H   0  0  0  0  0  0  0  0  0  0  0  0
    2.7922   -3.2084    0.0000 H   0  0  0  0  0  0  0  0  0  0  0  0
    4.4399   -1.1850    0.0000 H   0  0  0  0  0  0  0  0  0  0  0  0
    5.3682   -1.7228    0.0000 H   0  0  0  0  0  0  0  0  0  0  0  0
    5.1594   -3.7462    0.0000 H   0  0  0  0  0  0  0  0  0  0  0  0
    6.0877   -3.2084    0.0000 H   0  0  0  0  0  0  0  0  0  0  0  0
    3.2455   -5.6110    0.0000 H   0  0  0  0  0  0  0  0  0  0  0  0
    3.2096   -0.4768    0.0000 H   0  0  0  0  0  0  0  0  0  0  0  0
    5.8847   -1.1850    0.0000 H   0  0  0  0  0  0  0  0  0  0  0  0
    4.9521   -1.7203    0.0000 H   0  0  0  0  0  0  0  0  0  0  0  0
    0.6335   -0.8980    0.0000 H   0  0  0  0  0  0  0  0  0  0  0  0
    0.6360   -1.9666    0.0000 H   0  0  0  0  0  0  0  0  0  0  0  0
    2.4776   -5.3470    0.0000 H   0  0  0  0  0  0  0  0  0  0  0  0
    1.8796   -7.1012    0.0000 H   0  0  0  0  0  0  0  0  0  0  0  0
    1.6722   -6.0515    0.0000 H   0  0  0  0  0  0  0  0  0  0  0  0
    2.4901   -2.7872    0.0000 H   0  0  0  0  0  0  0  0  0  0  0  0
    1.5666   -3.3250    0.0000 H   0  0  0  0  0  0  0  0  0  0  0  0
    0.6385    0.5210    0.0000 H   0  0  0  0  0  0  0  0  0  0  0  0
   -0.0860   -2.1440    0.0000 H   0  0  0  0  0  0  0  0  0  0  0  0
   -0.0835   -3.2126    0.0000 H   0  0  0  0  0  0  0  0  0  0  0  0
    2.2813    2.5353    0.0000 H   0  0  0  0  0  0  0  0  0  0  0  0
    3.2046    2.0060    0.0000 H   0  0  0  0  0  0  0  0  0  0  0  0
    3.0008   -0.0083    0.0000 H   0  0  0  0  0  0  0  0  0  0  0  0
    3.9241    0.5209    0.0000 H   0  0  0  0  0  0  0  0  0  0  0  0
    0.1347    1.6413    0.0000 H   0  0  0  0  0  0  0  0  0  0  0  0
   -0.0843   -4.0360    0.0000 H   0  0  0  0  0  0  0  0  0  0  0  0
    1.7689   -4.0360    0.0000 H   0  0  0  0  0  0  0  0  0  0  0  0
    0.8423   -4.5710    0.0000 H   0  0  0  0  0  0  0  0  0  0  0  0
    3.7204    2.5353    0.0000 H   0  0  0  0  0  0  0  0  0  0  0  0
    4.6437    2.0060    0.0000 H   0  0  0  0  0  0  0  0  0  0  0  0
   -0.7859    4.0895    0.0000 H   0  0  0  0  0  0  0  0  0  0  0  0
    0.1418    4.6237    0.0000 H   0  0  0  0  0  0  0  0  0  0  0  0
    4.4399   -0.0083    0.0000 H   0  0  0  0  0  0  0  0  0  0  0  0
    3.5166    0.5210    0.0000 H   0  0  0  0  0  0  0  0  0  0  0  0
   -2.0181    3.3777    0.0000 H   0  0  0  0  0  0  0  0  0  0  0  0
   -1.5057    0.9303    0.0000 H   0  0  0  0  0  0  0  0  0  0  0  0
    0.3475    0.9303    0.0000 H   0  0  0  0  0  0  0  0  0  0  0  0
   -0.5791    0.3953    0.0000 H   0  0  0  0  0  0  0  0  0  0  0  0
   -2.9414    0.9246    0.0000 H   0  0  0  0  0  0  0  0  0  0  0  0
   -2.9464    1.9974    0.0000 H   0  0  0  0  0  0  0  0  0  0  0  0
    1.5618    2.5217    0.0000 H   0  0  0  0  0  0  0  0  0  0  0  0
   -0.0530    5.2954    0.0000 H   0  0  0  0  0  0  0  0  0  0  0  0
   -3.2534    3.2520    0.0000 H   0  0  0  0  0  0  0  0  0  0  0  0
   -5.8195    2.8484    0.0000 H   0  0  0  0  0  0  0  0  0  0  0  0
   -5.8245    1.7756    0.0000 H   0  0  0  0  0  0  0  0  0  0  0  0
    3.1718    3.4358    0.0000 H   0  0  0  0  0  0  0  0  0  0  0  0
    1.5618    6.2353    0.0000 H   0  0  0  0  0  0  0  0  0  0  0  0
   -3.9679    4.2499    0.0000 H   0  0  0  0  0  0  0  0  0  0  0  0
   -5.5924    6.2733    0.0000 H   0  0  0  0  0  0  0  0  0  0  0  0
   -6.5250    5.7380    0.0000 H   0  0  0  0  0  0  0  0  0  0  0  0
   -4.3855    6.9815    0.0000 H   0  0  0  0  0  0  0  0  0  0  0  0
   -2.7376    4.9581    0.0000 H   0  0  0  0  0  0  0  0  0  0  0  0
   -1.8093    5.4959    0.0000 H   0  0  0  0  0  0  0  0  0  0  0  0
   -6.4915    1.5785    0.0000 H   0  0  0  0  0  0  0  0  0  0  0  0
   -3.2862    1.5832    0.0000 H   0  0  0  0  0  0  0  0  0  0  0  0
   -7.0372    6.2353    0.0000 H   0  0  0  0  0  0  0  0  0  0  0  0
   -5.4272    3.4358    0.0000 H   0  0  0  0  0  0  0  0  0  0  0  0
   -1.2986    4.9961    0.0000 H   0  0  0  0  0  0  0  0  0  0  0  0
   -2.9134    7.7874    0.0000 H   0  0  0  0  0  0  0  0  0  0  0  0
   -6.4962   -0.2718    0.0000 H   0  0  0  0  0  0  0  0  0  0  0  0
   -8.6520    5.2954    0.0000 H   0  0  0  0  0  0  0  0  0  0  0  0
   -7.0372    2.5217    0.0000 H   0  0  0  0  0  0  0  0  0  0  0  0
   -1.2986    8.7273    0.0000 H   0  0  0  0  0  0  0  0  0  0  0  0
   -4.9018   -1.2162    0.0000 H   0  0  0  0  0  0  0  0  0  0  0  0
    0.1436    4.9611    0.0000 H   0  0  0  0  0  0  0  0  0  0  0  0
    0.1435    8.7447    0.0000 H   0  0  0  0  0  0  0  0  0  0  0  0
   -3.2501    9.0551    0.0000 H   0  0  0  0  0  0  0  0  0  0  0  0
   -5.1033    9.0551    0.0000 H   0  0  0  0  0  0  0  0  0  0  0  0
   -4.1767    9.5901    0.0000 H   0  0  0  0  0  0  0  0  0  0  0  0
    1.8070    5.9172    0.0000 H   0  0  0  0  0  0  0  0  0  0  0  0
    1.8024    7.8142    0.0000 H   0  0  0  0  0  0  0  0  0  0  0  0
  1 99  1  0  0  0  0
  2 37  2  0  0  0  0
  3 39  2  0  0  0  0
  4 43  2  0  0  0  0
  5 49  2  0  0  0  0
  6 51  2  0  0  0  0
  7 59  2  0  0  0  0
  8 62  2  0  0  0  0
  9 66  1  0  0  0  0
  9122  1  0  0  0  0
 10 70  2  0  0  0  0
 11 76  1  0  0  0  0
 11123  1  0  0  0  0
 12 75  2  0  0  0  0
 13 77  2  0  0  0  0
 14 81  2  0  0  0  0
 15 96  2  0  0  0  0
 16 33  1  0  0  0  0
 16 36  1  0  0  0  0
 16 37  1  0  0  0  0
 17 43  1  0  0  0  0
 17105  1  0  0  0  0
 18 39  1  0  0  0  0
 18106  1  0  0  0  0
 19 51  1  0  0  0  0
 19107  1  0  0  0  0
 20 45  1  0  0  0  0
 20 56  1  0  0  0  0
 20108  1  0  0  0  0
 21 59  1  0  0  0  0
 21109  1  0  0  0  0
 22 49  1  0  0  0  0
 22110  1  0  0  0  0
 22111  1  0  0  0  0
 23 62  1  0  0  0  0
 23 65  1  0  0  0  0
 24 56  1  0  0  0  0
 24112  1  0  0  0  0
 24113  1  0  0  0  0
 25 56  2  0  0  0  0
 25114  1  0  0  0  0
 26 61  1  0  0  0  0
 26 75  1  0  0  0  0
 26115  1  0  0  0  0
 27 70  1  0  0  0  0
 27116  1  0  0  0  0
 28 77  1  0  0  0  0
 28117  1  0  0  0  0
 29 81  1  0  0  0  0
 29118  1  0  0  0  0
 30 75  1  0  0  0  0
 30119  1  0  0  0  0
 30120  1  0  0  0  0
 31 96  1  0  0  0  0
 31121  1  0  0  0  0
 32 86  1  0  0  0  0
 32 98  2  0  0  0  0
 33 34  1  0  0  0  0
 33 39  1  0  0  0  0
 33124  1  6  0  0  0
 34 35  1  0  0  0  0
 34125  1  0  0  0  0
 34126  1  0  0  0  0
 35 36  1  0  0  0  0
 35127  1  0  0  0  0
 35128  1  0  0  0  0
 36129  1  0  0  0  0
 36130  1  0  0  0  0
 37 38  1  0  0  0  0
 38 17  1  0  0  0  0
 38 40  1  0  0  0  0
 38131  1  6  0  0  0
 40 41  1  0  0  0  0
 40132  1  0  0  0  0
 40133  1  0  0  0  0
 41 45  1  0  0  0  0
 41134  1  0  0  0  0
 41135  1  0  0  0  0
 42 18  1  0  0  0  0
 42 47  1  0  0  0  0
 42 49  1  0  0  0  0
 42136  1  6  0  0  0
 43 44  1  0  0  0  0
 44 19  1  0  0  0  0
 44 46  1  0  0  0  0
 44137  1  1  0  0  0
 45138  1  0  0  0  0
 45139  1  0  0  0  0
 46 48  1  0  0  0  0
 46140  1  0  0  0  0
 46141  1  0  0  0  0
 47142  1  0  0  0  0
 47143  1  0  0  0  0
 47144  1  0  0  0  0
 48 52  1  0  0  0  0
 48145  1  0  0  0  0
 48146  1  0  0  0  0
 50 21  1  0  0  0  0
 50 51  1  0  0  0  0
 50 53  1  0  0  0  0
 50147  1  1  0  0  0
 52 57  1  0  0  0  0
 52148  1  0  0  0  0
 52149  1  0  0  0  0
 53 54  1  0  0  0  0
 53150  1  0  0  0  0
 53151  1  0  0  0  0
 54 58  1  0  0  0  0
 54152  1  0  0  0  0
 54153  1  0  0  0  0
 55 23  1  0  0  0  0
 55 59  1  0  0  0  0
 55 60  1  0  0  0  0
 55154  1  6  0  0  0
 57155  1  0  0  0  0
 57156  1  0  0  0  0
 57157  1  0  0  0  0
 58 61  1  0  0  0  0
 58158  1  0  0  0  0
 58159  1  0  0  0  0
 60 63  1  0  0  0  0
 60160  1  0  0  0  0
 60161  1  0  0  0  0
 61162  1  0  0  0  0
 61163  1  0  0  0  0
 62 64  1  0  0  0  0
 63 67  2  0  0  0  0
 63 68  1  0  0  0  0
 64 27  1  0  0  0  0
 64 66  1  0  0  0  0
 64164  1  1  0  0  0
 65165  1  0  0  0  0
 65166  1  0  0  0  0
 65167  1  0  0  0  0
 66168  1  0  0  0  0
 66169  1  0  0  0  0
 67 72  1  0  0  0  0
 67170  1  0  0  0  0
 68 73  2  0  0  0  0
 68171  1  0  0  0  0
 69 28  1  0  0  0  0
 69 70  1  0  0  0  0
 69 71  1  0  0  0  0
 69172  1  6  0  0  0
 71 79  1  0  0  0  0
 71173  1  0  0  0  0
 71174  1  0  0  0  0
 72 76  2  0  0  0  0
 72175  1  0  0  0  0
 73 76  1  0  0  0  0
 73176  1  0  0  0  0
 74 29  1  0  0  0  0
 74 77  1  0  0  0  0
 74 78  1  0  0  0  0
 74177  1  6  0  0  0
 78 83  1  0  0  0  0
 78178  1  0  0  0  0
 78179  1  0  0  0  0
 79 84  1  0  0  0  0
 79 86  2  0  0  0  0
 80 31  1  0  0  0  0
 80 81  1  0  0  0  0
 80 82  1  0  0  0  0
 80180  1  1  0  0  0
 82 85  1  0  0  0  0
 82181  1  0  0  0  0
 82182  1  0  0  0  0
 83 87  2  0  0  0  0
 83 88  1  0  0  0  0
 84 91  2  0  0  0  0
 84183  1  0  0  0  0
 85 89  2  0  0  0  0
 85 90  1  0  0  0  0
 86184  1  0  0  0  0
 87 94  1  0  0  0  0
 87185  1  0  0  0  0
 88 95  2  0  0  0  0
 88186  1  0  0  0  0
 89 92  1  0  0  0  0
 89187  1  0  0  0  0
 90 97  2  0  0  0  0
 90188  1  0  0  0  0
 91 98  1  0  0  0  0
 91189  1  0  0  0  0
 92 93  1  0  0  0  0
 92100  2  0  0  0  0
 93 97  1  0  0  0  0
 93101  2  0  0  0  0
 94 99  2  0  0  0  0
 94190  1  0  0  0  0
 95 99  1  0  0  0  0
 95191  1  0  0  0  0
 96102  1  0  0  0  0
 97192  1  0  0  0  0
 98193  1  0  0  0  0
100103  1  0  0  0  0
100194  1  0  0  0  0
101104  1  0  0  0  0
101195  1  0  0  0  0
102196  1  0  0  0  0
102197  1  0  0  0  0
102198  1  0  0  0  0
103104  2  0  0  0  0
103199  1  0  0  0  0
104200  1  0  0  0  0
M  END
>  <DRUGBANK_ID>
DB12581

>  <SECONDARY_ACCESSION_NUMBERS>
DB05603

>  <COMMON_NAME>
Ozarelix

>  <CAS_NUMBER>
295350-45-7

>  <UNII>
Q1IF8M2YL3

>  <SYNONYMS>
Ozar√©lix; Ozarelix; Ozarelixum

$$$$
