
 OpenBabel10282417072D

196196  0  0  0  0  0  0  0  0999 V2000
    0.6944    1.3360    0.0000 C   0  0  2  0  0  0  0  0  0  0  0  0
   -0.0196    0.9229    0.0000 N   0  0  0  0  0  0  0  0  0  0  0  0
    1.4085    0.9229    0.0000 C   0  0  0  0  0  0  0  0  0  0  0  0
    0.6944    2.1583    0.0000 C   0  0  1  0  0  0  0  0  0  0  0  0
   -0.7337    1.3360    0.0000 C   0  0  0  0  0  0  0  0  0  0  0  0
   -0.0196    0.1005    0.0000 C   0  0  0  0  0  0  0  0  0  0  0  0
    2.1224    1.3360    0.0000 N   0  0  0  0  0  0  0  0  0  0  0  0
    1.4085    0.1005    0.0000 O   0  0  0  0  0  0  0  0  0  0  0  0
    1.4085    2.5716    0.0000 C   0  0  1  0  0  0  0  0  0  0  0  0
   -0.0196    2.5716    0.0000 O   0  0  0  0  0  0  0  0  0  0  0  0
   -1.4477    0.9229    0.0000 C   0  0  1  0  0  0  0  0  0  0  0  0
   -0.7337    2.1583    0.0000 O   0  0  0  0  0  0  0  0  0  0  0  0
    2.8365    0.9229    0.0000 C   0  0  2  0  0  0  0  0  0  0  0  0
    1.4085    3.3979    0.0000 C   0  0  0  0  0  0  0  0  0  0  0  0
    2.1224    2.1583    0.0000 C   0  0  0  0  0  0  0  0  0  0  0  0
   -2.1616    1.3360    0.0000 N   0  0  0  0  0  0  0  0  0  0  0  0
    3.5506    1.3360    0.0000 C   0  0  0  0  0  0  0  0  0  0  0  0
    2.8365    0.1005    0.0000 C   0  0  0  0  0  0  0  0  0  0  0  0
    0.6944    3.8111    0.0000 C   0  0  0  0  0  0  0  0  0  0  0  0
   -2.8757    0.9229    0.0000 C   0  0  0  0  0  0  0  0  0  0  0  0
   -2.1616    2.1583    0.0000 C   0  0  0  0  0  0  0  0  0  0  0  0
    4.2647    0.9229    0.0000 N   0  0  0  0  0  0  0  0  0  0  0  0
    3.5506    2.1583    0.0000 O   0  0  0  0  0  0  0  0  0  0  0  0
    2.1224   -0.3126    0.0000 C   0  0  0  0  0  0  0  0  0  0  0  0
    0.6944    4.6335    0.0000 C   0  0  0  0  0  0  0  0  0  0  0  0
   -3.5898    1.3360    0.0000 C   0  0  1  0  0  0  0  0  0  0  0  0
   -2.8757    0.1005    0.0000 O   0  0  0  0  0  0  0  0  0  0  0  0
    4.2647    0.1005    0.0000 C   0  0  0  0  0  0  0  0  0  0  0  0
    4.9787    1.3360    0.0000 C   0  0  0  0  0  0  0  0  0  0  0  0
   -0.0196    5.0467    0.0000 C   0  0  0  0  0  0  0  0  0  0  0  0
   -4.3039    0.9229    0.0000 N   0  0  0  0  0  0  0  0  0  0  0  0
   -3.5898    2.1583    0.0000 C   0  0  0  0  0  0  0  0  0  0  0  0
    4.9787   -0.3126    0.0000 C   0  0  0  0  0  0  0  0  0  0  0  0
   -4.2843   -1.6970    0.0000 C   0  0  0  0  0  0  0  0  0  0  0  0
   -5.1303    0.9229    0.0000 C   0  0  0  0  0  0  0  0  0  0  0  0
   -4.3039    2.5716    0.0000 C   0  0  0  0  0  0  0  0  0  0  0  0
    5.2692   -1.5421    0.0000 N   0  0  0  0  0  0  0  0  0  0  0  0
    5.6928    0.1005    0.0000 O   0  0  0  0  0  0  0  0  0  0  0  0
   -4.9983   -2.1102    0.0000 C   0  0  1  0  0  0  0  0  0  0  0  0
   -3.4939   -1.4764    0.0000 O   0  0  0  0  0  0  0  0  0  0  0  0
   -4.3039    3.3979    0.0000 C   0  0  0  0  0  0  0  0  0  0  0  0
   -5.0178    2.1583    0.0000 C   0  0  0  0  0  0  0  0  0  0  0  0
    4.9983   -2.9326    0.0000 C   0  0  2  0  0  0  0  0  0  0  0  0
    5.9854   -1.4956    0.0000 C   0  0  0  0  0  0  0  0  0  0  0  0
   -4.9983   -2.9326    0.0000 N   0  0  0  0  0  0  0  0  0  0  0  0
   -5.7123   -1.6970    0.0000 C   0  0  0  0  0  0  0  0  0  0  0  0
    4.2843   -3.3459    0.0000 C   0  0  0  0  0  0  0  0  0  0  0  0
    5.7124   -3.3459    0.0000 C   0  0  0  0  0  0  0  0  0  0  0  0
   -4.2843   -3.3459    0.0000 C   0  0  0  0  0  0  0  0  0  0  0  0
   -5.7123   -3.3459    0.0000 C   0  0  0  0  0  0  0  0  0  0  0  0
   -6.4264   -2.1102    0.0000 C   0  0  0  0  0  0  0  0  0  0  0  0
    3.5702   -2.9326    0.0000 N   0  0  0  0  0  0  0  0  0  0  0  0
    4.2843   -4.1682    0.0000 O   0  0  0  0  0  0  0  0  0  0  0  0
    6.4263   -2.9326    0.0000 C   0  0  0  0  0  0  0  0  0  0  0  0
   -3.5701   -2.9326    0.0000 C   0  0  2  0  0  0  0  0  0  0  0  0
   -4.2843   -4.1682    0.0000 O   0  0  0  0  0  0  0  0  0  0  0  0
   -7.1404   -1.6970    0.0000 C   0  0  0  0  0  0  0  0  0  0  0  0
   -6.8557   -2.8684    0.0000 C   0  0  0  0  0  0  0  0  0  0  0  0
    2.8561   -3.3459    0.0000 C   0  0  2  0  0  0  0  0  0  0  0  0
    7.1405   -3.3459    0.0000 C   0  0  0  0  0  0  0  0  0  0  0  0
    6.4263   -2.1102    0.0000 C   0  0  0  0  0  0  0  0  0  0  0  0
   -2.8561   -3.3459    0.0000 N   0  0  0  0  0  0  0  0  0  0  0  0
   -3.5701   -2.1102    0.0000 C   0  0  0  0  0  0  0  0  0  0  0  0
    2.1421   -2.9326    0.0000 C   0  0  0  0  0  0  0  0  0  0  0  0
    2.8722   -4.4169    0.0000 C   0  0  0  0  0  0  0  0  0  0  0  0
   -2.1420   -2.9326    0.0000 C   0  0  0  0  0  0  0  0  0  0  0  0
    1.4281   -3.3459    0.0000 N   0  0  0  0  0  0  0  0  0  0  0  0
    2.1421   -2.1102    0.0000 O   0  0  0  0  0  0  0  0  0  0  0  0
    2.1100   -5.0466    0.0000 C   0  0  0  0  0  0  0  0  0  0  0  0
    3.5982   -4.9825    0.0000 C   0  0  0  0  0  0  0  0  0  0  0  0
   -1.4282   -3.3459    0.0000 C   0  0  1  0  0  0  0  0  0  0  0  0
   -2.1420   -2.1102    0.0000 O   0  0  0  0  0  0  0  0  0  0  0  0
    0.7140   -2.9326    0.0000 C   0  0  2  0  0  0  0  0  0  0  0  0
    1.4281   -4.1682    0.0000 C   0  0  0  0  0  0  0  0  0  0  0  0
   -0.7141   -2.9326    0.0000 N   0  0  0  0  0  0  0  0  0  0  0  0
   -1.4282   -4.1682    0.0000 C   0  0  0  0  0  0  0  0  0  0  0  0
    0.0000   -3.3459    0.0000 C   0  0  0  0  0  0  0  0  0  0  0  0
    0.0000   -4.1682    0.0000 O   0  0  0  0  0  0  0  0  0  0  0  0
   -1.4479    0.0979    0.0000 C   0  0  0  0  0  0  0  0  0  0  0  0
   -2.1622   -0.3145    0.0000 C   0  0  0  0  0  0  0  0  0  0  0  0
   -0.7334   -0.3145    0.0000 C   0  0  0  0  0  0  0  0  0  0  0  0
    0.7140   -2.1076    0.0000 C   0  0  0  0  0  0  0  0  0  0  0  0
   -0.0004   -1.6951    0.0000 C   0  0  0  0  0  0  0  0  0  0  0  0
   -0.0004   -0.8701    0.0000 C   0  0  0  0  0  0  0  0  0  0  0  0
   -0.7148   -2.1076    0.0000 C   0  0  0  0  0  0  0  0  0  0  0  0
    0.6944    0.2660    0.0000 H   0  0  0  0  0  0  0  0  0  0  0  0
   -0.2325    1.6238    0.0000 H   0  0  0  0  0  0  0  0  0  0  0  0
   -0.9462   -0.4345    0.0000 H   0  0  0  0  0  0  0  0  0  0  0  0
    0.9070   -0.4345    0.0000 H   0  0  0  0  0  0  0  0  0  0  0  0
   -0.0196   -0.9695    0.0000 H   0  0  0  0  0  0  0  0  0  0  0  0
    2.1223    2.3205    0.0000 H   0  0  0  0  0  0  0  0  0  0  0  0
    1.4084    1.5016    0.0000 H   0  0  0  0  0  0  0  0  0  0  0  0
   -0.0185    3.5416    0.0000 H   0  0  0  0  0  0  0  0  0  0  0  0
   -0.5209    0.3882    0.0000 H   0  0  0  0  0  0  0  0  0  0  0  0
    1.9096    0.3883    0.0000 H   0  0  0  0  0  0  0  0  0  0  0  0
    2.3354    3.9325    0.0000 H   0  0  0  0  0  0  0  0  0  0  0  0
    1.4093    4.4679    0.0000 H   0  0  0  0  0  0  0  0  0  0  0  0
    2.1211    1.0883    0.0000 H   0  0  0  0  0  0  0  0  0  0  0  0
    3.0497    2.6922    0.0000 H   0  0  0  0  0  0  0  0  0  0  0  0
    3.0484    1.6222    0.0000 H   0  0  0  0  0  0  0  0  0  0  0  0
    3.7634   -0.4341    0.0000 H   0  0  0  0  0  0  0  0  0  0  0  0
    2.8372   -0.9695    0.0000 H   0  0  0  0  0  0  0  0  0  0  0  0
   -0.1996    3.2955    0.0000 H   0  0  0  0  0  0  0  0  0  0  0  0
   -1.2350    2.6933    0.0000 H   0  0  0  0  0  0  0  0  0  0  0  0
   -3.0882    2.6933    0.0000 H   0  0  0  0  0  0  0  0  0  0  0  0
   -2.1616    3.2283    0.0000 H   0  0  0  0  0  0  0  0  0  0  0  0
    1.1953    0.2216    0.0000 H   0  0  0  0  0  0  0  0  0  0  0  0
    2.1233   -1.3826    0.0000 H   0  0  0  0  0  0  0  0  0  0  0  0
    1.1962   -0.8484    0.0000 H   0  0  0  0  0  0  0  0  0  0  0  0
    1.5884    5.1490    0.0000 H   0  0  0  0  0  0  0  0  0  0  0  0
   -2.6629    1.8706    0.0000 H   0  0  0  0  0  0  0  0  0  0  0  0
    3.3378   -0.4341    0.0000 H   0  0  0  0  0  0  0  0  0  0  0  0
    4.2640   -0.9695    0.0000 H   0  0  0  0  0  0  0  0  0  0  0  0
    5.9058    0.8018    0.0000 H   0  0  0  0  0  0  0  0  0  0  0  0
    4.9777    2.4060    0.0000 H   0  0  0  0  0  0  0  0  0  0  0  0
    5.9049    1.8718    0.0000 H   0  0  0  0  0  0  0  0  0  0  0  0
   -0.0185    6.1167    0.0000 H   0  0  0  0  0  0  0  0  0  0  0  0
   -0.9468    4.5126    0.0000 H   0  0  0  0  0  0  0  0  0  0  0  0
   -0.9457    5.5826    0.0000 H   0  0  0  0  0  0  0  0  0  0  0  0
   -2.6629    2.6928    0.0000 H   0  0  0  0  0  0  0  0  0  0  0  0
   -3.5889    3.2283    0.0000 H   0  0  0  0  0  0  0  0  0  0  0  0
   -5.6653    1.8495    0.0000 H   0  0  0  0  0  0  0  0  0  0  0  0
   -5.6653   -0.0037    0.0000 H   0  0  0  0  0  0  0  0  0  0  0  0
   -6.2003    0.9229    0.0000 H   0  0  0  0  0  0  0  0  0  0  0  0
   -5.2309    3.1061    0.0000 H   0  0  0  0  0  0  0  0  0  0  0  0
   -4.9983   -1.0402    0.0000 H   0  0  0  0  0  0  0  0  0  0  0  0
   -3.3773    3.9329    0.0000 H   0  0  0  0  0  0  0  0  0  0  0  0
   -5.2305    3.9329    0.0000 H   0  0  0  0  0  0  0  0  0  0  0  0
   -4.3039    4.4679    0.0000 H   0  0  0  0  0  0  0  0  0  0  0  0
   -5.9451    2.6922    0.0000 H   0  0  0  0  0  0  0  0  0  0  0  0
   -5.0165    1.0883    0.0000 H   0  0  0  0  0  0  0  0  0  0  0  0
   -5.9438    1.6222    0.0000 H   0  0  0  0  0  0  0  0  0  0  0  0
    5.9723   -2.4896    0.0000 H   0  0  0  0  0  0  0  0  0  0  0  0
    6.5793   -2.3856    0.0000 H   0  0  0  0  0  0  0  0  0  0  0  0
    6.4592   -0.5362    0.0000 H   0  0  0  0  0  0  0  0  0  0  0  0
    7.0532   -1.4263    0.0000 H   0  0  0  0  0  0  0  0  0  0  0  0
   -5.7123   -0.6270    0.0000 H   0  0  0  0  0  0  0  0  0  0  0  0
   -6.6392   -1.1624    0.0000 H   0  0  0  0  0  0  0  0  0  0  0  0
    5.7125   -4.4159    0.0000 H   0  0  0  0  0  0  0  0  0  0  0  0
    6.6394   -3.8803    0.0000 H   0  0  0  0  0  0  0  0  0  0  0  0
   -6.6395   -2.8119    0.0000 H   0  0  0  0  0  0  0  0  0  0  0  0
   -5.7111   -4.4159    0.0000 H   0  0  0  0  0  0  0  0  0  0  0  0
   -6.6383   -3.8819    0.0000 H   0  0  0  0  0  0  0  0  0  0  0  0
   -7.4589   -2.3909    0.0000 H   0  0  0  0  0  0  0  0  0  0  0  0
    3.5702   -1.9481    0.0000 H   0  0  0  0  0  0  0  0  0  0  0  0
    7.3532   -2.3981    0.0000 H   0  0  0  0  0  0  0  0  0  0  0  0
   -4.4970   -2.3981    0.0000 H   0  0  0  0  0  0  0  0  0  0  0  0
   -7.1393   -0.6270    0.0000 H   0  0  0  0  0  0  0  0  0  0  0  0
   -8.0676   -2.2311    0.0000 H   0  0  0  0  0  0  0  0  0  0  0  0
   -8.0665   -1.1611    0.0000 H   0  0  0  0  0  0  0  0  0  0  0  0
   -7.9257   -2.8774    0.0000 H   0  0  0  0  0  0  0  0  0  0  0  0
   -6.3129   -3.7905    0.0000 H   0  0  0  0  0  0  0  0  0  0  0  0
   -7.3829   -3.7995    0.0000 H   0  0  0  0  0  0  0  0  0  0  0  0
    3.7870   -3.8734    0.0000 H   0  0  0  0  0  0  0  0  0  0  0  0
    7.1394   -4.4159    0.0000 H   0  0  0  0  0  0  0  0  0  0  0  0
    8.0677   -2.8118    0.0000 H   0  0  0  0  0  0  0  0  0  0  0  0
    8.0666   -3.8818    0.0000 H   0  0  0  0  0  0  0  0  0  0  0  0
    7.3529   -1.5752    0.0000 H   0  0  0  0  0  0  0  0  0  0  0  0
    5.4997   -1.5752    0.0000 H   0  0  0  0  0  0  0  0  0  0  0  0
    6.4263   -1.0402    0.0000 H   0  0  0  0  0  0  0  0  0  0  0  0
   -2.8561   -4.3304    0.0000 H   0  0  0  0  0  0  0  0  0  0  0  0
   -2.6435   -1.5752    0.0000 H   0  0  0  0  0  0  0  0  0  0  0  0
   -4.4967   -1.5752    0.0000 H   0  0  0  0  0  0  0  0  0  0  0  0
   -3.5701   -1.0402    0.0000 H   0  0  0  0  0  0  0  0  0  0  0  0
    2.8875   -5.4868    0.0000 H   0  0  0  0  0  0  0  0  0  0  0  0
    1.1074   -4.6730    0.0000 H   0  0  0  0  0  0  0  0  0  0  0  0
    2.2877   -6.1017    0.0000 H   0  0  0  0  0  0  0  0  0  0  0  0
    1.2851   -5.7281    0.0000 H   0  0  0  0  0  0  0  0  0  0  0  0
    3.4507   -6.0423    0.0000 H   0  0  0  0  0  0  0  0  0  0  0  0
    4.5897   -4.5803    0.0000 H   0  0  0  0  0  0  0  0  0  0  0  0
    4.4423   -5.6401    0.0000 H   0  0  0  0  0  0  0  0  0  0  0  0
   -2.3552   -3.8803    0.0000 H   0  0  0  0  0  0  0  0  0  0  0  0
    1.6409   -2.3981    0.0000 H   0  0  0  0  0  0  0  0  0  0  0  0
    0.5015   -4.7032    0.0000 H   0  0  0  0  0  0  0  0  0  0  0  0
    2.3547   -4.7032    0.0000 H   0  0  0  0  0  0  0  0  0  0  0  0
    1.4281   -5.2382    0.0000 H   0  0  0  0  0  0  0  0  0  0  0  0
   -0.7141   -1.9481    0.0000 H   0  0  0  0  0  0  0  0  0  0  0  0
   -2.3548   -4.7032    0.0000 H   0  0  0  0  0  0  0  0  0  0  0  0
   -0.5016   -4.7032    0.0000 H   0  0  0  0  0  0  0  0  0  0  0  0
   -1.4282   -5.2382    0.0000 H   0  0  0  0  0  0  0  0  0  0  0  0
   -1.4478   -0.9721    0.0000 H   0  0  0  0  0  0  0  0  0  0  0  0
   -3.0888    0.2205    0.0000 H   0  0  0  0  0  0  0  0  0  0  0  0
   -2.1622   -1.3845    0.0000 H   0  0  0  0  0  0  0  0  0  0  0  0
   -3.0888   -0.8495    0.0000 H   0  0  0  0  0  0  0  0  0  0  0  0
   -0.7333   -1.3845    0.0000 H   0  0  0  0  0  0  0  0  0  0  0  0
    0.1932    0.2206    0.0000 H   0  0  0  0  0  0  0  0  0  0  0  0
    0.1933   -0.8494    0.0000 H   0  0  0  0  0  0  0  0  0  0  0  0
    1.6407   -1.5726    0.0000 H   0  0  0  0  0  0  0  0  0  0  0  0
    0.7140   -1.0376    0.0000 H   0  0  0  0  0  0  0  0  0  0  0  0
   -0.9271   -1.1601    0.0000 H   0  0  0  0  0  0  0  0  0  0  0  0
    0.9262   -0.3351    0.0000 H   0  0  0  0  0  0  0  0  0  0  0  0
   -0.9270   -0.3351    0.0000 H   0  0  0  0  0  0  0  0  0  0  0  0
   -0.0004    0.1999    0.0000 H   0  0  0  0  0  0  0  0  0  0  0  0
   -1.6415   -1.5726    0.0000 H   0  0  0  0  0  0  0  0  0  0  0  0
   -0.7148   -3.1776    0.0000 H   0  0  0  0  0  0  0  0  0  0  0  0
   -1.6414   -2.6426    0.0000 H   0  0  0  0  0  0  0  0  0  0  0  0
  1  2  1  0  0  0  0
  1  3  1  0  0  0  0
  1  4  1  0  0  0  0
  1 86  1  6  0  0  0
  2  5  1  0  0  0  0
  2  6  1  0  0  0  0
  3  7  1  0  0  0  0
  3  8  2  0  0  0  0
  4  9  1  0  0  0  0
  4 10  1  0  0  0  0
  4 87  1  1  0  0  0
  5 11  1  0  0  0  0
  5 12  2  0  0  0  0
  6 88  1  0  0  0  0
  6 89  1  0  0  0  0
  6 90  1  0  0  0  0
  7 13  1  0  0  0  0
  7 91  1  0  0  0  0
  9 14  1  0  0  0  0
  9 15  1  0  0  0  0
  9 92  1  6  0  0  0
 10 93  1  0  0  0  0
 11 16  1  0  0  0  0
 11 79  1  0  0  0  0
 11 94  1  1  0  0  0
 13 17  1  0  0  0  0
 13 18  1  0  0  0  0
 13 95  1  1  0  0  0
 14 19  1  0  0  0  0
 14 96  1  0  0  0  0
 14 97  1  0  0  0  0
 15 98  1  0  0  0  0
 15 99  1  0  0  0  0
 15100  1  0  0  0  0
 16 20  1  0  0  0  0
 16 21  1  0  0  0  0
 17 22  1  0  0  0  0
 17 23  2  0  0  0  0
 18 24  1  0  0  0  0
 18101  1  0  0  0  0
 18102  1  0  0  0  0
 19 25  2  0  0  0  0
 19103  1  0  0  0  0
 20 26  1  0  0  0  0
 20 27  2  0  0  0  0
 21104  1  0  0  0  0
 21105  1  0  0  0  0
 21106  1  0  0  0  0
 22 28  1  0  0  0  0
 22 29  1  0  0  0  0
 24107  1  0  0  0  0
 24108  1  0  0  0  0
 24109  1  0  0  0  0
 25 30  1  0  0  0  0
 25110  1  0  0  0  0
 26 31  1  0  0  0  0
 26 32  1  0  0  0  0
 26111  1  6  0  0  0
 28 33  1  0  0  0  0
 28112  1  0  0  0  0
 28113  1  0  0  0  0
 29114  1  0  0  0  0
 29115  1  0  0  0  0
 29116  1  0  0  0  0
 30117  1  0  0  0  0
 30118  1  0  0  0  0
 30119  1  0  0  0  0
 31 35  1  0  0  0  0
 32 36  1  0  0  0  0
 32120  1  0  0  0  0
 32121  1  0  0  0  0
 33 38  2  0  0  0  0
 33 37  1  0  0  0  0
 34 39  1  0  0  0  0
 34 40  2  0  0  0  0
 34 31  1  0  0  0  0
 35122  1  0  0  0  0
 35123  1  0  0  0  0
 35124  1  0  0  0  0
 36 41  1  0  0  0  0
 36 42  1  0  0  0  0
 36125  1  0  0  0  0
 37 43  1  0  0  0  0
 37 44  1  0  0  0  0
 39 45  1  0  0  0  0
 39 46  1  0  0  0  0
 39126  1  6  0  0  0
 41127  1  0  0  0  0
 41128  1  0  0  0  0
 41129  1  0  0  0  0
 42130  1  0  0  0  0
 42131  1  0  0  0  0
 42132  1  0  0  0  0
 43 47  1  0  0  0  0
 43 48  1  0  0  0  0
 43133  1  6  0  0  0
 44134  1  0  0  0  0
 44135  1  0  0  0  0
 44136  1  0  0  0  0
 45 49  1  0  0  0  0
 45 50  1  0  0  0  0
 46 51  1  0  0  0  0
 46137  1  0  0  0  0
 46138  1  0  0  0  0
 47 52  1  0  0  0  0
 47 53  2  0  0  0  0
 48 54  1  0  0  0  0
 48139  1  0  0  0  0
 48140  1  0  0  0  0
 49 55  1  0  0  0  0
 49 56  2  0  0  0  0
 50141  1  0  0  0  0
 50142  1  0  0  0  0
 50143  1  0  0  0  0
 51 57  1  0  0  0  0
 51 58  1  0  0  0  0
 51144  1  0  0  0  0
 52 59  1  0  0  0  0
 52145  1  0  0  0  0
 54 60  1  0  0  0  0
 54 61  1  0  0  0  0
 54146  1  0  0  0  0
 55 62  1  0  0  0  0
 55 63  1  0  0  0  0
 55147  1  6  0  0  0
 57148  1  0  0  0  0
 57149  1  0  0  0  0
 57150  1  0  0  0  0
 58151  1  0  0  0  0
 58152  1  0  0  0  0
 58153  1  0  0  0  0
 59 64  1  0  0  0  0
 59 65  1  0  0  0  0
 59154  1  6  0  0  0
 60155  1  0  0  0  0
 60156  1  0  0  0  0
 60157  1  0  0  0  0
 61158  1  0  0  0  0
 61159  1  0  0  0  0
 61160  1  0  0  0  0
 62 66  1  0  0  0  0
 62161  1  0  0  0  0
 63162  1  0  0  0  0
 63163  1  0  0  0  0
 63164  1  0  0  0  0
 64 67  1  0  0  0  0
 64 68  2  0  0  0  0
 65 69  1  0  0  0  0
 65 70  1  0  0  0  0
 65165  1  0  0  0  0
 66 71  1  0  0  0  0
 66 72  2  0  0  0  0
 67 73  1  0  0  0  0
 67 74  1  0  0  0  0
 69166  1  0  0  0  0
 69167  1  0  0  0  0
 69168  1  0  0  0  0
 70169  1  0  0  0  0
 70170  1  0  0  0  0
 70171  1  0  0  0  0
 71 75  1  0  0  0  0
 71 76  1  0  0  0  0
 71172  1  6  0  0  0
 73 77  1  0  0  0  0
 73 82  1  0  0  0  0
 73173  1  1  0  0  0
 74174  1  0  0  0  0
 74175  1  0  0  0  0
 74176  1  0  0  0  0
 75 77  1  0  0  0  0
 75177  1  0  0  0  0
 76178  1  0  0  0  0
 76179  1  0  0  0  0
 76180  1  0  0  0  0
 77 78  2  0  0  0  0
 79 80  1  0  0  0  0
 79 81  1  0  0  0  0
 79181  1  0  0  0  0
 80182  1  0  0  0  0
 80183  1  0  0  0  0
 80184  1  0  0  0  0
 81185  1  0  0  0  0
 81186  1  0  0  0  0
 81187  1  0  0  0  0
 82 83  1  0  0  0  0
 82188  1  0  0  0  0
 82189  1  0  0  0  0
 83 84  1  0  0  0  0
 83 85  1  0  0  0  0
 83190  1  0  0  0  0
 84191  1  0  0  0  0
 84192  1  0  0  0  0
 84193  1  0  0  0  0
 85194  1  0  0  0  0
 85195  1  0  0  0  0
 85196  1  0  0  0  0
M  END
>  <DRUGBANK_ID>
DB00091

>  <SECONDARY_ACCESSION_NUMBERS>
BTD00003; BIOD00003

>  <COMMON_NAME>
Cyclosporine

>  <CAS_NUMBER>
59865-13-3

>  <UNII>
83HN0GTJ6D

>  <SYNONYMS>
Ciclosporin; Ciclosporina; Ciclosporine; Ciclosporinum; CsA; CyA; Cyclosporin; Cyclosporin A; Cyclosporine

$$$$
