1548992
 OpenBabel10282417072D

 31 31  0  0  0  0  0  0  0  0999 V2000
    2.8795   -0.5306    0.0000 S   0  0  0  0  0  0  0  0  0  0  0  0
    2.3577    2.3980    0.0000 S   0  0  0  0  0  0  0  0  0  0  0  0
    2.3176   -3.2215    0.0000 N   0  0  0  0  0  0  0  0  0  0  0  0
    3.5138    1.5580    0.0000 N   0  0  0  0  0  0  0  0  0  0  0  0
    1.9050   -1.9518    0.0000 N   0  0  0  0  0  0  0  0  0  0  0  0
    3.6631    2.9792    0.0000 N   0  0  0  0  0  0  0  0  0  0  0  0
    2.7301   -1.9518    0.0000 C   0  0  0  0  0  0  0  0  0  0  0  0
    3.2150   -1.2843    0.0000 C   0  0  0  0  0  0  0  0  0  0  0  0
    3.3644    0.1369    0.0000 C   0  0  0  0  0  0  0  0  0  0  0  0
    2.9850   -2.7365    0.0000 C   0  0  0  0  0  0  0  0  0  0  0  0
    3.0288    0.8906    0.0000 C   0  0  0  0  0  0  0  0  0  0  0  0
    3.7697   -2.9915    0.0000 C   0  0  0  0  0  0  0  0  0  0  0  0
    1.6501   -2.7365    0.0000 C   0  0  0  0  0  0  0  0  0  0  0  0
    3.1782    2.3118    0.0000 C   0  0  0  0  0  0  0  0  0  0  0  0
    3.3276    3.7329    0.0000 C   0  0  0  0  0  0  0  0  0  0  0  0
    2.3176   -4.2060    0.0000 H   0  0  0  0  0  0  0  0  0  0  0  0
    4.4929    1.4550    0.0000 H   0  0  0  0  0  0  0  0  0  0  0  0
    4.6422    2.8763    0.0000 H   0  0  0  0  0  0  0  0  0  0  0  0
    4.2791   -1.3962    0.0000 H   0  0  0  0  0  0  0  0  0  0  0  0
    3.6502   -2.2618    0.0000 H   0  0  0  0  0  0  0  0  0  0  0  0
    4.4285    0.0251    0.0000 H   0  0  0  0  0  0  0  0  0  0  0  0
    3.9933    1.0026    0.0000 H   0  0  0  0  0  0  0  0  0  0  0  0
    1.9647    1.0025    0.0000 H   0  0  0  0  0  0  0  0  0  0  0  0
    2.3999    0.0250    0.0000 H   0  0  0  0  0  0  0  0  0  0  0  0
    3.9921   -4.0381    0.0000 H   0  0  0  0  0  0  0  0  0  0  0  0
    4.5649   -2.2756    0.0000 H   0  0  0  0  0  0  0  0  0  0  0  0
    4.7873   -3.3222    0.0000 H   0  0  0  0  0  0  0  0  0  0  0  0
    0.6686   -3.0554    0.0000 H   0  0  0  0  0  0  0  0  0  0  0  0
    3.9566    4.5985    0.0000 H   0  0  0  0  0  0  0  0  0  0  0  0
    2.2635    3.8448    0.0000 H   0  0  0  0  0  0  0  0  0  0  0  0
    2.8925    4.7104    0.0000 H   0  0  0  0  0  0  0  0  0  0  0  0
  1  8  1  0  0  0  0
  1  9  1  0  0  0  0
  2 14  2  0  0  0  0
  3 10  1  0  0  0  0
  3 13  1  0  0  0  0
  3 16  1  0  0  0  0
  4 11  1  0  0  0  0
  4 14  1  0  0  0  0
  4 17  1  0  0  0  0
  5  7  1  0  0  0  0
  5 13  2  0  0  0  0
  6 14  1  0  0  0  0
  6 15  1  0  0  0  0
  6 18  1  0  0  0  0
  7  8  1  0  0  0  0
  7 10  2  0  0  0  0
  8 19  1  0  0  0  0
  8 20  1  0  0  0  0
  9 11  1  0  0  0  0
  9 21  1  0  0  0  0
  9 22  1  0  0  0  0
 10 12  1  0  0  0  0
 11 23  1  0  0  0  0
 11 24  1  0  0  0  0
 12 25  1  0  0  0  0
 12 26  1  0  0  0  0
 12 27  1  0  0  0  0
 13 28  1  0  0  0  0
 15 29  1  0  0  0  0
 15 30  1  0  0  0  0
 15 31  1  0  0  0  0
M  END
>  <DRUGBANK_ID>
DB08805

>  <COMMON_NAME>
Metiamide

>  <CAS_NUMBER>
34839-70-8

>  <UNII>
3K7670861M

>  <SYNONYMS>
Methiamide; Metiamida; Metiamide; Metiamidum

$$$$
