
 OpenBabel10282417072D

 54 56  0  0  0  0  0  0  0  0999 V2000
   -1.4034    0.6250    0.0000 S   0  0  0  0  0  0  0  0  0  0  0  0
   -2.0768    0.1382    0.0000 C   0  0  0  0  0  0  0  0  0  0  0  0
   -1.8202   -0.6500    0.0000 N   0  0  0  0  0  0  0  0  0  0  0  0
   -0.9910   -0.6500    0.0000 C   0  0  0  0  0  0  0  0  0  0  0  0
   -0.7342    0.1382    0.0000 C   0  0  0  0  0  0  0  0  0  0  0  0
   -2.9034    0.1416    0.0000 C   0  0  0  0  0  0  0  0  0  0  0  0
   -3.3117    0.8614    0.0000 C   0  0  0  0  0  0  0  0  0  0  0  0
   -4.1376    0.8653    0.0000 C   0  0  0  0  0  0  0  0  0  0  0  0
   -4.5546    0.1506    0.0000 C   0  0  0  0  0  0  0  0  0  0  0  0
   -4.1399   -0.5693    0.0000 C   0  0  0  0  0  0  0  0  0  0  0  0
   -3.3155   -0.5695    0.0000 C   0  0  0  0  0  0  0  0  0  0  0  0
   -5.3824    0.1582    0.0000 C   0  0  0  0  0  0  0  0  0  0  0  0
   -5.5991    0.9582    0.0000 F   0  0  0  0  0  0  0  0  0  0  0  0
   -5.9699   -0.4249    0.0000 F   0  0  0  0  0  0  0  0  0  0  0  0
   -5.1699   -0.6374    0.0000 F   0  0  0  0  0  0  0  0  0  0  0  0
   -0.5867   -1.3623    0.0000 C   0  0  0  0  0  0  0  0  0  0  0  0
   -0.0243    0.5582    0.0000 C   0  0  0  0  0  0  0  0  0  0  0  0
   -0.0285    1.3832    0.0000 O   0  0  0  0  0  0  0  0  0  0  0  0
    0.6881    0.1458    0.0000 N   0  0  0  0  0  0  0  0  0  0  0  0
    1.4005    0.5625    0.0000 C   0  0  0  0  0  0  0  0  0  0  0  0
    2.1130    0.1500    0.0000 C   0  0  0  0  0  0  0  0  0  0  0  0
    2.1092   -0.6743    0.0000 C   0  0  0  0  0  0  0  0  0  0  0  0
    2.8209   -1.0867    0.0000 C   0  0  0  0  0  0  0  0  0  0  0  0
    3.5354   -0.6759    0.0000 C   0  0  0  0  0  0  0  0  0  0  0  0
    3.5336    0.1516    0.0000 C   0  0  0  0  0  0  0  0  0  0  0  0
    2.8215    0.5603    0.0000 C   0  0  0  0  0  0  0  0  0  0  0  0
    4.2462   -1.0874    0.0000 O   0  0  0  0  0  0  0  0  0  0  0  0
    4.9586   -0.6707    0.0000 C   0  0  0  0  0  0  0  0  0  0  0  0
    5.3671   -1.3832    0.0000 C   0  0  0  0  0  0  0  0  0  0  0  0
    5.7836   -0.6707    0.0000 C   0  0  0  0  0  0  0  0  0  0  0  0
    5.1712    0.1291    0.0000 C   0  0  0  0  0  0  0  0  0  0  0  0
    5.9699    0.3447    0.0000 O   0  0  0  0  0  0  0  0  0  0  0  0
    4.5843    0.7128    0.0000 O   0  0  0  0  0  0  0  0  0  0  0  0
   -2.7902    1.7519    0.0000 H   0  0  0  0  0  0  0  0  0  0  0  0
   -4.6494    1.7614    0.0000 H   0  0  0  0  0  0  0  0  0  0  0  0
   -4.6564   -1.4627    0.0000 H   0  0  0  0  0  0  0  0  0  0  0  0
   -2.8003   -1.4637    0.0000 H   0  0  0  0  0  0  0  0  0  0  0  0
   -1.1285   -2.2850    0.0000 H   0  0  0  0  0  0  0  0  0  0  0  0
    0.4833   -1.3702    0.0000 H   0  0  0  0  0  0  0  0  0  0  0  0
   -0.0585   -2.2929    0.0000 H   0  0  0  0  0  0  0  0  0  0  0  0
    0.6903   -0.8387    0.0000 H   0  0  0  0  0  0  0  0  0  0  0  0
    1.3981    1.6325    0.0000 H   0  0  0  0  0  0  0  0  0  0  0  0
    2.3269    1.0980    0.0000 H   0  0  0  0  0  0  0  0  0  0  0  0
    1.2139   -1.1875    0.0000 H   0  0  0  0  0  0  0  0  0  0  0  0
    2.8192   -2.1187    0.0000 H   0  0  0  0  0  0  0  0  0  0  0  0
    4.4261    0.6697    0.0000 H   0  0  0  0  0  0  0  0  0  0  0  0
    2.8195    1.5923    0.0000 H   0  0  0  0  0  0  0  0  0  0  0  0
    4.8293   -2.3082    0.0000 H   0  0  0  0  0  0  0  0  0  0  0  0
    6.4371   -1.3864    0.0000 H   0  0  0  0  0  0  0  0  0  0  0  0
    5.8993   -2.3115    0.0000 H   0  0  0  0  0  0  0  0  0  0  0  0
    6.3186   -1.5973    0.0000 H   0  0  0  0  0  0  0  0  0  0  0  0
    6.3186    0.2559    0.0000 H   0  0  0  0  0  0  0  0  0  0  0  0
    6.8536   -0.6707    0.0000 H   0  0  0  0  0  0  0  0  0  0  0  0
    6.6337   -0.3166    0.0000 H   0  0  0  0  0  0  0  0  0  0  0  0
  1  2  1  0  0  0  0
  2  3  2  0  0  0  0
  2  6  1  0  0  0  0
  3  4  1  0  0  0  0
  4 16  1  0  0  0  0
  4  5  2  0  0  0  0
  5 17  1  0  0  0  0
  5  1  1  0  0  0  0
  6  7  2  0  0  0  0
  7  8  1  0  0  0  0
  7 34  1  0  0  0  0
  8  9  2  0  0  0  0
  8 35  1  0  0  0  0
  9 10  1  0  0  0  0
  9 12  1  0  0  0  0
 10 11  2  0  0  0  0
 10 36  1  0  0  0  0
 11  6  1  0  0  0  0
 11 37  1  0  0  0  0
 12 13  1  0  0  0  0
 12 14  1  0  0  0  0
 12 15  1  0  0  0  0
 16 38  1  0  0  0  0
 16 39  1  0  0  0  0
 16 40  1  0  0  0  0
 17 18  2  0  0  0  0
 17 19  1  0  0  0  0
 19 20  1  0  0  0  0
 19 41  1  0  0  0  0
 20 21  1  0  0  0  0
 20 42  1  0  0  0  0
 20 43  1  0  0  0  0
 21 22  2  0  0  0  0
 22 23  1  0  0  0  0
 22 44  1  0  0  0  0
 23 24  2  0  0  0  0
 23 45  1  0  0  0  0
 24 25  1  0  0  0  0
 24 27  1  0  0  0  0
 25 26  2  0  0  0  0
 25 46  1  0  0  0  0
 26 21  1  0  0  0  0
 26 47  1  0  0  0  0
 27 28  1  0  0  0  0
 28 29  1  0  0  0  0
 28 30  1  0  0  0  0
 28 31  1  0  0  0  0
 29 48  1  0  0  0  0
 29 49  1  0  0  0  0
 29 50  1  0  0  0  0
 30 51  1  0  0  0  0
 30 52  1  0  0  0  0
 30 53  1  0  0  0  0
 31 32  1  0  0  0  0
 31 33  2  0  0  0  0
 32 54  1  0  0  0  0
M  END
>  <DRUGBANK_ID>
DB07215

>  <COMMON_NAME>
GW-590735

>  <CAS_NUMBER>
343321-96-0

>  <UNII>
QKY617BBX5

$$$$
