627
 OpenBabel10282417072D

 14 14  0  0  0  0  0  0  0  0999 V2000
    3.0790    1.1880    0.0000 O   0  0  0  0  0  0  0  0  0  0  0  0
    1.6500    1.1880    0.0000 O   0  0  0  0  0  0  0  0  0  0  0  0
    1.6500   -1.2870    0.0000 N   0  0  0  0  0  0  0  0  0  0  0  0
    2.3644   -0.0495    0.0000 C   0  0  0  0  0  0  0  0  0  0  0  0
    3.0790   -0.4620    0.0000 C   0  0  0  0  0  0  0  0  0  0  0  0
    1.6500   -0.4620    0.0000 C   0  0  0  0  0  0  0  0  0  0  0  0
    3.0790   -1.2870    0.0000 C   0  0  0  0  0  0  0  0  0  0  0  0
    2.3644   -1.6995    0.0000 C   0  0  0  0  0  0  0  0  0  0  0  0
    2.3644    0.7755    0.0000 C   0  0  0  0  0  0  0  0  0  0  0  0
    3.8904    0.7194    0.0000 H   0  0  0  0  0  0  0  0  0  0  0  0
    3.9727    0.0540    0.0000 H   0  0  0  0  0  0  0  0  0  0  0  0
    0.7563    0.0540    0.0000 H   0  0  0  0  0  0  0  0  0  0  0  0
    3.9727   -1.8030    0.0000 H   0  0  0  0  0  0  0  0  0  0  0  0
    2.3643   -2.7315    0.0000 H   0  0  0  0  0  0  0  0  0  0  0  0
  1  9  1  0  0  0  0
  1 10  1  0  0  0  0
  2  9  2  0  0  0  0
  3  6  1  0  0  0  0
  3  8  2  0  0  0  0
  4  5  1  0  0  0  0
  4  6  2  0  0  0  0
  4  9  1  0  0  0  0
  5  7  2  0  0  0  0
  5 11  1  0  0  0  0
  6 12  1  0  0  0  0
  7  8  1  0  0  0  0
  7 13  1  0  0  0  0
  8 14  1  0  0  0  0
M  END
>  <DRUGBANK_ID>
DB00627

>  <SECONDARY_ACCESSION_NUMBERS>
NUTR00042; APRD00536

>  <COMMON_NAME>
Niacin

>  <CAS_NUMBER>
59-67-6

>  <UNII>
2679MF687A

>  <SYNONYMS>
3-carboxypyridine; 3-Pyridinecarboxylic acid; 3-Pyridylcarboxylic acid; Acide nicotinique; ácido nicotínico; Acidum Nicotinicum; anti-pellagra vitamin; m-pyridinecarboxylic acid; Niacin; Niacina; Nicotinic acid; Nikotinsäure; pyridine-β-carboxylic acid; β-pyridinecarboxylic acid

$$$$
