FR3
 OpenBabel10282417072D

 42 44  0  0  0  0  0  0  0  0999 V2000
   -2.3611    0.1065    0.0000 C   0  0  0  0  0  0  0  0  0  0  0  0
   -1.6074   -0.2291    0.0000 N   0  0  0  0  0  0  0  0  0  0  0  0
   -1.6936   -1.0496    0.0000 C   0  0  0  0  0  0  0  0  0  0  0  0
   -2.5006   -1.2211    0.0000 N   0  0  0  0  0  0  0  0  0  0  0  0
   -2.9131   -0.5066    0.0000 C   0  0  0  0  0  0  0  0  0  0  0  0
   -3.7336   -0.4204    0.0000 C   0  0  0  0  0  0  0  0  0  0  0  0
   -4.2185   -1.0878    0.0000 O   0  0  0  0  0  0  0  0  0  0  0  0
   -4.0692    0.3333    0.0000 N   0  0  0  0  0  0  0  0  0  0  0  0
   -0.8929    0.1834    0.0000 C   0  0  1  0  0  0  0  0  0  0  0  0
   -0.8929    1.0084    0.0000 C   0  0  0  0  0  0  0  0  0  0  0  0
   -0.1785    1.4209    0.0000 O   0  0  0  0  0  0  0  0  0  0  0  0
   -0.1785   -0.2291    0.0000 C   0  0  0  0  0  0  0  0  0  0  0  0
    0.5360    0.1834    0.0000 C   0  0  0  0  0  0  0  0  0  0  0  0
    1.2505   -0.2291    0.0000 C   0  0  0  0  0  0  0  0  0  0  0  0
    1.2505   -1.0541    0.0000 C   0  0  0  0  0  0  0  0  0  0  0  0
    1.9649   -1.4666    0.0000 C   0  0  0  0  0  0  0  0  0  0  0  0
    2.6794   -1.0541    0.0000 C   0  0  0  0  0  0  0  0  0  0  0  0
    2.6794   -0.2291    0.0000 C   0  0  0  0  0  0  0  0  0  0  0  0
    1.9649    0.1834    0.0000 C   0  0  0  0  0  0  0  0  0  0  0  0
    3.3939    0.1834    0.0000 C   0  0  0  0  0  0  0  0  0  0  0  0
    1.9649    1.0084    0.0000 C   0  0  0  0  0  0  0  0  0  0  0  0
    3.3939    1.0084    0.0000 C   0  0  0  0  0  0  0  0  0  0  0  0
    2.6794    1.4209    0.0000 C   0  0  0  0  0  0  0  0  0  0  0  0
   -1.3986    0.4754    0.0000 H   0  0  0  0  0  0  0  0  0  0  0  0
   -2.5757    1.1159    0.0000 H   0  0  0  0  0  0  0  0  0  0  0  0
   -0.9267   -1.7401    0.0000 H   0  0  0  0  0  0  0  0  0  0  0  0
   -3.4906    1.1298    0.0000 H   0  0  0  0  0  0  0  0  0  0  0  0
   -5.0483    0.4362    0.0000 H   0  0  0  0  0  0  0  0  0  0  0  0
   -1.8196    1.5434    0.0000 H   0  0  0  0  0  0  0  0  0  0  0  0
   -0.8929    2.0784    0.0000 H   0  0  0  0  0  0  0  0  0  0  0  0
    0.6616    0.9359    0.0000 H   0  0  0  0  0  0  0  0  0  0  0  0
   -0.1785   -1.2991    0.0000 H   0  0  0  0  0  0  0  0  0  0  0  0
    0.7481   -0.7641    0.0000 H   0  0  0  0  0  0  0  0  0  0  0  0
    0.5360    1.2534    0.0000 H   0  0  0  0  0  0  0  0  0  0  0  0
    1.4626    0.7184    0.0000 H   0  0  0  0  0  0  0  0  0  0  0  0
    0.3568   -1.5701    0.0000 H   0  0  0  0  0  0  0  0  0  0  0  0
    1.9649   -2.4986    0.0000 H   0  0  0  0  0  0  0  0  0  0  0  0
    3.5731   -1.5701    0.0000 H   0  0  0  0  0  0  0  0  0  0  0  0
    4.2876   -0.3326    0.0000 H   0  0  0  0  0  0  0  0  0  0  0  0
    1.0712    1.5244    0.0000 H   0  0  0  0  0  0  0  0  0  0  0  0
    4.2876    1.5244    0.0000 H   0  0  0  0  0  0  0  0  0  0  0  0
    2.6794    2.4529    0.0000 H   0  0  0  0  0  0  0  0  0  0  0  0
  1  2  1  0  0  0  0
  1  5  2  0  0  0  0
  1 25  1  0  0  0  0
  2  3  1  0  0  0  0
  3  4  2  0  0  0  0
  3 26  1  0  0  0  0
  4  5  1  0  0  0  0
  5  6  1  0  0  0  0
  6  7  2  0  0  0  0
  6  8  1  0  0  0  0
  8 27  1  0  0  0  0
  8 28  1  0  0  0  0
  9  2  1  0  0  0  0
  9 10  1  0  0  0  0
  9 12  1  0  0  0  0
  9 24  1  6  0  0  0
 10 11  1  0  0  0  0
 10 29  1  0  0  0  0
 10 30  1  0  0  0  0
 11 31  1  0  0  0  0
 12 13  1  0  0  0  0
 12 32  1  0  0  0  0
 12 33  1  0  0  0  0
 13 14  1  0  0  0  0
 13 34  1  0  0  0  0
 13 35  1  0  0  0  0
 14 15  2  0  0  0  0
 14 19  1  0  0  0  0
 15 16  1  0  0  0  0
 15 36  1  0  0  0  0
 16 17  2  0  0  0  0
 16 37  1  0  0  0  0
 17 18  1  0  0  0  0
 17 38  1  0  0  0  0
 18 19  2  0  0  0  0
 18 20  1  0  0  0  0
 19 21  1  0  0  0  0
 20 22  2  0  0  0  0
 20 39  1  0  0  0  0
 21 23  2  0  0  0  0
 21 40  1  0  0  0  0
 22 23  1  0  0  0  0
 22 41  1  0  0  0  0
 23 42  1  0  0  0  0
M  END
>  <DRUGBANK_ID>
DB03572

>  <SECONDARY_ACCESSION_NUMBERS>
EXPT01484

>  <COMMON_NAME>
FR230513

$$$$
