
 OpenBabel10282417072D

 88 88  0  0  1  0  0  0  0  0999 V2000
   -1.4289    0.8250    0.0000 C   0  0  0  0  0  0  0  0  0  0  0  0
   -2.8579    0.8250    0.0000 C   0  0  0  0  0  0  0  0  0  0  0  0
   -3.5724    3.7125    0.0000 C   0  0  0  0  0  0  0  0  0  0  0  0
   -5.0013    3.7125    0.0000 C   0  0  0  0  0  0  0  0  0  0  0  0
    7.1447    2.4750    0.0000 C   0  0  0  0  0  0  0  0  0  0  0  0
    4.2868    3.3000    0.0000 C   0  0  0  0  0  0  0  0  0  0  0  0
   -6.4302    2.0625    0.0000 C   0  0  0  0  0  0  0  0  0  0  0  0
   -0.0000   -0.0000    0.0000 C   0  0  0  0  0  0  0  0  0  0  0  0
    0.7145   -0.4125    0.0000 C   0  0  0  0  0  0  0  0  0  0  0  0
   -0.0000    0.8250    0.0000 C   0  0  0  0  0  0  0  0  0  0  0  0
    1.4289   -0.0000    0.0000 C   0  0  0  0  0  0  0  0  0  0  0  0
    0.7145    1.2375    0.0000 C   0  0  0  0  0  0  0  0  0  0  0  0
    0.7145    2.0625    0.0000 C   0  0  0  0  0  0  0  0  0  0  0  0
   -0.0000    2.4750    0.0000 C   0  0  0  0  0  0  0  0  0  0  0  0
    2.1434    1.2375    0.0000 C   0  0  0  0  0  0  0  0  0  0  0  0
   -2.1434    1.2375    0.0000 C   0  0  0  0  0  0  0  0  0  0  0  0
   -4.2868    3.3000    0.0000 C   0  0  0  0  0  0  0  0  0  0  0  0
    6.4302    2.0625    0.0000 C   0  0  1  0  0  0  0  0  0  0  0  0
    4.2868    2.4750    0.0000 C   0  0  1  0  0  0  0  0  0  0  0  0
    1.4289    0.8250    0.0000 C   0  0  0  0  0  0  0  0  0  0  0  0
    2.1434    2.0625    0.0000 C   0  0  1  0  0  0  0  0  0  0  0  0
    1.4289    2.4750    0.0000 C   0  0  1  0  0  0  0  0  0  0  0  0
   -0.7145    2.0625    0.0000 C   0  0  0  0  0  0  0  0  0  0  0  0
   -2.1434    2.0625    0.0000 C   0  0  1  0  0  0  0  0  0  0  0  0
   -4.2868    2.4750    0.0000 C   0  0  1  0  0  0  0  0  0  0  0  0
    5.7158    2.4750    0.0000 C   0  0  0  0  0  0  0  0  0  0  0  0
    3.5724    2.0625    0.0000 C   0  0  0  0  0  0  0  0  0  0  0  0
   -2.8579    2.4750    0.0000 C   0  0  0  0  0  0  0  0  0  0  0  0
   -5.0013    2.0625    0.0000 C   0  0  0  0  0  0  0  0  0  0  0  0
    6.4302    1.2375    0.0000 N   0  0  0  0  0  0  0  0  0  0  0  0
    5.0013    2.0625    0.0000 N   0  0  0  0  0  0  0  0  0  0  0  0
    2.8579    2.4750    0.0000 N   0  0  0  0  0  0  0  0  0  0  0  0
   -1.4289    2.4750    0.0000 N   0  0  0  0  0  0  0  0  0  0  0  0
   -3.5724    2.0625    0.0000 N   0  0  0  0  0  0  0  0  0  0  0  0
    1.4289    3.3000    0.0000 O   0  0  0  0  0  0  0  0  0  0  0  0
   -0.7145    1.2375    0.0000 O   0  0  0  0  0  0  0  0  0  0  0  0
    5.7158    3.3000    0.0000 O   0  0  0  0  0  0  0  0  0  0  0  0
    3.5724    1.2375    0.0000 O   0  0  0  0  0  0  0  0  0  0  0  0
   -2.8579    3.3000    0.0000 O   0  0  0  0  0  0  0  0  0  0  0  0
   -5.0013    1.2375    0.0000 O   0  0  0  0  0  0  0  0  0  0  0  0
   -5.7158    2.4750    0.0000 O   0  0  0  0  0  0  0  0  0  0  0  0
    6.4302    2.8875    0.0000 H   0  0  0  0  0  0  0  0  0  0  0  0
    3.5724    2.8875    0.0000 H   0  0  0  0  0  0  0  0  0  0  0  0
    1.6131    1.4305    0.0000 H   0  0  0  0  0  0  0  0  0  0  0  0
    1.1468    1.6998    0.0000 H   0  0  0  0  0  0  0  0  0  0  0  0
   -2.8579    1.6500    0.0000 H   0  0  0  0  0  0  0  0  0  0  0  0
   -5.0013    2.8875    0.0000 H   0  0  0  0  0  0  0  0  0  0  0  0
   -1.4289   -0.2450    0.0000 H   0  0  0  0  0  0  0  0  0  0  0  0
   -0.5023    1.3600    0.0000 H   0  0  0  0  0  0  0  0  0  0  0  0
   -0.5022    0.2900    0.0000 H   0  0  0  0  0  0  0  0  0  0  0  0
   -3.7845    1.3600    0.0000 H   0  0  0  0  0  0  0  0  0  0  0  0
   -2.8579   -0.2450    0.0000 H   0  0  0  0  0  0  0  0  0  0  0  0
   -3.7846    0.2900    0.0000 H   0  0  0  0  0  0  0  0  0  0  0  0
   -2.6457    3.1775    0.0000 H   0  0  0  0  0  0  0  0  0  0  0  0
   -3.5724    4.7825    0.0000 H   0  0  0  0  0  0  0  0  0  0  0  0
   -2.6458    4.2475    0.0000 H   0  0  0  0  0  0  0  0  0  0  0  0
   -5.0013    4.7825    0.0000 H   0  0  0  0  0  0  0  0  0  0  0  0
   -5.9279    3.1775    0.0000 H   0  0  0  0  0  0  0  0  0  0  0  0
   -5.9280    4.2475    0.0000 H   0  0  0  0  0  0  0  0  0  0  0  0
    8.0713    1.9400    0.0000 H   0  0  0  0  0  0  0  0  0  0  0  0
    7.1447    3.5450    0.0000 H   0  0  0  0  0  0  0  0  0  0  0  0
    8.0714    3.0100    0.0000 H   0  0  0  0  0  0  0  0  0  0  0  0
    5.2134    3.8350    0.0000 H   0  0  0  0  0  0  0  0  0  0  0  0
    3.3602    3.8350    0.0000 H   0  0  0  0  0  0  0  0  0  0  0  0
    4.2868    4.3700    0.0000 H   0  0  0  0  0  0  0  0  0  0  0  0
   -7.3569    2.5975    0.0000 H   0  0  0  0  0  0  0  0  0  0  0  0
   -6.4302    0.9925    0.0000 H   0  0  0  0  0  0  0  0  0  0  0  0
   -7.3568    1.5275    0.0000 H   0  0  0  0  0  0  0  0  0  0  0  0
   -0.8937   -0.5160    0.0000 H   0  0  0  0  0  0  0  0  0  0  0  0
    0.7145   -1.4445    0.0000 H   0  0  0  0  0  0  0  0  0  0  0  0
   -0.8937    1.3410    0.0000 H   0  0  0  0  0  0  0  0  0  0  0  0
    2.3226   -0.5160    0.0000 H   0  0  0  0  0  0  0  0  0  0  0  0
    0.7145    2.2695    0.0000 H   0  0  0  0  0  0  0  0  0  0  0  0
    0.7145    0.9925    0.0000 H   0  0  0  0  0  0  0  0  0  0  0  0
    1.6412    1.5275    0.0000 H   0  0  0  0  0  0  0  0  0  0  0  0
    0.0000    3.5450    0.0000 H   0  0  0  0  0  0  0  0  0  0  0  0
   -0.9266    3.0100    0.0000 H   0  0  0  0  0  0  0  0  0  0  0  0
    3.0700    0.7025    0.0000 H   0  0  0  0  0  0  0  0  0  0  0  0
    3.0700    1.7725    0.0000 H   0  0  0  0  0  0  0  0  0  0  0  0
   -3.0700    1.7725    0.0000 H   0  0  0  0  0  0  0  0  0  0  0  0
   -5.2134    2.7650    0.0000 H   0  0  0  0  0  0  0  0  0  0  0  0
    5.5469    0.7275    0.0000 H   0  0  0  0  0  0  0  0  0  0  0  0
    7.3135    0.7275    0.0000 H   0  0  0  0  0  0  0  0  0  0  0  0
    5.0013    1.0780    0.0000 H   0  0  0  0  0  0  0  0  0  0  0  0
    2.8579    3.4595    0.0000 H   0  0  0  0  0  0  0  0  0  0  0  0
   -1.4289    3.4595    0.0000 H   0  0  0  0  0  0  0  0  0  0  0  0
   -3.5724    1.0780    0.0000 H   0  0  0  0  0  0  0  0  0  0  0  0
    2.2689    3.7850    0.0000 H   0  0  0  0  0  0  0  0  0  0  0  0
  1 48  1  0  0  0  0
  1 49  1  0  0  0  0
  1 50  1  0  0  0  0
  2 51  1  0  0  0  0
  2 52  1  0  0  0  0
  2 53  1  0  0  0  0
  3 54  1  0  0  0  0
  3 55  1  0  0  0  0
  3 56  1  0  0  0  0
  4 57  1  0  0  0  0
  4 58  1  0  0  0  0
  4 59  1  0  0  0  0
  5 60  1  0  0  0  0
  5 61  1  0  0  0  0
  5 62  1  0  0  0  0
  6 63  1  0  0  0  0
  6 64  1  0  0  0  0
  6 65  1  0  0  0  0
  7 66  1  0  0  0  0
  7 67  1  0  0  0  0
  7 68  1  0  0  0  0
  8 69  1  0  0  0  0
  9  8  2  0  0  0  0
  9 70  1  0  0  0  0
 10  8  1  0  0  0  0
 10 71  1  0  0  0  0
 11  9  1  0  0  0  0
 11 72  1  0  0  0  0
 12 10  2  0  0  0  0
 12 73  1  0  0  0  0
 13 74  1  0  0  0  0
 13 75  1  0  0  0  0
 14 13  1  0  0  0  0
 14 76  1  0  0  0  0
 14 77  1  0  0  0  0
 15 78  1  0  0  0  0
 15 79  1  0  0  0  0
 16  1  1  0  0  0  0
 16  2  1  0  0  0  0
 16 80  1  0  0  0  0
 17  3  1  0  0  0  0
 17  4  1  0  0  0  0
 17 81  1  0  0  0  0
 18  5  1  0  0  0  0
 18 30  1  0  0  0  0
 18 42  1  1  0  0  0
 19  6  1  0  0  0  0
 19 43  1  1  0  0  0
 20 11  2  0  0  0  0
 20 12  1  0  0  0  0
 20 15  1  0  0  0  0
 21 15  1  0  0  0  0
 21 32  1  0  0  0  0
 21 44  1  6  0  0  0
 22 13  1  0  0  0  0
 22 21  1  0  0  0  0
 22 35  1  0  0  0  0
 22 45  1  1  0  0  0
 23 14  1  0  0  0  0
 24 16  1  0  0  0  0
 24 33  1  0  0  0  0
 24 46  1  6  0  0  0
 25 17  1  0  0  0  0
 25 34  1  0  0  0  0
 25 47  1  1  0  0  0
 26 18  1  0  0  0  0
 27 19  1  0  0  0  0
 28 24  1  0  0  0  0
 29 25  1  0  0  0  0
 30 82  1  0  0  0  0
 30 83  1  0  0  0  0
 31 19  1  0  0  0  0
 31 26  1  0  0  0  0
 31 84  1  0  0  0  0
 32 27  1  0  0  0  0
 32 85  1  0  0  0  0
 33 23  1  0  0  0  0
 33 86  1  0  0  0  0
 34 28  1  0  0  0  0
 34 87  1  0  0  0  0
 35 88  1  0  0  0  0
 36 23  2  0  0  0  0
 37 26  2  0  0  0  0
 38 27  2  0  0  0  0
 39 28  2  0  0  0  0
 40 29  2  0  0  0  0
 41  7  1  0  0  0  0
 41 29  1  0  0  0  0
M  END
>  <DRUGBANK_ID>
DB04191

>  <SECONDARY_ACCESSION_NUMBERS>
EXPT01606

>  <COMMON_NAME>
Skf 107457

>  <CAS_NUMBER>
144285-77-8

$$$$
