
 OpenBabel10282417072D

 28 28  0  0  1  0  0  0  0  0999 V2000
    0.0000   -2.4750    0.0000 C   0  0  0  0  0  0  0  0  0  0  0  0
    0.7145   -2.8875    0.0000 O   0  0  0  0  0  0  0  0  0  0  0  0
    1.4289   -2.4750    0.0000 C   0  0  0  0  0  0  0  0  0  0  0  0
    1.4289   -1.6500    0.0000 O   0  0  0  0  0  0  0  0  0  0  0  0
    2.1434   -2.8875    0.0000 C   0  0  2  0  0  0  0  0  0  0  0  0
    2.8579   -2.4750    0.0000 C   0  0  0  0  0  0  0  0  0  0  0  0
    3.5724   -2.8875    0.0000 C   0  0  0  0  0  0  0  0  0  0  0  0
    4.2868   -2.4750    0.0000 C   0  0  0  0  0  0  0  0  0  0  0  0
    5.0013   -2.8875    0.0000 C   0  0  0  0  0  0  0  0  0  0  0  0
    5.0013   -3.7125    0.0000 C   0  0  0  0  0  0  0  0  0  0  0  0
    4.2868   -4.1250    0.0000 C   0  0  0  0  0  0  0  0  0  0  0  0
    3.5724   -3.7125    0.0000 C   0  0  0  0  0  0  0  0  0  0  0  0
    4.2868   -4.9500    0.0000 O   0  0  0  0  0  0  0  0  0  0  0  0
    5.7158   -4.1250    0.0000 O   0  0  0  0  0  0  0  0  0  0  0  0
    2.1434   -3.7125    0.0000 N   0  0  0  0  0  0  0  0  0  0  0  0
   -0.0000   -1.4050    0.0000 H   0  0  0  0  0  0  0  0  0  0  0  0
   -0.9266   -3.0100    0.0000 H   0  0  0  0  0  0  0  0  0  0  0  0
   -0.9267   -1.9400    0.0000 H   0  0  0  0  0  0  0  0  0  0  0  0
    1.2168   -3.4225    0.0000 H   0  0  0  0  0  0  0  0  0  0  0  0
    2.8579   -1.4050    0.0000 H   0  0  0  0  0  0  0  0  0  0  0  0
    3.7845   -1.9400    0.0000 H   0  0  0  0  0  0  0  0  0  0  0  0
    4.2868   -1.4430    0.0000 H   0  0  0  0  0  0  0  0  0  0  0  0
    5.8950   -2.3715    0.0000 H   0  0  0  0  0  0  0  0  0  0  0  0
    2.6787   -4.2285    0.0000 H   0  0  0  0  0  0  0  0  0  0  0  0
    3.4753   -5.4185    0.0000 H   0  0  0  0  0  0  0  0  0  0  0  0
    5.7158   -5.0620    0.0000 H   0  0  0  0  0  0  0  0  0  0  0  0
    1.2601   -4.2225    0.0000 H   0  0  0  0  0  0  0  0  0  0  0  0
    3.0267   -4.2225    0.0000 H   0  0  0  0  0  0  0  0  0  0  0  0
  1  2  1  0  0  0  0
  1 16  1  0  0  0  0
  1 17  1  0  0  0  0
  1 18  1  0  0  0  0
  2  3  1  0  0  0  0
  3  4  2  0  0  0  0
  3  5  1  0  0  0  0
  5  6  1  0  0  0  0
  5 15  1  0  0  0  0
  5 19  1  1  0  0  0
  6  7  1  0  0  0  0
  6 20  1  0  0  0  0
  6 21  1  0  0  0  0
  7  8  2  0  0  0  0
  7 12  1  0  0  0  0
  8  9  1  0  0  0  0
  8 22  1  0  0  0  0
  9 10  2  0  0  0  0
  9 23  1  0  0  0  0
 10 11  1  0  0  0  0
 10 14  1  0  0  0  0
 11 12  2  0  0  0  0
 11 13  1  0  0  0  0
 12 24  1  0  0  0  0
 13 25  1  0  0  0  0
 14 26  1  0  0  0  0
 15 27  1  0  0  0  0
 15 28  1  0  0  0  0
M  END
>  <DRUGBANK_ID>
DB13313

>  <COMMON_NAME>
Melevodopa

>  <CAS_NUMBER>
7101-51-1

>  <UNII>
M30686U4X4

>  <SYNONYMS>
Melevodopa

$$$$
