
 OpenBabel10282417072D

 46 46  0  0  0  0  0  0  0  0999 V2000
   -2.5007   -1.2375    0.0000 C   0  0  0  0  0  0  0  0  0  0  0  0
   -2.5007   -2.0625    0.0000 C   0  0  0  0  0  0  0  0  0  0  0  0
   -3.2152   -2.4751    0.0000 C   0  0  0  0  0  0  0  0  0  0  0  0
   -3.9297   -2.0625    0.0000 C   0  0  0  0  0  0  0  0  0  0  0  0
   -3.9297   -1.2375    0.0000 C   0  0  0  0  0  0  0  0  0  0  0  0
   -3.2152   -0.8250    0.0000 C   0  0  0  0  0  0  0  0  0  0  0  0
   -4.6442   -2.4751    0.0000 F   0  0  0  0  0  0  0  0  0  0  0  0
   -1.7862   -0.8250    0.0000 C   0  0  0  0  0  0  0  0  0  0  0  0
   -1.7862    0.0000    0.0000 S   0  0  0  0  0  0  0  0  0  0  0  0
   -1.0717    0.4125    0.0000 C   0  0  0  0  0  0  0  0  0  0  0  0
   -1.0717    1.2375    0.0000 C   0  0  1  0  0  0  0  0  0  0  0  0
   -1.7862    1.6500    0.0000 C   0  0  0  0  0  0  0  0  0  0  0  0
   -2.5007    1.2375    0.0000 O   0  0  0  0  0  0  0  0  0  0  0  0
   -1.7862    2.4751    0.0000 O   0  0  0  0  0  0  0  0  0  0  0  0
   -0.3572    1.6500    0.0000 N   0  0  0  0  0  0  0  0  0  0  0  0
    0.3572    1.2375    0.0000 C   0  0  0  0  0  0  0  0  0  0  0  0
    0.3572    0.4125    0.0000 O   0  0  0  0  0  0  0  0  0  0  0  0
    1.0717    1.6500    0.0000 N   0  0  0  0  0  0  0  0  0  0  0  0
    1.7862    1.2375    0.0000 C   0  0  2  0  0  0  0  0  0  0  0  0
    1.7862    0.4125    0.0000 C   0  0  0  0  0  0  0  0  0  0  0  0
    2.5007    0.0000    0.0000 O   0  0  0  0  0  0  0  0  0  0  0  0
    1.0717    0.0000    0.0000 O   0  0  0  0  0  0  0  0  0  0  0  0
    2.5007    1.6500    0.0000 C   0  0  0  0  0  0  0  0  0  0  0  0
    3.2152    1.2375    0.0000 C   0  0  0  0  0  0  0  0  0  0  0  0
    3.9297    1.6500    0.0000 C   0  0  0  0  0  0  0  0  0  0  0  0
    4.6442    1.2375    0.0000 O   0  0  0  0  0  0  0  0  0  0  0  0
    3.9297    2.4751    0.0000 O   0  0  0  0  0  0  0  0  0  0  0  0
   -1.6069   -2.5785    0.0000 H   0  0  0  0  0  0  0  0  0  0  0  0
   -3.2152   -3.5071    0.0000 H   0  0  0  0  0  0  0  0  0  0  0  0
   -4.8234   -0.7215    0.0000 H   0  0  0  0  0  0  0  0  0  0  0  0
   -3.2152    0.2070    0.0000 H   0  0  0  0  0  0  0  0  0  0  0  0
   -0.8596   -1.3600    0.0000 H   0  0  0  0  0  0  0  0  0  0  0  0
   -0.8596   -0.2900    0.0000 H   0  0  0  0  0  0  0  0  0  0  0  0
   -0.1451   -0.1225    0.0000 H   0  0  0  0  0  0  0  0  0  0  0  0
   -0.1451    0.9475    0.0000 H   0  0  0  0  0  0  0  0  0  0  0  0
   -1.9983    0.7025    0.0000 H   0  0  0  0  0  0  0  0  0  0  0  0
   -3.3122    1.7060    0.0000 H   0  0  0  0  0  0  0  0  0  0  0  0
   -0.3572    2.6345    0.0000 H   0  0  0  0  0  0  0  0  0  0  0  0
    1.0717    2.6345    0.0000 H   0  0  0  0  0  0  0  0  0  0  0  0
    0.8596    0.7025    0.0000 H   0  0  0  0  0  0  0  0  0  0  0  0
    2.5007   -0.9370    0.0000 H   0  0  0  0  0  0  0  0  0  0  0  0
    2.5007    2.7200    0.0000 H   0  0  0  0  0  0  0  0  0  0  0  0
    3.4273    2.1850    0.0000 H   0  0  0  0  0  0  0  0  0  0  0  0
    3.2152    0.1675    0.0000 H   0  0  0  0  0  0  0  0  0  0  0  0
    4.1418    0.7025    0.0000 H   0  0  0  0  0  0  0  0  0  0  0  0
    4.6442    0.3005    0.0000 H   0  0  0  0  0  0  0  0  0  0  0  0
  1  2  1  0  0  0  0
  1  6  2  0  0  0  0
  1  8  1  0  0  0  0
  2  3  2  0  0  0  0
  2 28  1  0  0  0  0
  3  4  1  0  0  0  0
  3 29  1  0  0  0  0
  4  5  2  0  0  0  0
  4  7  1  0  0  0  0
  5  6  1  0  0  0  0
  5 30  1  0  0  0  0
  6 31  1  0  0  0  0
  8 32  1  0  0  0  0
  8 33  1  0  0  0  0
  9  8  1  0  0  0  0
 10  9  1  0  0  0  0
 10 34  1  0  0  0  0
 10 35  1  0  0  0  0
 11 10  1  0  0  0  0
 11 36  1  6  0  0  0
 12 11  1  0  0  0  0
 12 13  1  0  0  0  0
 12 14  2  0  0  0  0
 13 37  1  0  0  0  0
 15 11  1  0  0  0  0
 15 16  1  0  0  0  0
 15 38  1  0  0  0  0
 16 17  2  0  0  0  0
 16 18  1  0  0  0  0
 18 19  1  0  0  0  0
 18 39  1  0  0  0  0
 19 20  1  0  0  0  0
 19 23  1  0  0  0  0
 19 40  1  6  0  0  0
 20 21  1  0  0  0  0
 20 22  2  0  0  0  0
 21 41  1  0  0  0  0
 23 24  1  0  0  0  0
 23 42  1  0  0  0  0
 23 43  1  0  0  0  0
 24 25  1  0  0  0  0
 24 44  1  0  0  0  0
 24 45  1  0  0  0  0
 25 26  1  0  0  0  0
 25 27  2  0  0  0  0
 26 46  1  0  0  0  0
M  END
>  <DRUGBANK_ID>
DB07754

>  <COMMON_NAME>
DCFBC

>  <CAS_NUMBER>
564482-79-7

>  <UNII>
40R868KZFF

$$$$
