
 OpenBabel10282417072D

 78 85  0  0  1  0  0  0  0  0999 V2000
   -3.3490    0.9760    0.0000 C   0  0  0  0  0  0  0  0  0  0  0  0
   -2.7146    0.4486    0.0000 C   0  0  0  0  0  0  0  0  0  0  0  0
   -1.9151    0.6519    0.0000 C   0  0  0  0  0  0  0  0  0  0  0  0
   -1.3945    1.5893    0.0000 C   0  0  0  0  0  0  0  0  0  0  0  0
   -0.6802    2.0020    0.0000 C   0  0  0  0  0  0  0  0  0  0  0  0
   -0.3746    2.7684    0.0000 C   0  0  1  0  0  0  0  0  0  0  0  0
   -0.8150    3.4660    0.0000 C   0  0  0  0  0  0  0  0  0  0  0  0
   -0.4311    4.1962    0.0000 O   0  0  0  0  0  0  0  0  0  0  0  0
   -1.6394    3.4334    0.0000 C   0  0  0  0  0  0  0  0  0  0  0  0
    0.4486    2.7146    0.0000 C   0  0  0  0  0  0  0  0  0  0  0  0
    0.9760    3.3490    0.0000 C   0  0  0  0  0  0  0  0  0  0  0  0
    0.6519    1.9151    0.0000 C   0  0  0  0  0  0  0  0  0  0  0  0
    1.5893    1.3945    0.0000 C   0  0  0  0  0  0  0  0  0  0  0  0
    2.0020    0.6802    0.0000 C   0  0  0  0  0  0  0  0  0  0  0  0
    1.4746    0.0457    0.0000 N   0  0  0  0  0  0  0  0  0  0  0  0
    1.9151   -0.6519    0.0000 C   0  0  0  0  0  0  0  0  0  0  0  0
    1.3945   -1.5893    0.0000 C   0  0  0  0  0  0  0  0  0  0  0  0
    0.6802   -2.0020    0.0000 C   0  0  0  0  0  0  0  0  0  0  0  0
    0.3746   -2.7684    0.0000 C   0  0  0  0  0  0  0  0  0  0  0  0
    0.8150   -3.4660    0.0000 C   0  0  0  0  0  0  0  0  0  0  0  0
    1.6394   -3.4334    0.0000 C   0  0  0  0  0  0  0  0  0  0  0  0
    2.0798   -4.1310    0.0000 C   0  0  0  0  0  0  0  0  0  0  0  0
    2.9042   -4.0984    0.0000 O   0  0  0  0  0  0  0  0  0  0  0  0
    1.6958   -4.8612    0.0000 O   0  0  0  0  0  0  0  0  0  0  0  0
   -0.4486   -2.7146    0.0000 C   0  0  0  0  0  0  0  0  0  0  0  0
   -0.9760   -3.3490    0.0000 C   0  0  0  0  0  0  0  0  0  0  0  0
   -0.6519   -1.9151    0.0000 C   0  0  0  0  0  0  0  0  0  0  0  0
   -1.5893   -1.3945    0.0000 C   0  0  0  0  0  0  0  0  0  0  0  0
   -2.0020   -0.6802    0.0000 C   0  0  0  0  0  0  0  0  0  0  0  0
   -2.7684   -0.3746    0.0000 C   0  0  2  0  0  0  0  0  0  0  0  0
   -3.4660   -0.8150    0.0000 C   0  0  0  0  0  0  0  0  0  0  0  0
   -4.1962   -0.4311    0.0000 C   0  0  0  0  0  0  0  0  0  0  0  0
   -1.4746   -0.0457    0.0000 N   0  0  0  0  0  0  0  0  0  0  0  0
    0.0000    0.0000    0.0000 Fe  0  0  2  0  0  0  0  0  0  0  0  0
   -0.0457    1.4746    0.0000 N   0  0  0  0  0  0  0  0  0  0  0  0
    0.0457   -1.4746    0.0000 N   0  0  0  0  0  0  0  0  0  0  0  0
    2.7146   -0.4486    0.0000 C   0  0  0  0  0  0  0  0  0  0  0  0
    3.3490   -0.9760    0.0000 C   0  0  0  0  0  0  0  0  0  0  0  0
    4.1230   -0.6903    0.0000 C   0  0  0  0  0  0  0  0  0  0  0  0
    4.7574   -1.2176    0.0000 C   0  0  0  0  0  0  0  0  0  0  0  0
    4.6179   -2.0308    0.0000 O   0  0  0  0  0  0  0  0  0  0  0  0
    5.5313   -0.9319    0.0000 O   0  0  0  0  0  0  0  0  0  0  0  0
    2.7684    0.3746    0.0000 C   0  0  0  0  0  0  0  0  0  0  0  0
    3.4660    0.8150    0.0000 C   0  0  0  0  0  0  0  0  0  0  0  0
   -3.1680    2.0306    0.0000 H   0  0  0  0  0  0  0  0  0  0  0  0
   -4.3528    0.6054    0.0000 H   0  0  0  0  0  0  0  0  0  0  0  0
   -4.1718    1.6600    0.0000 H   0  0  0  0  0  0  0  0  0  0  0  0
   -2.1304    2.3128    0.0000 H   0  0  0  0  0  0  0  0  0  0  0  0
   -1.4401    2.6703    0.0000 H   0  0  0  0  0  0  0  0  0  0  0  0
    0.5052    4.2333    0.0000 H   0  0  0  0  0  0  0  0  0  0  0  0
   -2.1903    4.3061    0.0000 H   0  0  0  0  0  0  0  0  0  0  0  0
   -2.1197    2.5200    0.0000 H   0  0  0  0  0  0  0  0  0  0  0  0
    2.0306    3.1680    0.0000 H   0  0  0  0  0  0  0  0  0  0  0  0
    0.6054    4.3528    0.0000 H   0  0  0  0  0  0  0  0  0  0  0  0
    1.6600    4.1718    0.0000 H   0  0  0  0  0  0  0  0  0  0  0  0
    2.3128    2.1304    0.0000 H   0  0  0  0  0  0  0  0  0  0  0  0
    2.1304   -2.3128    0.0000 H   0  0  0  0  0  0  0  0  0  0  0  0
    0.3170   -4.4131    0.0000 H   0  0  0  0  0  0  0  0  0  0  0  0
    1.3862   -4.3708    0.0000 H   0  0  0  0  0  0  0  0  0  0  0  0
    2.1374   -2.4863    0.0000 H   0  0  0  0  0  0  0  0  0  0  0  0
    2.7086   -3.3911    0.0000 H   0  0  0  0  0  0  0  0  0  0  0  0
    3.4044   -4.8907    0.0000 H   0  0  0  0  0  0  0  0  0  0  0  0
   -2.0306   -3.1680    0.0000 H   0  0  0  0  0  0  0  0  0  0  0  0
   -0.6054   -4.3528    0.0000 H   0  0  0  0  0  0  0  0  0  0  0  0
   -1.6600   -4.1718    0.0000 H   0  0  0  0  0  0  0  0  0  0  0  0
   -2.3128   -2.1304    0.0000 H   0  0  0  0  0  0  0  0  0  0  0  0
   -2.6703   -1.4401    0.0000 H   0  0  0  0  0  0  0  0  0  0  0  0
   -3.4252   -1.8462    0.0000 H   0  0  0  0  0  0  0  0  0  0  0  0
   -4.2370    0.6001    0.0000 H   0  0  0  0  0  0  0  0  0  0  0  0
   -5.0688   -0.9820    0.0000 H   0  0  0  0  0  0  0  0  0  0  0  0
    3.1680   -2.0306    0.0000 H   0  0  0  0  0  0  0  0  0  0  0  0
    4.1718   -1.6600    0.0000 H   0  0  0  0  0  0  0  0  0  0  0  0
    4.3040    0.3643    0.0000 H   0  0  0  0  0  0  0  0  0  0  0  0
    5.1268   -0.3197    0.0000 H   0  0  0  0  0  0  0  0  0  0  0  0
    3.7389   -2.3554    0.0000 H   0  0  0  0  0  0  0  0  0  0  0  0
    4.4131    0.3170    0.0000 H   0  0  0  0  0  0  0  0  0  0  0  0
    3.4237    1.8842    0.0000 H   0  0  0  0  0  0  0  0  0  0  0  0
    4.3708    1.3862    0.0000 H   0  0  0  0  0  0  0  0  0  0  0  0
  1  2  1  0  0  0  0
  1 45  1  0  0  0  0
  1 46  1  0  0  0  0
  1 47  1  0  0  0  0
  2  3  2  0  0  0  0
  2 30  1  0  0  0  0
  3  4  1  0  0  0  0
  3 33  1  0  0  0  0
  4  5  2  0  0  0  0
  4 48  1  0  0  0  0
  5  6  1  0  0  0  0
  6  7  1  0  0  0  0
  6 10  1  0  0  0  0
  6 49  1  6  0  0  0
  7  8  1  0  0  0  0
  7  9  2  0  0  0  0
  8 50  1  0  0  0  0
  9 51  1  0  0  0  0
  9 52  1  0  0  0  0
 10 11  1  0  0  0  0
 10 12  2  0  0  0  0
 11 53  1  0  0  0  0
 11 54  1  0  0  0  0
 11 55  1  0  0  0  0
 12 13  1  0  0  0  0
 12 35  1  0  0  0  0
 13 14  2  0  0  0  0
 13 56  1  0  0  0  0
 14 15  1  0  0  0  0
 14 43  1  0  0  0  0
 15 16  1  0  0  0  0
 16 17  2  0  0  0  0
 16 37  1  0  0  0  0
 17 18  1  0  0  0  0
 17 57  1  0  0  0  0
 18 19  2  0  0  0  0
 18 36  1  0  0  0  0
 19 20  1  0  0  0  0
 19 25  1  0  0  0  0
 20 21  1  0  0  0  0
 20 58  1  0  0  0  0
 20 59  1  0  0  0  0
 21 22  1  0  0  0  0
 21 60  1  0  0  0  0
 21 61  1  0  0  0  0
 22 23  1  0  0  0  0
 22 24  2  0  0  0  0
 23 62  1  0  0  0  0
 25 26  1  0  0  0  0
 25 27  2  0  0  0  0
 26 63  1  0  0  0  0
 26 64  1  0  0  0  0
 26 65  1  0  0  0  0
 27 28  1  0  0  0  0
 27 36  1  0  0  0  0
 28 29  2  0  0  0  0
 28 66  1  0  0  0  0
 29 30  1  0  0  0  0
 30 31  1  0  0  0  0
 30 67  1  1  0  0  0
 31 32  2  0  0  0  0
 31 68  1  0  0  0  0
 32 69  1  0  0  0  0
 32 70  1  0  0  0  0
 33 29  1  0  0  0  0
 34 33  1  6  0  0  0
 34 15  1  0  0  0  0
 34 35  1  0  0  0  0
 34 36  1  0  0  0  0
 35  5  1  0  0  0  0
 37 38  1  0  0  0  0
 37 43  2  0  0  0  0
 38 39  1  0  0  0  0
 38 71  1  0  0  0  0
 38 72  1  0  0  0  0
 39 40  1  0  0  0  0
 39 73  1  0  0  0  0
 39 74  1  0  0  0  0
 40 41  1  0  0  0  0
 40 42  2  0  0  0  0
 41 75  1  0  0  0  0
 43 44  1  0  0  0  0
 44 76  1  0  0  0  0
 44 77  1  0  0  0  0
 44 78  1  0  0  0  0
M  END
>  <DRUGBANK_ID>
DB02949

>  <SECONDARY_ACCESSION_NUMBERS>
EXPT01709

>  <COMMON_NAME>
2-Acetyl-Protoporphyrin Ix

$$$$
