
 OpenBabel10282417072D

 28 28  0  0  0  0  0  0  0  0999 V2000
    0.0000   -0.8250    0.0000 N   0  0  0  0  0  0  0  0  0  0  0  0
    0.0000    0.0000    0.0000 C   0  0  1  0  0  0  0  0  0  0  0  0
   -0.7144    0.4125    0.0000 C   0  0  0  0  0  0  0  0  0  0  0  0
   -1.4289    0.0000    0.0000 O   0  0  0  0  0  0  0  0  0  0  0  0
   -2.1434    0.4125    0.0000 C   0  0  0  0  0  0  0  0  0  0  0  0
   -2.8578    0.0000    0.0000 O   0  0  0  0  0  0  0  0  0  0  0  0
   -2.1434    1.2375    0.0000 N   0  0  0  0  0  0  0  0  0  0  0  0
    0.7144    0.4125    0.0000 C   0  0  0  0  0  0  0  0  0  0  0  0
    1.4289    0.0000    0.0000 C   0  0  0  0  0  0  0  0  0  0  0  0
    2.1434    0.4125    0.0000 C   0  0  0  0  0  0  0  0  0  0  0  0
    2.8578    0.0000    0.0000 C   0  0  0  0  0  0  0  0  0  0  0  0
    2.8578   -0.8250    0.0000 C   0  0  0  0  0  0  0  0  0  0  0  0
    2.1434   -1.2375    0.0000 C   0  0  0  0  0  0  0  0  0  0  0  0
    1.4289   -0.8250    0.0000 C   0  0  0  0  0  0  0  0  0  0  0  0
   -0.8833   -1.3350    0.0000 H   0  0  0  0  0  0  0  0  0  0  0  0
    0.8833   -1.3350    0.0000 H   0  0  0  0  0  0  0  0  0  0  0  0
   -0.9267   -0.5350    0.0000 H   0  0  0  0  0  0  0  0  0  0  0  0
   -0.7144    1.4825    0.0000 H   0  0  0  0  0  0  0  0  0  0  0  0
   -1.6410    0.9475    0.0000 H   0  0  0  0  0  0  0  0  0  0  0  0
   -1.2908    1.7298    0.0000 H   0  0  0  0  0  0  0  0  0  0  0  0
   -2.9960    1.7298    0.0000 H   0  0  0  0  0  0  0  0  0  0  0  0
    0.7144    1.4825    0.0000 H   0  0  0  0  0  0  0  0  0  0  0  0
    1.6410    0.9475    0.0000 H   0  0  0  0  0  0  0  0  0  0  0  0
    2.1434    1.4445    0.0000 H   0  0  0  0  0  0  0  0  0  0  0  0
    3.7515    0.5160    0.0000 H   0  0  0  0  0  0  0  0  0  0  0  0
    3.7515   -1.3410    0.0000 H   0  0  0  0  0  0  0  0  0  0  0  0
    2.1434   -2.2695    0.0000 H   0  0  0  0  0  0  0  0  0  0  0  0
    0.5352   -1.3410    0.0000 H   0  0  0  0  0  0  0  0  0  0  0  0
  1 15  1  0  0  0  0
  1 16  1  0  0  0  0
  2  1  1  0  0  0  0
  2  3  1  0  0  0  0
  2  8  1  0  0  0  0
  2 17  1  6  0  0  0
  3  4  1  0  0  0  0
  3 18  1  0  0  0  0
  3 19  1  0  0  0  0
  4  5  1  0  0  0  0
  5  6  2  0  0  0  0
  5  7  1  0  0  0  0
  7 20  1  0  0  0  0
  7 21  1  0  0  0  0
  8  9  1  0  0  0  0
  8 22  1  0  0  0  0
  8 23  1  0  0  0  0
  9 10  2  0  0  0  0
  9 14  1  0  0  0  0
 10 11  1  0  0  0  0
 10 24  1  0  0  0  0
 11 12  2  0  0  0  0
 11 25  1  0  0  0  0
 12 13  1  0  0  0  0
 12 26  1  0  0  0  0
 13 14  2  0  0  0  0
 13 27  1  0  0  0  0
 14 28  1  0  0  0  0
M  END
>  <DRUGBANK_ID>
DB14754

>  <SECONDARY_ACCESSION_NUMBERS>
DB05795

>  <COMMON_NAME>
Solriamfetol

>  <CAS_NUMBER>
178429-62-4

>  <UNII>
939U7C91AI

>  <SYNONYMS>
(2R)-2-amino-3-phenylpropyl carbamate; Solriamfetol

$$$$
