
 OpenBabel10282417072D

 30 32  0  0  0  0  0  0  0  0999 V2000
    0.5488    2.1981    0.0000 O   0  0  0  0  0  0  0  0  0  0  0  0
    0.0599    1.5394    0.0000 C   0  0  0  0  0  0  0  0  0  0  0  0
   -0.7635    1.5394    0.0000 N   0  0  0  0  0  0  0  0  0  0  0  0
   -1.0229    0.7610    0.0000 C   0  0  0  0  0  0  0  0  0  0  0  0
   -1.8014    0.5114    0.0000 O   0  0  0  0  0  0  0  0  0  0  0  0
   -0.3543    0.2720    0.0000 C   0  0  1  0  0  0  0  0  0  0  0  0
    0.3143    0.7510    0.0000 N   0  0  0  0  0  0  0  0  0  0  0  0
    0.3492   -0.1521    0.0000 C   0  0  0  0  0  0  0  0  0  0  0  0
    0.3492   -0.9755    0.0000 C   0  0  0  0  0  0  0  0  0  0  0  0
   -0.3642   -1.3847    0.0000 O   0  0  0  0  0  0  0  0  0  0  0  0
   -1.0728   -0.9705    0.0000 C   0  0  1  0  0  0  0  0  0  0  0  0
   -1.0728   -0.1422    0.0000 C   0  0  0  0  0  0  0  0  0  0  0  0
   -1.7864   -1.3797    0.0000 C   0  0  0  0  0  0  0  0  0  0  0  0
   -2.4950   -0.9705    0.0000 N   0  0  0  0  0  0  0  0  0  0  0  0
   -1.7864   -2.1981    0.0000 O   0  0  0  0  0  0  0  0  0  0  0  0
    1.0628    0.2619    0.0000 C   0  0  0  0  0  0  0  0  0  0  0  0
    1.7814   -0.1521    0.0000 C   0  0  0  0  0  0  0  0  0  0  0  0
    1.0679   -1.3896    0.0000 C   0  0  0  0  0  0  0  0  0  0  0  0
    1.7814   -0.9755    0.0000 C   0  0  0  0  0  0  0  0  0  0  0  0
    2.4950    0.2619    0.0000 F   0  0  0  0  0  0  0  0  0  0  0  0
   -1.3392    2.3380    0.0000 H   0  0  0  0  0  0  0  0  0  0  0  0
    1.2493    0.4427    0.0000 H   0  0  0  0  0  0  0  0  0  0  0  0
   -1.0772   -2.0405    0.0000 H   0  0  0  0  0  0  0  0  0  0  0  0
   -1.9993    0.3931    0.0000 H   0  0  0  0  0  0  0  0  0  0  0  0
   -1.9995   -0.6770    0.0000 H   0  0  0  0  0  0  0  0  0  0  0  0
   -2.4949    0.0140    0.0000 H   0  0  0  0  0  0  0  0  0  0  0  0
   -3.3476   -1.4627    0.0000 H   0  0  0  0  0  0  0  0  0  0  0  0
    1.0612    1.2939    0.0000 H   0  0  0  0  0  0  0  0  0  0  0  0
    1.0695   -2.4216    0.0000 H   0  0  0  0  0  0  0  0  0  0  0  0
    2.6757   -1.4905    0.0000 H   0  0  0  0  0  0  0  0  0  0  0  0
  1  2  2  0  0  0  0
  2  3  1  0  0  0  0
  2  7  1  0  0  0  0
  3  4  1  0  0  0  0
  3 21  1  0  0  0  0
  4  5  2  0  0  0  0
  6  4  1  1  0  0  0
  6  7  1  0  0  0  0
  6  8  1  0  0  0  0
  6 12  1  0  0  0  0
  7 22  1  0  0  0  0
  8  9  2  0  0  0  0
  8 16  1  0  0  0  0
  9 10  1  0  0  0  0
  9 18  1  0  0  0  0
 10 11  1  0  0  0  0
 11 12  1  0  0  0  0
 11 13  1  0  0  0  0
 11 23  1  1  0  0  0
 12 24  1  0  0  0  0
 12 25  1  0  0  0  0
 13 14  1  0  0  0  0
 13 15  2  0  0  0  0
 14 26  1  0  0  0  0
 14 27  1  0  0  0  0
 16 17  2  0  0  0  0
 16 28  1  0  0  0  0
 17 19  1  0  0  0  0
 17 20  1  0  0  0  0
 18 19  2  0  0  0  0
 18 29  1  0  0  0  0
 19 30  1  0  0  0  0
M  END
>  <DRUGBANK_ID>
DB02021

>  <SECONDARY_ACCESSION_NUMBERS>
EXPT01433

>  <COMMON_NAME>
Fidarestat

>  <CAS_NUMBER>
136087-85-9

>  <UNII>
8SH8T1164U

>  <SYNONYMS>
(S,S)-fidarestat; Aldos; Fidarestat

$$$$
