
 OpenBabel10282417072D

 20 20  0  0  1  0  0  0  0  0999 V2000
    1.2822    3.1768    0.0000 C   0  0  0  0  0  0  0  0  0  0  0  0
    0.1553   -0.1553    0.0000 C   0  0  0  0  0  0  0  0  0  0  0  0
    0.9803   -0.1553    0.0000 C   0  0  0  0  0  0  0  0  0  0  0  0
    1.2822    2.3518    0.0000 C   0  0  2  0  0  0  0  0  0  0  0  0
    0.5678    1.9393    0.0000 C   0  0  1  0  0  0  0  0  0  0  0  0
    0.5678    1.1143    0.0000 C   0  0  0  0  0  0  0  0  0  0  0  0
   -0.1467    2.3518    0.0000 N   0  0  0  0  0  0  0  0  0  0  0  0
   -0.0997    0.6294    0.0000 N   0  0  0  0  0  0  0  0  0  0  0  0
    1.9967    1.9393    0.0000 O   0  0  0  0  0  0  0  0  0  0  0  0
    1.2352    0.6294    0.0000 S   0  0  0  0  0  0  0  0  0  0  0  0
    0.5678    2.7643    0.0000 H   0  0  0  0  0  0  0  0  0  0  0  0
    1.2822    1.5268    0.0000 H   0  0  0  0  0  0  0  0  0  0  0  0
    2.2088    3.7118    0.0000 H   0  0  0  0  0  0  0  0  0  0  0  0
    0.3556    3.7118    0.0000 H   0  0  0  0  0  0  0  0  0  0  0  0
    1.2822    4.2468    0.0000 H   0  0  0  0  0  0  0  0  0  0  0  0
   -0.4513   -0.9902    0.0000 H   0  0  0  0  0  0  0  0  0  0  0  0
    1.5869   -0.9902    0.0000 H   0  0  0  0  0  0  0  0  0  0  0  0
   -0.1467    3.3718    0.0000 H   0  0  0  0  0  0  0  0  0  0  0  0
   -1.0300    1.8418    0.0000 H   0  0  0  0  0  0  0  0  0  0  0  0
    1.9967    0.9693    0.0000 H   0  0  0  0  0  0  0  0  0  0  0  0
  1 13  1  0  0  0  0
  1 14  1  0  0  0  0
  1 15  1  0  0  0  0
  2 16  1  0  0  0  0
  3  2  2  0  0  0  0
  3 17  1  0  0  0  0
  4  1  1  0  0  0  0
  4  9  1  0  0  0  0
  4 11  1  6  0  0  0
  5  4  1  0  0  0  0
  5  7  1  0  0  0  0
  5 12  1  6  0  0  0
  6  5  1  0  0  0  0
  7 18  1  0  0  0  0
  7 19  1  0  0  0  0
  8  2  1  0  0  0  0
  8  6  2  0  0  0  0
  9 20  1  0  0  0  0
 10  3  1  0  0  0  0
 10  6  1  0  0  0  0
M  END
>  <DRUGBANK_ID>
DB03724

>  <SECONDARY_ACCESSION_NUMBERS>
EXPT03250

>  <COMMON_NAME>
(1s,2s)-1-Amino-1-(1,3-Thiazol-2-Yl)Propan-2-Ol

$$$$
