
 OpenBabel10282417072D

 59 61  0  0  0  0  0  0  0  0999 V2000
    3.5383   -4.2450    0.0000 C   0  0  0  0  0  0  0  0  0  0  0  0
    2.8239   -4.6575    0.0000 C   0  0  0  0  0  0  0  0  0  0  0  0
    2.1094   -4.2450    0.0000 C   0  0  0  0  0  0  0  0  0  0  0  0
    2.1094   -3.4200    0.0000 O   0  0  0  0  0  0  0  0  0  0  0  0
    1.3949   -4.6575    0.0000 N   0  0  0  0  0  0  0  0  0  0  0  0
    1.3949   -5.4825    0.0000 C   0  0  0  0  0  0  0  0  0  0  0  0
    2.1094   -5.8950    0.0000 C   0  0  0  0  0  0  0  0  0  0  0  0
    2.1094   -6.7200    0.0000 C   0  0  0  0  0  0  0  0  0  0  0  0
    1.3949   -7.1325    0.0000 C   0  0  0  0  0  0  0  0  0  0  0  0
    0.6804   -6.7200    0.0000 C   0  0  0  0  0  0  0  0  0  0  0  0
    0.6804   -5.8950    0.0000 C   0  0  0  0  0  0  0  0  0  0  0  0
    0.6804   -4.2450    0.0000 C   0  0  0  0  0  0  0  0  0  0  0  0
   -0.1320   -4.1017    0.0000 C   0  0  0  0  0  0  0  0  0  0  0  0
   -0.4142   -3.3265    0.0000 C   0  0  0  0  0  0  0  0  0  0  0  0
    0.1161   -2.6945    0.0000 N   0  0  0  0  0  0  0  0  0  0  0  0
   -0.1661   -1.9192    0.0000 C   0  0  0  0  0  0  0  0  0  0  0  0
   -0.9785   -1.7760    0.0000 C   0  0  0  0  0  0  0  0  0  0  0  0
   -1.2607   -1.0007    0.0000 C   0  0  0  0  0  0  0  0  0  0  0  0
   -2.0732   -0.8575    0.0000 C   0  0  0  0  0  0  0  0  0  0  0  0
   -2.3553   -0.0822    0.0000 C   0  0  0  0  0  0  0  0  0  0  0  0
   -1.8250    0.5498    0.0000 C   0  0  0  0  0  0  0  0  0  0  0  0
   -1.0126    0.4065    0.0000 C   0  0  0  0  0  0  0  0  0  0  0  0
   -0.7304   -0.3687    0.0000 C   0  0  0  0  0  0  0  0  0  0  0  0
    0.9286   -2.8377    0.0000 C   0  0  0  0  0  0  0  0  0  0  0  0
    1.2107   -3.6130    0.0000 C   0  0  0  0  0  0  0  0  0  0  0  0
    0.3983   -5.0202    0.0000 C   0  0  0  0  0  0  0  0  0  0  0  0
    0.1987   -5.8207    0.0000 O   0  0  0  0  0  0  0  0  0  0  0  0
   -0.4142   -5.1635    0.0000 O   0  0  0  0  0  0  0  0  0  0  0  0
   -0.6964   -5.9387    0.0000 C   0  0  0  0  0  0  0  0  0  0  0  0
    4.4650   -4.7800    0.0000 H   0  0  0  0  0  0  0  0  0  0  0  0
    3.5383   -3.1750    0.0000 H   0  0  0  0  0  0  0  0  0  0  0  0
    4.4649   -3.7100    0.0000 H   0  0  0  0  0  0  0  0  0  0  0  0
    2.8239   -5.7275    0.0000 H   0  0  0  0  0  0  0  0  0  0  0  0
    1.8973   -5.1925    0.0000 H   0  0  0  0  0  0  0  0  0  0  0  0
    3.0031   -5.3790    0.0000 H   0  0  0  0  0  0  0  0  0  0  0  0
    3.0031   -7.2360    0.0000 H   0  0  0  0  0  0  0  0  0  0  0  0
    1.3949   -8.1645    0.0000 H   0  0  0  0  0  0  0  0  0  0  0  0
   -0.2133   -7.2360    0.0000 H   0  0  0  0  0  0  0  0  0  0  0  0
   -0.2133   -5.3790    0.0000 H   0  0  0  0  0  0  0  0  0  0  0  0
   -0.8198   -4.9214    0.0000 H   0  0  0  0  0  0  0  0  0  0  0  0
   -1.1857   -3.9159    0.0000 H   0  0  0  0  0  0  0  0  0  0  0  0
   -1.4680   -3.1407    0.0000 H   0  0  0  0  0  0  0  0  0  0  0  0
   -0.7802   -2.3210    0.0000 H   0  0  0  0  0  0  0  0  0  0  0  0
    0.5217   -1.0995    0.0000 H   0  0  0  0  0  0  0  0  0  0  0  0
   -0.5321   -0.9137    0.0000 H   0  0  0  0  0  0  0  0  0  0  0  0
   -1.6663   -2.5957    0.0000 H   0  0  0  0  0  0  0  0  0  0  0  0
   -2.0322   -1.5902    0.0000 H   0  0  0  0  0  0  0  0  0  0  0  0
   -2.7366   -1.6481    0.0000 H   0  0  0  0  0  0  0  0  0  0  0  0
   -3.3716    0.0970    0.0000 H   0  0  0  0  0  0  0  0  0  0  0  0
   -2.1779    1.5196    0.0000 H   0  0  0  0  0  0  0  0  0  0  0  0
   -0.3492    1.1971    0.0000 H   0  0  0  0  0  0  0  0  0  0  0  0
    0.2859   -0.5479    0.0000 H   0  0  0  0  0  0  0  0  0  0  0  0
    1.6164   -2.0180    0.0000 H   0  0  0  0  0  0  0  0  0  0  0  0
    1.9823   -3.0236    0.0000 H   0  0  0  0  0  0  0  0  0  0  0  0
    2.2644   -3.7988    0.0000 H   0  0  0  0  0  0  0  0  0  0  0  0
    1.5766   -4.6185    0.0000 H   0  0  0  0  0  0  0  0  0  0  0  0
   -1.7502   -6.1244    0.0000 H   0  0  0  0  0  0  0  0  0  0  0  0
   -0.0087   -6.7584    0.0000 H   0  0  0  0  0  0  0  0  0  0  0  0
   -1.0624   -6.9442    0.0000 H   0  0  0  0  0  0  0  0  0  0  0  0
  1  2  1  0  0  0  0
  1 30  1  0  0  0  0
  1 31  1  0  0  0  0
  1 32  1  0  0  0  0
  2  3  1  0  0  0  0
  2 33  1  0  0  0  0
  2 34  1  0  0  0  0
  3  4  2  0  0  0  0
  3  5  1  0  0  0  0
  5  6  1  0  0  0  0
  5 12  1  0  0  0  0
  6  7  2  0  0  0  0
  6 11  1  0  0  0  0
  7  8  1  0  0  0  0
  7 35  1  0  0  0  0
  8  9  2  0  0  0  0
  8 36  1  0  0  0  0
  9 10  1  0  0  0  0
  9 37  1  0  0  0  0
 10 11  2  0  0  0  0
 10 38  1  0  0  0  0
 11 39  1  0  0  0  0
 12 13  1  0  0  0  0
 12 25  1  0  0  0  0
 12 26  1  0  0  0  0
 13 14  1  0  0  0  0
 13 40  1  0  0  0  0
 13 41  1  0  0  0  0
 14 15  1  0  0  0  0
 14 42  1  0  0  0  0
 14 43  1  0  0  0  0
 15 16  1  0  0  0  0
 15 24  1  0  0  0  0
 16 17  1  0  0  0  0
 16 44  1  0  0  0  0
 16 45  1  0  0  0  0
 17 18  1  0  0  0  0
 17 46  1  0  0  0  0
 17 47  1  0  0  0  0
 18 19  2  0  0  0  0
 18 23  1  0  0  0  0
 19 20  1  0  0  0  0
 19 48  1  0  0  0  0
 20 21  2  0  0  0  0
 20 49  1  0  0  0  0
 21 22  1  0  0  0  0
 21 50  1  0  0  0  0
 22 23  2  0  0  0  0
 22 51  1  0  0  0  0
 23 52  1  0  0  0  0
 24 25  1  0  0  0  0
 24 53  1  0  0  0  0
 24 54  1  0  0  0  0
 25 55  1  0  0  0  0
 25 56  1  0  0  0  0
 26 27  2  0  0  0  0
 26 28  1  0  0  0  0
 28 29  1  0  0  0  0
 29 57  1  0  0  0  0
 29 58  1  0  0  0  0
 29 59  1  0  0  0  0
M  ISO  1  29  11
M  END
>  <DRUGBANK_ID>
DB15360

>  <COMMON_NAME>
Carfentanil, C-11

>  <CAS_NUMBER>
98598-83-5

>  <UNII>
UVI40IC2GN

>  <SYNONYMS>
11C-CARFENTANIL

$$$$
