
 OpenBabel10282417072D

 38 37  0  0  1  0  0  0  0  0999 V2000
    9.6691   -8.1682    0.0000 N   0  0  0  0  0  0  0  0  0  0  0  0
    7.5010   -8.5711    0.0000 N   0  0  0  0  0  0  0  0  0  0  0  0
   11.1080   -9.8373    0.0000 O   0  0  0  0  0  0  0  0  0  0  0  0
    7.5010   -6.9211    0.0000 O   0  0  0  0  0  0  0  0  0  0  0  0
    6.8103   -8.1682    0.0000 C   0  0  2  0  0  0  0  0  0  0  0  0
   10.3789   -8.5902    0.0000 C   0  0  2  0  0  0  0  0  0  0  0  0
    8.2493   -8.1682    0.0000 C   0  0  0  0  0  0  0  0  0  0  0  0
    8.9400   -8.5902    0.0000 C   0  0  0  0  0  0  0  0  0  0  0  0
    6.8103   -7.3432    0.0000 C   0  0  0  0  0  0  0  0  0  0  0  0
   10.3789   -9.4152    0.0000 C   0  0  0  0  0  0  0  0  0  0  0  0
    6.0621   -8.5711    0.0000 C   0  0  0  0  0  0  0  0  0  0  0  0
   11.1080   -8.1682    0.0000 C   0  0  0  0  0  0  0  0  0  0  0  0
    5.3522   -8.1682    0.0000 C   0  0  0  0  0  0  0  0  0  0  0  0
   11.8227   -8.5802    0.0000 C   0  0  0  0  0  0  0  0  0  0  0  0
    9.6751   -7.1482    0.0000 H   0  0  0  0  0  0  0  0  0  0  0  0
    7.4836   -9.5910    0.0000 H   0  0  0  0  0  0  0  0  0  0  0  0
   11.1068  -10.8073    0.0000 H   0  0  0  0  0  0  0  0  0  0  0  0
    8.3529   -7.3850    0.0000 H   0  0  0  0  0  0  0  0  0  0  0  0
    7.7381   -7.6353    0.0000 H   0  0  0  0  0  0  0  0  0  0  0  0
    9.4489   -9.1193    0.0000 H   0  0  0  0  0  0  0  0  0  0  0  0
    8.2785   -7.0986    0.0000 H   0  0  0  0  0  0  0  0  0  0  0  0
    9.1896   -7.6575    0.0000 H   0  0  0  0  0  0  0  0  0  0  0  0
    8.9273   -9.6601    0.0000 H   0  0  0  0  0  0  0  0  0  0  0  0
    8.0037   -9.1081    0.0000 H   0  0  0  0  0  0  0  0  0  0  0  0
    5.8770   -6.8198    0.0000 H   0  0  0  0  0  0  0  0  0  0  0  0
    5.8870   -7.8840    0.0000 H   0  0  0  0  0  0  0  0  0  0  0  0
    9.4519   -9.9497    0.0000 H   0  0  0  0  0  0  0  0  0  0  0  0
    9.4524   -8.8799    0.0000 H   0  0  0  0  0  0  0  0  0  0  0  0
    6.0502   -9.6410    0.0000 H   0  0  0  0  0  0  0  0  0  0  0  0
    5.1345   -9.1044    0.0000 H   0  0  0  0  0  0  0  0  0  0  0  0
   11.1071   -7.0982    0.0000 H   0  0  0  0  0  0  0  0  0  0  0  0
   12.0342   -7.6325    0.0000 H   0  0  0  0  0  0  0  0  0  0  0  0
    5.3443   -7.0982    0.0000 H   0  0  0  0  0  0  0  0  0  0  0  0
    4.4295   -8.7100    0.0000 H   0  0  0  0  0  0  0  0  0  0  0  0
    4.4216   -7.6401    0.0000 H   0  0  0  0  0  0  0  0  0  0  0  0
   11.8234   -9.6502    0.0000 H   0  0  0  0  0  0  0  0  0  0  0  0
   12.7490   -8.0446    0.0000 H   0  0  0  0  0  0  0  0  0  0  0  0
   12.7497   -9.1146    0.0000 H   0  0  0  0  0  0  0  0  0  0  0  0
  1 15  1  0  0  0  0
  2 16  1  0  0  0  0
  3 17  1  0  0  0  0
  4 18  1  0  0  0  0
  5  2  1  0  0  0  0
  5  9  1  0  0  0  0
  5 19  1  6  0  0  0
  6  1  1  0  0  0  0
  6 10  1  0  0  0  0
  6 20  1  6  0  0  0
  7  2  1  0  0  0  0
  7 21  1  0  0  0  0
  7 22  1  0  0  0  0
  8  1  1  0  0  0  0
  8  7  1  0  0  0  0
  8 23  1  0  0  0  0
  8 24  1  0  0  0  0
  9  4  1  0  0  0  0
  9 25  1  0  0  0  0
  9 26  1  0  0  0  0
 10  3  1  0  0  0  0
 10 27  1  0  0  0  0
 10 28  1  0  0  0  0
 11  5  1  0  0  0  0
 11 29  1  0  0  0  0
 11 30  1  0  0  0  0
 12  6  1  0  0  0  0
 12 14  1  0  0  0  0
 12 31  1  0  0  0  0
 12 32  1  0  0  0  0
 13 11  1  0  0  0  0
 13 33  1  0  0  0  0
 13 34  1  0  0  0  0
 13 35  1  0  0  0  0
 14 36  1  0  0  0  0
 14 37  1  0  0  0  0
 14 38  1  0  0  0  0
M  END
>  <DRUGBANK_ID>
DB00330

>  <SECONDARY_ACCESSION_NUMBERS>
APRD00957

>  <COMMON_NAME>
Ethambutol

>  <CAS_NUMBER>
74-55-5

>  <UNII>
8G167061QZ

>  <SYNONYMS>
(+)-2,2'-(ethylenediimino)di-1-butanol; (+)-ethambutol; (+)-N,N'-bis(1-(hydroxymethyl)propyl)ethylenediamine; (+)-S,S-ethambutol; (2S,7S)-2,7-diethyl-3,6-diazaoctane-1,8-diol; (S,S)-ethambutol; EMB; Etambutol; Etambutolo; Ethambutol; Ethambutolum; S,S-Ethambutol

$$$$
