
 OpenBabel10282417072D

 56 57  0  0  0  0  0  0  0  0999 V2000
    3.4767    0.9809    0.0000 C   0  0  0  0  0  0  0  0  0  0  0  0
    6.7172    0.3573    0.0000 C   0  0  0  0  0  0  0  0  0  0  0  0
    8.1235   -2.0786    0.0000 C   0  0  0  0  0  0  0  0  0  0  0  0
    4.2868    0.8250    0.0000 C   0  0  0  0  0  0  0  0  0  0  0  0
    4.2868    5.1905    0.0000 C   0  0  0  0  0  0  0  0  0  0  0  0
    3.7467    4.5668    0.0000 C   0  0  0  0  0  0  0  0  0  0  0  0
    5.0970    5.0346    0.0000 C   0  0  0  0  0  0  0  0  0  0  0  0
    4.0168    3.7873    0.0000 C   0  0  0  0  0  0  0  0  0  0  0  0
    5.3670    4.2550    0.0000 C   0  0  0  0  0  0  0  0  0  0  0  0
    5.0970    2.8518    0.0000 C   0  0  0  0  0  0  0  0  0  0  0  0
    5.9071    2.6959    0.0000 C   0  0  0  0  0  0  0  0  0  0  0  0
    9.1428   -1.0191    0.0000 C   0  0  0  0  0  0  0  0  0  0  0  0
    7.2573    0.9809    0.0000 C   0  0  1  0  0  0  0  0  0  0  0  0
    4.8269    3.6314    0.0000 C   0  0  0  0  0  0  0  0  0  0  0  0
    6.1771    1.9164    0.0000 C   0  0  1  0  0  0  0  0  0  0  0  0
    9.1269   -0.1943    0.0000 C   0  0  1  0  0  0  0  0  0  0  0  0
    8.0675    0.8250    0.0000 C   0  0  0  0  0  0  0  0  0  0  0  0
    9.7848    0.3034    0.0000 C   0  0  0  0  0  0  0  0  0  0  0  0
    5.6370    1.2927    0.0000 C   0  0  0  0  0  0  0  0  0  0  0  0
    7.8656   -0.6312    0.0000 C   0  0  0  0  0  0  0  0  0  0  0  0
    6.9873    1.7605    0.0000 N   0  0  0  0  0  0  0  0  0  0  0  0
    8.3633   -1.2892    0.0000 N   0  0  0  0  0  0  0  0  0  0  0  0
    8.3375    0.0454    0.0000 N   0  0  0  0  0  0  0  0  0  0  0  0
    8.6075    1.4486    0.0000 O   0  0  0  0  0  0  0  0  0  0  0  0
    9.6828    1.1221    0.0000 O   0  0  0  0  0  0  0  0  0  0  0  0
   10.5449   -0.0175    0.0000 O   0  0  0  0  0  0  0  0  0  0  0  0
    5.9071    0.5132    0.0000 O   0  0  0  0  0  0  0  0  0  0  0  0
    7.0407   -0.6472    0.0000 O   0  0  0  0  0  0  0  0  0  0  0  0
    4.8269    1.4486    0.0000 O   0  0  0  0  0  0  0  0  0  0  0  0
    7.5274    0.2014    0.0000 H   0  0  0  0  0  0  0  0  0  0  0  0
    5.3670    2.0723    0.0000 H   0  0  0  0  0  0  0  0  0  0  0  0
    9.8691   -0.5546    0.0000 H   0  0  0  0  0  0  0  0  0  0  0  0
    3.1265    1.9920    0.0000 H   0  0  0  0  0  0  0  0  0  0  0  0
    2.7762    0.1721    0.0000 H   0  0  0  0  0  0  0  0  0  0  0  0
    2.4260    1.1831    0.0000 H   0  0  0  0  0  0  0  0  0  0  0  0
    5.6665    0.5596    0.0000 H   0  0  0  0  0  0  0  0  0  0  0  0
    7.0674   -0.6538    0.0000 H   0  0  0  0  0  0  0  0  0  0  0  0
    6.0167   -0.4515    0.0000 H   0  0  0  0  0  0  0  0  0  0  0  0
    7.0814   -2.3212    0.0000 H   0  0  0  0  0  0  0  0  0  0  0  0
    8.8546   -2.8598    0.0000 H   0  0  0  0  0  0  0  0  0  0  0  0
    7.8125   -3.1024    0.0000 H   0  0  0  0  0  0  0  0  0  0  0  0
    4.6370   -0.1861    0.0000 H   0  0  0  0  0  0  0  0  0  0  0  0
    5.3375    0.6228    0.0000 H   0  0  0  0  0  0  0  0  0  0  0  0
    3.9490    6.1656    0.0000 H   0  0  0  0  0  0  0  0  0  0  0  0
    2.7333    4.7618    0.0000 H   0  0  0  0  0  0  0  0  0  0  0  0
    5.7726    5.8147    0.0000 H   0  0  0  0  0  0  0  0  0  0  0  0
    3.3412    3.0072    0.0000 H   0  0  0  0  0  0  0  0  0  0  0  0
    6.3804    4.0599    0.0000 H   0  0  0  0  0  0  0  0  0  0  0  0
    4.3965    2.0429    0.0000 H   0  0  0  0  0  0  0  0  0  0  0  0
    4.0463    3.0540    0.0000 H   0  0  0  0  0  0  0  0  0  0  0  0
    6.6076    3.5047    0.0000 H   0  0  0  0  0  0  0  0  0  0  0  0
    6.9578    2.4937    0.0000 H   0  0  0  0  0  0  0  0  0  0  0  0
   10.0204   -1.6312    0.0000 H   0  0  0  0  0  0  0  0  0  0  0  0
    8.9959   -2.0790    0.0000 H   0  0  0  0  0  0  0  0  0  0  0  0
    7.6551    2.5315    0.0000 H   0  0  0  0  0  0  0  0  0  0  0  0
   10.6609   -0.9473    0.0000 H   0  0  0  0  0  0  0  0  0  0  0  0
  1 33  1  0  0  0  0
  1 34  1  0  0  0  0
  1 35  1  0  0  0  0
  2 36  1  0  0  0  0
  2 37  1  0  0  0  0
  2 38  1  0  0  0  0
  3 39  1  0  0  0  0
  3 40  1  0  0  0  0
  3 41  1  0  0  0  0
  4  1  1  0  0  0  0
  4 42  1  0  0  0  0
  4 43  1  0  0  0  0
  5 44  1  0  0  0  0
  6  5  2  0  0  0  0
  6 45  1  0  0  0  0
  7  5  1  0  0  0  0
  7 46  1  0  0  0  0
  8  6  1  0  0  0  0
  8 47  1  0  0  0  0
  9  7  2  0  0  0  0
  9 48  1  0  0  0  0
 10 49  1  0  0  0  0
 10 50  1  0  0  0  0
 11 10  1  0  0  0  0
 11 51  1  0  0  0  0
 11 52  1  0  0  0  0
 12 53  1  0  0  0  0
 12 54  1  0  0  0  0
 13  2  1  0  0  0  0
 13 30  1  1  0  0  0
 14  8  2  0  0  0  0
 14  9  1  0  0  0  0
 14 10  1  0  0  0  0
 15 11  1  0  0  0  0
 15 21  1  0  0  0  0
 15 31  1  1  0  0  0
 16 12  1  0  0  0  0
 16 18  1  0  0  0  0
 16 32  1  1  0  0  0
 17 13  1  0  0  0  0
 19 15  1  0  0  0  0
 21 13  1  0  0  0  0
 21 55  1  0  0  0  0
 22  3  1  0  0  0  0
 22 12  1  0  0  0  0
 22 20  1  0  0  0  0
 23 16  1  0  0  0  0
 23 17  1  0  0  0  0
 23 20  1  0  0  0  0
 24 17  2  0  0  0  0
 25 18  2  0  0  0  0
 26 18  1  0  0  0  0
 26 56  1  0  0  0  0
 27 19  2  0  0  0  0
 28 20  2  0  0  0  0
 29  4  1  0  0  0  0
 29 19  1  0  0  0  0
M  END
>  <DRUGBANK_ID>
DB11783

>  <COMMON_NAME>
Imidapril

>  <CAS_NUMBER>
89371-37-9

>  <UNII>
BW7H1TJS22

>  <SYNONYMS>
Imidapril

$$$$
