P91
 OpenBabel10282417072D

 44 47  0  0  0  0  0  0  0  0999 V2000
    0.3139    0.5499    0.0000 C   0  0  0  0  0  0  0  0  0  0  0  0
    1.1389    0.5499    0.0000 C   0  0  0  0  0  0  0  0  0  0  0  0
    1.5514   -0.1645    0.0000 C   0  0  0  0  0  0  0  0  0  0  0  0
    1.1389   -0.8790    0.0000 C   0  0  0  0  0  0  0  0  0  0  0  0
    1.6909   -1.4921    0.0000 C   0  0  0  0  0  0  0  0  0  0  0  0
    2.3584   -0.3361    0.0000 C   0  0  0  0  0  0  0  0  0  0  0  0
    1.5514    1.2644    0.0000 C   0  0  0  0  0  0  0  0  0  0  0  0
    1.5194   -2.2991    0.0000 O   0  0  0  0  0  0  0  0  0  0  0  0
    2.9715    0.2160    0.0000 O   0  0  0  0  0  0  0  0  0  0  0  0
   -3.1352   -4.0441    0.0000 O   0  0  0  0  0  0  0  0  0  0  0  0
   -2.4208   -1.1566    0.0000 O   0  0  0  0  0  0  0  0  0  0  0  0
    1.1389    1.9789    0.0000 C   0  0  0  0  0  0  0  0  0  0  0  0
    2.4446   -1.1566    0.0000 N   0  0  0  0  0  0  0  0  0  0  0  0
    1.5514    2.6933    0.0000 C   0  0  0  0  0  0  0  0  0  0  0  0
    2.3764    2.6933    0.0000 C   0  0  0  0  0  0  0  0  0  0  0  0
    2.7889    1.9789    0.0000 C   0  0  0  0  0  0  0  0  0  0  0  0
   -1.7063   -1.5691    0.0000 C   0  0  0  0  0  0  0  0  0  0  0  0
   -1.7063   -2.3941    0.0000 N   0  0  0  0  0  0  0  0  0  0  0  0
   -2.4208   -2.8066    0.0000 C   0  0  0  0  0  0  0  0  0  0  0  0
   -2.4208   -3.6316    0.0000 C   0  0  0  0  0  0  0  0  0  0  0  0
   -0.9918   -1.1566    0.0000 C   0  0  0  0  0  0  0  0  0  0  0  0
   -0.2381   -1.4921    0.0000 C   0  0  0  0  0  0  0  0  0  0  0  0
   -0.0666   -2.2991    0.0000 Br  0  0  0  0  0  0  0  0  0  0  0  0
   -0.9056   -0.3361    0.0000 N   0  0  0  0  0  0  0  0  0  0  0  0
   -1.5187    0.2160    0.0000 C   0  0  0  0  0  0  0  0  0  0  0  0
   -0.0986   -0.1645    0.0000 C   0  0  0  0  0  0  0  0  0  0  0  0
    0.3139   -0.8790    0.0000 C   0  0  0  0  0  0  0  0  0  0  0  0
    2.3764    1.2644    0.0000 C   0  0  0  0  0  0  0  0  0  0  0  0
    0.3139    1.9789    0.0000 Cl  0  0  0  0  0  0  0  0  0  0  0  0
   -0.2021    1.4436    0.0000 H   0  0  0  0  0  0  0  0  0  0  0  0
   -3.9753   -3.5591    0.0000 H   0  0  0  0  0  0  0  0  0  0  0  0
    3.2972   -1.6489    0.0000 H   0  0  0  0  0  0  0  0  0  0  0  0
    1.0354    3.5870    0.0000 H   0  0  0  0  0  0  0  0  0  0  0  0
    2.8924    3.5870    0.0000 H   0  0  0  0  0  0  0  0  0  0  0  0
    3.8209    1.9789    0.0000 H   0  0  0  0  0  0  0  0  0  0  0  0
   -0.8537   -2.8864    0.0000 H   0  0  0  0  0  0  0  0  0  0  0  0
   -3.3474   -2.2716    0.0000 H   0  0  0  0  0  0  0  0  0  0  0  0
   -3.3474   -3.3416    0.0000 H   0  0  0  0  0  0  0  0  0  0  0  0
   -1.4941   -4.1666    0.0000 H   0  0  0  0  0  0  0  0  0  0  0  0
   -1.4942   -3.0966    0.0000 H   0  0  0  0  0  0  0  0  0  0  0  0
   -1.2962    1.2626    0.0000 H   0  0  0  0  0  0  0  0  0  0  0  0
   -2.5363   -0.1146    0.0000 H   0  0  0  0  0  0  0  0  0  0  0  0
   -2.3138    0.9320    0.0000 H   0  0  0  0  0  0  0  0  0  0  0  0
    2.8924    0.3707    0.0000 H   0  0  0  0  0  0  0  0  0  0  0  0
  1  2  2  0  0  0  0
  1 26  1  0  0  0  0
  1 30  1  0  0  0  0
  2  3  1  0  0  0  0
  2  7  1  0  0  0  0
  3  4  2  0  0  0  0
  3  6  1  0  0  0  0
  4  5  1  0  0  0  0
  4 27  1  0  0  0  0
  5  8  2  0  0  0  0
  5 13  1  0  0  0  0
  6  9  2  0  0  0  0
  6 13  1  0  0  0  0
  7 12  2  0  0  0  0
  7 28  1  0  0  0  0
 10 20  1  0  0  0  0
 10 31  1  0  0  0  0
 11 17  2  0  0  0  0
 12 14  1  0  0  0  0
 12 29  1  0  0  0  0
 13 32  1  0  0  0  0
 14 15  2  0  0  0  0
 14 33  1  0  0  0  0
 15 16  1  0  0  0  0
 15 34  1  0  0  0  0
 16 28  2  0  0  0  0
 16 35  1  0  0  0  0
 17 18  1  0  0  0  0
 17 21  1  0  0  0  0
 18 19  1  0  0  0  0
 18 36  1  0  0  0  0
 19 20  1  0  0  0  0
 19 37  1  0  0  0  0
 19 38  1  0  0  0  0
 20 39  1  0  0  0  0
 20 40  1  0  0  0  0
 21 22  2  0  0  0  0
 21 24  1  0  0  0  0
 22 23  1  0  0  0  0
 22 27  1  0  0  0  0
 24 25  1  0  0  0  0
 24 26  1  0  0  0  0
 25 41  1  0  0  0  0
 25 42  1  0  0  0  0
 25 43  1  0  0  0  0
 26 27  2  0  0  0  0
 28 44  1  0  0  0  0
M  END
>  <DRUGBANK_ID>
DB08365

>  <COMMON_NAME>
8-bromo-4-(2-chlorophenyl)-N-(2-hydroxyethyl)-6-methyl-1,3-dioxo-1,2,3,6-tetrahydropyrrolo[3,4-e]indole-7-carboxamide

$$$$
