
 OpenBabel10282417072D

114121  0  0  1  0  0  0  0  0999 V2000
    7.2633    1.8455    0.0000 C   0  0  0  0  0  0  0  0  0  0  0  0
    7.3273    1.0230    0.0000 O   0  0  0  0  0  0  0  0  0  0  0  0
    8.0717    0.6672    0.0000 C   0  0  0  0  0  0  0  0  0  0  0  0
    8.1357   -0.1553    0.0000 C   0  0  0  0  0  0  0  0  0  0  0  0
    8.8801   -0.5111    0.0000 C   0  0  0  0  0  0  0  0  0  0  0  0
    9.5603   -0.0444    0.0000 C   0  0  0  0  0  0  0  0  0  0  0  0
    9.4963    0.7781    0.0000 C   0  0  0  0  0  0  0  0  0  0  0  0
    8.7519    1.1339    0.0000 C   0  0  0  0  0  0  0  0  0  0  0  0
   10.3047   -0.4002    0.0000 N   0  0  0  0  0  0  0  0  0  0  0  0
   10.3687   -1.2227    0.0000 C   0  0  0  0  0  0  0  0  0  0  0  0
   11.1131   -1.5785    0.0000 C   0  0  0  0  0  0  0  0  0  0  0  0
   11.7934   -1.1117    0.0000 C   0  0  0  0  0  0  0  0  0  0  0  0
   12.5377   -1.4675    0.0000 C   0  0  0  0  0  0  0  0  0  0  0  0
   12.6018   -2.2900    0.0000 C   0  0  0  0  0  0  0  0  0  0  0  0
   11.9215   -2.7568    0.0000 C   0  0  0  0  0  0  0  0  0  0  0  0
   11.9855   -3.5793    0.0000 C   0  0  2  0  0  0  0  0  0  0  0  0
   12.6396   -4.0820    0.0000 C   0  0  0  0  0  0  0  0  0  0  0  0
   12.3636   -4.8595    0.0000 C   0  0  0  0  0  0  0  0  0  0  0  0
   11.6489   -4.7984    0.0000 C   0  0  0  0  0  0  0  0  0  0  0  0
   11.3052   -4.0460    0.0000 C   0  0  1  0  0  0  0  0  0  0  0  0
   11.3693   -4.8685    0.0000 O   0  0  0  0  0  0  0  0  0  0  0  0
   10.6890   -5.3352    0.0000 C   0  0  0  0  0  0  0  0  0  0  0  0
   10.7531   -6.1577    0.0000 O   0  0  0  0  0  0  0  0  0  0  0  0
    9.9447   -4.9794    0.0000 N   0  0  0  0  0  0  0  0  0  0  0  0
    9.2644   -5.4462    0.0000 C   0  0  1  0  0  0  0  0  0  0  0  0
    9.1882   -6.2677    0.0000 C   0  0  0  0  0  0  0  0  0  0  0  0
    8.3852   -6.6802    0.0000 C   0  0  0  0  0  0  0  0  0  0  0  0
    8.0590   -7.4380    0.0000 C   0  0  0  0  0  0  0  0  0  0  0  0
    7.2375   -7.3618    0.0000 C   0  0  0  0  0  0  0  0  0  0  0  0
    7.0561   -6.5570    0.0000 C   0  0  0  0  0  0  0  0  0  0  0  0
    6.3426   -6.0039    0.0000 C   0  0  0  0  0  0  0  0  0  0  0  0
    6.4187   -5.1824    0.0000 C   0  0  0  0  0  0  0  0  0  0  0  0
    5.7453   -4.7057    0.0000 C   0  0  2  0  0  0  0  0  0  0  0  0
    5.0720   -4.2291    0.0000 C   0  0  0  0  0  0  0  0  0  0  0  0
    5.8215   -3.8843    0.0000 C   0  0  1  0  0  0  0  0  0  0  0  0
    6.5710   -3.5395    0.0000 N   0  0  0  0  0  0  0  0  0  0  0  0
    7.2443   -4.0161    0.0000 C   0  0  0  0  0  0  0  0  0  0  0  0
    7.1682   -4.8376    0.0000 O   0  0  0  0  0  0  0  0  0  0  0  0
    7.9938   -3.6713    0.0000 C   0  0  2  0  0  0  0  0  0  0  0  0
    8.2391   -2.8836    0.0000 C   0  0  0  0  0  0  0  0  0  0  0  0
    9.0722   -2.9786    0.0000 C   0  0  2  0  0  0  0  0  0  0  0  0
    9.1363   -3.8012    0.0000 C   0  0  0  0  0  0  0  0  0  0  0  0
    8.4560   -4.2679    0.0000 N   0  0  0  0  0  0  0  0  0  0  0  0
    8.5200   -5.0904    0.0000 C   0  0  0  0  0  0  0  0  0  0  0  0
    7.8398   -5.5571    0.0000 O   0  0  0  0  0  0  0  0  0  0  0  0
    9.7525   -2.5119    0.0000 O   0  0  0  0  0  0  0  0  0  0  0  0
    9.6884   -1.6894    0.0000 C   0  0  0  0  0  0  0  0  0  0  0  0
    8.9441   -1.3336    0.0000 N   0  0  0  0  0  0  0  0  0  0  0  0
    5.4767   -3.1348    0.0000 C   0  0  0  0  0  0  0  0  0  0  0  0
    4.6552   -3.0586    0.0000 O   0  0  0  0  0  0  0  0  0  0  0  0
    5.9534   -2.4614    0.0000 N   0  0  0  0  0  0  0  0  0  0  0  0
    5.6086   -1.7119    0.0000 S   0  0  0  0  0  0  0  0  0  0  0  0
    6.3581   -1.3671    0.0000 O   0  0  0  0  0  0  0  0  0  0  0  0
    4.8591   -2.0567    0.0000 O   0  0  0  0  0  0  0  0  0  0  0  0
    5.2638   -0.9624    0.0000 C   0  0  0  0  0  0  0  0  0  0  0  0
    5.9420   -0.4927    0.0000 C   0  0  0  0  0  0  0  0  0  0  0  0
    4.4658   -1.1718    0.0000 C   0  0  0  0  0  0  0  0  0  0  0  0
    4.6834   -0.3761    0.0000 C   0  0  0  0  0  0  0  0  0  0  0  0
    8.1457    2.4508    0.0000 H   0  0  0  0  0  0  0  0  0  0  0  0
    6.2979    2.3070    0.0000 H   0  0  0  0  0  0  0  0  0  0  0  0
    7.1803    2.9123    0.0000 H   0  0  0  0  0  0  0  0  0  0  0  0
    7.2847   -0.7391    0.0000 H   0  0  0  0  0  0  0  0  0  0  0  0
   10.3473    1.3619    0.0000 H   0  0  0  0  0  0  0  0  0  0  0  0
    8.6718    2.1628    0.0000 H   0  0  0  0  0  0  0  0  0  0  0  0
   11.1962   -2.6453    0.0000 H   0  0  0  0  0  0  0  0  0  0  0  0
   12.0785   -2.0399    0.0000 H   0  0  0  0  0  0  0  0  0  0  0  0
   11.7103   -0.0449    0.0000 H   0  0  0  0  0  0  0  0  0  0  0  0
   12.6757   -0.5064    0.0000 H   0  0  0  0  0  0  0  0  0  0  0  0
   13.4200   -0.8622    0.0000 H   0  0  0  0  0  0  0  0  0  0  0  0
   13.5031   -1.9289    0.0000 H   0  0  0  0  0  0  0  0  0  0  0  0
   13.5672   -2.7514    0.0000 H   0  0  0  0  0  0  0  0  0  0  0  0
   12.6849   -3.3568    0.0000 H   0  0  0  0  0  0  0  0  0  0  0  0
   10.9561   -2.2954    0.0000 H   0  0  0  0  0  0  0  0  0  0  0  0
   11.0392   -3.3621    0.0000 H   0  0  0  0  0  0  0  0  0  0  0  0
   12.9263   -3.0695    0.0000 H   0  0  0  0  0  0  0  0  0  0  0  0
   13.6658   -3.7789    0.0000 H   0  0  0  0  0  0  0  0  0  0  0  0
   13.3755   -4.8587    0.0000 H   0  0  0  0  0  0  0  0  0  0  0  0
   12.9430   -5.7591    0.0000 H   0  0  0  0  0  0  0  0  0  0  0  0
   11.8117   -5.7762    0.0000 H   0  0  0  0  0  0  0  0  0  0  0  0
   11.0326   -5.6731    0.0000 H   0  0  0  0  0  0  0  0  0  0  0  0
   10.5835   -4.6994    0.0000 H   0  0  0  0  0  0  0  0  0  0  0  0
   12.3363   -4.3319    0.0000 H   0  0  0  0  0  0  0  0  0  0  0  0
    9.8683   -3.9979    0.0000 H   0  0  0  0  0  0  0  0  0  0  0  0
   10.1871   -5.9880    0.0000 H   0  0  0  0  0  0  0  0  0  0  0  0
   10.0747   -6.8669    0.0000 H   0  0  0  0  0  0  0  0  0  0  0  0
    9.1241   -7.3358    0.0000 H   0  0  0  0  0  0  0  0  0  0  0  0
    7.6033   -5.9498    0.0000 H   0  0  0  0  0  0  0  0  0  0  0  0
    7.3379   -6.8996    0.0000 H   0  0  0  0  0  0  0  0  0  0  0  0
    8.6054   -8.3580    0.0000 H   0  0  0  0  0  0  0  0  0  0  0  0
    7.4873   -8.3425    0.0000 H   0  0  0  0  0  0  0  0  0  0  0  0
    6.5313   -8.1657    0.0000 H   0  0  0  0  0  0  0  0  0  0  0  0
    6.2006   -7.0975    0.0000 H   0  0  0  0  0  0  0  0  0  0  0  0
    7.9589   -5.9827    0.0000 H   0  0  0  0  0  0  0  0  0  0  0  0
    7.1058   -5.4882    0.0000 H   0  0  0  0  0  0  0  0  0  0  0  0
    5.3959   -6.4148    0.0000 H   0  0  0  0  0  0  0  0  0  0  0  0
    7.3562   -4.7511    0.0000 H   0  0  0  0  0  0  0  0  0  0  0  0
    5.1271   -5.5790    0.0000 H   0  0  0  0  0  0  0  0  0  0  0  0
    4.0066   -4.1304    0.0000 H   0  0  0  0  0  0  0  0  0  0  0  0
    4.8916   -3.1744    0.0000 H   0  0  0  0  0  0  0  0  0  0  0  0
    6.6618   -2.5592    0.0000 H   0  0  0  0  0  0  0  0  0  0  0  0
    7.7392   -4.7106    0.0000 H   0  0  0  0  0  0  0  0  0  0  0  0
    7.6548   -1.9872    0.0000 H   0  0  0  0  0  0  0  0  0  0  0  0
    8.8014   -1.9733    0.0000 H   0  0  0  0  0  0  0  0  0  0  0  0
    8.3022   -3.7216    0.0000 H   0  0  0  0  0  0  0  0  0  0  0  0
   10.1017   -4.2626    0.0000 H   0  0  0  0  0  0  0  0  0  0  0  0
    9.2194   -4.8680    0.0000 H   0  0  0  0  0  0  0  0  0  0  0  0
    6.9337   -2.5523    0.0000 H   0  0  0  0  0  0  0  0  0  0  0  0
    6.9094   -0.9499    0.0000 H   0  0  0  0  0  0  0  0  0  0  0  0
    5.8542    0.5737    0.0000 H   0  0  0  0  0  0  0  0  0  0  0  0
    6.8216    0.1165    0.0000 H   0  0  0  0  0  0  0  0  0  0  0  0
    3.7053   -1.9245    0.0000 H   0  0  0  0  0  0  0  0  0  0  0  0
    3.5419   -0.6320    0.0000 H   0  0  0  0  0  0  0  0  0  0  0  0
    4.4117    0.6588    0.0000 H   0  0  0  0  0  0  0  0  0  0  0  0
    5.6128    0.1542    0.0000 H   0  0  0  0  0  0  0  0  0  0  0  0
  1  2  1  0  0  0  0
  1 59  1  0  0  0  0
  1 60  1  0  0  0  0
  1 61  1  0  0  0  0
  2  3  1  0  0  0  0
  3  4  2  0  0  0  0
  3  8  1  0  0  0  0
  4  5  1  0  0  0  0
  4 62  1  0  0  0  0
  5  6  2  0  0  0  0
  5 48  1  0  0  0  0
  6  7  1  0  0  0  0
  6  9  1  0  0  0  0
  7  8  2  0  0  0  0
  7 63  1  0  0  0  0
  8 64  1  0  0  0  0
  9 10  2  0  0  0  0
 10 11  1  0  0  0  0
 10 47  1  0  0  0  0
 11 12  1  0  0  0  0
 11 65  1  0  0  0  0
 11 66  1  0  0  0  0
 12 13  1  0  0  0  0
 12 67  1  0  0  0  0
 12 68  1  0  0  0  0
 13 14  1  0  0  0  0
 13 69  1  0  0  0  0
 13 70  1  0  0  0  0
 14 15  1  0  0  0  0
 14 71  1  0  0  0  0
 14 72  1  0  0  0  0
 15 73  1  0  0  0  0
 15 74  1  0  0  0  0
 16 15  1  0  0  0  0
 16 17  1  0  0  0  0
 16 20  1  0  0  0  0
 16 75  1  1  0  0  0
 17 18  1  0  0  0  0
 17 76  1  0  0  0  0
 17 77  1  0  0  0  0
 18 19  1  0  0  0  0
 18 78  1  0  0  0  0
 18 79  1  0  0  0  0
 19 80  1  0  0  0  0
 19 81  1  0  0  0  0
 20 19  1  0  0  0  0
 20 21  1  0  0  0  0
 20 82  1  6  0  0  0
 21 22  1  0  0  0  0
 22 23  2  0  0  0  0
 22 24  1  0  0  0  0
 24 83  1  0  0  0  0
 25 24  1  0  0  0  0
 25 26  1  0  0  0  0
 25 44  1  0  0  0  0
 25 84  1  6  0  0  0
 26 27  1  0  0  0  0
 26 85  1  0  0  0  0
 26 86  1  0  0  0  0
 27 28  1  0  0  0  0
 27 87  1  0  0  0  0
 27 88  1  0  0  0  0
 28 29  1  0  0  0  0
 28 89  1  0  0  0  0
 28 90  1  0  0  0  0
 29 30  1  0  0  0  0
 29 91  1  0  0  0  0
 29 92  1  0  0  0  0
 30 31  1  0  0  0  0
 30 93  1  0  0  0  0
 30 94  1  0  0  0  0
 31 32  2  0  0  0  0
 31 95  1  0  0  0  0
 32 96  1  0  0  0  0
 33 32  1  0  0  0  0
 33 34  1  0  0  0  0
 33 35  1  0  0  0  0
 33 97  1  1  0  0  0
 34 98  1  0  0  0  0
 34 99  1  0  0  0  0
 35 34  1  0  0  0  0
 35 36  1  0  0  0  0
 35 49  1  6  0  0  0
 36 37  1  0  0  0  0
 36100  1  0  0  0  0
 37 38  2  0  0  0  0
 39 37  1  0  0  0  0
 39 40  1  0  0  0  0
 39 43  1  0  0  0  0
 39101  1  1  0  0  0
 40102  1  0  0  0  0
 40103  1  0  0  0  0
 41 40  1  0  0  0  0
 41 42  1  0  0  0  0
 41 46  1  0  0  0  0
 41104  1  6  0  0  0
 42 43  1  0  0  0  0
 42105  1  0  0  0  0
 42106  1  0  0  0  0
 43 44  1  0  0  0  0
 44 45  2  0  0  0  0
 46 47  1  0  0  0  0
 47 48  2  0  0  0  0
 49 50  2  0  0  0  0
 49 51  1  0  0  0  0
 51 52  1  0  0  0  0
 51107  1  0  0  0  0
 52 53  2  0  0  0  0
 52 54  2  0  0  0  0
 52 55  1  0  0  0  0
 55 56  1  0  0  0  0
 55 57  1  0  0  0  0
 55 58  1  0  0  0  0
 56108  1  0  0  0  0
 56109  1  0  0  0  0
 56110  1  0  0  0  0
 57 58  1  0  0  0  0
 57111  1  0  0  0  0
 57112  1  0  0  0  0
 58113  1  0  0  0  0
 58114  1  0  0  0  0
M  END
>  <DRUGBANK_ID>
DB15249

>  <COMMON_NAME>
MK-6325

>  <CAS_NUMBER>
1263814-52-3

>  <UNII>
59LD48P07K

$$$$
