
 OpenBabel10282417072D

 65 70  0  0  0  0  0  0  0  0999 V2000
   -1.0653   15.1922    0.0000 C   0  0  0  0  0  0  0  0  0  0  0  0
   -0.5804   14.5248    0.0000 C   0  0  0  0  0  0  0  0  0  0  0  0
   -0.9160   13.7711    0.0000 C   0  0  0  0  0  0  0  0  0  0  0  0
   -1.7364   13.6849    0.0000 C   0  0  0  0  0  0  0  0  0  0  0  0
   -2.2214   14.3523    0.0000 C   0  0  0  0  0  0  0  0  0  0  0  0
   -1.8858   15.1060    0.0000 C   0  0  0  0  0  0  0  0  0  0  0  0
   -3.0060   14.0974    0.0000 C   0  0  0  0  0  0  0  0  0  0  0  0
   -3.0060   13.2724    0.0000 O   0  0  0  0  0  0  0  0  0  0  0  0
   -2.2214   13.0175    0.0000 C   0  0  0  0  0  0  0  0  0  0  0  0
   -1.4144   12.8459    0.0000 C   0  0  0  0  0  0  0  0  0  0  0  0
   -1.1595   12.0613    0.0000 C   0  0  0  0  0  0  0  0  0  0  0  0
   -1.7115   11.4482    0.0000 N   0  0  0  0  0  0  0  0  0  0  0  0
   -2.5185   11.6197    0.0000 C   0  0  0  0  0  0  0  0  0  0  0  0
   -2.7734   12.4044    0.0000 C   0  0  0  0  0  0  0  0  0  0  0  0
   -1.4566   10.6636    0.0000 C   0  0  0  0  0  0  0  0  0  0  0  0
   -2.0086   10.0505    0.0000 C   0  0  0  0  0  0  0  0  0  0  0  0
   -1.7536    9.2659    0.0000 C   0  0  0  0  0  0  0  0  0  0  0  0
   -2.3057    8.6528    0.0000 C   0  0  0  0  0  0  0  0  0  0  0  0
   -2.0507    7.8682    0.0000 C   0  0  0  0  0  0  0  0  0  0  0  0
   -2.5357    7.2007    0.0000 C   0  0  0  0  0  0  0  0  0  0  0  0
   -2.0507    6.5333    0.0000 N   0  0  0  0  0  0  0  0  0  0  0  0
   -1.2661    6.7882    0.0000 C   0  0  0  0  0  0  0  0  0  0  0  0
   -1.2661    7.6132    0.0000 C   0  0  0  0  0  0  0  0  0  0  0  0
   -0.5516    8.0257    0.0000 C   0  0  0  0  0  0  0  0  0  0  0  0
    0.1628    7.6132    0.0000 C   0  0  0  0  0  0  0  0  0  0  0  0
    0.1628    6.7882    0.0000 C   0  0  0  0  0  0  0  0  0  0  0  0
   -0.5516    6.3757    0.0000 C   0  0  0  0  0  0  0  0  0  0  0  0
   -2.3057    5.7487    0.0000 C   0  0  0  0  0  0  0  0  0  0  0  0
   -1.7536    5.1356    0.0000 C   0  0  0  0  0  0  0  0  0  0  0  0
   -2.0086    4.3509    0.0000 C   0  0  0  0  0  0  0  0  0  0  0  0
   -2.8156    4.1794    0.0000 C   0  0  0  0  0  0  0  0  0  0  0  0
   -3.3676    4.7925    0.0000 C   0  0  0  0  0  0  0  0  0  0  0  0
   -3.1126    5.5771    0.0000 C   0  0  0  0  0  0  0  0  0  0  0  0
   -3.0705    3.3948    0.0000 F   0  0  0  0  0  0  0  0  0  0  0  0
   -0.6455   16.1350    0.0000 H   0  0  0  0  0  0  0  0  0  0  0  0
    0.4459   14.6327    0.0000 H   0  0  0  0  0  0  0  0  0  0  0  0
   -0.3094   12.9362    0.0000 H   0  0  0  0  0  0  0  0  0  0  0  0
   -2.4924   15.9409    0.0000 H   0  0  0  0  0  0  0  0  0  0  0  0
   -3.8716   14.7263    0.0000 H   0  0  0  0  0  0  0  0  0  0  0  0
   -3.9594   13.6116    0.0000 H   0  0  0  0  0  0  0  0  0  0  0  0
   -0.6984   13.6410    0.0000 H   0  0  0  0  0  0  0  0  0  0  0  0
   -0.3678   12.6234    0.0000 H   0  0  0  0  0  0  0  0  0  0  0  0
   -0.1129   11.8388    0.0000 H   0  0  0  0  0  0  0  0  0  0  0  0
   -0.8288   11.0437    0.0000 H   0  0  0  0  0  0  0  0  0  0  0  0
   -3.2345   10.8245    0.0000 H   0  0  0  0  0  0  0  0  0  0  0  0
   -3.5651   11.8422    0.0000 H   0  0  0  0  0  0  0  0  0  0  0  0
   -3.8200   12.6269    0.0000 H   0  0  0  0  0  0  0  0  0  0  0  0
   -3.1041   13.4220    0.0000 H   0  0  0  0  0  0  0  0  0  0  0  0
   -0.4100   10.4411    0.0000 H   0  0  0  0  0  0  0  0  0  0  0  0
   -1.1259    9.6460    0.0000 H   0  0  0  0  0  0  0  0  0  0  0  0
   -3.0552   10.2729    0.0000 H   0  0  0  0  0  0  0  0  0  0  0  0
   -2.7245    9.2553    0.0000 H   0  0  0  0  0  0  0  0  0  0  0  0
   -0.7070    9.0434    0.0000 H   0  0  0  0  0  0  0  0  0  0  0  0
   -1.4230    8.2483    0.0000 H   0  0  0  0  0  0  0  0  0  0  0  0
   -3.3523    8.8753    0.0000 H   0  0  0  0  0  0  0  0  0  0  0  0
   -3.0216    7.8576    0.0000 H   0  0  0  0  0  0  0  0  0  0  0  0
   -3.5677    7.2007    0.0000 H   0  0  0  0  0  0  0  0  0  0  0  0
   -0.5516    9.0577    0.0000 H   0  0  0  0  0  0  0  0  0  0  0  0
    1.0565    8.1292    0.0000 H   0  0  0  0  0  0  0  0  0  0  0  0
    1.0565    6.2722    0.0000 H   0  0  0  0  0  0  0  0  0  0  0  0
   -0.5516    5.3437    0.0000 H   0  0  0  0  0  0  0  0  0  0  0  0
   -0.7442    5.3502    0.0000 H   0  0  0  0  0  0  0  0  0  0  0  0
   -1.3181    3.5839    0.0000 H   0  0  0  0  0  0  0  0  0  0  0  0
   -4.3771    4.5780    0.0000 H   0  0  0  0  0  0  0  0  0  0  0  0
   -3.8032    6.3440    0.0000 H   0  0  0  0  0  0  0  0  0  0  0  0
  1  2  2  0  0  0  0
  1  6  1  0  0  0  0
  1 35  1  0  0  0  0
  2  3  1  0  0  0  0
  2 36  1  0  0  0  0
  3  4  2  0  0  0  0
  3 37  1  0  0  0  0
  4  5  1  0  0  0  0
  4  9  1  0  0  0  0
  5  6  2  0  0  0  0
  5  7  1  0  0  0  0
  6 38  1  0  0  0  0
  7  8  1  0  0  0  0
  7 39  1  0  0  0  0
  7 40  1  0  0  0  0
  8  9  1  0  0  0  0
  9 10  1  0  0  0  0
  9 14  1  0  0  0  0
 10 11  1  0  0  0  0
 10 41  1  0  0  0  0
 10 42  1  0  0  0  0
 11 12  1  0  0  0  0
 11 43  1  0  0  0  0
 11 44  1  0  0  0  0
 12 13  1  0  0  0  0
 12 15  1  0  0  0  0
 13 14  1  0  0  0  0
 13 45  1  0  0  0  0
 13 46  1  0  0  0  0
 14 47  1  0  0  0  0
 14 48  1  0  0  0  0
 15 16  1  0  0  0  0
 15 49  1  0  0  0  0
 15 50  1  0  0  0  0
 16 17  1  0  0  0  0
 16 51  1  0  0  0  0
 16 52  1  0  0  0  0
 17 18  1  0  0  0  0
 17 53  1  0  0  0  0
 17 54  1  0  0  0  0
 18 19  1  0  0  0  0
 18 55  1  0  0  0  0
 18 56  1  0  0  0  0
 19 20  2  0  0  0  0
 19 23  1  0  0  0  0
 20 21  1  0  0  0  0
 20 57  1  0  0  0  0
 21 22  1  0  0  0  0
 21 28  1  0  0  0  0
 22 23  1  0  0  0  0
 22 27  2  0  0  0  0
 23 24  2  0  0  0  0
 24 25  1  0  0  0  0
 24 58  1  0  0  0  0
 25 26  2  0  0  0  0
 25 59  1  0  0  0  0
 26 27  1  0  0  0  0
 26 60  1  0  0  0  0
 27 61  1  0  0  0  0
 28 29  2  0  0  0  0
 28 33  1  0  0  0  0
 29 30  1  0  0  0  0
 29 62  1  0  0  0  0
 30 31  2  0  0  0  0
 30 63  1  0  0  0  0
 31 32  1  0  0  0  0
 31 34  1  0  0  0  0
 32 33  2  0  0  0  0
 32 64  1  0  0  0  0
 33 65  1  0  0  0  0
M  END
>  <DRUGBANK_ID>
DB06555

>  <COMMON_NAME>
Siramesine

>  <CAS_NUMBER>
147817-50-3

>  <UNII>
3IX8CWR24V

>  <SYNONYMS>
Siramesine

$$$$
