
 OpenBabel10282417072D

 39 39  0  0  1  0  0  0  0  0999 V2000
    3.1095    1.5011    0.0000 O   0  0  0  0  0  0  0  0  0  0  0  0
    2.0930    0.7867    0.0000 O   0  0  0  0  0  0  0  0  0  0  0  0
    3.5220   -1.6884    0.0000 O   0  0  0  0  0  0  0  0  0  0  0  0
    2.0930   -0.8634    0.0000 O   0  0  0  0  0  0  0  0  0  0  0  0
    4.7595    1.5011    0.0000 O   0  0  0  0  0  0  0  0  0  0  0  0
    7.0944   -0.4509    0.0000 O   0  0  0  0  0  0  0  0  0  0  0  0
    6.3799    0.7867    0.0000 O   0  0  0  0  0  0  0  0  0  0  0  0
    4.9509   -0.8634    0.0000 N   0  0  0  0  0  0  0  0  0  0  0  0
    3.5220    0.7867    0.0000 C   0  0  2  0  0  0  0  0  0  0  0  0
    4.2365   -0.4509    0.0000 C   0  0  1  0  0  0  0  0  0  0  0  0
    4.2365    0.3741    0.0000 C   0  0  0  0  0  0  0  0  0  0  0  0
    2.8075    0.3741    0.0000 C   0  0  2  0  0  0  0  0  0  0  0  0
    3.5220   -0.8634    0.0000 C   0  0  1  0  0  0  0  0  0  0  0  0
    2.8075   -0.4509    0.0000 C   0  0  1  0  0  0  0  0  0  0  0  0
    3.9345    1.5011    0.0000 C   0  0  0  0  0  0  0  0  0  0  0  0
    5.6655   -0.4509    0.0000 C   0  0  0  0  0  0  0  0  0  0  0  0
    6.3799   -0.8634    0.0000 C   0  0  0  0  0  0  0  0  0  0  0  0
    5.6655    0.3741    0.0000 C   0  0  0  0  0  0  0  0  0  0  0  0
    3.5945    2.3412    0.0000 H   0  0  0  0  0  0  0  0  0  0  0  0
    2.0931    1.7567    0.0000 H   0  0  0  0  0  0  0  0  0  0  0  0
    2.6820   -2.1734    0.0000 H   0  0  0  0  0  0  0  0  0  0  0  0
    1.2530   -0.3784    0.0000 H   0  0  0  0  0  0  0  0  0  0  0  0
    5.2445    0.6611    0.0000 H   0  0  0  0  0  0  0  0  0  0  0  0
    7.9344   -0.9359    0.0000 H   0  0  0  0  0  0  0  0  0  0  0  0
    7.2200    0.3018    0.0000 H   0  0  0  0  0  0  0  0  0  0  0  0
    4.9508   -1.8834    0.0000 H   0  0  0  0  0  0  0  0  0  0  0  0
    5.1632    0.0841    0.0000 H   0  0  0  0  0  0  0  0  0  0  0  0
    5.1632    0.9091    0.0000 H   0  0  0  0  0  0  0  0  0  0  0  0
    5.1631   -0.1609    0.0000 H   0  0  0  0  0  0  0  0  0  0  0  0
    2.8075    1.4441    0.0000 H   0  0  0  0  0  0  0  0  0  0  0  0
    4.4486   -1.3984    0.0000 H   0  0  0  0  0  0  0  0  0  0  0  0
    1.8809    0.0841    0.0000 H   0  0  0  0  0  0  0  0  0  0  0  0
    3.3995    2.4278    0.0000 H   0  0  0  0  0  0  0  0  0  0  0  0
    2.8645    1.5011    0.0000 H   0  0  0  0  0  0  0  0  0  0  0  0
    6.5922    0.0841    0.0000 H   0  0  0  0  0  0  0  0  0  0  0  0
    6.3799   -1.9334    0.0000 H   0  0  0  0  0  0  0  0  0  0  0  0
    5.4532   -1.3984    0.0000 H   0  0  0  0  0  0  0  0  0  0  0  0
    4.7388    0.9090    0.0000 H   0  0  0  0  0  0  0  0  0  0  0  0
    4.7389   -0.1609    0.0000 H   0  0  0  0  0  0  0  0  0  0  0  0
  1 19  1  0  0  0  0
  2 20  1  0  0  0  0
  3 21  1  0  0  0  0
  4 22  1  0  0  0  0
  5 15  1  0  0  0  0
  5 23  1  0  0  0  0
  6 17  1  0  0  0  0
  6 24  1  0  0  0  0
  7 18  1  0  0  0  0
  7 25  1  0  0  0  0
  8 16  1  0  0  0  0
  8 26  1  0  0  0  0
  9  1  1  6  0  0  0
  9 11  1  0  0  0  0
  9 12  1  0  0  0  0
  9 15  1  0  0  0  0
 10  8  1  0  0  0  0
 10 11  1  0  0  0  0
 10 13  1  0  0  0  0
 10 27  1  1  0  0  0
 11 28  1  0  0  0  0
 11 29  1  0  0  0  0
 12  2  1  0  0  0  0
 12 14  1  0  0  0  0
 12 30  1  1  0  0  0
 13  3  1  0  0  0  0
 13 14  1  0  0  0  0
 13 31  1  1  0  0  0
 14  4  1  0  0  0  0
 14 32  1  6  0  0  0
 15 33  1  0  0  0  0
 15 34  1  0  0  0  0
 16 17  1  0  0  0  0
 16 18  1  0  0  0  0
 16 35  1  0  0  0  0
 17 36  1  0  0  0  0
 17 37  1  0  0  0  0
 18 38  1  0  0  0  0
 18 39  1  0  0  0  0
M  END
>  <DRUGBANK_ID>
DB04878

>  <COMMON_NAME>
Voglibose

>  <CAS_NUMBER>
83480-29-9

>  <UNII>
S77P977AG8

>  <SYNONYMS>
Voglibosa; Voglibose; Voglibosum

$$$$
