
 OpenBabel10282417072D

 25 25  0  0  0  0  0  0  0  0999 V2000
   -1.4289   -1.2374    0.0000 C   0  0  0  0  0  0  0  0  0  0  0  0
   -0.7144   -0.8250    0.0000 C   0  0  0  0  0  0  0  0  0  0  0  0
   -0.7144    0.0000    0.0000 N   0  0  0  0  0  0  0  0  0  0  0  0
   -2.1434   -0.8250    0.0000 O   0  0  0  0  0  0  0  0  0  0  0  0
   -2.1434    0.0000    0.0000 C   0  0  0  0  0  0  0  0  0  0  0  0
   -1.4289    0.4125    0.0000 C   0  0  0  0  0  0  0  0  0  0  0  0
    0.7144    0.0000    0.0000 C   0  0  0  0  0  0  0  0  0  0  0  0
    0.0000    0.4125    0.0000 C   0  0  0  0  0  0  0  0  0  0  0  0
    1.4289    1.2374    0.0000 O   0  0  0  0  0  0  0  0  0  0  0  0
    2.1434    0.0000    0.0000 O   0  0  0  0  0  0  0  0  0  0  0  0
    1.4289    0.4125    0.0000 S   0  0  0  0  0  0  0  0  0  0  0  0
    2.1434    0.8250    0.0000 O   0  0  0  0  0  0  0  0  0  0  0  0
   -1.4289   -2.3074    0.0000 H   0  0  0  0  0  0  0  0  0  0  0  0
   -2.3555   -1.7725    0.0000 H   0  0  0  0  0  0  0  0  0  0  0  0
    0.2122   -1.3601    0.0000 H   0  0  0  0  0  0  0  0  0  0  0  0
    0.2123   -0.2900    0.0000 H   0  0  0  0  0  0  0  0  0  0  0  0
   -3.0700    0.5350    0.0000 H   0  0  0  0  0  0  0  0  0  0  0  0
   -2.1434    1.0700    0.0000 H   0  0  0  0  0  0  0  0  0  0  0  0
   -1.4289    1.4825    0.0000 H   0  0  0  0  0  0  0  0  0  0  0  0
   -0.5023    0.9475    0.0000 H   0  0  0  0  0  0  0  0  0  0  0  0
    0.7144   -1.0700    0.0000 H   0  0  0  0  0  0  0  0  0  0  0  0
   -0.2123   -0.5350    0.0000 H   0  0  0  0  0  0  0  0  0  0  0  0
    0.0000    1.4825    0.0000 H   0  0  0  0  0  0  0  0  0  0  0  0
    0.9267    0.9475    0.0000 H   0  0  0  0  0  0  0  0  0  0  0  0
    2.9834    0.3400    0.0000 H   0  0  0  0  0  0  0  0  0  0  0  0
  1  4  1  0  0  0  0
  1 13  1  0  0  0  0
  1 14  1  0  0  0  0
  2  1  1  0  0  0  0
  2 15  1  0  0  0  0
  2 16  1  0  0  0  0
  3  2  1  0  0  0  0
  3  6  1  0  0  0  0
  4  5  1  0  0  0  0
  5  6  1  0  0  0  0
  5 17  1  0  0  0  0
  5 18  1  0  0  0  0
  6 19  1  0  0  0  0
  6 20  1  0  0  0  0
  7  8  1  0  0  0  0
  7 21  1  0  0  0  0
  7 22  1  0  0  0  0
  8  3  1  0  0  0  0
  8 23  1  0  0  0  0
  8 24  1  0  0  0  0
 11  7  1  0  0  0  0
 11  9  2  0  0  0  0
 11 10  2  0  0  0  0
 11 12  1  0  0  0  0
 12 25  1  0  0  0  0
M  END
>  <DRUGBANK_ID>
DB03814

>  <SECONDARY_ACCESSION_NUMBERS>
EXPT02154

>  <COMMON_NAME>
2-(N-morpholino)ethanesulfonic acid

>  <CAS_NUMBER>
4432-31-9

>  <UNII>
2GNK67Q0C4

>  <SYNONYMS>
2-(4-morpholinyl)ethanesulfonic acid; 2-(morpholin-4-yl)ethanesulfonic acid; 2-(N-morpholino)ethanesulfonic acid; 2-morpholinoethanesulphonic acid; 4-morpholineethanesulfonic acid; 4-morpholinethanesulfonic acid; MES

$$$$
