1580
 OpenBabel10282417072D

 42 42  0  0  1  0  0  0  0  0999 V2000
    5.2224   -0.6188    0.0000 O   0  0  0  0  0  0  0  0  0  0  0  0
    5.2224    1.0313    0.0000 O   0  0  0  0  0  0  0  0  0  0  0  0
    3.7935   -1.4438    0.0000 O   0  0  0  0  0  0  0  0  0  0  0  0
    6.6515    1.8563    0.0000 N   0  0  0  0  0  0  0  0  0  0  0  0
    6.6515    1.0313    0.0000 C   0  0  0  0  0  0  0  0  0  0  0  0
    5.9370    0.6188    0.0000 C   0  0  3  0  0  0  0  0  0  0  0  0
    7.3659    2.2688    0.0000 C   0  0  0  0  0  0  0  0  0  0  0  0
    5.9370   -0.2063    0.0000 C   0  0  0  0  0  0  0  0  0  0  0  0
    7.3659    3.0938    0.0000 C   0  0  0  0  0  0  0  0  0  0  0  0
    8.0804    1.8563    0.0000 C   0  0  0  0  0  0  0  0  0  0  0  0
    5.2224   -1.4438    0.0000 C   0  0  0  0  0  0  0  0  0  0  0  0
    4.5080   -1.8563    0.0000 C   0  0  0  0  0  0  0  0  0  0  0  0
    5.9370   -1.8563    0.0000 C   0  0  0  0  0  0  0  0  0  0  0  0
    4.5080   -2.6813    0.0000 C   0  0  0  0  0  0  0  0  0  0  0  0
    5.9370   -2.6813    0.0000 C   0  0  0  0  0  0  0  0  0  0  0  0
    5.2224   -3.0938    0.0000 C   0  0  0  0  0  0  0  0  0  0  0  0
    3.0791   -1.8563    0.0000 C   0  0  0  0  0  0  0  0  0  0  0  0
    2.3645   -1.4438    0.0000 C   0  0  0  0  0  0  0  0  0  0  0  0
    1.6500   -1.8563    0.0000 C   0  0  0  0  0  0  0  0  0  0  0  0
    5.2223    2.0013    0.0000 H   0  0  0  0  0  0  0  0  0  0  0  0
    5.7681    2.3663    0.0000 H   0  0  0  0  0  0  0  0  0  0  0  0
    7.5781    0.4963    0.0000 H   0  0  0  0  0  0  0  0  0  0  0  0
    6.6515   -0.0387    0.0000 H   0  0  0  0  0  0  0  0  0  0  0  0
    5.9370    1.6888    0.0000 H   0  0  0  0  0  0  0  0  0  0  0  0
    8.2925    2.8038    0.0000 H   0  0  0  0  0  0  0  0  0  0  0  0
    6.8636   -0.7413    0.0000 H   0  0  0  0  0  0  0  0  0  0  0  0
    6.8637    0.3287    0.0000 H   0  0  0  0  0  0  0  0  0  0  0  0
    8.2925    3.6288    0.0000 H   0  0  0  0  0  0  0  0  0  0  0  0
    6.4393    3.6288    0.0000 H   0  0  0  0  0  0  0  0  0  0  0  0
    7.3659    4.1638    0.0000 H   0  0  0  0  0  0  0  0  0  0  0  0
    8.0804    0.7863    0.0000 H   0  0  0  0  0  0  0  0  0  0  0  0
    9.0070    2.3913    0.0000 H   0  0  0  0  0  0  0  0  0  0  0  0
    9.0071    1.3213    0.0000 H   0  0  0  0  0  0  0  0  0  0  0  0
    6.8307   -1.3403    0.0000 H   0  0  0  0  0  0  0  0  0  0  0  0
    3.6143   -3.1973    0.0000 H   0  0  0  0  0  0  0  0  0  0  0  0
    6.8307   -3.1973    0.0000 H   0  0  0  0  0  0  0  0  0  0  0  0
    5.2223   -4.1258    0.0000 H   0  0  0  0  0  0  0  0  0  0  0  0
    3.0792   -2.9263    0.0000 H   0  0  0  0  0  0  0  0  0  0  0  0
    2.1525   -2.3914    0.0000 H   0  0  0  0  0  0  0  0  0  0  0  0
    2.3645   -0.4118    0.0000 H   0  0  0  0  0  0  0  0  0  0  0  0
    0.7563   -1.3403    0.0000 H   0  0  0  0  0  0  0  0  0  0  0  0
    1.6500   -2.8883    0.0000 H   0  0  0  0  0  0  0  0  0  0  0  0
  1  8  1  0  0  0  0
  1 11  1  0  0  0  0
  2  6  1  0  0  0  0
  2 20  1  0  0  0  0
  3 12  1  0  0  0  0
  3 17  1  0  0  0  0
  4  5  1  0  0  0  0
  4  7  1  0  0  0  0
  4 21  1  0  0  0  0
  5  6  1  0  0  0  0
  5 22  1  0  0  0  0
  5 23  1  0  0  0  0
  6  8  1  0  0  0  0
  6 24  1  0  0  0  0
  7  9  1  0  0  0  0
  7 10  1  0  0  0  0
  7 25  1  0  0  0  0
  8 26  1  0  0  0  0
  8 27  1  0  0  0  0
  9 28  1  0  0  0  0
  9 29  1  0  0  0  0
  9 30  1  0  0  0  0
 10 31  1  0  0  0  0
 10 32  1  0  0  0  0
 10 33  1  0  0  0  0
 11 12  1  0  0  0  0
 11 13  2  0  0  0  0
 12 14  2  0  0  0  0
 13 15  1  0  0  0  0
 13 34  1  0  0  0  0
 14 16  1  0  0  0  0
 14 35  1  0  0  0  0
 15 16  2  0  0  0  0
 15 36  1  0  0  0  0
 16 37  1  0  0  0  0
 17 18  1  0  0  0  0
 17 38  1  0  0  0  0
 17 39  1  0  0  0  0
 18 19  2  0  0  0  0
 18 40  1  0  0  0  0
 19 41  1  0  0  0  0
 19 42  1  0  0  0  0
M  END
>  <DRUGBANK_ID>
DB01580

>  <COMMON_NAME>
Oxprenolol

>  <CAS_NUMBER>
6452-71-7

>  <UNII>
519MXN9YZR

>  <SYNONYMS>
Oxprenolol; Oxprenololum

$$$$
