
 OpenBabel10282417072D

 57 59  0  0  1  0  0  0  0  0999 V2000
    5.7158    3.3000    0.0000 C   0  0  0  0  0  0  0  0  0  0  0  0
    5.7158    2.4750    0.0000 O   0  0  0  0  0  0  0  0  0  0  0  0
    5.0013    2.0625    0.0000 N   0  0  0  0  0  0  0  0  0  0  0  0
    5.0013    1.2375    0.0000 C   0  0  0  0  0  0  0  0  0  0  0  0
    4.2868    0.8250    0.0000 C   0  0  0  0  0  0  0  0  0  0  0  0
    4.2868    0.0000    0.0000 C   0  0  0  0  0  0  0  0  0  0  0  0
    3.5724   -0.4125    0.0000 C   0  0  0  0  0  0  0  0  0  0  0  0
    2.8579    0.0000    0.0000 C   0  0  0  0  0  0  0  0  0  0  0  0
    2.8579    0.8250    0.0000 C   0  0  0  0  0  0  0  0  0  0  0  0
    3.5724    1.2375    0.0000 C   0  0  0  0  0  0  0  0  0  0  0  0
    2.1434   -0.4125    0.0000 C   0  0  0  0  0  0  0  0  0  0  0  0
    2.1434   -1.2375    0.0000 N   0  0  0  0  0  0  0  0  0  0  0  0
    1.4289   -1.6500    0.0000 C   0  0  0  0  0  0  0  0  0  0  0  0
    0.7145   -1.2375    0.0000 O   0  0  0  0  0  0  0  0  0  0  0  0
    1.4289   -2.4750    0.0000 C   0  0  2  0  0  0  0  0  0  0  0  0
    2.0123   -3.0584    0.0000 C   0  0  0  0  0  0  0  0  0  0  0  0
    1.4289   -3.6417    0.0000 C   0  0  0  0  0  0  0  0  0  0  0  0
    0.8456   -3.0584    0.0000 N   0  0  0  0  0  0  0  0  0  0  0  0
    0.0206   -3.0584    0.0000 C   0  0  0  0  0  0  0  0  0  0  0  0
   -0.3919   -2.3439    0.0000 O   0  0  0  0  0  0  0  0  0  0  0  0
   -0.3919   -3.7728    0.0000 C   0  0  1  0  0  0  0  0  0  0  0  0
   -1.2169   -3.7728    0.0000 C   0  0  0  0  0  0  0  0  0  0  0  0
   -1.6294   -4.4873    0.0000 C   0  0  0  0  0  0  0  0  0  0  0  0
   -2.4544   -4.4873    0.0000 C   0  0  0  0  0  0  0  0  0  0  0  0
   -2.8669   -3.7728    0.0000 C   0  0  0  0  0  0  0  0  0  0  0  0
   -2.4544   -3.0584    0.0000 C   0  0  0  0  0  0  0  0  0  0  0  0
   -1.6294   -3.0584    0.0000 C   0  0  0  0  0  0  0  0  0  0  0  0
   -2.8669   -2.3439    0.0000 Cl  0  0  0  0  0  0  0  0  0  0  0  0
   -2.8669   -5.2018    0.0000 O   0  0  0  0  0  0  0  0  0  0  0  0
   -3.6919   -5.2018    0.0000 C   0  0  0  0  0  0  0  0  0  0  0  0
   -4.1044   -5.9162    0.0000 F   0  0  0  0  0  0  0  0  0  0  0  0
   -4.1044   -4.4873    0.0000 F   0  0  0  0  0  0  0  0  0  0  0  0
    0.0206   -4.4873    0.0000 O   0  0  0  0  0  0  0  0  0  0  0  0
    5.7158    0.8250    0.0000 N   0  0  0  0  0  0  0  0  0  0  0  0
    6.6424    3.8350    0.0000 H   0  0  0  0  0  0  0  0  0  0  0  0
    4.7892    3.8350    0.0000 H   0  0  0  0  0  0  0  0  0  0  0  0
    5.7158    4.3700    0.0000 H   0  0  0  0  0  0  0  0  0  0  0  0
    5.1805   -0.5160    0.0000 H   0  0  0  0  0  0  0  0  0  0  0  0
    3.5724   -1.4445    0.0000 H   0  0  0  0  0  0  0  0  0  0  0  0
    1.9642    1.3410    0.0000 H   0  0  0  0  0  0  0  0  0  0  0  0
    3.5724    2.2695    0.0000 H   0  0  0  0  0  0  0  0  0  0  0  0
    1.2168    0.1225    0.0000 H   0  0  0  0  0  0  0  0  0  0  0  0
    1.2168   -0.9475    0.0000 H   0  0  0  0  0  0  0  0  0  0  0  0
    2.9960   -1.7298    0.0000 H   0  0  0  0  0  0  0  0  0  0  0  0
    2.4175   -2.0655    0.0000 H   0  0  0  0  0  0  0  0  0  0  0  0
    3.0823   -3.0584    0.0000 H   0  0  0  0  0  0  0  0  0  0  0  0
    2.4217   -4.0470    0.0000 H   0  0  0  0  0  0  0  0  0  0  0  0
    1.4289   -4.7117    0.0000 H   0  0  0  0  0  0  0  0  0  0  0  0
    0.4403   -4.0512    0.0000 H   0  0  0  0  0  0  0  0  0  0  0  0
    0.6781   -3.7728    0.0000 H   0  0  0  0  0  0  0  0  0  0  0  0
   -1.1134   -5.3810    0.0000 H   0  0  0  0  0  0  0  0  0  0  0  0
   -3.8989   -3.7728    0.0000 H   0  0  0  0  0  0  0  0  0  0  0  0
   -1.1134   -2.1647    0.0000 H   0  0  0  0  0  0  0  0  0  0  0  0
   -4.7619   -5.2018    0.0000 H   0  0  0  0  0  0  0  0  0  0  0  0
   -0.4644   -5.3273    0.0000 H   0  0  0  0  0  0  0  0  0  0  0  0
    5.7158   -0.1595    0.0000 H   0  0  0  0  0  0  0  0  0  0  0  0
    6.5684    1.3173    0.0000 H   0  0  0  0  0  0  0  0  0  0  0  0
  1  2  1  0  0  0  0
  1 35  1  0  0  0  0
  1 36  1  0  0  0  0
  1 37  1  0  0  0  0
  2  3  1  0  0  0  0
  3  4  2  0  0  0  0
  4  5  1  0  0  0  0
  4 34  1  0  0  0  0
  5  6  2  0  0  0  0
  5 10  1  0  0  0  0
  6  7  1  0  0  0  0
  6 38  1  0  0  0  0
  7  8  2  0  0  0  0
  7 39  1  0  0  0  0
  8  9  1  0  0  0  0
  8 11  1  0  0  0  0
  9 10  2  0  0  0  0
  9 40  1  0  0  0  0
 10 41  1  0  0  0  0
 11 12  1  0  0  0  0
 11 42  1  0  0  0  0
 11 43  1  0  0  0  0
 12 13  1  0  0  0  0
 12 44  1  0  0  0  0
 13 14  2  0  0  0  0
 15 13  1  0  0  0  0
 15 16  1  0  0  0  0
 15 18  1  0  0  0  0
 15 45  1  1  0  0  0
 16 17  1  0  0  0  0
 16 46  1  0  0  0  0
 16 47  1  0  0  0  0
 17 18  1  0  0  0  0
 17 48  1  0  0  0  0
 17 49  1  0  0  0  0
 18 19  1  0  0  0  0
 19 20  2  0  0  0  0
 19 21  1  0  0  0  0
 21 22  1  0  0  0  0
 21 33  1  0  0  0  0
 21 50  1  1  0  0  0
 22 23  2  0  0  0  0
 22 27  1  0  0  0  0
 23 24  1  0  0  0  0
 23 51  1  0  0  0  0
 24 25  2  0  0  0  0
 24 29  1  0  0  0  0
 25 26  1  0  0  0  0
 25 52  1  0  0  0  0
 26 27  2  0  0  0  0
 26 28  1  0  0  0  0
 27 53  1  0  0  0  0
 29 30  1  0  0  0  0
 30 31  1  0  0  0  0
 30 32  1  0  0  0  0
 30 54  1  0  0  0  0
 33 55  1  0  0  0  0
 34 56  1  0  0  0  0
 34 57  1  0  0  0  0
M  END
>  <DRUGBANK_ID>
DB12507

>  <SECONDARY_ACCESSION_NUMBERS>
DB05711

>  <COMMON_NAME>
Atecegatran metoxil

>  <CAS_NUMBER>
433937-93-0

>  <UNII>
4GU1D587JV

>  <SYNONYMS>
Atecegatran fexenetil; Atecegatran metoxil

$$$$
