
 OpenBabel10282417072D

 47 50  0  0  1  0  0  0  0  0999 V2000
    1.8198    0.2868    0.0000 N   0  0  0  0  0  0  0  0  0  0  0  0
    1.0352    0.0319    0.0000 N   0  0  0  0  0  0  0  0  0  0  0  0
    0.5503    0.6993    0.0000 C   0  0  0  0  0  0  0  0  0  0  0  0
    1.0352    1.3668    0.0000 N   0  0  0  0  0  0  0  0  0  0  0  0
    1.8198    1.1118    0.0000 C   0  0  0  0  0  0  0  0  0  0  0  0
    2.4872    1.5968    0.0000 C   0  0  0  0  0  0  0  0  0  0  0  0
    3.2409    1.2613    0.0000 C   0  0  0  0  0  0  0  0  0  0  0  0
    3.9084    1.7462    0.0000 C   0  0  0  0  0  0  0  0  0  0  0  0
    4.6620    1.4107    0.0000 C   0  0  0  0  0  0  0  0  0  0  0  0
    4.7483    0.5901    0.0000 C   0  0  0  0  0  0  0  0  0  0  0  0
    4.0808    0.1053    0.0000 C   0  0  0  0  0  0  0  0  0  0  0  0
    3.3272    0.4408    0.0000 C   0  0  0  0  0  0  0  0  0  0  0  0
   -0.2746    0.6993    0.0000 C   0  0  0  0  0  0  0  0  0  0  0  0
   -0.6871    1.4139    0.0000 O   0  0  0  0  0  0  0  0  0  0  0  0
   -0.6871   -0.0150    0.0000 N   0  0  0  0  0  0  0  0  0  0  0  0
   -1.5121   -0.0150    0.0000 C   0  0  2  0  0  0  0  0  0  0  0  0
   -1.8701   -0.7582    0.0000 C   0  0  0  0  0  0  0  0  0  0  0  0
   -2.6744   -0.9419    0.0000 N   0  0  0  0  0  0  0  0  0  0  0  0
   -3.3194   -0.4274    0.0000 C   0  0  0  0  0  0  0  0  0  0  0  0
   -3.3194    0.3974    0.0000 C   0  0  0  0  0  0  0  0  0  0  0  0
   -2.6744    0.9117    0.0000 O   0  0  0  0  0  0  0  0  0  0  0  0
   -1.8701    0.7282    0.0000 C   0  0  0  0  0  0  0  0  0  0  0  0
   -4.0339    0.8100    0.0000 C   0  0  0  0  0  0  0  0  0  0  0  0
   -4.7484    0.3974    0.0000 C   0  0  0  0  0  0  0  0  0  0  0  0
   -4.7484   -0.4274    0.0000 C   0  0  0  0  0  0  0  0  0  0  0  0
   -4.0339   -0.8399    0.0000 C   0  0  0  0  0  0  0  0  0  0  0  0
   -2.8580   -1.7462    0.0000 C   0  0  0  0  0  0  0  0  0  0  0  0
   -1.3557   -1.4033    0.0000 O   0  0  0  0  0  0  0  0  0  0  0  0
    2.6163   -0.2919    0.0000 H   0  0  0  0  0  0  0  0  0  0  0  0
    2.3753    2.6609    0.0000 H   0  0  0  0  0  0  0  0  0  0  0  0
    3.3528    2.2258    0.0000 H   0  0  0  0  0  0  0  0  0  0  0  0
    3.8005    2.7725    0.0000 H   0  0  0  0  0  0  0  0  0  0  0  0
    5.4969    2.0173    0.0000 H   0  0  0  0  0  0  0  0  0  0  0  0
    5.6911    0.1703    0.0000 H   0  0  0  0  0  0  0  0  0  0  0  0
    4.1886   -0.9211    0.0000 H   0  0  0  0  0  0  0  0  0  0  0  0
    2.4923   -0.1658    0.0000 H   0  0  0  0  0  0  0  0  0  0  0  0
   -0.1949   -0.8676    0.0000 H   0  0  0  0  0  0  0  0  0  0  0  0
   -0.9429   -0.9210    0.0000 H   0  0  0  0  0  0  0  0  0  0  0  0
   -1.2030    1.5648    0.0000 H   0  0  0  0  0  0  0  0  0  0  0  0
   -2.2236    1.7381    0.0000 H   0  0  0  0  0  0  0  0  0  0  0  0
   -4.0339    1.8420    0.0000 H   0  0  0  0  0  0  0  0  0  0  0  0
   -5.6422    0.9134    0.0000 H   0  0  0  0  0  0  0  0  0  0  0  0
   -5.6421   -0.9434    0.0000 H   0  0  0  0  0  0  0  0  0  0  0  0
   -4.0339   -1.8719    0.0000 H   0  0  0  0  0  0  0  0  0  0  0  0
   -3.8805   -2.0616    0.0000 H   0  0  0  0  0  0  0  0  0  0  0  0
   -2.0737   -2.4740    0.0000 H   0  0  0  0  0  0  0  0  0  0  0  0
   -3.0961   -2.7894    0.0000 H   0  0  0  0  0  0  0  0  0  0  0  0
  1  2  1  0  0  0  0
  1  5  1  0  0  0  0
  1 29  1  0  0  0  0
  2  3  2  0  0  0  0
  3  4  1  0  0  0  0
  3 13  1  0  0  0  0
  4  5  2  0  0  0  0
  5  6  1  0  0  0  0
  6  7  1  0  0  0  0
  6 30  1  0  0  0  0
  6 31  1  0  0  0  0
  7  8  1  0  0  0  0
  7 12  2  0  0  0  0
  8  9  2  0  0  0  0
  8 32  1  0  0  0  0
  9 10  1  0  0  0  0
  9 33  1  0  0  0  0
 10 11  2  0  0  0  0
 10 34  1  0  0  0  0
 11 12  1  0  0  0  0
 11 35  1  0  0  0  0
 12 36  1  0  0  0  0
 13 14  2  0  0  0  0
 13 15  1  0  0  0  0
 15 37  1  0  0  0  0
 16 15  1  0  0  0  0
 16 22  1  0  0  0  0
 16 38  1  1  0  0  0
 17 16  1  0  0  0  0
 17 28  2  0  0  0  0
 18 17  1  0  0  0  0
 18 27  1  0  0  0  0
 19 18  1  0  0  0  0
 20 19  1  0  0  0  0
 21 20  1  0  0  0  0
 21 22  1  0  0  0  0
 22 39  1  0  0  0  0
 22 40  1  0  0  0  0
 23 20  2  0  0  0  0
 23 41  1  0  0  0  0
 24 23  1  0  0  0  0
 24 42  1  0  0  0  0
 25 24  2  0  0  0  0
 25 43  1  0  0  0  0
 26 25  1  0  0  0  0
 26 19  2  0  0  0  0
 26 44  1  0  0  0  0
 27 45  1  0  0  0  0
 27 46  1  0  0  0  0
 27 47  1  0  0  0  0
M  END
>  <DRUGBANK_ID>
DB16875

>  <COMMON_NAME>
GSK-2982772

>  <CAS_NUMBER>
1622848-92-3

>  <UNII>
T5W3M0VO9B

$$$$
