ALZ
 OpenBabel10282417072D

 50 51  0  0  0  0  0  0  0  0999 V2000
   -5.3515   -0.8025    0.0000 N   0  0  0  0  0  0  0  0  0  0  0  0
   -4.6370   -0.3900    0.0000 C   0  0  0  0  0  0  0  0  0  0  0  0
   -3.9225   -0.8025    0.0000 C   0  0  0  0  0  0  0  0  0  0  0  0
   -3.2081   -0.3900    0.0000 C   0  0  0  0  0  0  0  0  0  0  0  0
   -2.4936   -0.8025    0.0000 C   0  0  0  0  0  0  0  0  0  0  0  0
   -1.7791   -0.3900    0.0000 N   0  0  0  0  0  0  0  0  0  0  0  0
   -1.0646   -0.8025    0.0000 N   0  0  0  0  0  0  0  0  0  0  0  0
   -0.3502   -0.3900    0.0000 C   0  0  0  0  0  0  0  0  0  0  0  0
   -0.3502    0.4350    0.0000 O   0  0  0  0  0  0  0  0  0  0  0  0
    0.3643   -0.8025    0.0000 C   0  0  1  0  0  0  0  0  0  0  0  0
    1.1180   -0.4669    0.0000 N   0  0  0  0  0  0  0  0  0  0  0  0
    0.4505   -1.6230    0.0000 C   0  0  0  0  0  0  0  0  0  0  0  0
    1.2575   -1.7945    0.0000 C   0  0  0  0  0  0  0  0  0  0  0  0
    1.6700   -1.0800    0.0000 C   0  0  0  0  0  0  0  0  0  0  0  0
    1.2895    0.3400    0.0000 C   0  0  0  0  0  0  0  0  0  0  0  0
    0.6764    0.8921    0.0000 O   0  0  0  0  0  0  0  0  0  0  0  0
    2.0741    0.5950    0.0000 O   0  0  0  0  0  0  0  0  0  0  0  0
    2.2457    1.4020    0.0000 C   0  0  0  0  0  0  0  0  0  0  0  0
    3.0303    1.6569    0.0000 C   0  0  0  0  0  0  0  0  0  0  0  0
    3.2018    2.4639    0.0000 C   0  0  0  0  0  0  0  0  0  0  0  0
    3.9864    2.7188    0.0000 C   0  0  0  0  0  0  0  0  0  0  0  0
    4.5995    2.1668    0.0000 C   0  0  0  0  0  0  0  0  0  0  0  0
    4.4280    1.3598    0.0000 C   0  0  0  0  0  0  0  0  0  0  0  0
    3.6434    1.1049    0.0000 C   0  0  0  0  0  0  0  0  0  0  0  0
    0.3949   -0.2194    0.0000 H   0  0  0  0  0  0  0  0  0  0  0  0
   -6.2348   -0.2925    0.0000 H   0  0  0  0  0  0  0  0  0  0  0  0
   -5.3515   -1.8225    0.0000 H   0  0  0  0  0  0  0  0  0  0  0  0
   -4.6370    0.6800    0.0000 H   0  0  0  0  0  0  0  0  0  0  0  0
   -3.7104    0.1450    0.0000 H   0  0  0  0  0  0  0  0  0  0  0  0
   -3.9225   -1.8725    0.0000 H   0  0  0  0  0  0  0  0  0  0  0  0
   -2.9958   -1.3375    0.0000 H   0  0  0  0  0  0  0  0  0  0  0  0
   -3.2081    0.6800    0.0000 H   0  0  0  0  0  0  0  0  0  0  0  0
   -2.2815    0.1450    0.0000 H   0  0  0  0  0  0  0  0  0  0  0  0
   -2.4936   -1.8725    0.0000 H   0  0  0  0  0  0  0  0  0  0  0  0
   -1.5670   -1.3375    0.0000 H   0  0  0  0  0  0  0  0  0  0  0  0
   -1.7791    0.6300    0.0000 H   0  0  0  0  0  0  0  0  0  0  0  0
   -1.0646   -1.7870    0.0000 H   0  0  0  0  0  0  0  0  0  0  0  0
   -0.3447   -2.3390    0.0000 H   0  0  0  0  0  0  0  0  0  0  0  0
    0.7275   -2.6565    0.0000 H   0  0  0  0  0  0  0  0  0  0  0  0
    1.6927   -2.7720    0.0000 H   0  0  0  0  0  0  0  0  0  0  0  0
    2.3260   -1.8505    0.0000 H   0  0  0  0  0  0  0  0  0  0  0  0
    2.7341   -0.9682    0.0000 H   0  0  0  0  0  0  0  0  0  0  0  0
    2.2528   -1.9774    0.0000 H   0  0  0  0  0  0  0  0  0  0  0  0
    1.4506    2.1180    0.0000 H   0  0  0  0  0  0  0  0  0  0  0  0
    2.4682    2.4486    0.0000 H   0  0  0  0  0  0  0  0  0  0  0  0
    2.4349    3.1544    0.0000 H   0  0  0  0  0  0  0  0  0  0  0  0
    4.2010    3.7282    0.0000 H   0  0  0  0  0  0  0  0  0  0  0  0
    5.5810    2.4857    0.0000 H   0  0  0  0  0  0  0  0  0  0  0  0
    5.1949    0.6693    0.0000 H   0  0  0  0  0  0  0  0  0  0  0  0
    3.4288    0.0955    0.0000 H   0  0  0  0  0  0  0  0  0  0  0  0
  1  2  1  0  0  0  0
  1 26  1  0  0  0  0
  1 27  1  0  0  0  0
  2  3  1  0  0  0  0
  2 28  1  0  0  0  0
  2 29  1  0  0  0  0
  3  4  1  0  0  0  0
  3 30  1  0  0  0  0
  3 31  1  0  0  0  0
  4  5  1  0  0  0  0
  4 32  1  0  0  0  0
  4 33  1  0  0  0  0
  5  6  1  0  0  0  0
  5 34  1  0  0  0  0
  5 35  1  0  0  0  0
  6  7  1  0  0  0  0
  6 36  1  0  0  0  0
  7  8  1  0  0  0  0
  7 37  1  0  0  0  0
  8  9  2  0  0  0  0
 10  8  1  0  0  0  0
 10 11  1  0  0  0  0
 10 12  1  0  0  0  0
 10 25  1  6  0  0  0
 11 14  1  0  0  0  0
 11 15  1  0  0  0  0
 12 13  1  0  0  0  0
 12 38  1  0  0  0  0
 12 39  1  0  0  0  0
 13 14  1  0  0  0  0
 13 40  1  0  0  0  0
 13 41  1  0  0  0  0
 14 42  1  0  0  0  0
 14 43  1  0  0  0  0
 15 16  2  0  0  0  0
 15 17  1  0  0  0  0
 17 18  1  0  0  0  0
 18 19  1  0  0  0  0
 18 44  1  0  0  0  0
 18 45  1  0  0  0  0
 19 20  2  0  0  0  0
 19 24  1  0  0  0  0
 20 21  1  0  0  0  0
 20 46  1  0  0  0  0
 21 22  2  0  0  0  0
 21 47  1  0  0  0  0
 22 23  1  0  0  0  0
 22 48  1  0  0  0  0
 23 24  2  0  0  0  0
 23 49  1  0  0  0  0
 24 50  1  0  0  0  0
M  END
>  <DRUGBANK_ID>
DB07366

>  <COMMON_NAME>
2-[N'-(4-AMINO-BUTYL)-HYDRAZINOCARBONYL]-PYRROLIDINE-1-CARBOXYLIC ACID BENZYL ESTER

$$$$
