
 OpenBabel10282417072D

 52 54  0  0  0  0  0  0  0  0999 V2000
    0.0354    0.2268    0.0000 In  0  1  0  0  0  0  0  0  0  0  0  0
   -0.8735   -0.7630    0.0000 O   0  5  0  0  0  0  0  0  0  0  0  0
    0.1591    1.2580    0.0000 O   0  5  0  0  0  0  0  0  0  0  0  0
    1.5187   -0.4331    0.0000 O   0  5  0  0  0  0  0  0  0  0  0  0
   -0.8736    0.8868    0.0000 N   0  0  0  0  0  0  0  0  0  0  0  0
    1.5880    0.4331    0.0000 N   0  0  0  0  0  0  0  0  0  0  0  0
    0.0898   -1.2580    0.0000 N   0  0  0  0  0  0  0  0  0  0  0  0
   -1.5880    0.4743    0.0000 C   0  0  0  0  0  0  0  0  0  0  0  0
    1.5880    1.2580    0.0000 C   0  0  0  0  0  0  0  0  0  0  0  0
    0.8043   -1.6705    0.0000 C   0  0  0  0  0  0  0  0  0  0  0  0
   -2.3025    0.8868    0.0000 C   0  0  0  0  0  0  0  0  0  0  0  0
    2.3025    1.6705    0.0000 C   0  0  0  0  0  0  0  0  0  0  0  0
    0.8043   -2.4955    0.0000 C   0  0  0  0  0  0  0  0  0  0  0  0
   -1.5880   -0.3506    0.0000 C   0  0  0  0  0  0  0  0  0  0  0  0
    0.8736    1.6705    0.0000 C   0  0  0  0  0  0  0  0  0  0  0  0
    1.5187   -1.2580    0.0000 C   0  0  0  0  0  0  0  0  0  0  0  0
   -3.0169    0.4743    0.0000 C   0  0  0  0  0  0  0  0  0  0  0  0
    2.3025    2.4955    0.0000 C   0  0  0  0  0  0  0  0  0  0  0  0
    1.5187   -2.9080    0.0000 C   0  0  0  0  0  0  0  0  0  0  0  0
   -2.3025    1.7118    0.0000 C   0  0  0  0  0  0  0  0  0  0  0  0
    3.0169    1.2580    0.0000 C   0  0  0  0  0  0  0  0  0  0  0  0
    0.0898   -2.9080    0.0000 C   0  0  0  0  0  0  0  0  0  0  0  0
   -2.3025   -0.7630    0.0000 C   0  0  0  0  0  0  0  0  0  0  0  0
    0.8736    2.4955    0.0000 C   0  0  0  0  0  0  0  0  0  0  0  0
    2.2332   -1.6705    0.0000 C   0  0  0  0  0  0  0  0  0  0  0  0
   -3.0169   -0.3506    0.0000 C   0  0  0  0  0  0  0  0  0  0  0  0
    1.5880    2.9080    0.0000 C   0  0  0  0  0  0  0  0  0  0  0  0
    2.2332   -2.4955    0.0000 C   0  0  0  0  0  0  0  0  0  0  0  0
   -0.8736    1.7118    0.0000 C   0  0  0  0  0  0  0  0  0  0  0  0
    2.3025    0.0206    0.0000 C   0  0  0  0  0  0  0  0  0  0  0  0
   -0.6245   -1.6705    0.0000 C   0  0  0  0  0  0  0  0  0  0  0  0
   -1.5880    2.1242    0.0000 C   0  0  0  0  0  0  0  0  0  0  0  0
    3.0169    0.4331    0.0000 C   0  0  0  0  0  0  0  0  0  0  0  0
   -0.6245   -2.4955    0.0000 C   0  0  0  0  0  0  0  0  0  0  0  0
   -3.9106    0.9903    0.0000 H   0  0  0  0  0  0  0  0  0  0  0  0
    3.1962    3.0115    0.0000 H   0  0  0  0  0  0  0  0  0  0  0  0
    1.5187   -3.9400    0.0000 H   0  0  0  0  0  0  0  0  0  0  0  0
   -3.1962    2.2279    0.0000 H   0  0  0  0  0  0  0  0  0  0  0  0
    3.9106    1.7740    0.0000 H   0  0  0  0  0  0  0  0  0  0  0  0
    0.0897   -3.9400    0.0000 H   0  0  0  0  0  0  0  0  0  0  0  0
   -2.3025   -1.7950    0.0000 H   0  0  0  0  0  0  0  0  0  0  0  0
   -0.0201    3.0115    0.0000 H   0  0  0  0  0  0  0  0  0  0  0  0
    3.1269   -1.1545    0.0000 H   0  0  0  0  0  0  0  0  0  0  0  0
   -3.9106   -0.8666    0.0000 H   0  0  0  0  0  0  0  0  0  0  0  0
    1.5880    3.9400    0.0000 H   0  0  0  0  0  0  0  0  0  0  0  0
    3.1269   -3.0115    0.0000 H   0  0  0  0  0  0  0  0  0  0  0  0
    0.0201    2.2278    0.0000 H   0  0  0  0  0  0  0  0  0  0  0  0
    2.3025   -1.0114    0.0000 H   0  0  0  0  0  0  0  0  0  0  0  0
   -1.5183   -1.1545    0.0000 H   0  0  0  0  0  0  0  0  0  0  0  0
   -1.5880    3.1562    0.0000 H   0  0  0  0  0  0  0  0  0  0  0  0
    3.9106   -0.0829    0.0000 H   0  0  0  0  0  0  0  0  0  0  0  0
   -1.5183   -3.0115    0.0000 H   0  0  0  0  0  0  0  0  0  0  0  0
  2 14  1  0  0  0  0
  3 15  1  0  0  0  0
  4 16  1  0  0  0  0
  5  8  1  0  0  0  0
  5 29  2  0  0  0  0
  6  9  1  0  0  0  0
  6 30  2  0  0  0  0
  7 10  1  0  0  0  0
  7 31  2  0  0  0  0
  8 11  2  0  0  0  0
  8 14  1  0  0  0  0
  9 12  2  0  0  0  0
  9 15  1  0  0  0  0
 10 13  2  0  0  0  0
 10 16  1  0  0  0  0
 11 17  1  0  0  0  0
 11 20  1  0  0  0  0
 12 18  1  0  0  0  0
 12 21  1  0  0  0  0
 13 19  1  0  0  0  0
 13 22  1  0  0  0  0
 14 23  2  0  0  0  0
 15 24  2  0  0  0  0
 16 25  2  0  0  0  0
 17 26  2  0  0  0  0
 17 35  1  0  0  0  0
 18 27  2  0  0  0  0
 18 36  1  0  0  0  0
 19 28  2  0  0  0  0
 19 37  1  0  0  0  0
 20 32  2  0  0  0  0
 20 38  1  0  0  0  0
 21 33  2  0  0  0  0
 21 39  1  0  0  0  0
 22 34  2  0  0  0  0
 22 40  1  0  0  0  0
 23 26  1  0  0  0  0
 23 41  1  0  0  0  0
 24 27  1  0  0  0  0
 24 42  1  0  0  0  0
 25 28  1  0  0  0  0
 25 43  1  0  0  0  0
 26 44  1  0  0  0  0
 27 45  1  0  0  0  0
 28 46  1  0  0  0  0
 29 32  1  0  0  0  0
 29 47  1  0  0  0  0
 30 33  1  0  0  0  0
 30 48  1  0  0  0  0
 31 34  1  0  0  0  0
 31 49  1  0  0  0  0
 32 50  1  0  0  0  0
 33 51  1  0  0  0  0
 34 52  1  0  0  0  0
M  ISO  1   1 111
M  CHG  4   1   3   2  -1   3  -1   4  -1
M  END
>  <DRUGBANK_ID>
DB09473

>  <COMMON_NAME>
Indium In-111 oxyquinoline

>  <CAS_NUMBER>
65389-08-4

>  <UNII>
LGX9OL562T

>  <SYNONYMS>
In-111 oxyquinoline; Indium (111 In) oxyquinoline; Indium (In111) oxine; Indium (In111) oxyquinoline; Indium 111In oxyquinoline; Indium In-111 oxine; Indium In111 oxine; Indium-111 oxine; Indium-111 oxyquinoline

$$$$
