
 OpenBabel10282417072D

 65 67  0  0  0  0  0  0  0  0999 V2000
    0.4164   -0.3087    0.0000 O   0  0  0  0  0  0  0  0  0  0  0  0
    0.4230    0.5162    0.0000 C   0  0  1  0  0  0  0  0  0  0  0  0
   -0.2882    0.9342    0.0000 C   0  0  1  0  0  0  0  0  0  0  0  0
    1.1406    0.9230    0.0000 C   0  0  2  0  0  0  0  0  0  0  0  0
   -0.2817    1.7593    0.0000 C   0  0  2  0  0  0  0  0  0  0  0  0
    1.1471    1.7479    0.0000 C   0  0  1  0  0  0  0  0  0  0  0  0
    0.4359    2.1661    0.0000 C   0  0  0  0  0  0  0  0  0  0  0  0
    1.8518    0.5048    0.0000 O   0  0  0  0  0  0  0  0  0  0  0  0
    1.8648    2.1549    0.0000 N   0  0  0  0  0  0  0  0  0  0  0  0
   -0.9930    2.1773    0.0000 N   0  0  0  0  0  0  0  0  0  0  0  0
   -1.0035    0.5231    0.0000 O   0  0  0  0  0  0  0  0  0  0  0  0
   -1.7144    0.1044    0.0000 C   0  0  2  0  0  0  0  0  0  0  0  0
   -1.7072   -0.7205    0.0000 C   0  0  1  0  0  0  0  0  0  0  0  0
   -2.4324    0.5105    0.0000 O   0  0  0  0  0  0  0  0  0  0  0  0
   -2.4179   -1.1393    0.0000 C   0  0  2  0  0  0  0  0  0  0  0  0
   -3.1433    0.0917    0.0000 C   0  0  1  0  0  0  0  0  0  0  0  0
   -3.1361   -0.7331    0.0000 C   0  0  1  0  0  0  0  0  0  0  0  0
   -3.8614    0.4980    0.0000 C   0  0  0  0  0  0  0  0  0  0  0  0
   -3.8685    1.3230    0.0000 N   0  0  0  0  0  0  0  0  0  0  0  0
   -3.8469   -1.1519    0.0000 O   0  0  0  0  0  0  0  0  0  0  0  0
   -2.4107   -1.9642    0.0000 O   0  0  0  0  0  0  0  0  0  0  0  0
   -0.9892   -1.1267    0.0000 N   0  0  0  0  0  0  0  0  0  0  0  0
    1.1359   -0.7252    0.0000 C   0  0  2  0  0  0  0  0  0  0  0  0
    2.4708   -0.7252    0.0000 C   0  0  1  0  0  0  0  0  0  0  0  0
    1.8034   -0.2402    0.0000 O   0  0  0  0  0  0  0  0  0  0  0  0
    2.2159   -1.5099    0.0000 C   0  0  2  0  0  0  0  0  0  0  0  0
    1.3909   -1.5099    0.0000 C   0  0  1  0  0  0  0  0  0  0  0  0
    0.9059   -2.1772    0.0000 O   0  0  0  0  0  0  0  0  0  0  0  0
    2.7008   -2.1773    0.0000 O   0  0  0  0  0  0  0  0  0  0  0  0
    3.2555   -0.4702    0.0000 C   0  0  0  0  0  0  0  0  0  0  0  0
    3.8685   -1.0222    0.0000 O   0  0  0  0  0  0  0  0  0  0  0  0
    0.5495   -1.3116    0.0000 H   0  0  0  0  0  0  0  0  0  0  0  0
   -0.5078   -0.0115    0.0000 H   0  0  0  0  0  0  0  0  0  0  0  0
   -0.2934   -0.1358    0.0000 H   0  0  0  0  0  0  0  0  0  0  0  0
    1.1321   -0.1470    0.0000 H   0  0  0  0  0  0  0  0  0  0  0  0
   -1.2125    1.2315    0.0000 H   0  0  0  0  0  0  0  0  0  0  0  0
    2.0695    1.2057    0.0000 H   0  0  0  0  0  0  0  0  0  0  0  0
    0.4444    3.2361    0.0000 H   0  0  0  0  0  0  0  0  0  0  0  0
    1.3668    2.6937    0.0000 H   0  0  0  0  0  0  0  0  0  0  0  0
    1.8441   -0.4652    0.0000 H   0  0  0  0  0  0  0  0  0  0  0  0
    2.7442    1.6381    0.0000 H   0  0  0  0  0  0  0  0  0  0  0  0
    1.8727    3.1749    0.0000 H   0  0  0  0  0  0  0  0  0  0  0  0
   -0.9852    3.1973    0.0000 H   0  0  0  0  0  0  0  0  0  0  0  0
   -1.8802    1.6741    0.0000 H   0  0  0  0  0  0  0  0  0  0  0  0
   -0.7831   -0.4225    0.0000 H   0  0  0  0  0  0  0  0  0  0  0  0
   -0.7853   -0.1774    0.0000 H   0  0  0  0  0  0  0  0  0  0  0  0
   -1.4866   -1.6661    0.0000 H   0  0  0  0  0  0  0  0  0  0  0  0
   -3.1527    1.1617    0.0000 H   0  0  0  0  0  0  0  0  0  0  0  0
   -3.1266   -1.8031    0.0000 H   0  0  0  0  0  0  0  0  0  0  0  0
   -4.7834   -0.0450    0.0000 H   0  0  0  0  0  0  0  0  0  0  0  0
   -4.7926    1.0250    0.0000 H   0  0  0  0  0  0  0  0  0  0  0  0
   -2.9896    1.8406    0.0000 H   0  0  0  0  0  0  0  0  0  0  0  0
   -4.7562    1.8254    0.0000 H   0  0  0  0  0  0  0  0  0  0  0  0
   -4.6912   -0.6743    0.0000 H   0  0  0  0  0  0  0  0  0  0  0  0
   -3.2465   -2.4565    0.0000 H   0  0  0  0  0  0  0  0  0  0  0  0
   -0.9803   -2.1467    0.0000 H   0  0  0  0  0  0  0  0  0  0  0  0
   -0.1104   -0.6090    0.0000 H   0  0  0  0  0  0  0  0  0  0  0  0
    2.6382    0.3316    0.0000 H   0  0  0  0  0  0  0  0  0  0  0  0
    3.2727   -1.3425    0.0000 H   0  0  0  0  0  0  0  0  0  0  0  0
    1.8766   -2.4633    0.0000 H   0  0  0  0  0  0  0  0  0  0  0  0
   -0.0588   -2.0756    0.0000 H   0  0  0  0  0  0  0  0  0  0  0  0
    2.3063   -3.0634    0.0000 H   0  0  0  0  0  0  0  0  0  0  0  0
    3.4780    0.5764    0.0000 H   0  0  0  0  0  0  0  0  0  0  0  0
    4.2731   -0.1396    0.0000 H   0  0  0  0  0  0  0  0  0  0  0  0
    3.6668   -1.9710    0.0000 H   0  0  0  0  0  0  0  0  0  0  0  0
  1 23  1  0  0  0  0
  2  1  1  0  0  0  0
  2 33  1  6  0  0  0
  3  2  1  0  0  0  0
  3 11  1  0  0  0  0
  3 34  1  1  0  0  0
  4  2  1  0  0  0  0
  4  8  1  0  0  0  0
  4 35  1  1  0  0  0
  5  3  1  0  0  0  0
  5 10  1  0  0  0  0
  5 36  1  6  0  0  0
  6  4  1  0  0  0  0
  6  9  1  0  0  0  0
  6 37  1  6  0  0  0
  7  5  1  0  0  0  0
  7  6  1  0  0  0  0
  7 38  1  0  0  0  0
  7 39  1  0  0  0  0
  8 40  1  0  0  0  0
  9 41  1  0  0  0  0
  9 42  1  0  0  0  0
 10 43  1  0  0  0  0
 10 44  1  0  0  0  0
 12 11  1  0  0  0  0
 12 45  1  1  0  0  0
 13 12  1  0  0  0  0
 13 22  1  0  0  0  0
 13 46  1  1  0  0  0
 14 12  1  0  0  0  0
 15 13  1  0  0  0  0
 15 21  1  0  0  0  0
 15 47  1  6  0  0  0
 16 14  1  0  0  0  0
 16 18  1  0  0  0  0
 16 48  1  6  0  0  0
 17 15  1  0  0  0  0
 17 16  1  0  0  0  0
 17 20  1  0  0  0  0
 17 49  1  1  0  0  0
 18 50  1  0  0  0  0
 18 51  1  0  0  0  0
 19 18  1  0  0  0  0
 19 52  1  0  0  0  0
 19 53  1  0  0  0  0
 20 54  1  0  0  0  0
 21 55  1  0  0  0  0
 22 56  1  0  0  0  0
 22 57  1  0  0  0  0
 23 25  1  0  0  0  0
 23 32  1  1  0  0  0
 24 30  1  0  0  0  0
 24 58  1  1  0  0  0
 25 24  1  0  0  0  0
 26 24  1  0  0  0  0
 26 29  1  0  0  0  0
 26 59  1  6  0  0  0
 27 26  1  0  0  0  0
 27 23  1  0  0  0  0
 27 28  1  0  0  0  0
 27 60  1  6  0  0  0
 28 61  1  0  0  0  0
 29 62  1  0  0  0  0
 30 63  1  0  0  0  0
 30 64  1  0  0  0  0
 31 30  1  0  0  0  0
 31 65  1  0  0  0  0
M  END
>  <DRUGBANK_ID>
DB03615

>  <SECONDARY_ACCESSION_NUMBERS>
EXPT02786

>  <COMMON_NAME>
Ribostamycin

>  <CAS_NUMBER>
25546-65-0

>  <UNII>
2Q5JOU7T53

>  <SYNONYMS>
Ribostamicina; Ribostamycin; Ribostamycin A; Ribostamycine; Ribostamycinum; Vistamycin

$$$$
