
 OpenBabel10282417072D

 44 46  0  0  0  0  0  0  0  0999 V2000
   -1.4289    1.6500    0.0000 C   0  0  0  0  0  0  0  0  0  0  0  0
    0.7144    0.4125    0.0000 C   0  0  0  0  0  0  0  0  0  0  0  0
    0.0000    1.6500    0.0000 C   0  0  0  0  0  0  0  0  0  0  0  0
   -2.1434    2.8875    0.0000 C   0  0  0  0  0  0  0  0  0  0  0  0
   -2.8578    3.3000    0.0000 C   0  0  0  0  0  0  0  0  0  0  0  0
   -2.1434    2.0625    0.0000 C   0  0  0  0  0  0  0  0  0  0  0  0
   -3.5723    2.8875    0.0000 C   0  0  0  0  0  0  0  0  0  0  0  0
   -5.0012   -0.4125    0.0000 C   0  0  0  0  0  0  0  0  0  0  0  0
   -5.0012    0.4125    0.0000 C   0  0  0  0  0  0  0  0  0  0  0  0
   -3.5723   -0.4125    0.0000 C   0  0  0  0  0  0  0  0  0  0  0  0
   -4.2868   -1.6500    0.0000 C   0  0  0  0  0  0  0  0  0  0  0  0
   -0.7144    0.4125    0.0000 C   0  0  0  0  0  0  0  0  0  0  0  0
   -2.1434    0.4125    0.0000 C   0  0  0  0  0  0  0  0  0  0  0  0
   -1.4289    0.8250    0.0000 C   0  0  3  0  0  0  0  0  0  0  0  0
   -4.2868   -0.8250    0.0000 C   0  0  0  0  0  0  0  0  0  0  0  0
   -2.8578    1.6500    0.0000 C   0  0  0  0  0  0  0  0  0  0  0  0
   -3.5723    0.4125    0.0000 C   0  0  0  0  0  0  0  0  0  0  0  0
   -3.5723    2.0625    0.0000 C   0  0  0  0  0  0  0  0  0  0  0  0
   -4.2868    0.8250    0.0000 C   0  0  0  0  0  0  0  0  0  0  0  0
   -4.2868   -2.4750    0.0000 N   0  0  0  0  0  0  0  0  0  0  0  0
    0.0000    0.8250    0.0000 N   0  0  0  0  0  0  0  0  0  0  0  0
   -2.8578    0.8250    0.0000 N   0  0  0  0  0  0  0  0  0  0  0  0
   -4.2868    1.6500    0.0000 S   0  0  0  0  0  0  0  0  0  0  0  0
   -0.5023    2.1850    0.0000 H   0  0  0  0  0  0  0  0  0  0  0  0
   -2.3555    2.1850    0.0000 H   0  0  0  0  0  0  0  0  0  0  0  0
   -1.4289    2.7200    0.0000 H   0  0  0  0  0  0  0  0  0  0  0  0
    0.7144   -0.6575    0.0000 H   0  0  0  0  0  0  0  0  0  0  0  0
    1.6411    0.9475    0.0000 H   0  0  0  0  0  0  0  0  0  0  0  0
    1.6410   -0.1225    0.0000 H   0  0  0  0  0  0  0  0  0  0  0  0
    0.9266    2.1850    0.0000 H   0  0  0  0  0  0  0  0  0  0  0  0
   -0.9266    2.1850    0.0000 H   0  0  0  0  0  0  0  0  0  0  0  0
   -0.0000    2.7200    0.0000 H   0  0  0  0  0  0  0  0  0  0  0  0
   -1.2497    3.4035    0.0000 H   0  0  0  0  0  0  0  0  0  0  0  0
   -2.8578    4.3320    0.0000 H   0  0  0  0  0  0  0  0  0  0  0  0
   -1.2497    1.5465    0.0000 H   0  0  0  0  0  0  0  0  0  0  0  0
   -4.4660    3.4035    0.0000 H   0  0  0  0  0  0  0  0  0  0  0  0
   -5.8949   -0.9285    0.0000 H   0  0  0  0  0  0  0  0  0  0  0  0
   -5.8949    0.9285    0.0000 H   0  0  0  0  0  0  0  0  0  0  0  0
   -2.6786   -0.9285    0.0000 H   0  0  0  0  0  0  0  0  0  0  0  0
   -0.7144   -0.6575    0.0000 H   0  0  0  0  0  0  0  0  0  0  0  0
    0.2123   -0.1225    0.0000 H   0  0  0  0  0  0  0  0  0  0  0  0
   -2.1434   -0.6575    0.0000 H   0  0  0  0  0  0  0  0  0  0  0  0
   -3.0701   -0.1225    0.0000 H   0  0  0  0  0  0  0  0  0  0  0  0
   -0.5023    1.3600    0.0000 H   0  0  0  0  0  0  0  0  0  0  0  0
  1 24  1  0  0  0  0
  1 25  1  0  0  0  0
  1 26  1  0  0  0  0
  2 27  1  0  0  0  0
  2 28  1  0  0  0  0
  2 29  1  0  0  0  0
  3 30  1  0  0  0  0
  3 31  1  0  0  0  0
  3 32  1  0  0  0  0
  4 33  1  0  0  0  0
  5  4  2  0  0  0  0
  5 34  1  0  0  0  0
  6  4  1  0  0  0  0
  6 35  1  0  0  0  0
  7  5  1  0  0  0  0
  7 36  1  0  0  0  0
  8 37  1  0  0  0  0
  9  8  2  0  0  0  0
  9 38  1  0  0  0  0
 10 39  1  0  0  0  0
 12 40  1  0  0  0  0
 12 41  1  0  0  0  0
 13 42  1  0  0  0  0
 13 43  1  0  0  0  0
 14  1  1  0  0  0  0
 14 12  1  0  0  0  0
 14 13  1  0  0  0  0
 14 44  1  0  0  0  0
 15  8  1  0  0  0  0
 15 10  2  0  0  0  0
 15 11  1  0  0  0  0
 16  6  2  0  0  0  0
 17 10  1  0  0  0  0
 18  7  2  0  0  0  0
 18 16  1  0  0  0  0
 19  9  1  0  0  0  0
 19 17  2  0  0  0  0
 20 11  3  0  0  0  0
 21  2  1  0  0  0  0
 21  3  1  0  0  0  0
 21 12  1  0  0  0  0
 22 13  1  0  0  0  0
 22 16  1  0  0  0  0
 22 17  1  0  0  0  0
 23 18  1  0  0  0  0
 23 19  1  0  0  0  0
M  END
>  <DRUGBANK_ID>
DB09000

>  <COMMON_NAME>
Cyamemazine

>  <CAS_NUMBER>
3546-03-0

>  <UNII>
A2JGV5CNU4

>  <SYNONYMS>
Cyamemazine

$$$$
