
 OpenBabel10282417072D

106111  0  0  0  0  0  0  0  0999 V2000
    2.5411   -0.2563    0.0000 O   0  0  0  0  0  0  0  0  0  0  0  0
    2.9119    0.4853    0.0000 C   0  0  0  0  0  0  0  0  0  0  0  0
    3.7299    0.5507    0.0000 O   0  0  0  0  0  0  0  0  0  0  0  0
    2.4429    1.1724    0.0000 C   0  0  1  0  0  0  0  0  0  0  0  0
    2.2466    1.9685    0.0000 C   0  0  0  0  0  0  0  0  0  0  0  0
    3.0428    1.7504    0.0000 C   0  0  1  0  0  0  0  0  0  0  0  0
    3.8389    1.9467    0.0000 C   0  0  0  0  0  0  0  0  0  0  0  0
    4.0680    2.7429    0.0000 C   0  0  0  0  0  0  0  0  0  0  0  0
    1.6904    0.8342    0.0000 N   0  0  0  0  0  0  0  0  0  0  0  0
    1.0251    1.3250    0.0000 C   0  0  0  0  0  0  0  0  0  0  0  0
    1.1124    2.1430    0.0000 O   0  0  0  0  0  0  0  0  0  0  0  0
    0.2726    0.9870    0.0000 C   0  0  2  0  0  0  0  0  0  0  0  0
    0.0981    0.1799    0.0000 C   0  0  0  0  0  0  0  0  0  0  0  0
   -0.7198    0.0927    0.0000 C   0  0  2  0  0  0  0  0  0  0  0  0
   -1.0579    0.8452    0.0000 C   0  0  0  0  0  0  0  0  0  0  0  0
   -0.4472    1.4014    0.0000 N   0  0  0  0  0  0  0  0  0  0  0  0
   -0.5343    2.2194    0.0000 C   0  0  0  0  0  0  0  0  0  0  0  0
    0.1417    2.6992    0.0000 O   0  0  0  0  0  0  0  0  0  0  0  0
   -1.2869    2.5575    0.0000 C   0  0  2  0  0  0  0  0  0  0  0  0
   -1.3741    3.3755    0.0000 C   0  0  0  0  0  0  0  0  0  0  0  0
   -0.6980    3.8553    0.0000 C   0  0  0  0  0  0  0  0  0  0  0  0
   -2.1266    3.7136    0.0000 C   0  0  0  0  0  0  0  0  0  0  0  0
   -1.4505    4.1934    0.0000 C   0  0  0  0  0  0  0  0  0  0  0  0
   -1.9522    2.0667    0.0000 N   0  0  0  0  0  0  0  0  0  0  0  0
   -2.7048    2.4048    0.0000 C   0  0  0  0  0  0  0  0  0  0  0  0
   -2.7920    3.2227    0.0000 O   0  0  0  0  0  0  0  0  0  0  0  0
   -3.3699    1.9249    0.0000 O   0  0  0  0  0  0  0  0  0  0  0  0
   -4.1225    2.2522    0.0000 C   0  0  0  0  0  0  0  0  0  0  0  0
   -4.2971    3.0592    0.0000 C   0  0  0  0  0  0  0  0  0  0  0  0
   -5.1150    3.1464    0.0000 C   0  0  0  0  0  0  0  0  0  0  0  0
   -5.4531    2.3939    0.0000 C   0  0  0  0  0  0  0  0  0  0  0  0
   -4.8423    1.8486    0.0000 C   0  0  0  0  0  0  0  0  0  0  0  0
   -1.1342   -0.6161    0.0000 O   0  0  0  0  0  0  0  0  0  0  0  0
   -0.7198   -1.3360    0.0000 C   0  0  0  0  0  0  0  0  0  0  0  0
    0.1090   -1.3360    0.0000 C   0  0  0  0  0  0  0  0  0  0  0  0
    0.5125   -2.0449    0.0000 C   0  0  0  0  0  0  0  0  0  0  0  0
    0.1090   -2.7648    0.0000 N   0  0  0  0  0  0  0  0  0  0  0  0
   -0.7198   -2.7648    0.0000 C   0  0  0  0  0  0  0  0  0  0  0  0
   -1.1342   -2.0449    0.0000 C   0  0  0  0  0  0  0  0  0  0  0  0
   -1.9631   -2.0449    0.0000 C   0  0  0  0  0  0  0  0  0  0  0  0
   -2.3666   -2.7648    0.0000 C   0  0  0  0  0  0  0  0  0  0  0  0
   -1.9631   -3.4737    0.0000 C   0  0  0  0  0  0  0  0  0  0  0  0
   -1.1342   -3.4737    0.0000 C   0  0  0  0  0  0  0  0  0  0  0  0
   -0.7198   -4.1934    0.0000 Br  0  0  0  0  0  0  0  0  0  0  0  0
   -2.3666   -4.1934    0.0000 O   0  0  0  0  0  0  0  0  0  0  0  0
   -3.1955   -4.1934    0.0000 C   0  0  0  0  0  0  0  0  0  0  0  0
    1.3414   -2.0449    0.0000 C   0  0  0  0  0  0  0  0  0  0  0  0
    1.8213   -1.3796    0.0000 C   0  0  0  0  0  0  0  0  0  0  0  0
    2.6066   -1.6414    0.0000 S   0  0  0  0  0  0  0  0  0  0  0  0
    2.6066   -2.4593    0.0000 C   0  0  0  0  0  0  0  0  0  0  0  0
    1.8213   -2.7210    0.0000 N   0  0  0  0  0  0  0  0  0  0  0  0
    3.2827   -2.9501    0.0000 N   0  0  0  0  0  0  0  0  0  0  0  0
    4.0352   -2.6121    0.0000 C   0  0  0  0  0  0  0  0  0  0  0  0
    4.1226   -1.7940    0.0000 O   0  0  0  0  0  0  0  0  0  0  0  0
    4.7006   -3.0919    0.0000 C   0  0  0  0  0  0  0  0  0  0  0  0
    5.4531   -2.7648    0.0000 C   0  0  0  0  0  0  0  0  0  0  0  0
    4.6134   -3.9208    0.0000 C   0  0  0  0  0  0  0  0  0  0  0  0
    1.6058   -0.3124    0.0000 H   0  0  0  0  0  0  0  0  0  0  0  0
    1.4997    2.7347    0.0000 H   0  0  0  0  0  0  0  0  0  0  0  0
    2.7901    2.8902    0.0000 H   0  0  0  0  0  0  0  0  0  0  0  0
    3.5598    0.8136    0.0000 H   0  0  0  0  0  0  0  0  0  0  0  0
    4.5545    1.2031    0.0000 H   0  0  0  0  0  0  0  0  0  0  0  0
    5.0696    2.9916    0.0000 H   0  0  0  0  0  0  0  0  0  0  0  0
    3.3518    3.4859    0.0000 H   0  0  0  0  0  0  0  0  0  0  0  0
    1.5856   -0.1447    0.0000 H   0  0  0  0  0  0  0  0  0  0  0  0
    1.1041    0.3135    0.0000 H   0  0  0  0  0  0  0  0  0  0  0  0
    0.8133   -0.6160    0.0000 H   0  0  0  0  0  0  0  0  0  0  0  0
   -0.2851   -0.8191    0.0000 H   0  0  0  0  0  0  0  0  0  0  0  0
   -0.1388   -0.8058    0.0000 H   0  0  0  0  0  0  0  0  0  0  0  0
   -2.1055    1.0629    0.0000 H   0  0  0  0  0  0  0  0  0  0  0  0
   -1.3401    1.8773    0.0000 H   0  0  0  0  0  0  0  0  0  0  0  0
   -0.4207    3.1856    0.0000 H   0  0  0  0  0  0  0  0  0  0  0  0
    0.2746    3.4092    0.0000 H   0  0  0  0  0  0  0  0  0  0  0  0
   -0.7980    4.9206    0.0000 H   0  0  0  0  0  0  0  0  0  0  0  0
    0.1746    4.4745    0.0000 H   0  0  0  0  0  0  0  0  0  0  0  0
   -2.2348    4.7781    0.0000 H   0  0  0  0  0  0  0  0  0  0  0  0
   -2.9944    3.0876    0.0000 H   0  0  0  0  0  0  0  0  0  0  0  0
   -3.1026    4.1521    0.0000 H   0  0  0  0  0  0  0  0  0  0  0  0
   -0.5776    4.8123    0.0000 H   0  0  0  0  0  0  0  0  0  0  0  0
   -2.4229    4.6399    0.0000 H   0  0  0  0  0  0  0  0  0  0  0  0
   -1.5500    5.2588    0.0000 H   0  0  0  0  0  0  0  0  0  0  0  0
   -1.8474    1.0878    0.0000 H   0  0  0  0  0  0  0  0  0  0  0  0
   -5.0980    2.6918    0.0000 H   0  0  0  0  0  0  0  0  0  0  0  0
   -3.5820    3.8551    0.0000 H   0  0  0  0  0  0  0  0  0  0  0  0
   -4.6803    4.0582    0.0000 H   0  0  0  0  0  0  0  0  0  0  0  0
   -5.6477    4.0744    0.0000 H   0  0  0  0  0  0  0  0  0  0  0  0
   -6.1837    3.0935    0.0000 H   0  0  0  0  0  0  0  0  0  0  0  0
   -6.4996    2.1710    0.0000 H   0  0  0  0  0  0  0  0  0  0  0  0
   -5.7276    1.3597    0.0000 H   0  0  0  0  0  0  0  0  0  0  0  0
   -4.9586    0.7849    0.0000 H   0  0  0  0  0  0  0  0  0  0  0  0
   -5.8412    1.4651    0.0000 H   0  0  0  0  0  0  0  0  0  0  0  0
    0.6277   -0.4439    0.0000 H   0  0  0  0  0  0  0  0  0  0  0  0
   -2.4848   -1.1545    0.0000 H   0  0  0  0  0  0  0  0  0  0  0  0
   -3.3986   -2.7682    0.0000 H   0  0  0  0  0  0  0  0  0  0  0  0
   -3.7305   -3.2668    0.0000 H   0  0  0  0  0  0  0  0  0  0  0  0
   -3.7305   -5.1200    0.0000 H   0  0  0  0  0  0  0  0  0  0  0  0
   -4.2655   -4.1934    0.0000 H   0  0  0  0  0  0  0  0  0  0  0  0
    1.5045   -0.3974    0.0000 H   0  0  0  0  0  0  0  0  0  0  0  0
    3.1816   -3.9294    0.0000 H   0  0  0  0  0  0  0  0  0  0  0  0
    5.5634   -3.7247    0.0000 H   0  0  0  0  0  0  0  0  0  0  0  0
    6.3132   -3.4014    0.0000 H   0  0  0  0  0  0  0  0  0  0  0  0
    5.5743   -1.7017    0.0000 H   0  0  0  0  0  0  0  0  0  0  0  0
    6.4344   -2.3382    0.0000 H   0  0  0  0  0  0  0  0  0  0  0  0
    3.6359   -4.3559    0.0000 H   0  0  0  0  0  0  0  0  0  0  0  0
    5.4790   -4.5498    0.0000 H   0  0  0  0  0  0  0  0  0  0  0  0
    4.5015   -4.9849    0.0000 H   0  0  0  0  0  0  0  0  0  0  0  0
  1  2  1  0  0  0  0
  1 58  1  0  0  0  0
  2  3  2  0  0  0  0
  4  2  1  1  0  0  0
  4  5  1  0  0  0  0
  4  9  1  0  0  0  0
  4  6  1  0  0  0  0
  5  6  1  0  0  0  0
  5 59  1  0  0  0  0
  5 60  1  0  0  0  0
  6  7  1  0  0  0  0
  6 61  1  6  0  0  0
  7  8  2  0  0  0  0
  7 62  1  0  0  0  0
  8 63  1  0  0  0  0
  8 64  1  0  0  0  0
  9 10  1  0  0  0  0
  9 65  1  0  0  0  0
 10 11  2  0  0  0  0
 12 10  1  0  0  0  0
 12 13  1  0  0  0  0
 12 16  1  0  0  0  0
 12 66  1  1  0  0  0
 13 14  1  0  0  0  0
 13 67  1  0  0  0  0
 13 68  1  0  0  0  0
 14 33  1  0  0  0  0
 14 15  1  0  0  0  0
 14 69  1  6  0  0  0
 15 16  1  0  0  0  0
 15 70  1  0  0  0  0
 15 71  1  0  0  0  0
 16 17  1  0  0  0  0
 17 18  2  0  0  0  0
 17 19  1  0  0  0  0
 19 24  1  0  0  0  0
 19 20  1  0  0  0  0
 19 72  1  6  0  0  0
 20 21  1  0  0  0  0
 20 22  1  0  0  0  0
 20 23  1  0  0  0  0
 21 73  1  0  0  0  0
 21 74  1  0  0  0  0
 21 75  1  0  0  0  0
 22 76  1  0  0  0  0
 22 77  1  0  0  0  0
 22 78  1  0  0  0  0
 23 79  1  0  0  0  0
 23 80  1  0  0  0  0
 23 81  1  0  0  0  0
 24 25  1  0  0  0  0
 24 82  1  0  0  0  0
 25 27  1  0  0  0  0
 25 26  2  0  0  0  0
 27 28  1  0  0  0  0
 28 32  1  0  0  0  0
 28 29  1  0  0  0  0
 28 83  1  0  0  0  0
 29 30  1  0  0  0  0
 29 84  1  0  0  0  0
 29 85  1  0  0  0  0
 30 31  1  0  0  0  0
 30 86  1  0  0  0  0
 30 87  1  0  0  0  0
 31 32  1  0  0  0  0
 31 88  1  0  0  0  0
 31 89  1  0  0  0  0
 32 90  1  0  0  0  0
 32 91  1  0  0  0  0
 33 34  1  0  0  0  0
 34 35  2  0  0  0  0
 34 39  1  0  0  0  0
 35 36  1  0  0  0  0
 35 92  1  0  0  0  0
 36 37  2  0  0  0  0
 36 47  1  0  0  0  0
 37 38  1  0  0  0  0
 38 43  1  0  0  0  0
 38 39  2  0  0  0  0
 39 40  1  0  0  0  0
 40 41  2  0  0  0  0
 40 93  1  0  0  0  0
 41 42  1  0  0  0  0
 41 94  1  0  0  0  0
 42 43  2  0  0  0  0
 42 45  1  0  0  0  0
 43 44  1  0  0  0  0
 45 46  1  0  0  0  0
 46 95  1  0  0  0  0
 46 96  1  0  0  0  0
 46 97  1  0  0  0  0
 47 48  2  0  0  0  0
 47 51  1  0  0  0  0
 48 49  1  0  0  0  0
 48 98  1  0  0  0  0
 49 50  1  0  0  0  0
 50 51  2  0  0  0  0
 50 52  1  0  0  0  0
 52 53  1  0  0  0  0
 52 99  1  0  0  0  0
 53 54  2  0  0  0  0
 53 55  1  0  0  0  0
 55 57  1  0  0  0  0
 55 56  1  0  0  0  0
 55100  1  0  0  0  0
 56101  1  0  0  0  0
 56102  1  0  0  0  0
 56103  1  0  0  0  0
 57104  1  0  0  0  0
 57105  1  0  0  0  0
 57106  1  0  0  0  0
M  END
>  <DRUGBANK_ID>
DB11808

>  <COMMON_NAME>
Faldaprevir

>  <CAS_NUMBER>
801283-95-4

>  <UNII>
958X4J301A

>  <SYNONYMS>
Faldapr√©vir; Faldaprevir; Faldaprevirum

$$$$
