938
 OpenBabel10282417072D

 67 68  0  0  1  0  0  0  0  0999 V2000
    7.8089    1.9842    0.0000 O   0  0  0  0  0  0  0  0  0  0  0  0
    3.5220   -2.9659    0.0000 O   0  0  0  0  0  0  0  0  0  0  0  0
    4.2365   -6.6785    0.0000 O   0  0  0  0  0  0  0  0  0  0  0  0
    2.0930   -5.4410    0.0000 O   0  0  0  0  0  0  0  0  0  0  0  0
    4.9509   -2.1409    0.0000 N   0  0  0  0  0  0  0  0  0  0  0  0
    6.3799   -0.4909    0.0000 C   0  0  0  0  0  0  0  0  0  0  0  0
    6.3799    0.3341    0.0000 C   0  0  0  0  0  0  0  0  0  0  0  0
    5.6655   -0.9034    0.0000 C   0  0  0  0  0  0  0  0  0  0  0  0
    7.0944    0.7466    0.0000 C   0  0  0  0  0  0  0  0  0  0  0  0
    5.6655   -1.7284    0.0000 C   0  0  0  0  0  0  0  0  0  0  0  0
    4.9509   -2.9659    0.0000 C   0  0  0  0  0  0  0  0  0  0  0  0
    7.0944    1.5717    0.0000 C   0  0  0  0  0  0  0  0  0  0  0  0
    4.2365   -3.3784    0.0000 C   0  0  3  0  0  0  0  0  0  0  0  0
    8.5234    3.2217    0.0000 C   0  0  0  0  0  0  0  0  0  0  0  0
    8.5234    4.0467    0.0000 C   0  0  0  0  0  0  0  0  0  0  0  0
    7.8089    2.8092    0.0000 C   0  0  0  0  0  0  0  0  0  0  0  0
    4.2365   -4.2035    0.0000 C   0  0  0  0  0  0  0  0  0  0  0  0
    9.2379    4.4592    0.0000 C   0  0  0  0  0  0  0  0  0  0  0  0
    3.5220   -4.6160    0.0000 C   0  0  0  0  0  0  0  0  0  0  0  0
    9.2379    5.2842    0.0000 C   0  0  0  0  0  0  0  0  0  0  0  0
    4.9509   -4.6160    0.0000 C   0  0  0  0  0  0  0  0  0  0  0  0
    3.5220   -5.4410    0.0000 C   0  0  0  0  0  0  0  0  0  0  0  0
    4.9509   -5.4410    0.0000 C   0  0  0  0  0  0  0  0  0  0  0  0
    4.2365   -5.8535    0.0000 C   0  0  0  0  0  0  0  0  0  0  0  0
    8.5234    5.6968    0.0000 C   0  0  0  0  0  0  0  0  0  0  0  0
    9.9524    5.6968    0.0000 C   0  0  0  0  0  0  0  0  0  0  0  0
    2.8075   -5.8535    0.0000 C   0  0  0  0  0  0  0  0  0  0  0  0
    8.5234    6.5218    0.0000 C   0  0  0  0  0  0  0  0  0  0  0  0
    9.9524    6.5218    0.0000 C   0  0  0  0  0  0  0  0  0  0  0  0
    9.2379    6.9343    0.0000 C   0  0  0  0  0  0  0  0  0  0  0  0
    3.5220   -1.9959    0.0000 H   0  0  0  0  0  0  0  0  0  0  0  0
    3.4250   -7.1470    0.0000 H   0  0  0  0  0  0  0  0  0  0  0  0
    2.0930   -4.4710    0.0000 H   0  0  0  0  0  0  0  0  0  0  0  0
    4.0676   -1.6309    0.0000 H   0  0  0  0  0  0  0  0  0  0  0  0
    7.3066   -1.0259    0.0000 H   0  0  0  0  0  0  0  0  0  0  0  0
    6.3799   -1.5609    0.0000 H   0  0  0  0  0  0  0  0  0  0  0  0
    5.4533    0.8691    0.0000 H   0  0  0  0  0  0  0  0  0  0  0  0
    6.3799    1.4041    0.0000 H   0  0  0  0  0  0  0  0  0  0  0  0
    4.7388   -0.3684    0.0000 H   0  0  0  0  0  0  0  0  0  0  0  0
    4.7389   -1.4384    0.0000 H   0  0  0  0  0  0  0  0  0  0  0  0
    8.0210    0.2116    0.0000 H   0  0  0  0  0  0  0  0  0  0  0  0
    8.0210    1.2816    0.0000 H   0  0  0  0  0  0  0  0  0  0  0  0
    6.5921   -2.2634    0.0000 H   0  0  0  0  0  0  0  0  0  0  0  0
    6.5922   -1.1934    0.0000 H   0  0  0  0  0  0  0  0  0  0  0  0
    5.8776   -3.5009    0.0000 H   0  0  0  0  0  0  0  0  0  0  0  0
    4.9509   -4.0359    0.0000 H   0  0  0  0  0  0  0  0  0  0  0  0
    6.1678    2.1067    0.0000 H   0  0  0  0  0  0  0  0  0  0  0  0
    6.1678    1.0367    0.0000 H   0  0  0  0  0  0  0  0  0  0  0  0
    4.2365   -2.3084    0.0000 H   0  0  0  0  0  0  0  0  0  0  0  0
    9.4500    2.6867    0.0000 H   0  0  0  0  0  0  0  0  0  0  0  0
    8.5234    2.1517    0.0000 H   0  0  0  0  0  0  0  0  0  0  0  0
    7.5968    4.5817    0.0000 H   0  0  0  0  0  0  0  0  0  0  0  0
    8.5234    5.1167    0.0000 H   0  0  0  0  0  0  0  0  0  0  0  0
    6.8823    3.3442    0.0000 H   0  0  0  0  0  0  0  0  0  0  0  0
    7.8089    3.8792    0.0000 H   0  0  0  0  0  0  0  0  0  0  0  0
   10.1645    3.9242    0.0000 H   0  0  0  0  0  0  0  0  0  0  0  0
   10.1645    4.9942    0.0000 H   0  0  0  0  0  0  0  0  0  0  0  0
    2.6283   -4.1000    0.0000 H   0  0  0  0  0  0  0  0  0  0  0  0
    5.8446   -4.1000    0.0000 H   0  0  0  0  0  0  0  0  0  0  0  0
    5.8446   -5.9570    0.0000 H   0  0  0  0  0  0  0  0  0  0  0  0
    7.6296    5.1808    0.0000 H   0  0  0  0  0  0  0  0  0  0  0  0
   10.8462    5.1808    0.0000 H   0  0  0  0  0  0  0  0  0  0  0  0
    2.8075   -6.9235    0.0000 H   0  0  0  0  0  0  0  0  0  0  0  0
    3.7341   -6.3885    0.0000 H   0  0  0  0  0  0  0  0  0  0  0  0
    7.6297    7.0378    0.0000 H   0  0  0  0  0  0  0  0  0  0  0  0
   10.8461    7.0378    0.0000 H   0  0  0  0  0  0  0  0  0  0  0  0
    9.2379    7.9663    0.0000 H   0  0  0  0  0  0  0  0  0  0  0  0
  1 12  1  0  0  0  0
  1 16  1  0  0  0  0
  2 13  1  0  0  0  0
  2 31  1  0  0  0  0
  3 24  1  0  0  0  0
  3 32  1  0  0  0  0
  4 27  1  0  0  0  0
  4 33  1  0  0  0  0
  5 10  1  0  0  0  0
  5 11  1  0  0  0  0
  5 34  1  0  0  0  0
  6  7  1  0  0  0  0
  6  8  1  0  0  0  0
  6 35  1  0  0  0  0
  6 36  1  0  0  0  0
  7  9  1  0  0  0  0
  7 37  1  0  0  0  0
  7 38  1  0  0  0  0
  8 10  1  0  0  0  0
  8 39  1  0  0  0  0
  8 40  1  0  0  0  0
  9 12  1  0  0  0  0
  9 41  1  0  0  0  0
  9 42  1  0  0  0  0
 10 43  1  0  0  0  0
 10 44  1  0  0  0  0
 11 13  1  0  0  0  0
 11 45  1  0  0  0  0
 11 46  1  0  0  0  0
 12 47  1  0  0  0  0
 12 48  1  0  0  0  0
 13 17  1  0  0  0  0
 13 49  1  0  0  0  0
 14 15  1  0  0  0  0
 14 16  1  0  0  0  0
 14 50  1  0  0  0  0
 14 51  1  0  0  0  0
 15 18  1  0  0  0  0
 15 52  1  0  0  0  0
 15 53  1  0  0  0  0
 16 54  1  0  0  0  0
 16 55  1  0  0  0  0
 17 19  2  0  0  0  0
 17 21  1  0  0  0  0
 18 20  1  0  0  0  0
 18 56  1  0  0  0  0
 18 57  1  0  0  0  0
 19 22  1  0  0  0  0
 19 58  1  0  0  0  0
 20 25  2  0  0  0  0
 20 26  1  0  0  0  0
 21 23  2  0  0  0  0
 21 59  1  0  0  0  0
 22 24  2  0  0  0  0
 22 27  1  0  0  0  0
 23 24  1  0  0  0  0
 23 60  1  0  0  0  0
 25 28  1  0  0  0  0
 25 61  1  0  0  0  0
 26 29  2  0  0  0  0
 26 62  1  0  0  0  0
 27 63  1  0  0  0  0
 27 64  1  0  0  0  0
 28 30  2  0  0  0  0
 28 65  1  0  0  0  0
 29 30  1  0  0  0  0
 29 66  1  0  0  0  0
 30 67  1  0  0  0  0
M  END
>  <DRUGBANK_ID>
DB00938

>  <SECONDARY_ACCESSION_NUMBERS>
APRD00277

>  <COMMON_NAME>
Salmeterol

>  <CAS_NUMBER>
89365-50-4

>  <UNII>
2I4BC502BT

>  <SYNONYMS>
Salmaterol; Salmeterol; Salmeterolum

$$$$
