
 OpenBabel10282417072D

 62 64  0  0  0  0  0  0  0  0999 V2000
    1.3400   -2.2924    0.0000 C   0  0  0  0  0  0  0  0  0  0  0  0
    1.3585   -1.4647    0.0000 C   0  0  1  0  0  0  0  0  0  0  0  0
    0.6540   -1.0364    0.0000 C   0  0  1  0  0  0  0  0  0  0  0  0
    0.6167   -2.6963    0.0000 C   0  0  0  0  0  0  0  0  0  0  0  0
   -0.0906   -2.2604    0.0000 C   0  0  0  0  0  0  0  0  0  0  0  0
   -0.0739   -1.4325    0.0000 C   0  0  2  0  0  0  0  0  0  0  0  0
   -0.7792   -1.0058    0.0000 C   0  0  2  0  0  0  0  0  0  0  0  0
   -1.5047   -1.4035    0.0000 C   0  0  0  0  0  0  0  0  0  0  0  0
   -1.5214   -2.2313    0.0000 C   0  0  0  0  0  0  0  0  0  0  0  0
   -0.8129   -2.6612    0.0000 C   0  0  0  0  0  0  0  0  0  0  0  0
    2.0815   -1.0683    0.0000 C   0  0  0  0  0  0  0  0  0  0  0  0
   -0.0448   -0.6111    0.0000 H   0  0  0  0  0  0  0  0  0  0  0  0
   -0.7606   -0.1810    0.0000 O   0  0  0  0  0  0  0  0  0  0  0  0
   -1.4652    0.2472    0.0000 C   0  0  0  0  0  0  0  0  0  0  0  0
    0.6748   -0.2117    0.0000 C   0  0  0  0  0  0  0  0  0  0  0  0
    1.3990    0.1825    0.0000 C   0  0  0  0  0  0  0  0  0  0  0  0
    1.4198    1.0070    0.0000 C   0  0  2  0  0  0  0  0  0  0  0  0
    1.4651    2.6566    0.0000 C   0  0  0  0  0  0  0  0  0  0  0  0
    0.7387    2.2637    0.0000 C   0  0  1  0  0  0  0  0  0  0  0  0
    0.7143    1.4365    0.0000 C   0  0  0  0  0  0  0  0  0  0  0  0
    2.1439    1.4020    0.0000 O   0  0  0  0  0  0  0  0  0  0  0  0
    0.0366    2.6963    0.0000 O   0  0  0  0  0  0  0  0  0  0  0  0
   -1.4464    1.0718    0.0000 O   0  0  0  0  0  0  0  0  0  0  0  0
   -2.1887   -0.1487    0.0000 C   0  0  2  0  0  0  0  0  0  0  0  0
   -2.8935    0.2797    0.0000 C   0  0  0  0  0  0  0  0  0  0  0  0
   -2.2075   -0.9733    0.0000 C   0  0  0  0  0  0  0  0  0  0  0  0
   -2.8747    1.1045    0.0000 C   0  0  0  0  0  0  0  0  0  0  0  0
    2.1678    2.2246    0.0000 C   0  0  0  0  0  0  0  0  0  0  0  0
    2.8935    2.6166    0.0000 O   0  0  0  0  0  0  0  0  0  0  0  0
    2.2241   -2.8247    0.0000 H   0  0  0  0  0  0  0  0  0  0  0  0
    2.2730   -2.0202    0.0000 H   0  0  0  0  0  0  0  0  0  0  0  0
    1.5932   -0.5237    0.0000 H   0  0  0  0  0  0  0  0  0  0  0  0
    0.5945   -3.7281    0.0000 H   0  0  0  0  0  0  0  0  0  0  0  0
    0.1587   -0.4909    0.0000 H   0  0  0  0  0  0  0  0  0  0  0  0
   -2.4198   -0.8490    0.0000 H   0  0  0  0  0  0  0  0  0  0  0  0
   -2.4422   -1.9192    0.0000 H   0  0  0  0  0  0  0  0  0  0  0  0
   -2.4591   -2.7467    0.0000 H   0  0  0  0  0  0  0  0  0  0  0  0
   -1.5443   -3.3011    0.0000 H   0  0  0  0  0  0  0  0  0  0  0  0
   -0.8329   -3.6930    0.0000 H   0  0  0  0  0  0  0  0  0  0  0  0
    2.9961   -1.6236    0.0000 H   0  0  0  0  0  0  0  0  0  0  0  0
    2.1051    0.0014    0.0000 H   0  0  0  0  0  0  0  0  0  0  0  0
    3.0197   -0.5539    0.0000 H   0  0  0  0  0  0  0  0  0  0  0  0
   -0.2381    0.3465    0.0000 H   0  0  0  0  0  0  0  0  0  0  0  0
    0.7017    0.8580    0.0000 H   0  0  0  0  0  0  0  0  0  0  0  0
    2.3119   -0.3757    0.0000 H   0  0  0  0  0  0  0  0  0  0  0  0
    2.3388    0.6940    0.0000 H   0  0  0  0  0  0  0  0  0  0  0  0
    0.4805    0.4946    0.0000 H   0  0  0  0  0  0  0  0  0  0  0  0
    1.4947    3.7262    0.0000 H   0  0  0  0  0  0  0  0  0  0  0  0
    2.4062    3.1658    0.0000 H   0  0  0  0  0  0  0  0  0  0  0  0
    0.7689    3.3333    0.0000 H   0  0  0  0  0  0  0  0  0  0  0  0
   -0.2261    0.9261    0.0000 H   0  0  0  0  0  0  0  0  0  0  0  0
   -0.1970    1.9972    0.0000 H   0  0  0  0  0  0  0  0  0  0  0  0
    0.0644    3.6659    0.0000 H   0  0  0  0  0  0  0  0  0  0  0  0
   -1.2745   -0.7047    0.0000 H   0  0  0  0  0  0  0  0  0  0  0  0
   -3.8320   -0.2342    0.0000 H   0  0  0  0  0  0  0  0  0  0  0  0
   -3.8077    0.8356    0.0000 H   0  0  0  0  0  0  0  0  0  0  0  0
   -3.1461   -1.4870    0.0000 H   0  0  0  0  0  0  0  0  0  0  0  0
   -1.2933   -1.5293    0.0000 H   0  0  0  0  0  0  0  0  0  0  0  0
   -2.2319   -2.0430    0.0000 H   0  0  0  0  0  0  0  0  0  0  0  0
   -1.9361    1.6182    0.0000 H   0  0  0  0  0  0  0  0  0  0  0  0
   -3.7889    1.6605    0.0000 H   0  0  0  0  0  0  0  0  0  0  0  0
   -2.8503    2.1742    0.0000 H   0  0  0  0  0  0  0  0  0  0  0  0
  1  2  1  0  0  0  0
  1  4  2  0  0  0  0
  1 30  1  0  0  0  0
  2 11  1  0  0  0  0
  2  3  1  0  0  0  0
  2 31  1  6  0  0  0
  3 15  1  0  0  0  0
  3  6  1  0  0  0  0
  3 32  1  6  0  0  0
  4 33  1  0  0  0  0
  5  4  1  0  0  0  0
  5  6  1  0  0  0  0
  5 10  2  0  0  0  0
  6 12  1  1  0  0  0
  6  7  1  0  0  0  0
  7 13  1  0  0  0  0
  7  8  1  0  0  0  0
  7 34  1  1  0  0  0
  8  9  1  0  0  0  0
  8 35  1  0  0  0  0
  8 36  1  0  0  0  0
  9 10  1  0  0  0  0
  9 37  1  0  0  0  0
  9 38  1  0  0  0  0
 10 39  1  0  0  0  0
 11 40  1  0  0  0  0
 11 41  1  0  0  0  0
 11 42  1  0  0  0  0
 13 14  1  0  0  0  0
 14 23  2  0  0  0  0
 14 24  1  0  0  0  0
 15 16  1  0  0  0  0
 15 43  1  0  0  0  0
 15 44  1  0  0  0  0
 16 45  1  0  0  0  0
 16 46  1  0  0  0  0
 17 16  1  0  0  0  0
 17 20  1  0  0  0  0
 17 21  1  0  0  0  0
 17 47  1  1  0  0  0
 18 19  1  0  0  0  0
 18 28  1  0  0  0  0
 18 48  1  0  0  0  0
 18 49  1  0  0  0  0
 19 20  1  0  0  0  0
 19 22  1  0  0  0  0
 19 50  1  6  0  0  0
 20 51  1  0  0  0  0
 20 52  1  0  0  0  0
 21 28  1  0  0  0  0
 22 53  1  0  0  0  0
 24 25  1  0  0  0  0
 24 26  1  0  0  0  0
 24 54  1  6  0  0  0
 25 27  1  0  0  0  0
 25 55  1  0  0  0  0
 25 56  1  0  0  0  0
 26 57  1  0  0  0  0
 26 58  1  0  0  0  0
 26 59  1  0  0  0  0
 27 60  1  0  0  0  0
 27 61  1  0  0  0  0
 27 62  1  0  0  0  0
 28 29  2  0  0  0  0
M  END
>  <DRUGBANK_ID>
DB06693

>  <COMMON_NAME>
Mevastatin

>  <CAS_NUMBER>
73573-88-3

>  <UNII>
1UQM1K0W9X

>  <SYNONYMS>
Compactin; Mevastatin; Mevastatina; MÃ©vastatine; Mevastatinum

$$$$
