
 OpenBabel10282417072D

126125  0  0  1  0  0  0  0  0999 V2000
   -3.9471   13.6909    0.0000 C   0  0  0  0  0  0  0  0  0  0  0  0
   -3.2781   14.1737    0.0000 C   0  0  0  0  0  0  0  0  0  0  0  0
   -2.5255   13.8358    0.0000 C   0  0  0  0  0  0  0  0  0  0  0  0
   -1.8565   14.3186    0.0000 C   0  0  0  0  0  0  0  0  0  0  0  0
   -1.1039   13.9806    0.0000 C   0  0  0  0  0  0  0  0  0  0  0  0
   -0.4350   14.4634    0.0000 C   0  0  0  0  0  0  0  0  0  0  0  0
    0.3177   14.1255    0.0000 C   0  0  0  0  0  0  0  0  0  0  0  0
    0.4013   13.3047    0.0000 C   0  0  0  0  0  0  0  0  0  0  0  0
   -0.2677   12.8219    0.0000 C   0  0  0  0  0  0  0  0  0  0  0  0
   -0.1841   12.0012    0.0000 C   0  0  0  0  0  0  0  0  0  0  0  0
    0.5685   11.6632    0.0000 C   0  0  0  0  0  0  0  0  0  0  0  0
    1.2375   12.1460    0.0000 C   0  0  0  0  0  0  0  0  0  0  0  0
    1.9901   11.8080    0.0000 C   0  0  0  0  0  0  0  0  0  0  0  0
    2.6591   12.2908    0.0000 C   0  0  0  0  0  0  0  0  0  0  0  0
    3.4117   11.9529    0.0000 C   0  0  0  0  0  0  0  0  0  0  0  0
    4.0807   12.4357    0.0000 C   0  0  0  0  0  0  0  0  0  0  0  0
    4.8333   12.0977    0.0000 C   0  0  0  0  0  0  0  0  0  0  0  0
    5.5022   12.5805    0.0000 C   0  0  0  0  0  0  0  0  0  0  0  0
    5.4186   13.4013    0.0000 O   0  0  0  0  0  0  0  0  0  0  0  0
    6.2549   12.2426    0.0000 O   0  0  0  0  0  0  0  0  0  0  0  0
    6.9238   12.7254    0.0000 C   0  0  0  0  0  0  0  0  0  0  0  0
    7.6764   12.3874    0.0000 C   0  0  2  0  0  0  0  0  0  0  0  0
    7.7601   11.5667    0.0000 C   0  0  0  0  0  0  0  0  0  0  0  0
    8.5127   11.2287    0.0000 O   0  0  0  0  0  0  0  0  0  0  0  0
    8.5963   10.4079    0.0000 P   0  0  2  0  0  0  0  0  0  0  0  0
    7.7755   10.3243    0.0000 O   0  0  0  0  0  0  0  0  0  0  0  0
    9.4170   10.4916    0.0000 O   0  0  0  0  0  0  0  0  0  0  0  0
    8.6799    9.5872    0.0000 O   0  0  0  0  0  0  0  0  0  0  0  0
    9.4325    9.2492    0.0000 C   0  0  0  0  0  0  0  0  0  0  0  0
    9.5161    8.4285    0.0000 C   0  0  2  0  0  0  0  0  0  0  0  0
    8.8471    7.9457    0.0000 O   0  0  0  0  0  0  0  0  0  0  0  0
   10.2687    8.0905    0.0000 C   0  0  0  0  0  0  0  0  0  0  0  0
   10.3524    7.2698    0.0000 O   0  0  0  0  0  0  0  0  0  0  0  0
    8.3454   12.8702    0.0000 O   0  0  0  0  0  0  0  0  0  0  0  0
    9.0980   12.5322    0.0000 C   0  0  0  0  0  0  0  0  0  0  0  0
    9.1816   11.7115    0.0000 O   0  0  0  0  0  0  0  0  0  0  0  0
    9.7670   13.0150    0.0000 C   0  0  0  0  0  0  0  0  0  0  0  0
   10.5196   12.6771    0.0000 C   0  0  0  0  0  0  0  0  0  0  0  0
   11.1886   13.1599    0.0000 C   0  0  0  0  0  0  0  0  0  0  0  0
   11.9412   12.8219    0.0000 C   0  0  0  0  0  0  0  0  0  0  0  0
   12.6102   13.3047    0.0000 C   0  0  0  0  0  0  0  0  0  0  0  0
   13.3628   12.9668    0.0000 C   0  0  0  0  0  0  0  0  0  0  0  0
   13.4464   12.1460    0.0000 C   0  0  0  0  0  0  0  0  0  0  0  0
   12.7774   11.6632    0.0000 C   0  0  0  0  0  0  0  0  0  0  0  0
   12.8610   10.8425    0.0000 C   0  0  0  0  0  0  0  0  0  0  0  0
   13.6136   10.5045    0.0000 C   0  0  0  0  0  0  0  0  0  0  0  0
   14.2826   10.9873    0.0000 C   0  0  0  0  0  0  0  0  0  0  0  0
   15.0352   10.6493    0.0000 C   0  0  0  0  0  0  0  0  0  0  0  0
   15.7042   11.1321    0.0000 C   0  0  0  0  0  0  0  0  0  0  0  0
   16.4568   10.7942    0.0000 C   0  0  0  0  0  0  0  0  0  0  0  0
   17.1258   11.2770    0.0000 C   0  0  0  0  0  0  0  0  0  0  0  0
   -4.9232   14.1292    0.0000 H   0  0  0  0  0  0  0  0  0  0  0  0
   -3.8387   12.6264    0.0000 H   0  0  0  0  0  0  0  0  0  0  0  0
   -4.8148   13.0647    0.0000 H   0  0  0  0  0  0  0  0  0  0  0  0
   -3.3866   15.2382    0.0000 H   0  0  0  0  0  0  0  0  0  0  0  0
   -2.4105   14.7999    0.0000 H   0  0  0  0  0  0  0  0  0  0  0  0
   -2.4170   12.7713    0.0000 H   0  0  0  0  0  0  0  0  0  0  0  0
   -1.5494   13.3975    0.0000 H   0  0  0  0  0  0  0  0  0  0  0  0
   -1.9649   15.3831    0.0000 H   0  0  0  0  0  0  0  0  0  0  0  0
   -0.9888   14.9447    0.0000 H   0  0  0  0  0  0  0  0  0  0  0  0
   -0.9954   12.9161    0.0000 H   0  0  0  0  0  0  0  0  0  0  0  0
   -0.1278   13.5423    0.0000 H   0  0  0  0  0  0  0  0  0  0  0  0
   -0.5435   15.5279    0.0000 H   0  0  0  0  0  0  0  0  0  0  0  0
    0.4326   15.0897    0.0000 H   0  0  0  0  0  0  0  0  0  0  0  0
    1.1853   14.7517    0.0000 H   0  0  0  0  0  0  0  0  0  0  0  0
    1.2938   13.6872    0.0000 H   0  0  0  0  0  0  0  0  0  0  0  0
    1.3774   12.8664    0.0000 H   0  0  0  0  0  0  0  0  0  0  0  0
    0.5097   12.2402    0.0000 H   0  0  0  0  0  0  0  0  0  0  0  0
   -1.2091   13.2447    0.0000 H   0  0  0  0  0  0  0  0  0  0  0  0
   -1.0210   11.3973    0.0000 H   0  0  0  0  0  0  0  0  0  0  0  0
    0.6769   10.5987    0.0000 H   0  0  0  0  0  0  0  0  0  0  0  0
    1.5446   11.2249    0.0000 H   0  0  0  0  0  0  0  0  0  0  0  0
    1.1291   13.2105    0.0000 H   0  0  0  0  0  0  0  0  0  0  0  0
    2.1052   12.7721    0.0000 H   0  0  0  0  0  0  0  0  0  0  0  0
    2.0985   10.7435    0.0000 H   0  0  0  0  0  0  0  0  0  0  0  0
    2.9662   11.3697    0.0000 H   0  0  0  0  0  0  0  0  0  0  0  0
    2.5506   13.3553    0.0000 H   0  0  0  0  0  0  0  0  0  0  0  0
    3.5267   12.9170    0.0000 H   0  0  0  0  0  0  0  0  0  0  0  0
    3.5202   10.8884    0.0000 H   0  0  0  0  0  0  0  0  0  0  0  0
    4.3878   11.5146    0.0000 H   0  0  0  0  0  0  0  0  0  0  0  0
    3.9723   13.5002    0.0000 H   0  0  0  0  0  0  0  0  0  0  0  0
    4.9484   13.0618    0.0000 H   0  0  0  0  0  0  0  0  0  0  0  0
    4.9418   11.0332    0.0000 H   0  0  0  0  0  0  0  0  0  0  0  0
    5.8094   11.6594    0.0000 H   0  0  0  0  0  0  0  0  0  0  0  0
    6.8153   13.7899    0.0000 H   0  0  0  0  0  0  0  0  0  0  0  0
    7.7915   13.3516    0.0000 H   0  0  0  0  0  0  0  0  0  0  0  0
    7.5680   13.4519    0.0000 H   0  0  0  0  0  0  0  0  0  0  0  0
    6.8925   10.9405    0.0000 H   0  0  0  0  0  0  0  0  0  0  0  0
    7.8685   10.5022    0.0000 H   0  0  0  0  0  0  0  0  0  0  0  0
    7.2079   11.1109    0.0000 H   0  0  0  0  0  0  0  0  0  0  0  0
   10.3002    9.8753    0.0000 H   0  0  0  0  0  0  0  0  0  0  0  0
   10.4086    8.8109    0.0000 H   0  0  0  0  0  0  0  0  0  0  0  0
    8.5400    8.8668    0.0000 H   0  0  0  0  0  0  0  0  0  0  0  0
    7.9622    8.3431    0.0000 H   0  0  0  0  0  0  0  0  0  0  0  0
   11.1363    8.7167    0.0000 H   0  0  0  0  0  0  0  0  0  0  0  0
   11.2448    7.6522    0.0000 H   0  0  0  0  0  0  0  0  0  0  0  0
    9.5659    6.7021    0.0000 H   0  0  0  0  0  0  0  0  0  0  0  0
    9.6585   14.0795    0.0000 H   0  0  0  0  0  0  0  0  0  0  0  0
   10.6346   13.6412    0.0000 H   0  0  0  0  0  0  0  0  0  0  0  0
   10.6281   11.6126    0.0000 H   0  0  0  0  0  0  0  0  0  0  0  0
   11.4957   12.2388    0.0000 H   0  0  0  0  0  0  0  0  0  0  0  0
   11.0802   14.2244    0.0000 H   0  0  0  0  0  0  0  0  0  0  0  0
   12.0563   13.7860    0.0000 H   0  0  0  0  0  0  0  0  0  0  0  0
   12.0496   11.7574    0.0000 H   0  0  0  0  0  0  0  0  0  0  0  0
   12.9173   12.3836    0.0000 H   0  0  0  0  0  0  0  0  0  0  0  0
   12.5017   14.3692    0.0000 H   0  0  0  0  0  0  0  0  0  0  0  0
   13.4778   13.9309    0.0000 H   0  0  0  0  0  0  0  0  0  0  0  0
   14.2304   13.5930    0.0000 H   0  0  0  0  0  0  0  0  0  0  0  0
   14.3389   12.5285    0.0000 H   0  0  0  0  0  0  0  0  0  0  0  0
   14.4225   11.7077    0.0000 H   0  0  0  0  0  0  0  0  0  0  0  0
   13.5548   11.0815    0.0000 H   0  0  0  0  0  0  0  0  0  0  0  0
   11.8360   12.0860    0.0000 H   0  0  0  0  0  0  0  0  0  0  0  0
   12.0241   10.2386    0.0000 H   0  0  0  0  0  0  0  0  0  0  0  0
   13.7220    9.4400    0.0000 H   0  0  0  0  0  0  0  0  0  0  0  0
   14.5897   10.0662    0.0000 H   0  0  0  0  0  0  0  0  0  0  0  0
   14.1742   12.0518    0.0000 H   0  0  0  0  0  0  0  0  0  0  0  0
   15.1503   11.6134    0.0000 H   0  0  0  0  0  0  0  0  0  0  0  0
   15.1436    9.5848    0.0000 H   0  0  0  0  0  0  0  0  0  0  0  0
   16.0113   10.2110    0.0000 H   0  0  0  0  0  0  0  0  0  0  0  0
   15.5957   12.1966    0.0000 H   0  0  0  0  0  0  0  0  0  0  0  0
   16.5718   11.7583    0.0000 H   0  0  0  0  0  0  0  0  0  0  0  0
   16.5653    9.7297    0.0000 H   0  0  0  0  0  0  0  0  0  0  0  0
   17.4329   10.3559    0.0000 H   0  0  0  0  0  0  0  0  0  0  0  0
   18.1019   10.8387    0.0000 H   0  0  0  0  0  0  0  0  0  0  0  0
   17.0174   12.3415    0.0000 H   0  0  0  0  0  0  0  0  0  0  0  0
   17.9935   11.9032    0.0000 H   0  0  0  0  0  0  0  0  0  0  0  0
  1  2  1  0  0  0  0
  1 52  1  0  0  0  0
  1 53  1  0  0  0  0
  1 54  1  0  0  0  0
  2  3  1  0  0  0  0
  2 55  1  0  0  0  0
  2 56  1  0  0  0  0
  3  4  1  0  0  0  0
  3 57  1  0  0  0  0
  3 58  1  0  0  0  0
  4  5  1  0  0  0  0
  4 59  1  0  0  0  0
  4 60  1  0  0  0  0
  5  6  1  0  0  0  0
  5 61  1  0  0  0  0
  5 62  1  0  0  0  0
  6  7  1  0  0  0  0
  6 63  1  0  0  0  0
  6 64  1  0  0  0  0
  7  8  1  0  0  0  0
  7 65  1  0  0  0  0
  7 66  1  0  0  0  0
  8  9  1  0  0  0  0
  8 67  1  0  0  0  0
  8 68  1  0  0  0  0
  9 10  2  0  0  0  0
  9 69  1  0  0  0  0
 10 11  1  0  0  0  0
 10 70  1  0  0  0  0
 11 12  1  0  0  0  0
 11 71  1  0  0  0  0
 11 72  1  0  0  0  0
 12 13  1  0  0  0  0
 12 73  1  0  0  0  0
 12 74  1  0  0  0  0
 13 14  1  0  0  0  0
 13 75  1  0  0  0  0
 13 76  1  0  0  0  0
 14 15  1  0  0  0  0
 14 77  1  0  0  0  0
 14 78  1  0  0  0  0
 15 16  1  0  0  0  0
 15 79  1  0  0  0  0
 15 80  1  0  0  0  0
 16 17  1  0  0  0  0
 16 81  1  0  0  0  0
 16 82  1  0  0  0  0
 17 18  1  0  0  0  0
 17 83  1  0  0  0  0
 17 84  1  0  0  0  0
 18 19  2  0  0  0  0
 18 20  1  0  0  0  0
 20 21  1  0  0  0  0
 21 22  1  0  0  0  0
 21 85  1  0  0  0  0
 21 86  1  0  0  0  0
 22 23  1  0  0  0  0
 22 34  1  0  0  0  0
 22 87  1  6  0  0  0
 23 24  1  0  0  0  0
 23 88  1  0  0  0  0
 23 89  1  0  0  0  0
 25 24  1  0  0  0  0
 25 26  1  0  0  0  0
 25 27  2  1  0  0  0
 25 28  1  0  0  0  0
 26 90  1  0  0  0  0
 28 29  1  0  0  0  0
 29 30  1  0  0  0  0
 29 91  1  0  0  0  0
 29 92  1  0  0  0  0
 30 31  1  0  0  0  0
 30 32  1  0  0  0  0
 30 93  1  6  0  0  0
 31 94  1  0  0  0  0
 32 33  1  0  0  0  0
 32 95  1  0  0  0  0
 32 96  1  0  0  0  0
 33 97  1  0  0  0  0
 34 35  1  0  0  0  0
 35 36  2  0  0  0  0
 35 37  1  0  0  0  0
 37 38  1  0  0  0  0
 37 98  1  0  0  0  0
 37 99  1  0  0  0  0
 38 39  1  0  0  0  0
 38100  1  0  0  0  0
 38101  1  0  0  0  0
 39 40  1  0  0  0  0
 39102  1  0  0  0  0
 39103  1  0  0  0  0
 40 41  1  0  0  0  0
 40104  1  0  0  0  0
 40105  1  0  0  0  0
 41 42  1  0  0  0  0
 41106  1  0  0  0  0
 41107  1  0  0  0  0
 42 43  1  0  0  0  0
 42108  1  0  0  0  0
 42109  1  0  0  0  0
 43 44  1  0  0  0  0
 43110  1  0  0  0  0
 43111  1  0  0  0  0
 44 45  2  0  0  0  0
 44112  1  0  0  0  0
 45 46  1  0  0  0  0
 45113  1  0  0  0  0
 46 47  1  0  0  0  0
 46114  1  0  0  0  0
 46115  1  0  0  0  0
 47 48  1  0  0  0  0
 47116  1  0  0  0  0
 47117  1  0  0  0  0
 48 49  1  0  0  0  0
 48118  1  0  0  0  0
 48119  1  0  0  0  0
 49 50  1  0  0  0  0
 49120  1  0  0  0  0
 49121  1  0  0  0  0
 50 51  1  0  0  0  0
 50122  1  0  0  0  0
 50123  1  0  0  0  0
 51124  1  0  0  0  0
 51125  1  0  0  0  0
 51126  1  0  0  0  0
M  END
>  <DRUGBANK_ID>
DB04683

>  <COMMON_NAME>
(2R)-3-{[{[(2S)-2,3-DIHYDROXYPROPYL]OXY}(HYDROXY)PHOSPHORYL]OXY}-2-[(9E)-HEXADEC-9-ENOYLOXY]PROPYL (9E)-OCTADEC-9-ENOATE

$$$$
