
 OpenBabel10282417072D

 62 65  0  0  1  0  0  0  0  0999 V2000
   -2.3020   -5.0184    0.0000 C   0  0  0  0  0  0  0  0  0  0  0  0
   -2.0470   -4.2338    0.0000 C   0  0  0  0  0  0  0  0  0  0  0  0
   -1.2400   -4.0623    0.0000 C   0  0  1  0  0  0  0  0  0  0  0  0
   -0.9851   -3.2777    0.0000 O   0  0  0  0  0  0  0  0  0  0  0  0
   -0.1781   -3.1062    0.0000 C   0  0  0  0  0  0  0  0  0  0  0  0
    0.0768   -2.3215    0.0000 C   0  0  0  0  0  0  0  0  0  0  0  0
    0.8838   -2.1500    0.0000 C   0  0  0  0  0  0  0  0  0  0  0  0
    1.4358   -2.7631    0.0000 C   0  0  0  0  0  0  0  0  0  0  0  0
    1.1809   -3.5477    0.0000 C   0  0  0  0  0  0  0  0  0  0  0  0
    0.3739   -3.7192    0.0000 C   0  0  0  0  0  0  0  0  0  0  0  0
    1.1387   -1.3654    0.0000 N   0  0  0  0  0  0  0  0  0  0  0  0
    0.6538   -0.6979    0.0000 C   0  0  0  0  0  0  0  0  0  0  0  0
   -0.1712   -0.6979    0.0000 C   0  0  0  0  0  0  0  0  0  0  0  0
    1.1387   -0.0305    0.0000 C   0  0  0  0  0  0  0  0  0  0  0  0
    0.8838    0.7541    0.0000 C   0  0  0  0  0  0  0  0  0  0  0  0
    0.0768    0.9256    0.0000 O   0  0  0  0  0  0  0  0  0  0  0  0
    1.4358    1.3672    0.0000 C   0  0  0  0  0  0  0  0  0  0  0  0
    1.1809    2.1518    0.0000 C   0  0  0  0  0  0  0  0  0  0  0  0
    1.7329    2.7649    0.0000 C   0  0  0  0  0  0  0  0  0  0  0  0
    2.5399    2.5934    0.0000 C   0  0  0  0  0  0  0  0  0  0  0  0
    3.0919    3.2065    0.0000 O   0  0  0  0  0  0  0  0  0  0  0  0
    2.8370    3.9911    0.0000 C   0  0  0  0  0  0  0  0  0  0  0  0
    2.7948    1.8088    0.0000 C   0  0  0  0  0  0  0  0  0  0  0  0
    2.2428    1.1957    0.0000 C   0  0  0  0  0  0  0  0  0  0  0  0
    1.9233   -0.2854    0.0000 C   0  0  0  0  0  0  0  0  0  0  0  0
    2.6378    0.1271    0.0000 C   0  0  0  0  0  0  0  0  0  0  0  0
    3.3523   -0.2854    0.0000 C   0  0  0  0  0  0  0  0  0  0  0  0
    3.3523   -1.1104    0.0000 C   0  0  0  0  0  0  0  0  0  0  0  0
    4.0668   -1.5229    0.0000 O   0  0  0  0  0  0  0  0  0  0  0  0
    4.0668   -2.3479    0.0000 C   0  0  0  0  0  0  0  0  0  0  0  0
    3.2418   -2.3479    0.0000 F   0  0  0  0  0  0  0  0  0  0  0  0
    4.8918   -2.3479    0.0000 F   0  0  0  0  0  0  0  0  0  0  0  0
    4.0668   -3.1729    0.0000 F   0  0  0  0  0  0  0  0  0  0  0  0
    2.6378   -1.5229    0.0000 C   0  0  0  0  0  0  0  0  0  0  0  0
    1.9233   -1.1104    0.0000 C   0  0  0  0  0  0  0  0  0  0  0  0
   -0.6880   -4.6754    0.0000 C   0  0  0  0  0  0  0  0  0  0  0  0
    0.1190   -4.5039    0.0000 O   0  0  0  0  0  0  0  0  0  0  0  0
   -0.9429   -5.4600    0.0000 O   0  0  0  0  0  0  0  0  0  0  0  0
   -3.3486   -5.2408    0.0000 H   0  0  0  0  0  0  0  0  0  0  0  0
   -1.5861   -5.8136    0.0000 H   0  0  0  0  0  0  0  0  0  0  0  0
   -2.6327   -6.0360    0.0000 H   0  0  0  0  0  0  0  0  0  0  0  0
   -2.7629   -3.4386    0.0000 H   0  0  0  0  0  0  0  0  0  0  0  0
   -1.7163   -3.2162    0.0000 H   0  0  0  0  0  0  0  0  0  0  0  0
   -1.9560   -3.2671    0.0000 H   0  0  0  0  0  0  0  0  0  0  0  0
   -0.6138   -1.5546    0.0000 H   0  0  0  0  0  0  0  0  0  0  0  0
    2.4452   -2.5485    0.0000 H   0  0  0  0  0  0  0  0  0  0  0  0
    1.8714   -4.3146    0.0000 H   0  0  0  0  0  0  0  0  0  0  0  0
    0.0550   -4.7007    0.0000 H   0  0  0  0  0  0  0  0  0  0  0  0
   -0.7062    0.2287    0.0000 H   0  0  0  0  0  0  0  0  0  0  0  0
   -0.7062   -1.6245    0.0000 H   0  0  0  0  0  0  0  0  0  0  0  0
   -1.2412   -0.6979    0.0000 H   0  0  0  0  0  0  0  0  0  0  0  0
    0.1715    2.3664    0.0000 H   0  0  0  0  0  0  0  0  0  0  0  0
    1.4140    3.7464    0.0000 H   0  0  0  0  0  0  0  0  0  0  0  0
    3.5530    4.7862    0.0000 H   0  0  0  0  0  0  0  0  0  0  0  0
    1.7904    4.2136    0.0000 H   0  0  0  0  0  0  0  0  0  0  0  0
    2.5064    5.0087    0.0000 H   0  0  0  0  0  0  0  0  0  0  0  0
    3.8042    1.5942    0.0000 H   0  0  0  0  0  0  0  0  0  0  0  0
    2.5617    0.2142    0.0000 H   0  0  0  0  0  0  0  0  0  0  0  0
    2.6378    1.1591    0.0000 H   0  0  0  0  0  0  0  0  0  0  0  0
    4.2460    0.2306    0.0000 H   0  0  0  0  0  0  0  0  0  0  0  0
    2.6378   -2.5549    0.0000 H   0  0  0  0  0  0  0  0  0  0  0  0
    0.7459   -5.2003    0.0000 H   0  0  0  0  0  0  0  0  0  0  0  0
  1  2  1  0  0  0  0
  1 39  1  0  0  0  0
  1 40  1  0  0  0  0
  1 41  1  0  0  0  0
  2 42  1  0  0  0  0
  2 43  1  0  0  0  0
  3  2  1  0  0  0  0
  3  4  1  0  0  0  0
  3 36  1  0  0  0  0
  3 44  1  6  0  0  0
  4  5  1  0  0  0  0
  5  6  2  0  0  0  0
  5 10  1  0  0  0  0
  6  7  1  0  0  0  0
  6 45  1  0  0  0  0
  7  8  2  0  0  0  0
  7 11  1  0  0  0  0
  8  9  1  0  0  0  0
  8 46  1  0  0  0  0
  9 10  2  0  0  0  0
  9 47  1  0  0  0  0
 10 48  1  0  0  0  0
 11 12  1  0  0  0  0
 11 35  1  0  0  0  0
 12 13  1  0  0  0  0
 12 14  2  0  0  0  0
 13 49  1  0  0  0  0
 13 50  1  0  0  0  0
 13 51  1  0  0  0  0
 14 15  1  0  0  0  0
 14 25  1  0  0  0  0
 15 16  2  0  0  0  0
 15 17  1  0  0  0  0
 17 18  2  0  0  0  0
 17 24  1  0  0  0  0
 18 19  1  0  0  0  0
 18 52  1  0  0  0  0
 19 20  2  0  0  0  0
 19 53  1  0  0  0  0
 20 21  1  0  0  0  0
 20 23  1  0  0  0  0
 21 22  1  0  0  0  0
 22 54  1  0  0  0  0
 22 55  1  0  0  0  0
 22 56  1  0  0  0  0
 23 24  2  0  0  0  0
 23 57  1  0  0  0  0
 24 58  1  0  0  0  0
 25 26  2  0  0  0  0
 25 35  1  0  0  0  0
 26 27  1  0  0  0  0
 26 59  1  0  0  0  0
 27 28  2  0  0  0  0
 27 60  1  0  0  0  0
 28 29  1  0  0  0  0
 28 34  1  0  0  0  0
 29 30  1  0  0  0  0
 30 31  1  0  0  0  0
 30 32  1  0  0  0  0
 30 33  1  0  0  0  0
 34 35  2  0  0  0  0
 34 61  1  0  0  0  0
 36 37  1  0  0  0  0
 36 38  2  0  0  0  0
 37 62  1  0  0  0  0
M  END
>  <DRUGBANK_ID>
DB15242

>  <COMMON_NAME>
MK-0533

>  <CAS_NUMBER>
668455-28-5

>  <UNII>
J17152066B

$$$$
