
 OpenBabel10282417072D

  4  2  0  0  0  0  0  0  0  0999 V2000
   -0.7107   -0.6274    0.0000 Na  0  3  0  0  0  0  0  0  0  0  0  0
    0.7107    0.2089    0.0000 O   0  0  0  0  0  0  0  0  0  0  0  0
    0.0411    0.6274    0.0000 Cl  0  0  0  0  0  0  0  0  0  0  0  0
   -0.7107    0.2089    0.0000 O   0  5  0  0  0  0  0  0  0  0  0  0
  2  3  2  0  0  0  0
  3  4  1  0  0  0  0
M  CHG  2   1   1   4  -1
M  END
>  <DRUGBANK_ID>
DB13210

>  <COMMON_NAME>
Sodium chlorite

>  <CAS_NUMBER>
7758-19-2

>  <UNII>
G538EBV4VF

$$$$
