
 OpenBabel10282417072D

 62 65  0  0  1  0  0  0  0  0999 V2000
    1.8036   -0.1138    0.0000 C   0  0  0  0  0  0  0  0  0  0  0  0
    0.3045   -1.0964    0.0000 C   0  0  0  0  0  0  0  0  0  0  0  0
    1.8036    1.2211    0.0000 C   0  0  2  0  0  0  0  0  0  0  0  0
    0.3045    1.3786    0.0000 C   0  0  0  0  0  0  0  0  0  0  0  0
    2.2885    0.5536    0.0000 C   0  0  0  0  0  0  0  0  0  0  0  0
   -1.1245   -0.2714    0.0000 C   0  0  2  0  0  0  0  0  0  0  0  0
   -0.4100    0.9661    0.0000 C   0  0  0  0  0  0  0  0  0  0  0  0
   -0.4100   -1.5089    0.0000 C   0  0  1  0  0  0  0  0  0  0  0  0
   -1.1245   -1.0964    0.0000 C   0  0  0  0  0  0  0  0  0  0  0  0
   -1.8390    0.1411    0.0000 C   0  0  0  0  0  0  0  0  0  0  0  0
   -1.8390   -1.5089    0.0000 C   0  0  0  0  0  0  0  0  0  0  0  0
   -2.5534   -0.2714    0.0000 C   0  0  0  0  0  0  0  0  0  0  0  0
    0.3045   -0.2714    0.0000 C   0  0  2  0  0  0  0  0  0  0  0  0
    0.3045    0.5536    0.0000 H   0  0  0  0  0  0  0  0  0  0  0  0
   -0.4100    0.1411    0.0000 C   0  0  1  0  0  0  0  0  0  0  0  0
   -0.4100   -0.6839    0.0000 H   0  0  0  0  0  0  0  0  0  0  0  0
    1.0189    0.9661    0.0000 C   0  0  2  0  0  0  0  0  0  0  0  0
    1.0189    1.7911    0.0000 C   0  0  0  0  0  0  0  0  0  0  0  0
    1.0189    0.1411    0.0000 C   0  0  1  0  0  0  0  0  0  0  0  0
    1.0189   -0.6839    0.0000 H   0  0  0  0  0  0  0  0  0  0  0  0
   -3.2679   -1.5089    0.0000 O   0  0  0  0  0  0  0  0  0  0  0  0
   -2.5534   -1.0964    0.0000 C   0  0  0  0  0  0  0  0  0  0  0  0
   -1.1245    0.5536    0.0000 C   0  0  0  0  0  0  0  0  0  0  0  0
    2.5181    1.6336    0.0000 O   0  0  0  0  0  0  0  0  0  0  0  0
    1.8036    2.0461    0.0000 C   0  0  0  0  0  0  0  0  0  0  0  0
    1.2202    2.6295    0.0000 C   0  0  0  0  0  0  0  0  0  0  0  0
    2.5181    2.4586    0.0000 O   0  0  0  0  0  0  0  0  0  0  0  0
   -0.4100   -2.3339    0.0000 C   0  0  0  0  0  0  0  0  0  0  0  0
    3.2326    1.2211    0.0000 C   0  0  0  0  0  0  0  0  0  0  0  0
    3.9470    1.6336    0.0000 C   0  0  0  0  0  0  0  0  0  0  0  0
    3.2326    0.3961    0.0000 O   0  0  0  0  0  0  0  0  0  0  0  0
    2.1343   -1.1314    0.0000 H   0  0  0  0  0  0  0  0  0  0  0  0
    2.8604   -0.2812    0.0000 H   0  0  0  0  0  0  0  0  0  0  0  0
    1.2311   -1.6314    0.0000 H   0  0  0  0  0  0  0  0  0  0  0  0
    0.3045   -2.1664    0.0000 H   0  0  0  0  0  0  0  0  0  0  0  0
    0.3045    2.4486    0.0000 H   0  0  0  0  0  0  0  0  0  0  0  0
   -0.6221    1.9136    0.0000 H   0  0  0  0  0  0  0  0  0  0  0  0
    3.3585    0.5536    0.0000 H   0  0  0  0  0  0  0  0  0  0  0  0
    2.7743    1.5070    0.0000 H   0  0  0  0  0  0  0  0  0  0  0  0
   -1.3366    1.5011    0.0000 H   0  0  0  0  0  0  0  0  0  0  0  0
   -0.4100    2.0361    0.0000 H   0  0  0  0  0  0  0  0  0  0  0  0
    0.5166   -2.0439    0.0000 H   0  0  0  0  0  0  0  0  0  0  0  0
   -1.8390    1.2111    0.0000 H   0  0  0  0  0  0  0  0  0  0  0  0
   -2.7657    0.6761    0.0000 H   0  0  0  0  0  0  0  0  0  0  0  0
   -1.8390   -2.5409    0.0000 H   0  0  0  0  0  0  0  0  0  0  0  0
   -3.4801    0.2636    0.0000 H   0  0  0  0  0  0  0  0  0  0  0  0
   -3.4800   -0.8064    0.0000 H   0  0  0  0  0  0  0  0  0  0  0  0
    1.9455    2.3261    0.0000 H   0  0  0  0  0  0  0  0  0  0  0  0
    0.0923    2.3261    0.0000 H   0  0  0  0  0  0  0  0  0  0  0  0
    1.0189    2.8611    0.0000 H   0  0  0  0  0  0  0  0  0  0  0  0
   -0.1979    1.0886    0.0000 H   0  0  0  0  0  0  0  0  0  0  0  0
   -2.0511    1.0886    0.0000 H   0  0  0  0  0  0  0  0  0  0  0  0
   -1.1245    1.6236    0.0000 H   0  0  0  0  0  0  0  0  0  0  0  0
    1.4971    3.6630    0.0000 H   0  0  0  0  0  0  0  0  0  0  0  0
    0.1867    2.3526    0.0000 H   0  0  0  0  0  0  0  0  0  0  0  0
    0.4636    3.3861    0.0000 H   0  0  0  0  0  0  0  0  0  0  0  0
   -1.3366   -2.8689    0.0000 H   0  0  0  0  0  0  0  0  0  0  0  0
    0.5166   -2.8689    0.0000 H   0  0  0  0  0  0  0  0  0  0  0  0
   -0.4100   -3.4039    0.0000 H   0  0  0  0  0  0  0  0  0  0  0  0
    4.8737    1.0986    0.0000 H   0  0  0  0  0  0  0  0  0  0  0  0
    3.9470    2.7036    0.0000 H   0  0  0  0  0  0  0  0  0  0  0  0
    4.8736    2.1686    0.0000 H   0  0  0  0  0  0  0  0  0  0  0  0
  1 32  1  0  0  0  0
  1 33  1  0  0  0  0
  2  8  1  0  0  0  0
  2 34  1  0  0  0  0
  2 35  1  0  0  0  0
  3  5  1  0  0  0  0
  3 24  1  6  0  0  0
  3 25  1  0  0  0  0
  4  7  1  0  0  0  0
  4 36  1  0  0  0  0
  4 37  1  0  0  0  0
  5  1  1  0  0  0  0
  5 38  1  0  0  0  0
  5 39  1  0  0  0  0
  6  9  1  0  0  0  0
  6 10  1  0  0  0  0
  6 23  1  1  0  0  0
  7 40  1  0  0  0  0
  7 41  1  0  0  0  0
  8  9  1  0  0  0  0
  8 28  1  0  0  0  0
  8 42  1  1  0  0  0
  9 11  2  0  0  0  0
 10 12  1  0  0  0  0
 10 43  1  0  0  0  0
 10 44  1  0  0  0  0
 11 22  1  0  0  0  0
 11 45  1  0  0  0  0
 12 22  1  0  0  0  0
 12 46  1  0  0  0  0
 12 47  1  0  0  0  0
 13 15  1  0  0  0  0
 13  2  1  0  0  0  0
 13 14  1  1  0  0  0
 15  6  1  0  0  0  0
 15  7  1  0  0  0  0
 15 16  1  6  0  0  0
 17  3  1  0  0  0  0
 17  4  1  0  0  0  0
 17 18  1  1  0  0  0
 18 48  1  0  0  0  0
 18 49  1  0  0  0  0
 18 50  1  0  0  0  0
 19 13  1  0  0  0  0
 19 17  1  0  0  0  0
 19  1  1  0  0  0  0
 19 20  1  6  0  0  0
 22 21  2  0  0  0  0
 23 51  1  0  0  0  0
 23 52  1  0  0  0  0
 23 53  1  0  0  0  0
 24 29  1  0  0  0  0
 25 26  1  0  0  0  0
 25 27  2  0  0  0  0
 26 54  1  0  0  0  0
 26 55  1  0  0  0  0
 26 56  1  0  0  0  0
 28 57  1  0  0  0  0
 28 58  1  0  0  0  0
 28 59  1  0  0  0  0
 29 30  1  0  0  0  0
 29 31  2  0  0  0  0
 30 60  1  0  0  0  0
 30 61  1  0  0  0  0
 30 62  1  0  0  0  0
M  END
>  <DRUGBANK_ID>
DB00603

>  <SECONDARY_ACCESSION_NUMBERS>
APRD00627

>  <COMMON_NAME>
Medroxyprogesterone acetate

>  <CAS_NUMBER>
71-58-9

>  <UNII>
C2QI4IOI2G

>  <SYNONYMS>
(6α)-17-(Acetyloxy)-6-methylpreg-4-ene-3,20-dione; 17-Acetoxy-6α-methylprogesterone; 17α-hydroxy-6α-methylprogesterone acetate; 6-alpha-Methyl-17-alpha-acetoxyprogesterone; 6-alpha-Methyl-17-alpha-hydroxyprogesterone acetate; 6α-Methyl-17-acetoxy progesterone; 6α-Methyl-17α-hydroxyprogesterone acetate; 6α-Methyl-4-pregnene-3,20-dion-17α-ol acetate; Medroxyacetate progesterone; Medroxyprogesterone 17-acetate; Medroxyprogesterone acetate; Methylacetoxyprogesterone; Metigestrona; MPA

$$$$
