COL
 OpenBabel10282417072D

 27 28  0  0  0  0  0  0  0  0999 V2000
    2.0910   -0.4666    0.0000 S   0  0  0  0  0  0  0  0  0  0  0  0
    1.3765   -0.8791    0.0000 C   0  0  0  0  0  0  0  0  0  0  0  0
    0.6621   -0.4666    0.0000 C   0  0  0  0  0  0  0  0  0  0  0  0
    0.6621    0.3584    0.0000 C   0  0  0  0  0  0  0  0  0  0  0  0
    1.3765    0.7709    0.0000 C   0  0  0  0  0  0  0  0  0  0  0  0
    2.0910    0.3584    0.0000 C   0  0  0  0  0  0  0  0  0  0  0  0
   -0.1226   -0.7215    0.0000 S   0  0  0  0  0  0  0  0  0  0  0  0
   -0.6075   -0.0541    0.0000 C   0  0  0  0  0  0  0  0  0  0  0  0
   -0.1226    0.6133    0.0000 C   0  0  0  0  0  0  0  0  0  0  0  0
   -0.3775    1.3980    0.0000 C   0  0  0  0  0  0  0  0  0  0  0  0
   -1.1845    1.5695    0.0000 O   0  0  0  0  0  0  0  0  0  0  0  0
    0.1745    2.0111    0.0000 O   0  0  0  0  0  0  0  0  0  0  0  0
   -1.4325   -0.0541    0.0000 N   0  0  0  0  0  0  0  0  0  0  0  0
   -1.8450   -0.7686    0.0000 C   0  0  0  0  0  0  0  0  0  0  0  0
   -2.6700   -0.7686    0.0000 C   0  0  0  0  0  0  0  0  0  0  0  0
   -3.0825   -1.4830    0.0000 O   0  0  0  0  0  0  0  0  0  0  0  0
   -3.0825   -0.0541    0.0000 O   0  0  0  0  0  0  0  0  0  0  0  0
   -1.4325   -1.4830    0.0000 O   0  0  0  0  0  0  0  0  0  0  0  0
    1.3765   -1.9491    0.0000 H   0  0  0  0  0  0  0  0  0  0  0  0
    0.4498   -1.4141    0.0000 H   0  0  0  0  0  0  0  0  0  0  0  0
    1.3765    1.8409    0.0000 H   0  0  0  0  0  0  0  0  0  0  0  0
    2.3031    1.3059    0.0000 H   0  0  0  0  0  0  0  0  0  0  0  0
    3.0176    0.8934    0.0000 H   0  0  0  0  0  0  0  0  0  0  0  0
    2.0910    1.4284    0.0000 H   0  0  0  0  0  0  0  0  0  0  0  0
   -1.4741    2.4606    0.0000 H   0  0  0  0  0  0  0  0  0  0  0  0
   -1.9248    0.7985    0.0000 H   0  0  0  0  0  0  0  0  0  0  0  0
   -4.0195   -1.4830    0.0000 H   0  0  0  0  0  0  0  0  0  0  0  0
  1  2  1  0  0  0  0
  1  6  1  0  0  0  0
  2  3  1  0  0  0  0
  2 19  1  0  0  0  0
  2 20  1  0  0  0  0
  3  4  2  0  0  0  0
  3  7  1  0  0  0  0
  4  5  1  0  0  0  0
  4  9  1  0  0  0  0
  5  6  1  0  0  0  0
  5 21  1  0  0  0  0
  5 22  1  0  0  0  0
  6 23  1  0  0  0  0
  6 24  1  0  0  0  0
  7  8  1  0  0  0  0
  8  9  2  0  0  0  0
  8 13  1  0  0  0  0
  9 10  1  0  0  0  0
 10 11  1  0  0  0  0
 10 12  2  0  0  0  0
 11 25  1  0  0  0  0
 13 14  1  0  0  0  0
 13 26  1  0  0  0  0
 14 15  1  0  0  0  0
 14 18  2  0  0  0  0
 15 16  1  0  0  0  0
 15 17  2  0  0  0  0
 16 27  1  0  0  0  0
M  END
>  <DRUGBANK_ID>
DB02072

>  <SECONDARY_ACCESSION_NUMBERS>
EXPT00987

>  <COMMON_NAME>
2-(Oxalyl-Amino)-4,7-Dihydro-5h-Thieno[2,3-C]Thiopyran-3-Carboxylic Acid

$$$$
