N2T
 OpenBabel10282417072D

 54 57  0  0  0  0  0  0  0  0999 V2000
    1.7096   -2.7751    0.0000 C   0  0  0  0  0  0  0  0  0  0  0  0
    1.2247   -2.1077    0.0000 C   0  0  0  0  0  0  0  0  0  0  0  0
    1.5603   -1.3540    0.0000 C   0  0  0  0  0  0  0  0  0  0  0  0
    2.3808   -1.2678    0.0000 C   0  0  0  0  0  0  0  0  0  0  0  0
    2.8657   -1.9352    0.0000 C   0  0  0  0  0  0  0  0  0  0  0  0
    2.5301   -2.6889    0.0000 C   0  0  0  0  0  0  0  0  0  0  0  0
    1.0754   -0.6866    0.0000 C   0  0  0  0  0  0  0  0  0  0  0  0
    0.2504   -0.6866    0.0000 C   0  0  0  0  0  0  0  0  0  0  0  0
   -0.0046    0.0980    0.0000 N   0  0  0  0  0  0  0  0  0  0  0  0
    0.6629    0.5830    0.0000 C   0  0  1  0  0  0  0  0  0  0  0  0
    1.3303    0.0980    0.0000 C   0  0  0  0  0  0  0  0  0  0  0  0
    0.6629    1.4080    0.0000 C   0  0  0  0  0  0  0  0  0  0  0  0
   -0.0516    1.8205    0.0000 C   0  0  0  0  0  0  0  0  0  0  0  0
   -0.0516    2.6455    0.0000 C   0  0  0  0  0  0  0  0  0  0  0  0
    0.6629    3.0580    0.0000 C   0  0  0  0  0  0  0  0  0  0  0  0
    1.3773    2.6455    0.0000 C   0  0  0  0  0  0  0  0  0  0  0  0
    1.3773    1.8205    0.0000 C   0  0  0  0  0  0  0  0  0  0  0  0
   -0.7892    0.3530    0.0000 C   0  0  0  0  0  0  0  0  0  0  0  0
   -1.4023   -0.1990    0.0000 N   0  0  0  0  0  0  0  0  0  0  0  0
   -2.1869    0.0559    0.0000 C   0  0  0  0  0  0  0  0  0  0  0  0
    2.7163   -0.5141    0.0000 F   0  0  0  0  0  0  0  0  0  0  0  0
    1.3741   -3.5288    0.0000 F   0  0  0  0  0  0  0  0  0  0  0  0
   -0.9607    1.1600    0.0000 O   0  0  0  0  0  0  0  0  0  0  0  0
   -2.8000   -0.4961    0.0000 C   0  0  0  0  0  0  0  0  0  0  0  0
   -1.2308   -1.0060    0.0000 C   0  0  0  0  0  0  0  0  0  0  0  0
   -2.3584    0.8629    0.0000 C   0  0  0  0  0  0  0  0  0  0  0  0
   -3.5846   -0.2412    0.0000 C   0  0  0  0  0  0  0  0  0  0  0  0
   -3.1431    1.1178    0.0000 C   0  0  0  0  0  0  0  0  0  0  0  0
   -3.7562    0.5658    0.0000 N   0  0  0  0  0  0  0  0  0  0  0  0
    0.1426    0.8481    0.0000 H   0  0  0  0  0  0  0  0  0  0  0  0
    0.1984   -2.2156    0.0000 H   0  0  0  0  0  0  0  0  0  0  0  0
    3.8920   -1.8273    0.0000 H   0  0  0  0  0  0  0  0  0  0  0  0
    3.1367   -3.5238    0.0000 H   0  0  0  0  0  0  0  0  0  0  0  0
   -0.3785   -1.5523    0.0000 H   0  0  0  0  0  0  0  0  0  0  0  0
   -0.8064   -0.5193    0.0000 H   0  0  0  0  0  0  0  0  0  0  0  0
    2.3118    0.4169    0.0000 H   0  0  0  0  0  0  0  0  0  0  0  0
   -0.9453    1.3045    0.0000 H   0  0  0  0  0  0  0  0  0  0  0  0
   -0.9453    3.1615    0.0000 H   0  0  0  0  0  0  0  0  0  0  0  0
    0.6629    4.0900    0.0000 H   0  0  0  0  0  0  0  0  0  0  0  0
    2.2710    3.1615    0.0000 H   0  0  0  0  0  0  0  0  0  0  0  0
    2.2710    1.3045    0.0000 H   0  0  0  0  0  0  0  0  0  0  0  0
   -3.2045    0.3866    0.0000 H   0  0  0  0  0  0  0  0  0  0  0  0
   -2.5775   -1.5427    0.0000 H   0  0  0  0  0  0  0  0  0  0  0  0
   -3.5952   -1.2121    0.0000 H   0  0  0  0  0  0  0  0  0  0  0  0
   -2.0260   -1.7219    0.0000 H   0  0  0  0  0  0  0  0  0  0  0  0
   -0.2132   -1.3367    0.0000 H   0  0  0  0  0  0  0  0  0  0  0  0
   -1.0084   -2.0526    0.0000 H   0  0  0  0  0  0  0  0  0  0  0  0
   -1.5632    1.5789    0.0000 H   0  0  0  0  0  0  0  0  0  0  0  0
   -2.5809    1.9095    0.0000 H   0  0  0  0  0  0  0  0  0  0  0  0
   -4.3797   -0.9572    0.0000 H   0  0  0  0  0  0  0  0  0  0  0  0
   -4.6023    0.0894    0.0000 H   0  0  0  0  0  0  0  0  0  0  0  0
   -3.3656    2.1644    0.0000 H   0  0  0  0  0  0  0  0  0  0  0  0
   -4.1607    1.4485    0.0000 H   0  0  0  0  0  0  0  0  0  0  0  0
   -4.7263    0.8810    0.0000 H   0  0  0  0  0  0  0  0  0  0  0  0
  1  2  1  0  0  0  0
  1  6  2  0  0  0  0
  1 22  1  0  0  0  0
  2  3  2  0  0  0  0
  2 31  1  0  0  0  0
  3  4  1  0  0  0  0
  3  7  1  0  0  0  0
  4  5  2  0  0  0  0
  4 21  1  0  0  0  0
  5  6  1  0  0  0  0
  5 32  1  0  0  0  0
  6 33  1  0  0  0  0
  7  8  1  0  0  0  0
  7 11  2  0  0  0  0
  8  9  1  0  0  0  0
  8 34  1  0  0  0  0
  8 35  1  0  0  0  0
  9 10  1  0  0  0  0
  9 18  1  0  0  0  0
 10 11  1  0  0  0  0
 10 12  1  0  0  0  0
 10 30  1  1  0  0  0
 11 36  1  0  0  0  0
 12 13  1  0  0  0  0
 12 17  2  0  0  0  0
 13 14  2  0  0  0  0
 13 37  1  0  0  0  0
 14 15  1  0  0  0  0
 14 38  1  0  0  0  0
 15 16  2  0  0  0  0
 15 39  1  0  0  0  0
 16 17  1  0  0  0  0
 16 40  1  0  0  0  0
 17 41  1  0  0  0  0
 18 19  1  0  0  0  0
 18 23  2  0  0  0  0
 19 20  1  0  0  0  0
 19 25  1  0  0  0  0
 20 24  1  0  0  0  0
 20 26  1  0  0  0  0
 20 42  1  0  0  0  0
 24 27  1  0  0  0  0
 24 43  1  0  0  0  0
 24 44  1  0  0  0  0
 25 45  1  0  0  0  0
 25 46  1  0  0  0  0
 25 47  1  0  0  0  0
 26 28  1  0  0  0  0
 26 48  1  0  0  0  0
 26 49  1  0  0  0  0
 27 29  1  0  0  0  0
 27 50  1  0  0  0  0
 27 51  1  0  0  0  0
 28 29  1  0  0  0  0
 28 52  1  0  0  0  0
 28 53  1  0  0  0  0
 29 54  1  0  0  0  0
M  END
>  <DRUGBANK_ID>
DB08239

>  <COMMON_NAME>
(2S)-4-(2,5-DIFLUOROPHENYL)-N-METHYL-2-PHENYL-N-PIPERIDIN-4-YL-2,5-DIHYDRO-1H-PYRROLE-1-CARBOXAMIDE

$$$$
