
 OpenBabel10282417072D

 62 66  0  0  0  0  0  0  0  0999 V2000
    0.5112   -1.1604    0.0000 C   0  0  2  0  0  0  0  0  0  0  0  0
   -0.2481   -0.8288    0.0000 C   0  0  2  0  0  0  0  0  0  0  0  0
   -0.3734   -2.1620    0.0000 C   0  0  1  0  0  0  0  0  0  0  0  0
    1.0584   -0.5414    0.0000 C   0  0  0  0  0  0  0  0  0  0  0  0
    0.4315   -1.9811    0.0000 C   0  0  1  0  0  0  0  0  0  0  0  0
   -0.7952   -1.4480    0.0000 C   0  0  1  0  0  0  0  0  0  0  0  0
   -0.1648   -0.0061    0.0000 O   0  0  0  0  0  0  0  0  0  0  0  0
    0.6422    0.1710    0.0000 C   0  0  0  0  0  0  0  0  0  0  0  0
    1.8854   -0.5403    0.0000 C   0  0  0  0  0  0  0  0  0  0  0  0
   -0.7013   -2.9192    0.0000 C   0  0  0  0  0  0  0  0  0  0  0  0
   -0.9523   -0.4175    0.0000 C   0  0  0  0  0  0  0  0  0  0  0  0
    1.0546    0.8903    0.0000 C   0  0  0  0  0  0  0  0  0  0  0  0
    2.2927    0.1711    0.0000 C   0  0  0  0  0  0  0  0  0  0  0  0
    1.8816    0.8914    0.0000 C   0  0  0  0  0  0  0  0  0  0  0  0
   -1.6138   -1.3719    0.0000 C   0  0  0  0  0  0  0  0  0  0  0  0
    1.2305   -1.5728    0.0000 O   0  0  0  0  0  0  0  0  0  0  0  0
   -0.2135   -3.5807    0.0000 O   0  0  0  0  0  0  0  0  0  0  0  0
    1.0507   -2.5284    0.0000 O   0  0  0  0  0  0  0  0  0  0  0  0
   -1.7720   -0.4145    0.0000 C   0  0  0  0  0  0  0  0  0  0  0  0
   -0.5357    0.2945    0.0000 C   0  0  0  0  0  0  0  0  0  0  0  0
    2.2959   -1.2512    0.0000 O   0  0  0  0  0  0  0  0  0  0  0  0
   -1.7644    1.0142    0.0000 C   0  0  0  0  0  0  0  0  0  0  0  0
   -0.9426    1.0076    0.0000 C   0  0  0  0  0  0  0  0  0  0  0  0
   -2.1789    0.2985    0.0000 C   0  0  0  0  0  0  0  0  0  0  0  0
    2.2925    1.6050    0.0000 O   0  0  0  0  0  0  0  0  0  0  0  0
   -2.1750    1.7252    0.0000 O   0  0  0  0  0  0  0  0  0  0  0  0
   -2.0889   -2.0410    0.0000 C   0  0  0  0  0  0  0  0  0  0  0  0
   -1.9578   -0.6178    0.0000 C   0  0  0  0  0  0  0  0  0  0  0  0
    1.8871   -1.9684    0.0000 C   0  0  0  0  0  0  0  0  0  0  0  0
    3.1159    1.6040    0.0000 C   0  0  0  0  0  0  0  0  0  0  0  0
   -1.7605    2.4409    0.0000 C   0  0  0  0  0  0  0  0  0  0  0  0
   -2.9075   -1.9650    0.0000 C   0  0  0  0  0  0  0  0  0  0  0  0
   -2.7763   -0.5419    0.0000 C   0  0  0  0  0  0  0  0  0  0  0  0
   -3.2551   -1.2129    0.0000 C   0  0  0  0  0  0  0  0  0  0  0  0
   -1.5211   -3.0131    0.0000 N   0  0  0  0  0  0  0  0  0  0  0  0
    0.3090   -2.9861    0.0000 H   0  0  0  0  0  0  0  0  0  0  0  0
    0.1653   -3.0175    0.0000 H   0  0  0  0  0  0  0  0  0  0  0  0
   -1.1893   -0.4532    0.0000 H   0  0  0  0  0  0  0  0  0  0  0  0
    0.5367    1.7829    0.0000 H   0  0  0  0  0  0  0  0  0  0  0  0
    3.3247    0.1704    0.0000 H   0  0  0  0  0  0  0  0  0  0  0  0
    1.2334   -2.5428    0.0000 H   0  0  0  0  0  0  0  0  0  0  0  0
    0.8578   -3.4790    0.0000 H   0  0  0  0  0  0  0  0  0  0  0  0
   -2.2919   -1.3060    0.0000 H   0  0  0  0  0  0  0  0  0  0  0  0
    0.4963    0.2889    0.0000 H   0  0  0  0  0  0  0  0  0  0  0  0
   -0.4208    1.8979    0.0000 H   0  0  0  0  0  0  0  0  0  0  0  0
   -3.2109    0.3018    0.0000 H   0  0  0  0  0  0  0  0  0  0  0  0
   -1.6583   -2.9789    0.0000 H   0  0  0  0  0  0  0  0  0  0  0  0
   -1.3602    0.2235    0.0000 H   0  0  0  0  0  0  0  0  0  0  0  0
    0.8171   -1.9743    0.0000 H   0  0  0  0  0  0  0  0  0  0  0  0
    2.4272   -2.8921    0.0000 H   0  0  0  0  0  0  0  0  0  0  0  0
    1.3572   -2.8980    0.0000 H   0  0  0  0  0  0  0  0  0  0  0  0
    3.6498    0.6767    0.0000 H   0  0  0  0  0  0  0  0  0  0  0  0
    3.6520    2.5300    0.0000 H   0  0  0  0  0  0  0  0  0  0  0  0
    4.1859    1.6027    0.0000 H   0  0  0  0  0  0  0  0  0  0  0  0
   -0.6905    2.4395    0.0000 H   0  0  0  0  0  0  0  0  0  0  0  0
   -2.2942    3.3683    0.0000 H   0  0  0  0  0  0  0  0  0  0  0  0
   -1.2242    3.3668    0.0000 H   0  0  0  0  0  0  0  0  0  0  0  0
   -3.5031   -2.8078    0.0000 H   0  0  0  0  0  0  0  0  0  0  0  0
   -3.2058    0.3965    0.0000 H   0  0  0  0  0  0  0  0  0  0  0  0
   -4.2826   -1.1166    0.0000 H   0  0  0  0  0  0  0  0  0  0  0  0
   -2.1072   -2.2221    0.0000 H   0  0  0  0  0  0  0  0  0  0  0  0
   -1.9131   -3.9162    0.0000 H   0  0  0  0  0  0  0  0  0  0  0  0
  1 16  1  1  0  0  0
  2  1  1  0  0  0  0
  2 11  1  1  0  0  0
  3  5  1  0  0  0  0
  3 10  1  0  0  0  0
  3  6  1  0  0  0  0
  3 36  1  1  0  0  0
  4  1  1  0  0  0  0
  5  1  1  0  0  0  0
  5 18  1  0  0  0  0
  5 37  1  1  0  0  0
  6  2  1  0  0  0  0
  6 15  1  0  0  0  0
  6 38  1  6  0  0  0
  7  2  1  0  0  0  0
  7  8  1  0  0  0  0
  8  4  1  0  0  0  0
  9  4  2  0  0  0  0
 12  8  2  0  0  0  0
 12 39  1  0  0  0  0
 13  9  1  0  0  0  0
 13 40  1  0  0  0  0
 14 12  1  0  0  0  0
 14 13  2  0  0  0  0
 16 41  1  0  0  0  0
 17 10  2  0  0  0  0
 18 42  1  0  0  0  0
 19 11  1  0  0  0  0
 19 43  1  0  0  0  0
 20 11  2  0  0  0  0
 20 44  1  0  0  0  0
 21  9  1  0  0  0  0
 22 23  2  0  0  0  0
 23 20  1  0  0  0  0
 23 45  1  0  0  0  0
 24 19  2  0  0  0  0
 24 22  1  0  0  0  0
 24 46  1  0  0  0  0
 25 14  1  0  0  0  0
 26 22  1  0  0  0  0
 27 15  1  0  0  0  0
 27 47  1  0  0  0  0
 28 15  2  0  0  0  0
 28 48  1  0  0  0  0
 29 21  1  0  0  0  0
 29 49  1  0  0  0  0
 29 50  1  0  0  0  0
 29 51  1  0  0  0  0
 30 25  1  0  0  0  0
 30 52  1  0  0  0  0
 30 53  1  0  0  0  0
 30 54  1  0  0  0  0
 31 26  1  0  0  0  0
 31 55  1  0  0  0  0
 31 56  1  0  0  0  0
 31 57  1  0  0  0  0
 32 27  2  0  0  0  0
 32 58  1  0  0  0  0
 33 28  1  0  0  0  0
 33 59  1  0  0  0  0
 34 32  1  0  0  0  0
 34 33  2  0  0  0  0
 34 60  1  0  0  0  0
 35 10  1  0  0  0  0
 35 61  1  0  0  0  0
 35 62  1  0  0  0  0
M  END
>  <DRUGBANK_ID>
DB15496

>  <COMMON_NAME>
Didesmethylrocaglamide

>  <SYNONYMS>
RocB

$$$$
