
 OpenBabel10282417072D

 44 47  0  0  1  0  0  0  0  0999 V2000
    1.3752   -1.5604    0.0000 C   0  0  0  0  0  0  0  0  0  0  0  0
   -1.7888   -0.3966    0.0000 C   0  0  0  0  0  0  0  0  0  0  0  0
    2.3018    1.6045    0.0000 C   0  0  0  0  0  0  0  0  0  0  0  0
    0.0041   -1.4982    0.0000 C   0  0  0  0  0  0  0  0  0  0  0  0
   -0.5302   -0.8991    0.0000 C   0  0  0  0  0  0  0  0  0  0  0  0
    1.6700   -0.2251    0.0000 C   0  0  0  0  0  0  0  0  0  0  0  0
    2.1401    0.4582    0.0000 C   0  0  0  0  0  0  0  0  0  0  0  0
    0.7166   -1.1047    0.0000 C   0  0  2  0  0  0  0  0  0  0  0  0
   -1.2370    0.1841    0.0000 C   0  0  2  0  0  0  0  0  0  0  0  0
    0.8366   -0.2801    0.0000 C   0  0  1  0  0  0  0  0  0  0  0  0
   -0.4448   -0.0824    0.0000 C   0  0  1  0  0  0  0  0  0  0  0  0
   -1.5397    0.9515    0.0000 C   0  0  1  0  0  0  0  0  0  0  0  0
   -0.0464    1.1036    0.0000 C   0  0  2  0  0  0  0  0  0  0  0  0
    1.6509    1.1377    0.0000 C   0  0  2  0  0  0  0  0  0  0  0  0
    0.2736    0.3942    0.0000 C   0  0  2  0  0  0  0  0  0  0  0  0
   -2.3018    1.1984    0.0000 O   0  0  0  0  0  0  0  0  0  0  0  0
   -0.8507    1.3919    0.0000 O   0  0  0  0  0  0  0  0  0  0  0  0
    0.8616    0.8609    0.0000 O   0  0  0  0  0  0  0  0  0  0  0  0
    1.1655    1.8170    0.0000 O   0  0  0  0  0  0  0  0  0  0  0  0
    0.5151    1.2982    0.0000 O   0  0  0  0  0  0  0  0  0  0  0  0
    0.6762   -1.9046    0.0000 H   0  0  0  0  0  0  0  0  0  0  0  0
   -0.6853    0.7647    0.0000 H   0  0  0  0  0  0  0  0  0  0  0  0
    0.0657   -0.4980    0.0000 H   0  0  0  0  0  0  0  0  0  0  0  0
   -1.1187   -0.5154    0.0000 H   0  0  0  0  0  0  0  0  0  0  0  0
   -2.0881    0.3677    0.0000 H   0  0  0  0  0  0  0  0  0  0  0  0
   -0.0420    1.9046    0.0000 H   0  0  0  0  0  0  0  0  0  0  0  0
    1.2879   -2.6268    0.0000 H   0  0  0  0  0  0  0  0  0  0  0  0
    2.3424   -1.1028    0.0000 H   0  0  0  0  0  0  0  0  0  0  0  0
    2.2551   -2.1692    0.0000 H   0  0  0  0  0  0  0  0  0  0  0  0
   -2.8291   -0.1461    0.0000 H   0  0  0  0  0  0  0  0  0  0  0  0
   -1.4856   -1.4227    0.0000 H   0  0  0  0  0  0  0  0  0  0  0  0
   -2.5259   -1.1723    0.0000 H   0  0  0  0  0  0  0  0  0  0  0  0
    3.2766    1.1633    0.0000 H   0  0  0  0  0  0  0  0  0  0  0  0
    2.1965    2.6693    0.0000 H   0  0  0  0  0  0  0  0  0  0  0  0
    3.1713    2.2281    0.0000 H   0  0  0  0  0  0  0  0  0  0  0  0
   -0.1758   -2.5530    0.0000 H   0  0  0  0  0  0  0  0  0  0  0  0
    0.8765   -2.1178    0.0000 H   0  0  0  0  0  0  0  0  0  0  0  0
   -1.5485   -1.2276    0.0000 H   0  0  0  0  0  0  0  0  0  0  0  0
   -1.3612   -0.2251    0.0000 H   0  0  0  0  0  0  0  0  0  0  0  0
    2.1989   -1.1552    0.0000 H   0  0  0  0  0  0  0  0  0  0  0  0
    1.1627   -1.1672    0.0000 H   0  0  0  0  0  0  0  0  0  0  0  0
    3.2100    0.4696    0.0000 H   0  0  0  0  0  0  0  0  0  0  0  0
    2.6228    1.4131    0.0000 H   0  0  0  0  0  0  0  0  0  0  0  0
   -2.5043    2.1470    0.0000 H   0  0  0  0  0  0  0  0  0  0  0  0
  1 27  1  0  0  0  0
  1 28  1  0  0  0  0
  1 29  1  0  0  0  0
  2 30  1  0  0  0  0
  2 31  1  0  0  0  0
  2 32  1  0  0  0  0
  3 33  1  0  0  0  0
  3 34  1  0  0  0  0
  3 35  1  0  0  0  0
  4  5  1  0  0  0  0
  4 36  1  0  0  0  0
  4 37  1  0  0  0  0
  5 38  1  0  0  0  0
  5 39  1  0  0  0  0
  6  7  1  0  0  0  0
  6 40  1  0  0  0  0
  6 41  1  0  0  0  0
  7 42  1  0  0  0  0
  7 43  1  0  0  0  0
  8  1  1  0  0  0  0
  8  4  1  0  0  0  0
  8 21  1  1  0  0  0
  9  2  1  0  0  0  0
  9 22  1  6  0  0  0
  9 12  1  0  0  0  0
 10  6  1  0  0  0  0
 10  8  1  0  0  0  0
 10 23  1  6  0  0  0
 11  5  1  0  0  0  0
 11  9  1  0  0  0  0
 11 24  1  6  0  0  0
 12 25  1  6  0  0  0
 12 16  1  0  0  0  0
 12 17  1  0  0  0  0
 13 26  1  1  0  0  0
 13 17  1  0  0  0  0
 13 18  1  0  0  0  0
 14  3  1  6  0  0  0
 14  7  1  0  0  0  0
 14 18  1  0  0  0  0
 14 19  1  0  0  0  0
 15 10  1  0  0  0  0
 15 11  1  0  0  0  0
 15 13  1  0  0  0  0
 15 20  1  1  0  0  0
 16 44  1  0  0  0  0
 19 20  1  0  0  0  0
M  END
>  <DRUGBANK_ID>
DB11638

>  <COMMON_NAME>
Artenimol

>  <CAS_NUMBER>
71939-50-9

>  <UNII>
6A9O50735X

>  <SYNONYMS>
Artenimol; beta-Dihydroartemisinin; Dihydroartemisinin

$$$$
