P44
 OpenBabel10282417072D

 47 50  0  0  0  0  0  0  0  0999 V2000
   -1.6674   -0.8531    0.0000 N   0  0  0  0  0  0  0  0  0  0  0  0
   -2.1523   -0.1856    0.0000 C   0  0  0  0  0  0  0  0  0  0  0  0
   -1.6674    0.4818    0.0000 C   0  0  0  0  0  0  0  0  0  0  0  0
   -0.8828    0.2269    0.0000 C   0  0  0  0  0  0  0  0  0  0  0  0
   -0.8828   -0.5981    0.0000 N   0  0  0  0  0  0  0  0  0  0  0  0
   -0.1683    0.6394    0.0000 N   0  0  0  0  0  0  0  0  0  0  0  0
    0.5462    0.2269    0.0000 C   0  0  0  0  0  0  0  0  0  0  0  0
    0.5462   -0.5981    0.0000 N   0  0  0  0  0  0  0  0  0  0  0  0
   -0.1683   -1.0106    0.0000 C   0  0  0  0  0  0  0  0  0  0  0  0
   -0.1683   -1.8356    0.0000 N   0  0  0  0  0  0  0  0  0  0  0  0
   -0.8828   -2.2481    0.0000 C   0  0  0  0  0  0  0  0  0  0  0  0
   -0.8828   -3.0731    0.0000 C   0  0  0  0  0  0  0  0  0  0  0  0
   -1.5972   -3.4856    0.0000 C   0  0  0  0  0  0  0  0  0  0  0  0
   -2.3117   -3.0731    0.0000 C   0  0  0  0  0  0  0  0  0  0  0  0
   -2.3117   -2.2481    0.0000 C   0  0  0  0  0  0  0  0  0  0  0  0
   -1.5972   -1.8356    0.0000 C   0  0  0  0  0  0  0  0  0  0  0  0
    1.2606    0.6394    0.0000 N   0  0  0  0  0  0  0  0  0  0  0  0
    1.2606    1.4644    0.0000 C   0  0  0  0  0  0  0  0  0  0  0  0
    1.9751    1.8769    0.0000 C   0  0  0  0  0  0  0  0  0  0  0  0
    1.9751    2.7019    0.0000 C   0  0  0  0  0  0  0  0  0  0  0  0
    2.6896    3.1144    0.0000 C   0  0  0  0  0  0  0  0  0  0  0  0
    3.4041    2.7019    0.0000 C   0  0  0  0  0  0  0  0  0  0  0  0
    3.4041    1.8769    0.0000 C   0  0  0  0  0  0  0  0  0  0  0  0
    2.6896    1.4644    0.0000 C   0  0  0  0  0  0  0  0  0  0  0  0
   -1.9223    1.2664    0.0000 C   0  0  0  0  0  0  0  0  0  0  0  0
   -2.1773    2.0510    0.0000 N   0  0  0  0  0  0  0  0  0  0  0  0
   -3.1843   -0.1856    0.0000 H   0  0  0  0  0  0  0  0  0  0  0  0
    0.6843   -2.3279    0.0000 H   0  0  0  0  0  0  0  0  0  0  0  0
    0.0109   -3.5891    0.0000 H   0  0  0  0  0  0  0  0  0  0  0  0
   -1.5972   -4.5176    0.0000 H   0  0  0  0  0  0  0  0  0  0  0  0
   -3.2054   -3.5891    0.0000 H   0  0  0  0  0  0  0  0  0  0  0  0
   -3.2054   -1.7321    0.0000 H   0  0  0  0  0  0  0  0  0  0  0  0
   -1.5972   -0.8036    0.0000 H   0  0  0  0  0  0  0  0  0  0  0  0
    2.1132    0.1472    0.0000 H   0  0  0  0  0  0  0  0  0  0  0  0
    0.3340    1.9994    0.0000 H   0  0  0  0  0  0  0  0  0  0  0  0
    1.2606    2.5344    0.0000 H   0  0  0  0  0  0  0  0  0  0  0  0
    2.9017    2.4119    0.0000 H   0  0  0  0  0  0  0  0  0  0  0  0
    1.0485    3.2369    0.0000 H   0  0  0  0  0  0  0  0  0  0  0  0
    1.9751    3.7719    0.0000 H   0  0  0  0  0  0  0  0  0  0  0  0
    2.6896    4.1844    0.0000 H   0  0  0  0  0  0  0  0  0  0  0  0
    3.6162    3.6494    0.0000 H   0  0  0  0  0  0  0  0  0  0  0  0
    4.3307    3.2369    0.0000 H   0  0  0  0  0  0  0  0  0  0  0  0
    4.3307    2.1669    0.0000 H   0  0  0  0  0  0  0  0  0  0  0  0
    4.3307    1.3419    0.0000 H   0  0  0  0  0  0  0  0  0  0  0  0
    3.4041    0.8069    0.0000 H   0  0  0  0  0  0  0  0  0  0  0  0
    2.6896    0.3944    0.0000 H   0  0  0  0  0  0  0  0  0  0  0  0
    3.6162    0.9294    0.0000 H   0  0  0  0  0  0  0  0  0  0  0  0
  1  2  2  0  0  0  0
  1  5  1  0  0  0  0
  2  3  1  0  0  0  0
  2 27  1  0  0  0  0
  3 25  1  0  0  0  0
  3  4  2  0  0  0  0
  4  6  1  0  0  0  0
  4  5  1  0  0  0  0
  5  9  1  0  0  0  0
  6  7  2  0  0  0  0
  7 17  1  0  0  0  0
  7  8  1  0  0  0  0
  8  9  2  0  0  0  0
  9 10  1  0  0  0  0
 10 11  1  0  0  0  0
 10 28  1  0  0  0  0
 11 12  2  0  0  0  0
 11 16  1  0  0  0  0
 12 13  1  0  0  0  0
 12 29  1  0  0  0  0
 13 14  2  0  0  0  0
 13 30  1  0  0  0  0
 14 15  1  0  0  0  0
 14 31  1  0  0  0  0
 15 16  2  0  0  0  0
 15 32  1  0  0  0  0
 16 33  1  0  0  0  0
 17 18  1  0  0  0  0
 17 34  1  0  0  0  0
 18 19  1  0  0  0  0
 18 35  1  0  0  0  0
 18 36  1  0  0  0  0
 19 20  1  0  0  0  0
 19 24  1  0  0  0  0
 19 37  1  0  0  0  0
 20 21  1  0  0  0  0
 20 38  1  0  0  0  0
 20 39  1  0  0  0  0
 21 22  1  0  0  0  0
 21 40  1  0  0  0  0
 21 41  1  0  0  0  0
 22 23  1  0  0  0  0
 22 42  1  0  0  0  0
 22 43  1  0  0  0  0
 23 24  1  0  0  0  0
 23 44  1  0  0  0  0
 23 45  1  0  0  0  0
 24 46  1  0  0  0  0
 24 47  1  0  0  0  0
 25 26  3  0  0  0  0
M  END
>  <DRUGBANK_ID>
DB08353

>  <COMMON_NAME>
2-(CYCLOHEXYLMETHYLAMINO)-4-(PHENYLAMINO)PYRAZOLO[1,5-A][1,3,5]TRIAZINE-8-CARBONITRILE

$$$$
