
 OpenBabel10282417072D

 31 30  0  0  0  0  0  0  0  0999 V2000
    1.7866   -0.2064    0.0000 C   0  0  1  0  0  0  0  0  0  0  0  0
    1.0670    0.2030    0.0000 C   0  0  0  0  0  0  0  0  0  0  0  0
    2.5026    0.2065    0.0000 C   0  0  0  0  0  0  0  0  0  0  0  0
    1.7900   -1.0326    0.0000 N   0  0  0  0  0  0  0  0  0  0  0  0
    0.3579   -0.2099    0.0000 C   0  0  0  0  0  0  0  0  0  0  0  0
    3.2152   -0.2030    0.0000 O   0  0  0  0  0  0  0  0  0  0  0  0
    2.4992    1.0326    0.0000 O   0  0  0  0  0  0  0  0  0  0  0  0
   -0.3580    0.1962    0.0000 C   0  0  0  0  0  0  0  0  0  0  0  0
    3.9312    0.2134    0.0000 C   0  0  0  0  0  0  0  0  0  0  0  0
   -1.0706   -0.2133    0.0000 N   0  0  0  0  0  0  0  0  0  0  0  0
   -1.7866    0.1928    0.0000 C   0  0  0  0  0  0  0  0  0  0  0  0
   -2.5027   -0.2169    0.0000 N   0  0  0  0  0  0  0  0  0  0  0  0
   -1.7901    1.0224    0.0000 N   0  0  0  0  0  0  0  0  0  0  0  0
   -3.2153    0.1962    0.0000 N   0  3  0  0  0  0  0  0  0  0  0  0
   -3.9312   -0.2099    0.0000 O   0  0  0  0  0  0  0  0  0  0  0  0
   -3.2118    1.0224    0.0000 O   0  5  0  0  0  0  0  0  0  0  0  0
    0.8628   -0.7462    0.0000 H   0  0  0  0  0  0  0  0  0  0  0  0
    1.0616    1.2730    0.0000 H   0  0  0  0  0  0  0  0  0  0  0  0
    0.1380    0.7340    0.0000 H   0  0  0  0  0  0  0  0  0  0  0  0
    0.9088   -1.5462    0.0000 H   0  0  0  0  0  0  0  0  0  0  0  0
    2.6754   -1.5390    0.0000 H   0  0  0  0  0  0  0  0  0  0  0  0
    0.3639   -1.2799    0.0000 H   0  0  0  0  0  0  0  0  0  0  0  0
   -0.5652   -0.7510    0.0000 H   0  0  0  0  0  0  0  0  0  0  0  0
   -0.3610    1.2662    0.0000 H   0  0  0  0  0  0  0  0  0  0  0  0
   -1.2849    0.7308    0.0000 H   0  0  0  0  0  0  0  0  0  0  0  0
    4.8595   -0.3187    0.0000 H   0  0  0  0  0  0  0  0  0  0  0  0
    3.9278    1.2834    0.0000 H   0  0  0  0  0  0  0  0  0  0  0  0
    4.8562    0.7513    0.0000 H   0  0  0  0  0  0  0  0  0  0  0  0
   -1.0678   -1.1978    0.0000 H   0  0  0  0  0  0  0  0  0  0  0  0
   -2.5055   -1.2014    0.0000 H   0  0  0  0  0  0  0  0  0  0  0  0
   -0.9396    1.5182    0.0000 H   0  0  0  0  0  0  0  0  0  0  0  0
  1  2  1  0  0  0  0
  1  3  1  0  0  0  0
  1  4  1  0  0  0  0
  1 17  1  6  0  0  0
  2  5  1  0  0  0  0
  2 18  1  0  0  0  0
  2 19  1  0  0  0  0
  3  6  1  0  0  0  0
  3  7  2  0  0  0  0
  4 20  1  0  0  0  0
  4 21  1  0  0  0  0
  5  8  1  0  0  0  0
  5 22  1  0  0  0  0
  5 23  1  0  0  0  0
  6  9  1  0  0  0  0
  8 10  1  0  0  0  0
  8 24  1  0  0  0  0
  8 25  1  0  0  0  0
  9 26  1  0  0  0  0
  9 27  1  0  0  0  0
  9 28  1  0  0  0  0
 10 11  1  0  0  0  0
 10 29  1  0  0  0  0
 11 12  1  0  0  0  0
 11 13  2  0  0  0  0
 12 14  1  0  0  0  0
 12 30  1  0  0  0  0
 13 31  1  0  0  0  0
 14 15  2  0  0  0  0
 14 16  1  0  0  0  0
M  CHG  2  14   1  16  -1
M  END
>  <DRUGBANK_ID>
DB12750

>  <COMMON_NAME>
N-omega-nitro-L-arginine methyl ester

>  <CAS_NUMBER>
50903-99-6

>  <UNII>
V55S2QJN2X

>  <SYNONYMS>
L-NAME; N-nitro-arginine methyl ester; NG-nitro-L-arginine methyl ester; NG-Nitroarginine methyl ester

$$$$
