
 OpenBabel10282417072D

 10  9  0  0  0  0  0  0  0  0999 V2000
   -0.3571    0.6187    0.0000 N   0  0  0  0  0  0  0  0  0  0  0  0
   -0.3571   -0.2062    0.0000 C   0  0  0  0  0  0  0  0  0  0  0  0
    0.3573   -0.6187    0.0000 N   0  0  0  0  0  0  0  0  0  0  0  0
   -1.0717   -0.6187    0.0000 N   0  0  0  0  0  0  0  0  0  0  0  0
    1.0718   -0.2062    0.0000 O   0  0  0  0  0  0  0  0  0  0  0  0
    0.4955    1.1110    0.0000 H   0  0  0  0  0  0  0  0  0  0  0  0
    0.3573   -1.6032    0.0000 H   0  0  0  0  0  0  0  0  0  0  0  0
   -1.9243   -0.1264    0.0000 H   0  0  0  0  0  0  0  0  0  0  0  0
   -1.0718   -1.6032    0.0000 H   0  0  0  0  0  0  0  0  0  0  0  0
    1.9118   -0.6912    0.0000 H   0  0  0  0  0  0  0  0  0  0  0  0
  1  6  1  0  0  0  0
  2  1  2  0  0  0  0
  2  4  1  0  0  0  0
  3  2  1  0  0  0  0
  3  7  1  0  0  0  0
  4  8  1  0  0  0  0
  4  9  1  0  0  0  0
  5  3  1  0  0  0  0
  5 10  1  0  0  0  0
M  END
>  <DRUGBANK_ID>
DB03770

>  <SECONDARY_ACCESSION_NUMBERS>
EXPT01741

>  <COMMON_NAME>
N-hydroxyguanidine

>  <CAS_NUMBER>
13115-21-4

>  <UNII>
8767F421T7

>  <SYNONYMS>
Hydroxyguanidine

$$$$
