
 OpenBabel10282417072D

 19 18  0  0  0  0  0  0  0  0999 V2000
    0.0000    0.4150    0.0000 C   0  0  0  0  0  0  0  0  0  0  0  0
   -0.7125    0.8243    0.0000 N   0  0  0  0  0  0  0  0  0  0  0  0
    0.7125    0.8243    0.0000 N   0  0  0  0  0  0  0  0  0  0  0  0
    0.0000   -0.4112    0.0000 C   0  0  0  0  0  0  0  0  0  0  0  0
   -1.4288    0.4150    0.0000 C   0  0  0  0  0  0  0  0  0  0  0  0
    1.4288    0.4150    0.0000 C   0  0  0  0  0  0  0  0  0  0  0  0
    0.7125   -0.8243    0.0000 O   0  5  0  0  0  0  0  0  0  0  0  0
   -0.7125   -0.8243    0.0000 O   0  0  0  0  0  0  0  0  0  0  0  0
   -2.1413    0.8243    0.0000 N   0  0  0  0  0  0  0  0  0  0  0  0
   -1.4288   -0.4112    0.0000 O   0  0  0  0  0  0  0  0  0  0  0  0
    2.1413    0.8243    0.0000 N   0  0  0  0  0  0  0  0  0  0  0  0
    1.4288   -0.4112    0.0000 O   0  0  0  0  0  0  0  0  0  0  0  0
    0.9261   -0.1210    0.0000 H   0  0  0  0  0  0  0  0  0  0  0  0
   -0.7114    1.8088    0.0000 H   0  0  0  0  0  0  0  0  0  0  0  0
    0.7114    1.8088    0.0000 H   0  0  0  0  0  0  0  0  0  0  0  0
   -2.1434    1.8088    0.0000 H   0  0  0  0  0  0  0  0  0  0  0  0
   -2.9928    0.3302    0.0000 H   0  0  0  0  0  0  0  0  0  0  0  0
    2.9928    0.3302    0.0000 H   0  0  0  0  0  0  0  0  0  0  0  0
    2.1434    1.8088    0.0000 H   0  0  0  0  0  0  0  0  0  0  0  0
  1  2  1  0  0  0  0
  1  3  1  0  0  0  0
  1  4  1  0  0  0  0
  1 13  1  0  0  0  0
  2  5  1  0  0  0  0
  2 14  1  0  0  0  0
  3  6  1  0  0  0  0
  3 15  1  0  0  0  0
  4  7  1  0  0  0  0
  4  8  2  0  0  0  0
  5  9  1  0  0  0  0
  5 10  2  0  0  0  0
  6 11  1  0  0  0  0
  6 12  2  0  0  0  0
  9 16  1  0  0  0  0
  9 17  1  0  0  0  0
 11 18  1  0  0  0  0
 11 19  1  0  0  0  0
M  CHG  1   7  -1
M  END
>  <DRUGBANK_ID>
DB04380

>  <SECONDARY_ACCESSION_NUMBERS>
EXPT00066

>  <COMMON_NAME>
Allantoate

>  <SYNONYMS>
bis[(aminocarbonyl)amino]acetate; diureido-acetate; diureidoacetate

$$$$
