
 OpenBabel10282417072D

 24 23  0  0  1  0  0  0  0  0999 V2000
    0.5230    1.1270    0.0000 C   0  0  0  0  0  0  0  0  0  0  0  0
    4.0954    0.7145    0.0000 C   0  0  0  0  0  0  0  0  0  0  0  0
    1.2375    0.7145    0.0000 C   0  0  1  0  0  0  0  0  0  0  0  0
    3.3809    1.1270    0.0000 C   0  0  2  0  0  0  0  0  0  0  0  0
    1.9520    1.1270    0.0000 C   0  0  2  0  0  0  0  0  0  0  0  0
    2.6664    0.7145    0.0000 C   0  0  2  0  0  0  0  0  0  0  0  0
   -0.1914    0.7145    0.0000 O   0  0  0  0  0  0  0  0  0  0  0  0
    4.8099    1.1270    0.0000 O   0  0  0  0  0  0  0  0  0  0  0  0
    1.2375   -0.1105    0.0000 O   0  0  0  0  0  0  0  0  0  0  0  0
    3.3809    1.9520    0.0000 O   0  0  0  0  0  0  0  0  0  0  0  0
    1.9520    1.9520    0.0000 O   0  0  0  0  0  0  0  0  0  0  0  0
    2.6664   -0.1105    0.0000 O   0  0  0  0  0  0  0  0  0  0  0  0
    1.2375    1.5395    0.0000 H   0  0  0  0  0  0  0  0  0  0  0  0
    3.3809    0.3020    0.0000 H   0  0  0  0  0  0  0  0  0  0  0  0
    1.9520    0.3020    0.0000 H   0  0  0  0  0  0  0  0  0  0  0  0
    2.6664    1.5395    0.0000 H   0  0  0  0  0  0  0  0  0  0  0  0
    0.5230    2.1590    0.0000 H   0  0  0  0  0  0  0  0  0  0  0  0
    4.0954   -0.3555    0.0000 H   0  0  0  0  0  0  0  0  0  0  0  0
    5.0220    0.1795    0.0000 H   0  0  0  0  0  0  0  0  0  0  0  0
    5.6499    0.6420    0.0000 H   0  0  0  0  0  0  0  0  0  0  0  0
    0.3975   -0.5955    0.0000 H   0  0  0  0  0  0  0  0  0  0  0  0
    4.2209    2.4370    0.0000 H   0  0  0  0  0  0  0  0  0  0  0  0
    2.7920    2.4370    0.0000 H   0  0  0  0  0  0  0  0  0  0  0  0
    1.8264   -0.5955    0.0000 H   0  0  0  0  0  0  0  0  0  0  0  0
  1 17  1  0  0  0  0
  2 18  1  0  0  0  0
  2 19  1  0  0  0  0
  3  1  1  0  0  0  0
  3  9  1  0  0  0  0
  3 13  1  6  0  0  0
  4  2  1  0  0  0  0
  4 10  1  0  0  0  0
  4 14  1  1  0  0  0
  5  3  1  0  0  0  0
  5 11  1  0  0  0  0
  5 15  1  6  0  0  0
  6  4  1  0  0  0  0
  6  5  1  0  0  0  0
  6 12  1  0  0  0  0
  6 16  1  6  0  0  0
  7  1  2  0  0  0  0
  8  2  1  0  0  0  0
  8 20  1  0  0  0  0
  9 21  1  0  0  0  0
 10 22  1  0  0  0  0
 11 23  1  0  0  0  0
 12 24  1  0  0  0  0
M  END
>  <DRUGBANK_ID>
DB01914

>  <SECONDARY_ACCESSION_NUMBERS>
EXPT01609; DB11280

>  <COMMON_NAME>
D-glucose

>  <CAS_NUMBER>
50-99-7

>  <UNII>
5SL0G7R0OK

>  <SYNONYMS>
aldehydo-D-glucose; Anhydrous dextrose; D-Glucose in linear form; D-glucose, anhydrous; D(+)-Glucose; Dextrose anhydrous; Dextrose, anhydrous; Glucose anhydrous; Glucose, anhydrous

$$$$
