
 OpenBabel10282417072D

 42 40  0  0  0  0  0  0  0  0999 V2000
    4.1025    0.2005    0.0000 C   0  0  0  0  0  0  0  0  0  0  0  0
    2.6664    0.2109    0.0000 C   0  0  0  0  0  0  0  0  0  0  0  0
    4.8167   -0.2005    0.0000 C   0  0  0  0  0  0  0  0  0  0  0  0
    3.3961   -0.2109    0.0000 C   0  0  1  0  0  0  0  0  0  0  0  0
    2.6664    1.0259    0.0000 O   0  0  0  0  0  0  0  0  0  0  0  0
    5.5360    0.2238    0.0000 O   0  0  0  0  0  0  0  0  0  0  0  0
    3.3961   -1.0491    0.0000 N   0  0  0  0  0  0  0  0  0  0  0  0
    1.9600   -0.2005    0.0000 O   0  0  0  0  0  0  0  0  0  0  0  0
    4.8295   -1.0259    0.0000 O   0  0  0  0  0  0  0  0  0  0  0  0
   -0.5187    0.2161    0.0000 C   0  0  0  0  0  0  0  0  0  0  0  0
   -4.7985    0.2161    0.0000 C   0  0  0  0  0  0  0  0  0  0  0  0
   -0.5187    1.0491    0.0000 N   0  0  0  0  0  0  0  0  0  0  0  0
   -4.8115    1.0311    0.0000 O   0  0  0  0  0  0  0  0  0  0  0  0
   -1.2329   -0.1876    0.0000 N   0  0  0  0  0  0  0  0  0  0  0  0
   -4.0973   -0.2186    0.0000 C   0  0  1  0  0  0  0  0  0  0  0  0
    0.2005   -0.2005    0.0000 N   0  0  0  0  0  0  0  0  0  0  0  0
   -5.5360   -0.2005    0.0000 O   0  0  0  0  0  0  0  0  0  0  0  0
   -4.1050   -1.0155    0.0000 N   0  0  0  0  0  0  0  0  0  0  0  0
   -1.9497    0.2161    0.0000 C   0  0  0  0  0  0  0  0  0  0  0  0
   -3.3987    0.2161    0.0000 C   0  0  0  0  0  0  0  0  0  0  0  0
   -2.6690   -0.2005    0.0000 C   0  0  0  0  0  0  0  0  0  0  0  0
    4.0941    1.2705    0.0000 H   0  0  0  0  0  0  0  0  0  0  0  0
    3.1728    0.7301    0.0000 H   0  0  0  0  0  0  0  0  0  0  0  0
    2.4693   -0.7457    0.0000 H   0  0  0  0  0  0  0  0  0  0  0  0
    2.5128   -1.5591    0.0000 H   0  0  0  0  0  0  0  0  0  0  0  0
    4.2794   -1.5591    0.0000 H   0  0  0  0  0  0  0  0  0  0  0  0
    1.1468    0.2649    0.0000 H   0  0  0  0  0  0  0  0  0  0  0  0
    4.0254   -1.5069    0.0000 H   0  0  0  0  0  0  0  0  0  0  0  0
    0.3339    1.5413    0.0000 H   0  0  0  0  0  0  0  0  0  0  0  0
   -1.2321   -1.1721    0.0000 H   0  0  0  0  0  0  0  0  0  0  0  0
   -5.0347   -0.7345    0.0000 H   0  0  0  0  0  0  0  0  0  0  0  0
    0.1991   -1.1850    0.0000 H   0  0  0  0  0  0  0  0  0  0  0  0
    1.0538    0.2905    0.0000 H   0  0  0  0  0  0  0  0  0  0  0  0
   -6.3430    0.2756    0.0000 H   0  0  0  0  0  0  0  0  0  0  0  0
   -4.9932   -1.5169    0.0000 H   0  0  0  0  0  0  0  0  0  0  0  0
   -3.2266   -1.5340    0.0000 H   0  0  0  0  0  0  0  0  0  0  0  0
   -1.9561    1.2861    0.0000 H   0  0  0  0  0  0  0  0  0  0  0  0
   -2.8783    0.7477    0.0000 H   0  0  0  0  0  0  0  0  0  0  0  0
   -3.4190    1.2859    0.0000 H   0  0  0  0  0  0  0  0  0  0  0  0
   -2.4785    0.7621    0.0000 H   0  0  0  0  0  0  0  0  0  0  0  0
   -2.6657   -1.2705    0.0000 H   0  0  0  0  0  0  0  0  0  0  0  0
   -1.7412   -0.7334    0.0000 H   0  0  0  0  0  0  0  0  0  0  0  0
  1 22  1  0  0  0  0
  1 23  1  0  0  0  0
  2  4  1  0  0  0  0
  3  1  1  0  0  0  0
  4  1  1  0  0  0  0
  4  7  1  0  0  0  0
  4 24  1  1  0  0  0
  5  2  2  0  0  0  0
  6  3  2  0  0  0  0
  7 25  1  0  0  0  0
  7 26  1  0  0  0  0
  8  2  1  0  0  0  0
  8 27  1  0  0  0  0
  9  3  1  0  0  0  0
  9 28  1  0  0  0  0
 11 15  1  0  0  0  0
 12 10  2  0  0  0  0
 12 29  1  0  0  0  0
 13 11  2  0  0  0  0
 14 10  1  0  0  0  0
 14 30  1  0  0  0  0
 15 20  1  0  0  0  0
 15 18  1  0  0  0  0
 15 31  1  1  0  0  0
 16 10  1  0  0  0  0
 16 32  1  0  0  0  0
 16 33  1  0  0  0  0
 17 11  1  0  0  0  0
 17 34  1  0  0  0  0
 18 35  1  0  0  0  0
 18 36  1  0  0  0  0
 19 14  1  0  0  0  0
 19 37  1  0  0  0  0
 19 38  1  0  0  0  0
 20 21  1  0  0  0  0
 20 39  1  0  0  0  0
 20 40  1  0  0  0  0
 21 19  1  0  0  0  0
 21 41  1  0  0  0  0
 21 42  1  0  0  0  0
M  END
>  <DRUGBANK_ID>
DB15993

>  <COMMON_NAME>
Arginine aspartate

>  <CAS_NUMBER>
7675-83-4

>  <UNII>
LZB1G2I725

>  <SYNONYMS>
Arginine L-aspartate; L-Arginine aspartate; L-Arginine-L-aspartate

$$$$
