
 OpenBabel10282417072D

 22 23  0  0  1  0  0  0  0  0999 V2000
   -0.6284    1.5229    0.0000 C   0  0  0  0  0  0  0  0  0  0  0  0
   -0.1435    0.8555    0.0000 C   0  0  0  0  0  0  0  0  0  0  0  0
    1.3556    0.6979    0.0000 C   0  0  0  0  0  0  0  0  0  0  0  0
    2.0701    1.1104    0.0000 C   0  0  2  0  0  0  0  0  0  0  0  0
    2.0701    1.9354    0.0000 C   0  0  1  0  0  0  0  0  0  0  0  0
    1.3556    2.3479    0.0000 C   0  0  2  0  0  0  0  0  0  0  0  0
    0.6411    1.9354    0.0000 C   0  0  0  0  0  0  0  0  0  0  0  0
   -0.1435    2.1904    0.0000 N   0  0  0  0  0  0  0  0  0  0  0  0
    0.6411    1.1104    0.0000 N   0  0  0  0  0  0  0  0  0  0  0  0
    2.7845    0.6979    0.0000 O   0  0  0  0  0  0  0  0  0  0  0  0
    2.7845    2.3479    0.0000 O   0  0  0  0  0  0  0  0  0  0  0  0
    1.3556    3.1729    0.0000 O   0  0  0  0  0  0  0  0  0  0  0  0
    2.0701    0.2854    0.0000 H   0  0  0  0  0  0  0  0  0  0  0  0
    2.7845    1.5229    0.0000 H   0  0  0  0  0  0  0  0  0  0  0  0
    2.0701    2.7604    0.0000 H   0  0  0  0  0  0  0  0  0  0  0  0
   -1.6604    1.5229    0.0000 H   0  0  0  0  0  0  0  0  0  0  0  0
   -0.4624   -0.1260    0.0000 H   0  0  0  0  0  0  0  0  0  0  0  0
    1.3556   -0.3721    0.0000 H   0  0  0  0  0  0  0  0  0  0  0  0
    0.4290    0.1629    0.0000 H   0  0  0  0  0  0  0  0  0  0  0  0
    2.7845   -0.2721    0.0000 H   0  0  0  0  0  0  0  0  0  0  0  0
    3.6246    1.8629    0.0000 H   0  0  0  0  0  0  0  0  0  0  0  0
    2.1956    3.6579    0.0000 H   0  0  0  0  0  0  0  0  0  0  0  0
  1 16  1  0  0  0  0
  2  1  2  0  0  0  0
  2 17  1  0  0  0  0
  3 18  1  0  0  0  0
  3 19  1  0  0  0  0
  4  3  1  0  0  0  0
  4 10  1  0  0  0  0
  4 13  1  1  0  0  0
  5  4  1  0  0  0  0
  5 11  1  0  0  0  0
  5 14  1  6  0  0  0
  6  5  1  0  0  0  0
  6 12  1  0  0  0  0
  6 15  1  1  0  0  0
  7  6  1  0  0  0  0
  8  1  1  0  0  0  0
  8  7  2  0  0  0  0
  9  2  1  0  0  0  0
  9  3  1  0  0  0  0
  9  7  1  0  0  0  0
 10 20  1  0  0  0  0
 11 21  1  0  0  0  0
 12 22  1  0  0  0  0
M  END
>  <DRUGBANK_ID>
DB02374

>  <SECONDARY_ACCESSION_NUMBERS>
EXPT03259

>  <COMMON_NAME>
Xylose-Derived Imidazole

$$$$
