
 OpenBabel10282417072D

 59 64  0  0  1  0  0  0  0  0999 V2000
    0.2702    0.6287    0.0000 F   0  0  0  0  0  0  0  0  0  0  0  0
    0.9377    0.1437    0.0000 C   0  0  0  0  0  0  0  0  0  0  0  0
    1.6913    0.4793    0.0000 C   0  0  0  0  0  0  0  0  0  0  0  0
    1.9463    1.2639    0.0000 C   0  0  2  0  0  0  0  0  0  0  0  0
    1.4614    1.9314    0.0000 C   0  0  0  0  0  0  0  0  0  0  0  0
    1.7969    2.6850    0.0000 N   0  0  0  0  0  0  0  0  0  0  0  0
    1.3120    3.3525    0.0000 C   0  0  0  0  0  0  0  0  0  0  0  0
    1.6475    4.1062    0.0000 C   0  0  0  0  0  0  0  0  0  0  0  0
    2.4680    4.1924    0.0000 C   0  0  3  0  0  0  0  0  0  0  0  0
    2.9530    3.5250    0.0000 C   0  0  0  0  0  0  0  0  0  0  0  0
    2.6174    2.7713    0.0000 C   0  0  0  0  0  0  0  0  0  0  0  0
    2.8036    4.9461    0.0000 N   0  0  0  0  0  0  0  0  0  0  0  0
    3.6241    5.0323    0.0000 C   0  0  0  0  0  0  0  0  0  0  0  0
    3.9596    5.7860    0.0000 C   0  0  0  0  0  0  0  0  0  0  0  0
    3.4747    6.4534    0.0000 N   0  0  0  0  0  0  0  0  0  0  0  0
    3.8103    7.2071    0.0000 N   0  0  0  0  0  0  0  0  0  0  0  0
    4.6307    7.2933    0.0000 C   0  0  0  0  0  0  0  0  0  0  0  0
    4.9663    8.0470    0.0000 O   0  0  0  0  0  0  0  0  0  0  0  0
    5.7868    8.1332    0.0000 C   0  0  0  0  0  0  0  0  0  0  0  0
    6.2717    7.4658    0.0000 C   0  0  0  0  0  0  0  0  0  0  0  0
    5.9361    6.7121    0.0000 O   0  0  0  0  0  0  0  0  0  0  0  0
    5.1157    6.6259    0.0000 C   0  0  0  0  0  0  0  0  0  0  0  0
    4.7801    5.8722    0.0000 C   0  0  0  0  0  0  0  0  0  0  0  0
    2.7713    1.2639    0.0000 C   0  0  0  0  0  0  0  0  0  0  0  0
    3.0262    0.4793    0.0000 N   0  0  0  0  0  0  0  0  0  0  0  0
    2.3588   -0.0056    0.0000 C   0  0  0  0  0  0  0  0  0  0  0  0
    2.2725   -0.8261    0.0000 C   0  0  0  0  0  0  0  0  0  0  0  0
    3.1987   -1.1617    0.0000 C   0  0  0  0  0  0  0  0  0  0  0  0
    3.8661   -0.6767    0.0000 C   0  0  0  0  0  0  0  0  0  0  0  0
    3.7799    0.1437    0.0000 C   0  0  0  0  0  0  0  0  0  0  0  0
    4.4473    0.6287    0.0000 O   0  0  0  0  0  0  0  0  0  0  0  0
    1.5189   -1.1617    0.0000 C   0  0  0  0  0  0  0  0  0  0  0  0
    0.8514   -0.6767    0.0000 C   0  0  0  0  0  0  0  0  0  0  0  0
    0.8895    1.0966    0.0000 H   0  0  0  0  0  0  0  0  0  0  0  0
    0.3973    1.8196    0.0000 H   0  0  0  0  0  0  0  0  0  0  0  0
    0.8325    2.7970    0.0000 H   0  0  0  0  0  0  0  0  0  0  0  0
    0.2479    3.2406    0.0000 H   0  0  0  0  0  0  0  0  0  0  0  0
    0.6830    4.2181    0.0000 H   0  0  0  0  0  0  0  0  0  0  0  0
    1.0186    4.9718    0.0000 H   0  0  0  0  0  0  0  0  0  0  0  0
    2.0827    5.0837    0.0000 H   0  0  0  0  0  0  0  0  0  0  0  0
    2.0328    3.2149    0.0000 H   0  0  0  0  0  0  0  0  0  0  0  0
    4.0171    3.6369    0.0000 H   0  0  0  0  0  0  0  0  0  0  0  0
    3.5819    2.6594    0.0000 H   0  0  0  0  0  0  0  0  0  0  0  0
    3.2463    1.9057    0.0000 H   0  0  0  0  0  0  0  0  0  0  0  0
    2.1822    1.7938    0.0000 H   0  0  0  0  0  0  0  0  0  0  0  0
    2.2041    5.7713    0.0000 H   0  0  0  0  0  0  0  0  0  0  0  0
    4.2530    4.1667    0.0000 H   0  0  0  0  0  0  0  0  0  0  0  0
    4.6882    5.1442    0.0000 H   0  0  0  0  0  0  0  0  0  0  0  0
    6.2220    9.1107    0.0000 H   0  0  0  0  0  0  0  0  0  0  0  0
    6.8509    8.2450    0.0000 H   0  0  0  0  0  0  0  0  0  0  0  0
    7.3358    7.5776    0.0000 H   0  0  0  0  0  0  0  0  0  0  0  0
    6.9006    6.6001    0.0000 H   0  0  0  0  0  0  0  0  0  0  0  0
    5.3867    5.0373    0.0000 H   0  0  0  0  0  0  0  0  0  0  0  0
    3.4002    2.1295    0.0000 H   0  0  0  0  0  0  0  0  0  0  0  0
    3.8281    1.0965    0.0000 H   0  0  0  0  0  0  0  0  0  0  0  0
    3.3431   -2.1835    0.0000 H   0  0  0  0  0  0  0  0  0  0  0  0
    4.8089   -1.0964    0.0000 H   0  0  0  0  0  0  0  0  0  0  0  0
    1.4111   -2.1880    0.0000 H   0  0  0  0  0  0  0  0  0  0  0  0
   -0.0914   -1.0964    0.0000 H   0  0  0  0  0  0  0  0  0  0  0  0
  1  2  1  0  0  0  0
  2  3  2  0  0  0  0
  2 33  1  0  0  0  0
  3 26  1  0  0  0  0
  4  3  1  0  0  0  0
  4  5  1  0  0  0  0
  4 24  1  0  0  0  0
  4 34  1  1  0  0  0
  5  6  1  0  0  0  0
  5 35  1  0  0  0  0
  5 36  1  0  0  0  0
  6  7  1  0  0  0  0
  6 11  1  0  0  0  0
  7  8  1  0  0  0  0
  7 37  1  0  0  0  0
  7 38  1  0  0  0  0
  8  9  1  0  0  0  0
  8 39  1  0  0  0  0
  8 40  1  0  0  0  0
  9 10  1  0  0  0  0
  9 12  1  0  0  0  0
  9 41  1  0  0  0  0
 10 11  1  0  0  0  0
 10 42  1  0  0  0  0
 10 43  1  0  0  0  0
 11 44  1  0  0  0  0
 11 45  1  0  0  0  0
 12 13  1  0  0  0  0
 12 46  1  0  0  0  0
 13 14  1  0  0  0  0
 13 47  1  0  0  0  0
 13 48  1  0  0  0  0
 14 15  2  0  0  0  0
 14 23  1  0  0  0  0
 15 16  1  0  0  0  0
 16 17  2  0  0  0  0
 17 18  1  0  0  0  0
 17 22  1  0  0  0  0
 18 19  1  0  0  0  0
 19 20  1  0  0  0  0
 19 49  1  0  0  0  0
 19 50  1  0  0  0  0
 20 21  1  0  0  0  0
 20 51  1  0  0  0  0
 20 52  1  0  0  0  0
 21 22  1  0  0  0  0
 22 23  2  0  0  0  0
 23 53  1  0  0  0  0
 24 25  1  0  0  0  0
 24 54  1  0  0  0  0
 24 55  1  0  0  0  0
 25 26  1  0  0  0  0
 25 30  1  0  0  0  0
 26 27  2  0  0  0  0
 27 28  1  0  0  0  0
 27 32  1  0  0  0  0
 28 29  2  0  0  0  0
 28 56  1  0  0  0  0
 29 30  1  0  0  0  0
 29 57  1  0  0  0  0
 30 31  2  0  0  0  0
 32 33  2  0  0  0  0
 32 58  1  0  0  0  0
 33 59  1  0  0  0  0
M  END
>  <DRUGBANK_ID>
DB15345

>  <COMMON_NAME>
GSK-945237

>  <CAS_NUMBER>
944406-54-6

>  <UNII>
U9T63BZ3AS

$$$$
