
 OpenBabel10282417072D

 20 20  0  0  0  0  0  0  0  0999 V2000
    1.0717   -1.2375    0.0000 C   0  0  0  0  0  0  0  0  0  0  0  0
   -0.3572   -1.2375    0.0000 C   0  0  0  0  0  0  0  0  0  0  0  0
    1.0717   -0.4125    0.0000 C   0  0  0  0  0  0  0  0  0  0  0  0
   -0.3572   -0.4125    0.0000 C   0  0  0  0  0  0  0  0  0  0  0  0
   -0.3572    2.0625    0.0000 C   0  0  0  0  0  0  0  0  0  0  0  0
   -0.3572    1.2375    0.0000 C   0  0  0  0  0  0  0  0  0  0  0  0
    0.3572   -1.6500    0.0000 C   0  0  0  0  0  0  0  0  0  0  0  0
    0.3572    0.0000    0.0000 C   0  0  0  0  0  0  0  0  0  0  0  0
    0.3572   -2.4750    0.0000 Cl  0  0  0  0  0  0  0  0  0  0  0  0
   -1.0717    2.4750    0.0000 O   0  0  0  0  0  0  0  0  0  0  0  0
    0.3572    0.8250    0.0000 O   0  0  0  0  0  0  0  0  0  0  0  0
    1.9654   -1.7535    0.0000 H   0  0  0  0  0  0  0  0  0  0  0  0
   -1.2509   -1.7535    0.0000 H   0  0  0  0  0  0  0  0  0  0  0  0
    1.9654    0.1035    0.0000 H   0  0  0  0  0  0  0  0  0  0  0  0
   -1.2509    0.1035    0.0000 H   0  0  0  0  0  0  0  0  0  0  0  0
    0.5694    2.5975    0.0000 H   0  0  0  0  0  0  0  0  0  0  0  0
   -0.3572    3.1325    0.0000 H   0  0  0  0  0  0  0  0  0  0  0  0
   -1.2839    0.7025    0.0000 H   0  0  0  0  0  0  0  0  0  0  0  0
   -0.3572    0.1675    0.0000 H   0  0  0  0  0  0  0  0  0  0  0  0
   -1.0717    3.4450    0.0000 H   0  0  0  0  0  0  0  0  0  0  0  0
  1 12  1  0  0  0  0
  2 13  1  0  0  0  0
  3  1  1  0  0  0  0
  3 14  1  0  0  0  0
  4  2  2  0  0  0  0
  4 15  1  0  0  0  0
  5 16  1  0  0  0  0
  5 17  1  0  0  0  0
  6  5  1  0  0  0  0
  6 18  1  0  0  0  0
  6 19  1  0  0  0  0
  7  1  2  0  0  0  0
  7  2  1  0  0  0  0
  8  3  2  0  0  0  0
  8  4  1  0  0  0  0
  9  7  1  0  0  0  0
 10  5  1  0  0  0  0
 10 20  1  0  0  0  0
 11  6  1  0  0  0  0
 11  8  1  0  0  0  0
M  END
>  <DRUGBANK_ID>
DB11368

>  <COMMON_NAME>
Chlorophetanol

>  <CAS_NUMBER>
1892-43-9

>  <UNII>
Q73I5T98DA

>  <SYNONYMS>
2-(4-Chlorophenoxy)ethanol; 2-(4-chlorphenoxy)-ethanol; 2-(p-Chlorophenoxy)ethanol; p-Chlorophenyl glycol ether; p-Chlorophenyl monoglycol ether

$$$$
