
 OpenBabel10282417072D

 45 46  0  0  0  0  0  0  0  0999 V2000
   -0.4125   -0.3572    0.0000 C   0  0  0  0  0  0  0  0  0  0  0  0
   -1.2375   -0.3572    0.0000 C   0  0  0  0  0  0  0  0  0  0  0  0
   -1.6500    0.3572    0.0000 C   0  0  0  0  0  0  0  0  0  0  0  0
    0.0000   -1.0716    0.0000 O   0  0  0  0  0  0  0  0  0  0  0  0
    0.0000    0.3572    0.0000 N   0  0  0  0  0  0  0  0  0  0  0  0
    0.8250    0.3572    0.0000 C   0  0  0  0  0  0  0  0  0  0  0  0
    1.2375   -0.3572    0.0000 C   0  0  0  0  0  0  0  0  0  0  0  0
    2.0625   -0.3572    0.0000 C   0  0  0  0  0  0  0  0  0  0  0  0
    2.4750   -1.0716    0.0000 C   0  0  0  0  0  0  0  0  0  0  0  0
    3.3000   -1.0716    0.0000 C   0  0  0  0  0  0  0  0  0  0  0  0
    3.7125   -0.3572    0.0000 C   0  0  0  0  0  0  0  0  0  0  0  0
    4.5375   -0.3572    0.0000 C   0  0  0  0  0  0  0  0  0  0  0  0
    4.9500   -1.0716    0.0000 C   0  0  0  0  0  0  0  0  0  0  0  0
    4.5375   -1.7861    0.0000 C   0  0  0  0  0  0  0  0  0  0  0  0
    3.7125   -1.7861    0.0000 C   0  0  0  0  0  0  0  0  0  0  0  0
   -2.4750    0.3572    0.0000 C   0  0  0  0  0  0  0  0  0  0  0  0
   -2.8875    1.0716    0.0000 C   0  0  0  0  0  0  0  0  0  0  0  0
   -3.7125    1.0716    0.0000 C   0  0  0  0  0  0  0  0  0  0  0  0
   -4.1250    0.3572    0.0000 C   0  0  0  0  0  0  0  0  0  0  0  0
   -3.7125   -0.3572    0.0000 C   0  0  0  0  0  0  0  0  0  0  0  0
   -2.8875   -0.3572    0.0000 C   0  0  0  0  0  0  0  0  0  0  0  0
   -4.9500    0.3572    0.0000 O   0  0  0  0  0  0  0  0  0  0  0  0
   -4.1250    1.7861    0.0000 O   0  0  0  0  0  0  0  0  0  0  0  0
   -1.6500   -1.0716    0.0000 C   0  0  0  0  0  0  0  0  0  0  0  0
   -2.0625   -1.7861    0.0000 N   0  0  0  0  0  0  0  0  0  0  0  0
   -1.1340    1.2509    0.0000 H   0  0  0  0  0  0  0  0  0  0  0  0
   -0.4922    1.2098    0.0000 H   0  0  0  0  0  0  0  0  0  0  0  0
    1.3600    1.2839    0.0000 H   0  0  0  0  0  0  0  0  0  0  0  0
    0.2900    1.2838    0.0000 H   0  0  0  0  0  0  0  0  0  0  0  0
    0.7025   -1.2839    0.0000 H   0  0  0  0  0  0  0  0  0  0  0  0
    1.7725   -1.2838    0.0000 H   0  0  0  0  0  0  0  0  0  0  0  0
    2.5975    0.5695    0.0000 H   0  0  0  0  0  0  0  0  0  0  0  0
    3.1325   -0.3572    0.0000 H   0  0  0  0  0  0  0  0  0  0  0  0
    1.9400   -1.9983    0.0000 H   0  0  0  0  0  0  0  0  0  0  0  0
    3.0100   -1.9982    0.0000 H   0  0  0  0  0  0  0  0  0  0  0  0
    3.1965    0.5365    0.0000 H   0  0  0  0  0  0  0  0  0  0  0  0
    5.0535    0.5365    0.0000 H   0  0  0  0  0  0  0  0  0  0  0  0
    5.9820   -1.0716    0.0000 H   0  0  0  0  0  0  0  0  0  0  0  0
    5.0535   -2.6798    0.0000 H   0  0  0  0  0  0  0  0  0  0  0  0
    3.1965   -2.6798    0.0000 H   0  0  0  0  0  0  0  0  0  0  0  0
   -2.3715    1.9653    0.0000 H   0  0  0  0  0  0  0  0  0  0  0  0
   -4.2285   -1.2509    0.0000 H   0  0  0  0  0  0  0  0  0  0  0  0
   -2.3715   -1.2509    0.0000 H   0  0  0  0  0  0  0  0  0  0  0  0
   -5.4185    1.1687    0.0000 H   0  0  0  0  0  0  0  0  0  0  0  0
   -3.6565    2.5976    0.0000 H   0  0  0  0  0  0  0  0  0  0  0  0
  1  2  1  0  0  0  0
  1  4  2  0  0  0  0
  1  5  1  0  0  0  0
  2  3  2  0  0  0  0
  2 24  1  0  0  0  0
  3 16  1  0  0  0  0
  3 26  1  0  0  0  0
  5  6  1  0  0  0  0
  5 27  1  0  0  0  0
  6  7  1  0  0  0  0
  6 28  1  0  0  0  0
  6 29  1  0  0  0  0
  7  8  1  0  0  0  0
  7 30  1  0  0  0  0
  7 31  1  0  0  0  0
  8  9  1  0  0  0  0
  8 32  1  0  0  0  0
  8 33  1  0  0  0  0
  9 10  1  0  0  0  0
  9 34  1  0  0  0  0
  9 35  1  0  0  0  0
 10 11  1  0  0  0  0
 10 15  2  0  0  0  0
 11 12  2  0  0  0  0
 11 36  1  0  0  0  0
 12 13  1  0  0  0  0
 12 37  1  0  0  0  0
 13 14  2  0  0  0  0
 13 38  1  0  0  0  0
 14 15  1  0  0  0  0
 14 39  1  0  0  0  0
 15 40  1  0  0  0  0
 16 17  1  0  0  0  0
 16 21  2  0  0  0  0
 17 18  2  0  0  0  0
 17 41  1  0  0  0  0
 18 19  1  0  0  0  0
 18 23  1  0  0  0  0
 19 20  2  0  0  0  0
 19 22  1  0  0  0  0
 20 21  1  0  0  0  0
 20 42  1  0  0  0  0
 21 43  1  0  0  0  0
 22 44  1  0  0  0  0
 23 45  1  0  0  0  0
 24 25  3  0  0  0  0
M  END
>  <DRUGBANK_ID>
DB16775

>  <COMMON_NAME>
Tyrphostin B56

>  <CAS_NUMBER>
149092-35-3

>  <SYNONYMS>
AG 556; AG-556; AG556; Tyrphostin AG-556; Tyrphostin AG556

$$$$
