
 OpenBabel10282417072D

 58 58  0  0  1  0  0  0  0  0999 V2000
    2.1434   -6.1875    0.0000 C   0  0  0  0  0  0  0  0  0  0  0  0
    2.8579   -6.6000    0.0000 C   0  0  0  0  0  0  0  0  0  0  0  0
    3.5724   -6.1875    0.0000 C   0  0  0  0  0  0  0  0  0  0  0  0
    4.2868   -6.6000    0.0000 C   0  0  0  0  0  0  0  0  0  0  0  0
    5.0013   -6.1875    0.0000 C   0  0  0  0  0  0  0  0  0  0  0  0
    5.7158   -6.6000    0.0000 C   0  0  0  0  0  0  0  0  0  0  0  0
    6.4302   -6.1875    0.0000 C   0  0  0  0  0  0  0  0  0  0  0  0
    7.1447   -6.6000    0.0000 C   0  0  0  0  0  0  0  0  0  0  0  0
    7.8592   -6.1875    0.0000 N   0  0  0  0  0  0  0  0  0  0  0  0
    8.5737   -6.6000    0.0000 C   0  0  1  0  0  0  0  0  0  0  0  0
    8.5737   -7.4250    0.0000 C   0  0  0  0  0  0  0  0  0  0  0  0
    9.2881   -6.1875    0.0000 C   0  0  1  0  0  0  0  0  0  0  0  0
   10.0026   -6.6000    0.0000 C   0  0  0  0  0  0  0  0  0  0  0  0
   10.7171   -6.1875    0.0000 C   0  0  0  0  0  0  0  0  0  0  0  0
   11.4315   -6.6000    0.0000 C   0  0  0  0  0  0  0  0  0  0  0  0
   11.4315   -7.4250    0.0000 C   0  0  0  0  0  0  0  0  0  0  0  0
   10.7171   -7.8375    0.0000 C   0  0  0  0  0  0  0  0  0  0  0  0
   10.0026   -7.4250    0.0000 C   0  0  0  0  0  0  0  0  0  0  0  0
   12.1460   -7.8375    0.0000 S   0  0  0  0  0  0  0  0  0  0  0  0
   12.1460   -8.6625    0.0000 C   0  0  0  0  0  0  0  0  0  0  0  0
   12.8605   -9.0750    0.0000 C   0  0  0  0  0  0  0  0  0  0  0  0
   11.4315   -9.0750    0.0000 C   0  0  0  0  0  0  0  0  0  0  0  0
    9.2881   -5.3625    0.0000 O   0  0  0  0  0  0  0  0  0  0  0  0
    2.1434   -5.1175    0.0000 H   0  0  0  0  0  0  0  0  0  0  0  0
    1.2168   -6.7225    0.0000 H   0  0  0  0  0  0  0  0  0  0  0  0
    1.2167   -5.6525    0.0000 H   0  0  0  0  0  0  0  0  0  0  0  0
    2.8579   -7.6700    0.0000 H   0  0  0  0  0  0  0  0  0  0  0  0
    3.7845   -7.1350    0.0000 H   0  0  0  0  0  0  0  0  0  0  0  0
    3.5724   -5.1175    0.0000 H   0  0  0  0  0  0  0  0  0  0  0  0
    4.4991   -5.6525    0.0000 H   0  0  0  0  0  0  0  0  0  0  0  0
    4.2868   -7.6700    0.0000 H   0  0  0  0  0  0  0  0  0  0  0  0
    5.2134   -7.1350    0.0000 H   0  0  0  0  0  0  0  0  0  0  0  0
    5.0013   -5.1175    0.0000 H   0  0  0  0  0  0  0  0  0  0  0  0
    5.9279   -5.6525    0.0000 H   0  0  0  0  0  0  0  0  0  0  0  0
    5.7158   -7.6700    0.0000 H   0  0  0  0  0  0  0  0  0  0  0  0
    6.6425   -7.1350    0.0000 H   0  0  0  0  0  0  0  0  0  0  0  0
    6.4302   -5.1175    0.0000 H   0  0  0  0  0  0  0  0  0  0  0  0
    7.3568   -5.6525    0.0000 H   0  0  0  0  0  0  0  0  0  0  0  0
    7.1447   -7.6700    0.0000 H   0  0  0  0  0  0  0  0  0  0  0  0
    8.0713   -7.1350    0.0000 H   0  0  0  0  0  0  0  0  0  0  0  0
    7.8592   -5.1675    0.0000 H   0  0  0  0  0  0  0  0  0  0  0  0
    7.6471   -7.1350    0.0000 H   0  0  0  0  0  0  0  0  0  0  0  0
    7.6471   -7.9600    0.0000 H   0  0  0  0  0  0  0  0  0  0  0  0
    9.5003   -7.9600    0.0000 H   0  0  0  0  0  0  0  0  0  0  0  0
    8.5737   -8.4950    0.0000 H   0  0  0  0  0  0  0  0  0  0  0  0
    8.3614   -5.6525    0.0000 H   0  0  0  0  0  0  0  0  0  0  0  0
   10.7171   -5.1555    0.0000 H   0  0  0  0  0  0  0  0  0  0  0  0
   12.3252   -6.0840    0.0000 H   0  0  0  0  0  0  0  0  0  0  0  0
   10.7171   -8.8695    0.0000 H   0  0  0  0  0  0  0  0  0  0  0  0
    9.1089   -7.9410    0.0000 H   0  0  0  0  0  0  0  0  0  0  0  0
   12.1460   -9.7325    0.0000 H   0  0  0  0  0  0  0  0  0  0  0  0
   12.8605  -10.1450    0.0000 H   0  0  0  0  0  0  0  0  0  0  0  0
   13.7871   -8.5400    0.0000 H   0  0  0  0  0  0  0  0  0  0  0  0
   13.7872   -9.6100    0.0000 H   0  0  0  0  0  0  0  0  0  0  0  0
   10.5049   -8.5400    0.0000 H   0  0  0  0  0  0  0  0  0  0  0  0
   11.4315  -10.1450    0.0000 H   0  0  0  0  0  0  0  0  0  0  0  0
   10.5048   -9.6100    0.0000 H   0  0  0  0  0  0  0  0  0  0  0  0
   10.1281   -4.8775    0.0000 H   0  0  0  0  0  0  0  0  0  0  0  0
  1  2  1  0  0  0  0
  1 24  1  0  0  0  0
  1 25  1  0  0  0  0
  1 26  1  0  0  0  0
  2  3  1  0  0  0  0
  2 27  1  0  0  0  0
  2 28  1  0  0  0  0
  3  4  1  0  0  0  0
  3 29  1  0  0  0  0
  3 30  1  0  0  0  0
  4  5  1  0  0  0  0
  4 31  1  0  0  0  0
  4 32  1  0  0  0  0
  5  6  1  0  0  0  0
  5 33  1  0  0  0  0
  5 34  1  0  0  0  0
  6  7  1  0  0  0  0
  6 35  1  0  0  0  0
  6 36  1  0  0  0  0
  7  8  1  0  0  0  0
  7 37  1  0  0  0  0
  7 38  1  0  0  0  0
  8  9  1  0  0  0  0
  8 39  1  0  0  0  0
  8 40  1  0  0  0  0
  9 10  1  0  0  0  0
  9 41  1  0  0  0  0
 10 11  1  0  0  0  0
 10 12  1  0  0  0  0
 10 42  1  1  0  0  0
 11 43  1  0  0  0  0
 11 44  1  0  0  0  0
 11 45  1  0  0  0  0
 12 13  1  0  0  0  0
 12 23  1  0  0  0  0
 12 46  1  1  0  0  0
 13 14  2  0  0  0  0
 13 18  1  0  0  0  0
 14 15  1  0  0  0  0
 14 47  1  0  0  0  0
 15 16  2  0  0  0  0
 15 48  1  0  0  0  0
 16 17  1  0  0  0  0
 16 19  1  0  0  0  0
 17 18  2  0  0  0  0
 17 49  1  0  0  0  0
 18 50  1  0  0  0  0
 19 20  1  0  0  0  0
 20 21  1  0  0  0  0
 20 22  1  0  0  0  0
 20 51  1  0  0  0  0
 21 52  1  0  0  0  0
 21 53  1  0  0  0  0
 21 54  1  0  0  0  0
 22 55  1  0  0  0  0
 22 56  1  0  0  0  0
 22 57  1  0  0  0  0
 23 58  1  0  0  0  0
M  END
>  <DRUGBANK_ID>
DB13340

>  <COMMON_NAME>
Suloctidil

>  <CAS_NUMBER>
54767-75-8

>  <UNII>
XV1N1XY17K

>  <SYNONYMS>
Suloctidil

$$$$
