MNP
 OpenBabel10282417072D

 20 20  0  0  0  0  0  0  0  0999 V2000
    1.7084    0.4074    0.0000 C   0  0  0  0  0  0  0  0  0  0  0  0
    0.9940    0.8199    0.0000 C   0  0  0  0  0  0  0  0  0  0  0  0
    0.2795    0.4074    0.0000 C   0  0  0  0  0  0  0  0  0  0  0  0
    0.2795   -0.4176    0.0000 C   0  0  0  0  0  0  0  0  0  0  0  0
   -0.4350   -0.8301    0.0000 C   0  0  0  0  0  0  0  0  0  0  0  0
   -0.4350   -1.6551    0.0000 N   0  3  0  0  0  0  0  0  0  0  0  0
   -1.1494   -2.0676    0.0000 O   0  5  0  0  0  0  0  0  0  0  0  0
    0.2795   -2.0676    0.0000 O   0  0  0  0  0  0  0  0  0  0  0  0
   -1.1494   -0.4176    0.0000 C   0  0  0  0  0  0  0  0  0  0  0  0
   -1.1494    0.4074    0.0000 C   0  0  0  0  0  0  0  0  0  0  0  0
   -0.4350    0.8199    0.0000 C   0  0  0  0  0  0  0  0  0  0  0  0
    2.4229    0.8199    0.0000 O   0  0  0  0  0  0  0  0  0  0  0  0
    1.7084   -0.4176    0.0000 O   0  0  0  0  0  0  0  0  0  0  0  0
    0.9940    1.8899    0.0000 H   0  0  0  0  0  0  0  0  0  0  0  0
    0.0674    1.3549    0.0000 H   0  0  0  0  0  0  0  0  0  0  0  0
    1.1732   -0.9336    0.0000 H   0  0  0  0  0  0  0  0  0  0  0  0
   -2.0431   -0.9336    0.0000 H   0  0  0  0  0  0  0  0  0  0  0  0
   -2.0431    0.9234    0.0000 H   0  0  0  0  0  0  0  0  0  0  0  0
   -0.4350    1.8519    0.0000 H   0  0  0  0  0  0  0  0  0  0  0  0
    0.8969   -0.8861    0.0000 H   0  0  0  0  0  0  0  0  0  0  0  0
  1  2  1  0  0  0  0
  1 12  2  0  0  0  0
  1 13  1  0  0  0  0
  2  3  1  0  0  0  0
  2 14  1  0  0  0  0
  2 15  1  0  0  0  0
  3  4  2  0  0  0  0
  3 11  1  0  0  0  0
  4  5  1  0  0  0  0
  4 16  1  0  0  0  0
  5  6  1  0  0  0  0
  5  9  2  0  0  0  0
  6  7  1  0  0  0  0
  6  8  2  0  0  0  0
  9 10  1  0  0  0  0
  9 17  1  0  0  0  0
 10 11  2  0  0  0  0
 10 18  1  0  0  0  0
 11 19  1  0  0  0  0
 13 20  1  0  0  0  0
M  CHG  2   6   1   7  -1
M  END
>  <DRUGBANK_ID>
DB08193

>  <COMMON_NAME>
2-(3-NITROPHENYL)ACETIC ACID

$$$$
