
 OpenBabel10282417072D

 59 60  0  0  0  0  0  0  0  0999 V2000
   -3.6422   -1.3424    0.0000 O   0  0  0  0  0  0  0  0  0  0  0  0
   -3.6422    1.5526    0.0000 O   0  0  0  0  0  0  0  0  0  0  0  0
    0.7004   -0.3074    0.0000 O   0  0  0  0  0  0  0  0  0  0  0  0
   -0.1244   -1.7161    0.0000 O   0  0  0  0  0  0  0  0  0  0  0  0
    3.1909    1.2179    0.0000 O   0  0  0  0  0  0  0  0  0  0  0  0
    2.4827    2.4632    0.0000 O   0  0  0  0  0  0  0  0  0  0  0  0
   -2.6072   -0.3074    0.0000 C   0  0  1  0  0  0  0  0  0  0  0  0
   -2.6072    0.5175    0.0000 C   0  0  1  0  0  0  0  0  0  0  0  0
   -3.3933   -0.5564    0.0000 C   0  0  2  0  0  0  0  0  0  0  0  0
   -3.3933    0.7666    0.0000 C   0  0  1  0  0  0  0  0  0  0  0  0
   -3.8913    0.1050    0.0000 C   0  0  0  0  0  0  0  0  0  0  0  0
   -1.7822   -0.3074    0.0000 C   0  0  0  0  0  0  0  0  0  0  0  0
   -1.7822    0.5175    0.0000 C   0  0  0  0  0  0  0  0  0  0  0  0
   -1.3697   -1.0156    0.0000 C   0  0  0  0  0  0  0  0  0  0  0  0
   -1.3697    1.2179    0.0000 C   0  0  0  0  0  0  0  0  0  0  0  0
   -0.5369   -1.0156    0.0000 C   0  0  1  0  0  0  0  0  0  0  0  0
   -0.1244   -0.3074    0.0000 C   0  0  0  0  0  0  0  0  0  0  0  0
    1.1207   -1.0156    0.0000 C   0  0  0  0  0  0  0  0  0  0  0  0
   -0.5369    1.2179    0.0000 C   0  0  0  0  0  0  0  0  0  0  0  0
    1.9457   -1.0156    0.0000 C   0  0  0  0  0  0  0  0  0  0  0  0
    0.7004   -1.7627    0.0000 C   0  0  0  0  0  0  0  0  0  0  0  0
    0.2879    1.2179    0.0000 C   0  0  0  0  0  0  0  0  0  0  0  0
    2.3582   -1.7627    0.0000 C   0  0  0  0  0  0  0  0  0  0  0  0
    1.1207   -2.4632    0.0000 C   0  0  0  0  0  0  0  0  0  0  0  0
    1.9457   -2.4632    0.0000 C   0  0  0  0  0  0  0  0  0  0  0  0
    1.0351    1.6382    0.0000 C   0  0  0  0  0  0  0  0  0  0  0  0
    1.7356    1.2179    0.0000 C   0  0  0  0  0  0  0  0  0  0  0  0
    2.4827    1.6382    0.0000 C   0  0  0  0  0  0  0  0  0  0  0  0
    3.8913    1.6382    0.0000 C   0  0  0  0  0  0  0  0  0  0  0  0
   -4.5895   -1.5512    0.0000 H   0  0  0  0  0  0  0  0  0  0  0  0
   -2.9878    2.2686    0.0000 H   0  0  0  0  0  0  0  0  0  0  0  0
   -0.6022   -2.5603    0.0000 H   0  0  0  0  0  0  0  0  0  0  0  0
   -1.8506    0.4492    0.0000 H   0  0  0  0  0  0  0  0  0  0  0  0
   -1.8506   -0.2391    0.0000 H   0  0  0  0  0  0  0  0  0  0  0  0
   -2.6367   -1.3130    0.0000 H   0  0  0  0  0  0  0  0  0  0  0  0
   -2.6366    1.5231    0.0000 H   0  0  0  0  0  0  0  0  0  0  0  0
   -4.9613    0.1049    0.0000 H   0  0  0  0  0  0  0  0  0  0  0  0
   -4.3690    1.0624    0.0000 H   0  0  0  0  0  0  0  0  0  0  0  0
   -1.2679    0.5873    0.0000 H   0  0  0  0  0  0  0  0  0  0  0  0
   -1.2512   -0.4115    0.0000 H   0  0  0  0  0  0  0  0  0  0  0  0
   -0.7122    0.5106    0.0000 H   0  0  0  0  0  0  0  0  0  0  0  0
   -1.8840   -1.9103    0.0000 H   0  0  0  0  0  0  0  0  0  0  0  0
   -1.8818    2.1139    0.0000 H   0  0  0  0  0  0  0  0  0  0  0  0
   -1.0679   -1.9445    0.0000 H   0  0  0  0  0  0  0  0  0  0  0  0
   -0.6576    0.6203    0.0000 H   0  0  0  0  0  0  0  0  0  0  0  0
   -1.1944   -0.3043    0.0000 H   0  0  0  0  0  0  0  0  0  0  0  0
    2.4702   -0.1268    0.0000 H   0  0  0  0  0  0  0  0  0  0  0  0
   -0.3315   -1.7771    0.0000 H   0  0  0  0  0  0  0  0  0  0  0  0
    0.5494    0.2196    0.0000 H   0  0  0  0  0  0  0  0  0  0  0  0
    3.3901   -1.7770    0.0000 H   0  0  0  0  0  0  0  0  0  0  0  0
    0.6122   -3.3612    0.0000 H   0  0  0  0  0  0  0  0  0  0  0  0
    2.4579   -3.3591    0.0000 H   0  0  0  0  0  0  0  0  0  0  0  0
    1.0501    2.7081    0.0000 H   0  0  0  0  0  0  0  0  0  0  0  0
    1.9699    2.1589    0.0000 H   0  0  0  0  0  0  0  0  0  0  0  0
    1.7206    0.1480    0.0000 H   0  0  0  0  0  0  0  0  0  0  0  0
    2.6554    0.6713    0.0000 H   0  0  0  0  0  0  0  0  0  0  0  0
    4.8268    1.1189    0.0000 H   0  0  0  0  0  0  0  0  0  0  0  0
    3.8732    2.7080    0.0000 H   0  0  0  0  0  0  0  0  0  0  0  0
    4.8088    2.1888    0.0000 H   0  0  0  0  0  0  0  0  0  0  0  0
  1 30  1  0  0  0  0
  2 31  1  0  0  0  0
  3 17  1  0  0  0  0
  3 18  1  0  0  0  0
  4 32  1  0  0  0  0
  5 28  1  0  0  0  0
  5 29  1  0  0  0  0
  6 28  2  0  0  0  0
  7  8  1  0  0  0  0
  7  9  1  0  0  0  0
  7 12  1  0  0  0  0
  7 33  1  1  0  0  0
  8 10  1  0  0  0  0
  8 13  1  0  0  0  0
  8 34  1  6  0  0  0
  9  1  1  0  0  0  0
  9 11  1  0  0  0  0
  9 35  1  6  0  0  0
 10  2  1  0  0  0  0
 10 11  1  0  0  0  0
 10 36  1  6  0  0  0
 11 37  1  0  0  0  0
 11 38  1  0  0  0  0
 12 14  2  0  0  0  0
 12 39  1  0  0  0  0
 13 15  1  0  0  0  0
 13 40  1  0  0  0  0
 13 41  1  0  0  0  0
 14 16  1  0  0  0  0
 14 42  1  0  0  0  0
 15 19  2  0  0  0  0
 15 43  1  0  0  0  0
 16  4  1  0  0  0  0
 16 17  1  0  0  0  0
 16 44  1  6  0  0  0
 17 45  1  0  0  0  0
 17 46  1  0  0  0  0
 18 20  2  0  0  0  0
 18 21  1  0  0  0  0
 19 22  2  0  0  0  0
 20 23  1  0  0  0  0
 20 47  1  0  0  0  0
 21 24  2  0  0  0  0
 21 48  1  0  0  0  0
 22 26  1  0  0  0  0
 22 49  1  0  0  0  0
 23 25  2  0  0  0  0
 23 50  1  0  0  0  0
 24 25  1  0  0  0  0
 24 51  1  0  0  0  0
 25 52  1  0  0  0  0
 26 27  1  0  0  0  0
 26 53  1  0  0  0  0
 26 54  1  0  0  0  0
 27 28  1  0  0  0  0
 27 55  1  0  0  0  0
 27 56  1  0  0  0  0
 29 57  1  0  0  0  0
 29 58  1  0  0  0  0
 29 59  1  0  0  0  0
M  END
>  <DRUGBANK_ID>
DB11411

>  <COMMON_NAME>
Fenprostalene

>  <CAS_NUMBER>
69381-94-8

>  <UNII>
X8I39OJF4P

>  <SYNONYMS>
Fenprostalene

$$$$
