
 OpenBabel10282417072D

 26 27  0  0  0  0  0  0  0  0999 V2000
    0.3019   -0.6740    0.0000 C   0  0  0  0  0  0  0  0  0  0  0  0
   -0.4125   -1.0865    0.0000 C   0  0  3  0  0  0  0  0  0  0  0  0
    0.3019    0.1509    0.0000 C   0  0  3  0  0  0  0  0  0  0  0  0
   -0.4125    0.5634    0.0000 C   0  0  0  0  0  0  0  0  0  0  0  0
   -1.1270   -0.6740    0.0000 C   0  0  0  0  0  0  0  0  0  0  0  0
   -1.1270    0.1509    0.0000 C   0  0  0  0  0  0  0  0  0  0  0  0
    1.1270   -0.6740    0.0000 C   0  0  0  0  0  0  0  0  0  0  0  0
    0.7144   -1.3885    0.0000 C   0  0  0  0  0  0  0  0  0  0  0  0
   -0.4125    1.3884    0.0000 C   0  0  0  0  0  0  0  0  0  0  0  0
   -0.4125   -0.2615    0.0000 C   0  0  0  0  0  0  0  0  0  0  0  0
   -0.4125   -0.0165    0.0000 H   0  0  0  0  0  0  0  0  0  0  0  0
   -0.6248   -0.3841    0.0000 H   0  0  0  0  0  0  0  0  0  0  0  0
   -2.0536   -1.2090    0.0000 H   0  0  0  0  0  0  0  0  0  0  0  0
   -2.0536   -0.1390    0.0000 H   0  0  0  0  0  0  0  0  0  0  0  0
   -2.0536    0.6859    0.0000 H   0  0  0  0  0  0  0  0  0  0  0  0
   -1.1270    1.2209    0.0000 H   0  0  0  0  0  0  0  0  0  0  0  0
    1.6620   -1.6006    0.0000 H   0  0  0  0  0  0  0  0  0  0  0  0
    1.6620    0.2526    0.0000 H   0  0  0  0  0  0  0  0  0  0  0  0
    2.1970   -0.6740    0.0000 H   0  0  0  0  0  0  0  0  0  0  0  0
    0.1794   -2.3151    0.0000 H   0  0  0  0  0  0  0  0  0  0  0  0
    1.7844   -1.3885    0.0000 H   0  0  0  0  0  0  0  0  0  0  0  0
    1.2494   -2.3152    0.0000 H   0  0  0  0  0  0  0  0  0  0  0  0
    0.4812    1.9044    0.0000 H   0  0  0  0  0  0  0  0  0  0  0  0
   -1.3062    1.9044    0.0000 H   0  0  0  0  0  0  0  0  0  0  0  0
   -1.3391    0.2735    0.0000 H   0  0  0  0  0  0  0  0  0  0  0  0
   -1.3392   -0.7965    0.0000 H   0  0  0  0  0  0  0  0  0  0  0  0
  1  7  1  0  0  0  0
  1  8  1  0  0  0  0
  1  2  1  0  0  0  0
  2  5  1  0  0  0  0
  2 11  1  0  0  0  0
  3  1  1  0  0  0  0
  3  4  1  0  0  0  0
  3 12  1  0  0  0  0
  4  9  2  0  0  0  0
  4  6  1  0  0  0  0
  5 13  1  0  0  0  0
  5 14  1  0  0  0  0
  6  5  1  0  0  0  0
  6 15  1  0  0  0  0
  6 16  1  0  0  0  0
  7 17  1  0  0  0  0
  7 18  1  0  0  0  0
  7 19  1  0  0  0  0
  8 20  1  0  0  0  0
  8 21  1  0  0  0  0
  8 22  1  0  0  0  0
  9 23  1  0  0  0  0
  9 24  1  0  0  0  0
 10  3  1  0  0  0  0
 10  2  1  0  0  0  0
 10 25  1  0  0  0  0
 10 26  1  0  0  0  0
M  END
>  <DRUGBANK_ID>
DB15574

>  <COMMON_NAME>
beta-Pinene

>  <CAS_NUMBER>
127-91-3

>  <UNII>
4MS8VHZ1HJ

>  <SYNONYMS>
2(10)-pinene; nopinene; pseudopinene; Î²-pinene

$$$$
