E6C
 OpenBabel10282417072D

 50 49  0  0  0  0  0  0  0  0999 V2000
    2.6391   -1.3299    0.0000 O   0  0  0  0  0  0  0  0  0  0  0  0
    3.3535   -0.0925    0.0000 C   0  0  0  0  0  0  0  0  0  0  0  0
    2.6391   -0.5049    0.0000 C   0  0  1  0  0  0  0  0  0  0  0  0
    1.9247   -0.0925    0.0000 C   0  0  0  0  0  0  0  0  0  0  0  0
    1.9247    0.7325    0.0000 O   0  0  0  0  0  0  0  0  0  0  0  0
    1.2103   -0.5049    0.0000 N   0  0  0  0  0  0  0  0  0  0  0  0
    0.4957   -0.0925    0.0000 C   0  0  2  0  0  0  0  0  0  0  0  0
   -0.2186   -0.5049    0.0000 C   0  0  0  0  0  0  0  0  0  0  0  0
   -0.2186   -1.3299    0.0000 O   0  0  0  0  0  0  0  0  0  0  0  0
   -0.9331   -0.0925    0.0000 N   0  0  0  0  0  0  0  0  0  0  0  0
   -1.6475   -0.5049    0.0000 C   0  0  0  0  0  0  0  0  0  0  0  0
   -2.3620   -0.0925    0.0000 C   0  0  0  0  0  0  0  0  0  0  0  0
   -3.0763   -0.5049    0.0000 C   0  0  0  0  0  0  0  0  0  0  0  0
   -3.7908   -0.0925    0.0000 C   0  0  0  0  0  0  0  0  0  0  0  0
   -3.0763   -1.3299    0.0000 C   0  0  0  0  0  0  0  0  0  0  0  0
    4.0680   -0.5049    0.0000 C   0  0  0  0  0  0  0  0  0  0  0  0
    4.7825   -0.0925    0.0000 O   0  0  0  0  0  0  0  0  0  0  0  0
    4.0680   -1.3299    0.0000 O   0  0  0  0  0  0  0  0  0  0  0  0
    0.4957    0.7325    0.0000 C   0  0  0  0  0  0  0  0  0  0  0  0
   -0.2186    1.1450    0.0000 C   0  0  0  0  0  0  0  0  0  0  0  0
   -0.9331    0.7325    0.0000 C   0  0  0  0  0  0  0  0  0  0  0  0
   -0.2186    1.9699    0.0000 C   0  0  0  0  0  0  0  0  0  0  0  0
    3.1447   -0.7970    0.0000 H   0  0  0  0  0  0  0  0  0  0  0  0
    0.4957   -0.6764    0.0000 H   0  0  0  0  0  0  0  0  0  0  0  0
    1.7991   -1.8149    0.0000 H   0  0  0  0  0  0  0  0  0  0  0  0
    3.3535    0.9775    0.0000 H   0  0  0  0  0  0  0  0  0  0  0  0
    4.2801    0.4426    0.0000 H   0  0  0  0  0  0  0  0  0  0  0  0
    1.2104   -1.4894    0.0000 H   0  0  0  0  0  0  0  0  0  0  0  0
   -0.9331    0.8920    0.0000 H   0  0  0  0  0  0  0  0  0  0  0  0
   -1.6475   -1.5749    0.0000 H   0  0  0  0  0  0  0  0  0  0  0  0
   -2.5741   -1.0400    0.0000 H   0  0  0  0  0  0  0  0  0  0  0  0
   -2.3621    0.9775    0.0000 H   0  0  0  0  0  0  0  0  0  0  0  0
   -3.2887    0.4425    0.0000 H   0  0  0  0  0  0  0  0  0  0  0  0
   -4.0029   -1.0400    0.0000 H   0  0  0  0  0  0  0  0  0  0  0  0
   -3.7909    0.9775    0.0000 H   0  0  0  0  0  0  0  0  0  0  0  0
   -4.7174   -0.6276    0.0000 H   0  0  0  0  0  0  0  0  0  0  0  0
   -4.7175    0.4424    0.0000 H   0  0  0  0  0  0  0  0  0  0  0  0
   -4.0029   -1.8649    0.0000 H   0  0  0  0  0  0  0  0  0  0  0  0
   -2.1497   -1.8649    0.0000 H   0  0  0  0  0  0  0  0  0  0  0  0
   -3.0763   -2.3999    0.0000 H   0  0  0  0  0  0  0  0  0  0  0  0
    3.2565   -1.7984    0.0000 H   0  0  0  0  0  0  0  0  0  0  0  0
    1.4224    1.2675    0.0000 H   0  0  0  0  0  0  0  0  0  0  0  0
    0.4958    1.8025    0.0000 H   0  0  0  0  0  0  0  0  0  0  0  0
   -1.1452    1.6800    0.0000 H   0  0  0  0  0  0  0  0  0  0  0  0
   -1.8597    1.2675    0.0000 H   0  0  0  0  0  0  0  0  0  0  0  0
   -0.9331   -0.3375    0.0000 H   0  0  0  0  0  0  0  0  0  0  0  0
   -1.8598    0.1975    0.0000 H   0  0  0  0  0  0  0  0  0  0  0  0
    0.7080    2.5049    0.0000 H   0  0  0  0  0  0  0  0  0  0  0  0
   -1.1452    2.5049    0.0000 H   0  0  0  0  0  0  0  0  0  0  0  0
   -0.2186    3.0399    0.0000 H   0  0  0  0  0  0  0  0  0  0  0  0
  1 25  1  0  0  0  0
  2  3  1  0  0  0  0
  2 16  1  0  0  0  0
  2 26  1  0  0  0  0
  2 27  1  0  0  0  0
  3  1  1  0  0  0  0
  3  4  1  0  0  0  0
  3 23  1  1  0  0  0
  4  5  2  0  0  0  0
  4  6  1  0  0  0  0
  6 28  1  0  0  0  0
  7  6  1  0  0  0  0
  7  8  1  0  0  0  0
  7 19  1  0  0  0  0
  7 24  1  1  0  0  0
  8  9  2  0  0  0  0
  8 10  1  0  0  0  0
 10 11  1  0  0  0  0
 10 29  1  0  0  0  0
 11 12  1  0  0  0  0
 11 30  1  0  0  0  0
 11 31  1  0  0  0  0
 12 13  1  0  0  0  0
 12 32  1  0  0  0  0
 12 33  1  0  0  0  0
 13 14  1  0  0  0  0
 13 15  1  0  0  0  0
 13 34  1  0  0  0  0
 14 35  1  0  0  0  0
 14 36  1  0  0  0  0
 14 37  1  0  0  0  0
 15 38  1  0  0  0  0
 15 39  1  0  0  0  0
 15 40  1  0  0  0  0
 16 17  2  0  0  0  0
 16 18  1  0  0  0  0
 18 41  1  0  0  0  0
 19 20  1  0  0  0  0
 19 42  1  0  0  0  0
 19 43  1  0  0  0  0
 20 21  1  0  0  0  0
 20 22  1  0  0  0  0
 20 44  1  0  0  0  0
 21 45  1  0  0  0  0
 21 46  1  0  0  0  0
 21 47  1  0  0  0  0
 22 48  1  0  0  0  0
 22 49  1  0  0  0  0
 22 50  1  0  0  0  0
M  END
>  <DRUGBANK_ID>
DB04126

>  <SECONDARY_ACCESSION_NUMBERS>
EXPT01318

>  <COMMON_NAME>
N-[1-Hydroxycarboxyethyl-Carbonyl]Leucylamino-2-Methyl-Butane

$$$$
