1148
 OpenBabel10282417072D

 54 57  0  0  0  0  0  0  0  0999 V2000
    6.6601   -0.0144    0.0000 O   0  0  0  0  0  0  0  0  0  0  0  0
    4.5080    1.2599    0.0000 O   0  0  0  0  0  0  0  0  0  0  0  0
    5.2313    0.0021    0.0000 O   0  0  0  0  0  0  0  0  0  0  0  0
    4.5080    3.7349    0.0000 O   0  0  0  0  0  0  0  0  0  0  0  0
    7.3507   -2.0851    0.0000 N   0  0  0  0  0  0  0  0  0  0  0  0
    8.0603   -2.5058    0.0000 C   0  0  0  0  0  0  0  0  0  0  0  0
    6.6315   -2.4892    0.0000 C   0  0  0  0  0  0  0  0  0  0  0  0
    8.0509   -3.3308    0.0000 C   0  0  0  0  0  0  0  0  0  0  0  0
    6.6219   -3.3143    0.0000 C   0  0  0  0  0  0  0  0  0  0  0  0
    7.3316   -3.7349    0.0000 C   0  0  0  0  0  0  0  0  0  0  0  0
    7.3602   -1.2601    0.0000 C   0  0  0  0  0  0  0  0  0  0  0  0
    6.6506   -0.8394    0.0000 C   0  0  0  0  0  0  0  0  0  0  0  0
    5.9600    1.2313    0.0000 C   0  0  0  0  0  0  0  0  0  0  0  0
    5.9504    0.4063    0.0000 C   0  0  0  0  0  0  0  0  0  0  0  0
    5.2224    1.6724    0.0000 C   0  0  0  0  0  0  0  0  0  0  0  0
    5.2224    2.4974    0.0000 C   0  0  0  0  0  0  0  0  0  0  0  0
    3.7935    2.4974    0.0000 C   0  0  0  0  0  0  0  0  0  0  0  0
    3.7935    1.6724    0.0000 C   0  0  0  0  0  0  0  0  0  0  0  0
    4.5080    2.9099    0.0000 C   0  0  0  0  0  0  0  0  0  0  0  0
    6.7075    1.6552    0.0000 C   0  0  0  0  0  0  0  0  0  0  0  0
    5.9600    2.9385    0.0000 C   0  0  0  0  0  0  0  0  0  0  0  0
    3.0791    1.2599    0.0000 C   0  0  0  0  0  0  0  0  0  0  0  0
    6.7075    2.5147    0.0000 C   0  0  0  0  0  0  0  0  0  0  0  0
    3.0791    2.9099    0.0000 C   0  0  0  0  0  0  0  0  0  0  0  0
    3.0791    0.4349    0.0000 C   0  0  0  0  0  0  0  0  0  0  0  0
    2.3645    1.6724    0.0000 C   0  0  0  0  0  0  0  0  0  0  0  0
    2.3645    0.0224    0.0000 C   0  0  0  0  0  0  0  0  0  0  0  0
    1.6500    1.2599    0.0000 C   0  0  0  0  0  0  0  0  0  0  0  0
    1.6500    0.4349    0.0000 C   0  0  0  0  0  0  0  0  0  0  0  0
    8.9930   -1.9815    0.0000 H   0  0  0  0  0  0  0  0  0  0  0  0
    8.9808   -3.0514    0.0000 H   0  0  0  0  0  0  0  0  0  0  0  0
    5.7112   -1.9434    0.0000 H   0  0  0  0  0  0  0  0  0  0  0  0
    5.6987   -3.0134    0.0000 H   0  0  0  0  0  0  0  0  0  0  0  0
    8.9713   -3.8765    0.0000 H   0  0  0  0  0  0  0  0  0  0  0  0
    8.0384   -4.4007    0.0000 H   0  0  0  0  0  0  0  0  0  0  0  0
    5.6892   -3.8386    0.0000 H   0  0  0  0  0  0  0  0  0  0  0  0
    6.6096   -4.3842    0.0000 H   0  0  0  0  0  0  0  0  0  0  0  0
    7.3192   -4.8048    0.0000 H   0  0  0  0  0  0  0  0  0  0  0  0
    6.3989   -4.2592    0.0000 H   0  0  0  0  0  0  0  0  0  0  0  0
    8.2930   -0.7358    0.0000 H   0  0  0  0  0  0  0  0  0  0  0  0
    7.3726   -0.1902    0.0000 H   0  0  0  0  0  0  0  0  0  0  0  0
    5.7178   -1.3637    0.0000 H   0  0  0  0  0  0  0  0  0  0  0  0
    6.6382   -1.9093    0.0000 H   0  0  0  0  0  0  0  0  0  0  0  0
    7.5992    1.1357    0.0000 H   0  0  0  0  0  0  0  0  0  0  0  0
    5.9480    3.9704    0.0000 H   0  0  0  0  0  0  0  0  0  0  0  0
    7.5992    3.0342    0.0000 H   0  0  0  0  0  0  0  0  0  0  0  0
    3.0791    3.9799    0.0000 H   0  0  0  0  0  0  0  0  0  0  0  0
    2.1524    2.3749    0.0000 H   0  0  0  0  0  0  0  0  0  0  0  0
    2.1525    3.4449    0.0000 H   0  0  0  0  0  0  0  0  0  0  0  0
    3.9728   -0.0811    0.0000 H   0  0  0  0  0  0  0  0  0  0  0  0
    2.3645    2.7044    0.0000 H   0  0  0  0  0  0  0  0  0  0  0  0
    2.3645   -1.0096    0.0000 H   0  0  0  0  0  0  0  0  0  0  0  0
    0.7563    1.7759    0.0000 H   0  0  0  0  0  0  0  0  0  0  0  0
    0.7563   -0.0811    0.0000 H   0  0  0  0  0  0  0  0  0  0  0  0
  1 12  1  0  0  0  0
  1 14  1  0  0  0  0
  2 15  1  0  0  0  0
  2 18  1  0  0  0  0
  3 14  2  0  0  0  0
  4 19  2  0  0  0  0
  5  6  1  0  0  0  0
  5  7  1  0  0  0  0
  5 11  1  0  0  0  0
  6  8  1  0  0  0  0
  6 30  1  0  0  0  0
  6 31  1  0  0  0  0
  7  9  1  0  0  0  0
  7 32  1  0  0  0  0
  7 33  1  0  0  0  0
  8 10  1  0  0  0  0
  8 34  1  0  0  0  0
  8 35  1  0  0  0  0
  9 10  1  0  0  0  0
  9 36  1  0  0  0  0
  9 37  1  0  0  0  0
 10 38  1  0  0  0  0
 10 39  1  0  0  0  0
 11 12  1  0  0  0  0
 11 40  1  0  0  0  0
 11 41  1  0  0  0  0
 12 42  1  0  0  0  0
 12 43  1  0  0  0  0
 13 14  1  0  0  0  0
 13 15  1  0  0  0  0
 13 20  2  0  0  0  0
 15 16  2  0  0  0  0
 16 19  1  0  0  0  0
 16 21  1  0  0  0  0
 17 18  2  0  0  0  0
 17 19  1  0  0  0  0
 17 24  1  0  0  0  0
 18 22  1  0  0  0  0
 20 23  1  0  0  0  0
 20 44  1  0  0  0  0
 21 23  2  0  0  0  0
 21 45  1  0  0  0  0
 22 25  2  0  0  0  0
 22 26  1  0  0  0  0
 23 46  1  0  0  0  0
 24 47  1  0  0  0  0
 24 48  1  0  0  0  0
 24 49  1  0  0  0  0
 25 27  1  0  0  0  0
 25 50  1  0  0  0  0
 26 28  2  0  0  0  0
 26 51  1  0  0  0  0
 27 29  2  0  0  0  0
 27 52  1  0  0  0  0
 28 29  1  0  0  0  0
 28 53  1  0  0  0  0
 29 54  1  0  0  0  0
M  END
>  <DRUGBANK_ID>
DB01148

>  <SECONDARY_ACCESSION_NUMBERS>
APRD00972

>  <COMMON_NAME>
Flavoxate

>  <CAS_NUMBER>
15301-69-6

>  <UNII>
3E74Y80MEY

>  <SYNONYMS>
2-(1-piperidinyl)ethyl 3-methyl-4-oxo-2-phenyl-4H-chromene-8-carboxylate; 2-piperidinoethyl 3-methyl-4-oxo-2-phenyl-4H-1-benzopyran-8-carboxylate; 2-piperidinoethyl 3-methylflavone-8-carboxylate; Flavoxate; Flavoxato; Flavoxatum; Î²-piperidinoethyl 3-methylflavone-8-carboxylate

$$$$
