
 OpenBabel10282417072D

104110  0  0  0  0  0  0  0  0999 V2000
   -5.0881    0.5877    0.0000 C   0  0  0  0  0  0  0  0  0  0  0  0
   -4.6353   -0.1018    0.0000 C   0  0  0  0  0  0  0  0  0  0  0  0
   -4.2646    0.6352    0.0000 C   0  0  0  0  0  0  0  0  0  0  0  0
   -2.3815   -1.9195    0.0000 C   0  0  0  0  0  0  0  0  0  0  0  0
   -1.8907   -1.2563    0.0000 C   0  0  1  0  0  0  0  0  0  0  0  0
   -1.5618   -2.0128    0.0000 C   0  0  2  0  0  0  0  0  0  0  0  0
   -2.5547   -0.7615    0.0000 C   0  0  0  0  0  0  0  0  0  0  0  0
   -3.3124   -1.0878    0.0000 N   0  0  0  0  0  0  0  0  0  0  0  0
   -2.4585    0.0579    0.0000 O   0  0  0  0  0  0  0  0  0  0  0  0
   -3.9739   -0.5947    0.0000 S   0  0  0  0  0  0  0  0  0  0  0  0
   -4.4669   -1.2563    0.0000 O   0  0  0  0  0  0  0  0  0  0  0  0
   -3.4808    0.0665    0.0000 O   0  0  0  0  0  0  0  0  0  0  0  0
   -5.2357   -0.6675    0.0000 C   0  0  0  0  0  0  0  0  0  0  0  0
    0.3546    0.2357    0.0000 C   0  0  1  0  0  0  0  0  0  0  0  0
    1.1237   -0.0619    0.0000 C   0  0  0  0  0  0  0  0  0  0  0  0
    1.0782   -0.8855    0.0000 N   0  0  0  0  0  0  0  0  0  0  0  0
    0.2808   -1.0967    0.0000 C   0  0  1  0  0  0  0  0  0  0  0  0
   -0.1663   -0.4037    0.0000 C   0  0  0  0  0  0  0  0  0  0  0  0
    3.9256    2.2775    0.0000 C   0  0  2  0  0  0  0  0  0  0  0  0
    4.6848    2.6100    0.0000 C   0  0  0  0  0  0  0  0  0  0  0  0
    5.2357    1.9909    0.0000 C   0  0  0  0  0  0  0  0  0  0  0  0
    4.8171    1.2754    0.0000 C   0  0  0  0  0  0  0  0  0  0  0  0
    4.0073    1.4526    0.0000 C   0  0  1  0  0  0  0  0  0  0  0  0
    3.2136    2.6940    0.0000 O   0  0  0  0  0  0  0  0  0  0  0  0
    3.3911    0.9042    0.0000 O   0  0  0  0  0  0  0  0  0  0  0  0
    3.8112    3.0975    0.0000 H   0  0  0  0  0  0  0  0  0  0  0  0
    4.1367    0.6395    0.0000 H   0  0  0  0  0  0  0  0  0  0  0  0
    2.4967    2.2859    0.0000 C   0  0  0  0  0  0  0  0  0  0  0  0
    1.7846    2.7026    0.0000 C   0  0  0  0  0  0  0  0  0  0  0  0
    1.0677    2.2944    0.0000 C   0  0  0  0  0  0  0  0  0  0  0  0
    0.3558    2.7110    0.0000 C   0  0  0  0  0  0  0  0  0  0  0  0
   -0.3610    2.3026    0.0000 C   0  0  0  0  0  0  0  0  0  0  0  0
    0.7473    3.4372    0.0000 F   0  0  0  0  0  0  0  0  0  0  0  0
   -0.0272    3.4417    0.0000 F   0  0  0  0  0  0  0  0  0  0  0  0
   -0.3614    1.4746    0.0000 C   0  0  0  0  0  0  0  0  0  0  0  0
   -1.0742    1.0663    0.0000 N   0  0  0  0  0  0  0  0  0  0  0  0
   -1.0685    2.7183    0.0000 N   0  0  0  0  0  0  0  0  0  0  0  0
   -1.7858    2.3056    0.0000 C   0  0  0  0  0  0  0  0  0  0  0  0
   -1.7858    1.4761    0.0000 C   0  0  0  0  0  0  0  0  0  0  0  0
   -2.5002    1.0635    0.0000 C   0  0  0  0  0  0  0  0  0  0  0  0
   -3.2192    1.4760    0.0000 C   0  0  0  0  0  0  0  0  0  0  0  0
   -3.2192    2.3056    0.0000 C   0  0  0  0  0  0  0  0  0  0  0  0
   -2.5003    2.7226    0.0000 C   0  0  0  0  0  0  0  0  0  0  0  0
    0.3521    1.0606    0.0000 O   0  0  0  0  0  0  0  0  0  0  0  0
   -0.3093    0.7329    0.0000 H   0  0  0  0  0  0  0  0  0  0  0  0
   -0.4714   -1.4231    0.0000 C   0  0  0  0  0  0  0  0  0  0  0  0
    0.4103   -1.9106    0.0000 H   0  0  0  0  0  0  0  0  0  0  0  0
   -0.5654   -2.2428    0.0000 O   0  0  0  0  0  0  0  0  0  0  0  0
   -1.1342   -0.9319    0.0000 N   0  0  0  0  0  0  0  0  0  0  0  0
    1.7178   -1.4066    0.0000 C   0  0  0  0  0  0  0  0  0  0  0  0
    2.4889   -1.1130    0.0000 C   0  0  1  0  0  0  0  0  0  0  0  0
    1.5865   -2.2211    0.0000 O   0  0  0  0  0  0  0  0  0  0  0  0
    2.6203   -0.2986    0.0000 N   0  0  0  0  0  0  0  0  0  0  0  0
    3.3913   -0.0052    0.0000 C   0  0  0  0  0  0  0  0  0  0  0  0
    4.0707   -0.4733    0.0000 O   0  0  0  0  0  0  0  0  0  0  0  0
    3.0384   -1.7286    0.0000 C   0  0  0  0  0  0  0  0  0  0  0  0
    3.3478   -0.9639    0.0000 H   0  0  0  0  0  0  0  0  0  0  0  0
    3.5876   -2.3441    0.0000 C   0  0  0  0  0  0  0  0  0  0  0  0
    3.7935   -1.3963    0.0000 C   0  0  0  0  0  0  0  0  0  0  0  0
    2.4777   -2.3508    0.0000 C   0  0  0  0  0  0  0  0  0  0  0  0
   -1.1493   -2.7273    0.0000 C   0  0  0  0  0  0  0  0  0  0  0  0
   -1.5618   -3.4417    0.0000 F   0  0  0  0  0  0  0  0  0  0  0  0
   -0.3524   -2.9407    0.0000 F   0  0  0  0  0  0  0  0  0  0  0  0
   -6.0440    1.0685    0.0000 H   0  0  0  0  0  0  0  0  0  0  0  0
   -5.8000   -0.2111    0.0000 H   0  0  0  0  0  0  0  0  0  0  0  0
   -3.3703    1.2227    0.0000 H   0  0  0  0  0  0  0  0  0  0  0  0
   -3.4657   -0.0766    0.0000 H   0  0  0  0  0  0  0  0  0  0  0  0
   -3.3627   -2.3462    0.0000 H   0  0  0  0  0  0  0  0  0  0  0  0
   -2.2233   -2.9777    0.0000 H   0  0  0  0  0  0  0  0  0  0  0  0
   -0.6063   -1.5312    0.0000 H   0  0  0  0  0  0  0  0  0  0  0  0
   -3.4273   -2.0656    0.0000 H   0  0  0  0  0  0  0  0  0  0  0  0
   -6.2605   -0.3599    0.0000 H   0  0  0  0  0  0  0  0  0  0  0  0
   -4.9896   -1.7088    0.0000 H   0  0  0  0  0  0  0  0  0  0  0  0
   -6.0145   -1.4013    0.0000 H   0  0  0  0  0  0  0  0  0  0  0  0
    2.0227    0.5184    0.0000 H   0  0  0  0  0  0  0  0  0  0  0  0
    2.0488   -0.5995    0.0000 H   0  0  0  0  0  0  0  0  0  0  0  0
   -1.2347   -0.3445    0.0000 H   0  0  0  0  0  0  0  0  0  0  0  0
   -0.5986    0.5751    0.0000 H   0  0  0  0  0  0  0  0  0  0  0  0
    4.9135    3.6553    0.0000 H   0  0  0  0  0  0  0  0  0  0  0  0
    5.7200    2.8808    0.0000 H   0  0  0  0  0  0  0  0  0  0  0  0
    6.3005    2.0966    0.0000 H   0  0  0  0  0  0  0  0  0  0  0  0
    5.8133    1.0902    0.0000 H   0  0  0  0  0  0  0  0  0  0  0  0
    5.2466    0.2954    0.0000 H   0  0  0  0  0  0  0  0  0  0  0  0
    4.1388    0.4479    0.0000 H   0  0  0  0  0  0  0  0  0  0  0  0
    2.4903    1.2159    0.0000 H   0  0  0  0  0  0  0  0  0  0  0  0
    1.5669    1.7564    0.0000 H   0  0  0  0  0  0  0  0  0  0  0  0
    1.7907    3.7346    0.0000 H   0  0  0  0  0  0  0  0  0  0  0  0
    1.0616    1.2624    0.0000 H   0  0  0  0  0  0  0  0  0  0  0  0
   -2.4987    0.0315    0.0000 H   0  0  0  0  0  0  0  0  0  0  0  0
   -4.1122    0.9588    0.0000 H   0  0  0  0  0  0  0  0  0  0  0  0
   -4.1135    2.8207    0.0000 H   0  0  0  0  0  0  0  0  0  0  0  0
   -2.4989    3.7546    0.0000 H   0  0  0  0  0  0  0  0  0  0  0  0
   -1.0199    0.0459    0.0000 H   0  0  0  0  0  0  0  0  0  0  0  0
    1.8570    0.3232    0.0000 H   0  0  0  0  0  0  0  0  0  0  0  0
    3.2524   -3.3602    0.0000 H   0  0  0  0  0  0  0  0  0  0  0  0
    4.6352   -2.1263    0.0000 H   0  0  0  0  0  0  0  0  0  0  0  0
    4.3000   -3.1425    0.0000 H   0  0  0  0  0  0  0  0  0  0  0  0
    4.6564   -2.0290    0.0000 H   0  0  0  0  0  0  0  0  0  0  0  0
    3.9099   -0.3327    0.0000 H   0  0  0  0  0  0  0  0  0  0  0  0
    4.7729   -0.9653    0.0000 H   0  0  0  0  0  0  0  0  0  0  0  0
    1.4312   -2.1279    0.0000 H   0  0  0  0  0  0  0  0  0  0  0  0
    2.8079   -3.3686    0.0000 H   0  0  0  0  0  0  0  0  0  0  0  0
    1.7614   -3.1457    0.0000 H   0  0  0  0  0  0  0  0  0  0  0  0
   -0.4980   -1.8784    0.0000 H   0  0  0  0  0  0  0  0  0  0  0  0
  1  3  1  0  0  0  0
  1 64  1  0  0  0  0
  1 65  1  0  0  0  0
  2  1  1  0  0  0  0
  2 13  1  0  0  0  0
  3  2  1  0  0  0  0
  3 66  1  0  0  0  0
  3 67  1  0  0  0  0
  4  6  1  0  0  0  0
  4 68  1  0  0  0  0
  4 69  1  0  0  0  0
  5  4  1  0  0  0  0
  5 49  1  0  0  0  0
  5  7  1  6  0  0  0
  6  5  1  0  0  0  0
  6 61  1  0  0  0  0
  6 70  1  1  0  0  0
  7  8  1  0  0  0  0
  7  9  2  0  0  0  0
  8 10  1  0  0  0  0
  8 71  1  0  0  0  0
 10  2  1  0  0  0  0
 10 11  2  0  0  0  0
 10 12  2  0  0  0  0
 13 72  1  0  0  0  0
 13 73  1  0  0  0  0
 13 74  1  0  0  0  0
 14 15  1  0  0  0  0
 14 44  1  0  0  0  0
 14 45  1  6  0  0  0
 15 16  1  0  0  0  0
 15 75  1  0  0  0  0
 15 76  1  0  0  0  0
 16 17  1  0  0  0  0
 16 50  1  0  0  0  0
 17 18  1  0  0  0  0
 17 46  1  0  0  0  0
 17 47  1  1  0  0  0
 18 14  1  0  0  0  0
 18 77  1  0  0  0  0
 18 78  1  0  0  0  0
 19 20  1  0  0  0  0
 19 24  1  0  0  0  0
 19 26  1  1  0  0  0
 20 21  1  0  0  0  0
 20 79  1  0  0  0  0
 20 80  1  0  0  0  0
 21 22  1  0  0  0  0
 21 81  1  0  0  0  0
 21 82  1  0  0  0  0
 22 23  1  0  0  0  0
 22 83  1  0  0  0  0
 22 84  1  0  0  0  0
 23 19  1  0  0  0  0
 23 25  1  0  0  0  0
 23 27  1  6  0  0  0
 24 28  1  0  0  0  0
 25 54  1  0  0  0  0
 28 29  1  0  0  0  0
 28 85  1  0  0  0  0
 28 86  1  0  0  0  0
 29 30  2  0  0  0  0
 29 87  1  0  0  0  0
 30 31  1  0  0  0  0
 30 88  1  0  0  0  0
 31 32  1  0  0  0  0
 31 33  1  0  0  0  0
 31 34  1  0  0  0  0
 32 35  1  0  0  0  0
 32 37  2  0  0  0  0
 35 36  2  0  0  0  0
 35 44  1  0  0  0  0
 36 39  1  0  0  0  0
 38 37  1  0  0  0  0
 38 39  2  0  0  0  0
 38 43  1  0  0  0  0
 39 40  1  0  0  0  0
 40 41  2  0  0  0  0
 40 89  1  0  0  0  0
 41 42  1  0  0  0  0
 41 90  1  0  0  0  0
 42 43  2  0  0  0  0
 42 91  1  0  0  0  0
 43 92  1  0  0  0  0
 46 48  2  0  0  0  0
 46 49  1  0  0  0  0
 49 93  1  0  0  0  0
 50 51  1  0  0  0  0
 50 52  2  0  0  0  0
 51 53  1  0  0  0  0
 51 56  1  0  0  0  0
 51 57  1  6  0  0  0
 53 54  1  0  0  0  0
 53 94  1  0  0  0  0
 54 55  2  0  0  0  0
 56 58  1  0  0  0  0
 56 59  1  0  0  0  0
 56 60  1  0  0  0  0
 58 95  1  0  0  0  0
 58 96  1  0  0  0  0
 58 97  1  0  0  0  0
 59 98  1  0  0  0  0
 59 99  1  0  0  0  0
 59100  1  0  0  0  0
 60101  1  0  0  0  0
 60102  1  0  0  0  0
 60103  1  0  0  0  0
 61 62  1  0  0  0  0
 61 63  1  0  0  0  0
 61104  1  0  0  0  0
M  END
>  <DRUGBANK_ID>
DB13879

>  <COMMON_NAME>
Glecaprevir

>  <CAS_NUMBER>
1365970-03-1

>  <UNII>
K6BUU8J72P

>  <SYNONYMS>
Glécaprévir; Glecaprevir; Glecaprevirum

$$$$
