
 OpenBabel10282417072D

 30 32  0  0  0  0  0  0  0  0999 V2000
    0.2046   -1.1567    0.0000 C   0  0  0  0  0  0  0  0  0  0  0  0
    5.3194    0.6825    0.0000 C   0  0  0  0  0  0  0  0  0  0  0  0
    3.7054    1.0256    0.0000 C   0  0  0  0  0  0  0  0  0  0  0  0
    2.8985    1.1971    0.0000 C   0  0  0  0  0  0  0  0  0  0  0  0
    0.9694    1.1971    0.0000 C   0  0  0  0  0  0  0  0  0  0  0  0
    0.1624    1.0256    0.0000 C   0  0  0  0  0  0  0  0  0  0  0  0
    3.4084   -0.3721    0.0000 C   0  0  0  0  0  0  0  0  0  0  0  0
    0.4595   -0.3721    0.0000 C   0  0  0  0  0  0  0  0  0  0  0  0
    3.9604    0.2410    0.0000 C   0  0  0  0  0  0  0  0  0  0  0  0
    2.3464    0.5840    0.0000 C   0  0  0  0  0  0  0  0  0  0  0  0
    1.5214    0.5840    0.0000 C   0  0  0  0  0  0  0  0  0  0  0  0
    2.6014   -0.2006    0.0000 C   0  0  0  0  0  0  0  0  0  0  0  0
    1.2665   -0.2006    0.0000 C   0  0  0  0  0  0  0  0  0  0  0  0
   -0.0925    0.2410    0.0000 N   0  0  0  0  0  0  0  0  0  0  0  0
    1.9339   -0.6855    0.0000 N   0  0  0  0  0  0  0  0  0  0  0  0
    4.7674    0.0694    0.0000 O   0  0  0  0  0  0  0  0  0  0  0  0
   -0.8420   -1.3792    0.0000 H   0  0  0  0  0  0  0  0  0  0  0  0
    0.9206   -1.9518    0.0000 H   0  0  0  0  0  0  0  0  0  0  0  0
   -0.1260   -2.1743    0.0000 H   0  0  0  0  0  0  0  0  0  0  0  0
    6.3660    0.4601    0.0000 H   0  0  0  0  0  0  0  0  0  0  0  0
    4.9887    1.7001    0.0000 H   0  0  0  0  0  0  0  0  0  0  0  0
    6.0353    1.4777    0.0000 H   0  0  0  0  0  0  0  0  0  0  0  0
    4.3959    1.7926    0.0000 H   0  0  0  0  0  0  0  0  0  0  0  0
    2.5796    2.1786    0.0000 H   0  0  0  0  0  0  0  0  0  0  0  0
    1.3001    2.2147    0.0000 H   0  0  0  0  0  0  0  0  0  0  0  0
    2.0160    1.4195    0.0000 H   0  0  0  0  0  0  0  0  0  0  0  0
   -0.5536    1.8208    0.0000 H   0  0  0  0  0  0  0  0  0  0  0  0
   -0.8842    0.8031    0.0000 H   0  0  0  0  0  0  0  0  0  0  0  0
    3.7273   -1.3536    0.0000 H   0  0  0  0  0  0  0  0  0  0  0  0
    1.9339   -1.6700    0.0000 H   0  0  0  0  0  0  0  0  0  0  0  0
  1 17  1  0  0  0  0
  1 18  1  0  0  0  0
  1 19  1  0  0  0  0
  2 20  1  0  0  0  0
  2 21  1  0  0  0  0
  2 22  1  0  0  0  0
  3 23  1  0  0  0  0
  4  3  2  0  0  0  0
  4 24  1  0  0  0  0
  5 25  1  0  0  0  0
  5 26  1  0  0  0  0
  6  5  1  0  0  0  0
  6 27  1  0  0  0  0
  6 28  1  0  0  0  0
  7 29  1  0  0  0  0
  8  1  1  0  0  0  0
  9  3  1  0  0  0  0
  9  7  2  0  0  0  0
 10  4  1  0  0  0  0
 11  5  1  0  0  0  0
 11 10  1  0  0  0  0
 12  7  1  0  0  0  0
 12 10  2  0  0  0  0
 13  8  1  0  0  0  0
 13 11  2  0  0  0  0
 14  6  1  0  0  0  0
 14  8  2  0  0  0  0
 15 12  1  0  0  0  0
 15 13  1  0  0  0  0
 15 30  1  0  0  0  0
 16  2  1  0  0  0  0
 16  9  1  0  0  0  0
M  END
>  <DRUGBANK_ID>
DB13875

>  <COMMON_NAME>
Harmaline

>  <CAS_NUMBER>
304-21-2

>  <UNII>
CN58I4TOET

$$$$
