
 OpenBabel10282417072D

 49 49  0  0  0  0  0  0  0  0999 V2000
    4.6431    2.0621    0.0000 C   0  0  0  0  0  0  0  0  0  0  0  0
    3.9297    1.6496    0.0000 C   0  0  0  0  0  0  0  0  0  0  0  0
    3.2148    2.0621    0.0000 C   0  0  0  0  0  0  0  0  0  0  0  0
    3.9297    0.8248    0.0000 C   0  0  0  0  0  0  0  0  0  0  0  0
    3.2148    0.4124    0.0000 C   0  0  0  0  0  0  0  0  0  0  0  0
    2.4999    0.8248    0.0000 C   0  0  0  0  0  0  0  0  0  0  0  0
    1.7865    0.4124    0.0000 C   0  0  0  0  0  0  0  0  0  0  0  0
    1.0716    0.8248    0.0000 C   0  0  0  0  0  0  0  0  0  0  0  0
    0.3581    0.4124    0.0000 C   0  0  0  0  0  0  0  0  0  0  0  0
   -0.3567    0.8248    0.0000 C   0  0  0  0  0  0  0  0  0  0  0  0
   -0.3567    1.6496    0.0000 O   0  0  0  0  0  0  0  0  0  0  0  0
   -1.0715    0.4124    0.0000 N   0  0  0  0  0  0  0  0  0  0  0  0
   -1.7851    0.8248    0.0000 C   0  0  0  0  0  0  0  0  0  0  0  0
   -2.4999    0.4124    0.0000 C   0  0  0  0  0  0  0  0  0  0  0  0
   -3.2134    0.8248    0.0000 C   0  0  0  0  0  0  0  0  0  0  0  0
   -3.9283    0.4124    0.0000 C   0  0  0  0  0  0  0  0  0  0  0  0
   -3.9283   -0.4124    0.0000 C   0  0  0  0  0  0  0  0  0  0  0  0
   -3.2134   -0.8248    0.0000 C   0  0  0  0  0  0  0  0  0  0  0  0
   -2.4999   -0.4124    0.0000 C   0  0  0  0  0  0  0  0  0  0  0  0
   -3.2134   -1.6496    0.0000 O   0  0  0  0  0  0  0  0  0  0  0  0
   -3.9283   -2.0621    0.0000 C   0  0  0  0  0  0  0  0  0  0  0  0
   -4.6431   -0.8248    0.0000 O   0  0  0  0  0  0  0  0  0  0  0  0
    5.5701    1.5277    0.0000 H   0  0  0  0  0  0  0  0  0  0  0  0
    4.6424    3.1321    0.0000 H   0  0  0  0  0  0  0  0  0  0  0  0
    5.5694    2.5977    0.0000 H   0  0  0  0  0  0  0  0  0  0  0  0
    3.0031    1.1145    0.0000 H   0  0  0  0  0  0  0  0  0  0  0  0
    3.2145    3.1321    0.0000 H   0  0  0  0  0  0  0  0  0  0  0  0
    2.2883    1.5269    0.0000 H   0  0  0  0  0  0  0  0  0  0  0  0
    2.2880    2.5969    0.0000 H   0  0  0  0  0  0  0  0  0  0  0  0
    4.8233    0.3086    0.0000 H   0  0  0  0  0  0  0  0  0  0  0  0
    3.2148   -0.6196    0.0000 H   0  0  0  0  0  0  0  0  0  0  0  0
    2.4994    1.8948    0.0000 H   0  0  0  0  0  0  0  0  0  0  0  0
    1.5730    1.3593    0.0000 H   0  0  0  0  0  0  0  0  0  0  0  0
    1.7870   -0.6576    0.0000 H   0  0  0  0  0  0  0  0  0  0  0  0
    0.8601   -0.1230    0.0000 H   0  0  0  0  0  0  0  0  0  0  0  0
    1.0711    1.8948    0.0000 H   0  0  0  0  0  0  0  0  0  0  0  0
    0.1447    1.3594    0.0000 H   0  0  0  0  0  0  0  0  0  0  0  0
    0.3585   -0.6576    0.0000 H   0  0  0  0  0  0  0  0  0  0  0  0
   -0.5684   -0.1229    0.0000 H   0  0  0  0  0  0  0  0  0  0  0  0
   -1.0719   -0.5721    0.0000 H   0  0  0  0  0  0  0  0  0  0  0  0
   -1.7847    1.8948    0.0000 H   0  0  0  0  0  0  0  0  0  0  0  0
   -2.7116    1.3601    0.0000 H   0  0  0  0  0  0  0  0  0  0  0  0
   -3.2130    1.8568    0.0000 H   0  0  0  0  0  0  0  0  0  0  0  0
   -4.8219    0.9286    0.0000 H   0  0  0  0  0  0  0  0  0  0  0  0
   -1.6060   -0.9282    0.0000 H   0  0  0  0  0  0  0  0  0  0  0  0
   -4.8548   -1.5269    0.0000 H   0  0  0  0  0  0  0  0  0  0  0  0
   -3.9286   -3.1321    0.0000 H   0  0  0  0  0  0  0  0  0  0  0  0
   -4.8551   -2.5969    0.0000 H   0  0  0  0  0  0  0  0  0  0  0  0
   -5.4544   -0.3561    0.0000 H   0  0  0  0  0  0  0  0  0  0  0  0
  1  2  1  0  0  0  0
  1 23  1  0  0  0  0
  1 24  1  0  0  0  0
  1 25  1  0  0  0  0
  2  3  1  0  0  0  0
  2  4  1  0  0  0  0
  2 26  1  0  0  0  0
  3 27  1  0  0  0  0
  3 28  1  0  0  0  0
  3 29  1  0  0  0  0
  4  5  2  0  0  0  0
  4 30  1  0  0  0  0
  5  6  1  0  0  0  0
  5 31  1  0  0  0  0
  6  7  1  0  0  0  0
  6 32  1  0  0  0  0
  6 33  1  0  0  0  0
  7  8  1  0  0  0  0
  7 34  1  0  0  0  0
  7 35  1  0  0  0  0
  8  9  1  0  0  0  0
  8 36  1  0  0  0  0
  8 37  1  0  0  0  0
  9 10  1  0  0  0  0
  9 38  1  0  0  0  0
  9 39  1  0  0  0  0
 10 11  2  0  0  0  0
 10 12  1  0  0  0  0
 12 13  1  0  0  0  0
 12 40  1  0  0  0  0
 13 14  1  0  0  0  0
 13 41  1  0  0  0  0
 13 42  1  0  0  0  0
 14 15  1  0  0  0  0
 14 19  2  0  0  0  0
 15 16  2  0  0  0  0
 15 43  1  0  0  0  0
 16 17  1  0  0  0  0
 16 44  1  0  0  0  0
 17 18  2  0  0  0  0
 17 22  1  0  0  0  0
 18 19  1  0  0  0  0
 18 20  1  0  0  0  0
 19 45  1  0  0  0  0
 20 21  1  0  0  0  0
 21 46  1  0  0  0  0
 21 47  1  0  0  0  0
 21 48  1  0  0  0  0
 22 49  1  0  0  0  0
M  END
>  <DRUGBANK_ID>
DB09120

>  <COMMON_NAME>
Zucapsaicin

>  <CAS_NUMBER>
25775-90-0

>  <UNII>
15OX67P384

>  <SYNONYMS>
(Z)-Capsaicin; cis-Capsaicin; Civamide; Zucapsaicin

$$$$
