
 OpenBabel10282417072D

 71 73  0  0  0  0  0  0  0  0999 V2000
    7.1447   -3.3000    0.0000 C   0  0  0  0  0  0  0  0  0  0  0  0
    6.4302   -2.8875    0.0000 C   0  0  0  0  0  0  0  0  0  0  0  0
    5.7158   -3.3000    0.0000 C   0  0  0  0  0  0  0  0  0  0  0  0
    5.0013   -2.8875    0.0000 C   0  0  0  0  0  0  0  0  0  0  0  0
    4.2868   -3.3000    0.0000 C   0  0  0  0  0  0  0  0  0  0  0  0
    4.2868   -4.1250    0.0000 O   0  0  0  0  0  0  0  0  0  0  0  0
    3.5724   -4.5375    0.0000 C   0  0  0  0  0  0  0  0  0  0  0  0
    3.5724   -2.8875    0.0000 C   0  0  0  0  0  0  0  0  0  0  0  0
    3.5724   -2.0625    0.0000 C   0  0  0  0  0  0  0  0  0  0  0  0
    4.2868   -1.6500    0.0000 C   0  0  0  0  0  0  0  0  0  0  0  0
    5.0013   -2.0625    0.0000 C   0  0  0  0  0  0  0  0  0  0  0  0
    5.7158   -1.6500    0.0000 O   0  0  0  0  0  0  0  0  0  0  0  0
    6.4302   -2.0625    0.0000 C   0  0  0  0  0  0  0  0  0  0  0  0
    7.1447   -1.6500    0.0000 C   0  0  0  0  0  0  0  0  0  0  0  0
    7.8592   -2.0625    0.0000 C   0  0  0  0  0  0  0  0  0  0  0  0
    8.5737   -1.6500    0.0000 O   0  0  0  0  0  0  0  0  0  0  0  0
    9.2881   -2.0625    0.0000 C   0  0  0  0  0  0  0  0  0  0  0  0
   10.0026   -1.6500    0.0000 C   0  0  0  0  0  0  0  0  0  0  0  0
   10.7171   -2.0625    0.0000 C   0  0  0  0  0  0  0  0  0  0  0  0
   10.7171   -2.8875    0.0000 C   0  0  0  0  0  0  0  0  0  0  0  0
   11.4315   -3.3000    0.0000 C   0  0  0  0  0  0  0  0  0  0  0  0
   11.4315   -4.1250    0.0000 C   0  0  0  0  0  0  0  0  0  0  0  0
   10.7171   -4.5375    0.0000 C   0  0  3  0  0  0  0  0  0  0  0  0
   10.0026   -4.1250    0.0000 O   0  0  0  0  0  0  0  0  0  0  0  0
   10.0026   -3.3000    0.0000 C   0  0  0  0  0  0  0  0  0  0  0  0
    9.2881   -2.8875    0.0000 C   0  0  0  0  0  0  0  0  0  0  0  0
    8.5737   -3.3000    0.0000 C   0  0  0  0  0  0  0  0  0  0  0  0
    8.5737   -4.1250    0.0000 C   0  0  0  0  0  0  0  0  0  0  0  0
    7.8592   -4.5375    0.0000 C   0  0  0  0  0  0  0  0  0  0  0  0
   10.7171   -5.3625    0.0000 C   0  0  0  0  0  0  0  0  0  0  0  0
   11.4315   -5.7750    0.0000 O   0  0  0  0  0  0  0  0  0  0  0  0
   10.0026   -5.7750    0.0000 O   0  0  0  0  0  0  0  0  0  0  0  0
    2.8579   -3.3000    0.0000 C   0  0  0  0  0  0  0  0  0  0  0  0
    2.1434   -2.8875    0.0000 C   0  0  0  0  0  0  0  0  0  0  0  0
    2.8579   -4.1250    0.0000 O   0  0  0  0  0  0  0  0  0  0  0  0
    7.1447   -4.3700    0.0000 H   0  0  0  0  0  0  0  0  0  0  0  0
    8.0713   -2.7650    0.0000 H   0  0  0  0  0  0  0  0  0  0  0  0
    8.0714   -3.8350    0.0000 H   0  0  0  0  0  0  0  0  0  0  0  0
    6.4302   -1.8175    0.0000 H   0  0  0  0  0  0  0  0  0  0  0  0
    5.5035   -2.3525    0.0000 H   0  0  0  0  0  0  0  0  0  0  0  0
    5.7158   -4.3700    0.0000 H   0  0  0  0  0  0  0  0  0  0  0  0
    4.7892   -3.8350    0.0000 H   0  0  0  0  0  0  0  0  0  0  0  0
    2.6457   -4.0025    0.0000 H   0  0  0  0  0  0  0  0  0  0  0  0
    3.5724   -5.6075    0.0000 H   0  0  0  0  0  0  0  0  0  0  0  0
    2.6458   -5.0725    0.0000 H   0  0  0  0  0  0  0  0  0  0  0  0
    2.6787   -1.5465    0.0000 H   0  0  0  0  0  0  0  0  0  0  0  0
    4.2868   -0.6180    0.0000 H   0  0  0  0  0  0  0  0  0  0  0  0
    6.4302   -3.1325    0.0000 H   0  0  0  0  0  0  0  0  0  0  0  0
    7.3568   -2.5975    0.0000 H   0  0  0  0  0  0  0  0  0  0  0  0
    7.1447   -0.5800    0.0000 H   0  0  0  0  0  0  0  0  0  0  0  0
    8.0713   -1.1150    0.0000 H   0  0  0  0  0  0  0  0  0  0  0  0
    7.8592   -3.1325    0.0000 H   0  0  0  0  0  0  0  0  0  0  0  0
    8.7858   -2.5975    0.0000 H   0  0  0  0  0  0  0  0  0  0  0  0
   10.0026   -0.6180    0.0000 H   0  0  0  0  0  0  0  0  0  0  0  0
   11.6108   -1.5465    0.0000 H   0  0  0  0  0  0  0  0  0  0  0  0
   12.3582   -2.7650    0.0000 H   0  0  0  0  0  0  0  0  0  0  0  0
   12.3581   -3.8350    0.0000 H   0  0  0  0  0  0  0  0  0  0  0  0
   12.3582   -4.6600    0.0000 H   0  0  0  0  0  0  0  0  0  0  0  0
   11.4315   -5.1950    0.0000 H   0  0  0  0  0  0  0  0  0  0  0  0
   10.7171   -3.4675    0.0000 H   0  0  0  0  0  0  0  0  0  0  0  0
    7.6470   -2.7650    0.0000 H   0  0  0  0  0  0  0  0  0  0  0  0
    7.6471   -3.8350    0.0000 H   0  0  0  0  0  0  0  0  0  0  0  0
    9.5003   -4.6600    0.0000 H   0  0  0  0  0  0  0  0  0  0  0  0
    8.5737   -5.1950    0.0000 H   0  0  0  0  0  0  0  0  0  0  0  0
    6.9326   -4.0025    0.0000 H   0  0  0  0  0  0  0  0  0  0  0  0
    7.8592   -5.6075    0.0000 H   0  0  0  0  0  0  0  0  0  0  0  0
    6.9325   -5.0725    0.0000 H   0  0  0  0  0  0  0  0  0  0  0  0
   11.4315   -6.7120    0.0000 H   0  0  0  0  0  0  0  0  0  0  0  0
    2.1434   -1.8175    0.0000 H   0  0  0  0  0  0  0  0  0  0  0  0
    1.2168   -3.4225    0.0000 H   0  0  0  0  0  0  0  0  0  0  0  0
    1.2167   -2.3525    0.0000 H   0  0  0  0  0  0  0  0  0  0  0  0
  1  2  1  0  0  0  0
  1 36  1  0  0  0  0
  1 37  1  0  0  0  0
  1 38  1  0  0  0  0
  2  3  1  0  0  0  0
  2 39  1  0  0  0  0
  2 40  1  0  0  0  0
  3  4  1  0  0  0  0
  3 41  1  0  0  0  0
  3 42  1  0  0  0  0
  4  5  2  0  0  0  0
  4 11  1  0  0  0  0
  5  6  1  0  0  0  0
  5  8  1  0  0  0  0
  6  7  1  0  0  0  0
  7 43  1  0  0  0  0
  7 44  1  0  0  0  0
  7 45  1  0  0  0  0
  8  9  2  0  0  0  0
  8 33  1  0  0  0  0
  9 10  1  0  0  0  0
  9 46  1  0  0  0  0
 10 11  2  0  0  0  0
 10 47  1  0  0  0  0
 11 12  1  0  0  0  0
 12 13  1  0  0  0  0
 13 14  1  0  0  0  0
 13 48  1  0  0  0  0
 13 49  1  0  0  0  0
 14 15  1  0  0  0  0
 14 50  1  0  0  0  0
 14 51  1  0  0  0  0
 15 16  1  0  0  0  0
 15 52  1  0  0  0  0
 15 53  1  0  0  0  0
 16 17  1  0  0  0  0
 17 18  2  0  0  0  0
 17 26  1  0  0  0  0
 18 19  1  0  0  0  0
 18 54  1  0  0  0  0
 19 20  2  0  0  0  0
 19 55  1  0  0  0  0
 20 21  1  0  0  0  0
 20 25  1  0  0  0  0
 21 22  1  0  0  0  0
 21 56  1  0  0  0  0
 21 57  1  0  0  0  0
 22 23  1  0  0  0  0
 22 58  1  0  0  0  0
 22 59  1  0  0  0  0
 23 24  1  0  0  0  0
 23 30  1  0  0  0  0
 23 60  1  0  0  0  0
 24 25  1  0  0  0  0
 25 26  2  0  0  0  0
 26 27  1  0  0  0  0
 27 28  1  0  0  0  0
 27 61  1  0  0  0  0
 27 62  1  0  0  0  0
 28 29  1  0  0  0  0
 28 63  1  0  0  0  0
 28 64  1  0  0  0  0
 29 65  1  0  0  0  0
 29 66  1  0  0  0  0
 29 67  1  0  0  0  0
 30 31  1  0  0  0  0
 30 32  2  0  0  0  0
 31 68  1  0  0  0  0
 33 34  1  0  0  0  0
 33 35  2  0  0  0  0
 34 69  1  0  0  0  0
 34 70  1  0  0  0  0
 34 71  1  0  0  0  0
M  END
>  <DRUGBANK_ID>
DB17101

>  <COMMON_NAME>
SC 41930

>  <CAS_NUMBER>
120072-59-5

>  <UNII>
EVH7O0422T

>  <SYNONYMS>
(+/-)-7-(3-(4-acetyl-3-methoxy-2-propylphenoxy)propoxy)-3,4-dihydro-8-propyl-2h-1-benzopyran-2-carboxylic acid; 2h-1-benzopyran-2-carboxylic acid, 7-(3-(4-acetyl-3-methoxy-2-propylphenoxy)propoxy)-3,4-dihydro-8-propyl-; 7-(3-(4-acetyl-3-methoxy-2-propyl-phenoxy)propoxyl-3,4-dihydro-8-propyl-2h-1-benzopyran-2-carboxylic acid

$$$$
