SYR
 OpenBabel10282417072D

 27 27  0  0  0  0  0  0  0  0999 V2000
    1.9783    0.3279    0.0000 O   0  0  0  0  0  0  0  0  0  0  0  0
    1.2639    0.7404    0.0000 C   0  0  0  0  0  0  0  0  0  0  0  0
    1.2639    1.5654    0.0000 O   0  0  0  0  0  0  0  0  0  0  0  0
    1.9783    1.9779    0.0000 C   0  0  0  0  0  0  0  0  0  0  0  0
    0.5494    0.3279    0.0000 C   0  0  0  0  0  0  0  0  0  0  0  0
    0.5494   -0.4971    0.0000 C   0  0  0  0  0  0  0  0  0  0  0  0
   -0.1651   -0.9096    0.0000 C   0  0  0  0  0  0  0  0  0  0  0  0
   -0.1651   -1.7346    0.0000 O   0  0  0  0  0  0  0  0  0  0  0  0
    0.5494   -2.1471    0.0000 C   0  0  0  0  0  0  0  0  0  0  0  0
   -0.1651    0.7404    0.0000 C   0  0  0  0  0  0  0  0  0  0  0  0
   -0.8796    0.3279    0.0000 C   0  0  0  0  0  0  0  0  0  0  0  0
   -1.5940    0.7404    0.0000 O   0  0  0  0  0  0  0  0  0  0  0  0
   -2.3085    0.3279    0.0000 C   0  0  0  0  0  0  0  0  0  0  0  0
   -0.8796   -0.4971    0.0000 C   0  0  0  0  0  0  0  0  0  0  0  0
   -1.5940   -0.9096    0.0000 O   0  0  0  0  0  0  0  0  0  0  0  0
    2.9050    1.4429    0.0000 H   0  0  0  0  0  0  0  0  0  0  0  0
    1.9783    3.0479    0.0000 H   0  0  0  0  0  0  0  0  0  0  0  0
    2.9049    2.5129    0.0000 H   0  0  0  0  0  0  0  0  0  0  0  0
    1.4431   -1.0131    0.0000 H   0  0  0  0  0  0  0  0  0  0  0  0
    0.5494   -3.2171    0.0000 H   0  0  0  0  0  0  0  0  0  0  0  0
    1.4760   -1.6121    0.0000 H   0  0  0  0  0  0  0  0  0  0  0  0
    1.4761   -2.6821    0.0000 H   0  0  0  0  0  0  0  0  0  0  0  0
   -0.1651    1.7724    0.0000 H   0  0  0  0  0  0  0  0  0  0  0  0
   -3.2351    0.8629    0.0000 H   0  0  0  0  0  0  0  0  0  0  0  0
   -2.3085   -0.7421    0.0000 H   0  0  0  0  0  0  0  0  0  0  0  0
   -3.2352   -0.2071    0.0000 H   0  0  0  0  0  0  0  0  0  0  0  0
   -2.4055   -0.4411    0.0000 H   0  0  0  0  0  0  0  0  0  0  0  0
  1  2  2  0  0  0  0
  2  3  1  0  0  0  0
  2  5  1  0  0  0  0
  3  4  1  0  0  0  0
  4 16  1  0  0  0  0
  4 17  1  0  0  0  0
  4 18  1  0  0  0  0
  5  6  2  0  0  0  0
  5 10  1  0  0  0  0
  6  7  1  0  0  0  0
  6 19  1  0  0  0  0
  7  8  1  0  0  0  0
  7 14  2  0  0  0  0
  8  9  1  0  0  0  0
  9 20  1  0  0  0  0
  9 21  1  0  0  0  0
  9 22  1  0  0  0  0
 10 11  2  0  0  0  0
 10 23  1  0  0  0  0
 11 12  1  0  0  0  0
 11 14  1  0  0  0  0
 12 13  1  0  0  0  0
 13 24  1  0  0  0  0
 13 25  1  0  0  0  0
 13 26  1  0  0  0  0
 14 15  1  0  0  0  0
 15 27  1  0  0  0  0
M  END
>  <DRUGBANK_ID>
DB08589

>  <COMMON_NAME>
SYRINGATE

>  <UNII>
W5A196MP8A

$$$$
