1526
 OpenBabel10282417072D

 51 54  0  0  1  0  0  0  0  0999 V2000
    7.5775    1.7429    0.0000 O   0  0  0  0  0  0  0  0  0  0  0  0
    2.0917   -1.8105    0.0000 O   0  0  0  0  0  0  0  0  0  0  0  0
    6.5406   -0.1176    0.0000 C   0  0  1  0  0  0  0  0  0  0  0  0
    5.8262   -0.5300    0.0000 C   0  0  1  0  0  0  0  0  0  0  0  0
    6.5406    0.7074    0.0000 C   0  0  2  0  0  0  0  0  0  0  0  0
    5.1119   -0.1176    0.0000 C   0  0  1  0  0  0  0  0  0  0  0  0
    4.3612   -0.5356    0.0000 C   0  0  2  0  0  0  0  0  0  0  0  0
    5.8262    1.1199    0.0000 C   0  0  0  0  0  0  0  0  0  0  0  0
    5.1119    0.7074    0.0000 C   0  0  0  0  0  0  0  0  0  0  0  0
    7.3211    0.9588    0.0000 C   0  0  2  0  0  0  0  0  0  0  0  0
    7.3211   -0.3689    0.0000 C   0  0  0  0  0  0  0  0  0  0  0  0
    5.8395   -1.3891    0.0000 C   0  0  0  0  0  0  0  0  0  0  0  0
    7.8026    0.2949    0.0000 C   0  0  0  0  0  0  0  0  0  0  0  0
    4.3545   -1.3948    0.0000 C   0  0  0  0  0  0  0  0  0  0  0  0
    5.0987   -1.8245    0.0000 C   0  0  0  0  0  0  0  0  0  0  0  0
    3.5966   -0.0703    0.0000 C   0  0  0  0  0  0  0  0  0  0  0  0
    6.5406    1.5323    0.0000 C   0  0  0  0  0  0  0  0  0  0  0  0
    4.3676    0.2893    0.0000 C   0  0  0  0  0  0  0  0  0  0  0  0
    2.8147   -0.5058    0.0000 C   0  0  0  0  0  0  0  0  0  0  0  0
    3.5829   -1.8483    0.0000 C   0  0  0  0  0  0  0  0  0  0  0  0
    2.8078   -1.4008    0.0000 C   0  0  1  0  0  0  0  0  0  0  0  0
    6.6105   -0.7738    0.0000 H   0  0  0  0  0  0  0  0  0  0  0  0
    6.4003   -0.8555    0.0000 H   0  0  0  0  0  0  0  0  0  0  0  0
    5.6833    0.2124    0.0000 H   0  0  0  0  0  0  0  0  0  0  0  0
    8.5267    1.9428    0.0000 H   0  0  0  0  0  0  0  0  0  0  0  0
    1.2536   -1.3222    0.0000 H   0  0  0  0  0  0  0  0  0  0  0  0
    5.8262    2.1899    0.0000 H   0  0  0  0  0  0  0  0  0  0  0  0
    4.8995    1.6548    0.0000 H   0  0  0  0  0  0  0  0  0  0  0  0
    4.1852    1.2424    0.0000 H   0  0  0  0  0  0  0  0  0  0  0  0
    5.1118    1.7774    0.0000 H   0  0  0  0  0  0  0  0  0  0  0  0
    6.5662    1.7171    0.0000 H   0  0  0  0  0  0  0  0  0  0  0  0
    7.6535   -1.3860    0.0000 H   0  0  0  0  0  0  0  0  0  0  0  0
    8.3781   -0.5350    0.0000 H   0  0  0  0  0  0  0  0  0  0  0  0
    6.7723   -1.9133    0.0000 H   0  0  0  0  0  0  0  0  0  0  0  0
    5.8499   -2.4590    0.0000 H   0  0  0  0  0  0  0  0  0  0  0  0
    8.8726    0.2949    0.0000 H   0  0  0  0  0  0  0  0  0  0  0  0
    8.2887   -0.6583    0.0000 H   0  0  0  0  0  0  0  0  0  0  0  0
    5.1028   -2.8945    0.0000 H   0  0  0  0  0  0  0  0  0  0  0  0
    4.1731   -2.3613    0.0000 H   0  0  0  0  0  0  0  0  0  0  0  0
    3.6172    0.9995    0.0000 H   0  0  0  0  0  0  0  0  0  0  0  0
    2.6794    0.4807    0.0000 H   0  0  0  0  0  0  0  0  0  0  0  0
    7.4672    2.0673    0.0000 H   0  0  0  0  0  0  0  0  0  0  0  0
    5.6140    2.0673    0.0000 H   0  0  0  0  0  0  0  0  0  0  0  0
    6.5406    2.6023    0.0000 H   0  0  0  0  0  0  0  0  0  0  0  0
    5.2984    0.8171    0.0000 H   0  0  0  0  0  0  0  0  0  0  0  0
    3.4451    0.8315    0.0000 H   0  0  0  0  0  0  0  0  0  0  0  0
    4.3759    1.3593    0.0000 H   0  0  0  0  0  0  0  0  0  0  0  0
    1.8943    0.0399    0.0000 H   0  0  0  0  0  0  0  0  0  0  0  0
    1.8829   -1.0318    0.0000 H   0  0  0  0  0  0  0  0  0  0  0  0
    3.5869   -2.8803    0.0000 H   0  0  0  0  0  0  0  0  0  0  0  0
    1.8843   -0.8604    0.0000 H   0  0  0  0  0  0  0  0  0  0  0  0
  1 25  1  0  0  0  0
  2 26  1  0  0  0  0
  3  4  1  0  0  0  0
  3  5  1  0  0  0  0
  3 11  1  0  0  0  0
  3 22  1  6  0  0  0
  4  6  1  0  0  0  0
  4 12  1  0  0  0  0
  4 23  1  1  0  0  0
  5  8  1  0  0  0  0
  5 10  1  0  0  0  0
  5 17  1  1  0  0  0
  6  7  1  0  0  0  0
  6  9  1  0  0  0  0
  6 24  1  6  0  0  0
  7 14  1  0  0  0  0
  7 16  1  0  0  0  0
  7 18  1  1  0  0  0
  8  9  1  0  0  0  0
  8 27  1  0  0  0  0
  8 28  1  0  0  0  0
  9 29  1  0  0  0  0
  9 30  1  0  0  0  0
 10  1  1  0  0  0  0
 10 13  1  0  0  0  0
 10 31  1  6  0  0  0
 11 13  1  0  0  0  0
 11 32  1  0  0  0  0
 11 33  1  0  0  0  0
 12 15  1  0  0  0  0
 12 34  1  0  0  0  0
 12 35  1  0  0  0  0
 13 36  1  0  0  0  0
 13 37  1  0  0  0  0
 14 15  1  0  0  0  0
 14 20  2  0  0  0  0
 15 38  1  0  0  0  0
 15 39  1  0  0  0  0
 16 19  1  0  0  0  0
 16 40  1  0  0  0  0
 16 41  1  0  0  0  0
 17 42  1  0  0  0  0
 17 43  1  0  0  0  0
 17 44  1  0  0  0  0
 18 45  1  0  0  0  0
 18 46  1  0  0  0  0
 18 47  1  0  0  0  0
 19 21  1  0  0  0  0
 19 48  1  0  0  0  0
 19 49  1  0  0  0  0
 20 21  1  0  0  0  0
 20 50  1  0  0  0  0
 21  2  1  0  0  0  0
 21 51  1  6  0  0  0
M  END
>  <DRUGBANK_ID>
DB01526

>  <COMMON_NAME>
4-Androstenediol

>  <CAS_NUMBER>
1156-92-9

>  <UNII>
G10EHA9I0D

$$$$
