4829
 OpenBabel10282417072D

 49 52  0  0  1  0  0  0  0  0999 V2000
    1.6596    0.6794    0.0000 O   0  0  0  0  0  0  0  0  0  0  0  0
    4.5735    0.6791    0.0000 N   0  0  0  0  0  0  0  0  0  0  0  0
    5.5486   -2.7169    0.0000 N   0  0  0  0  0  0  0  0  0  0  0  0
    2.3692    1.9196    0.0000 N   0  0  0  0  0  0  0  0  0  0  0  0
    4.5603   -0.1801    0.0000 C   0  0  1  0  0  0  0  0  0  0  0  0
    3.8458   -0.5926    0.0000 C   0  0  0  0  0  0  0  0  0  0  0  0
    5.2748   -0.5926    0.0000 C   0  0  0  0  0  0  0  0  0  0  0  0
    3.0885    0.6848    0.0000 C   0  0  1  0  0  0  0  0  0  0  0  0
    3.8327    1.1146    0.0000 C   0  0  0  0  0  0  0  0  0  0  0  0
    5.2748   -1.4176    0.0000 C   0  0  0  0  0  0  0  0  0  0  0  0
    3.8458   -1.4176    0.0000 C   0  0  0  0  0  0  0  0  0  0  0  0
    4.5603   -1.8301    0.0000 C   0  0  0  0  0  0  0  0  0  0  0  0
    3.0951   -0.1745    0.0000 C   0  0  0  0  0  0  0  0  0  0  0  0
    4.5735   -2.6893    0.0000 C   0  0  0  0  0  0  0  0  0  0  0  0
    5.2928    1.0834    0.0000 C   0  0  0  0  0  0  0  0  0  0  0  0
    2.3724    1.0946    0.0000 C   0  0  0  0  0  0  0  0  0  0  0  0
    5.8828   -1.9679    0.0000 C   0  0  0  0  0  0  0  0  0  0  0  0
    3.0951   -1.8358    0.0000 C   0  0  0  0  0  0  0  0  0  0  0  0
    3.8327   -3.1248    0.0000 C   0  0  0  0  0  0  0  0  0  0  0  0
    3.0885   -2.6951    0.0000 C   0  0  0  0  0  0  0  0  0  0  0  0
    3.0821    2.3348    0.0000 C   0  0  0  0  0  0  0  0  0  0  0  0
    1.6532    2.3293    0.0000 C   0  0  0  0  0  0  0  0  0  0  0  0
    3.0789    3.1598    0.0000 C   0  0  0  0  0  0  0  0  0  0  0  0
    1.6500    3.1543    0.0000 C   0  0  0  0  0  0  0  0  0  0  0  0
    5.1344    0.1454    0.0000 H   0  0  0  0  0  0  0  0  0  0  0  0
    6.0727   -3.5503    0.0000 H   0  0  0  0  0  0  0  0  0  0  0  0
    6.2014   -0.0576    0.0000 H   0  0  0  0  0  0  0  0  0  0  0  0
    6.2014   -1.1276    0.0000 H   0  0  0  0  0  0  0  0  0  0  0  0
    3.0864    1.7548    0.0000 H   0  0  0  0  0  0  0  0  0  0  0  0
    3.8368    2.1846    0.0000 H   0  0  0  0  0  0  0  0  0  0  0  0
    2.9071    1.6513    0.0000 H   0  0  0  0  0  0  0  0  0  0  0  0
    2.2074   -0.7008    0.0000 H   0  0  0  0  0  0  0  0  0  0  0  0
    6.2132    0.5377    0.0000 H   0  0  0  0  0  0  0  0  0  0  0  0
    5.3051    2.1533    0.0000 H   0  0  0  0  0  0  0  0  0  0  0  0
    6.2256    1.6077    0.0000 H   0  0  0  0  0  0  0  0  0  0  0  0
    6.8926   -1.7550    0.0000 H   0  0  0  0  0  0  0  0  0  0  0  0
    2.2074   -1.3095    0.0000 H   0  0  0  0  0  0  0  0  0  0  0  0
    3.8367   -4.1568    0.0000 H   0  0  0  0  0  0  0  0  0  0  0  0
    2.1928   -3.2076    0.0000 H   0  0  0  0  0  0  0  0  0  0  0  0
    4.0108    1.8034    0.0000 H   0  0  0  0  0  0  0  0  0  0  0  0
    4.0067    2.8734    0.0000 H   0  0  0  0  0  0  0  0  0  0  0  0
    0.7286    1.7907    0.0000 H   0  0  0  0  0  0  0  0  0  0  0  0
    0.7245    2.8607    0.0000 H   0  0  0  0  0  0  0  0  0  0  0  0
    4.0035    3.6984    0.0000 H   0  0  0  0  0  0  0  0  0  0  0  0
    2.1502    3.6912    0.0000 H   0  0  0  0  0  0  0  0  0  0  0  0
    3.0747    4.2298    0.0000 H   0  0  0  0  0  0  0  0  0  0  0  0
    2.5746    3.6929    0.0000 H   0  0  0  0  0  0  0  0  0  0  0  0
    0.7213    3.6857    0.0000 H   0  0  0  0  0  0  0  0  0  0  0  0
    1.6458    4.2243    0.0000 H   0  0  0  0  0  0  0  0  0  0  0  0
  1 16  2  0  0  0  0
  2  5  1  0  0  0  0
  2  9  1  0  0  0  0
  2 15  1  0  0  0  0
  3 14  1  0  0  0  0
  3 17  1  0  0  0  0
  3 26  1  0  0  0  0
  4 16  1  0  0  0  0
  4 21  1  0  0  0  0
  4 22  1  0  0  0  0
  5  6  1  0  0  0  0
  5  7  1  0  0  0  0
  5 25  1  1  0  0  0
  6 11  1  0  0  0  0
  6 13  2  0  0  0  0
  7 10  1  0  0  0  0
  7 27  1  0  0  0  0
  7 28  1  0  0  0  0
  8  9  1  0  0  0  0
  8 13  1  0  0  0  0
  8 16  1  0  0  0  0
  8 29  1  6  0  0  0
  9 30  1  0  0  0  0
  9 31  1  0  0  0  0
 10 12  1  0  0  0  0
 10 17  2  0  0  0  0
 11 12  2  0  0  0  0
 11 18  1  0  0  0  0
 12 14  1  0  0  0  0
 13 32  1  0  0  0  0
 14 19  2  0  0  0  0
 15 33  1  0  0  0  0
 15 34  1  0  0  0  0
 15 35  1  0  0  0  0
 17 36  1  0  0  0  0
 18 20  2  0  0  0  0
 18 37  1  0  0  0  0
 19 20  1  0  0  0  0
 19 38  1  0  0  0  0
 20 39  1  0  0  0  0
 21 23  1  0  0  0  0
 21 40  1  0  0  0  0
 21 41  1  0  0  0  0
 22 24  1  0  0  0  0
 22 42  1  0  0  0  0
 22 43  1  0  0  0  0
 23 44  1  0  0  0  0
 23 45  1  0  0  0  0
 23 46  1  0  0  0  0
 24 47  1  0  0  0  0
 24 48  1  0  0  0  0
 24 49  1  0  0  0  0
M  END
>  <DRUGBANK_ID>
DB04829

>  <COMMON_NAME>
Lysergic acid diethylamide

>  <CAS_NUMBER>
50-37-3

>  <UNII>
8NA5SWF92O

>  <SYNONYMS>
(+)-LSD; D-lysergic acid diethylamide; Diethylamid kyseliny lysergove; LSD; LSD 25; Lysergic acid diethylamide; Lysergide; Lysergidum; Lysergsäurediäthylamid; Lysergsäurediethylamid; N,N-diethyl-(+)-lysergamide; N,N-diethyl-D-lysergamide; N,N-diethyllysergamide

$$$$
