N24
 OpenBabel10282417072D

 32 34  0  0  0  0  0  0  0  0999 V2000
    0.3017    0.8456    0.0000 C   0  0  0  0  0  0  0  0  0  0  0  0
    0.3017    1.6706    0.0000 C   0  0  0  0  0  0  0  0  0  0  0  0
    1.0161    2.0831    0.0000 Br  0  0  0  0  0  0  0  0  0  0  0  0
   -0.4128    2.0831    0.0000 C   0  0  0  0  0  0  0  0  0  0  0  0
   -1.1273    1.6706    0.0000 C   0  0  0  0  0  0  0  0  0  0  0  0
   -1.1273    0.8456    0.0000 C   0  0  0  0  0  0  0  0  0  0  0  0
   -0.4128    0.4331    0.0000 C   0  0  0  0  0  0  0  0  0  0  0  0
   -0.4128   -0.3919    0.0000 C   0  0  2  0  0  0  0  0  0  0  0  0
   -1.0802   -0.8768    0.0000 S   0  0  0  0  0  0  0  0  0  0  0  0
   -0.8253   -1.6614    0.0000 C   0  0  0  0  0  0  0  0  0  0  0  0
   -0.0003   -1.6614    0.0000 C   0  0  0  0  0  0  0  0  0  0  0  0
    0.4846   -2.3288    0.0000 O   0  0  0  0  0  0  0  0  0  0  0  0
    0.2546   -0.8768    0.0000 N   0  0  0  0  0  0  0  0  0  0  0  0
    1.0393   -0.6218    0.0000 C   0  0  0  0  0  0  0  0  0  0  0  0
    1.2108    0.1851    0.0000 C   0  0  0  0  0  0  0  0  0  0  0  0
    1.9954    0.4401    0.0000 C   0  0  0  0  0  0  0  0  0  0  0  0
    2.6085   -0.1120    0.0000 C   0  0  0  0  0  0  0  0  0  0  0  0
    2.4370   -0.9189    0.0000 C   0  0  0  0  0  0  0  0  0  0  0  0
    1.6524   -1.1739    0.0000 C   0  0  0  0  0  0  0  0  0  0  0  0
    1.4808   -1.9809    0.0000 O   0  0  0  0  0  0  0  0  0  0  0  0
    2.1669    1.2470    0.0000 Cl  0  0  0  0  0  0  0  0  0  0  0  0
   -0.9331   -0.1268    0.0000 H   0  0  0  0  0  0  0  0  0  0  0  0
    1.1954    0.3296    0.0000 H   0  0  0  0  0  0  0  0  0  0  0  0
   -0.4128    3.1151    0.0000 H   0  0  0  0  0  0  0  0  0  0  0  0
   -2.0210    2.1866    0.0000 H   0  0  0  0  0  0  0  0  0  0  0  0
   -2.0210    0.3296    0.0000 H   0  0  0  0  0  0  0  0  0  0  0  0
   -1.4542   -2.5270    0.0000 H   0  0  0  0  0  0  0  0  0  0  0  0
   -0.3395   -2.6148    0.0000 H   0  0  0  0  0  0  0  0  0  0  0  0
    0.4438    0.8756    0.0000 H   0  0  0  0  0  0  0  0  0  0  0  0
    3.5900    0.2069    0.0000 H   0  0  0  0  0  0  0  0  0  0  0  0
    3.2040   -1.6094    0.0000 H   0  0  0  0  0  0  0  0  0  0  0  0
    0.5896   -2.2704    0.0000 H   0  0  0  0  0  0  0  0  0  0  0  0
  1  2  2  0  0  0  0
  1  7  1  0  0  0  0
  1 23  1  0  0  0  0
  2  3  1  0  0  0  0
  2  4  1  0  0  0  0
  4  5  2  0  0  0  0
  4 24  1  0  0  0  0
  5  6  1  0  0  0  0
  5 25  1  0  0  0  0
  6  7  2  0  0  0  0
  6 26  1  0  0  0  0
  8  7  1  0  0  0  0
  8  9  1  0  0  0  0
  8 13  1  0  0  0  0
  8 22  1  6  0  0  0
  9 10  1  0  0  0  0
 10 11  1  0  0  0  0
 10 27  1  0  0  0  0
 10 28  1  0  0  0  0
 11 12  2  0  0  0  0
 11 13  1  0  0  0  0
 13 14  1  0  0  0  0
 14 15  2  0  0  0  0
 14 19  1  0  0  0  0
 15 16  1  0  0  0  0
 15 29  1  0  0  0  0
 16 17  2  0  0  0  0
 16 21  1  0  0  0  0
 17 18  1  0  0  0  0
 17 30  1  0  0  0  0
 18 19  2  0  0  0  0
 18 31  1  0  0  0  0
 19 20  1  0  0  0  0
 20 32  1  0  0  0  0
M  END
>  <DRUGBANK_ID>
DB08236

>  <COMMON_NAME>
(2S)-2-(3-bromophenyl)-3-(5-chloro-2-hydroxyphenyl)-1,3-thiazolidin-4-one

$$$$
