
 OpenBabel10282417072D

 43 44  0  0  0  0  0  0  0  0999 V2000
   -1.4289    2.6812    0.0000 C   0  0  0  0  0  0  0  0  0  0  0  0
   -0.7144    2.2687    0.0000 O   0  0  0  0  0  0  0  0  0  0  0  0
   -0.7144    1.4437    0.0000 C   0  0  0  0  0  0  0  0  0  0  0  0
    0.0000    1.0312    0.0000 C   0  0  0  0  0  0  0  0  0  0  0  0
    0.0000    0.2062    0.0000 C   0  0  0  0  0  0  0  0  0  0  0  0
    0.7144   -0.2062    0.0000 C   0  0  0  0  0  0  0  0  0  0  0  0
    1.4289    0.2062    0.0000 O   0  0  0  0  0  0  0  0  0  0  0  0
    0.7144   -1.0312    0.0000 N   0  0  0  0  0  0  0  0  0  0  0  0
    1.4289   -1.4437    0.0000 C   0  0  3  0  0  0  0  0  0  0  0  0
    2.1434   -1.0312    0.0000 C   0  0  0  0  0  0  0  0  0  0  0  0
    2.8578   -1.4437    0.0000 C   0  0  0  0  0  0  0  0  0  0  0  0
    2.8578   -2.2687    0.0000 C   0  0  0  0  0  0  0  0  0  0  0  0
    2.1434   -2.6812    0.0000 N   0  0  0  0  0  0  0  0  0  0  0  0
    1.4289   -2.2687    0.0000 C   0  0  0  0  0  0  0  0  0  0  0  0
   -0.7144   -0.2062    0.0000 C   0  0  0  0  0  0  0  0  0  0  0  0
   -1.4289    0.2062    0.0000 C   0  0  0  0  0  0  0  0  0  0  0  0
   -2.1434   -0.2062    0.0000 O   0  0  0  0  0  0  0  0  0  0  0  0
   -2.8578    0.2062    0.0000 C   0  0  0  0  0  0  0  0  0  0  0  0
   -1.4289    1.0312    0.0000 C   0  0  0  0  0  0  0  0  0  0  0  0
   -2.1434    1.4437    0.0000 O   0  0  0  0  0  0  0  0  0  0  0  0
   -2.8578    1.0312    0.0000 C   0  0  0  0  0  0  0  0  0  0  0  0
   -1.4289    3.7512    0.0000 H   0  0  0  0  0  0  0  0  0  0  0  0
   -2.3555    2.1462    0.0000 H   0  0  0  0  0  0  0  0  0  0  0  0
   -2.3556    3.2162    0.0000 H   0  0  0  0  0  0  0  0  0  0  0  0
    0.8937    1.5472    0.0000 H   0  0  0  0  0  0  0  0  0  0  0  0
   -0.1382   -1.5235    0.0000 H   0  0  0  0  0  0  0  0  0  0  0  0
    1.4289   -0.3737    0.0000 H   0  0  0  0  0  0  0  0  0  0  0  0
    2.1434    0.0388    0.0000 H   0  0  0  0  0  0  0  0  0  0  0  0
    3.0701   -0.4962    0.0000 H   0  0  0  0  0  0  0  0  0  0  0  0
    3.7845   -0.9087    0.0000 H   0  0  0  0  0  0  0  0  0  0  0  0
    3.7844   -1.9787    0.0000 H   0  0  0  0  0  0  0  0  0  0  0  0
    3.7845   -2.8037    0.0000 H   0  0  0  0  0  0  0  0  0  0  0  0
    2.8578   -3.3387    0.0000 H   0  0  0  0  0  0  0  0  0  0  0  0
    2.1434   -3.7012    0.0000 H   0  0  0  0  0  0  0  0  0  0  0  0
    0.5023   -2.8037    0.0000 H   0  0  0  0  0  0  0  0  0  0  0  0
    0.5023   -1.7337    0.0000 H   0  0  0  0  0  0  0  0  0  0  0  0
   -0.7144   -1.2382    0.0000 H   0  0  0  0  0  0  0  0  0  0  0  0
   -2.8579    1.2762    0.0000 H   0  0  0  0  0  0  0  0  0  0  0  0
   -3.7844   -0.3289    0.0000 H   0  0  0  0  0  0  0  0  0  0  0  0
   -3.7845    0.7411    0.0000 H   0  0  0  0  0  0  0  0  0  0  0  0
   -3.7845    1.5662    0.0000 H   0  0  0  0  0  0  0  0  0  0  0  0
   -2.8578   -0.0388    0.0000 H   0  0  0  0  0  0  0  0  0  0  0  0
   -3.7844    0.4962    0.0000 H   0  0  0  0  0  0  0  0  0  0  0  0
  1  2  1  0  0  0  0
  1 22  1  0  0  0  0
  1 23  1  0  0  0  0
  1 24  1  0  0  0  0
  2  3  1  0  0  0  0
  3  4  2  0  0  0  0
  3 19  1  0  0  0  0
  4  5  1  0  0  0  0
  4 25  1  0  0  0  0
  5  6  1  0  0  0  0
  5 15  2  0  0  0  0
  6  7  2  0  0  0  0
  6  8  1  0  0  0  0
  8  9  1  0  0  0  0
  8 26  1  0  0  0  0
  9 10  1  0  0  0  0
  9 14  1  0  0  0  0
  9 27  1  0  0  0  0
 10 11  1  0  0  0  0
 10 28  1  0  0  0  0
 10 29  1  0  0  0  0
 11 12  1  0  0  0  0
 11 30  1  0  0  0  0
 11 31  1  0  0  0  0
 12 13  1  0  0  0  0
 12 32  1  0  0  0  0
 12 33  1  0  0  0  0
 13 14  1  0  0  0  0
 13 34  1  0  0  0  0
 14 35  1  0  0  0  0
 14 36  1  0  0  0  0
 15 16  1  0  0  0  0
 15 37  1  0  0  0  0
 16 17  1  0  0  0  0
 16 19  2  0  0  0  0
 17 18  1  0  0  0  0
 18 38  1  0  0  0  0
 18 39  1  0  0  0  0
 18 40  1  0  0  0  0
 19 20  1  0  0  0  0
 20 21  1  0  0  0  0
 21 41  1  0  0  0  0
 21 42  1  0  0  0  0
 21 43  1  0  0  0  0
M  END
>  <DRUGBANK_ID>
DB13419

>  <COMMON_NAME>
Troxipide

>  <CAS_NUMBER>
30751-05-4

>  <UNII>
W6QJX1Q00Z

>  <SYNONYMS>
Troxipide

$$$$
