
 OpenBabel10282417072D

 27 29  0  0  0  0  0  0  0  0999 V2000
   28.6022  -19.1936    0.0000 O   0  0  0  0  0  0  0  0  0  0  0  0
   28.6022  -21.6684    0.0000 O   0  0  0  0  0  0  0  0  0  0  0  0
   27.8878  -19.6060    0.0000 C   0  0  0  0  0  0  0  0  0  0  0  0
   29.3165  -19.6060    0.0000 C   0  0  0  0  0  0  0  0  0  0  0  0
   28.6022  -20.8435    0.0000 C   0  0  0  0  0  0  0  0  0  0  0  0
   27.1735  -19.1936    0.0000 C   0  0  0  0  0  0  0  0  0  0  0  0
   29.3165  -20.4310    0.0000 C   0  0  0  0  0  0  0  0  0  0  0  0
   27.8878  -20.4310    0.0000 C   0  0  0  0  0  0  0  0  0  0  0  0
   30.0541  -19.1650    0.0000 C   0  0  0  0  0  0  0  0  0  0  0  0
   26.4590  -19.6060    0.0000 C   0  0  0  0  0  0  0  0  0  0  0  0
   27.1735  -18.3687    0.0000 C   0  0  0  0  0  0  0  0  0  0  0  0
   30.0541  -20.8721    0.0000 C   0  0  0  0  0  0  0  0  0  0  0  0
   30.8014  -19.5889    0.0000 C   0  0  0  0  0  0  0  0  0  0  0  0
   25.7447  -19.1936    0.0000 C   0  0  0  0  0  0  0  0  0  0  0  0
   26.4590  -17.9562    0.0000 C   0  0  0  0  0  0  0  0  0  0  0  0
   30.8014  -20.4481    0.0000 C   0  0  0  0  0  0  0  0  0  0  0  0
   25.7447  -18.3687    0.0000 C   0  0  0  0  0  0  0  0  0  0  0  0
   26.9941  -20.9470    0.0000 H   0  0  0  0  0  0  0  0  0  0  0  0
   30.0423  -18.1331    0.0000 H   0  0  0  0  0  0  0  0  0  0  0  0
   26.4589  -20.6380    0.0000 H   0  0  0  0  0  0  0  0  0  0  0  0
   28.0672  -17.8527    0.0000 H   0  0  0  0  0  0  0  0  0  0  0  0
   30.0423  -21.9040    0.0000 H   0  0  0  0  0  0  0  0  0  0  0  0
   31.6932  -19.0695    0.0000 H   0  0  0  0  0  0  0  0  0  0  0  0
   24.8510  -19.7096    0.0000 H   0  0  0  0  0  0  0  0  0  0  0  0
   26.4589  -16.9242    0.0000 H   0  0  0  0  0  0  0  0  0  0  0  0
   31.6932  -20.9675    0.0000 H   0  0  0  0  0  0  0  0  0  0  0  0
   24.8509  -17.8527    0.0000 H   0  0  0  0  0  0  0  0  0  0  0  0
  1  3  1  0  0  0  0
  1  4  1  0  0  0  0
  2  5  2  0  0  0  0
  3  6  1  0  0  0  0
  3  8  2  0  0  0  0
  4  7  1  0  0  0  0
  4  9  2  0  0  0  0
  5  7  1  0  0  0  0
  5  8  1  0  0  0  0
  6 10  2  0  0  0  0
  6 11  1  0  0  0  0
  7 12  2  0  0  0  0
  8 18  1  0  0  0  0
  9 13  1  0  0  0  0
  9 19  1  0  0  0  0
 10 14  1  0  0  0  0
 10 20  1  0  0  0  0
 11 15  2  0  0  0  0
 11 21  1  0  0  0  0
 12 16  1  0  0  0  0
 12 22  1  0  0  0  0
 13 16  2  0  0  0  0
 13 23  1  0  0  0  0
 14 17  2  0  0  0  0
 14 24  1  0  0  0  0
 15 17  1  0  0  0  0
 15 25  1  0  0  0  0
 16 26  1  0  0  0  0
 17 27  1  0  0  0  0
M  END
>  <DRUGBANK_ID>
DB07776

>  <SECONDARY_ACCESSION_NUMBERS>
DB11139

>  <COMMON_NAME>
Flavone

>  <CAS_NUMBER>
525-82-6

>  <UNII>
S2V45N7G3B

>  <SYNONYMS>
2-Phenyl-4-benzopyron; 2-Phenyl-4-chromone; 2-phenyl-4H-1-benzopyran-4-one; 2-phenyl-4H-benzopyran-4-one; 2-phenyl-Î³-benzopyrone; 2-Phenylbenzopyran-4-one; 2-phenylchromone; Flavon

$$$$
