
 OpenBabel10282417072D

 57 57  0  0  1  0  0  0  0  0999 V2000
    8.5222   -1.7365    0.0000 O   0  0  0  0  0  0  0  0  0  0  0  0
    6.1727   -3.4435    0.0000 O   0  0  0  0  0  0  0  0  0  0  0  0
    7.0701    0.9685    0.0000 O   0  0  0  0  0  0  0  0  0  0  0  0
    2.1365    0.8972    0.0000 O   0  0  0  0  0  0  0  0  0  0  0  0
    1.6949   -0.4618    0.0000 O   0  0  0  0  0  0  0  0  0  0  0  0
    7.0701   -1.5065    0.0000 C   0  0  2  0  0  0  0  0  0  0  0  0
    6.4027   -1.9915    0.0000 C   0  0  2  0  0  0  0  0  0  0  0  0
    7.7375   -1.9915    0.0000 C   0  0  1  0  0  0  0  0  0  0  0  0
    7.4826   -2.7761    0.0000 C   0  0  0  0  0  0  0  0  0  0  0  0
    6.6576   -2.7761    0.0000 C   0  0  0  0  0  0  0  0  0  0  0  0
    5.6180   -1.7365    0.0000 C   0  0  0  0  0  0  0  0  0  0  0  0
    7.0701   -0.6815    0.0000 C   0  0  0  0  0  0  0  0  0  0  0  0
    7.7846   -0.2690    0.0000 C   0  0  0  0  0  0  0  0  0  0  0  0
    5.0050   -2.2886    0.0000 C   0  0  0  0  0  0  0  0  0  0  0  0
    7.7846    0.5560    0.0000 C   0  0  2  0  0  0  0  0  0  0  0  0
    8.4990    0.9685    0.0000 C   0  0  0  0  0  0  0  0  0  0  0  0
    8.4990    1.7935    0.0000 C   0  0  0  0  0  0  0  0  0  0  0  0
    4.2203   -2.0336    0.0000 C   0  0  0  0  0  0  0  0  0  0  0  0
    9.2136    2.2060    0.0000 C   0  0  0  0  0  0  0  0  0  0  0  0
    4.0488   -1.2266    0.0000 C   0  0  0  0  0  0  0  0  0  0  0  0
    9.2136    3.0310    0.0000 C   0  0  0  0  0  0  0  0  0  0  0  0
    3.2641   -0.9717    0.0000 C   0  0  0  0  0  0  0  0  0  0  0  0
    3.0926   -0.1647    0.0000 C   0  0  0  0  0  0  0  0  0  0  0  0
    9.9280    3.4435    0.0000 C   0  0  0  0  0  0  0  0  0  0  0  0
    2.3080    0.0903    0.0000 C   0  0  0  0  0  0  0  0  0  0  0  0
    9.2431   -2.3855    0.0000 H   0  0  0  0  0  0  0  0  0  0  0  0
    7.0701    1.9385    0.0000 H   0  0  0  0  0  0  0  0  0  0  0  0
    2.8328    1.5242    0.0000 H   0  0  0  0  0  0  0  0  0  0  0  0
    6.1167   -1.0208    0.0000 H   0  0  0  0  0  0  0  0  0  0  0  0
    6.2353   -0.9347    0.0000 H   0  0  0  0  0  0  0  0  0  0  0  0
    7.9049   -0.9347    0.0000 H   0  0  0  0  0  0  0  0  0  0  0  0
    8.1115   -3.6417    0.0000 H   0  0  0  0  0  0  0  0  0  0  0  0
    6.9968   -3.7295    0.0000 H   0  0  0  0  0  0  0  0  0  0  0  0
    5.3955   -0.6899    0.0000 H   0  0  0  0  0  0  0  0  0  0  0  0
    4.6003   -1.4059    0.0000 H   0  0  0  0  0  0  0  0  0  0  0  0
    6.1764   -0.1655    0.0000 H   0  0  0  0  0  0  0  0  0  0  0  0
    8.6783   -0.7850    0.0000 H   0  0  0  0  0  0  0  0  0  0  0  0
    5.2196   -3.2980    0.0000 H   0  0  0  0  0  0  0  0  0  0  0  0
    6.8580    0.0210    0.0000 H   0  0  0  0  0  0  0  0  0  0  0  0
    9.4257    0.4335    0.0000 H   0  0  0  0  0  0  0  0  0  0  0  0
    9.4256    1.5035    0.0000 H   0  0  0  0  0  0  0  0  0  0  0  0
    7.5724    2.3285    0.0000 H   0  0  0  0  0  0  0  0  0  0  0  0
    8.4991    2.8635    0.0000 H   0  0  0  0  0  0  0  0  0  0  0  0
    3.4533   -2.7241    0.0000 H   0  0  0  0  0  0  0  0  0  0  0  0
   10.1402    1.6710    0.0000 H   0  0  0  0  0  0  0  0  0  0  0  0
   10.1403    2.7410    0.0000 H   0  0  0  0  0  0  0  0  0  0  0  0
    4.8440   -0.5106    0.0000 H   0  0  0  0  0  0  0  0  0  0  0  0
    3.8263   -0.1800    0.0000 H   0  0  0  0  0  0  0  0  0  0  0  0
    8.2869    3.5660    0.0000 H   0  0  0  0  0  0  0  0  0  0  0  0
    9.2136    4.1010    0.0000 H   0  0  0  0  0  0  0  0  0  0  0  0
    2.4689   -1.6877    0.0000 H   0  0  0  0  0  0  0  0  0  0  0  0
    2.2465   -0.6410    0.0000 H   0  0  0  0  0  0  0  0  0  0  0  0
    3.8878    0.5512    0.0000 H   0  0  0  0  0  0  0  0  0  0  0  0
    2.8702    0.8819    0.0000 H   0  0  0  0  0  0  0  0  0  0  0  0
   10.8547    2.9085    0.0000 H   0  0  0  0  0  0  0  0  0  0  0  0
    9.9280    4.5135    0.0000 H   0  0  0  0  0  0  0  0  0  0  0  0
   10.8546    3.9785    0.0000 H   0  0  0  0  0  0  0  0  0  0  0  0
  1 26  1  0  0  0  0
  2 10  2  0  0  0  0
  3 27  1  0  0  0  0
  4 25  1  0  0  0  0
  4 28  1  0  0  0  0
  5 25  2  0  0  0  0
  6  7  1  0  0  0  0
  6  8  1  0  0  0  0
  6 12  1  0  0  0  0
  6 29  1  6  0  0  0
  7 10  1  0  0  0  0
  7 11  1  0  0  0  0
  7 30  1  1  0  0  0
  8  1  1  0  0  0  0
  8  9  1  0  0  0  0
  8 31  1  1  0  0  0
  9 10  1  0  0  0  0
  9 32  1  0  0  0  0
  9 33  1  0  0  0  0
 11 14  1  0  0  0  0
 11 34  1  0  0  0  0
 11 35  1  0  0  0  0
 12 13  2  0  0  0  0
 12 36  1  0  0  0  0
 13 15  1  0  0  0  0
 13 37  1  0  0  0  0
 14 18  2  0  0  0  0
 14 38  1  0  0  0  0
 15  3  1  0  0  0  0
 15 16  1  0  0  0  0
 15 39  1  6  0  0  0
 16 17  1  0  0  0  0
 16 40  1  0  0  0  0
 16 41  1  0  0  0  0
 17 19  1  0  0  0  0
 17 42  1  0  0  0  0
 17 43  1  0  0  0  0
 18 20  1  0  0  0  0
 18 44  1  0  0  0  0
 19 21  1  0  0  0  0
 19 45  1  0  0  0  0
 19 46  1  0  0  0  0
 20 22  1  0  0  0  0
 20 47  1  0  0  0  0
 20 48  1  0  0  0  0
 21 24  1  0  0  0  0
 21 49  1  0  0  0  0
 21 50  1  0  0  0  0
 22 23  1  0  0  0  0
 22 51  1  0  0  0  0
 22 52  1  0  0  0  0
 23 25  1  0  0  0  0
 23 53  1  0  0  0  0
 23 54  1  0  0  0  0
 24 55  1  0  0  0  0
 24 56  1  0  0  0  0
 24 57  1  0  0  0  0
M  END
>  <DRUGBANK_ID>
DB00917

>  <SECONDARY_ACCESSION_NUMBERS>
APRD00927

>  <COMMON_NAME>
Dinoprostone

>  <CAS_NUMBER>
363-24-6

>  <UNII>
K7Q1JQR04M

>  <SYNONYMS>
(15S)-prostaglandin E2; (5Z,11Î±,13E,15S)-11,15-dihydroxy-9-oxoprosta-5,13-dien-1-oic acid; (5Z,13E)-(15S)-11alpha,15-Dihydroxy-9-oxoprost-13-enoate; (5Z,13E)-(15S)-11alpha,15-Dihydroxy-9-oxoprosta-5,13-dienoate; (E,Z)-(1R,2R,3R)-7-(3-Hydroxy-2-((3S)-(3-hydroxy-1-octenyl))-5-oxocyclopentyl)-5-heptenoic acid; (Z)-7-((1R,2R,3R)-3-hydroxy-2-((S,E)-3-hydroxyoct-1-enyl)-5-oxocyclopentyl)hept-5-enoic acid; Dinoproston; Dinoprostona; Dinoprostone; Dinoprostone Prostaglandin E2; Dinoprostonum; PGE2; Prostaglandin E2

$$$$
