
 OpenBabel10282417072D

 38 41  0  0  0  0  0  0  0  0999 V2000
    4.4714   -2.7438    0.0000 C   0  0  0  0  0  0  0  0  0  0  0  0
    1.7100   -2.4055    0.0000 C   0  0  0  0  0  0  0  0  0  0  0  0
    4.5944   -1.9280    0.0000 C   0  0  0  0  0  0  0  0  0  0  0  0
    5.0884    1.2321    0.0000 C   0  0  0  0  0  0  0  0  0  0  0  0
    4.9654    2.0478    0.0000 C   0  0  0  0  0  0  0  0  0  0  0  0
    4.4434    0.7177    0.0000 C   0  0  0  0  0  0  0  0  0  0  0  0
    4.1974    2.3492    0.0000 C   0  0  0  0  0  0  0  0  0  0  0  0
    3.9864   -0.5895    0.0000 C   0  0  0  0  0  0  0  0  0  0  0  0
    1.5438    0.5047    0.0000 C   0  0  0  0  0  0  0  0  0  0  0  0
    1.4201   -1.6331    0.0000 C   0  0  0  0  0  0  0  0  0  0  0  0
    3.9493   -1.4137    0.0000 C   0  0  0  0  0  0  0  0  0  0  0  0
    3.6754    1.0191    0.0000 C   0  0  0  0  0  0  0  0  0  0  0  0
    3.2140   -0.2996    0.0000 C   0  0  0  0  0  0  0  0  0  0  0  0
    3.5524    1.8349    0.0000 C   0  0  0  0  0  0  0  0  0  0  0  0
    1.3602   -0.2996    0.0000 C   0  0  0  0  0  0  0  0  0  0  0  0
    3.0304    0.5047    0.0000 C   0  0  0  0  0  0  0  0  0  0  0  0
    2.6996   -0.9446    0.0000 C   0  0  0  0  0  0  0  0  0  0  0  0
    2.7845    2.1363    0.0000 Cl  0  0  0  0  0  0  0  0  0  0  0  0
    2.2871    0.8627    0.0000 N   0  0  0  0  0  0  0  0  0  0  0  0
    0.6248   -1.4137    0.0000 N   0  0  0  0  0  0  0  0  0  0  0  0
    0.5878   -0.5895    0.0000 N   0  0  0  0  0  0  0  0  0  0  0  0
    1.8746   -0.9446    0.0000 N   0  0  0  0  0  0  0  0  0  0  0  0
    3.1541   -1.6331    0.0000 S   0  0  0  0  0  0  0  0  0  0  0  0
    3.4753   -3.1347    0.0000 H   0  0  0  0  0  0  0  0  0  0  0  0
    5.3079   -3.4110    0.0000 H   0  0  0  0  0  0  0  0  0  0  0  0
    4.3119   -3.8018    0.0000 H   0  0  0  0  0  0  0  0  0  0  0  0
    1.0304   -3.2320    0.0000 H   0  0  0  0  0  0  0  0  0  0  0  0
    2.7655   -2.5808    0.0000 H   0  0  0  0  0  0  0  0  0  0  0  0
    2.0860   -3.4073    0.0000 H   0  0  0  0  0  0  0  0  0  0  0  0
    5.5904   -1.5370    0.0000 H   0  0  0  0  0  0  0  0  0  0  0  0
    4.7538   -0.8699    0.0000 H   0  0  0  0  0  0  0  0  0  0  0  0
    6.0491    0.8551    0.0000 H   0  0  0  0  0  0  0  0  0  0  0  0
    5.7722    2.6913    0.0000 H   0  0  0  0  0  0  0  0  0  0  0  0
    4.5972   -0.3028    0.0000 H   0  0  0  0  0  0  0  0  0  0  0  0
    4.0436    3.3697    0.0000 H   0  0  0  0  0  0  0  0  0  0  0  0
    4.8477   -0.0210    0.0000 H   0  0  0  0  0  0  0  0  0  0  0  0
    0.7072    1.1718    0.0000 H   0  0  0  0  0  0  0  0  0  0  0  0
    1.6636    1.5680    0.0000 H   0  0  0  0  0  0  0  0  0  0  0  0
  1 24  1  0  0  0  0
  1 25  1  0  0  0  0
  1 26  1  0  0  0  0
  2 27  1  0  0  0  0
  2 28  1  0  0  0  0
  2 29  1  0  0  0  0
  3  1  1  0  0  0  0
  3 30  1  0  0  0  0
  3 31  1  0  0  0  0
  4 32  1  0  0  0  0
  5  4  2  0  0  0  0
  5 33  1  0  0  0  0
  6  4  1  0  0  0  0
  6 34  1  0  0  0  0
  7  5  1  0  0  0  0
  7 35  1  0  0  0  0
  8 36  1  0  0  0  0
  9 37  1  0  0  0  0
  9 38  1  0  0  0  0
 10  2  1  0  0  0  0
 11  3  1  0  0  0  0
 11  8  2  0  0  0  0
 12  6  2  0  0  0  0
 13  8  1  0  0  0  0
 14  7  2  0  0  0  0
 14 12  1  0  0  0  0
 15  9  1  0  0  0  0
 16 12  1  0  0  0  0
 16 13  1  0  0  0  0
 17 13  2  0  0  0  0
 18 14  1  0  0  0  0
 19  9  1  0  0  0  0
 19 16  2  0  0  0  0
 20 10  2  0  0  0  0
 21 15  2  0  0  0  0
 21 20  1  0  0  0  0
 22 10  1  0  0  0  0
 22 15  1  0  0  0  0
 22 17  1  0  0  0  0
 23 11  1  0  0  0  0
 23 17  1  0  0  0  0
M  END
>  <DRUGBANK_ID>
DB09166

>  <COMMON_NAME>
Etizolam

>  <CAS_NUMBER>
40054-69-1

>  <UNII>
A76XI0HL37

>  <SYNONYMS>
4-(o-Chlorophenyl)-2-ethyl-9-methyl-6H-thieno(3,2-f)-s-triazolo(4,3-a)(1,4)diazepine; Etizolam

$$$$
