
 OpenBabel10282417072D

 50 52  0  0  0  0  0  0  0  0999 V2000
    2.9456   -2.5752    0.0000 P   0  0  0  0  0  0  0  0  0  0  0  0
    1.4103   -0.5420    0.0000 O   0  0  0  0  0  0  0  0  0  0  0  0
   -0.7090   -0.2871    0.0000 O   0  0  0  0  0  0  0  0  0  0  0  0
   -0.1544   -1.9940    0.0000 O   0  0  0  0  0  0  0  0  0  0  0  0
    2.4607   -1.9077    0.0000 O   0  0  0  0  0  0  0  0  0  0  0  0
    2.1717    0.7677    0.0000 O   0  0  0  0  0  0  0  0  0  0  0  0
    3.4304   -3.2425    0.0000 O   0  0  0  0  0  0  0  0  0  0  0  0
    3.6129   -2.0903    0.0000 O   0  0  0  0  0  0  0  0  0  0  0  0
    0.7429    3.2425    0.0000 O   0  0  0  0  0  0  0  0  0  0  0  0
    2.2781   -3.0600    0.0000 O   0  0  0  0  0  0  0  0  0  0  0  0
    0.7429    0.7677    0.0000 N   0  0  0  0  0  0  0  0  0  0  0  0
    1.4573    2.0051    0.0000 N   0  0  0  0  0  0  0  0  0  0  0  0
   -2.7196   -1.1361    0.0000 N   0  0  0  0  0  0  0  0  0  0  0  0
   -3.9390   -1.6790    0.0000 N   0  0  0  0  0  0  0  0  0  0  0  0
    0.0755   -0.5420    0.0000 C   0  0  2  0  0  0  0  0  0  0  0  0
    0.3304   -1.3266    0.0000 C   0  0  1  0  0  0  0  0  0  0  0  0
    0.7429   -0.0571    0.0000 C   0  0  1  0  0  0  0  0  0  0  0  0
    1.1554   -1.3266    0.0000 C   0  0  1  0  0  0  0  0  0  0  0  0
    1.6403   -1.9940    0.0000 C   0  0  0  0  0  0  0  0  0  0  0  0
   -1.3220   -0.8391    0.0000 C   0  0  0  0  0  0  0  0  0  0  0  0
    0.0284    1.1802    0.0000 C   0  0  0  0  0  0  0  0  0  0  0  0
    1.4573    1.1802    0.0000 C   0  0  0  0  0  0  0  0  0  0  0  0
   -2.1066   -0.5842    0.0000 C   0  0  0  0  0  0  0  0  0  0  0  0
    0.0284    2.0051    0.0000 C   0  0  0  0  0  0  0  0  0  0  0  0
    0.7429    2.4176    0.0000 C   0  0  0  0  0  0  0  0  0  0  0  0
   -0.6859    2.4176    0.0000 C   0  0  0  0  0  0  0  0  0  0  0  0
   -2.6334   -1.9565    0.0000 C   0  0  0  0  0  0  0  0  0  0  0  0
   -3.5266   -0.9646    0.0000 C   0  0  0  0  0  0  0  0  0  0  0  0
   -3.3871   -2.2921    0.0000 C   0  0  0  0  0  0  0  0  0  0  0  0
   -1.1191   -1.8927    0.0000 H   0  0  0  0  0  0  0  0  0  0  0  0
    3.0358   -4.1286    0.0000 H   0  0  0  0  0  0  0  0  0  0  0  0
    4.4991   -2.4848    0.0000 H   0  0  0  0  0  0  0  0  0  0  0  0
    2.3099    2.4973    0.0000 H   0  0  0  0  0  0  0  0  0  0  0  0
   -0.6811   -1.2986    0.0000 H   0  0  0  0  0  0  0  0  0  0  0  0
   -0.7264   -1.1592    0.0000 H   0  0  0  0  0  0  0  0  0  0  0  0
    1.6963    0.4287    0.0000 H   0  0  0  0  0  0  0  0  0  0  0  0
    2.2122   -1.1592    0.0000 H   0  0  0  0  0  0  0  0  0  0  0  0
    1.2051   -2.9715    0.0000 H   0  0  0  0  0  0  0  0  0  0  0  0
    0.5762   -2.1059    0.0000 H   0  0  0  0  0  0  0  0  0  0  0  0
   -1.0995   -1.8857    0.0000 H   0  0  0  0  0  0  0  0  0  0  0  0
   -2.1171   -1.5551    0.0000 H   0  0  0  0  0  0  0  0  0  0  0  0
   -0.8653    0.6642    0.0000 H   0  0  0  0  0  0  0  0  0  0  0  0
   -2.3291    0.4624    0.0000 H   0  0  0  0  0  0  0  0  0  0  0  0
   -1.3114    0.1318    0.0000 H   0  0  0  0  0  0  0  0  0  0  0  0
   -0.6858    3.4876    0.0000 H   0  0  0  0  0  0  0  0  0  0  0  0
   -1.6126    1.8827    0.0000 H   0  0  0  0  0  0  0  0  0  0  0  0
   -1.6125    2.9527    0.0000 H   0  0  0  0  0  0  0  0  0  0  0  0
   -1.7397   -2.4725    0.0000 H   0  0  0  0  0  0  0  0  0  0  0  0
   -3.9464   -0.0218    0.0000 H   0  0  0  0  0  0  0  0  0  0  0  0
   -3.6017   -3.3015    0.0000 H   0  0  0  0  0  0  0  0  0  0  0  0
  1  5  1  0  0  0  0
  1  7  1  0  0  0  0
  1  8  1  0  0  0  0
  1 10  2  0  0  0  0
  2 17  1  0  0  0  0
  2 18  1  0  0  0  0
  3 20  1  0  0  0  0
  4 30  1  0  0  0  0
  5 19  1  0  0  0  0
  6 22  2  0  0  0  0
  7 31  1  0  0  0  0
  8 32  1  0  0  0  0
  9 25  2  0  0  0  0
 11 21  1  0  0  0  0
 11 22  1  0  0  0  0
 12 22  1  0  0  0  0
 12 25  1  0  0  0  0
 12 33  1  0  0  0  0
 13 23  1  0  0  0  0
 13 27  1  0  0  0  0
 13 28  1  0  0  0  0
 14 28  2  0  0  0  0
 14 29  1  0  0  0  0
 15  3  1  0  0  0  0
 15 16  1  0  0  0  0
 15 17  1  0  0  0  0
 15 34  1  6  0  0  0
 16  4  1  0  0  0  0
 16 18  1  0  0  0  0
 16 35  1  6  0  0  0
 17 11  1  0  0  0  0
 17 36  1  1  0  0  0
 18 19  1  0  0  0  0
 18 37  1  1  0  0  0
 19 38  1  0  0  0  0
 19 39  1  0  0  0  0
 20 23  1  0  0  0  0
 20 40  1  0  0  0  0
 20 41  1  0  0  0  0
 21 24  2  0  0  0  0
 21 42  1  0  0  0  0
 23 43  1  0  0  0  0
 23 44  1  0  0  0  0
 24 25  1  0  0  0  0
 24 26  1  0  0  0  0
 26 45  1  0  0  0  0
 26 46  1  0  0  0  0
 26 47  1  0  0  0  0
 27 29  2  0  0  0  0
 27 48  1  0  0  0  0
 28 49  1  0  0  0  0
 29 50  1  0  0  0  0
M  END
>  <DRUGBANK_ID>
DB04691

>  <COMMON_NAME>
2'-O-[1-ethyl-1H-imidazol)] thymidine-5'-monophosphate

$$$$
