
 OpenBabel10282417072D

 57 59  0  0  1  0  0  0  0  0999 V2000
   -4.5586   -5.7545    0.0000 C   0  0  0  0  0  0  0  0  0  0  0  0
   -3.7381   -5.8408    0.0000 C   0  0  0  0  0  0  0  0  0  0  0  0
   -3.1860   -5.2277    0.0000 C   0  0  0  0  0  0  0  0  0  0  0  0
   -2.4324   -5.5632    0.0000 C   0  0  0  0  0  0  0  0  0  0  0  0
   -2.5186   -6.3837    0.0000 S   0  0  0  0  0  0  0  0  0  0  0  0
   -3.3256   -6.5553    0.0000 C   0  0  0  0  0  0  0  0  0  0  0  0
   -3.6611   -7.3089    0.0000 C   0  0  0  0  0  0  0  0  0  0  0  0
   -4.4816   -7.3952    0.0000 C   0  0  0  0  0  0  0  0  0  0  0  0
   -4.8172   -8.1488    0.0000 C   0  0  1  0  0  0  0  0  0  0  0  0
   -4.3323   -8.8163    0.0000 C   0  0  0  0  0  0  0  0  0  0  0  0
   -4.6678   -9.5700    0.0000 C   0  0  0  0  0  0  0  0  0  0  0  0
   -4.1829  -10.2374    0.0000 C   0  0  0  0  0  0  0  0  0  0  0  0
   -3.3624  -10.1512    0.0000 O   0  0  0  0  0  0  0  0  0  0  0  0
   -4.5184  -10.9911    0.0000 N   0  0  0  0  0  0  0  0  0  0  0  0
   -5.3389  -11.0773    0.0000 C   0  0  0  0  0  0  0  0  0  0  0  0
   -5.8239  -10.4099    0.0000 N   0  0  0  0  0  0  0  0  0  0  0  0
   -5.4883   -9.6562    0.0000 C   0  0  0  0  0  0  0  0  0  0  0  0
   -5.9732   -8.9888    0.0000 N   0  0  0  0  0  0  0  0  0  0  0  0
   -5.6377   -8.2351    0.0000 C   0  0  0  0  0  0  0  0  0  0  0  0
   -5.6745  -11.8310    0.0000 N   0  0  0  0  0  0  0  0  0  0  0  0
   -1.7179   -5.1507    0.0000 C   0  0  0  0  0  0  0  0  0  0  0  0
   -1.7179   -4.3257    0.0000 O   0  0  0  0  0  0  0  0  0  0  0  0
   -1.0034   -5.5632    0.0000 N   0  0  0  0  0  0  0  0  0  0  0  0
   -0.2890   -5.1507    0.0000 C   0  0  1  0  0  0  0  0  0  0  0  0
    0.4255   -5.5632    0.0000 C   0  0  0  0  0  0  0  0  0  0  0  0
    1.1400   -5.1507    0.0000 C   0  0  0  0  0  0  0  0  0  0  0  0
    1.8545   -5.5632    0.0000 C   0  0  0  0  0  0  0  0  0  0  0  0
    2.5689   -5.1507    0.0000 O   0  0  0  0  0  0  0  0  0  0  0  0
    1.8545   -6.3882    0.0000 O   0  0  0  0  0  0  0  0  0  0  0  0
   -0.2890   -4.3257    0.0000 C   0  0  0  0  0  0  0  0  0  0  0  0
    0.4255   -3.9132    0.0000 O   0  0  0  0  0  0  0  0  0  0  0  0
   -1.0034   -3.9132    0.0000 O   0  0  0  0  0  0  0  0  0  0  0  0
   -4.9937   -4.7770    0.0000 H   0  0  0  0  0  0  0  0  0  0  0  0
   -5.1876   -6.6201    0.0000 H   0  0  0  0  0  0  0  0  0  0  0  0
   -5.6227   -5.6426    0.0000 H   0  0  0  0  0  0  0  0  0  0  0  0
   -3.4006   -4.2182    0.0000 H   0  0  0  0  0  0  0  0  0  0  0  0
   -3.0321   -8.1745    0.0000 H   0  0  0  0  0  0  0  0  0  0  0  0
   -4.0962   -8.2864    0.0000 H   0  0  0  0  0  0  0  0  0  0  0  0
   -5.1105   -6.5295    0.0000 H   0  0  0  0  0  0  0  0  0  0  0  0
   -5.5457   -7.5070    0.0000 H   0  0  0  0  0  0  0  0  0  0  0  0
   -3.7531   -8.0370    0.0000 H   0  0  0  0  0  0  0  0  0  0  0  0
   -3.2682   -8.7044    0.0000 H   0  0  0  0  0  0  0  0  0  0  0  0
   -3.7033   -9.6819    0.0000 H   0  0  0  0  0  0  0  0  0  0  0  0
   -3.9397  -11.7876    0.0000 H   0  0  0  0  0  0  0  0  0  0  0  0
   -6.9523   -9.0917    0.0000 H   0  0  0  0  0  0  0  0  0  0  0  0
   -6.2667   -7.3695    0.0000 H   0  0  0  0  0  0  0  0  0  0  0  0
   -5.2026   -7.2576    0.0000 H   0  0  0  0  0  0  0  0  0  0  0  0
   -6.6536  -11.9339    0.0000 H   0  0  0  0  0  0  0  0  0  0  0  0
   -5.0959  -12.6275    0.0000 H   0  0  0  0  0  0  0  0  0  0  0  0
   -1.0034   -6.5477    0.0000 H   0  0  0  0  0  0  0  0  0  0  0  0
   -0.2890   -6.2207    0.0000 H   0  0  0  0  0  0  0  0  0  0  0  0
    0.4255   -6.6332    0.0000 H   0  0  0  0  0  0  0  0  0  0  0  0
    1.3521   -6.0982    0.0000 H   0  0  0  0  0  0  0  0  0  0  0  0
    1.1400   -4.0807    0.0000 H   0  0  0  0  0  0  0  0  0  0  0  0
    2.0666   -4.6157    0.0000 H   0  0  0  0  0  0  0  0  0  0  0  0
    1.0430   -6.8567    0.0000 H   0  0  0  0  0  0  0  0  0  0  0  0
   -1.0034   -2.9762    0.0000 H   0  0  0  0  0  0  0  0  0  0  0  0
  1  2  1  0  0  0  0
  1 33  1  0  0  0  0
  1 34  1  0  0  0  0
  1 35  1  0  0  0  0
  2  3  1  0  0  0  0
  2  6  2  0  0  0  0
  3  4  2  0  0  0  0
  3 36  1  0  0  0  0
  4  5  1  0  0  0  0
  4 21  1  0  0  0  0
  5  6  1  0  0  0  0
  6  7  1  0  0  0  0
  7  8  1  0  0  0  0
  7 37  1  0  0  0  0
  7 38  1  0  0  0  0
  8 39  1  0  0  0  0
  8 40  1  0  0  0  0
  9  8  1  0  0  0  0
  9 10  1  0  0  0  0
  9 19  1  0  0  0  0
  9 41  1  6  0  0  0
 10 11  1  0  0  0  0
 10 42  1  0  0  0  0
 10 43  1  0  0  0  0
 11 12  1  0  0  0  0
 11 17  2  0  0  0  0
 12 13  2  0  0  0  0
 12 14  1  0  0  0  0
 14 15  1  0  0  0  0
 14 44  1  0  0  0  0
 15 16  2  0  0  0  0
 15 20  1  0  0  0  0
 16 17  1  0  0  0  0
 17 18  1  0  0  0  0
 18 19  1  0  0  0  0
 18 45  1  0  0  0  0
 19 46  1  0  0  0  0
 19 47  1  0  0  0  0
 20 48  1  0  0  0  0
 20 49  1  0  0  0  0
 21 22  2  0  0  0  0
 21 23  1  0  0  0  0
 23 50  1  0  0  0  0
 24 23  1  0  0  0  0
 24 25  1  0  0  0  0
 24 30  1  0  0  0  0
 24 51  1  1  0  0  0
 25 26  1  0  0  0  0
 25 52  1  0  0  0  0
 25 53  1  0  0  0  0
 26 27  1  0  0  0  0
 26 54  1  0  0  0  0
 26 55  1  0  0  0  0
 27 28  2  0  0  0  0
 27 29  1  0  0  0  0
 29 56  1  0  0  0  0
 30 31  2  0  0  0  0
 30 32  1  0  0  0  0
 32 57  1  0  0  0  0
M  END
>  <DRUGBANK_ID>
DB12757

>  <COMMON_NAME>
Pelitrexol

>  <CAS_NUMBER>
446022-33-9

>  <UNII>
DHT6E8M4KP

>  <SYNONYMS>
Pelitrexol

$$$$
