643
 OpenBabel10282417072D

 35 37  0  0  0  0  0  0  0  0999 V2000
    3.7932    1.5394    0.0000 O   0  0  0  0  0  0  0  0  0  0  0  0
    9.2610   -0.8249    0.0000 O   0  0  0  0  0  0  0  0  0  0  0  0
    8.0235   -1.5394    0.0000 O   0  0  0  0  0  0  0  0  0  0  0  0
    6.7171    0.5534    0.0000 N   0  0  0  0  0  0  0  0  0  0  0  0
    6.7171   -0.7743    0.0000 N   0  0  0  0  0  0  0  0  0  0  0  0
    8.0235   -0.1106    0.0000 N   0  0  0  0  0  0  0  0  0  0  0  0
    5.9365    0.3020    0.0000 C   0  0  0  0  0  0  0  0  0  0  0  0
    5.9365   -0.5231    0.0000 C   0  0  0  0  0  0  0  0  0  0  0  0
    4.5077    0.3020    0.0000 C   0  0  0  0  0  0  0  0  0  0  0  0
    5.2220    0.7144    0.0000 C   0  0  0  0  0  0  0  0  0  0  0  0
    5.2220   -0.9355    0.0000 C   0  0  0  0  0  0  0  0  0  0  0  0
    4.5077   -0.5231    0.0000 C   0  0  0  0  0  0  0  0  0  0  0  0
    7.1986   -0.1106    0.0000 C   0  0  0  0  0  0  0  0  0  0  0  0
    3.7932    0.7144    0.0000 C   0  0  0  0  0  0  0  0  0  0  0  0
    3.0789    0.3020    0.0000 C   0  0  0  0  0  0  0  0  0  0  0  0
    3.0789   -0.5231    0.0000 C   0  0  0  0  0  0  0  0  0  0  0  0
    2.3643    0.7144    0.0000 C   0  0  0  0  0  0  0  0  0  0  0  0
    2.3643   -0.9355    0.0000 C   0  0  0  0  0  0  0  0  0  0  0  0
    1.6499    0.3020    0.0000 C   0  0  0  0  0  0  0  0  0  0  0  0
    1.6499   -0.5231    0.0000 C   0  0  0  0  0  0  0  0  0  0  0  0
    8.4360   -0.8249    0.0000 C   0  0  0  0  0  0  0  0  0  0  0  0
    9.6735   -1.5394    0.0000 C   0  0  0  0  0  0  0  0  0  0  0  0
    7.0230    1.4892    0.0000 H   0  0  0  0  0  0  0  0  0  0  0  0
    8.5157    0.7420    0.0000 H   0  0  0  0  0  0  0  0  0  0  0  0
    5.2219    1.7464    0.0000 H   0  0  0  0  0  0  0  0  0  0  0  0
    5.2219   -1.9675    0.0000 H   0  0  0  0  0  0  0  0  0  0  0  0
    3.6140   -1.0391    0.0000 H   0  0  0  0  0  0  0  0  0  0  0  0
    3.9726   -1.0392    0.0000 H   0  0  0  0  0  0  0  0  0  0  0  0
    2.3642    1.7464    0.0000 H   0  0  0  0  0  0  0  0  0  0  0  0
    2.3642   -1.9675    0.0000 H   0  0  0  0  0  0  0  0  0  0  0  0
    0.7562    0.8180    0.0000 H   0  0  0  0  0  0  0  0  0  0  0  0
    0.7562   -1.0391    0.0000 H   0  0  0  0  0  0  0  0  0  0  0  0
    9.1385   -2.4660    0.0000 H   0  0  0  0  0  0  0  0  0  0  0  0
   10.7435   -1.5394    0.0000 H   0  0  0  0  0  0  0  0  0  0  0  0
   10.2085   -2.4661    0.0000 H   0  0  0  0  0  0  0  0  0  0  0  0
  1 14  2  0  0  0  0
  2 21  1  0  0  0  0
  2 22  1  0  0  0  0
  3 21  2  0  0  0  0
  4  7  1  0  0  0  0
  4 13  1  0  0  0  0
  4 23  1  0  0  0  0
  5  8  1  0  0  0  0
  5 13  2  0  0  0  0
  6 13  1  0  0  0  0
  6 21  1  0  0  0  0
  6 24  1  0  0  0  0
  7  8  2  0  0  0  0
  7 10  1  0  0  0  0
  8 11  1  0  0  0  0
  9 10  2  0  0  0  0
  9 12  1  0  0  0  0
  9 14  1  0  0  0  0
 10 25  1  0  0  0  0
 11 12  2  0  0  0  0
 11 26  1  0  0  0  0
 12 27  1  0  0  0  0
 14 15  1  0  0  0  0
 15 16  2  0  0  0  0
 15 17  1  0  0  0  0
 16 18  1  0  0  0  0
 16 28  1  0  0  0  0
 17 19  2  0  0  0  0
 17 29  1  0  0  0  0
 18 20  2  0  0  0  0
 18 30  1  0  0  0  0
 19 20  1  0  0  0  0
 19 31  1  0  0  0  0
 20 32  1  0  0  0  0
 22 33  1  0  0  0  0
 22 34  1  0  0  0  0
 22 35  1  0  0  0  0
M  END
>  <DRUGBANK_ID>
DB00643

>  <SECONDARY_ACCESSION_NUMBERS>
APRD01086

>  <COMMON_NAME>
Mebendazole

>  <CAS_NUMBER>
31431-39-7

>  <UNII>
81G6I5V05I

>  <SYNONYMS>
(5-benzoyl-1H-benzimidazol-2-yl)-carbamic acid methyl ester; MBDZ; Mebendazol; MÃ©bendazole; Mebendazole; Mebendazolum

$$$$
