
 OpenBabel10282417072D

 37 38  0  0  0  0  0  0  0  0999 V2000
   -0.7270   -0.0026    0.0000 C   0  0  0  0  0  0  0  0  0  0  0  0
   -0.1749   -0.6157    0.0000 C   0  0  0  0  0  0  0  0  0  0  0  0
    0.6320   -0.4441    0.0000 C   0  0  0  0  0  0  0  0  0  0  0  0
    1.1841   -1.0572    0.0000 C   0  0  3  0  0  0  0  0  0  0  0  0
    1.8515   -1.5422    0.0000 C   0  0  0  0  0  0  0  0  0  0  0  0
    1.5966   -2.3268    0.0000 C   0  0  0  0  0  0  0  0  0  0  0  0
    0.7716   -2.3268    0.0000 N   0  0  0  0  0  0  0  0  0  0  0  0
    0.2866   -2.9942    0.0000 C   0  0  0  0  0  0  0  0  0  0  0  0
    0.5166   -1.5422    0.0000 C   0  0  0  0  0  0  0  0  0  0  0  0
    1.7361   -0.4441    0.0000 C   0  0  0  0  0  0  0  0  0  0  0  0
    1.4812    0.3405    0.0000 C   0  0  0  0  0  0  0  0  0  0  0  0
    2.0332    0.9536    0.0000 C   0  0  0  0  0  0  0  0  0  0  0  0
    2.8402    0.7820    0.0000 C   0  0  0  0  0  0  0  0  0  0  0  0
    3.0951   -0.0026    0.0000 C   0  0  0  0  0  0  0  0  0  0  0  0
    3.9021   -0.1741    0.0000 O   0  0  0  0  0  0  0  0  0  0  0  0
    2.5431   -0.6157    0.0000 C   0  0  0  0  0  0  0  0  0  0  0  0
   -0.3964    1.0150    0.0000 H   0  0  0  0  0  0  0  0  0  0  0  0
   -1.7736   -0.2251    0.0000 H   0  0  0  0  0  0  0  0  0  0  0  0
   -1.4430    0.7925    0.0000 H   0  0  0  0  0  0  0  0  0  0  0  0
   -0.5055   -1.6334    0.0000 H   0  0  0  0  0  0  0  0  0  0  0  0
    0.5411   -1.4108    0.0000 H   0  0  0  0  0  0  0  0  0  0  0  0
    0.9626    0.5736    0.0000 H   0  0  0  0  0  0  0  0  0  0  0  0
    1.6786   -0.2216    0.0000 H   0  0  0  0  0  0  0  0  0  0  0  0
    2.8691   -1.2116    0.0000 H   0  0  0  0  0  0  0  0  0  0  0  0
    2.6081   -2.2988    0.0000 H   0  0  0  0  0  0  0  0  0  0  0  0
    2.2255   -3.1924    0.0000 H   0  0  0  0  0  0  0  0  0  0  0  0
    1.1108   -3.2802    0.0000 H   0  0  0  0  0  0  0  0  0  0  0  0
   -0.7775   -2.8822    0.0000 H   0  0  0  0  0  0  0  0  0  0  0  0
    0.7217   -3.9717    0.0000 H   0  0  0  0  0  0  0  0  0  0  0  0
   -0.3424   -3.8598    0.0000 H   0  0  0  0  0  0  0  0  0  0  0  0
   -0.5010   -1.2116    0.0000 H   0  0  0  0  0  0  0  0  0  0  0  0
    0.3492   -0.4854    0.0000 H   0  0  0  0  0  0  0  0  0  0  0  0
    0.4718    0.5551    0.0000 H   0  0  0  0  0  0  0  0  0  0  0  0
    1.7143    1.9351    0.0000 H   0  0  0  0  0  0  0  0  0  0  0  0
    3.5308    1.5489    0.0000 H   0  0  0  0  0  0  0  0  0  0  0  0
    4.1917   -1.0652    0.0000 H   0  0  0  0  0  0  0  0  0  0  0  0
    2.8620   -1.5972    0.0000 H   0  0  0  0  0  0  0  0  0  0  0  0
  1  2  1  0  0  0  0
  1 17  1  0  0  0  0
  1 18  1  0  0  0  0
  1 19  1  0  0  0  0
  2  3  1  0  0  0  0
  2 20  1  0  0  0  0
  2 21  1  0  0  0  0
  3  4  1  0  0  0  0
  3 22  1  0  0  0  0
  3 23  1  0  0  0  0
  4  5  1  0  0  0  0
  4  9  1  0  0  0  0
  4 10  1  0  0  0  0
  5  6  1  0  0  0  0
  5 24  1  0  0  0  0
  5 25  1  0  0  0  0
  6  7  1  0  0  0  0
  6 26  1  0  0  0  0
  6 27  1  0  0  0  0
  7  8  1  0  0  0  0
  7  9  1  0  0  0  0
  8 28  1  0  0  0  0
  8 29  1  0  0  0  0
  8 30  1  0  0  0  0
  9 31  1  0  0  0  0
  9 32  1  0  0  0  0
 10 11  2  0  0  0  0
 10 16  1  0  0  0  0
 11 12  1  0  0  0  0
 11 33  1  0  0  0  0
 12 13  2  0  0  0  0
 12 34  1  0  0  0  0
 13 14  1  0  0  0  0
 13 35  1  0  0  0  0
 14 15  1  0  0  0  0
 14 16  2  0  0  0  0
 15 36  1  0  0  0  0
 16 37  1  0  0  0  0
M  END
>  <DRUGBANK_ID>
DB17993

>  <COMMON_NAME>
Profadol

>  <CAS_NUMBER>
428-37-5

>  <UNII>
41GDG43FTT

>  <SYNONYMS>
A-2205 free base; Ci-572 free base; Dl-profadol; M-(1-methyl-3-propyl-3-pyrrolidinyl)phenol; Phenol, 3-(1-methyl-3-propyl-3-pyrrolidinyl)-; Phenol, m-(1-methyl-3-propyl-3-pyrrolidinyl)-

$$$$
