GVC
 OpenBabel10282417072D

 24 25  0  0  0  0  0  0  0  0999 V2000
   -1.1994    2.8266    0.0000 O   0  0  0  0  0  0  0  0  0  0  0  0
   -0.4849    2.4141    0.0000 C   0  0  0  0  0  0  0  0  0  0  0  0
   -0.4849    1.5891    0.0000 C   0  0  0  0  0  0  0  0  0  0  0  0
    0.1825    1.1042    0.0000 N   0  0  0  0  0  0  0  0  0  0  0  0
   -1.1524    1.1042    0.0000 N   0  0  0  0  0  0  0  0  0  0  0  0
   -0.8974    0.3196    0.0000 C   0  0  0  0  0  0  0  0  0  0  0  0
   -1.3823   -0.3478    0.0000 C   0  0  0  0  0  0  0  0  0  0  0  0
   -0.0724    0.3196    0.0000 N   0  0  0  0  0  0  0  0  0  0  0  0
    0.4125   -0.3478    0.0000 C   0  0  0  0  0  0  0  0  0  0  0  0
    1.2330   -0.2616    0.0000 C   0  0  0  0  0  0  0  0  0  0  0  0
    1.7179   -0.9290    0.0000 C   0  0  0  0  0  0  0  0  0  0  0  0
    1.3824   -1.6827    0.0000 C   0  0  0  0  0  0  0  0  0  0  0  0
    2.5384   -0.8428    0.0000 Cl  0  0  0  0  0  0  0  0  0  0  0  0
    0.0770   -1.1015    0.0000 C   0  0  0  0  0  0  0  0  0  0  0  0
    0.5619   -1.7689    0.0000 C   0  0  0  0  0  0  0  0  0  0  0  0
    0.2263   -2.5226    0.0000 Cl  0  0  0  0  0  0  0  0  0  0  0  0
    0.2296    2.8266    0.0000 O   0  0  0  0  0  0  0  0  0  0  0  0
   -2.4464   -0.2359    0.0000 H   0  0  0  0  0  0  0  0  0  0  0  0
   -0.9471   -1.3253    0.0000 H   0  0  0  0  0  0  0  0  0  0  0  0
   -2.0112   -1.2134    0.0000 H   0  0  0  0  0  0  0  0  0  0  0  0
    1.6528    0.6812    0.0000 H   0  0  0  0  0  0  0  0  0  0  0  0
    1.9890   -2.5176    0.0000 H   0  0  0  0  0  0  0  0  0  0  0  0
   -0.9493   -1.2094    0.0000 H   0  0  0  0  0  0  0  0  0  0  0  0
    1.0411    2.3581    0.0000 H   0  0  0  0  0  0  0  0  0  0  0  0
  1  2  2  0  0  0  0
  2  3  1  0  0  0  0
  2 17  1  0  0  0  0
  3  4  2  0  0  0  0
  3  5  1  0  0  0  0
  4  8  1  0  0  0  0
  5  6  2  0  0  0  0
  6  7  1  0  0  0  0
  6  8  1  0  0  0  0
  7 18  1  0  0  0  0
  7 19  1  0  0  0  0
  7 20  1  0  0  0  0
  8  9  1  0  0  0  0
  9 10  1  0  0  0  0
  9 14  2  0  0  0  0
 10 11  2  0  0  0  0
 10 21  1  0  0  0  0
 11 12  1  0  0  0  0
 11 13  1  0  0  0  0
 12 15  2  0  0  0  0
 12 22  1  0  0  0  0
 14 15  1  0  0  0  0
 14 23  1  0  0  0  0
 15 16  1  0  0  0  0
 17 24  1  0  0  0  0
M  END
>  <DRUGBANK_ID>
DB07852

>  <COMMON_NAME>
1-(3,5-DICHLOROPHENYL)-5-METHYL-1H-1,2,4-TRIAZOLE-3-CARBOXYLIC ACID

$$$$
