
 OpenBabel10282417072D

 40 41  0  0  0  0  0  0  0  0999 V2000
   -1.0716   -0.5403    0.0000 O   0  0  0  0  0  0  0  0  0  0  0  0
    0.3572   -0.5403    0.0000 O   0  0  0  0  0  0  0  0  0  0  0  0
   -1.0716   -3.0154    0.0000 O   0  0  0  0  0  0  0  0  0  0  0  0
   -2.5007   -2.1904    0.0000 O   0  0  0  0  0  0  0  0  0  0  0  0
    0.3572   -2.1904    0.0000 O   0  0  0  0  0  0  0  0  0  0  0  0
   -2.5007    0.2846    0.0000 O   0  0  0  0  0  0  0  0  0  0  0  0
   -1.7861    1.5221    0.0000 O   0  0  0  0  0  0  0  0  0  0  0  0
    1.7862    2.7596    0.0000 O   0  5  0  0  0  0  0  0  0  0  0  0
    2.5007    1.5221    0.0000 O   0  0  0  0  0  0  0  0  0  0  0  0
    1.7862    1.9346    0.0000 N   0  3  0  0  0  0  0  0  0  0  0  0
   -1.0716    2.7596    0.0000 N   0  0  0  0  0  0  0  0  0  0  0  0
   -1.0716   -2.1904    0.0000 C   0  0  1  0  0  0  0  0  0  0  0  0
   -1.7861   -1.7779    0.0000 C   0  0  2  0  0  0  0  0  0  0  0  0
   -0.3572   -1.7779    0.0000 C   0  0  2  0  0  0  0  0  0  0  0  0
   -1.7861   -0.9528    0.0000 C   0  0  1  0  0  0  0  0  0  0  0  0
   -0.3572   -0.9528    0.0000 C   0  0  2  0  0  0  0  0  0  0  0  0
   -2.5007   -0.5403    0.0000 C   0  0  0  0  0  0  0  0  0  0  0  0
    0.3572    0.2846    0.0000 C   0  0  0  0  0  0  0  0  0  0  0  0
   -0.3572    0.6971    0.0000 C   0  0  0  0  0  0  0  0  0  0  0  0
    1.0717    0.6971    0.0000 C   0  0  0  0  0  0  0  0  0  0  0  0
   -0.3572    1.5221    0.0000 C   0  0  0  0  0  0  0  0  0  0  0  0
    1.0717    1.5221    0.0000 C   0  0  0  0  0  0  0  0  0  0  0  0
    0.3572    1.9346    0.0000 C   0  0  0  0  0  0  0  0  0  0  0  0
   -1.0716    1.9346    0.0000 C   0  0  0  0  0  0  0  0  0  0  0  0
   -1.5146    3.0154    0.0000 H   0  0  0  0  0  0  0  0  0  0  0  0
   -0.6287    3.0154    0.0000 H   0  0  0  0  0  0  0  0  0  0  0  0
   -1.9116   -3.5004    0.0000 H   0  0  0  0  0  0  0  0  0  0  0  0
   -3.3407   -1.7053    0.0000 H   0  0  0  0  0  0  0  0  0  0  0  0
    0.3572   -3.1604    0.0000 H   0  0  0  0  0  0  0  0  0  0  0  0
   -1.6607    0.7696    0.0000 H   0  0  0  0  0  0  0  0  0  0  0  0
   -1.9982   -2.7254    0.0000 H   0  0  0  0  0  0  0  0  0  0  0  0
   -1.7861   -2.8479    0.0000 H   0  0  0  0  0  0  0  0  0  0  0  0
   -0.3572   -2.8479    0.0000 H   0  0  0  0  0  0  0  0  0  0  0  0
   -1.7861    0.1172    0.0000 H   0  0  0  0  0  0  0  0  0  0  0  0
   -0.3572    0.1172    0.0000 H   0  0  0  0  0  0  0  0  0  0  0  0
   -3.4273   -1.0753    0.0000 H   0  0  0  0  0  0  0  0  0  0  0  0
   -2.5006   -1.6103    0.0000 H   0  0  0  0  0  0  0  0  0  0  0  0
   -1.2509    0.1811    0.0000 H   0  0  0  0  0  0  0  0  0  0  0  0
    1.9654    0.1811    0.0000 H   0  0  0  0  0  0  0  0  0  0  0  0
    0.3572    2.9666    0.0000 H   0  0  0  0  0  0  0  0  0  0  0  0
  1 15  1  0  0  0  0
  1 16  1  0  0  0  0
  2 18  1  0  0  0  0
  3 27  1  0  0  0  0
  4 28  1  0  0  0  0
  5 29  1  0  0  0  0
  6 17  1  0  0  0  0
  6 30  1  0  0  0  0
  7 24  2  0  0  0  0
  8 10  1  0  0  0  0
  9 10  2  0  0  0  0
 10 22  1  0  0  0  0
 11 24  1  0  0  0  0
 11 25  1  0  0  0  0
 11 26  1  0  0  0  0
 12  3  1  0  0  0  0
 12 13  1  0  0  0  0
 12 14  1  0  0  0  0
 12 31  1  6  0  0  0
 13  4  1  0  0  0  0
 13 15  1  0  0  0  0
 13 32  1  6  0  0  0
 14  5  1  0  0  0  0
 14 16  1  0  0  0  0
 14 33  1  1  0  0  0
 15 17  1  0  0  0  0
 15 34  1  6  0  0  0
 16  2  1  0  0  0  0
 16 35  1  1  0  0  0
 17 36  1  0  0  0  0
 17 37  1  0  0  0  0
 18 19  2  0  0  0  0
 18 20  1  0  0  0  0
 19 21  1  0  0  0  0
 19 38  1  0  0  0  0
 20 22  2  0  0  0  0
 20 39  1  0  0  0  0
 21 23  2  0  0  0  0
 21 24  1  0  0  0  0
 22 23  1  0  0  0  0
 23 40  1  0  0  0  0
M  CHG  2   8  -1  10   1
M  END
>  <DRUGBANK_ID>
DB02802

>  <SECONDARY_ACCESSION_NUMBERS>
EXPT01462

>  <COMMON_NAME>
3-(alpha-D-Galactopyranosyloxy)-5-nitrobenzamide

>  <SYNONYMS>
3-(Î±-D-Galactopyranosyloxy)-5-nitrobenzamide; 5-aminocarbonyl-3-nitrophenyl-alpha-D-galactopyranose

$$$$
