
 OpenBabel10282417072D

 36 36  0  0  0  0  0  0  0  0999 V2000
   -2.8578   -0.2062    0.0000 C   0  0  0  0  0  0  0  0  0  0  0  0
   -2.1434   -1.4437    0.0000 C   0  0  0  0  0  0  0  0  0  0  0  0
    2.8578   -1.0312    0.0000 C   0  0  0  0  0  0  0  0  0  0  0  0
   -2.1434    0.2062    0.0000 C   0  0  0  0  0  0  0  0  0  0  0  0
   -1.4289   -1.0312    0.0000 C   0  0  0  0  0  0  0  0  0  0  0  0
    2.1434    1.0312    0.0000 C   0  0  0  0  0  0  0  0  0  0  0  0
    1.4289    1.4437    0.0000 C   0  0  0  0  0  0  0  0  0  0  0  0
    2.1434    0.2062    0.0000 C   0  0  0  0  0  0  0  0  0  0  0  0
    0.7144    1.0312    0.0000 C   0  0  0  0  0  0  0  0  0  0  0  0
   -1.4289   -0.2062    0.0000 C   0  0  0  0  0  0  0  0  0  0  0  0
    1.4289   -0.2062    0.0000 C   0  0  0  0  0  0  0  0  0  0  0  0
    0.7144    0.2062    0.0000 C   0  0  0  0  0  0  0  0  0  0  0  0
   -0.7144    0.2062    0.0000 C   0  0  0  0  0  0  0  0  0  0  0  0
    1.4289   -1.0312    0.0000 C   0  0  0  0  0  0  0  0  0  0  0  0
   -0.7144    1.0312    0.0000 O   0  0  0  0  0  0  0  0  0  0  0  0
    0.7144   -1.4437    0.0000 O   0  0  0  0  0  0  0  0  0  0  0  0
    2.1434   -1.4437    0.0000 O   0  0  0  0  0  0  0  0  0  0  0  0
    0.0000   -0.2062    0.0000 O   0  0  0  0  0  0  0  0  0  0  0  0
   -3.7844    0.3289    0.0000 H   0  0  0  0  0  0  0  0  0  0  0  0
   -2.8579   -1.2762    0.0000 H   0  0  0  0  0  0  0  0  0  0  0  0
   -3.7845   -0.7411    0.0000 H   0  0  0  0  0  0  0  0  0  0  0  0
   -3.0700   -0.9087    0.0000 H   0  0  0  0  0  0  0  0  0  0  0  0
   -2.1434   -2.5137    0.0000 H   0  0  0  0  0  0  0  0  0  0  0  0
   -3.0701   -1.9787    0.0000 H   0  0  0  0  0  0  0  0  0  0  0  0
    3.7845   -1.5662    0.0000 H   0  0  0  0  0  0  0  0  0  0  0  0
    2.8578    0.0388    0.0000 H   0  0  0  0  0  0  0  0  0  0  0  0
    3.7844   -0.4962    0.0000 H   0  0  0  0  0  0  0  0  0  0  0  0
   -2.1434    1.2762    0.0000 H   0  0  0  0  0  0  0  0  0  0  0  0
   -1.2168    0.7413    0.0000 H   0  0  0  0  0  0  0  0  0  0  0  0
   -0.5023   -1.5662    0.0000 H   0  0  0  0  0  0  0  0  0  0  0  0
   -0.5023   -0.4962    0.0000 H   0  0  0  0  0  0  0  0  0  0  0  0
    3.0371    1.5472    0.0000 H   0  0  0  0  0  0  0  0  0  0  0  0
    1.4289    2.4757    0.0000 H   0  0  0  0  0  0  0  0  0  0  0  0
    3.0371   -0.3099    0.0000 H   0  0  0  0  0  0  0  0  0  0  0  0
   -0.1793    1.5472    0.0000 H   0  0  0  0  0  0  0  0  0  0  0  0
   -0.5023   -0.7413    0.0000 H   0  0  0  0  0  0  0  0  0  0  0  0
  1 19  1  0  0  0  0
  1 20  1  0  0  0  0
  1 21  1  0  0  0  0
  2 22  1  0  0  0  0
  2 23  1  0  0  0  0
  2 24  1  0  0  0  0
  3 25  1  0  0  0  0
  3 26  1  0  0  0  0
  3 27  1  0  0  0  0
  4  1  1  0  0  0  0
  4 28  1  0  0  0  0
  4 29  1  0  0  0  0
  5  2  1  0  0  0  0
  5 30  1  0  0  0  0
  5 31  1  0  0  0  0
  6 32  1  0  0  0  0
  7  6  2  0  0  0  0
  7 33  1  0  0  0  0
  8  6  1  0  0  0  0
  8 34  1  0  0  0  0
  9  7  1  0  0  0  0
  9 35  1  0  0  0  0
 10  4  1  0  0  0  0
 10  5  1  0  0  0  0
 10 36  1  0  0  0  0
 11  8  2  0  0  0  0
 12  9  2  0  0  0  0
 12 11  1  0  0  0  0
 13 10  1  0  0  0  0
 14 11  1  0  0  0  0
 15 13  2  0  0  0  0
 16 14  2  0  0  0  0
 17  3  1  0  0  0  0
 17 14  1  0  0  0  0
 18 12  1  0  0  0  0
 18 13  1  0  0  0  0
M  END
>  <DRUGBANK_ID>
DB14130

>  <COMMON_NAME>
Methyl salicylate 2-ethylbutyrate

>  <CAS_NUMBER>
85005-92-1

>  <UNII>
J8D9175Q0G

>  <SYNONYMS>
Methyl diethylacetylsalicylate; Salicylic acid, methyl ester, 2-ethylbutyrate

$$$$
