
 OpenBabel10282417072D

 36 38  0  0  1  0  0  0  0  0999 V2000
   -3.1034    1.5229    0.0000 C   0  0  0  0  0  0  0  0  0  0  0  0
   -2.6909    0.8085    0.0000 C   0  0  0  0  0  0  0  0  0  0  0  0
   -2.6909    2.2374    0.0000 C   0  0  0  0  0  0  0  0  0  0  0  0
   -1.8659    0.8085    0.0000 C   0  0  0  0  0  0  0  0  0  0  0  0
   -1.8659    2.2374    0.0000 C   0  0  0  0  0  0  0  0  0  0  0  0
   -0.1435    0.8555    0.0000 C   0  0  0  0  0  0  0  0  0  0  0  0
    1.3556   -0.1271    0.0000 C   0  0  0  0  0  0  0  0  0  0  0  0
   -1.4534    1.5229    0.0000 C   0  0  0  0  0  0  0  0  0  0  0  0
   -0.6284    1.5229    0.0000 C   0  0  0  0  0  0  0  0  0  0  0  0
    1.3556    0.6979    0.0000 C   0  0  2  0  0  0  0  0  0  0  0  0
    2.0701    1.1104    0.0000 C   0  0  2  0  0  0  0  0  0  0  0  0
    2.0701    1.9354    0.0000 C   0  0  1  0  0  0  0  0  0  0  0  0
    1.3556    2.3479    0.0000 C   0  0  2  0  0  0  0  0  0  0  0  0
    0.6411    1.9354    0.0000 C   0  0  0  0  0  0  0  0  0  0  0  0
   -0.1435    2.1904    0.0000 N   0  0  0  0  0  0  0  0  0  0  0  0
    0.6411    1.1104    0.0000 N   0  0  0  0  0  0  0  0  0  0  0  0
    2.0701   -0.5396    0.0000 O   0  0  0  0  0  0  0  0  0  0  0  0
    2.7845    0.6979    0.0000 O   0  0  0  0  0  0  0  0  0  0  0  0
    2.7845    2.3479    0.0000 O   0  0  0  0  0  0  0  0  0  0  0  0
    1.3556    3.1729    0.0000 O   0  0  0  0  0  0  0  0  0  0  0  0
    2.1681    0.5547    0.0000 H   0  0  0  0  0  0  0  0  0  0  0  0
    2.3522    0.3352    0.0000 H   0  0  0  0  0  0  0  0  0  0  0  0
    2.7845    1.5229    0.0000 H   0  0  0  0  0  0  0  0  0  0  0  0
    2.0701    2.7604    0.0000 H   0  0  0  0  0  0  0  0  0  0  0  0
   -4.1354    1.5229    0.0000 H   0  0  0  0  0  0  0  0  0  0  0  0
   -3.2069   -0.0852    0.0000 H   0  0  0  0  0  0  0  0  0  0  0  0
   -3.2069    3.1311    0.0000 H   0  0  0  0  0  0  0  0  0  0  0  0
   -1.3499   -0.0852    0.0000 H   0  0  0  0  0  0  0  0  0  0  0  0
   -1.3499    3.1311    0.0000 H   0  0  0  0  0  0  0  0  0  0  0  0
   -0.4624   -0.1260    0.0000 H   0  0  0  0  0  0  0  0  0  0  0  0
    0.4290   -0.6621    0.0000 H   0  0  0  0  0  0  0  0  0  0  0  0
    1.3556   -1.1971    0.0000 H   0  0  0  0  0  0  0  0  0  0  0  0
    2.0701   -1.5096    0.0000 H   0  0  0  0  0  0  0  0  0  0  0  0
    2.7845   -0.2721    0.0000 H   0  0  0  0  0  0  0  0  0  0  0  0
    3.6246    1.8629    0.0000 H   0  0  0  0  0  0  0  0  0  0  0  0
    2.1956    3.6579    0.0000 H   0  0  0  0  0  0  0  0  0  0  0  0
  1 25  1  0  0  0  0
  2  1  2  0  0  0  0
  2 26  1  0  0  0  0
  3  1  1  0  0  0  0
  3 27  1  0  0  0  0
  4  2  1  0  0  0  0
  4 28  1  0  0  0  0
  5  3  2  0  0  0  0
  5 29  1  0  0  0  0
  6 30  1  0  0  0  0
  7 31  1  0  0  0  0
  7 32  1  0  0  0  0
  8  4  2  0  0  0  0
  8  5  1  0  0  0  0
  9  6  2  0  0  0  0
  9  8  1  0  0  0  0
 10  7  1  0  0  0  0
 10 21  1  6  0  0  0
 11 10  1  0  0  0  0
 11 18  1  0  0  0  0
 11 22  1  1  0  0  0
 12 11  1  0  0  0  0
 12 19  1  0  0  0  0
 12 23  1  6  0  0  0
 13 12  1  0  0  0  0
 13 20  1  0  0  0  0
 13 24  1  1  0  0  0
 14 13  1  0  0  0  0
 15  9  1  0  0  0  0
 15 14  2  0  0  0  0
 16  6  1  0  0  0  0
 16 10  1  0  0  0  0
 16 14  1  0  0  0  0
 17  7  1  0  0  0  0
 17 33  1  0  0  0  0
 18 34  1  0  0  0  0
 19 35  1  0  0  0  0
 20 36  1  0  0  0  0
M  END
>  <DRUGBANK_ID>
DB02862

>  <SECONDARY_ACCESSION_NUMBERS>
EXPT01838

>  <COMMON_NAME>
Gluco-Phenylimidazole

$$$$
