
 OpenBabel10282417072D

 23 24  0  0  0  0  0  0  0  0999 V2000
    1.0521   -0.3641    0.0000 N   0  0  0  0  0  0  0  0  0  0  0  0
    0.5666    0.2827    0.0000 C   0  0  0  0  0  0  0  0  0  0  0  0
   -0.1617    0.0399    0.0000 N   0  0  0  0  0  0  0  0  0  0  0  0
   -0.1617   -0.7690    0.0000 C   0  0  0  0  0  0  0  0  0  0  0  0
   -0.8093   -1.3359    0.0000 C   0  0  0  0  0  0  0  0  0  0  0  0
   -0.6473   -2.1457    0.0000 C   0  0  0  0  0  0  0  0  0  0  0  0
    0.1617   -2.3884    0.0000 C   0  0  0  0  0  0  0  0  0  0  0  0
    0.7287   -1.8215    0.0000 C   0  0  0  0  0  0  0  0  0  0  0  0
    0.5666   -1.0117    0.0000 C   0  0  0  0  0  0  0  0  0  0  0  0
    0.8093    1.0117    0.0000 N   0  0  0  0  0  0  0  0  0  0  0  0
    0.3238    1.6593    0.0000 C   0  0  0  0  0  0  0  0  0  0  0  0
    0.5666    2.3884    0.0000 O   0  0  0  0  0  0  0  0  0  0  0  0
   -0.4851    1.4973    0.0000 O   0  0  0  0  0  0  0  0  0  0  0  0
   -1.0521    2.0642    0.0000 C   0  0  0  0  0  0  0  0  0  0  0  0
    2.0366   -0.3638    0.0000 H   0  0  0  0  0  0  0  0  0  0  0  0
   -1.7866   -1.0043    0.0000 H   0  0  0  0  0  0  0  0  0  0  0  0
   -1.4105   -2.8403    0.0000 H   0  0  0  0  0  0  0  0  0  0  0  0
    0.4139   -3.3891    0.0000 H   0  0  0  0  0  0  0  0  0  0  0  0
    1.7164   -2.1205    0.0000 H   0  0  0  0  0  0  0  0  0  0  0  0
    1.7811    1.1695    0.0000 H   0  0  0  0  0  0  0  0  0  0  0  0
   -0.7753    3.0978    0.0000 H   0  0  0  0  0  0  0  0  0  0  0  0
   -2.0856    1.7872    0.0000 H   0  0  0  0  0  0  0  0  0  0  0  0
   -1.8088    2.8207    0.0000 H   0  0  0  0  0  0  0  0  0  0  0  0
  1  2  1  0  0  0  0
  1  9  1  0  0  0  0
  1 15  1  0  0  0  0
  2  3  2  0  0  0  0
  2 10  1  0  0  0  0
  3  4  1  0  0  0  0
  4  5  2  0  0  0  0
  4  9  1  0  0  0  0
  5  6  1  0  0  0  0
  5 16  1  0  0  0  0
  6  7  2  0  0  0  0
  6 17  1  0  0  0  0
  7  8  1  0  0  0  0
  7 18  1  0  0  0  0
  8  9  2  0  0  0  0
  8 19  1  0  0  0  0
 10 11  1  0  0  0  0
 10 20  1  0  0  0  0
 11 12  2  0  0  0  0
 11 13  1  0  0  0  0
 13 14  1  0  0  0  0
 14 21  1  0  0  0  0
 14 22  1  0  0  0  0
 14 23  1  0  0  0  0
M  END
>  <DRUGBANK_ID>
DB13009

>  <COMMON_NAME>
Carbendazim

>  <CAS_NUMBER>
10605-21-7

>  <UNII>
H75J14AA89

$$$$
