NPE
 OpenBabel10282417072D

 33 33  0  0  0  0  0  0  0  0999 V2000
   -2.4216   -0.9550    0.0000 C   0  0  0  0  0  0  0  0  0  0  0  0
   -3.0453   -1.4951    0.0000 N   0  3  0  0  0  0  0  0  0  0  0  0
   -2.8894   -2.3052    0.0000 O   0  5  0  0  0  0  0  0  0  0  0  0
   -3.8248   -1.2251    0.0000 O   0  0  0  0  0  0  0  0  0  0  0  0
   -2.5775   -0.1449    0.0000 C   0  0  0  0  0  0  0  0  0  0  0  0
   -1.9539    0.3952    0.0000 C   0  0  0  0  0  0  0  0  0  0  0  0
   -1.1743    0.1252    0.0000 C   0  0  0  0  0  0  0  0  0  0  0  0
   -1.0184   -0.6850    0.0000 C   0  0  0  0  0  0  0  0  0  0  0  0
   -1.6421   -1.2251    0.0000 C   0  0  0  0  0  0  0  0  0  0  0  0
   -0.5507    0.6652    0.0000 O   0  0  0  0  0  0  0  0  0  0  0  0
    0.2289    0.3952    0.0000 P   0  0  2  0  0  0  0  0  0  0  0  0
   -0.0412   -0.3844    0.0000 O   0  0  0  0  0  0  0  0  0  0  0  0
    0.4989    1.1748    0.0000 O   0  5  0  0  0  0  0  0  0  0  0  0
    1.0084    0.1252    0.0000 C   0  0  0  0  0  0  0  0  0  0  0  0
    1.6320    0.6652    0.0000 C   0  0  0  0  0  0  0  0  0  0  0  0
    2.4116    0.3952    0.0000 C   0  0  0  0  0  0  0  0  0  0  0  0
    3.0352    0.9353    0.0000 C   0  0  0  0  0  0  0  0  0  0  0  0
    3.8148    0.6652    0.0000 C   0  0  0  0  0  0  0  0  0  0  0  0
    4.4384    1.2053    0.0000 O   0  0  0  0  0  0  0  0  0  0  0  0
    3.9707   -0.1449    0.0000 O   0  0  0  0  0  0  0  0  0  0  0  0
   -3.5527    0.1929    0.0000 H   0  0  0  0  0  0  0  0  0  0  0  0
   -2.1490    1.4086    0.0000 H   0  0  0  0  0  0  0  0  0  0  0  0
   -0.0433   -1.0228    0.0000 H   0  0  0  0  0  0  0  0  0  0  0  0
   -1.4471   -2.2385    0.0000 H   0  0  0  0  0  0  0  0  0  0  0  0
    1.2106   -0.9255    0.0000 H   0  0  0  0  0  0  0  0  0  0  0  0
    2.0194   -0.2251    0.0000 H   0  0  0  0  0  0  0  0  0  0  0  0
    1.4298    1.7159    0.0000 H   0  0  0  0  0  0  0  0  0  0  0  0
    2.4408    1.3657    0.0000 H   0  0  0  0  0  0  0  0  0  0  0  0
    2.6139   -0.6555    0.0000 H   0  0  0  0  0  0  0  0  0  0  0  0
    3.4227    0.0450    0.0000 H   0  0  0  0  0  0  0  0  0  0  0  0
    2.8330    1.9860    0.0000 H   0  0  0  0  0  0  0  0  0  0  0  0
    3.8441    1.6358    0.0000 H   0  0  0  0  0  0  0  0  0  0  0  0
    3.2624   -0.7583    0.0000 H   0  0  0  0  0  0  0  0  0  0  0  0
  1  2  1  0  0  0  0
  1  5  2  0  0  0  0
  1  9  1  0  0  0  0
  2  3  1  0  0  0  0
  2  4  2  0  0  0  0
  5  6  1  0  0  0  0
  5 21  1  0  0  0  0
  6  7  2  0  0  0  0
  6 22  1  0  0  0  0
  7  8  1  0  0  0  0
  7 10  1  0  0  0  0
  8  9  2  0  0  0  0
  8 23  1  0  0  0  0
  9 24  1  0  0  0  0
 11 10  1  0  0  0  0
 11 12  2  1  0  0  0
 11 13  1  0  0  0  0
 11 14  1  0  0  0  0
 14 15  1  0  0  0  0
 14 25  1  0  0  0  0
 14 26  1  0  0  0  0
 15 16  1  0  0  0  0
 15 27  1  0  0  0  0
 15 28  1  0  0  0  0
 16 17  1  0  0  0  0
 16 29  1  0  0  0  0
 16 30  1  0  0  0  0
 17 18  1  0  0  0  0
 17 31  1  0  0  0  0
 17 32  1  0  0  0  0
 18 19  2  0  0  0  0
 18 20  1  0  0  0  0
 20 33  1  0  0  0  0
M  CHG  3   2   1   3  -1  13  -1
M  END
>  <DRUGBANK_ID>
DB08296

>  <COMMON_NAME>
5-(PARA-NITROPHENYL PHOSPHONATE)-PENTANOIC ACID

$$$$
