047
 OpenBabel10282417072D

 53 56  0  0  0  0  0  0  0  0999 V2000
    3.1497   -0.8902    0.0000 N   0  0  0  0  0  0  0  0  0  0  0  0
    3.9343   -1.1451    0.0000 C   0  0  0  0  0  0  0  0  0  0  0  0
    3.9343   -1.9701    0.0000 C   0  0  0  0  0  0  0  0  0  0  0  0
    3.1497   -2.2251    0.0000 C   0  0  0  0  0  0  0  0  0  0  0  0
    2.6648   -1.5576    0.0000 C   0  0  0  0  0  0  0  0  0  0  0  0
    2.8948   -3.0097    0.0000 C   0  0  0  0  0  0  0  0  0  0  0  0
    3.4468   -3.6228    0.0000 N   0  0  0  0  0  0  0  0  0  0  0  0
    3.1919   -4.4074    0.0000 C   0  0  0  0  0  0  0  0  0  0  0  0
    3.7439   -5.0205    0.0000 C   0  0  0  0  0  0  0  0  0  0  0  0
    3.4889   -5.8051    0.0000 C   0  0  0  0  0  0  0  0  0  0  0  0
    4.0410   -6.4182    0.0000 C   0  0  0  0  0  0  0  0  0  0  0  0
    4.8480   -6.2467    0.0000 C   0  0  0  0  0  0  0  0  0  0  0  0
    5.1029   -5.4621    0.0000 C   0  0  0  0  0  0  0  0  0  0  0  0
    4.5509   -4.8490    0.0000 C   0  0  0  0  0  0  0  0  0  0  0  0
    4.6488   -2.3826    0.0000 C   0  0  0  0  0  0  0  0  0  0  0  0
    5.3633   -1.9701    0.0000 C   0  0  0  0  0  0  0  0  0  0  0  0
    5.3633   -1.1451    0.0000 C   0  0  0  0  0  0  0  0  0  0  0  0
    4.6488   -0.7326    0.0000 C   0  0  0  0  0  0  0  0  0  0  0  0
    2.8948   -0.1056    0.0000 C   0  0  0  0  0  0  0  0  0  0  0  0
    2.0878    0.0660    0.0000 C   0  0  0  0  0  0  0  0  0  0  0  0
    1.8328    0.8506    0.0000 C   0  0  0  0  0  0  0  0  0  0  0  0
    2.3849    1.4637    0.0000 C   0  0  0  0  0  0  0  0  0  0  0  0
    3.1919    1.2921    0.0000 C   0  0  0  0  0  0  0  0  0  0  0  0
    3.4468    0.5075    0.0000 C   0  0  0  0  0  0  0  0  0  0  0  0
    2.1299    2.2483    0.0000 C   0  0  0  0  0  0  0  0  0  0  0  0
    1.6328   -1.5576    0.0000 H   0  0  0  0  0  0  0  0  0  0  0  0
    1.8482   -3.2322    0.0000 H   0  0  0  0  0  0  0  0  0  0  0  0
    2.5641   -4.0273    0.0000 H   0  0  0  0  0  0  0  0  0  0  0  0
    4.4445   -3.4107    0.0000 H   0  0  0  0  0  0  0  0  0  0  0  0
    2.1453   -4.6299    0.0000 H   0  0  0  0  0  0  0  0  0  0  0  0
    2.8612   -5.4250    0.0000 H   0  0  0  0  0  0  0  0  0  0  0  0
    4.4598   -5.8157    0.0000 H   0  0  0  0  0  0  0  0  0  0  0  0
    2.4423   -6.0276    0.0000 H   0  0  0  0  0  0  0  0  0  0  0  0
    3.1583   -6.8227    0.0000 H   0  0  0  0  0  0  0  0  0  0  0  0
    3.7104   -7.4358    0.0000 H   0  0  0  0  0  0  0  0  0  0  0  0
    4.7570   -7.2134    0.0000 H   0  0  0  0  0  0  0  0  0  0  0  0
    5.5640   -7.0419    0.0000 H   0  0  0  0  0  0  0  0  0  0  0  0
    5.8946   -6.0242    0.0000 H   0  0  0  0  0  0  0  0  0  0  0  0
    6.1495   -5.2396    0.0000 H   0  0  0  0  0  0  0  0  0  0  0  0
    5.4336   -4.4445    0.0000 H   0  0  0  0  0  0  0  0  0  0  0  0
    4.8816   -3.8314    0.0000 H   0  0  0  0  0  0  0  0  0  0  0  0
    5.5975   -4.6266    0.0000 H   0  0  0  0  0  0  0  0  0  0  0  0
    4.6488   -3.4146    0.0000 H   0  0  0  0  0  0  0  0  0  0  0  0
    6.2570   -2.4861    0.0000 H   0  0  0  0  0  0  0  0  0  0  0  0
    6.2570   -0.6291    0.0000 H   0  0  0  0  0  0  0  0  0  0  0  0
    4.6488    0.2994    0.0000 H   0  0  0  0  0  0  0  0  0  0  0  0
    1.3973   -0.7009    0.0000 H   0  0  0  0  0  0  0  0  0  0  0  0
    0.8233    1.0652    0.0000 H   0  0  0  0  0  0  0  0  0  0  0  0
    3.8825    2.0590    0.0000 H   0  0  0  0  0  0  0  0  0  0  0  0
    4.4562    0.2929    0.0000 H   0  0  0  0  0  0  0  0  0  0  0  0
    2.8458    3.0435    0.0000 H   0  0  0  0  0  0  0  0  0  0  0  0
    1.0833    2.4707    0.0000 H   0  0  0  0  0  0  0  0  0  0  0  0
    1.7992    3.2659    0.0000 H   0  0  0  0  0  0  0  0  0  0  0  0
  1  2  1  0  0  0  0
  1 19  1  0  0  0  0
  1  5  1  0  0  0  0
  2 18  2  0  0  0  0
  2  3  1  0  0  0  0
  3 15  2  0  0  0  0
  3  4  1  0  0  0  0
  4  6  1  0  0  0  0
  4  5  2  0  0  0  0
  5 26  1  0  0  0  0
  6  7  1  0  0  0  0
  6 27  1  0  0  0  0
  6 28  1  0  0  0  0
  7  8  1  0  0  0  0
  7 29  1  0  0  0  0
  8  9  1  0  0  0  0
  8 30  1  0  0  0  0
  8 31  1  0  0  0  0
  9 14  1  0  0  0  0
  9 10  1  0  0  0  0
  9 32  1  0  0  0  0
 10 11  1  0  0  0  0
 10 33  1  0  0  0  0
 10 34  1  0  0  0  0
 11 12  1  0  0  0  0
 11 35  1  0  0  0  0
 11 36  1  0  0  0  0
 12 13  1  0  0  0  0
 12 37  1  0  0  0  0
 12 38  1  0  0  0  0
 13 14  1  0  0  0  0
 13 39  1  0  0  0  0
 13 40  1  0  0  0  0
 14 41  1  0  0  0  0
 14 42  1  0  0  0  0
 15 16  1  0  0  0  0
 15 43  1  0  0  0  0
 16 17  2  0  0  0  0
 16 44  1  0  0  0  0
 17 18  1  0  0  0  0
 17 45  1  0  0  0  0
 18 46  1  0  0  0  0
 19 20  2  0  0  0  0
 19 24  1  0  0  0  0
 20 21  1  0  0  0  0
 20 47  1  0  0  0  0
 21 22  2  0  0  0  0
 21 48  1  0  0  0  0
 22 23  1  0  0  0  0
 22 25  1  0  0  0  0
 23 24  2  0  0  0  0
 23 49  1  0  0  0  0
 24 50  1  0  0  0  0
 25 51  1  0  0  0  0
 25 52  1  0  0  0  0
 25 53  1  0  0  0  0
M  END
>  <DRUGBANK_ID>
DB06833

>  <COMMON_NAME>
1-CYCLOHEXYL-N-{[1-(4-METHYLPHENYL)-1H-INDOL-3-YL]METHYL}METHANAMINE

$$$$
