
 OpenBabel10282417072D

 31 30  0  0  1  0  0  0  0  0999 V2000
    2.2539   -2.4750    0.0000 C   0  0  0  0  0  0  0  0  0  0  0  0
    1.5395   -2.0625    0.0000 C   0  0  0  0  0  0  0  0  0  0  0  0
    0.8250   -2.4750    0.0000 O   0  0  0  0  0  0  0  0  0  0  0  0
    1.5395   -1.2375    0.0000 O   0  0  0  0  0  0  0  0  0  0  0  0
    0.8250   -0.8250    0.0000 C   0  0  2  0  0  0  0  0  0  0  0  0
    0.1105   -1.2375    0.0000 C   0  0  0  0  0  0  0  0  0  0  0  0
   -0.6039   -0.8250    0.0000 C   0  0  0  0  0  0  0  0  0  0  0  0
   -1.3184   -1.2375    0.0000 O   0  0  0  0  0  0  0  0  0  0  0  0
   -0.6039   -0.0000    0.0000 O   0  5  0  0  0  0  0  0  0  0  0  0
    0.8250    0.0000    0.0000 C   0  0  0  0  0  0  0  0  0  0  0  0
    1.5395    0.4125    0.0000 N   0  3  0  0  0  0  0  0  0  0  0  0
    1.9520   -0.3020    0.0000 C   0  0  0  0  0  0  0  0  0  0  0  0
    1.1270    1.1270    0.0000 C   0  0  0  0  0  0  0  0  0  0  0  0
    2.2539    0.8250    0.0000 C   0  0  0  0  0  0  0  0  0  0  0  0
    2.2539   -3.5450    0.0000 H   0  0  0  0  0  0  0  0  0  0  0  0
    3.1806   -1.9400    0.0000 H   0  0  0  0  0  0  0  0  0  0  0  0
    3.1805   -3.0100    0.0000 H   0  0  0  0  0  0  0  0  0  0  0  0
    0.8250   -1.8950    0.0000 H   0  0  0  0  0  0  0  0  0  0  0  0
    0.1105   -2.3075    0.0000 H   0  0  0  0  0  0  0  0  0  0  0  0
   -0.8162   -1.7725    0.0000 H   0  0  0  0  0  0  0  0  0  0  0  0
   -0.1016    0.5350    0.0000 H   0  0  0  0  0  0  0  0  0  0  0  0
    0.8250    1.0700    0.0000 H   0  0  0  0  0  0  0  0  0  0  0  0
    1.4170   -1.2286    0.0000 H   0  0  0  0  0  0  0  0  0  0  0  0
    3.0220   -0.3020    0.0000 H   0  0  0  0  0  0  0  0  0  0  0  0
    2.4870   -1.2287    0.0000 H   0  0  0  0  0  0  0  0  0  0  0  0
    1.6620    2.0536    0.0000 H   0  0  0  0  0  0  0  0  0  0  0  0
    0.0570    1.1270    0.0000 H   0  0  0  0  0  0  0  0  0  0  0  0
    0.5920    2.0537    0.0000 H   0  0  0  0  0  0  0  0  0  0  0  0
    3.1806    0.2900    0.0000 H   0  0  0  0  0  0  0  0  0  0  0  0
    2.2539    1.8950    0.0000 H   0  0  0  0  0  0  0  0  0  0  0  0
    3.1805    1.3600    0.0000 H   0  0  0  0  0  0  0  0  0  0  0  0
  1  2  1  0  0  0  0
  1 15  1  0  0  0  0
  1 16  1  0  0  0  0
  1 17  1  0  0  0  0
  2  3  2  0  0  0  0
  2  4  1  0  0  0  0
  5  4  1  0  0  0  0
  5  6  1  0  0  0  0
  5 10  1  0  0  0  0
  5 18  1  1  0  0  0
  6  7  1  0  0  0  0
  6 19  1  0  0  0  0
  6 20  1  0  0  0  0
  7  8  2  0  0  0  0
  7  9  1  0  0  0  0
 10 11  1  0  0  0  0
 10 21  1  0  0  0  0
 10 22  1  0  0  0  0
 11 12  1  0  0  0  0
 11 13  1  0  0  0  0
 11 14  1  0  0  0  0
 12 23  1  0  0  0  0
 12 24  1  0  0  0  0
 12 25  1  0  0  0  0
 13 26  1  0  0  0  0
 13 27  1  0  0  0  0
 13 28  1  0  0  0  0
 14 29  1  0  0  0  0
 14 30  1  0  0  0  0
 14 31  1  0  0  0  0
M  CHG  2   9  -1  11   1
M  END
>  <DRUGBANK_ID>
DB08842

>  <COMMON_NAME>
Acetylcarnitine

>  <CAS_NUMBER>
3040-38-8

>  <UNII>
6DH1W9VH8Q

>  <SYNONYMS>
acetyl-L-carnitine; O-acetyl-L-carnitine ; O-Acetylcarnitine

$$$$
