VII
 OpenBabel10282417072D

 35 37  0  0  0  0  0  0  0  0999 V2000
   -0.8441    1.6704    0.0000 C   0  0  0  0  0  0  0  0  0  0  0  0
   -0.8441    2.4954    0.0000 C   0  0  0  0  0  0  0  0  0  0  0  0
   -0.1297    2.9079    0.0000 C   0  0  0  0  0  0  0  0  0  0  0  0
    0.5848    2.4954    0.0000 C   0  0  0  0  0  0  0  0  0  0  0  0
    0.5848    1.6704    0.0000 C   0  0  0  0  0  0  0  0  0  0  0  0
   -0.1297    1.2579    0.0000 C   0  0  0  0  0  0  0  0  0  0  0  0
   -0.1297    0.4329    0.0000 C   0  0  0  0  0  0  0  0  0  0  0  0
    0.5378   -0.0520    0.0000 O   0  0  0  0  0  0  0  0  0  0  0  0
   -0.7971   -0.0520    0.0000 C   0  0  0  0  0  0  0  0  0  0  0  0
   -1.5817    0.2029    0.0000 C   0  0  0  0  0  0  0  0  0  0  0  0
   -2.1948   -0.3491    0.0000 O   0  0  0  0  0  0  0  0  0  0  0  0
   -1.7532    1.0099    0.0000 O   0  0  0  0  0  0  0  0  0  0  0  0
   -0.5422   -0.8366    0.0000 C   0  0  0  0  0  0  0  0  0  0  0  0
   -1.0271   -1.5041    0.0000 C   0  0  0  0  0  0  0  0  0  0  0  0
   -0.6915   -2.2577    0.0000 O   0  0  0  0  0  0  0  0  0  0  0  0
   -1.8476   -1.4178    0.0000 O   0  0  0  0  0  0  0  0  0  0  0  0
    0.2828   -0.8366    0.0000 C   0  0  0  0  0  0  0  0  0  0  0  0
    0.7678   -1.5041    0.0000 C   0  0  0  0  0  0  0  0  0  0  0  0
    1.5882   -1.4178    0.0000 C   0  0  0  0  0  0  0  0  0  0  0  0
    2.0732   -2.0853    0.0000 C   0  0  0  0  0  0  0  0  0  0  0  0
    1.7376   -2.8389    0.0000 C   0  0  0  0  0  0  0  0  0  0  0  0
    0.9171   -2.9252    0.0000 C   0  0  0  0  0  0  0  0  0  0  0  0
    0.4322   -2.2577    0.0000 C   0  0  0  0  0  0  0  0  0  0  0  0
   -1.7378    1.1544    0.0000 H   0  0  0  0  0  0  0  0  0  0  0  0
   -1.7378    3.0114    0.0000 H   0  0  0  0  0  0  0  0  0  0  0  0
   -0.1297    3.9399    0.0000 H   0  0  0  0  0  0  0  0  0  0  0  0
    1.4785    3.0114    0.0000 H   0  0  0  0  0  0  0  0  0  0  0  0
    1.4785    1.1544    0.0000 H   0  0  0  0  0  0  0  0  0  0  0  0
   -1.0568    1.6368    0.0000 H   0  0  0  0  0  0  0  0  0  0  0  0
   -2.2286   -0.5618    0.0000 H   0  0  0  0  0  0  0  0  0  0  0  0
    2.0079   -0.4750    0.0000 H   0  0  0  0  0  0  0  0  0  0  0  0
    3.0995   -1.9775    0.0000 H   0  0  0  0  0  0  0  0  0  0  0  0
    2.3442   -3.6738    0.0000 H   0  0  0  0  0  0  0  0  0  0  0  0
    0.4974   -3.8680    0.0000 H   0  0  0  0  0  0  0  0  0  0  0  0
   -0.5942   -2.3655    0.0000 H   0  0  0  0  0  0  0  0  0  0  0  0
  1  2  2  0  0  0  0
  1  6  1  0  0  0  0
  1 24  1  0  0  0  0
  2  3  1  0  0  0  0
  2 25  1  0  0  0  0
  3  4  2  0  0  0  0
  3 26  1  0  0  0  0
  4  5  1  0  0  0  0
  4 27  1  0  0  0  0
  5  6  2  0  0  0  0
  5 28  1  0  0  0  0
  6  7  1  0  0  0  0
  7  8  1  0  0  0  0
  7  9  2  0  0  0  0
  8 17  1  0  0  0  0
  9 10  1  0  0  0  0
  9 13  1  0  0  0  0
 10 11  2  0  0  0  0
 10 12  1  0  0  0  0
 12 29  1  0  0  0  0
 13 14  1  0  0  0  0
 13 17  2  0  0  0  0
 14 15  2  0  0  0  0
 14 16  1  0  0  0  0
 16 30  1  0  0  0  0
 17 18  1  0  0  0  0
 18 19  2  0  0  0  0
 18 23  1  0  0  0  0
 19 20  1  0  0  0  0
 19 31  1  0  0  0  0
 20 21  2  0  0  0  0
 20 32  1  0  0  0  0
 21 22  1  0  0  0  0
 21 33  1  0  0  0  0
 22 23  2  0  0  0  0
 22 34  1  0  0  0  0
 23 35  1  0  0  0  0
M  END
>  <DRUGBANK_ID>
DB08702

>  <COMMON_NAME>
2,5-DIPHENYLFURAN-3,4-DICARBOXYLIC ACID

>  <UNII>
WF06BEU369

$$$$
