1610
 OpenBabel10282417072D

 47 48  0  0  1  0  0  0  0  0999 V2000
    6.0807   -0.2624    0.0000 O   0  0  0  0  0  0  0  0  0  0  0  0
    7.4006    1.4761    0.0000 O   0  0  0  0  0  0  0  0  0  0  0  0
    6.0424    1.9201    0.0000 O   0  0  0  0  0  0  0  0  0  0  0  0
    8.7589    1.0322    0.0000 O   0  0  0  0  0  0  0  0  0  0  0  0
    3.5220   -3.5307    0.0000 O   0  0  0  0  0  0  0  0  0  0  0  0
    5.0171   -1.2167    0.0000 N   0  0  0  0  0  0  0  0  0  0  0  0
    7.9132    3.0445    0.0000 N   0  0  0  0  0  0  0  0  0  0  0  0
    3.5220   -1.0556    0.0000 N   0  0  0  0  0  0  0  0  0  0  0  0
    5.0171   -2.5446    0.0000 N   0  0  0  0  0  0  0  0  0  0  0  0
    2.8075   -2.2931    0.0000 N   0  0  0  0  0  0  0  0  0  0  0  0
    2.0930   -1.0556    0.0000 N   0  0  0  0  0  0  0  0  0  0  0  0
    9.2715    2.6005    0.0000 C   0  0  0  0  0  0  0  0  0  0  0  0
    8.4642    2.4304    0.0000 C   0  0  1  0  0  0  0  0  0  0  0  0
    6.3370    0.5217    0.0000 C   0  0  3  0  0  0  0  0  0  0  0  0
    7.1443    0.6919    0.0000 C   0  0  0  0  0  0  0  0  0  0  0  0
    9.8224    1.9865    0.0000 C   0  0  0  0  0  0  0  0  0  0  0  0
    9.5278    3.3848    0.0000 C   0  0  0  0  0  0  0  0  0  0  0  0
    8.2079    1.6462    0.0000 C   0  0  0  0  0  0  0  0  0  0  0  0
    5.2734   -0.4326    0.0000 C   0  0  0  0  0  0  0  0  0  0  0  0
    5.7860    1.1358    0.0000 C   0  0  0  0  0  0  0  0  0  0  0  0
    4.2365   -1.4681    0.0000 C   0  0  0  0  0  0  0  0  0  0  0  0
    4.2365   -2.2931    0.0000 C   0  0  0  0  0  0  0  0  0  0  0  0
    5.4986   -1.8806    0.0000 C   0  0  0  0  0  0  0  0  0  0  0  0
    3.5220   -2.7056    0.0000 C   0  0  0  0  0  0  0  0  0  0  0  0
    2.8075   -1.4681    0.0000 C   0  0  0  0  0  0  0  0  0  0  0  0
    6.9916    2.1201    0.0000 H   0  0  0  0  0  0  0  0  0  0  0  0
    8.2301    4.0140    0.0000 H   0  0  0  0  0  0  0  0  0  0  0  0
    6.9151    2.8342    0.0000 H   0  0  0  0  0  0  0  0  0  0  0  0
    3.5220   -0.0711    0.0000 H   0  0  0  0  0  0  0  0  0  0  0  0
    2.0930   -0.0711    0.0000 H   0  0  0  0  0  0  0  0  0  0  0  0
    1.2404   -1.5479    0.0000 H   0  0  0  0  0  0  0  0  0  0  0  0
   10.3185    2.8212    0.0000 H   0  0  0  0  0  0  0  0  0  0  0  0
    8.7966    3.4474    0.0000 H   0  0  0  0  0  0  0  0  0  0  0  0
    7.0516   -0.2747    0.0000 H   0  0  0  0  0  0  0  0  0  0  0  0
    7.8589   -0.1045    0.0000 H   0  0  0  0  0  0  0  0  0  0  0  0
    6.8119   -0.3252    0.0000 H   0  0  0  0  0  0  0  0  0  0  0  0
    9.4900    0.9695    0.0000 H   0  0  0  0  0  0  0  0  0  0  0  0
   10.8694    2.2071    0.0000 H   0  0  0  0  0  0  0  0  0  0  0  0
   10.5370    1.1901    0.0000 H   0  0  0  0  0  0  0  0  0  0  0  0
   10.5748    3.6055    0.0000 H   0  0  0  0  0  0  0  0  0  0  0  0
    8.8132    4.1812    0.0000 H   0  0  0  0  0  0  0  0  0  0  0  0
    9.8602    4.4019    0.0000 H   0  0  0  0  0  0  0  0  0  0  0  0
    4.5588    0.3638    0.0000 H   0  0  0  0  0  0  0  0  0  0  0  0
    4.2264   -0.6532    0.0000 H   0  0  0  0  0  0  0  0  0  0  0  0
    4.7390    0.9152    0.0000 H   0  0  0  0  0  0  0  0  0  0  0  0
    5.4536    0.1188    0.0000 H   0  0  0  0  0  0  0  0  0  0  0  0
    6.5306   -1.8806    0.0000 H   0  0  0  0  0  0  0  0  0  0  0  0
  1 14  1  0  0  0  0
  1 19  1  0  0  0  0
  2 15  1  0  0  0  0
  2 18  1  0  0  0  0
  3 20  1  0  0  0  0
  3 26  1  0  0  0  0
  4 18  2  0  0  0  0
  5 24  2  0  0  0  0
  6 19  1  0  0  0  0
  6 21  1  0  0  0  0
  6 23  1  0  0  0  0
  7 27  1  0  0  0  0
  7 28  1  0  0  0  0
  8 21  1  0  0  0  0
  8 25  1  0  0  0  0
  8 29  1  0  0  0  0
  9 22  1  0  0  0  0
  9 23  2  0  0  0  0
 10 24  1  0  0  0  0
 10 25  2  0  0  0  0
 11 25  1  0  0  0  0
 11 30  1  0  0  0  0
 11 31  1  0  0  0  0
 12 13  1  0  0  0  0
 12 16  1  0  0  0  0
 12 17  1  0  0  0  0
 12 32  1  0  0  0  0
 13  7  1  0  0  0  0
 13 18  1  0  0  0  0
 13 33  1  6  0  0  0
 14 15  1  0  0  0  0
 14 20  1  0  0  0  0
 14 34  1  0  0  0  0
 15 35  1  0  0  0  0
 15 36  1  0  0  0  0
 16 37  1  0  0  0  0
 16 38  1  0  0  0  0
 16 39  1  0  0  0  0
 17 40  1  0  0  0  0
 17 41  1  0  0  0  0
 17 42  1  0  0  0  0
 19 43  1  0  0  0  0
 19 44  1  0  0  0  0
 20 45  1  0  0  0  0
 20 46  1  0  0  0  0
 21 22  2  0  0  0  0
 22 24  1  0  0  0  0
 23 47  1  0  0  0  0
M  END
>  <DRUGBANK_ID>
DB01610

>  <COMMON_NAME>
Valganciclovir

>  <CAS_NUMBER>
175865-60-8

>  <UNII>
GCU97FKN3R

>  <SYNONYMS>
Valganciclovir

$$$$
