
 OpenBabel10282417072D

 43 45  0  0  0  0  0  0  0  0999 V2000
   -0.6312    0.1434    0.0000 C   0  0  0  0  0  0  0  0  0  0  0  0
    0.1937    0.1434    0.0000 C   0  0  0  0  0  0  0  0  0  0  0  0
    0.5245    1.5927    0.0000 C   0  0  0  0  0  0  0  0  0  0  0  0
   -0.2250    0.5897    0.0000 N   0  0  0  0  0  0  0  0  0  0  0  0
   -0.2250    1.4147    0.0000 C   0  0  0  0  0  0  0  0  0  0  0  0
   -0.2187    1.9507    0.0000 C   0  0  1  0  0  0  0  0  0  0  0  0
   -0.9620    1.5927    0.0000 C   0  0  2  0  0  0  0  0  0  0  0  0
   -1.6765    2.8302    0.0000 O   0  0  0  0  0  0  0  0  0  0  0  0
   -1.6765    2.0052    0.0000 C   0  0  0  0  0  0  0  0  0  0  0  0
   -2.3910    1.5927    0.0000 O   0  0  0  0  0  0  0  0  0  0  0  0
   -3.1055    2.0052    0.0000 C   0  0  0  0  0  0  0  0  0  0  0  0
   -0.2187    2.7757    0.0000 O   0  0  0  0  0  0  0  0  0  0  0  0
    0.4957    4.0132    0.0000 O   0  0  0  0  0  0  0  0  0  0  0  0
    0.4957    3.1882    0.0000 C   0  0  0  0  0  0  0  0  0  0  0  0
    1.2102    2.7757    0.0000 C   0  0  0  0  0  0  0  0  0  0  0  0
    1.9247    1.5382    0.0000 C   0  0  0  0  0  0  0  0  0  0  0  0
    2.6391    1.9507    0.0000 C   0  0  0  0  0  0  0  0  0  0  0  0
    2.6391    2.7757    0.0000 C   0  0  0  0  0  0  0  0  0  0  0  0
    1.9247    3.1882    0.0000 C   0  0  0  0  0  0  0  0  0  0  0  0
    1.2102    1.9507    0.0000 C   0  0  0  0  0  0  0  0  0  0  0  0
   -1.1456    0.7885    0.0000 C   0  0  1  0  0  0  0  0  0  0  0  0
   -1.9425    0.5750    0.0000 H   0  0  0  0  0  0  0  0  0  0  0  0
    0.7081    0.7885    0.0000 C   0  0  1  0  0  0  0  0  0  0  0  0
    1.5050    0.5750    0.0000 H   0  0  0  0  0  0  0  0  0  0  0  0
   -1.0955   -0.8206    0.0000 H   0  0  0  0  0  0  0  0  0  0  0  0
   -0.0619   -0.7626    0.0000 H   0  0  0  0  0  0  0  0  0  0  0  0
    0.6580   -0.8206    0.0000 H   0  0  0  0  0  0  0  0  0  0  0  0
    1.2570    0.0236    0.0000 H   0  0  0  0  0  0  0  0  0  0  0  0
    1.3611    2.2598    0.0000 H   0  0  0  0  0  0  0  0  0  0  0  0
    1.5345    1.2393    0.0000 H   0  0  0  0  0  0  0  0  0  0  0  0
    0.7016    1.9497    0.0000 H   0  0  0  0  0  0  0  0  0  0  0  0
   -1.1516    1.9497    0.0000 H   0  0  0  0  0  0  0  0  0  0  0  0
   -0.2250    2.4847    0.0000 H   0  0  0  0  0  0  0  0  0  0  0  0
   -1.1247    2.5200    0.0000 H   0  0  0  0  0  0  0  0  0  0  0  0
   -0.9220    2.6620    0.0000 H   0  0  0  0  0  0  0  0  0  0  0  0
   -3.1055    3.0752    0.0000 H   0  0  0  0  0  0  0  0  0  0  0  0
   -4.0321    1.4702    0.0000 H   0  0  0  0  0  0  0  0  0  0  0  0
   -4.0322    2.5402    0.0000 H   0  0  0  0  0  0  0  0  0  0  0  0
    1.9247    0.5062    0.0000 H   0  0  0  0  0  0  0  0  0  0  0  0
    3.5328    1.4347    0.0000 H   0  0  0  0  0  0  0  0  0  0  0  0
    3.5328    3.2917    0.0000 H   0  0  0  0  0  0  0  0  0  0  0  0
    1.9247    4.2202    0.0000 H   0  0  0  0  0  0  0  0  0  0  0  0
    0.3165    1.4347    0.0000 H   0  0  0  0  0  0  0  0  0  0  0  0
  1  2  1  0  0  0  0
  1 25  1  0  0  0  0
  1 26  1  0  0  0  0
  2 23  1  0  0  0  0
  2 27  1  0  0  0  0
  2 28  1  0  0  0  0
  3  6  1  0  0  0  0
  3 29  1  0  0  0  0
  3 30  1  0  0  0  0
  4  5  1  0  0  0  0
  5 31  1  0  0  0  0
  5 32  1  0  0  0  0
  5 33  1  0  0  0  0
  6  7  1  0  0  0  0
  6 12  1  0  0  0  0
  6 34  1  6  0  0  0
  7 21  1  0  0  0  0
  7  9  1  0  0  0  0
  7 35  1  6  0  0  0
  9  8  2  0  0  0  0
  9 10  1  0  0  0  0
 10 11  1  0  0  0  0
 11 36  1  0  0  0  0
 11 37  1  0  0  0  0
 11 38  1  0  0  0  0
 12 14  1  0  0  0  0
 14 13  2  0  0  0  0
 14 15  1  0  0  0  0
 15 20  1  0  0  0  0
 16 17  1  0  0  0  0
 16 39  1  0  0  0  0
 17 18  2  0  0  0  0
 17 40  1  0  0  0  0
 18 19  1  0  0  0  0
 18 41  1  0  0  0  0
 19 15  2  0  0  0  0
 19 42  1  0  0  0  0
 20 16  2  0  0  0  0
 20 43  1  0  0  0  0
 21  1  1  0  0  0  0
 21  4  1  0  0  0  0
 21 22  1  1  0  0  0
 23  3  1  0  0  0  0
 23  4  1  0  0  0  0
 23 24  1  1  0  0  0
M  END
>  <DRUGBANK_ID>
DB00907

>  <SECONDARY_ACCESSION_NUMBERS>
APRD00080

>  <COMMON_NAME>
Cocaine

>  <CAS_NUMBER>
50-36-2

>  <UNII>
I5Y540LHVR

>  <SYNONYMS>
(-)-Cocaine; (−)-cocaine; [1R-(exo,exo)]-3-(benzoyloxy)-8-methyl-8-azabicyclo[3.2.1]octane-2-carboxylic acid, methyl ester; 2-methyl-3β-hydroxy-1αH,5αH-tropane-2β-carboxylate benzoate (ester); Benzoylmethylecgonine; beta-Cocain; Cocain; Cocaina; Cocaine; Cocainum; Kokain; L-Cocain; L-Cocaine; methyl [1R-(exo,exo)]-3-(benzoyloxy)-8-methyl-8-azabicyclo[3.2.1]octane-2-carboxylate; Methyl benzoylecgonine; Neurocaine

$$$$
