
 OpenBabel10282417072D

 43 45  0  0  0  0  0  0  0  0999 V2000
   -1.6365    3.5062    0.0000 Cl  0  0  0  0  0  0  0  0  0  0  0  0
   -2.3510   -3.5062    0.0000 O   0  0  0  0  0  0  0  0  0  0  0  0
    1.2875   -1.2826    0.0000 N   0  0  0  0  0  0  0  0  0  0  0  0
    1.2875    0.0451    0.0000 N   0  0  0  0  0  0  0  0  0  0  0  0
   -0.2076   -1.4437    0.0000 N   0  0  0  0  0  0  0  0  0  0  0  0
   -0.2076    1.0312    0.0000 N   0  0  0  0  0  0  0  0  0  0  0  0
   -0.9220   -0.2062    0.0000 N   0  0  0  0  0  0  0  0  0  0  0  0
   -1.6365   -1.4437    0.0000 N   0  0  0  0  0  0  0  0  0  0  0  0
    1.5437   -2.0668    0.0000 C   0  0  0  0  0  0  0  0  0  0  0  0
    0.5068   -1.0312    0.0000 C   0  0  0  0  0  0  0  0  0  0  0  0
    0.5068   -0.2062    0.0000 C   0  0  0  0  0  0  0  0  0  0  0  0
    0.9928   -2.6809    0.0000 C   0  0  0  0  0  0  0  0  0  0  0  0
    2.3510   -2.2369    0.0000 C   0  0  0  0  0  0  0  0  0  0  0  0
    1.7690   -0.6187    0.0000 C   0  0  0  0  0  0  0  0  0  0  0  0
   -0.2076    0.2062    0.0000 C   0  0  0  0  0  0  0  0  0  0  0  0
   -0.9220   -1.0312    0.0000 C   0  0  0  0  0  0  0  0  0  0  0  0
   -0.9220    1.4437    0.0000 C   0  0  0  0  0  0  0  0  0  0  0  0
   -1.6365   -2.2687    0.0000 C   0  0  0  0  0  0  0  0  0  0  0  0
   -2.3510   -2.6812    0.0000 C   0  0  0  0  0  0  0  0  0  0  0  0
   -0.9220    2.2687    0.0000 C   0  0  0  0  0  0  0  0  0  0  0  0
   -1.6365    1.0312    0.0000 C   0  0  0  0  0  0  0  0  0  0  0  0
   -1.6365    2.6812    0.0000 C   0  0  0  0  0  0  0  0  0  0  0  0
   -2.3510    1.4437    0.0000 C   0  0  0  0  0  0  0  0  0  0  0  0
   -2.3510    2.2687    0.0000 C   0  0  0  0  0  0  0  0  0  0  0  0
    0.2353    1.2870    0.0000 H   0  0  0  0  0  0  0  0  0  0  0  0
   -2.0795   -1.1880    0.0000 H   0  0  0  0  0  0  0  0  0  0  0  0
   -3.1910   -3.9912    0.0000 H   0  0  0  0  0  0  0  0  0  0  0  0
    1.8762   -3.0838    0.0000 H   0  0  0  0  0  0  0  0  0  0  0  0
   -0.0542   -2.4604    0.0000 H   0  0  0  0  0  0  0  0  0  0  0  0
    1.3253   -3.6979    0.0000 H   0  0  0  0  0  0  0  0  0  0  0  0
    0.2783   -3.4774    0.0000 H   0  0  0  0  0  0  0  0  0  0  0  0
    2.6835   -3.2539    0.0000 H   0  0  0  0  0  0  0  0  0  0  0  0
    3.0656   -1.4405    0.0000 H   0  0  0  0  0  0  0  0  0  0  0  0
    3.3980   -2.4575    0.0000 H   0  0  0  0  0  0  0  0  0  0  0  0
    2.8010   -0.6187    0.0000 H   0  0  0  0  0  0  0  0  0  0  0  0
   -0.7099   -2.8037    0.0000 H   0  0  0  0  0  0  0  0  0  0  0  0
   -1.6365   -3.3387    0.0000 H   0  0  0  0  0  0  0  0  0  0  0  0
   -3.2776   -2.1462    0.0000 H   0  0  0  0  0  0  0  0  0  0  0  0
   -2.3510   -1.6112    0.0000 H   0  0  0  0  0  0  0  0  0  0  0  0
   -0.0283    2.7847    0.0000 H   0  0  0  0  0  0  0  0  0  0  0  0
   -1.6365   -0.0008    0.0000 H   0  0  0  0  0  0  0  0  0  0  0  0
   -3.2447    0.9277    0.0000 H   0  0  0  0  0  0  0  0  0  0  0  0
   -3.2447    2.7847    0.0000 H   0  0  0  0  0  0  0  0  0  0  0  0
  1 22  1  0  0  0  0
  2 19  1  0  0  0  0
  2 27  1  0  0  0  0
  3  9  1  0  0  0  0
  3 10  1  0  0  0  0
  3 14  1  0  0  0  0
  4 11  1  0  0  0  0
  4 14  2  0  0  0  0
  5 10  2  0  0  0  0
  5 16  1  0  0  0  0
  6 15  1  0  0  0  0
  6 17  1  0  0  0  0
  6 25  1  0  0  0  0
  7 15  1  0  0  0  0
  7 16  2  0  0  0  0
  8 16  1  0  0  0  0
  8 18  1  0  0  0  0
  8 26  1  0  0  0  0
  9 12  1  0  0  0  0
  9 13  1  0  0  0  0
  9 28  1  0  0  0  0
 10 11  1  0  0  0  0
 11 15  2  0  0  0  0
 12 29  1  0  0  0  0
 12 30  1  0  0  0  0
 12 31  1  0  0  0  0
 13 32  1  0  0  0  0
 13 33  1  0  0  0  0
 13 34  1  0  0  0  0
 14 35  1  0  0  0  0
 17 20  2  0  0  0  0
 17 21  1  0  0  0  0
 18 19  1  0  0  0  0
 18 36  1  0  0  0  0
 18 37  1  0  0  0  0
 19 38  1  0  0  0  0
 19 39  1  0  0  0  0
 20 22  1  0  0  0  0
 20 40  1  0  0  0  0
 21 23  2  0  0  0  0
 21 41  1  0  0  0  0
 22 24  2  0  0  0  0
 23 24  1  0  0  0  0
 23 42  1  0  0  0  0
 24 43  1  0  0  0  0
M  END
>  <DRUGBANK_ID>
DB08325

>  <COMMON_NAME>
2-({6-[(3-Chlorophenyl)amino]-9-isopropyl-9H-purin-2-yl}amino)ethanol

>  <CAS_NUMBER>
212779-48-1

>  <SYNONYMS>
2-(2-Hydroxyethylamino)-6-(3-chloroanilino)-9-isopropylpurine

$$$$
