
 OpenBabel10282417072D

 42 45  0  0  0  0  0  0  0  0999 V2000
   -1.1053    1.0961    0.0000 C   0  0  0  0  0  0  0  0  0  0  0  0
   -1.8164    0.6779    0.0000 C   0  0  0  0  0  0  0  0  0  0  0  0
   -1.8164   -0.1357    0.0000 C   0  0  0  0  0  0  0  0  0  0  0  0
   -1.0844   -0.5666    0.0000 C   0  0  0  0  0  0  0  0  0  0  0  0
   -0.3733   -0.1484    0.0000 C   0  0  0  0  0  0  0  0  0  0  0  0
   -0.3942    0.7008    0.0000 C   0  0  0  0  0  0  0  0  0  0  0  0
    0.3733   -0.5227    0.0000 C   0  0  0  0  0  0  0  0  0  0  0  0
    0.3942   -1.3718    0.0000 C   0  0  0  0  0  0  0  0  0  0  0  0
    1.1053   -1.7671    0.0000 N   0  0  0  0  0  0  0  0  0  0  0  0
    1.8164   -1.3489    0.0000 C   0  0  0  0  0  0  0  0  0  0  0  0
    1.8164   -0.5353    0.0000 C   0  0  0  0  0  0  0  0  0  0  0  0
    1.0844   -0.1045    0.0000 C   0  0  0  0  0  0  0  0  0  0  0  0
    0.3168    1.1190    0.0000 F   0  0  0  0  0  0  0  0  0  0  0  0
   -2.5325    1.0874    0.0000 N   0  0  0  0  0  0  0  0  0  0  0  0
   -3.2848    0.7489    0.0000 C   0  0  0  0  0  0  0  0  0  0  0  0
   -2.6220    1.9076    0.0000 C   0  0  0  0  0  0  0  0  0  0  0  0
   -3.8392    1.3597    0.0000 O   0  0  0  0  0  0  0  0  0  0  0  0
   -3.4298    2.0759    0.0000 C   0  0  1  0  0  0  0  0  0  0  0  0
   -3.4532   -0.0588    0.0000 O   0  0  0  0  0  0  0  0  0  0  0  0
   -3.7685    2.8282    0.0000 C   0  0  0  0  0  0  0  0  0  0  0  0
    2.5325   -1.7584    0.0000 C   0  0  0  0  0  0  0  0  0  0  0  0
    3.2848   -1.4199    0.0000 N   0  0  0  0  0  0  0  0  0  0  0  0
    2.6219   -2.5787    0.0000 N   0  0  0  0  0  0  0  0  0  0  0  0
    3.8392   -2.0308    0.0000 N   0  0  0  0  0  0  0  0  0  0  0  0
    3.4298   -2.7469    0.0000 N   0  0  0  0  0  0  0  0  0  0  0  0
    3.7684   -3.4993    0.0000 C   0  0  0  0  0  0  0  0  0  0  0  0
   -3.2852    3.4993    0.0000 O   0  0  0  0  0  0  0  0  0  0  0  0
   -1.1178    2.1280    0.0000 H   0  0  0  0  0  0  0  0  0  0  0  0
   -2.7123   -0.6479    0.0000 H   0  0  0  0  0  0  0  0  0  0  0  0
   -1.0846   -1.5986    0.0000 H   0  0  0  0  0  0  0  0  0  0  0  0
   -0.4888   -1.9059    0.0000 H   0  0  0  0  0  0  0  0  0  0  0  0
    2.7123   -0.0230    0.0000 H   0  0  0  0  0  0  0  0  0  0  0  0
    1.0846    0.9275    0.0000 H   0  0  0  0  0  0  0  0  0  0  0  0
   -1.8297    2.6267    0.0000 H   0  0  0  0  0  0  0  0  0  0  0  0
   -2.9031    2.9400    0.0000 H   0  0  0  0  0  0  0  0  0  0  0  0
   -2.7598    2.9102    0.0000 H   0  0  0  0  0  0  0  0  0  0  0  0
   -4.8331    2.9356    0.0000 H   0  0  0  0  0  0  0  0  0  0  0  0
   -4.2078    3.8039    0.0000 H   0  0  0  0  0  0  0  0  0  0  0  0
    3.1429   -4.3675    0.0000 H   0  0  0  0  0  0  0  0  0  0  0  0
    4.8330   -3.6069    0.0000 H   0  0  0  0  0  0  0  0  0  0  0  0
    4.2075   -4.4750    0.0000 H   0  0  0  0  0  0  0  0  0  0  0  0
   -2.3201    3.4019    0.0000 H   0  0  0  0  0  0  0  0  0  0  0  0
  1  2  2  0  0  0  0
  1  6  1  0  0  0  0
  1 28  1  0  0  0  0
  2  3  1  0  0  0  0
  2 14  1  0  0  0  0
  3  4  2  0  0  0  0
  3 29  1  0  0  0  0
  4  5  1  0  0  0  0
  4 30  1  0  0  0  0
  5  6  2  0  0  0  0
  5  7  1  0  0  0  0
  6 13  1  0  0  0  0
  7  8  2  0  0  0  0
  7 12  1  0  0  0  0
  8  9  1  0  0  0  0
  8 31  1  0  0  0  0
  9 10  2  0  0  0  0
 10 11  1  0  0  0  0
 10 21  1  0  0  0  0
 11 12  2  0  0  0  0
 11 32  1  0  0  0  0
 12 33  1  0  0  0  0
 15 14  1  0  0  0  0
 15 19  2  0  0  0  0
 16 14  1  0  0  0  0
 16 34  1  0  0  0  0
 16 35  1  0  0  0  0
 17 15  1  0  0  0  0
 18 16  1  0  0  0  0
 18 17  1  0  0  0  0
 18 20  1  0  0  0  0
 18 36  1  6  0  0  0
 20 27  1  0  0  0  0
 20 37  1  0  0  0  0
 20 38  1  0  0  0  0
 22 21  1  0  0  0  0
 23 21  2  0  0  0  0
 24 22  2  0  0  0  0
 25 23  1  0  0  0  0
 25 24  1  0  0  0  0
 25 26  1  0  0  0  0
 26 39  1  0  0  0  0
 26 40  1  0  0  0  0
 26 41  1  0  0  0  0
 27 42  1  0  0  0  0
M  END
>  <DRUGBANK_ID>
DB14569

>  <COMMON_NAME>
Tedizolid

>  <CAS_NUMBER>
856866-72-3

>  <UNII>
97HLQ82NGL

>  <SYNONYMS>
Tedizolid; Torezolid

$$$$
