
 OpenBabel10282417072D

181192  0  0  0  0  0  0  0  0999 V2000
   -1.0291    0.5487    0.0000 C   0  0  0  0  0  0  0  0  0  0  0  0
   -1.1410    1.3522    0.0000 N   0  0  0  0  0  0  0  0  0  0  0  0
   -1.1410    3.0503    0.0000 N   0  3  0  0  0  0  0  0  0  0  0  0
   -1.0291    3.8539    0.0000 C   0  0  0  0  0  0  0  0  0  0  0  0
   -1.7415    4.2306    0.0000 C   0  0  1  0  0  0  0  0  0  0  0  0
   -1.8599    5.0471    0.0000 C   0  0  0  0  0  0  0  0  0  0  0  0
   -1.2121    5.5580    0.0000 C   0  0  0  0  0  0  0  0  0  0  0  0
   -1.3306    6.3744    0.0000 C   0  0  0  0  0  0  0  0  0  0  0  0
   -2.0968    6.6799    0.0000 O   0  0  0  0  0  0  0  0  0  0  0  0
    0.4120    3.8539    0.0000 C   0  0  0  0  0  0  0  0  0  0  0  0
    0.5363    3.0503    0.0000 N   0  3  0  0  0  0  0  0  0  0  0  0
    1.3605    2.9012    0.0000 C   0  0  0  0  0  0  0  0  0  0  0  0
    1.7746    2.2012    0.0000 C   0  0  0  0  0  0  0  0  0  0  0  0
    1.3605    1.4971    0.0000 C   0  0  0  0  0  0  0  0  0  0  0  0
    0.5363    1.3522    0.0000 N   0  3  0  0  0  0  0  0  0  0  0  0
    0.4120    0.5487    0.0000 C   0  0  0  0  0  0  0  0  0  0  0  0
    1.1493    0.1677    0.0000 C   0  0  1  0  0  0  0  0  0  0  0  0
    1.2716   -0.6481    0.0000 C   0  0  0  0  0  0  0  0  0  0  0  0
    2.0394   -0.9500    0.0000 C   0  0  0  0  0  0  0  0  0  0  0  0
    2.1618   -1.7659    0.0000 C   0  0  0  0  0  0  0  0  0  0  0  0
    2.9294   -2.0679    0.0000 O   0  0  0  0  0  0  0  0  0  0  0  0
    1.7415    0.7475    0.0000 C   0  0  0  0  0  0  0  0  0  0  0  0
    2.3797    0.2246    0.0000 C   0  0  0  0  0  0  0  0  0  0  0  0
    2.5134    1.0387    0.0000 C   0  0  0  0  0  0  0  0  0  0  0  0
   -0.2919    4.2637    0.0000 C   0  0  0  0  0  0  0  0  0  0  0  0
   -0.2919    5.0887    0.0000 C   0  0  0  0  0  0  0  0  0  0  0  0
   -0.2919    0.1345    0.0000 C   0  0  0  0  0  0  0  0  0  0  0  0
   -0.2919   -0.6904    0.0000 C   0  0  0  0  0  0  0  0  0  0  0  0
   -1.9527    1.4971    0.0000 C   0  0  1  0  0  0  0  0  0  0  0  0
   -2.7496    1.7106    0.0000 H   0  0  0  0  0  0  0  0  0  0  0  0
   -1.9527    2.9260    0.0000 C   0  0  2  0  0  0  0  0  0  0  0  0
   -2.7496    2.7125    0.0000 C   0  0  0  0  0  0  0  0  0  0  0  0
   -2.4560   -1.0697    0.0000 C   0  0  0  0  0  0  0  0  0  0  0  0
   -3.1704   -1.4822    0.0000 C   0  0  0  0  0  0  0  0  0  0  0  0
   -3.8849   -1.0697    0.0000 O   0  0  0  0  0  0  0  0  0  0  0  0
   -3.1704   -2.3072    0.0000 N   0  0  0  0  0  0  0  0  0  0  0  0
   -3.8849   -2.7197    0.0000 C   0  0  0  0  0  0  0  0  0  0  0  0
   -3.8849   -3.5447    0.0000 C   0  0  2  0  0  0  0  0  0  0  0  0
   -2.4560   -0.2447    0.0000 C   0  0  0  0  0  0  0  0  0  0  0  0
   -1.7415    0.1677    0.0000 C   0  0  1  0  0  0  0  0  0  0  0  0
   -1.7415   -0.6572    0.0000 C   0  0  0  0  0  0  0  0  0  0  0  0
   -0.6827    6.8851    0.0000 N   0  0  0  0  0  0  0  0  0  0  0  0
    1.5163   -2.2798    0.0000 N   0  0  0  0  0  0  0  0  0  0  0  0
    2.1181   -3.5722    0.0000 C   0  0  0  0  0  0  0  0  0  0  0  0
    1.2931   -5.0011    0.0000 C   0  0  0  0  0  0  0  0  0  0  0  0
    1.2931   -3.5722    0.0000 C   0  0  0  0  0  0  0  0  0  0  0  0
   -0.0125   -3.2947    0.0000 C   0  0  0  0  0  0  0  0  0  0  0  0
    0.8806   -4.2867    0.0000 C   0  0  0  0  0  0  0  0  0  0  0  0
    0.7412   -2.9591    0.0000 N   0  3  0  0  0  0  0  0  0  0  0  0
    0.0736   -4.1151    0.0000 N   0  0  0  0  0  0  0  0  0  0  0  0
    2.5306   -4.2867    0.0000 C   0  0  0  0  0  0  0  0  0  0  0  0
    3.3556   -4.2867    0.0000 C   0  0  0  0  0  0  0  0  0  0  0  0
    2.1181   -5.0011    0.0000 C   0  0  0  0  0  0  0  0  0  0  0  0
    2.5306   -5.7156    0.0000 C   0  0  0  0  0  0  0  0  0  0  0  0
   -0.5394   -4.6672    0.0000 C   0  0  1  0  0  0  0  0  0  0  0  0
   -0.4531   -5.4878    0.0000 O   0  0  0  0  0  0  0  0  0  0  0  0
   -1.2068   -5.8232    0.0000 C   0  0  2  0  0  0  0  0  0  0  0  0
   -1.3783   -6.6302    0.0000 C   0  0  0  0  0  0  0  0  0  0  0  0
   -2.1630   -6.8851    0.0000 O   0  0  0  0  0  0  0  0  0  0  0  0
   -1.3464   -4.4956    0.0000 C   0  0  2  0  0  0  0  0  0  0  0  0
   -1.6819   -3.7420    0.0000 O   0  0  0  0  0  0  0  0  0  0  0  0
   -1.7589   -5.2101    0.0000 C   0  0  2  0  0  0  0  0  0  0  0  0
   -2.5793   -5.2964    0.0000 O   0  0  0  0  0  0  0  0  0  0  0  0
   -0.3218    2.2508    0.0000 Co  0  7  0  0  0  0  0  0  0  0  0  0
   -0.8143    5.0655    0.0000 O   0  0  0  0  0  0  0  0  0  0  0  0
   -0.5279    5.6656    0.0000 H   0  0  0  0  0  0  0  0  0  0  0  0
    1.7415    3.6508    0.0000 C   0  0  1  0  0  0  0  0  0  0  0  0
    2.4560    4.0633    0.0000 C   0  0  0  0  0  0  0  0  0  0  0  0
    3.1705    3.6507    0.0000 C   0  0  0  0  0  0  0  0  0  0  0  0
    3.8850    4.0632    0.0000 C   0  0  0  0  0  0  0  0  0  0  0  0
    3.8850    4.8881    0.0000 O   0  0  0  0  0  0  0  0  0  0  0  0
    4.5994    3.6505    0.0000 N   0  0  0  0  0  0  0  0  0  0  0  0
   -2.3337    0.7475    0.0000 C   0  0  1  0  0  0  0  0  0  0  0  0
   -3.0482    0.3350    0.0000 C   0  0  0  0  0  0  0  0  0  0  0  0
   -3.7627    0.7475    0.0000 C   0  0  0  0  0  0  0  0  0  0  0  0
   -3.7627    1.5724    0.0000 O   0  0  0  0  0  0  0  0  0  0  0  0
   -4.4771    0.3348    0.0000 N   0  0  0  0  0  0  0  0  0  0  0  0
   -2.3337    3.6508    0.0000 C   0  0  1  0  0  0  0  0  0  0  0  0
   -3.0482    3.2384    0.0000 C   0  0  0  0  0  0  0  0  0  0  0  0
   -3.7627    3.6509    0.0000 C   0  0  0  0  0  0  0  0  0  0  0  0
   -4.4772    3.2385    0.0000 N   0  0  0  0  0  0  0  0  0  0  0  0
   -3.7627    4.4759    0.0000 O   0  0  0  0  0  0  0  0  0  0  0  0
   -2.9172    4.2342    0.0000 C   0  0  0  0  0  0  0  0  0  0  0  0
    1.1493    4.2306    0.0000 C   0  0  1  0  0  0  0  0  0  0  0  0
    1.8638    4.6431    0.0000 C   0  0  0  0  0  0  0  0  0  0  0  0
    1.1493    5.0556    0.0000 C   0  0  0  0  0  0  0  0  0  0  0  0
    1.8638    5.4681    0.0000 C   0  0  0  0  0  0  0  0  0  0  0  0
    1.8639    6.2931    0.0000 O   0  0  0  0  0  0  0  0  0  0  0  0
    2.5782    5.0556    0.0000 N   0  0  0  0  0  0  0  0  0  0  0  0
   -3.1627   -4.7130    0.0000 P   0  0  3  0  0  0  0  0  0  0  0  0
   -3.1627   -3.8880    0.0000 O   0  0  0  0  0  0  0  0  0  0  0  0
   -3.5752   -5.4275    0.0000 O   0  0  0  0  0  0  0  0  0  0  0  0
   -4.5994   -3.9572    0.0000 C   0  0  0  0  0  0  0  0  0  0  0  0
   -3.9596   -4.9265    0.0000 O   0  5  0  0  0  0  0  0  0  0  0  0
   -0.8671    4.8472    0.0000 H   0  0  0  0  0  0  0  0  0  0  0  0
   -2.8538    5.4435    0.0000 H   0  0  0  0  0  0  0  0  0  0  0  0
   -2.0136    6.1060    0.0000 H   0  0  0  0  0  0  0  0  0  0  0  0
   -0.2182    5.1617    0.0000 H   0  0  0  0  0  0  0  0  0  0  0  0
   -0.3719    6.2206    0.0000 H   0  0  0  0  0  0  0  0  0  0  0  0
    2.8066    2.2025    0.0000 H   0  0  0  0  0  0  0  0  0  0  0  0
    0.2793   -0.4552    0.0000 H   0  0  0  0  0  0  0  0  0  0  0  0
    0.4346   -1.3146    0.0000 H   0  0  0  0  0  0  0  0  0  0  0  0
    1.4304   -1.7063    0.0000 H   0  0  0  0  0  0  0  0  0  0  0  0
    2.8764   -0.2834    0.0000 H   0  0  0  0  0  0  0  0  0  0  0  0
    3.0352   -1.3416    0.0000 H   0  0  0  0  0  0  0  0  0  0  0  0
    2.2062   -0.8312    0.0000 H   0  0  0  0  0  0  0  0  0  0  0  0
    3.3808    0.6023    0.0000 H   0  0  0  0  0  0  0  0  0  0  0  0
    3.2074   -0.4535    0.0000 H   0  0  0  0  0  0  0  0  0  0  0  0
    3.3410    0.3605    0.0000 H   0  0  0  0  0  0  0  0  0  0  0  0
    2.6869    2.0945    0.0000 H   0  0  0  0  0  0  0  0  0  0  0  0
    3.5145    1.4164    0.0000 H   0  0  0  0  0  0  0  0  0  0  0  0
    0.6347    5.6237    0.0000 H   0  0  0  0  0  0  0  0  0  0  0  0
   -1.2185    5.6237    0.0000 H   0  0  0  0  0  0  0  0  0  0  0  0
   -0.2919    6.1587    0.0000 H   0  0  0  0  0  0  0  0  0  0  0  0
   -1.2185   -1.2254    0.0000 H   0  0  0  0  0  0  0  0  0  0  0  0
    0.6347   -1.2254    0.0000 H   0  0  0  0  0  0  0  0  0  0  0  0
   -0.2919   -1.7604    0.0000 H   0  0  0  0  0  0  0  0  0  0  0  0
   -3.5062    3.4691    0.0000 H   0  0  0  0  0  0  0  0  0  0  0  0
   -3.0266    1.6790    0.0000 H   0  0  0  0  0  0  0  0  0  0  0  0
   -3.7831    2.4356    0.0000 H   0  0  0  0  0  0  0  0  0  0  0  0
   -1.5293   -1.6047    0.0000 H   0  0  0  0  0  0  0  0  0  0  0  0
   -2.4560   -2.1397    0.0000 H   0  0  0  0  0  0  0  0  0  0  0  0
   -2.3178   -2.7995    0.0000 H   0  0  0  0  0  0  0  0  0  0  0  0
   -4.8115   -2.1847    0.0000 H   0  0  0  0  0  0  0  0  0  0  0  0
   -4.8115   -3.2547    0.0000 H   0  0  0  0  0  0  0  0  0  0  0  0
   -2.9803   -2.9731    0.0000 H   0  0  0  0  0  0  0  0  0  0  0  0
   -3.3826    0.2904    0.0000 H   0  0  0  0  0  0  0  0  0  0  0  0
   -2.4559    0.8253    0.0000 H   0  0  0  0  0  0  0  0  0  0  0  0
   -2.6681   -1.1922    0.0000 H   0  0  0  0  0  0  0  0  0  0  0  0
   -0.8149   -1.1922    0.0000 H   0  0  0  0  0  0  0  0  0  0  0  0
   -1.7415   -1.7272    0.0000 H   0  0  0  0  0  0  0  0  0  0  0  0
    0.2317    6.5202    0.0000 H   0  0  0  0  0  0  0  0  0  0  0  0
   -0.8239    7.8594    0.0000 H   0  0  0  0  0  0  0  0  0  0  0  0
    0.6002   -1.9194    0.0000 H   0  0  0  0  0  0  0  0  0  0  0  0
    1.6622   -3.2534    0.0000 H   0  0  0  0  0  0  0  0  0  0  0  0
    2.6341   -2.6785    0.0000 H   0  0  0  0  0  0  0  0  0  0  0  0
    0.7771   -5.8948    0.0000 H   0  0  0  0  0  0  0  0  0  0  0  0
   -0.9062   -2.7786    0.0000 H   0  0  0  0  0  0  0  0  0  0  0  0
    3.8906   -5.2133    0.0000 H   0  0  0  0  0  0  0  0  0  0  0  0
    3.8906   -3.3601    0.0000 H   0  0  0  0  0  0  0  0  0  0  0  0
    4.4256   -4.2867    0.0000 H   0  0  0  0  0  0  0  0  0  0  0  0
    1.9956   -6.6422    0.0000 H   0  0  0  0  0  0  0  0  0  0  0  0
    3.6006   -5.7156    0.0000 H   0  0  0  0  0  0  0  0  0  0  0  0
    3.0656   -6.6423    0.0000 H   0  0  0  0  0  0  0  0  0  0  0  0
   -0.8164   -3.6337    0.0000 H   0  0  0  0  0  0  0  0  0  0  0  0
   -0.3753   -6.4966    0.0000 H   0  0  0  0  0  0  0  0  0  0  0  0
   -0.5831   -7.3462    0.0000 H   0  0  0  0  0  0  0  0  0  0  0  0
   -1.6008   -7.6768    0.0000 H   0  0  0  0  0  0  0  0  0  0  0  0
   -2.8838   -6.2360    0.0000 H   0  0  0  0  0  0  0  0  0  0  0  0
   -0.6730   -3.6641    0.0000 H   0  0  0  0  0  0  0  0  0  0  0  0
   -1.1117   -2.9573    0.0000 H   0  0  0  0  0  0  0  0  0  0  0  0
   -2.1423   -6.2091    0.0000 H   0  0  0  0  0  0  0  0  0  0  0  0
    2.5180    2.9146    0.0000 H   0  0  0  0  0  0  0  0  0  0  0  0
    2.4561    5.1333    0.0000 H   0  0  0  0  0  0  0  0  0  0  0  0
    3.3827    4.5982    0.0000 H   0  0  0  0  0  0  0  0  0  0  0  0
    3.1704    2.5807    0.0000 H   0  0  0  0  0  0  0  0  0  0  0  0
    4.0971    3.1157    0.0000 H   0  0  0  0  0  0  0  0  0  0  0  0
    4.5992    2.6660    0.0000 H   0  0  0  0  0  0  0  0  0  0  0  0
    5.4521    4.1425    0.0000 H   0  0  0  0  0  0  0  0  0  0  0  0
   -3.1102    1.4837    0.0000 H   0  0  0  0  0  0  0  0  0  0  0  0
   -3.0482   -0.7350    0.0000 H   0  0  0  0  0  0  0  0  0  0  0  0
   -3.9748   -0.2000    0.0000 H   0  0  0  0  0  0  0  0  0  0  0  0
   -5.3298    0.8268    0.0000 H   0  0  0  0  0  0  0  0  0  0  0  0
   -4.4769   -0.6497    0.0000 H   0  0  0  0  0  0  0  0  0  0  0  0
   -3.0483    2.1684    0.0000 H   0  0  0  0  0  0  0  0  0  0  0  0
   -3.9749    2.7034    0.0000 H   0  0  0  0  0  0  0  0  0  0  0  0
   -5.3297    3.7309    0.0000 H   0  0  0  0  0  0  0  0  0  0  0  0
   -4.4773    2.2540    0.0000 H   0  0  0  0  0  0  0  0  0  0  0  0
   -2.6404    5.2678    0.0000 H   0  0  0  0  0  0  0  0  0  0  0  0
   -3.9507    3.9572    0.0000 H   0  0  0  0  0  0  0  0  0  0  0  0
   -3.6739    4.9907    0.0000 H   0  0  0  0  0  0  0  0  0  0  0  0
    2.7904    4.1081    0.0000 H   0  0  0  0  0  0  0  0  0  0  0  0
    1.8638    5.7131    0.0000 H   0  0  0  0  0  0  0  0  0  0  0  0
    2.7905    5.1781    0.0000 H   0  0  0  0  0  0  0  0  0  0  0  0
    0.2227    5.5906    0.0000 H   0  0  0  0  0  0  0  0  0  0  0  0
    1.1493    6.1256    0.0000 H   0  0  0  0  0  0  0  0  0  0  0  0
    2.5782    4.0711    0.0000 H   0  0  0  0  0  0  0  0  0  0  0  0
    3.4308    5.5478    0.0000 H   0  0  0  0  0  0  0  0  0  0  0  0
   -5.5260   -3.4222    0.0000 H   0  0  0  0  0  0  0  0  0  0  0  0
   -4.5994   -5.0272    0.0000 H   0  0  0  0  0  0  0  0  0  0  0  0
   -5.5261   -4.4922    0.0000 H   0  0  0  0  0  0  0  0  0  0  0  0
  1  2  1  0  0  0  0
  2 64  1  0  0  0  0
  3  4  2  0  0  0  0
  3 64  1  0  0  0  0
  4 25  1  0  0  0  0
  5  4  1  0  0  0  0
  5  6  1  0  0  0  0
  5 95  1  1  0  0  0
  6  7  1  0  0  0  0
  6 96  1  0  0  0  0
  6 97  1  0  0  0  0
  7  8  1  0  0  0  0
  7 98  1  0  0  0  0
  7 99  1  0  0  0  0
  8 42  1  0  0  0  0
  8  9  2  0  0  0  0
 10 11  1  0  0  0  0
 10 84  1  0  0  0  0
 11 12  2  0  0  0  0
 11 64  1  0  0  0  0
 12 13  1  0  0  0  0
 12 67  1  0  0  0  0
 13 14  2  0  0  0  0
 13100  1  0  0  0  0
 14 15  1  0  0  0  0
 14 22  1  0  0  0  0
 15 16  2  0  0  0  0
 15 64  1  0  0  0  0
 16 17  1  0  0  0  0
 17 18  1  0  0  0  0
 17 22  1  0  0  0  0
 17101  1  1  0  0  0
 18 19  1  0  0  0  0
 18102  1  0  0  0  0
 18103  1  0  0  0  0
 19 20  1  0  0  0  0
 19104  1  0  0  0  0
 19105  1  0  0  0  0
 20 43  1  0  0  0  0
 20 21  2  0  0  0  0
 22 23  1  0  0  0  0
 22 24  1  0  0  0  0
 23106  1  0  0  0  0
 23107  1  0  0  0  0
 23108  1  0  0  0  0
 24109  1  0  0  0  0
 24110  1  0  0  0  0
 24111  1  0  0  0  0
 25 10  2  0  0  0  0
 25 26  1  0  0  0  0
 26112  1  0  0  0  0
 26113  1  0  0  0  0
 26114  1  0  0  0  0
 27  1  2  0  0  0  0
 27 28  1  0  0  0  0
 27 16  1  0  0  0  0
 28115  1  0  0  0  0
 28116  1  0  0  0  0
 28117  1  0  0  0  0
 29  2  1  0  0  0  0
 29 73  1  0  0  0  0
 29 31  1  0  0  0  0
 29 30  1  1  0  0  0
 31  3  1  0  0  0  0
 31 78  1  0  0  0  0
 31 32  1  6  0  0  0
 32118  1  0  0  0  0
 32119  1  0  0  0  0
 32120  1  0  0  0  0
 33 34  1  0  0  0  0
 33121  1  0  0  0  0
 33122  1  0  0  0  0
 34 36  1  0  0  0  0
 34 35  2  0  0  0  0
 36123  1  0  0  0  0
 37 36  1  0  0  0  0
 37124  1  0  0  0  0
 37125  1  0  0  0  0
 38 37  1  0  0  0  0
 38 91  1  0  0  0  0
 38 93  1  0  0  0  0
 38126  1  1  0  0  0
 39 33  1  0  0  0  0
 39127  1  0  0  0  0
 39128  1  0  0  0  0
 40  1  1  0  0  0  0
 40 39  1  0  0  0  0
 40 41  1  1  0  0  0
 41129  1  0  0  0  0
 41130  1  0  0  0  0
 41131  1  0  0  0  0
 42132  1  0  0  0  0
 42133  1  0  0  0  0
 43134  1  0  0  0  0
 43135  1  0  0  0  0
 44 46  2  0  0  0  0
 44 51  1  0  0  0  0
 44136  1  0  0  0  0
 45 53  1  0  0  0  0
 45137  1  0  0  0  0
 46 49  1  0  0  0  0
 46 48  1  0  0  0  0
 47 50  1  0  0  0  0
 47 49  2  0  0  0  0
 47138  1  0  0  0  0
 48 45  2  0  0  0  0
 49 64  1  0  0  0  0
 50 48  1  0  0  0  0
 51 52  1  0  0  0  0
 52139  1  0  0  0  0
 52140  1  0  0  0  0
 52141  1  0  0  0  0
 53 51  2  0  0  0  0
 53 54  1  0  0  0  0
 54142  1  0  0  0  0
 54143  1  0  0  0  0
 54144  1  0  0  0  0
 55 50  1  0  0  0  0
 55 60  1  0  0  0  0
 55 56  1  0  0  0  0
 55145  1  6  0  0  0
 57 56  1  0  0  0  0
 57 58  1  0  0  0  0
 57146  1  1  0  0  0
 58 59  1  0  0  0  0
 58147  1  0  0  0  0
 58148  1  0  0  0  0
 59149  1  0  0  0  0
 60 62  1  0  0  0  0
 60 61  1  0  0  0  0
 60150  1  6  0  0  0
 61151  1  0  0  0  0
 62 57  1  0  0  0  0
 62 63  1  0  0  0  0
 62152  1  6  0  0  0
 63 90  1  0  0  0  0
 64 65  1  0  0  0  0
 65 66  1  0  0  0  0
 67 84  1  0  0  0  0
 67 68  1  0  0  0  0
 67153  1  1  0  0  0
 68 69  1  0  0  0  0
 68154  1  0  0  0  0
 68155  1  0  0  0  0
 69 70  1  0  0  0  0
 69156  1  0  0  0  0
 69157  1  0  0  0  0
 70 72  1  0  0  0  0
 70 71  2  0  0  0  0
 72158  1  0  0  0  0
 72159  1  0  0  0  0
 73 40  1  0  0  0  0
 73 74  1  0  0  0  0
 73160  1  6  0  0  0
 74 75  1  0  0  0  0
 74161  1  0  0  0  0
 74162  1  0  0  0  0
 75 77  1  0  0  0  0
 75 76  2  0  0  0  0
 77163  1  0  0  0  0
 77164  1  0  0  0  0
 78  5  1  0  0  0  0
 78 79  1  1  0  0  0
 78 83  1  0  0  0  0
 79 80  1  0  0  0  0
 79165  1  0  0  0  0
 79166  1  0  0  0  0
 80 82  2  0  0  0  0
 80 81  1  0  0  0  0
 81167  1  0  0  0  0
 81168  1  0  0  0  0
 83169  1  0  0  0  0
 83170  1  0  0  0  0
 83171  1  0  0  0  0
 84 85  1  6  0  0  0
 84 86  1  0  0  0  0
 85172  1  0  0  0  0
 85173  1  0  0  0  0
 85174  1  0  0  0  0
 86 87  1  0  0  0  0
 86175  1  0  0  0  0
 86176  1  0  0  0  0
 87 89  1  0  0  0  0
 87 88  2  0  0  0  0
 89177  1  0  0  0  0
 89178  1  0  0  0  0
 90 91  1  0  0  0  0
 90 92  2  0  0  0  0
 90 94  1  0  0  0  0
 93179  1  0  0  0  0
 93180  1  0  0  0  0
 93181  1  0  0  0  0
M  CHG  6   3   1  11   1  15   1  49   1  64  -3  94  -1
M  END
>  <DRUGBANK_ID>
DB00200

>  <SECONDARY_ACCESSION_NUMBERS>
APRD01022

>  <COMMON_NAME>
Hydroxocobalamin

>  <CAS_NUMBER>
13422-51-0

>  <UNII>
Q40X8H422O

>  <SYNONYMS>
Hydroxocobalamin; Hydroxocobalamin anhydrous; Hydroxocobalamine; Hydroxocobalaminum anhydrous; Hydroxycobalamin; OH-Cbl; Vitamin B-12b

$$$$
