
 OpenBabel10282417072D

 52 54  0  0  1  0  0  0  0  0999 V2000
    9.5655  -18.6756    0.0000 C   0  0  0  0  0  0  0  0  0  0  0  0
    9.5655  -17.8474    0.0000 C   0  0  0  0  0  0  0  0  0  0  0  0
   10.2695  -17.4333    0.0000 C   0  0  0  0  0  0  0  0  0  0  0  0
   11.0148  -17.8474    0.0000 C   0  0  0  0  0  0  0  0  0  0  0  0
   11.0148  -18.6756    0.0000 C   0  0  0  0  0  0  0  0  0  0  0  0
   10.2695  -19.0897    0.0000 C   0  0  0  0  0  0  0  0  0  0  0  0
   11.7188  -19.0897    0.0000 C   0  0  2  0  0  0  0  0  0  0  0  0
   12.4227  -18.6756    0.0000 C   0  0  0  0  0  0  0  0  0  0  0  0
   13.1268  -19.0897    0.0000 N   0  0  0  0  0  0  0  0  0  0  0  0
   13.8306  -18.6756    0.0000 C   0  0  0  0  0  0  0  0  0  0  0  0
   14.5346  -19.0897    0.0000 C   0  0  0  0  0  0  0  0  0  0  0  0
   15.2386  -18.6756    0.0000 C   0  0  0  0  0  0  0  0  0  0  0  0
   15.2386  -17.8474    0.0000 C   0  0  0  0  0  0  0  0  0  0  0  0
   15.9840  -17.4333    0.0000 C   0  0  0  0  0  0  0  0  0  0  0  0
   16.6879  -17.8474    0.0000 C   0  0  0  0  0  0  0  0  0  0  0  0
   16.6879  -18.6756    0.0000 C   0  0  0  0  0  0  0  0  0  0  0  0
   15.9840  -19.0897    0.0000 C   0  0  0  0  0  0  0  0  0  0  0  0
   17.3919  -17.4333    0.0000 N   0  0  0  0  0  0  0  0  0  0  0  0
   18.0958  -17.8474    0.0000 C   0  0  0  0  0  0  0  0  0  0  0  0
   18.0958  -18.6756    0.0000 O   0  0  0  0  0  0  0  0  0  0  0  0
   11.7188  -19.9178    0.0000 O   0  0  0  0  0  0  0  0  0  0  0  0
   18.8148  -17.4362    0.0000 C   0  0  0  0  0  0  0  0  0  0  0  0
   19.5177  -17.8461    0.0000 C   0  0  0  0  0  0  0  0  0  0  0  0
   19.7666  -18.6327    0.0000 C   0  0  0  0  0  0  0  0  0  0  0  0
   20.5946  -18.6395    0.0000 S   0  0  0  0  0  0  0  0  0  0  0  0
   20.8570  -17.8542    0.0000 C   0  0  0  0  0  0  0  0  0  0  0  0
   20.1911  -17.3620    0.0000 N   0  0  0  0  0  0  0  0  0  0  0  0
   21.6607  -17.6003    0.0000 N   0  0  0  0  0  0  0  0  0  0  0  0
    8.6697  -19.1880    0.0000 H   0  0  0  0  0  0  0  0  0  0  0  0
    8.6697  -17.3350    0.0000 H   0  0  0  0  0  0  0  0  0  0  0  0
   10.2568  -16.4014    0.0000 H   0  0  0  0  0  0  0  0  0  0  0  0
   11.9043  -17.3241    0.0000 H   0  0  0  0  0  0  0  0  0  0  0  0
   10.2568  -20.1216    0.0000 H   0  0  0  0  0  0  0  0  0  0  0  0
   10.7900  -19.6209    0.0000 H   0  0  0  0  0  0  0  0  0  0  0  0
   12.4226  -17.6056    0.0000 H   0  0  0  0  0  0  0  0  0  0  0  0
   13.3515  -18.1443    0.0000 H   0  0  0  0  0  0  0  0  0  0  0  0
   13.1269  -20.1097    0.0000 H   0  0  0  0  0  0  0  0  0  0  0  0
   13.8305  -17.6056    0.0000 H   0  0  0  0  0  0  0  0  0  0  0  0
   14.7594  -18.1443    0.0000 H   0  0  0  0  0  0  0  0  0  0  0  0
   14.5346  -20.1597    0.0000 H   0  0  0  0  0  0  0  0  0  0  0  0
   15.4634  -19.6209    0.0000 H   0  0  0  0  0  0  0  0  0  0  0  0
   14.3492  -17.3240    0.0000 H   0  0  0  0  0  0  0  0  0  0  0  0
   15.9967  -16.4014    0.0000 H   0  0  0  0  0  0  0  0  0  0  0  0
   17.5837  -19.1879    0.0000 H   0  0  0  0  0  0  0  0  0  0  0  0
   15.9967  -20.1216    0.0000 H   0  0  0  0  0  0  0  0  0  0  0  0
   17.3919  -16.4488    0.0000 H   0  0  0  0  0  0  0  0  0  0  0  0
   10.8788  -20.4028    0.0000 H   0  0  0  0  0  0  0  0  0  0  0  0
   18.8193  -16.3662    0.0000 H   0  0  0  0  0  0  0  0  0  0  0  0
   19.7437  -16.9052    0.0000 H   0  0  0  0  0  0  0  0  0  0  0  0
   19.1534  -19.4628    0.0000 H   0  0  0  0  0  0  0  0  0  0  0  0
   22.3869  -18.2650    0.0000 H   0  0  0  0  0  0  0  0  0  0  0  0
   21.8732  -16.6390    0.0000 H   0  0  0  0  0  0  0  0  0  0  0  0
  1  2  2  0  0  0  0
  1  6  1  0  0  0  0
  1 29  1  0  0  0  0
  2  3  1  0  0  0  0
  2 30  1  0  0  0  0
  3  4  2  0  0  0  0
  3 31  1  0  0  0  0
  4  5  1  0  0  0  0
  4 32  1  0  0  0  0
  5  6  2  0  0  0  0
  5  7  1  0  0  0  0
  6 33  1  0  0  0  0
  7  8  1  0  0  0  0
  7 21  1  0  0  0  0
  7 34  1  1  0  0  0
  8  9  1  0  0  0  0
  8 35  1  0  0  0  0
  8 36  1  0  0  0  0
  9 10  1  0  0  0  0
  9 37  1  0  0  0  0
 10 11  1  0  0  0  0
 10 38  1  0  0  0  0
 10 39  1  0  0  0  0
 11 12  1  0  0  0  0
 11 40  1  0  0  0  0
 11 41  1  0  0  0  0
 12 13  2  0  0  0  0
 12 17  1  0  0  0  0
 13 14  1  0  0  0  0
 13 42  1  0  0  0  0
 14 15  2  0  0  0  0
 14 43  1  0  0  0  0
 15 16  1  0  0  0  0
 15 18  1  0  0  0  0
 16 17  2  0  0  0  0
 16 44  1  0  0  0  0
 17 45  1  0  0  0  0
 18 19  1  0  0  0  0
 18 46  1  0  0  0  0
 19 20  2  0  0  0  0
 19 22  1  0  0  0  0
 21 47  1  0  0  0  0
 22 23  1  0  0  0  0
 22 48  1  0  0  0  0
 22 49  1  0  0  0  0
 23 24  2  0  0  0  0
 23 27  1  0  0  0  0
 24 25  1  0  0  0  0
 24 50  1  0  0  0  0
 25 26  1  0  0  0  0
 26 27  2  0  0  0  0
 26 28  1  0  0  0  0
 28 51  1  0  0  0  0
 28 52  1  0  0  0  0
M  END
>  <DRUGBANK_ID>
DB08893

>  <SECONDARY_ACCESSION_NUMBERS>
DB05702

>  <COMMON_NAME>
Mirabegron

>  <CAS_NUMBER>
223673-61-8

>  <UNII>
MVR3JL3B2V

>  <SYNONYMS>
Mirabegron

$$$$
