
 OpenBabel10282417072D

 24 25  0  0  1  0  0  0  0  0999 V2000
    1.1908    0.4125    0.0000 C   0  0  0  0  0  0  0  0  0  0  0  0
    0.0638    2.3645    0.0000 C   0  0  0  0  0  0  0  0  0  0  0  0
    1.9053    0.8250    0.0000 C   0  0  1  0  0  0  0  0  0  0  0  0
    0.4763    0.8250    0.0000 C   0  0  2  0  0  0  0  0  0  0  0  0
    1.9053    1.6500    0.0000 C   0  0  2  0  0  0  0  0  0  0  0  0
    1.1908    2.0625    0.0000 C   0  0  1  0  0  0  0  0  0  0  0  0
    0.4763    1.6500    0.0000 C   0  0  1  0  0  0  0  0  0  0  0  0
   -0.7612    2.3645    0.0000 O   0  0  0  0  0  0  0  0  0  0  0  0
    2.6197    0.4125    0.0000 O   0  0  0  0  0  0  0  0  0  0  0  0
    2.6197    2.0625    0.0000 O   0  0  0  0  0  0  0  0  0  0  0  0
    1.1908    2.8875    0.0000 O   0  0  0  0  0  0  0  0  0  0  0  0
   -0.2382    1.2375    0.0000 O   0  0  0  0  0  0  0  0  0  0  0  0
    1.9053    0.0000    0.0000 H   0  0  0  0  0  0  0  0  0  0  0  0
    0.0638    0.1105    0.0000 H   0  0  0  0  0  0  0  0  0  0  0  0
    2.6197    1.2375    0.0000 H   0  0  0  0  0  0  0  0  0  0  0  0
    1.9053    2.4750    0.0000 H   0  0  0  0  0  0  0  0  0  0  0  0
    1.1908   -0.6575    0.0000 H   0  0  0  0  0  0  0  0  0  0  0  0
    0.2642   -0.1225    0.0000 H   0  0  0  0  0  0  0  0  0  0  0  0
    0.5988    3.2911    0.0000 H   0  0  0  0  0  0  0  0  0  0  0  0
   -0.4712    3.2911    0.0000 H   0  0  0  0  0  0  0  0  0  0  0  0
   -1.2462    3.2045    0.0000 H   0  0  0  0  0  0  0  0  0  0  0  0
    2.6197   -0.5575    0.0000 H   0  0  0  0  0  0  0  0  0  0  0  0
    3.4598    1.5775    0.0000 H   0  0  0  0  0  0  0  0  0  0  0  0
    2.0308    3.3725    0.0000 H   0  0  0  0  0  0  0  0  0  0  0  0
  1 17  1  0  0  0  0
  1 18  1  0  0  0  0
  2 19  1  0  0  0  0
  2 20  1  0  0  0  0
  3  1  1  0  0  0  0
  3  9  1  0  0  0  0
  3 13  1  6  0  0  0
  4  1  1  0  0  0  0
  4 14  1  6  0  0  0
  5  3  1  0  0  0  0
  5 10  1  0  0  0  0
  5 15  1  1  0  0  0
  6  5  1  0  0  0  0
  6 11  1  0  0  0  0
  6 16  1  6  0  0  0
  7  2  1  6  0  0  0
  7  4  1  0  0  0  0
  7  6  1  0  0  0  0
  8  2  1  0  0  0  0
  8 21  1  0  0  0  0
  9 22  1  0  0  0  0
 10 23  1  0  0  0  0
 11 24  1  0  0  0  0
 12  4  1  0  0  0  0
 12  7  1  0  0  0  0
M  END
>  <DRUGBANK_ID>
DB02394

>  <SECONDARY_ACCESSION_NUMBERS>
EXPT02443

>  <COMMON_NAME>
Oxiranpseudoglucose

$$$$
