451
 OpenBabel10282417072D

 57 59  0  0  0  0  0  0  0  0999 V2000
    2.7918   -0.3119    0.0000 C   0  0  0  0  0  0  0  0  0  0  0  0
    2.5936    0.4890    0.0000 C   0  0  0  0  0  0  0  0  0  0  0  0
    1.8010    0.7178    0.0000 C   0  0  0  0  0  0  0  0  0  0  0  0
    1.2065    0.1458    0.0000 C   0  0  0  0  0  0  0  0  0  0  0  0
    1.4046   -0.6551    0.0000 C   0  0  0  0  0  0  0  0  0  0  0  0
    2.1973   -0.8839    0.0000 C   0  0  0  0  0  0  0  0  0  0  0  0
    0.8102   -1.2271    0.0000 O   0  0  0  0  0  0  0  0  0  0  0  0
    1.0083   -2.0280    0.0000 C   0  0  0  0  0  0  0  0  0  0  0  0
    0.4139   -2.6000    0.0000 C   0  0  0  0  0  0  0  0  0  0  0  0
   -0.3788   -2.3712    0.0000 O   0  0  0  0  0  0  0  0  0  0  0  0
   -0.5769   -1.5703    0.0000 C   0  0  0  0  0  0  0  0  0  0  0  0
   -1.3696   -1.3415    0.0000 C   0  0  0  0  0  0  0  0  0  0  0  0
   -1.5677   -0.5407    0.0000 O   0  0  0  0  0  0  0  0  0  0  0  0
   -2.3604   -0.3119    0.0000 C   0  0  0  0  0  0  0  0  0  0  0  0
   -2.5585    0.4890    0.0000 C   0  0  0  0  0  0  0  0  0  0  0  0
   -1.9641    1.0610    0.0000 O   0  0  0  0  0  0  0  0  0  0  0  0
   -2.1622    1.8619    0.0000 C   0  0  0  0  0  0  0  0  0  0  0  0
   -1.5677    2.4339    0.0000 C   0  0  0  0  0  0  0  0  0  0  0  0
   -0.7751    2.2051    0.0000 O   0  0  0  0  0  0  0  0  0  0  0  0
   -0.5769    1.4042    0.0000 C   0  0  0  0  0  0  0  0  0  0  0  0
    0.2157    1.1754    0.0000 C   0  0  0  0  0  0  0  0  0  0  0  0
    0.4139    0.3746    0.0000 O   0  0  0  0  0  0  0  0  0  0  0  0
   -2.9548   -0.8839    0.0000 C   0  0  0  0  0  0  0  0  0  0  0  0
   -3.7475   -0.6551    0.0000 C   0  0  0  0  0  0  0  0  0  0  0  0
   -3.9456    0.1458    0.0000 C   0  0  0  0  0  0  0  0  0  0  0  0
   -3.3512    0.7178    0.0000 C   0  0  0  0  0  0  0  0  0  0  0  0
    3.1881    1.0610    0.0000 N   0  0  0  0  0  0  0  0  0  0  0  0
    3.9807    0.8322    0.0000 C   0  0  0  0  0  0  0  0  0  0  0  0
    4.5752    1.4042    0.0000 O   0  0  0  0  0  0  0  0  0  0  0  0
    4.1789    0.0314    0.0000 C   0  0  0  0  0  0  0  0  0  0  0  0
    3.7833   -0.5981    0.0000 H   0  0  0  0  0  0  0  0  0  0  0  0
    1.5531    1.7196    0.0000 H   0  0  0  0  0  0  0  0  0  0  0  0
    2.4452   -1.8857    0.0000 H   0  0  0  0  0  0  0  0  0  0  0  0
    2.0363   -2.3248    0.0000 H   0  0  0  0  0  0  0  0  0  0  0  0
    1.2653   -3.0667    0.0000 H   0  0  0  0  0  0  0  0  0  0  0  0
    0.6709   -3.6387    0.0000 H   0  0  0  0  0  0  0  0  0  0  0  0
   -0.3571   -3.3419    0.0000 H   0  0  0  0  0  0  0  0  0  0  0  0
    0.1941   -0.8284    0.0000 H   0  0  0  0  0  0  0  0  0  0  0  0
   -0.8339   -0.5316    0.0000 H   0  0  0  0  0  0  0  0  0  0  0  0
   -2.1406   -2.0834    0.0000 H   0  0  0  0  0  0  0  0  0  0  0  0
   -2.3976   -1.0447    0.0000 H   0  0  0  0  0  0  0  0  0  0  0  0
   -3.1902    2.1587    0.0000 H   0  0  0  0  0  0  0  0  0  0  0  0
   -2.4191    2.9006    0.0000 H   0  0  0  0  0  0  0  0  0  0  0  0
   -1.8247    3.4726    0.0000 H   0  0  0  0  0  0  0  0  0  0  0  0
   -0.7967    3.1758    0.0000 H   0  0  0  0  0  0  0  0  0  0  0  0
   -1.3479    0.6623    0.0000 H   0  0  0  0  0  0  0  0  0  0  0  0
   -0.3199    0.3655    0.0000 H   0  0  0  0  0  0  0  0  0  0  0  0
    0.9867    1.9173    0.0000 H   0  0  0  0  0  0  0  0  0  0  0  0
    1.2437    0.8787    0.0000 H   0  0  0  0  0  0  0  0  0  0  0  0
   -2.7069   -1.8857    0.0000 H   0  0  0  0  0  0  0  0  0  0  0  0
   -4.4912   -1.3706    0.0000 H   0  0  0  0  0  0  0  0  0  0  0  0
   -4.9371    0.4321    0.0000 H   0  0  0  0  0  0  0  0  0  0  0  0
   -3.5991    1.7196    0.0000 H   0  0  0  0  0  0  0  0  0  0  0  0
    2.9517    2.0167    0.0000 H   0  0  0  0  0  0  0  0  0  0  0  0
    3.4079   -0.7106    0.0000 H   0  0  0  0  0  0  0  0  0  0  0  0
    5.2069   -0.2653    0.0000 H   0  0  0  0  0  0  0  0  0  0  0  0
    4.4360   -1.0073    0.0000 H   0  0  0  0  0  0  0  0  0  0  0  0
  1  6  1  0  0  0  0
  1 31  1  0  0  0  0
  2  1  2  0  0  0  0
  2  3  1  0  0  0  0
  3  4  2  0  0  0  0
  3 32  1  0  0  0  0
  4  5  1  0  0  0  0
  4 22  1  0  0  0  0
  5  7  1  0  0  0  0
  6  5  2  0  0  0  0
  6 33  1  0  0  0  0
  8  7  1  0  0  0  0
  8  9  1  0  0  0  0
  8 34  1  0  0  0  0
  8 35  1  0  0  0  0
  9 10  1  0  0  0  0
  9 36  1  0  0  0  0
  9 37  1  0  0  0  0
 10 11  1  0  0  0  0
 11 12  1  0  0  0  0
 11 38  1  0  0  0  0
 11 39  1  0  0  0  0
 12 40  1  0  0  0  0
 12 41  1  0  0  0  0
 13 12  1  0  0  0  0
 13 14  1  0  0  0  0
 14 23  1  0  0  0  0
 15 14  2  0  0  0  0
 15 26  1  0  0  0  0
 16 15  1  0  0  0  0
 16 17  1  0  0  0  0
 17 18  1  0  0  0  0
 17 42  1  0  0  0  0
 17 43  1  0  0  0  0
 18 44  1  0  0  0  0
 18 45  1  0  0  0  0
 19 18  1  0  0  0  0
 20 19  1  0  0  0  0
 20 46  1  0  0  0  0
 20 47  1  0  0  0  0
 21 20  1  0  0  0  0
 21 48  1  0  0  0  0
 21 49  1  0  0  0  0
 22 21  1  0  0  0  0
 23 24  2  0  0  0  0
 23 50  1  0  0  0  0
 24 51  1  0  0  0  0
 25 24  1  0  0  0  0
 25 52  1  0  0  0  0
 26 25  2  0  0  0  0
 26 53  1  0  0  0  0
 27  2  1  0  0  0  0
 27 28  1  0  0  0  0
 27 54  1  0  0  0  0
 28 29  2  0  0  0  0
 30 28  1  0  0  0  0
 30 55  1  0  0  0  0
 30 56  1  0  0  0  0
 30 57  1  0  0  0  0
M  END
>  <DRUGBANK_ID>
DB07084

>  <COMMON_NAME>
N-(6,7,9,10,17,18,20,21-octahydrodibenzo[b,k][1,4,7,10,13,16]hexaoxacyclooctadecin-2-yl)acetamide

$$$$
