L18
 OpenBabel10282417072D

 48 49  0  0  0  0  0  0  0  0999 V2000
  -15.4861  -16.2460    0.0000 C   0  0  1  0  0  0  0  0  0  0  0  0
  -15.4861  -15.4210    0.0000 C   0  0  0  0  0  0  0  0  0  0  0  0
  -16.2005  -16.6585    0.0000 C   0  0  0  0  0  0  0  0  0  0  0  0
  -16.9150  -16.2460    0.0000 C   0  0  1  0  0  0  0  0  0  0  0  0
  -16.9150  -15.4210    0.0000 C   0  0  0  0  0  0  0  0  0  0  0  0
  -17.6295  -17.4835    0.0000 C   0  0  0  0  0  0  0  0  0  0  0  0
  -18.3439  -17.8960    0.0000 C   0  0  0  0  0  0  0  0  0  0  0  0
  -19.0584  -17.4835    0.0000 C   0  0  0  0  0  0  0  0  0  0  0  0
  -19.0584  -16.6585    0.0000 C   0  0  0  0  0  0  0  0  0  0  0  0
  -18.3439  -16.2460    0.0000 C   0  0  0  0  0  0  0  0  0  0  0  0
  -17.6295  -16.6585    0.0000 C   0  0  0  0  0  0  0  0  0  0  0  0
  -13.3426  -15.0085    0.0000 C   0  0  0  0  0  0  0  0  0  0  0  0
  -12.6282  -15.4210    0.0000 C   0  0  0  0  0  0  0  0  0  0  0  0
  -12.6282  -16.2460    0.0000 C   0  0  0  0  0  0  0  0  0  0  0  0
  -13.3426  -16.6585    0.0000 C   0  0  0  0  0  0  0  0  0  0  0  0
  -14.0571  -16.2460    0.0000 C   0  0  1  0  0  0  0  0  0  0  0  0
  -14.7716  -16.6585    0.0000 C   0  0  0  0  0  0  0  0  0  0  0  0
  -14.7716  -15.0085    0.0000 C   0  0  0  0  0  0  0  0  0  0  0  0
  -14.0571  -15.4210    0.0000 N   0  0  0  0  0  0  0  0  0  0  0  0
  -15.9918  -15.9541    0.0000 H   0  0  0  0  0  0  0  0  0  0  0  0
  -16.4093  -15.9541    0.0000 H   0  0  0  0  0  0  0  0  0  0  0  0
  -14.0571  -16.8300    0.0000 H   0  0  0  0  0  0  0  0  0  0  0  0
  -14.5595  -14.8860    0.0000 H   0  0  0  0  0  0  0  0  0  0  0  0
  -16.4127  -14.8860    0.0000 H   0  0  0  0  0  0  0  0  0  0  0  0
  -15.4861  -14.3510    0.0000 H   0  0  0  0  0  0  0  0  0  0  0  0
  -16.2005  -17.7285    0.0000 H   0  0  0  0  0  0  0  0  0  0  0  0
  -17.1271  -17.1935    0.0000 H   0  0  0  0  0  0  0  0  0  0  0  0
  -15.9884  -14.8860    0.0000 H   0  0  0  0  0  0  0  0  0  0  0  0
  -17.8416  -14.8860    0.0000 H   0  0  0  0  0  0  0  0  0  0  0  0
  -16.9150  -14.3510    0.0000 H   0  0  0  0  0  0  0  0  0  0  0  0
  -16.7358  -17.9995    0.0000 H   0  0  0  0  0  0  0  0  0  0  0  0
  -18.3439  -18.9280    0.0000 H   0  0  0  0  0  0  0  0  0  0  0  0
  -19.9521  -17.9995    0.0000 H   0  0  0  0  0  0  0  0  0  0  0  0
  -19.9521  -16.1425    0.0000 H   0  0  0  0  0  0  0  0  0  0  0  0
  -18.3439  -15.2140    0.0000 H   0  0  0  0  0  0  0  0  0  0  0  0
  -13.3426  -13.9385    0.0000 H   0  0  0  0  0  0  0  0  0  0  0  0
  -14.2692  -14.4735    0.0000 H   0  0  0  0  0  0  0  0  0  0  0  0
  -11.7015  -14.8860    0.0000 H   0  0  0  0  0  0  0  0  0  0  0  0
  -11.7016  -15.9560    0.0000 H   0  0  0  0  0  0  0  0  0  0  0  0
  -11.7015  -16.7810    0.0000 H   0  0  0  0  0  0  0  0  0  0  0  0
  -12.6282  -17.3160    0.0000 H   0  0  0  0  0  0  0  0  0  0  0  0
  -13.3426  -17.7285    0.0000 H   0  0  0  0  0  0  0  0  0  0  0  0
  -14.2692  -17.1935    0.0000 H   0  0  0  0  0  0  0  0  0  0  0  0
  -14.7716  -17.7285    0.0000 H   0  0  0  0  0  0  0  0  0  0  0  0
  -13.8450  -17.1935    0.0000 H   0  0  0  0  0  0  0  0  0  0  0  0
  -14.7716  -13.9385    0.0000 H   0  0  0  0  0  0  0  0  0  0  0  0
  -15.6982  -15.5435    0.0000 H   0  0  0  0  0  0  0  0  0  0  0  0
  -15.6983  -14.4735    0.0000 H   0  0  0  0  0  0  0  0  0  0  0  0
  1  2  1  0  0  0  0
  1  3  1  0  0  0  0
  1 17  1  0  0  0  0
  1 20  1  1  0  0  0
  2 23  1  0  0  0  0
  2 24  1  0  0  0  0
  2 25  1  0  0  0  0
  3  4  1  0  0  0  0
  3 26  1  0  0  0  0
  3 27  1  0  0  0  0
  4  5  1  0  0  0  0
  4 11  1  0  0  0  0
  4 21  1  1  0  0  0
  5 28  1  0  0  0  0
  5 29  1  0  0  0  0
  5 30  1  0  0  0  0
  6  7  2  0  0  0  0
  6 11  1  0  0  0  0
  6 31  1  0  0  0  0
  7  8  1  0  0  0  0
  7 32  1  0  0  0  0
  8  9  2  0  0  0  0
  8 33  1  0  0  0  0
  9 10  1  0  0  0  0
  9 34  1  0  0  0  0
 10 11  2  0  0  0  0
 10 35  1  0  0  0  0
 12 13  1  0  0  0  0
 12 19  1  0  0  0  0
 12 36  1  0  0  0  0
 12 37  1  0  0  0  0
 13 14  1  0  0  0  0
 13 38  1  0  0  0  0
 13 39  1  0  0  0  0
 14 15  1  0  0  0  0
 14 40  1  0  0  0  0
 14 41  1  0  0  0  0
 15 16  1  0  0  0  0
 15 42  1  0  0  0  0
 15 43  1  0  0  0  0
 16 17  1  0  0  0  0
 16 19  1  0  0  0  0
 16 22  1  6  0  0  0
 17 44  1  0  0  0  0
 17 45  1  0  0  0  0
 18 19  1  0  0  0  0
 18 46  1  0  0  0  0
 18 47  1  0  0  0  0
 18 48  1  0  0  0  0
M  END
>  <DRUGBANK_ID>
DB08071

>  <COMMON_NAME>
(2S)-1-methyl-2-[(2S,4R)-2-methyl-4-phenylpentyl]piperidine

$$$$
