[NO NAME]
 OpenBabel10282417072D
Created with ChemWriter - http://chemwriter.com
 57 59  0  0  0  0  0  0  0  0999 V2000
    3.7934   -1.9841    0.0000 O   0  0  0  0  0  0  0  0  0  0  0  0
    5.9369   -0.7466    0.0000 O   0  0  0  0  0  0  0  0  0  0  0  0
    7.3658   -0.7466    0.0000 O   0  0  0  0  0  0  0  0  0  0  0  0
    5.2223    0.4909    0.0000 N   0  0  0  0  0  0  0  0  0  0  0  0
    7.3658    1.7284    0.0000 N   0  0  0  0  0  0  0  0  0  0  0  0
    3.7934    1.3159    0.0000 C   0  0  0  0  0  0  0  0  0  0  0  0
    2.3644   -1.1591    0.0000 C   0  0  0  0  0  0  0  0  0  0  0  0
    3.7934    0.4909    0.0000 C   0  0  0  0  0  0  0  0  0  0  0  0
    3.0790   -0.7466    0.0000 C   0  0  0  0  0  0  0  0  0  0  0  0
    3.0790    0.0784    0.0000 C   0  0  0  0  0  0  0  0  0  0  0  0
    4.5079    0.0784    0.0000 C   0  0  0  0  0  0  0  0  0  0  0  0
    3.7934    2.1409    0.0000 C   0  0  0  0  0  0  0  0  0  0  0  0
    2.9684    1.3159    0.0000 C   0  0  0  0  0  0  0  0  0  0  0  0
    4.6184    1.3159    0.0000 C   0  0  0  0  0  0  0  0  0  0  0  0
    3.7934   -1.1591    0.0000 C   0  0  0  0  0  0  0  0  0  0  0  0
    1.6500   -1.5716    0.0000 C   0  0  0  0  0  0  0  0  0  0  0  0
    1.9520   -0.4447    0.0000 C   0  0  0  0  0  0  0  0  0  0  0  0
    2.7770   -1.8736    0.0000 C   0  0  0  0  0  0  0  0  0  0  0  0
    4.5079   -0.7466    0.0000 C   0  0  0  0  0  0  0  0  0  0  0  0
    5.9369    0.0784    0.0000 C   0  0  0  0  0  0  0  0  0  0  0  0
    6.6513    0.4909    0.0000 C   0  0  0  0  0  0  0  0  0  0  0  0
    7.3658    0.0784    0.0000 C   0  0  0  0  0  0  0  0  0  0  0  0
    8.0802    0.4909    0.0000 C   0  0  0  0  0  0  0  0  0  0  0  0
    6.6513    1.3159    0.0000 C   0  0  0  0  0  0  0  0  0  0  0  0
    8.0802    1.3159    0.0000 C   0  0  0  0  0  0  0  0  0  0  0  0
    8.8178    0.0497    0.0000 C   0  0  0  0  0  0  0  0  0  0  0  0
    8.8178    1.7570    0.0000 C   0  0  0  0  0  0  0  0  0  0  0  0
    9.5652    0.4737    0.0000 C   0  0  0  0  0  0  0  0  0  0  0  0
    9.5652    1.3330    0.0000 C   0  0  0  0  0  0  0  0  0  0  0  0
    2.9819   -2.4526    0.0000 H   0  0  0  0  0  0  0  0  0  0  0  0
    5.2222    1.4754    0.0000 H   0  0  0  0  0  0  0  0  0  0  0  0
    7.3658    2.7129    0.0000 H   0  0  0  0  0  0  0  0  0  0  0  0
    2.1853    0.5944    0.0000 H   0  0  0  0  0  0  0  0  0  0  0  0
    4.7200    2.6759    0.0000 H   0  0  0  0  0  0  0  0  0  0  0  0
    2.8668    2.6759    0.0000 H   0  0  0  0  0  0  0  0  0  0  0  0
    3.7934    3.2109    0.0000 H   0  0  0  0  0  0  0  0  0  0  0  0
    2.4334    2.2425    0.0000 H   0  0  0  0  0  0  0  0  0  0  0  0
    2.4334    0.3893    0.0000 H   0  0  0  0  0  0  0  0  0  0  0  0
    1.8984    1.3159    0.0000 H   0  0  0  0  0  0  0  0  0  0  0  0
    5.1534    0.3893    0.0000 H   0  0  0  0  0  0  0  0  0  0  0  0
    5.1534    2.2425    0.0000 H   0  0  0  0  0  0  0  0  0  0  0  0
    5.6884    1.3159    0.0000 H   0  0  0  0  0  0  0  0  0  0  0  0
    0.7233   -1.0366    0.0000 H   0  0  0  0  0  0  0  0  0  0  0  0
    1.6500   -2.6416    0.0000 H   0  0  0  0  0  0  0  0  0  0  0  0
    0.7234   -2.1066    0.0000 H   0  0  0  0  0  0  0  0  0  0  0  0
    2.4871    0.4819    0.0000 H   0  0  0  0  0  0  0  0  0  0  0  0
    0.8820   -0.4446    0.0000 H   0  0  0  0  0  0  0  0  0  0  0  0
    1.4171    0.4820    0.0000 H   0  0  0  0  0  0  0  0  0  0  0  0
    2.2421   -2.8003    0.0000 H   0  0  0  0  0  0  0  0  0  0  0  0
    3.8470   -1.8735    0.0000 H   0  0  0  0  0  0  0  0  0  0  0  0
    3.3121   -2.8002    0.0000 H   0  0  0  0  0  0  0  0  0  0  0  0
    5.4016   -1.2626    0.0000 H   0  0  0  0  0  0  0  0  0  0  0  0
    5.7576    1.8319    0.0000 H   0  0  0  0  0  0  0  0  0  0  0  0
    8.8059   -0.9822    0.0000 H   0  0  0  0  0  0  0  0  0  0  0  0
    8.8060    2.7889    0.0000 H   0  0  0  0  0  0  0  0  0  0  0  0
   10.4570   -0.0457    0.0000 H   0  0  0  0  0  0  0  0  0  0  0  0
   10.4570    1.8524    0.0000 H   0  0  0  0  0  0  0  0  0  0  0  0
  1 15  1  0  0  0  0
  1 30  1  0  0  0  0
  2 20  2  0  0  0  0
  3 22  2  0  0  0  0
  4 11  1  0  0  0  0
  4 20  1  0  0  0  0
  4 31  1  0  0  0  0
  5 24  1  0  0  0  0
  5 25  1  0  0  0  0
  5 32  1  0  0  0  0
  6  8  1  0  0  0  0
  6 12  1  0  0  0  0
  6 13  1  0  0  0  0
  6 14  1  0  0  0  0
  7  9  1  0  0  0  0
  7 16  1  0  0  0  0
  7 17  1  0  0  0  0
  7 18  1  0  0  0  0
  8 10  2  0  0  0  0
  8 11  1  0  0  0  0
  9 10  1  0  0  0  0
  9 15  2  0  0  0  0
 10 33  1  0  0  0  0
 11 19  2  0  0  0  0
 12 34  1  0  0  0  0
 12 35  1  0  0  0  0
 12 36  1  0  0  0  0
 13 37  1  0  0  0  0
 13 38  1  0  0  0  0
 13 39  1  0  0  0  0
 14 40  1  0  0  0  0
 14 41  1  0  0  0  0
 14 42  1  0  0  0  0
 15 19  1  0  0  0  0
 16 43  1  0  0  0  0
 16 44  1  0  0  0  0
 16 45  1  0  0  0  0
 17 46  1  0  0  0  0
 17 47  1  0  0  0  0
 17 48  1  0  0  0  0
 18 49  1  0  0  0  0
 18 50  1  0  0  0  0
 18 51  1  0  0  0  0
 19 52  1  0  0  0  0
 20 21  1  0  0  0  0
 21 22  1  0  0  0  0
 21 24  2  0  0  0  0
 22 23  1  0  0  0  0
 23 25  1  0  0  0  0
 23 26  2  0  0  0  0
 24 53  1  0  0  0  0
 25 27  2  0  0  0  0
 26 28  1  0  0  0  0
 26 54  1  0  0  0  0
 27 29  1  0  0  0  0
 27 55  1  0  0  0  0
 28 29  2  0  0  0  0
 28 56  1  0  0  0  0
 29 57  1  0  0  0  0
M  END
>  <DRUGBANK_ID>
DB08820

>  <SECONDARY_ACCESSION_NUMBERS>
DB05989

>  <COMMON_NAME>
Ivacaftor

>  <CAS_NUMBER>
873054-44-5

>  <UNII>
1Y740ILL1Z

>  <SYNONYMS>
Ivacaftor; Ivacaftorum; N-(2,4-di-tert-butyl-5-hydroxyphenyl)-4-oxo-1,4-dihydroquinoline-3-carboxamide

$$$$
