
 OpenBabel10282417072D

 57 59  0  0  0  0  0  0  0  0999 V2000
   -3.0214    0.3046    0.0000 N   0  0  0  0  0  0  0  0  0  0  0  0
   -3.8352    0.4799    0.0000 C   0  0  0  0  0  0  0  0  0  0  0  0
   -2.9338   -0.5174    0.0000 C   0  0  0  0  0  0  0  0  0  0  0  0
   -3.6892   -0.8472    0.0000 S   0  0  0  0  0  0  0  0  0  0  0  0
   -4.2484   -0.2337    0.0000 C   0  0  0  0  0  0  0  0  0  0  0  0
    3.5014   -0.9098    0.0000 C   0  0  0  0  0  0  0  0  0  0  0  0
    4.2150   -0.4966    0.0000 C   0  0  0  0  0  0  0  0  0  0  0  0
    2.0741   -0.9180    0.0000 C   0  0  0  0  0  0  0  0  0  0  0  0
   -2.2201   -0.9306    0.0000 C   0  0  0  0  0  0  0  0  0  0  0  0
    1.3563   -0.5091    0.0000 N   0  0  0  0  0  0  0  0  0  0  0  0
    2.7878   -0.5049    0.0000 C   0  0  0  0  0  0  0  0  0  0  0  0
   -1.5065   -0.5174    0.0000 C   0  0  0  0  0  0  0  0  0  0  0  0
    4.2150    0.3297    0.0000 O   0  0  0  0  0  0  0  0  0  0  0  0
    2.0741   -1.7444    0.0000 O   0  0  0  0  0  0  0  0  0  0  0  0
    0.6427   -0.9223    0.0000 C   0  0  0  0  0  0  0  0  0  0  0  0
   -4.1650    1.2310    0.0000 C   0  0  0  0  0  0  0  0  0  0  0  0
   -0.7929   -0.9306    0.0000 C   0  0  0  0  0  0  0  0  0  0  0  0
   -0.0792   -0.5091    0.0000 C   0  0  0  0  0  0  0  0  0  0  0  0
    4.9370   -0.9098    0.0000 O   0  0  0  0  0  0  0  0  0  0  0  0
    4.0899   -1.4982    0.0000 C   0  0  0  0  0  0  0  0  0  0  0  0
    2.9129   -1.4982    0.0000 C   0  0  0  0  0  0  0  0  0  0  0  0
   -0.0792   -2.1701    0.0000 C   0  0  0  0  0  0  0  0  0  0  0  0
   -4.6407    2.2953    0.0000 C   0  0  0  0  0  0  0  0  0  0  0  0
    0.6427   -1.7570    0.0000 C   0  0  0  0  0  0  0  0  0  0  0  0
   -3.8729    1.9990    0.0000 C   0  0  0  0  0  0  0  0  0  0  0  0
   -4.9370    1.5233    0.0000 C   0  0  0  0  0  0  0  0  0  0  0  0
   -0.7929   -1.7570    0.0000 C   0  0  0  0  0  0  0  0  0  0  0  0
    3.8770   -2.2953    0.0000 C   0  0  0  0  0  0  0  0  0  0  0  0
    3.1259   -2.2953    0.0000 C   0  0  0  0  0  0  0  0  0  0  0  0
   -5.2745   -0.3440    0.0000 H   0  0  0  0  0  0  0  0  0  0  0  0
   -2.2201   -1.9626    0.0000 H   0  0  0  0  0  0  0  0  0  0  0  0
    1.3528    0.4754    0.0000 H   0  0  0  0  0  0  0  0  0  0  0  0
    2.7832    0.5651    0.0000 H   0  0  0  0  0  0  0  0  0  0  0  0
    1.8597    0.0276    0.0000 H   0  0  0  0  0  0  0  0  0  0  0  0
   -1.5065    0.5146    0.0000 H   0  0  0  0  0  0  0  0  0  0  0  0
   -4.6039    2.2068    0.0000 H   0  0  0  0  0  0  0  0  0  0  0  0
   -0.0862    0.5229    0.0000 H   0  0  0  0  0  0  0  0  0  0  0  0
    4.9406   -1.8468    0.0000 H   0  0  0  0  0  0  0  0  0  0  0  0
    5.1233   -1.2208    0.0000 H   0  0  0  0  0  0  0  0  0  0  0  0
    4.8470   -2.2543    0.0000 H   0  0  0  0  0  0  0  0  0  0  0  0
    1.8795   -1.2209    0.0000 H   0  0  0  0  0  0  0  0  0  0  0  0
    2.1559   -2.2544    0.0000 H   0  0  0  0  0  0  0  0  0  0  0  0
   -0.0817   -3.2021    0.0000 H   0  0  0  0  0  0  0  0  0  0  0  0
   -5.0751    3.2732    0.0000 H   0  0  0  0  0  0  0  0  0  0  0  0
   -3.9031    3.0705    0.0000 H   0  0  0  0  0  0  0  0  0  0  0  0
    1.5354   -2.2747    0.0000 H   0  0  0  0  0  0  0  0  0  0  0  0
   -2.8957    2.4348    0.0000 H   0  0  0  0  0  0  0  0  0  0  0  0
   -3.9003    3.0686    0.0000 H   0  0  0  0  0  0  0  0  0  0  0  0
   -5.9135    1.0858    0.0000 H   0  0  0  0  0  0  0  0  0  0  0  0
   -4.9053    0.4538    0.0000 H   0  0  0  0  0  0  0  0  0  0  0  0
   -1.6869   -2.2725    0.0000 H   0  0  0  0  0  0  0  0  0  0  0  0
    2.8437   -2.5731    0.0000 H   0  0  0  0  0  0  0  0  0  0  0  0
    4.6342   -3.0513    0.0000 H   0  0  0  0  0  0  0  0  0  0  0  0
    3.6009   -3.3291    0.0000 H   0  0  0  0  0  0  0  0  0  0  0  0
    2.3688   -3.0514    0.0000 H   0  0  0  0  0  0  0  0  0  0  0  0
    4.1593   -2.5729    0.0000 H   0  0  0  0  0  0  0  0  0  0  0  0
    3.4021   -3.3290    0.0000 H   0  0  0  0  0  0  0  0  0  0  0  0
  2  1  1  0  0  0  0
  3  1  2  0  0  0  0
  4  3  1  0  0  0  0
  5  2  2  0  0  0  0
  5  4  1  0  0  0  0
  5 30  1  0  0  0  0
  6 11  1  0  0  0  0
  7  6  1  0  0  0  0
  8 10  1  0  0  0  0
  9  3  1  0  0  0  0
  9 31  1  0  0  0  0
 10 15  1  0  0  0  0
 10 32  1  0  0  0  0
 11  8  1  0  0  0  0
 11 33  1  0  0  0  0
 11 34  1  0  0  0  0
 12  9  2  0  0  0  0
 12 35  1  0  0  0  0
 13  7  2  0  0  0  0
 14  8  2  0  0  0  0
 15 18  2  0  0  0  0
 16  2  1  0  0  0  0
 16 36  1  0  0  0  0
 17 12  1  0  0  0  0
 18 17  1  0  0  0  0
 18 37  1  0  0  0  0
 19  7  1  0  0  0  0
 19 38  1  0  0  0  0
 20  6  1  0  0  0  0
 20 39  1  0  0  0  0
 20 40  1  0  0  0  0
 21  6  1  0  0  0  0
 21 41  1  0  0  0  0
 21 42  1  0  0  0  0
 22 27  1  0  0  0  0
 22 43  1  0  0  0  0
 23 26  1  0  0  0  0
 23 44  1  0  0  0  0
 23 45  1  0  0  0  0
 24 22  2  0  0  0  0
 24 15  1  0  0  0  0
 24 46  1  0  0  0  0
 25 16  1  0  0  0  0
 25 23  1  0  0  0  0
 25 47  1  0  0  0  0
 25 48  1  0  0  0  0
 26 16  1  0  0  0  0
 26 49  1  0  0  0  0
 26 50  1  0  0  0  0
 27 17  2  0  0  0  0
 27 51  1  0  0  0  0
 28 20  1  0  0  0  0
 28 52  1  0  0  0  0
 28 53  1  0  0  0  0
 28 54  1  0  0  0  0
 29 21  1  0  0  0  0
 29 55  1  0  0  0  0
 29 56  1  0  0  0  0
 29 57  1  0  0  0  0
M  END
>  <DRUGBANK_ID>
DB00587

>  <SECONDARY_ACCESSION_NUMBERS>
APRD00637

>  <COMMON_NAME>
Cinalukast

>  <CAS_NUMBER>
128312-51-6

>  <UNII>
5E1O433QAI

>  <SYNONYMS>
3'-((E)-2-(4-cyclobutyl-2-thiazolyl)vinyl)-2,2-diethylsuccinanilic acid; Cinalukast

$$$$
