359
 OpenBabel10282417072D

 27 28  0  0  0  0  0  0  0  0999 V2000
    2.4751    0.5404    0.0000 S   0  0  0  0  0  0  0  0  0  0  0  0
    1.6500    0.5404    0.0000 O   0  0  0  0  0  0  0  0  0  0  0  0
    3.3001    0.5404    0.0000 O   0  0  0  0  0  0  0  0  0  0  0  0
    2.4751    1.3654    0.0000 N   0  0  0  0  0  0  0  0  0  0  0  0
    2.4751   -2.7597    0.0000 N   0  0  0  0  0  0  0  0  0  0  0  0
    3.1895    2.6029    0.0000 N   0  0  0  0  0  0  0  0  0  0  0  0
    3.9041    1.3654    0.0000 N   0  0  0  0  0  0  0  0  0  0  0  0
    2.4751   -0.2846    0.0000 C   0  0  0  0  0  0  0  0  0  0  0  0
    1.7606   -0.6971    0.0000 C   0  0  0  0  0  0  0  0  0  0  0  0
    3.1895   -0.6971    0.0000 C   0  0  0  0  0  0  0  0  0  0  0  0
    2.4751   -1.9347    0.0000 C   0  0  0  0  0  0  0  0  0  0  0  0
    1.7606   -1.5222    0.0000 C   0  0  0  0  0  0  0  0  0  0  0  0
    3.1895   -1.5222    0.0000 C   0  0  0  0  0  0  0  0  0  0  0  0
    3.1895    1.7779    0.0000 C   0  0  0  0  0  0  0  0  0  0  0  0
    3.9041    3.0154    0.0000 C   0  0  0  0  0  0  0  0  0  0  0  0
    4.6185    1.7779    0.0000 C   0  0  0  0  0  0  0  0  0  0  0  0
    4.6185    2.6029    0.0000 C   0  0  0  0  0  0  0  0  0  0  0  0
    1.6225    1.8576    0.0000 H   0  0  0  0  0  0  0  0  0  0  0  0
    1.6225   -3.2520    0.0000 H   0  0  0  0  0  0  0  0  0  0  0  0
    3.3277   -3.2519    0.0000 H   0  0  0  0  0  0  0  0  0  0  0  0
    0.8669   -0.1811    0.0000 H   0  0  0  0  0  0  0  0  0  0  0  0
    4.0832   -0.1811    0.0000 H   0  0  0  0  0  0  0  0  0  0  0  0
    0.8669   -2.0382    0.0000 H   0  0  0  0  0  0  0  0  0  0  0  0
    4.0832   -2.0382    0.0000 H   0  0  0  0  0  0  0  0  0  0  0  0
    3.9042    4.0474    0.0000 H   0  0  0  0  0  0  0  0  0  0  0  0
    5.5122    1.2619    0.0000 H   0  0  0  0  0  0  0  0  0  0  0  0
    5.5122    3.1189    0.0000 H   0  0  0  0  0  0  0  0  0  0  0  0
  1  2  2  0  0  0  0
  1  3  2  0  0  0  0
  1  4  1  0  0  0  0
  1  8  1  0  0  0  0
  4 14  1  0  0  0  0
  4 18  1  0  0  0  0
  5 11  1  0  0  0  0
  5 19  1  0  0  0  0
  5 20  1  0  0  0  0
  6 14  1  0  0  0  0
  6 15  2  0  0  0  0
  7 14  2  0  0  0  0
  7 16  1  0  0  0  0
  8  9  2  0  0  0  0
  8 10  1  0  0  0  0
  9 12  1  0  0  0  0
  9 21  1  0  0  0  0
 10 13  2  0  0  0  0
 10 22  1  0  0  0  0
 11 12  2  0  0  0  0
 11 13  1  0  0  0  0
 12 23  1  0  0  0  0
 13 24  1  0  0  0  0
 15 17  1  0  0  0  0
 15 25  1  0  0  0  0
 16 17  2  0  0  0  0
 16 26  1  0  0  0  0
 17 27  1  0  0  0  0
M  END
>  <DRUGBANK_ID>
DB00359

>  <SECONDARY_ACCESSION_NUMBERS>
APRD00190

>  <COMMON_NAME>
Sulfadiazine

>  <CAS_NUMBER>
68-35-9

>  <UNII>
0N7609K889

>  <SYNONYMS>
2-sulfanilamidopyrimidine; 2-sulfanilylaminopyrimidine; 4-amino-N-2-pyrimidinylbenzenesulfonamide; N(1)-2-Pyrimidinylsulfanilamide; N(1)-2-Pyrimidylsulfanilamide; Sulfadiazin; Sulfadiazina; Sulfadiazine; Sulfadiazinum; Sulfapyrimidine; Sulphadiazine

$$$$
