
 OpenBabel10282417072D

 50 53  0  0  1  0  0  0  0  0999 V2000
    0.5242    0.0972    0.0000 C   0  0  2  0  0  0  0  0  0  0  0  0
    1.2724   -0.2502    0.0000 C   0  0  2  0  0  0  0  0  0  0  0  0
    2.0943   -0.3209    0.0000 N   0  0  1  0  0  0  0  0  0  0  0  0
    2.0290   -1.0802    0.0000 C   0  0  0  0  0  0  0  0  0  0  0  0
    1.2153   -0.9146    0.0000 C   0  0  0  0  0  0  0  0  0  0  0  0
    1.1499   -1.6739    0.0000 C   0  0  2  0  0  0  0  0  0  0  0  0
    1.9719   -1.7446    0.0000 C   0  0  2  0  0  0  0  0  0  0  0  0
    2.4441   -1.0682    0.0000 C   0  0  0  0  0  0  0  0  0  0  0  0
    2.3216   -2.4918    0.0000 C   0  0  0  0  0  0  0  0  0  0  0  0
    3.1436   -2.5625    0.0000 C   0  0  0  0  0  0  0  0  0  0  0  0
    0.8002   -0.9267    0.0000 C   0  0  0  0  0  0  0  0  0  0  0  0
    1.4847    0.5468    0.0000 H   0  0  0  0  0  0  0  0  0  0  0  0
    0.4511    0.9190    0.0000 C   0  0  0  0  0  0  0  0  0  0  0  0
    1.1262    1.3931    0.0000 C   0  0  0  0  0  0  0  0  0  0  0  0
    1.0531    2.2149    0.0000 C   0  0  0  0  0  0  0  0  0  0  0  0
    0.3049    2.5625    0.0000 N   0  0  0  0  0  0  0  0  0  0  0  0
   -0.3701    2.0883    0.0000 C   0  0  0  0  0  0  0  0  0  0  0  0
   -1.1183    2.4358    0.0000 C   0  0  0  0  0  0  0  0  0  0  0  0
   -1.7934    1.9617    0.0000 C   0  0  0  0  0  0  0  0  0  0  0  0
   -1.7203    1.1399    0.0000 C   0  0  0  0  0  0  0  0  0  0  0  0
   -2.3954    0.6658    0.0000 O   0  0  0  0  0  0  0  0  0  0  0  0
   -3.1436    1.0134    0.0000 C   0  0  0  0  0  0  0  0  0  0  0  0
   -0.9721    0.7924    0.0000 C   0  0  0  0  0  0  0  0  0  0  0  0
   -0.2970    1.2666    0.0000 C   0  0  0  0  0  0  0  0  0  0  0  0
   -0.1508   -0.3769    0.0000 O   0  0  0  0  0  0  0  0  0  0  0  0
    0.6191   -0.9686    0.0000 H   0  0  0  0  0  0  0  0  0  0  0  0
    2.6698   -1.9371    0.0000 H   0  0  0  0  0  0  0  0  0  0  0  0
    1.4564   -1.9841    0.0000 H   0  0  0  0  0  0  0  0  0  0  0  0
    0.5745   -0.0577    0.0000 H   0  0  0  0  0  0  0  0  0  0  0  0
    0.1864   -1.2083    0.0000 H   0  0  0  0  0  0  0  0  0  0  0  0
    1.9686   -0.9850    0.0000 H   0  0  0  0  0  0  0  0  0  0  0  0
    1.3594   -2.6220    0.0000 H   0  0  0  0  0  0  0  0  0  0  0  0
    3.5102   -1.1599    0.0000 H   0  0  0  0  0  0  0  0  0  0  0  0
    3.0566   -0.1908    0.0000 H   0  0  0  0  0  0  0  0  0  0  0  0
    1.7091   -3.3692    0.0000 H   0  0  0  0  0  0  0  0  0  0  0  0
    2.7752   -3.4609    0.0000 H   0  0  0  0  0  0  0  0  0  0  0  0
    3.5972   -3.5316    0.0000 H   0  0  0  0  0  0  0  0  0  0  0  0
    3.7560   -1.6851    0.0000 H   0  0  0  0  0  0  0  0  0  0  0  0
    4.2097   -2.6542    0.0000 H   0  0  0  0  0  0  0  0  0  0  0  0
   -0.2659   -0.8350    0.0000 H   0  0  0  0  0  0  0  0  0  0  0  0
    0.3466    0.0424    0.0000 H   0  0  0  0  0  0  0  0  0  0  0  0
    2.0621    0.9583    0.0000 H   0  0  0  0  0  0  0  0  0  0  0  0
    1.8976    2.8080    0.0000 H   0  0  0  0  0  0  0  0  0  0  0  0
   -1.2097    3.4637    0.0000 H   0  0  0  0  0  0  0  0  0  0  0  0
   -2.7293    2.3965    0.0000 H   0  0  0  0  0  0  0  0  0  0  0  0
   -3.2384    2.0792    0.0000 H   0  0  0  0  0  0  0  0  0  0  0  0
   -4.0192    0.3984    0.0000 H   0  0  0  0  0  0  0  0  0  0  0  0
   -4.1140    1.4642    0.0000 H   0  0  0  0  0  0  0  0  0  0  0  0
   -0.8806   -0.2355    0.0000 H   0  0  0  0  0  0  0  0  0  0  0  0
   -1.0305    0.0318    0.0000 H   0  0  0  0  0  0  0  0  0  0  0  0
  1  2  1  0  0  0  0
  1 13  1  0  0  0  0
  1 25  1  0  0  0  0
  1 26  1  6  0  0  0
  2  3  1  0  0  0  0
  2 11  1  0  0  0  0
  2 12  1  1  0  0  0
  3  4  1  1  0  0  0
  3  8  1  0  0  0  0
  4  5  1  0  0  0  0
  4 27  1  0  0  0  0
  4 28  1  0  0  0  0
  5 29  1  0  0  0  0
  5 30  1  0  0  0  0
  6  5  1  0  0  0  0
  6  7  1  0  0  0  0
  6 31  1  1  0  0  0
  7  9  1  0  0  0  0
  7 32  1  1  0  0  0
  8  7  1  0  0  0  0
  8 33  1  0  0  0  0
  8 34  1  0  0  0  0
  9 10  1  0  0  0  0
  9 35  1  0  0  0  0
  9 36  1  0  0  0  0
 10 37  1  0  0  0  0
 10 38  1  0  0  0  0
 10 39  1  0  0  0  0
 11  6  1  0  0  0  0
 11 40  1  0  0  0  0
 11 41  1  0  0  0  0
 13 14  2  0  0  0  0
 13 24  1  0  0  0  0
 14 15  1  0  0  0  0
 14 42  1  0  0  0  0
 15 16  2  0  0  0  0
 15 43  1  0  0  0  0
 17 16  1  0  0  0  0
 17 18  2  0  0  0  0
 18 19  1  0  0  0  0
 18 44  1  0  0  0  0
 19 45  1  0  0  0  0
 20 19  2  0  0  0  0
 20 21  1  0  0  0  0
 21 22  1  0  0  0  0
 22 46  1  0  0  0  0
 22 47  1  0  0  0  0
 22 48  1  0  0  0  0
 23 20  1  0  0  0  0
 23 49  1  0  0  0  0
 24 23  2  0  0  0  0
 24 17  1  0  0  0  0
 25 50  1  0  0  0  0
M  END
>  <DRUGBANK_ID>
DB15300

>  <COMMON_NAME>
Hydroquinidine

>  <CAS_NUMBER>
1435-55-8

>  <UNII>
8P68XPY4HG

$$$$
