
 OpenBabel10282417072D

 55 59  0  0  0  0  0  0  0  0999 V2000
    5.9083   -7.7517    0.0000 C   0  0  0  0  0  0  0  0  0  0  0  0
    5.1986   -7.3311    0.0000 N   0  0  0  0  0  0  0  0  0  0  0  0
    5.9083   -8.5666    0.0000 C   0  0  0  0  0  0  0  0  0  0  0  0
    6.6443   -7.3311    0.0000 C   0  0  0  0  0  0  0  0  0  0  0  0
    5.1986   -8.9872    0.0000 N   0  0  0  0  0  0  0  0  0  0  0  0
    7.3277   -8.5666    0.0000 C   0  0  0  0  0  0  0  0  0  0  0  0
    7.3277   -7.7517    0.0000 C   0  0  0  0  0  0  0  0  0  0  0  0
    6.6443   -8.9872    0.0000 C   0  0  0  0  0  0  0  0  0  0  0  0
    4.4625   -7.7517    0.0000 C   0  0  0  0  0  0  0  0  0  0  0  0
    4.4625   -8.5666    0.0000 C   0  0  0  0  0  0  0  0  0  0  0  0
    8.0638   -7.3311    0.0000 N   0  0  0  0  0  0  0  0  0  0  0  0
    8.0638   -8.9872    0.0000 N   0  0  0  0  0  0  0  0  0  0  0  0
    5.1986   -6.5162    0.0000 C   0  0  0  0  0  0  0  0  0  0  0  0
    5.9083   -6.0956    0.0000 C   0  0  0  0  0  0  0  0  0  0  0  0
    4.4625   -6.0956    0.0000 C   0  0  0  0  0  0  0  0  0  0  0  0
    8.7735   -8.5666    0.0000 C   0  0  0  0  0  0  0  0  0  0  0  0
    5.1986   -4.8602    0.0000 C   0  0  0  0  0  0  0  0  0  0  0  0
   10.1930   -7.7517    0.0000 C   0  0  0  0  0  0  0  0  0  0  0  0
    4.4625   -5.2545    0.0000 C   0  0  0  0  0  0  0  0  0  0  0  0
    5.9083   -5.2545    0.0000 C   0  0  0  0  0  0  0  0  0  0  0  0
    8.0638   -6.5162    0.0000 C   0  0  0  0  0  0  0  0  0  0  0  0
    5.1986   -4.0453    0.0000 Cl  0  0  0  0  0  0  0  0  0  0  0  0
   10.9290   -7.3311    0.0000 Cl  0  0  0  0  0  0  0  0  0  0  0  0
    9.4833   -8.9872    0.0000 C   0  0  0  0  0  0  0  0  0  0  0  0
    8.7735   -7.7517    0.0000 C   0  0  0  0  0  0  0  0  0  0  0  0
   10.1930   -8.5666    0.0000 C   0  0  0  0  0  0  0  0  0  0  0  0
    9.4833   -7.3311    0.0000 C   0  0  0  0  0  0  0  0  0  0  0  0
    3.7790   -7.3311    0.0000 C   0  0  0  0  0  0  0  0  0  0  0  0
    3.7790   -8.9872    0.0000 C   0  0  0  0  0  0  0  0  0  0  0  0
    8.7735   -6.0956    0.0000 C   0  0  0  0  0  0  0  0  0  0  0  0
    7.3277   -6.0956    0.0000 C   0  0  0  0  0  0  0  0  0  0  0  0
    3.0430   -7.7517    0.0000 C   0  0  0  0  0  0  0  0  0  0  0  0
    3.0430   -8.5666    0.0000 C   0  0  0  0  0  0  0  0  0  0  0  0
    6.6611   -6.2992    0.0000 H   0  0  0  0  0  0  0  0  0  0  0  0
    6.6611  -10.0191    0.0000 H   0  0  0  0  0  0  0  0  0  0  0  0
    8.0716   -9.9717    0.0000 H   0  0  0  0  0  0  0  0  0  0  0  0
    6.8050   -6.6065    0.0000 H   0  0  0  0  0  0  0  0  0  0  0  0
    3.5699   -6.6136    0.0000 H   0  0  0  0  0  0  0  0  0  0  0  0
    3.5771   -4.7243    0.0000 H   0  0  0  0  0  0  0  0  0  0  0  0
    6.7978   -4.7312    0.0000 H   0  0  0  0  0  0  0  0  0  0  0  0
    8.0553   -5.4462    0.0000 H   0  0  0  0  0  0  0  0  0  0  0  0
    9.4833  -10.0192    0.0000 H   0  0  0  0  0  0  0  0  0  0  0  0
    7.8769   -7.2408    0.0000 H   0  0  0  0  0  0  0  0  0  0  0  0
   11.0897   -9.0775    0.0000 H   0  0  0  0  0  0  0  0  0  0  0  0
    9.4833   -6.2991    0.0000 H   0  0  0  0  0  0  0  0  0  0  0  0
    3.7958   -6.2992    0.0000 H   0  0  0  0  0  0  0  0  0  0  0  0
    3.7958  -10.0191    0.0000 H   0  0  0  0  0  0  0  0  0  0  0  0
    9.7062   -6.6200    0.0000 H   0  0  0  0  0  0  0  0  0  0  0  0
    8.7613   -5.0257    0.0000 H   0  0  0  0  0  0  0  0  0  0  0  0
    9.6940   -5.5501    0.0000 H   0  0  0  0  0  0  0  0  0  0  0  0
    7.3229   -5.0256    0.0000 H   0  0  0  0  0  0  0  0  0  0  0  0
    6.4035   -6.6347    0.0000 H   0  0  0  0  0  0  0  0  0  0  0  0
    6.3987   -5.5648    0.0000 H   0  0  0  0  0  0  0  0  0  0  0  0
    2.1504   -7.2337    0.0000 H   0  0  0  0  0  0  0  0  0  0  0  0
    2.1504   -9.0846    0.0000 H   0  0  0  0  0  0  0  0  0  0  0  0
  2  1  1  0  0  0  0
  3  1  1  0  0  0  0
  4  1  2  0  0  0  0
  4 34  1  0  0  0  0
  5  3  2  0  0  0  0
  7  4  1  0  0  0  0
  7  6  1  0  0  0  0
  8  3  1  0  0  0  0
  8  6  2  0  0  0  0
  8 35  1  0  0  0  0
  9  2  1  0  0  0  0
 10  5  1  0  0  0  0
 10  9  2  0  0  0  0
 11  7  2  3  0  0  0
 11 21  1  0  0  0  0
 12  6  1  0  0  0  0
 12 36  1  0  0  0  0
 13  2  1  0  0  0  0
 14 13  2  0  0  0  0
 14 37  1  0  0  0  0
 15 13  1  0  0  0  0
 15 38  1  0  0  0  0
 16 12  1  0  0  0  0
 19 15  2  0  0  0  0
 19 17  1  0  0  0  0
 19 39  1  0  0  0  0
 20 14  1  0  0  0  0
 20 17  2  0  0  0  0
 20 40  1  0  0  0  0
 21 41  1  0  0  0  0
 22 17  1  0  0  0  0
 23 18  1  0  0  0  0
 24 16  1  0  0  0  0
 24 42  1  0  0  0  0
 25 16  2  0  0  0  0
 25 43  1  0  0  0  0
 26 18  1  0  0  0  0
 26 24  2  0  0  0  0
 26 44  1  0  0  0  0
 27 18  2  0  0  0  0
 27 25  1  0  0  0  0
 27 45  1  0  0  0  0
 28  9  1  0  0  0  0
 28 46  1  0  0  0  0
 29 10  1  0  0  0  0
 29 47  1  0  0  0  0
 30 21  1  0  0  0  0
 30 48  1  0  0  0  0
 30 49  1  0  0  0  0
 30 50  1  0  0  0  0
 31 21  1  0  0  0  0
 31 51  1  0  0  0  0
 31 52  1  0  0  0  0
 31 53  1  0  0  0  0
 32 28  2  0  0  0  0
 32 54  1  0  0  0  0
 33 29  2  0  0  0  0
 33 32  1  0  0  0  0
 33 55  1  0  0  0  0
M  END
>  <DRUGBANK_ID>
DB00845

>  <SECONDARY_ACCESSION_NUMBERS>
APRD00278

>  <COMMON_NAME>
Clofazimine

>  <CAS_NUMBER>
2030-63-9

>  <UNII>
D959AE5USF

>  <SYNONYMS>
Clofazimin; Clofazimina; Clofazimine; Clofaziminum; Riminophenazine

$$$$
