1295
 OpenBabel10282417072D

 52 53  0  0  1  0  0  0  0  0999 V2000
    7.3659   -2.0625    0.0000 O   0  0  0  0  0  0  0  0  0  0  0  0
    7.3659   -0.4125    0.0000 O   0  0  0  0  0  0  0  0  0  0  0  0
    3.7935    4.1251    0.0000 O   0  0  0  0  0  0  0  0  0  0  0  0
    2.3645    3.3001    0.0000 O   0  0  0  0  0  0  0  0  0  0  0  0
    5.9370    0.4125    0.0000 N   0  0  0  0  0  0  0  0  0  0  0  0
    5.9370   -0.4125    0.0000 C   0  0  0  0  0  0  0  0  0  0  0  0
    6.6515   -0.8250    0.0000 C   0  0  3  0  0  0  0  0  0  0  0  0
    5.2224    0.8250    0.0000 C   0  0  0  0  0  0  0  0  0  0  0  0
    5.2224    1.6500    0.0000 C   0  0  0  0  0  0  0  0  0  0  0  0
    4.5080    2.0625    0.0000 C   0  0  0  0  0  0  0  0  0  0  0  0
    6.6515   -1.6500    0.0000 C   0  0  0  0  0  0  0  0  0  0  0  0
    4.5080    2.8876    0.0000 C   0  0  0  0  0  0  0  0  0  0  0  0
    3.7935    1.6500    0.0000 C   0  0  0  0  0  0  0  0  0  0  0  0
    3.7935    3.3001    0.0000 C   0  0  0  0  0  0  0  0  0  0  0  0
    3.0791    2.0625    0.0000 C   0  0  0  0  0  0  0  0  0  0  0  0
    3.0791    2.8876    0.0000 C   0  0  0  0  0  0  0  0  0  0  0  0
    7.3659   -2.8876    0.0000 C   0  0  0  0  0  0  0  0  0  0  0  0
    8.0804   -3.3001    0.0000 C   0  0  0  0  0  0  0  0  0  0  0  0
    8.0804   -4.1251    0.0000 C   0  0  0  0  0  0  0  0  0  0  0  0
    6.6515   -3.3001    0.0000 C   0  0  0  0  0  0  0  0  0  0  0  0
    7.3659   -4.5376    0.0000 C   0  0  0  0  0  0  0  0  0  0  0  0
    6.6515   -4.1251    0.0000 C   0  0  0  0  0  0  0  0  0  0  0  0
    8.7949   -4.5376    0.0000 C   0  0  0  0  0  0  0  0  0  0  0  0
    4.5080    4.5376    0.0000 C   0  0  0  0  0  0  0  0  0  0  0  0
    1.6500    2.8876    0.0000 C   0  0  0  0  0  0  0  0  0  0  0  0
    8.2060   -0.8975    0.0000 H   0  0  0  0  0  0  0  0  0  0  0  0
    6.8203    0.9225    0.0000 H   0  0  0  0  0  0  0  0  0  0  0  0
    5.0104   -0.9475    0.0000 H   0  0  0  0  0  0  0  0  0  0  0  0
    5.9370   -1.4825    0.0000 H   0  0  0  0  0  0  0  0  0  0  0  0
    6.6515    0.2450    0.0000 H   0  0  0  0  0  0  0  0  0  0  0  0
    4.2958    0.2900    0.0000 H   0  0  0  0  0  0  0  0  0  0  0  0
    4.2957    1.3600    0.0000 H   0  0  0  0  0  0  0  0  0  0  0  0
    6.1491    2.1850    0.0000 H   0  0  0  0  0  0  0  0  0  0  0  0
    5.2224    2.7200    0.0000 H   0  0  0  0  0  0  0  0  0  0  0  0
    5.7248   -2.1850    0.0000 H   0  0  0  0  0  0  0  0  0  0  0  0
    5.7249   -1.1150    0.0000 H   0  0  0  0  0  0  0  0  0  0  0  0
    5.4017    3.4036    0.0000 H   0  0  0  0  0  0  0  0  0  0  0  0
    3.7935    0.6180    0.0000 H   0  0  0  0  0  0  0  0  0  0  0  0
    2.1854    1.5465    0.0000 H   0  0  0  0  0  0  0  0  0  0  0  0
    8.9741   -2.7841    0.0000 H   0  0  0  0  0  0  0  0  0  0  0  0
    5.7578   -2.7841    0.0000 H   0  0  0  0  0  0  0  0  0  0  0  0
    7.3659   -5.5696    0.0000 H   0  0  0  0  0  0  0  0  0  0  0  0
    5.7578   -4.6411    0.0000 H   0  0  0  0  0  0  0  0  0  0  0  0
    8.7949   -5.6076    0.0000 H   0  0  0  0  0  0  0  0  0  0  0  0
    9.7215   -4.0026    0.0000 H   0  0  0  0  0  0  0  0  0  0  0  0
    9.7216   -5.0726    0.0000 H   0  0  0  0  0  0  0  0  0  0  0  0
    5.4346    4.0026    0.0000 H   0  0  0  0  0  0  0  0  0  0  0  0
    4.5080    5.6076    0.0000 H   0  0  0  0  0  0  0  0  0  0  0  0
    5.4347    5.0726    0.0000 H   0  0  0  0  0  0  0  0  0  0  0  0
    0.7234    3.4226    0.0000 H   0  0  0  0  0  0  0  0  0  0  0  0
    1.6500    1.8176    0.0000 H   0  0  0  0  0  0  0  0  0  0  0  0
    0.7233    2.3526    0.0000 H   0  0  0  0  0  0  0  0  0  0  0  0
  1 11  1  0  0  0  0
  1 17  1  0  0  0  0
  2  7  1  0  0  0  0
  2 26  1  0  0  0  0
  3 14  1  0  0  0  0
  3 24  1  0  0  0  0
  4 16  1  0  0  0  0
  4 25  1  0  0  0  0
  5  6  1  0  0  0  0
  5  8  1  0  0  0  0
  5 27  1  0  0  0  0
  6  7  1  0  0  0  0
  6 28  1  0  0  0  0
  6 29  1  0  0  0  0
  7 11  1  0  0  0  0
  7 30  1  0  0  0  0
  8  9  1  0  0  0  0
  8 31  1  0  0  0  0
  8 32  1  0  0  0  0
  9 10  1  0  0  0  0
  9 33  1  0  0  0  0
  9 34  1  0  0  0  0
 10 12  2  0  0  0  0
 10 13  1  0  0  0  0
 11 35  1  0  0  0  0
 11 36  1  0  0  0  0
 12 14  1  0  0  0  0
 12 37  1  0  0  0  0
 13 15  2  0  0  0  0
 13 38  1  0  0  0  0
 14 16  2  0  0  0  0
 15 16  1  0  0  0  0
 15 39  1  0  0  0  0
 17 18  1  0  0  0  0
 17 20  2  0  0  0  0
 18 19  2  0  0  0  0
 18 40  1  0  0  0  0
 19 21  1  0  0  0  0
 19 23  1  0  0  0  0
 20 22  1  0  0  0  0
 20 41  1  0  0  0  0
 21 22  2  0  0  0  0
 21 42  1  0  0  0  0
 22 43  1  0  0  0  0
 23 44  1  0  0  0  0
 23 45  1  0  0  0  0
 23 46  1  0  0  0  0
 24 47  1  0  0  0  0
 24 48  1  0  0  0  0
 24 49  1  0  0  0  0
 25 50  1  0  0  0  0
 25 51  1  0  0  0  0
 25 52  1  0  0  0  0
M  END
>  <DRUGBANK_ID>
DB01295

>  <COMMON_NAME>
Bevantolol

>  <CAS_NUMBER>
59170-23-9

>  <UNII>
34ZXW6ZV21

>  <SYNONYMS>
(±)-bevantolol; 1-((2-(3,4-dimethoxyphenyl)ethyl)amino)-3-(3-methylphenoxy)-2-propanol; 1-(3,4-dimethoxyphenethylamino)-3-(m-tolyloxy)-2-propanol; 1-(3,4-dimethoxyphenethylamino)-3-m-tolyloxy-propan-2-ol; 1-[2-(3,4-Dimethoxy-phenyl)-ethylamino]-3-m-tolyloxy-propan-2-ol; Bevantolol; Bévantolol; Bevantololum

$$$$
