
 OpenBabel10282417072D

 57 60  0  0  0  0  0  0  0  0999 V2000
    1.8129    1.2488    0.0000 O   0  0  0  0  0  0  0  0  0  0  0  0
    3.4797    1.2488    0.0000 C   0  0  0  0  0  0  0  0  0  0  0  0
    1.0984    0.8374    0.0000 C   0  0  1  0  0  0  0  0  0  0  0  0
    3.8932    1.9634    0.0000 C   0  0  0  0  0  0  0  0  0  0  0  0
    3.8932    0.5364    0.0000 O   0  0  0  0  0  0  0  0  0  0  0  0
    1.0984    1.6624    0.0000 C   0  0  0  0  0  0  0  0  0  0  0  0
    0.3860    0.4217    0.0000 C   0  0  2  0  0  0  0  0  0  0  0  0
    1.8109    0.4217    0.0000 C   0  0  0  0  0  0  0  0  0  0  0  0
    1.8129    2.0740    0.0000 C   0  0  0  0  0  0  0  0  0  0  0  0
    0.3839    2.0740    0.0000 O   0  0  0  0  0  0  0  0  0  0  0  0
    0.3860    1.2467    0.0000 C   0  0  0  0  0  0  0  0  0  0  0  0
    0.3860   -0.4115    0.0000 C   0  0  1  0  0  0  0  0  0  0  0  0
   -0.3264    0.8374    0.0000 C   0  0  0  0  0  0  0  0  0  0  0  0
    2.5276    0.8333    0.0000 C   0  0  0  0  0  0  0  0  0  0  0  0
    1.8109   -0.4115    0.0000 C   0  0  0  0  0  0  0  0  0  0  0  0
   -0.3264   -0.8272    0.0000 C   0  0  1  0  0  0  0  0  0  0  0  0
   -1.0390    0.4217    0.0000 C   0  0  0  0  0  0  0  0  0  0  0  0
   -1.0390   -0.4115    0.0000 C   0  0  2  0  0  0  0  0  0  0  0  0
   -0.3264   -1.6584    0.0000 C   0  0  0  0  0  0  0  0  0  0  0  0
   -1.7516   -0.8272    0.0000 C   0  0  2  0  0  0  0  0  0  0  0  0
   -1.0390   -2.0740    0.0000 C   0  0  0  0  0  0  0  0  0  0  0  0
   -1.7516   -1.6584    0.0000 C   0  0  0  0  0  0  0  0  0  0  0  0
   -2.4640   -0.4115    0.0000 C   0  0  0  0  0  0  0  0  0  0  0  0
   -2.4640   -2.0740    0.0000 C   0  0  0  0  0  0  0  0  0  0  0  0
   -3.1767   -0.8272    0.0000 C   0  0  0  0  0  0  0  0  0  0  0  0
   -3.1767   -1.6584    0.0000 C   0  0  0  0  0  0  0  0  0  0  0  0
   -3.8932   -2.0699    0.0000 O   0  0  0  0  0  0  0  0  0  0  0  0
   -0.3264   -0.0020    0.0000 H   0  0  0  0  0  0  0  0  0  0  0  0
   -1.0390   -1.2366    0.0000 H   0  0  0  0  0  0  0  0  0  0  0  0
    0.3860   -1.2366    0.0000 H   0  0  0  0  0  0  0  0  0  0  0  0
   -1.7516   -0.0020    0.0000 H   0  0  0  0  0  0  0  0  0  0  0  0
    4.9632    1.9624    0.0000 H   0  0  0  0  0  0  0  0  0  0  0  0
    3.3591    2.8906    0.0000 H   0  0  0  0  0  0  0  0  0  0  0  0
    4.4291    2.8895    0.0000 H   0  0  0  0  0  0  0  0  0  0  0  0
    2.7390    1.5381    0.0000 H   0  0  0  0  0  0  0  0  0  0  0  0
    1.8139    3.1440    0.0000 H   0  0  0  0  0  0  0  0  0  0  0  0
    2.7401    2.6081    0.0000 H   0  0  0  0  0  0  0  0  0  0  0  0
    1.3126    1.7817    0.0000 H   0  0  0  0  0  0  0  0  0  0  0  0
   -0.5406    1.7817    0.0000 H   0  0  0  0  0  0  0  0  0  0  0  0
    0.3860    2.3167    0.0000 H   0  0  0  0  0  0  0  0  0  0  0  0
   -0.3263    1.9074    0.0000 H   0  0  0  0  0  0  0  0  0  0  0  0
   -1.2542    1.3703    0.0000 H   0  0  0  0  0  0  0  0  0  0  0  0
    3.4202    0.3153    0.0000 H   0  0  0  0  0  0  0  0  0  0  0  0
    2.5300    1.8653    0.0000 H   0  0  0  0  0  0  0  0  0  0  0  0
    2.5675   -1.1681    0.0000 H   0  0  0  0  0  0  0  0  0  0  0  0
    1.4014   -1.4001    0.0000 H   0  0  0  0  0  0  0  0  0  0  0  0
   -1.9668    0.9546    0.0000 H   0  0  0  0  0  0  0  0  0  0  0  0
   -1.9650   -0.1143    0.0000 H   0  0  0  0  0  0  0  0  0  0  0  0
    0.6014   -2.1914    0.0000 H   0  0  0  0  0  0  0  0  0  0  0  0
   -0.3229   -2.7284    0.0000 H   0  0  0  0  0  0  0  0  0  0  0  0
   -1.0390   -3.1440    0.0000 H   0  0  0  0  0  0  0  0  0  0  0  0
   -1.9668   -2.6070    0.0000 H   0  0  0  0  0  0  0  0  0  0  0  0
   -2.4639    0.6585    0.0000 H   0  0  0  0  0  0  0  0  0  0  0  0
   -3.3918    0.1215    0.0000 H   0  0  0  0  0  0  0  0  0  0  0  0
   -2.4639   -3.1060    0.0000 H   0  0  0  0  0  0  0  0  0  0  0  0
   -4.1045   -0.2943    0.0000 H   0  0  0  0  0  0  0  0  0  0  0  0
   -4.1028   -1.3632    0.0000 H   0  0  0  0  0  0  0  0  0  0  0  0
  1  2  1  0  0  0  0
  2  4  1  0  0  0  0
  2  5  2  0  0  0  0
  3  1  1  6  0  0  0
  3  6  1  0  0  0  0
  3  8  1  0  0  0  0
  4 32  1  0  0  0  0
  4 33  1  0  0  0  0
  4 34  1  0  0  0  0
  6  9  1  0  0  0  0
  6 10  2  0  0  0  0
  7  3  1  0  0  0  0
  7 11  1  1  0  0  0
  7 13  1  0  0  0  0
  8 14  2  0  0  0  0
  8 15  1  0  0  0  0
  9 35  1  0  0  0  0
  9 36  1  0  0  0  0
  9 37  1  0  0  0  0
 11 38  1  0  0  0  0
 11 39  1  0  0  0  0
 11 40  1  0  0  0  0
 12  7  1  0  0  0  0
 12 15  1  0  0  0  0
 12 16  1  0  0  0  0
 12 30  1  6  0  0  0
 13 17  1  0  0  0  0
 13 41  1  0  0  0  0
 13 42  1  0  0  0  0
 14 43  1  0  0  0  0
 14 44  1  0  0  0  0
 15 45  1  0  0  0  0
 15 46  1  0  0  0  0
 16 18  1  0  0  0  0
 16 19  1  0  0  0  0
 16 28  1  1  0  0  0
 17 47  1  0  0  0  0
 17 48  1  0  0  0  0
 18 17  1  0  0  0  0
 18 20  1  0  0  0  0
 18 29  1  6  0  0  0
 19 21  1  0  0  0  0
 19 49  1  0  0  0  0
 19 50  1  0  0  0  0
 20 22  1  0  0  0  0
 20 23  1  0  0  0  0
 20 31  1  1  0  0  0
 21 22  1  0  0  0  0
 21 51  1  0  0  0  0
 21 52  1  0  0  0  0
 22 24  2  0  0  0  0
 23 25  1  0  0  0  0
 23 53  1  0  0  0  0
 23 54  1  0  0  0  0
 24 26  1  0  0  0  0
 24 55  1  0  0  0  0
 25 26  1  0  0  0  0
 25 56  1  0  0  0  0
 25 57  1  0  0  0  0
 26 27  2  0  0  0  0
M  END
>  <DRUGBANK_ID>
DB14583

>  <COMMON_NAME>
Segesterone acetate

>  <CAS_NUMBER>
7759-35-5

>  <UNII>
9AMX4Q13CC

>  <SYNONYMS>
16-Methylene-17-alpha-acetoxy-19-nor-4-pregnene-3,20-dione; 17-Hydroxy-16-methylene-19-norpregn-4-ene-3,20-dione acetate; Elcometrine; Nestorone; Segesterone acetate

$$$$
