
 OpenBabel10282417072D

101100  0  0  0  0  0  0  0  0999 V2000
   -1.5955   -1.0908    0.0000 Fe  0  0  0  0  0  0  0  0  0  0  0  0
   -2.2631   -0.6058    0.0000 O   0  0  0  0  0  0  0  0  0  0  0  0
   -0.9282   -1.5757    0.0000 O   0  0  0  0  0  0  0  0  0  0  0  0
   -0.9282   -1.5757    0.0000 O   0  0  0  0  0  0  0  0  0  0  0  0
   -0.9282   -0.6058    0.0000 O   0  3  0  0  0  0  0  0  0  0  0  0
   -2.2631   -1.5757    0.0000 O   0  3  0  0  0  0  0  0  0  0  0  0
   -2.2631   -1.5757    0.0000 O   0  3  0  0  0  0  0  0  0  0  0  0
    0.3516    1.9275    0.0000 O   0  0  0  0  0  0  0  0  0  0  0  0
    0.1011   -0.4917    0.0000 O   0  0  0  0  0  0  0  0  0  0  0  0
   -2.1781    1.5901    0.0000 O   0  0  0  0  0  0  0  0  0  0  0  0
    3.3050   -0.1142    0.0000 O   0  0  0  0  0  0  0  0  0  0  0  0
   -0.1298    3.6937    0.0000 O   0  0  0  0  0  0  0  0  0  0  0  0
    2.7431    2.9224    0.0000 O   0  0  0  0  0  0  0  0  0  0  0  0
    1.7713    1.0996    0.0000 O   0  0  0  0  0  0  0  0  0  0  0  0
   -2.0082    0.1787    0.0000 N   0  0  0  0  0  0  0  0  0  0  0  0
   -1.1831   -2.3603    0.0000 N   0  0  0  0  0  0  0  0  0  0  0  0
   -1.1831   -2.3603    0.0000 N   0  0  0  0  0  0  0  0  0  0  0  0
    1.2995    0.2864    0.0000 N   0  0  0  0  0  0  0  0  0  0  0  0
   -0.7366    0.9998    0.0000 N   0  0  0  0  0  0  0  0  0  0  0  0
    2.0969   -0.7422    0.0000 N   0  0  0  0  0  0  0  0  0  0  0  0
   -0.9590    2.0672    0.0000 N   0  0  0  0  0  0  0  0  0  0  0  0
    2.7148    1.4936    0.0000 N   0  0  0  0  0  0  0  0  0  0  0  0
    1.0933    2.9549    0.0000 N   0  0  0  0  0  0  0  0  0  0  0  0
   -1.1831    0.1787    0.0000 C   0  0  0  0  0  0  0  0  0  0  0  0
   -2.0082   -2.3603    0.0000 C   0  0  0  0  0  0  0  0  0  0  0  0
   -2.0082   -2.3603    0.0000 C   0  0  0  0  0  0  0  0  0  0  0  0
   -1.4561    0.7919    0.0000 C   0  0  0  0  0  0  0  0  0  0  0  0
   -1.7041   -1.7388    0.0000 C   0  0  0  0  0  0  0  0  0  0  0  0
   -0.3761   -2.5318    0.0000 C   0  0  0  0  0  0  0  0  0  0  0  0
   -0.3626    0.0925    0.0000 C   0  0  0  0  0  0  0  0  0  0  0  0
   -1.9506   -3.1833    0.0000 C   0  0  0  0  0  0  0  0  0  0  0  0
   -2.8086   -2.5600    0.0000 C   0  0  0  0  0  0  0  0  0  0  0  0
   -0.7087    1.3098    0.0000 C   0  0  0  0  0  0  0  0  0  0  0  0
   -1.9303   -0.9603    0.0000 C   0  0  0  0  0  0  0  0  0  0  0  0
    0.1759   -1.9187    0.0000 C   0  0  0  0  0  0  0  0  0  0  0  0
    0.0263    0.9353    0.0000 C   0  0  0  0  0  0  0  0  0  0  0  0
   -1.8234   -0.1564    0.0000 C   0  0  0  0  0  0  0  0  0  0  0  0
    0.9998   -1.8755    0.0000 C   0  0  0  0  0  0  0  0  0  0  0  0
    0.8502    0.9784    0.0000 C   0  0  1  0  0  0  0  0  0  0  0  0
   -1.4017    0.5360    0.0000 C   0  0  1  0  0  0  0  0  0  0  0  0
    1.3743   -1.1404    0.0000 C   0  0  1  0  0  0  0  0  0  0  0  0
    0.0590    1.1560    0.0000 C   0  0  0  0  0  0  0  0  0  0  0  0
    0.9250   -0.4485    0.0000 C   0  0  0  0  0  0  0  0  0  0  0  0
   -1.3855    1.3609    0.0000 C   0  0  0  0  0  0  0  0  0  0  0  0
    2.4862   -0.0134    0.0000 C   0  0  0  0  0  0  0  0  0  0  0  0
   -0.1580    2.2650    0.0000 C   0  0  0  0  0  0  0  0  0  0  0  0
    2.2884    0.7874    0.0000 C   0  0  0  0  0  0  0  0  0  0  0  0
    0.2684    2.9712    0.0000 C   0  0  0  0  0  0  0  0  0  0  0  0
    2.3165    2.2162    0.0000 C   0  0  0  0  0  0  0  0  0  0  0  0
    1.4916    2.2325    0.0000 C   0  0  1  0  0  0  0  0  0  0  0  0
    1.0651    1.5262    0.0000 C   0  0  0  0  0  0  0  0  0  0  0  0
    0.5952    1.7630    0.0000 H   0  0  0  0  0  0  0  0  0  0  0  0
   -2.2086    0.7075    0.0000 H   0  0  0  0  0  0  0  0  0  0  0  0
    1.9263   -1.7534    0.0000 H   0  0  0  0  0  0  0  0  0  0  0  0
   -3.2119   -0.8075    0.0000 H   0  0  0  0  0  0  0  0  0  0  0  0
    0.0206   -1.3740    0.0000 H   0  0  0  0  0  0  0  0  0  0  0  0
    0.0206   -1.3740    0.0000 H   0  0  0  0  0  0  0  0  0  0  0  0
   -1.5552   -1.3021    0.0000 H   0  0  0  0  0  0  0  0  0  0  0  0
   -1.6361   -0.8794    0.0000 H   0  0  0  0  0  0  0  0  0  0  0  0
   -1.6361   -0.8794    0.0000 H   0  0  0  0  0  0  0  0  0  0  0  0
    1.7521    0.1298    0.0000 H   0  0  0  0  0  0  0  0  0  0  0  0
    2.2827    0.3379    0.0000 H   0  0  0  0  0  0  0  0  0  0  0  0
   -1.1213    1.9060    0.0000 H   0  0  0  0  0  0  0  0  0  0  0  0
    2.7976   -1.4338    0.0000 H   0  0  0  0  0  0  0  0  0  0  0  0
   -1.5428    2.8599    0.0000 H   0  0  0  0  0  0  0  0  0  0  0  0
    3.6991    1.4742    0.0000 H   0  0  0  0  0  0  0  0  0  0  0  0
    1.6023    3.7976    0.0000 H   0  0  0  0  0  0  0  0  0  0  0  0
   -2.1631    1.5950    0.0000 H   0  0  0  0  0  0  0  0  0  0  0  0
   -1.3264    1.8540    0.0000 H   0  0  0  0  0  0  0  0  0  0  0  0
   -2.6481   -2.2426    0.0000 H   0  0  0  0  0  0  0  0  0  0  0  0
   -2.6901   -1.3232    0.0000 H   0  0  0  0  0  0  0  0  0  0  0  0
   -0.0454   -3.5494    0.0000 H   0  0  0  0  0  0  0  0  0  0  0  0
    0.6705   -2.7542    0.0000 H   0  0  0  0  0  0  0  0  0  0  0  0
    0.0727   -0.8850    0.0000 H   0  0  0  0  0  0  0  0  0  0  0  0
    0.2663    0.9582    0.0000 H   0  0  0  0  0  0  0  0  0  0  0  0
    0.7015   -0.0193    0.0000 H   0  0  0  0  0  0  0  0  0  0  0  0
   -2.8376   -3.7817    0.0000 H   0  0  0  0  0  0  0  0  0  0  0  0
   -0.9889   -3.6523    0.0000 H   0  0  0  0  0  0  0  0  0  0  0  0
   -1.8759   -4.2507    0.0000 H   0  0  0  0  0  0  0  0  0  0  0  0
   -3.5520   -1.7904    0.0000 H   0  0  0  0  0  0  0  0  0  0  0  0
   -3.1034   -3.5886    0.0000 H   0  0  0  0  0  0  0  0  0  0  0  0
   -3.8468   -2.8190    0.0000 H   0  0  0  0  0  0  0  0  0  0  0  0
   -0.7807    2.3774    0.0000 H   0  0  0  0  0  0  0  0  0  0  0  0
    0.1843    1.8993    0.0000 H   0  0  0  0  0  0  0  0  0  0  0  0
   -2.9973   -1.0408    0.0000 H   0  0  0  0  0  0  0  0  0  0  0  0
   -2.6651   -0.1825    0.0000 H   0  0  0  0  0  0  0  0  0  0  0  0
   -0.2848   -0.9529    0.0000 H   0  0  0  0  0  0  0  0  0  0  0  0
    0.7230   -0.9991    0.0000 H   0  0  0  0  0  0  0  0  0  0  0  0
   -0.1962   -0.1113    0.0000 H   0  0  0  0  0  0  0  0  0  0  0  0
    0.7212    0.1216    0.0000 H   0  0  0  0  0  0  0  0  0  0  0  0
   -2.8323    0.2000    0.0000 H   0  0  0  0  0  0  0  0  0  0  0  0
   -2.1823    0.8516    0.0000 H   0  0  0  0  0  0  0  0  0  0  0  0
    1.5826   -2.7729    0.0000 H   0  0  0  0  0  0  0  0  0  0  0  0
    2.0683   -1.8194    0.0000 H   0  0  0  0  0  0  0  0  0  0  0  0
    0.4766    1.4035    0.0000 H   0  0  0  0  0  0  0  0  0  0  0  0
    0.9109    2.3140    0.0000 H   0  0  0  0  0  0  0  0  0  0  0  0
    1.2305    0.9479    0.0000 H   0  0  0  0  0  0  0  0  0  0  0  0
    1.5672   -0.0031    0.0000 H   0  0  0  0  0  0  0  0  0  0  0  0
    0.4218    2.2536    0.0000 H   0  0  0  0  0  0  0  0  0  0  0  0
    0.0263    1.2697    0.0000 H   0  0  0  0  0  0  0  0  0  0  0  0
    0.4306    2.3877    0.0000 H   0  0  0  0  0  0  0  0  0  0  0  0
  2 15  1  0  0  0  0
  2 55  1  0  0  0  0
  3 16  1  0  0  0  0
  3 56  1  0  0  0  0
  4 17  1  0  0  0  0
  4 57  1  0  0  0  0
  5 24  2  0  0  0  0
  5 58  1  0  0  0  0
  6 25  2  0  0  0  0
  6 59  1  0  0  0  0
  7 26  2  0  0  0  0
  7 60  1  0  0  0  0
  8 42  2  0  0  0  0
  9 43  2  0  0  0  0
 10 44  2  0  0  0  0
 11 45  2  0  0  0  0
 12 48  2  0  0  0  0
 13 49  2  0  0  0  0
 14 51  1  0  0  0  0
 14 61  1  0  0  0  0
 15 24  1  0  0  0  0
 15 27  1  0  0  0  0
 16 25  1  0  0  0  0
 16 28  1  0  0  0  0
 17 26  1  0  0  0  0
 17 29  1  0  0  0  0
 18 43  1  0  0  0  0
 18 62  1  0  0  0  0
 19 40  1  0  0  0  0
 19 42  1  0  0  0  0
 19 63  1  0  0  0  0
 20 41  1  0  0  0  0
 20 45  1  0  0  0  0
 20 64  1  0  0  0  0
 21 44  1  0  0  0  0
 21 46  1  0  0  0  0
 21 65  1  0  0  0  0
 22 47  1  0  0  0  0
 22 49  1  0  0  0  0
 22 66  1  0  0  0  0
 23 48  1  0  0  0  0
 23 50  1  0  0  0  0
 23 67  1  0  0  0  0
 24 30  1  0  0  0  0
 25 31  1  0  0  0  0
 26 32  1  0  0  0  0
 27 33  1  0  0  0  0
 27 68  1  0  0  0  0
 27 69  1  0  0  0  0
 28 34  1  0  0  0  0
 28 70  1  0  0  0  0
 28 71  1  0  0  0  0
 29 35  1  0  0  0  0
 29 72  1  0  0  0  0
 29 73  1  0  0  0  0
 30 74  1  0  0  0  0
 30 75  1  0  0  0  0
 30 76  1  0  0  0  0
 31 77  1  0  0  0  0
 31 78  1  0  0  0  0
 31 79  1  0  0  0  0
 32 80  1  0  0  0  0
 32 81  1  0  0  0  0
 32 82  1  0  0  0  0
 33 36  1  0  0  0  0
 33 83  1  0  0  0  0
 33 84  1  0  0  0  0
 34 37  1  0  0  0  0
 34 85  1  0  0  0  0
 34 86  1  0  0  0  0
 35 38  1  0  0  0  0
 35 87  1  0  0  0  0
 35 88  1  0  0  0  0
 36 89  1  0  0  0  0
 36 90  1  0  0  0  0
 37 91  1  0  0  0  0
 37 92  1  0  0  0  0
 38 93  1  0  0  0  0
 38 94  1  0  0  0  0
 39 18  1  0  0  0  0
 39 36  1  0  0  0  0
 39 42  1  0  0  0  0
 39 52  1  6  0  0  0
 40 37  1  0  0  0  0
 40 44  1  0  0  0  0
 40 53  1  6  0  0  0
 41 38  1  0  0  0  0
 41 43  1  0  0  0  0
 41 54  1  6  0  0  0
 45 47  1  0  0  0  0
 46 48  1  0  0  0  0
 46 95  1  0  0  0  0
 46 96  1  0  0  0  0
 47 97  1  0  0  0  0
 47 98  1  0  0  0  0
 49 50  1  0  0  0  0
 50 51  1  0  0  0  0
 50 99  1  6  0  0  0
 51100  1  0  0  0  0
 51101  1  0  0  0  0
M  CHG  3   5   1   6   1   7   1
M  END
>  <DRUGBANK_ID>
DB03574

>  <SECONDARY_ACCESSION_NUMBERS>
EXPT01403

>  <COMMON_NAME>
Ferricrocin-iron

$$$$
