
 OpenBabel10282417072D

 32 34  0  0  0  0  0  0  0  0999 V2000
   -1.4289   -1.6500    0.0000 N   0  0  0  0  0  0  0  0  0  0  0  0
   -1.4289   -2.4750    0.0000 C   0  0  0  0  0  0  0  0  0  0  0  0
   -0.7145   -2.8875    0.0000 N   0  0  0  0  0  0  0  0  0  0  0  0
   -0.7145   -3.7125    0.0000 C   0  0  0  0  0  0  0  0  0  0  0  0
   -1.4289   -4.1250    0.0000 C   0  0  0  0  0  0  0  0  0  0  0  0
   -2.1434   -3.7125    0.0000 C   0  0  0  0  0  0  0  0  0  0  0  0
   -2.1434   -2.8875    0.0000 N   0  0  0  0  0  0  0  0  0  0  0  0
   -2.8579   -4.1250    0.0000 C   0  0  0  0  0  0  0  0  0  0  0  0
   -2.8579   -4.9500    0.0000 N   0  0  0  0  0  0  0  0  0  0  0  0
   -3.5724   -5.3625    0.0000 C   0  0  0  0  0  0  0  0  0  0  0  0
   -4.2868   -4.9500    0.0000 C   0  0  0  0  0  0  0  0  0  0  0  0
   -5.0013   -5.3625    0.0000 O   0  0  0  0  0  0  0  0  0  0  0  0
   -4.2868   -4.1250    0.0000 C   0  0  0  0  0  0  0  0  0  0  0  0
   -3.5724   -3.7125    0.0000 C   0  0  0  0  0  0  0  0  0  0  0  0
   -3.5724   -6.1875    0.0000 C   0  0  0  0  0  0  0  0  0  0  0  0
   -2.8579   -6.6000    0.0000 N   0  0  0  0  0  0  0  0  0  0  0  0
   -2.8579   -7.4250    0.0000 C   0  0  0  0  0  0  0  0  0  0  0  0
   -2.1434   -7.8375    0.0000 N   0  0  0  0  0  0  0  0  0  0  0  0
   -3.5724   -7.8375    0.0000 N   0  0  0  0  0  0  0  0  0  0  0  0
   -4.2868   -7.4250    0.0000 C   0  0  0  0  0  0  0  0  0  0  0  0
   -4.2868   -6.6000    0.0000 C   0  0  0  0  0  0  0  0  0  0  0  0
   -0.5763   -1.1577    0.0000 H   0  0  0  0  0  0  0  0  0  0  0  0
   -2.2815   -1.1578    0.0000 H   0  0  0  0  0  0  0  0  0  0  0  0
    0.1792   -4.2285    0.0000 H   0  0  0  0  0  0  0  0  0  0  0  0
   -1.4289   -5.1570    0.0000 H   0  0  0  0  0  0  0  0  0  0  0  0
   -5.8128   -4.8940    0.0000 H   0  0  0  0  0  0  0  0  0  0  0  0
   -5.1805   -3.6090    0.0000 H   0  0  0  0  0  0  0  0  0  0  0  0
   -3.5724   -2.6805    0.0000 H   0  0  0  0  0  0  0  0  0  0  0  0
   -2.1434   -8.8220    0.0000 H   0  0  0  0  0  0  0  0  0  0  0  0
   -1.2908   -7.3452    0.0000 H   0  0  0  0  0  0  0  0  0  0  0  0
   -5.1805   -7.9410    0.0000 H   0  0  0  0  0  0  0  0  0  0  0  0
   -5.1805   -6.0840    0.0000 H   0  0  0  0  0  0  0  0  0  0  0  0
  1  2  1  0  0  0  0
  1 22  1  0  0  0  0
  1 23  1  0  0  0  0
  2  3  2  0  0  0  0
  2  7  1  0  0  0  0
  3  4  1  0  0  0  0
  4  5  2  0  0  0  0
  4 24  1  0  0  0  0
  5  6  1  0  0  0  0
  5 25  1  0  0  0  0
  6  7  2  0  0  0  0
  6  8  1  0  0  0  0
  8  9  2  0  0  0  0
  8 14  1  0  0  0  0
  9 10  1  0  0  0  0
 10 11  2  0  0  0  0
 10 15  1  0  0  0  0
 11 12  1  0  0  0  0
 11 13  1  0  0  0  0
 12 26  1  0  0  0  0
 13 14  2  0  0  0  0
 13 27  1  0  0  0  0
 14 28  1  0  0  0  0
 15 16  2  0  0  0  0
 15 21  1  0  0  0  0
 16 17  1  0  0  0  0
 17 18  1  0  0  0  0
 17 19  2  0  0  0  0
 18 29  1  0  0  0  0
 18 30  1  0  0  0  0
 19 20  1  0  0  0  0
 20 21  2  0  0  0  0
 20 31  1  0  0  0  0
 21 32  1  0  0  0  0
M  END
>  <DRUGBANK_ID>
DB16652

>  <COMMON_NAME>
Avotaciclib

>  <CAS_NUMBER>
1983983-41-0

>  <UNII>
Z6BYC0F36E

>  <SYNONYMS>
2,6-bis(2-aminopyrimidin-4-yl)pyridin-3-ol; Avotaciclib

$$$$
