UFO
 OpenBabel10282417072D

 31 32  0  0  0  0  0  0  0  0999 V2000
   -1.3238    0.2342    0.0000 C   0  0  0  0  0  0  0  0  0  0  0  0
   -0.6093    0.6467    0.0000 C   0  0  0  0  0  0  0  0  0  0  0  0
    0.1051   -0.5908    0.0000 C   0  0  0  0  0  0  0  0  0  0  0  0
   -0.6093   -1.0033    0.0000 C   0  0  0  0  0  0  0  0  0  0  0  0
   -1.3238   -0.5908    0.0000 C   0  0  0  0  0  0  0  0  0  0  0  0
   -2.0383    1.4717    0.0000 N   0  0  0  0  0  0  0  0  0  0  0  0
   -2.0383    0.6467    0.0000 C   0  0  0  0  0  0  0  0  0  0  0  0
    0.8196   -1.0033    0.0000 N   0  0  0  0  0  0  0  0  0  0  0  0
    0.8196   -1.8283    0.0000 C   0  0  0  0  0  0  0  0  0  0  0  0
    1.5341   -0.5908    0.0000 C   0  0  0  0  0  0  0  0  0  0  0  0
    1.5341    0.2342    0.0000 C   0  0  0  0  0  0  0  0  0  0  0  0
    0.8196    0.6467    0.0000 N   0  0  0  0  0  0  0  0  0  0  0  0
    0.8196    1.4717    0.0000 C   0  0  0  0  0  0  0  0  0  0  0  0
    0.1051    0.2342    0.0000 C   0  0  0  0  0  0  0  0  0  0  0  0
   -0.6093    1.6787    0.0000 H   0  0  0  0  0  0  0  0  0  0  0  0
   -0.6093   -2.0353    0.0000 H   0  0  0  0  0  0  0  0  0  0  0  0
   -2.2175   -1.1068    0.0000 H   0  0  0  0  0  0  0  0  0  0  0  0
   -1.1550    1.9817    0.0000 H   0  0  0  0  0  0  0  0  0  0  0  0
   -2.9216    1.9817    0.0000 H   0  0  0  0  0  0  0  0  0  0  0  0
   -2.9649    0.1117    0.0000 H   0  0  0  0  0  0  0  0  0  0  0  0
   -2.9649    1.1817    0.0000 H   0  0  0  0  0  0  0  0  0  0  0  0
   -0.1070   -2.3633    0.0000 H   0  0  0  0  0  0  0  0  0  0  0  0
    1.7462   -2.3633    0.0000 H   0  0  0  0  0  0  0  0  0  0  0  0
    0.8196   -2.8983    0.0000 H   0  0  0  0  0  0  0  0  0  0  0  0
    2.4607   -1.1258    0.0000 H   0  0  0  0  0  0  0  0  0  0  0  0
    2.4607   -0.0558    0.0000 H   0  0  0  0  0  0  0  0  0  0  0  0
    2.4607    0.7692    0.0000 H   0  0  0  0  0  0  0  0  0  0  0  0
    1.5341    1.3042    0.0000 H   0  0  0  0  0  0  0  0  0  0  0  0
    1.7462    2.0067    0.0000 H   0  0  0  0  0  0  0  0  0  0  0  0
   -0.1070    2.0067    0.0000 H   0  0  0  0  0  0  0  0  0  0  0  0
    0.8196    2.5417    0.0000 H   0  0  0  0  0  0  0  0  0  0  0  0
  1  2  1  0  0  0  0
  1  7  1  0  0  0  0
  2 15  1  0  0  0  0
  3 14  1  0  0  0  0
  4  3  2  0  0  0  0
  4  5  1  0  0  0  0
  4 16  1  0  0  0  0
  5  1  2  0  0  0  0
  5 17  1  0  0  0  0
  6 18  1  0  0  0  0
  6 19  1  0  0  0  0
  7  6  1  0  0  0  0
  7 20  1  0  0  0  0
  7 21  1  0  0  0  0
  8  3  1  0  0  0  0
  8 10  1  0  0  0  0
  9  8  1  0  0  0  0
  9 22  1  0  0  0  0
  9 23  1  0  0  0  0
  9 24  1  0  0  0  0
 10 11  1  0  0  0  0
 10 25  1  0  0  0  0
 10 26  1  0  0  0  0
 11 12  1  0  0  0  0
 11 27  1  0  0  0  0
 11 28  1  0  0  0  0
 12 13  1  0  0  0  0
 13 29  1  0  0  0  0
 13 30  1  0  0  0  0
 13 31  1  0  0  0  0
 14  2  2  0  0  0  0
 14 12  1  0  0  0  0
M  END
>  <DRUGBANK_ID>
DB08685

>  <COMMON_NAME>
1-(1,4-dimethyl-1,2,3,4-tetrahydroquinoxalin-6-yl)methanamine

$$$$
