DFM
 OpenBabel10282417072D

 57 58  0  0  0  0  0  0  0  0999 V2000
   -4.1895    1.4081    0.0000 C   0  0  0  0  0  0  0  0  0  0  0  0
   -5.6184    2.2331    0.0000 O   0  0  0  0  0  0  0  0  0  0  0  0
   -5.3165    1.1061    0.0000 O   0  0  0  0  0  0  0  0  0  0  0  0
   -4.4915    2.5351    0.0000 O   0  0  0  0  0  0  0  0  0  0  0  0
   -3.4750    0.9956    0.0000 C   0  0  0  0  0  0  0  0  0  0  0  0
   -2.7606    1.4081    0.0000 C   0  0  0  0  0  0  0  0  0  0  0  0
   -2.0461    0.9956    0.0000 C   0  0  0  0  0  0  0  0  0  0  0  0
   -2.0461    0.1706    0.0000 C   0  0  0  0  0  0  0  0  0  0  0  0
   -2.7606   -0.2419    0.0000 C   0  0  0  0  0  0  0  0  0  0  0  0
   -3.4750    0.1706    0.0000 C   0  0  0  0  0  0  0  0  0  0  0  0
   -1.3316   -0.2419    0.0000 C   0  0  0  0  0  0  0  0  0  0  0  0
   -0.6172    0.1706    0.0000 C   0  0  1  0  0  0  0  0  0  0  0  0
   -0.6172    0.9956    0.0000 C   0  0  0  0  0  0  0  0  0  0  0  0
   -1.3316    1.4081    0.0000 O   0  0  0  0  0  0  0  0  0  0  0  0
    0.0973    1.4081    0.0000 N   0  0  0  0  0  0  0  0  0  0  0  0
    0.0973   -0.2419    0.0000 N   0  0  0  0  0  0  0  0  0  0  0  0
    0.8118    0.1706    0.0000 C   0  0  0  0  0  0  0  0  0  0  0  0
    1.5263   -0.2419    0.0000 C   0  0  1  0  0  0  0  0  0  0  0  0
    0.8118    0.9956    0.0000 O   0  0  0  0  0  0  0  0  0  0  0  0
    2.2407    0.1706    0.0000 N   0  0  0  0  0  0  0  0  0  0  0  0
    1.5263   -1.0669    0.0000 C   0  0  0  0  0  0  0  0  0  0  0  0
    0.8118   -1.4794    0.0000 C   0  0  0  0  0  0  0  0  0  0  0  0
    0.8118   -2.3044    0.0000 C   0  0  0  0  0  0  0  0  0  0  0  0
    0.0973   -2.7169    0.0000 C   0  0  0  0  0  0  0  0  0  0  0  0
   -0.6172   -2.3044    0.0000 C   0  0  0  0  0  0  0  0  0  0  0  0
   -0.6172   -1.4794    0.0000 C   0  0  0  0  0  0  0  0  0  0  0  0
    0.0973   -1.0669    0.0000 C   0  0  0  0  0  0  0  0  0  0  0  0
    2.2407    0.9956    0.0000 C   0  0  0  0  0  0  0  0  0  0  0  0
    2.9552    1.4081    0.0000 O   0  0  0  0  0  0  0  0  0  0  0  0
    1.5263    1.4081    0.0000 C   0  0  0  0  0  0  0  0  0  0  0  0
   -4.6020    0.6936    0.0000 F   0  0  0  0  0  0  0  0  0  0  0  0
   -3.7770    2.1226    0.0000 F   0  0  0  0  0  0  0  0  0  0  0  0
   -4.9040    1.8206    0.0000 P   0  0  0  0  0  0  0  0  0  0  0  0
   -1.1228    0.4626    0.0000 H   0  0  0  0  0  0  0  0  0  0  0  0
    1.5263    0.3420    0.0000 H   0  0  0  0  0  0  0  0  0  0  0  0
   -5.6184    3.2031    0.0000 H   0  0  0  0  0  0  0  0  0  0  0  0
   -6.2865    1.1061    0.0000 H   0  0  0  0  0  0  0  0  0  0  0  0
   -2.7606    2.4401    0.0000 H   0  0  0  0  0  0  0  0  0  0  0  0
   -1.1524    1.5116    0.0000 H   0  0  0  0  0  0  0  0  0  0  0  0
   -2.7606   -1.2739    0.0000 H   0  0  0  0  0  0  0  0  0  0  0  0
   -4.3687   -0.3454    0.0000 H   0  0  0  0  0  0  0  0  0  0  0  0
   -1.3316   -1.3119    0.0000 H   0  0  0  0  0  0  0  0  0  0  0  0
   -0.4049   -0.7769    0.0000 H   0  0  0  0  0  0  0  0  0  0  0  0
    0.9499    0.9158    0.0000 H   0  0  0  0  0  0  0  0  0  0  0  0
    0.0973    2.3926    0.0000 H   0  0  0  0  0  0  0  0  0  0  0  0
    0.0973   -1.2264    0.0000 H   0  0  0  0  0  0  0  0  0  0  0  0
    3.0933   -0.3216    0.0000 H   0  0  0  0  0  0  0  0  0  0  0  0
    2.4529   -1.6019    0.0000 H   0  0  0  0  0  0  0  0  0  0  0  0
    1.5263   -2.1369    0.0000 H   0  0  0  0  0  0  0  0  0  0  0  0
    1.7055   -2.8204    0.0000 H   0  0  0  0  0  0  0  0  0  0  0  0
    0.0973   -3.7489    0.0000 H   0  0  0  0  0  0  0  0  0  0  0  0
   -1.5109   -2.8204    0.0000 H   0  0  0  0  0  0  0  0  0  0  0  0
   -1.5109   -0.9634    0.0000 H   0  0  0  0  0  0  0  0  0  0  0  0
    0.0973   -0.0349    0.0000 H   0  0  0  0  0  0  0  0  0  0  0  0
    1.5263    2.4781    0.0000 H   0  0  0  0  0  0  0  0  0  0  0  0
    0.5996    0.8731    0.0000 H   0  0  0  0  0  0  0  0  0  0  0  0
    0.5997    1.9431    0.0000 H   0  0  0  0  0  0  0  0  0  0  0  0
  1  5  1  0  0  0  0
  1 31  1  0  0  0  0
  1 32  1  0  0  0  0
  1 33  1  0  0  0  0
  2 33  1  0  0  0  0
  2 36  1  0  0  0  0
  3 33  1  0  0  0  0
  3 37  1  0  0  0  0
  4 33  2  0  0  0  0
  5  6  1  0  0  0  0
  5 10  2  0  0  0  0
  6  7  2  0  0  0  0
  6 38  1  0  0  0  0
  7  8  1  0  0  0  0
  7 39  1  0  0  0  0
  8  9  2  0  0  0  0
  8 11  1  0  0  0  0
  9 10  1  0  0  0  0
  9 40  1  0  0  0  0
 10 41  1  0  0  0  0
 11 12  1  0  0  0  0
 11 42  1  0  0  0  0
 11 43  1  0  0  0  0
 12 13  1  0  0  0  0
 12 16  1  0  0  0  0
 12 34  1  6  0  0  0
 13 14  2  0  0  0  0
 13 15  1  0  0  0  0
 15 44  1  0  0  0  0
 15 45  1  0  0  0  0
 16 17  1  0  0  0  0
 16 46  1  0  0  0  0
 17 18  1  0  0  0  0
 17 19  2  0  0  0  0
 18 20  1  0  0  0  0
 18 21  1  0  0  0  0
 18 35  1  6  0  0  0
 20 28  1  0  0  0  0
 20 47  1  0  0  0  0
 21 22  1  0  0  0  0
 21 48  1  0  0  0  0
 21 49  1  0  0  0  0
 22 23  1  0  0  0  0
 22 27  2  0  0  0  0
 23 24  2  0  0  0  0
 23 50  1  0  0  0  0
 24 25  1  0  0  0  0
 24 51  1  0  0  0  0
 25 26  2  0  0  0  0
 25 52  1  0  0  0  0
 26 27  1  0  0  0  0
 26 53  1  0  0  0  0
 27 54  1  0  0  0  0
 28 29  2  0  0  0  0
 28 30  1  0  0  0  0
 30 55  1  0  0  0  0
 30 56  1  0  0  0  0
 30 57  1  0  0  0  0
M  END
>  <DRUGBANK_ID>
DB07651

>  <COMMON_NAME>
N-ACETYL-L-PHENYLALANYL-4-[DIFLUORO(PHOSPHONO)METHYL]-L-PHENYLALANINAMIDE

$$$$
