
 OpenBabel10282417072D

 66 71  0  0  1  0  0  0  0  0999 V2000
    3.6017    3.9187    0.0000 C   0  0  0  0  0  0  0  0  0  0  0  0
    4.0363    3.2175    0.0000 C   0  0  2  0  0  0  0  0  0  0  0  0
    4.8609    3.2432    0.0000 C   0  0  0  0  0  0  0  0  0  0  0  0
    5.2955    2.5420    0.0000 C   0  0  0  0  0  0  0  0  0  0  0  0
    6.1201    2.5677    0.0000 C   0  0  0  0  0  0  0  0  0  0  0  0
    6.5547    1.8665    0.0000 C   0  0  2  0  0  0  0  0  0  0  0  0
    7.3793    1.8923    0.0000 N   0  0  0  0  0  0  0  0  0  0  0  0
    7.7693    2.6193    0.0000 C   0  0  0  0  0  0  0  0  0  0  0  0
    8.5939    2.6450    0.0000 N   0  0  0  0  0  0  0  0  0  0  0  0
    9.0285    1.9438    0.0000 C   0  0  0  0  0  0  0  0  0  0  0  0
    8.6385    1.2168    0.0000 C   0  0  0  0  0  0  0  0  0  0  0  0
    7.8139    1.1910    0.0000 C   0  0  0  0  0  0  0  0  0  0  0  0
    7.4239    0.4640    0.0000 O   0  0  0  0  0  0  0  0  0  0  0  0
    9.8531    1.9696    0.0000 C   0  0  0  0  0  0  0  0  0  0  0  0
   10.2431    2.6966    0.0000 C   0  0  0  0  0  0  0  0  0  0  0  0
   11.0677    2.7223    0.0000 C   0  0  0  0  0  0  0  0  0  0  0  0
   11.4577    3.4493    0.0000 Cl  0  0  0  0  0  0  0  0  0  0  0  0
   11.5023    2.0211    0.0000 C   0  0  0  0  0  0  0  0  0  0  0  0
   11.1123    1.2941    0.0000 C   0  0  0  0  0  0  0  0  0  0  0  0
   10.2877    1.2683    0.0000 C   0  0  0  0  0  0  0  0  0  0  0  0
    9.8977    0.5413    0.0000 N   0  0  0  0  0  0  0  0  0  0  0  0
   10.2566   -0.2015    0.0000 C   0  0  0  0  0  0  0  0  0  0  0  0
    9.6611   -0.7724    0.0000 C   0  0  0  0  0  0  0  0  0  0  0  0
    9.7729   -1.5898    0.0000 Cl  0  0  0  0  0  0  0  0  0  0  0  0
    8.9341   -0.3824    0.0000 N   0  0  0  0  0  0  0  0  0  0  0  0
    9.0803    0.4295    0.0000 N   0  0  0  0  0  0  0  0  0  0  0  0
    6.1647    1.1395    0.0000 C   0  0  0  0  0  0  0  0  0  0  0  0
    5.3401    1.1137    0.0000 C   0  0  0  0  0  0  0  0  0  0  0  0
    4.9501    0.3867    0.0000 C   0  0  0  0  0  0  0  0  0  0  0  0
    5.3847   -0.3145    0.0000 C   0  0  0  0  0  0  0  0  0  0  0  0
    6.2093   -0.2887    0.0000 C   0  0  0  0  0  0  0  0  0  0  0  0
    6.5993    0.4383    0.0000 N   0  0  0  0  0  0  0  0  0  0  0  0
    4.1255    0.3610    0.0000 C   0  0  0  0  0  0  0  0  0  0  0  0
    3.6909    1.0622    0.0000 C   0  0  0  0  0  0  0  0  0  0  0  0
    4.0809    1.7892    0.0000 N   0  0  0  0  0  0  0  0  0  0  0  0
    3.6463    2.4905    0.0000 C   0  0  0  0  0  0  0  0  0  0  0  0
    2.8217    2.4647    0.0000 O   0  0  0  0  0  0  0  0  0  0  0  0
    2.8897    0.8656    0.0000 C   0  0  0  0  0  0  0  0  0  0  0  0
    2.8291    0.0428    0.0000 N   0  0  0  0  0  0  0  0  0  0  0  0
    3.5929   -0.2691    0.0000 N   0  0  0  0  0  0  0  0  0  0  0  0
    3.7896   -1.0703    0.0000 C   0  0  0  0  0  0  0  0  0  0  0  0
    4.5818   -1.3006    0.0000 F   0  0  0  0  0  0  0  0  0  0  0  0
    3.1940   -1.6412    0.0000 F   0  0  0  0  0  0  0  0  0  0  0  0
    4.1075    4.8616    0.0000 H   0  0  0  0  0  0  0  0  0  0  0  0
    2.5322    3.8853    0.0000 H   0  0  0  0  0  0  0  0  0  0  0  0
    3.0380    4.8282    0.0000 H   0  0  0  0  0  0  0  0  0  0  0  0
    4.5421    4.1604    0.0000 H   0  0  0  0  0  0  0  0  0  0  0  0
    5.3667    4.1861    0.0000 H   0  0  0  0  0  0  0  0  0  0  0  0
    5.9304    3.2766    0.0000 H   0  0  0  0  0  0  0  0  0  0  0  0
    4.7897    1.5991    0.0000 H   0  0  0  0  0  0  0  0  0  0  0  0
    5.8591    1.6325    0.0000 H   0  0  0  0  0  0  0  0  0  0  0  0
    6.6259    3.5106    0.0000 H   0  0  0  0  0  0  0  0  0  0  0  0
    7.1896    2.6011    0.0000 H   0  0  0  0  0  0  0  0  0  0  0  0
    7.0605    2.8094    0.0000 H   0  0  0  0  0  0  0  0  0  0  0  0
    7.2257    3.4965    0.0000 H   0  0  0  0  0  0  0  0  0  0  0  0
    9.1822    0.3396    0.0000 H   0  0  0  0  0  0  0  0  0  0  0  0
    9.6995    3.5738    0.0000 H   0  0  0  0  0  0  0  0  0  0  0  0
   12.5338    2.0533    0.0000 H   0  0  0  0  0  0  0  0  0  0  0  0
   11.6560    0.4169    0.0000 H   0  0  0  0  0  0  0  0  0  0  0  0
   11.2723   -0.3844    0.0000 H   0  0  0  0  0  0  0  0  0  0  0  0
    4.7964    1.9909    0.0000 H   0  0  0  0  0  0  0  0  0  0  0  0
    4.8969   -1.2239    0.0000 H   0  0  0  0  0  0  0  0  0  0  0  0
    6.7530   -1.1659    0.0000 H   0  0  0  0  0  0  0  0  0  0  0  0
    5.0649    1.8199    0.0000 H   0  0  0  0  0  0  0  0  0  0  0  0
    2.1016    1.5319    0.0000 H   0  0  0  0  0  0  0  0  0  0  0  0
    4.0446   -2.1095    0.0000 H   0  0  0  0  0  0  0  0  0  0  0  0
  1 44  1  0  0  0  0
  1 45  1  0  0  0  0
  1 46  1  0  0  0  0
  2  1  1  0  0  0  0
  2  3  1  0  0  0  0
  2 36  1  0  0  0  0
  2 47  1  1  0  0  0
  3  4  1  0  0  0  0
  3 48  1  0  0  0  0
  3 49  1  0  0  0  0
  4  5  1  0  0  0  0
  4 50  1  0  0  0  0
  4 51  1  0  0  0  0
  5 52  1  0  0  0  0
  5 53  1  0  0  0  0
  6  5  1  0  0  0  0
  6  7  1  0  0  0  0
  6 27  1  0  0  0  0
  6 54  1  1  0  0  0
  7  8  1  0  0  0  0
  7 12  1  0  0  0  0
  8  9  2  0  0  0  0
  8 55  1  0  0  0  0
  9 10  1  0  0  0  0
 10 11  2  0  0  0  0
 10 14  1  0  0  0  0
 11 12  1  0  0  0  0
 11 56  1  0  0  0  0
 12 13  2  0  0  0  0
 14 15  2  0  0  0  0
 14 20  1  0  0  0  0
 15 16  1  0  0  0  0
 15 57  1  0  0  0  0
 16 17  1  0  0  0  0
 16 18  2  0  0  0  0
 18 19  1  0  0  0  0
 18 58  1  0  0  0  0
 19 20  2  0  0  0  0
 19 59  1  0  0  0  0
 20 21  1  0  0  0  0
 21 22  1  0  0  0  0
 21 26  1  0  0  0  0
 22 23  2  0  0  0  0
 22 60  1  0  0  0  0
 23 24  1  0  0  0  0
 23 25  1  0  0  0  0
 25 26  2  0  0  0  0
 27 28  2  0  0  0  0
 27 32  1  0  0  0  0
 28 29  1  0  0  0  0
 28 61  1  0  0  0  0
 29 30  2  0  0  0  0
 29 33  1  0  0  0  0
 30 31  1  0  0  0  0
 30 62  1  0  0  0  0
 31 32  2  0  0  0  0
 31 63  1  0  0  0  0
 33 34  2  0  0  0  0
 33 40  1  0  0  0  0
 34 35  1  0  0  0  0
 34 38  1  0  0  0  0
 35 36  1  0  0  0  0
 35 64  1  0  0  0  0
 36 37  2  0  0  0  0
 38 39  2  0  0  0  0
 38 65  1  0  0  0  0
 39 40  1  0  0  0  0
 40 41  1  0  0  0  0
 41 42  1  0  0  0  0
 41 43  1  0  0  0  0
 41 66  1  0  0  0  0
M  END
>  <DRUGBANK_ID>
DB16233

>  <COMMON_NAME>
Milvexian

>  <CAS_NUMBER>
1802425-99-5

>  <UNII>
0W79NDQ608

>  <SYNONYMS>
Milvexian

$$$$
