
 OpenBabel10282417072D

 14 14  0  0  0  0  0  0  0  0999 V2000
    1.4290   -0.5692    0.0000 O   0  0  0  0  0  0  0  0  0  0  0  0
   -1.4290   -0.5692    0.0000 O   0  0  0  0  0  0  0  0  0  0  0  0
    0.0000   -0.5692    0.0000 N   0  0  0  0  0  0  0  0  0  0  0  0
   -0.7146    0.6682    0.0000 N   0  0  0  0  0  0  0  0  0  0  0  0
    0.7146   -0.1567    0.0000 C   0  0  2  0  0  0  0  0  0  0  0  0
    0.7146    0.6682    0.0000 C   0  0  0  0  0  0  0  0  0  0  0  0
   -0.7146   -0.1567    0.0000 C   0  0  0  0  0  0  0  0  0  0  0  0
    0.0000    1.0808    0.0000 C   0  0  0  0  0  0  0  0  0  0  0  0
    0.0000   -1.0808    0.0000 H   0  0  0  0  0  0  0  0  0  0  0  0
   -1.1575    0.9241    0.0000 H   0  0  0  0  0  0  0  0  0  0  0  0
    1.4290   -1.5392    0.0000 H   0  0  0  0  0  0  0  0  0  0  0  0
    0.7145   -1.2267    0.0000 H   0  0  0  0  0  0  0  0  0  0  0  0
    1.6083    1.1842    0.0000 H   0  0  0  0  0  0  0  0  0  0  0  0
    0.0000    2.1128    0.0000 H   0  0  0  0  0  0  0  0  0  0  0  0
  1 11  1  0  0  0  0
  2  7  2  0  0  0  0
  3  5  1  0  0  0  0
  3  7  1  0  0  0  0
  3  9  1  0  0  0  0
  4  7  1  0  0  0  0
  4  8  1  0  0  0  0
  4 10  1  0  0  0  0
  5  1  1  0  0  0  0
  5  6  1  0  0  0  0
  5 12  1  1  0  0  0
  6  8  2  0  0  0  0
  6 13  1  0  0  0  0
  8 14  1  0  0  0  0
M  END
>  <DRUGBANK_ID>
DB03939

>  <SECONDARY_ACCESSION_NUMBERS>
EXPT01777

>  <COMMON_NAME>
(4S)-4-hydroxy-3,4-dihydro-2(1H)-pyrimidinone

$$$$
