CLT
 OpenBabel10282417072D

 24 24  0  0  0  0  0  0  0  0999 V2000
    1.4968    0.4655    0.0000 C   0  0  0  0  0  0  0  0  0  0  0  0
    0.7823    0.0530    0.0000 C   0  0  0  0  0  0  0  0  0  0  0  0
    0.0678    0.4655    0.0000 C   0  0  0  0  0  0  0  0  0  0  0  0
   -0.6467    0.0530    0.0000 C   0  0  0  0  0  0  0  0  0  0  0  0
   -0.6467   -0.7720    0.0000 C   0  0  0  0  0  0  0  0  0  0  0  0
   -1.3611    0.4655    0.0000 C   0  0  0  0  0  0  0  0  0  0  0  0
   -1.3611   -1.1845    0.0000 C   0  0  0  0  0  0  0  0  0  0  0  0
   -2.0756    0.0530    0.0000 C   0  0  0  0  0  0  0  0  0  0  0  0
   -2.0756   -0.7720    0.0000 C   0  0  0  0  0  0  0  0  0  0  0  0
    2.2112    0.0530    0.0000 C   0  0  0  0  0  0  0  0  0  0  0  0
    2.9257    0.4655    0.0000 O   0  0  0  0  0  0  0  0  0  0  0  0
    2.2112   -0.7720    0.0000 O   0  0  0  0  0  0  0  0  0  0  0  0
    1.4968    1.5355    0.0000 H   0  0  0  0  0  0  0  0  0  0  0  0
    2.4235    1.0005    0.0000 H   0  0  0  0  0  0  0  0  0  0  0  0
    0.7823   -1.0170    0.0000 H   0  0  0  0  0  0  0  0  0  0  0  0
   -0.1443   -0.4820    0.0000 H   0  0  0  0  0  0  0  0  0  0  0  0
    0.0678    1.5355    0.0000 H   0  0  0  0  0  0  0  0  0  0  0  0
   -0.8588    1.0005    0.0000 H   0  0  0  0  0  0  0  0  0  0  0  0
    0.2470   -1.2880    0.0000 H   0  0  0  0  0  0  0  0  0  0  0  0
   -1.3611    1.4975    0.0000 H   0  0  0  0  0  0  0  0  0  0  0  0
   -1.3611   -2.2165    0.0000 H   0  0  0  0  0  0  0  0  0  0  0  0
   -2.9693    0.5690    0.0000 H   0  0  0  0  0  0  0  0  0  0  0  0
   -2.9693   -1.2880    0.0000 H   0  0  0  0  0  0  0  0  0  0  0  0
    1.3997   -1.2405    0.0000 H   0  0  0  0  0  0  0  0  0  0  0  0
  1  2  1  0  0  0  0
  1 10  1  0  0  0  0
  1 13  1  0  0  0  0
  1 14  1  0  0  0  0
  2  3  1  0  0  0  0
  2 15  1  0  0  0  0
  2 16  1  0  0  0  0
  3  4  1  0  0  0  0
  3 17  1  0  0  0  0
  3 18  1  0  0  0  0
  4  5  2  0  0  0  0
  4  6  1  0  0  0  0
  5  7  1  0  0  0  0
  5 19  1  0  0  0  0
  6  8  2  0  0  0  0
  6 20  1  0  0  0  0
  7  9  2  0  0  0  0
  7 21  1  0  0  0  0
  8  9  1  0  0  0  0
  8 22  1  0  0  0  0
  9 23  1  0  0  0  0
 10 11  2  0  0  0  0
 10 12  1  0  0  0  0
 12 24  1  0  0  0  0
M  END
>  <DRUGBANK_ID>
DB06819

>  <SECONDARY_ACCESSION_NUMBERS>
EXPT00947; DB02000; DB12600

>  <COMMON_NAME>
Phenylbutyric acid

>  <CAS_NUMBER>
1821-12-1

>  <UNII>
7WY7YBI87E

>  <SYNONYMS>
4-Phenyl-n-butyric acid; 4-phenylbutyrate; 4-phenylbutyric acid; Benzenebutyric acid; PBA; Phenylbutyrate; γ-Phenyl-n-butyric acid; γ-phenylbutyric acid; ω-Phenylbutanoic acid; ω-phenylbutyric acid

$$$$
