
 OpenBabel10282417072D

 57 60  0  0  0  0  0  0  0  0999 V2000
    5.3385    4.0824    0.0000 C   0  0  0  0  0  0  0  0  0  0  0  0
   10.0876    1.6704    0.0000 C   0  0  0  0  0  0  0  0  0  0  0  0
    7.7676    5.6887    0.0000 C   0  0  0  0  0  0  0  0  0  0  0  0
    9.2992    1.4272    0.0000 C   0  0  0  0  0  0  0  0  0  0  0  0
    7.1628    5.1276    0.0000 C   0  0  0  0  0  0  0  0  0  0  0  0
    6.7674    3.2574    0.0000 C   0  0  0  0  0  0  0  0  0  0  0  0
   10.2712    2.4747    0.0000 C   0  0  0  0  0  0  0  0  0  0  0  0
    8.5559    5.4456    0.0000 C   0  0  0  0  0  0  0  0  0  0  0  0
    8.6945    1.9884    0.0000 C   0  0  0  0  0  0  0  0  0  0  0  0
    7.3464    4.3233    0.0000 C   0  0  0  0  0  0  0  0  0  0  0  0
    9.9678    3.8038    0.0000 C   0  0  0  0  0  0  0  0  0  0  0  0
    9.5553    4.5183    0.0000 C   0  0  0  0  0  0  0  0  0  0  0  0
    2.4806    3.2574    0.0000 C   0  0  0  0  0  0  0  0  0  0  0  0
    3.1951    2.0199    0.0000 C   0  0  0  0  0  0  0  0  0  0  0  0
    1.7662    2.8449    0.0000 C   0  0  0  0  0  0  0  0  0  0  0  0
    2.4806    1.6074    0.0000 C   0  0  0  0  0  0  0  0  0  0  0  0
    6.0530    2.8449    0.0000 C   0  0  0  0  0  0  0  0  0  0  0  0
    7.4819    2.8449    0.0000 C   0  0  0  0  0  0  0  0  0  0  0  0
    4.6240    2.8449    0.0000 C   0  0  0  0  0  0  0  0  0  0  0  0
    9.6664    3.0358    0.0000 C   0  0  0  0  0  0  0  0  0  0  0  0
    8.7395    4.6412    0.0000 C   0  0  0  0  0  0  0  0  0  0  0  0
    3.1951    2.8449    0.0000 C   0  0  0  0  0  0  0  0  0  0  0  0
    1.7662    2.0199    0.0000 C   0  0  0  0  0  0  0  0  0  0  0  0
    8.8780    2.7927    0.0000 C   0  0  0  0  0  0  0  0  0  0  0  0
    8.1347    4.0801    0.0000 C   0  0  0  0  0  0  0  0  0  0  0  0
    3.9096    3.2574    0.0000 C   0  0  0  0  0  0  0  0  0  0  0  0
    1.0517    1.6074    0.0000 Cl  0  0  0  0  0  0  0  0  0  0  0  0
    5.3385    3.2574    0.0000 N   0  0  0  0  0  0  0  0  0  0  0  0
    8.1964    3.2574    0.0000 N   0  0  0  0  0  0  0  0  0  0  0  0
    3.9096    4.0824    0.0000 O   0  0  0  0  0  0  0  0  0  0  0  0
    6.2651    4.6174    0.0000 H   0  0  0  0  0  0  0  0  0  0  0  0
    4.4119    4.6174    0.0000 H   0  0  0  0  0  0  0  0  0  0  0  0
    5.3385    5.1524    0.0000 H   0  0  0  0  0  0  0  0  0  0  0  0
   10.8441    0.9685    0.0000 H   0  0  0  0  0  0  0  0  0  0  0  0
    7.5380    6.6948    0.0000 H   0  0  0  0  0  0  0  0  0  0  0  0
    9.0695    0.4211    0.0000 H   0  0  0  0  0  0  0  0  0  0  0  0
    6.1767    5.4318    0.0000 H   0  0  0  0  0  0  0  0  0  0  0  0
    6.7674    4.3274    0.0000 H   0  0  0  0  0  0  0  0  0  0  0  0
    7.6940    3.7924    0.0000 H   0  0  0  0  0  0  0  0  0  0  0  0
   11.2573    2.7789    0.0000 H   0  0  0  0  0  0  0  0  0  0  0  0
    9.3124    6.1476    0.0000 H   0  0  0  0  0  0  0  0  0  0  0  0
    7.7083    1.6842    0.0000 H   0  0  0  0  0  0  0  0  0  0  0  0
    6.5899    3.6214    0.0000 H   0  0  0  0  0  0  0  0  0  0  0  0
   11.0348    3.8838    0.0000 H   0  0  0  0  0  0  0  0  0  0  0  0
   10.6032    2.9429    0.0000 H   0  0  0  0  0  0  0  0  0  0  0  0
   10.1580    5.4024    0.0000 H   0  0  0  0  0  0  0  0  0  0  0  0
    9.1274    5.4990    0.0000 H   0  0  0  0  0  0  0  0  0  0  0  0
    2.4806    4.2894    0.0000 H   0  0  0  0  0  0  0  0  0  0  0  0
    4.0888    1.5039    0.0000 H   0  0  0  0  0  0  0  0  0  0  0  0
    0.8725    3.3609    0.0000 H   0  0  0  0  0  0  0  0  0  0  0  0
    2.4806    0.5754    0.0000 H   0  0  0  0  0  0  0  0  0  0  0  0
    6.0530    1.7749    0.0000 H   0  0  0  0  0  0  0  0  0  0  0  0
    5.1264    2.3099    0.0000 H   0  0  0  0  0  0  0  0  0  0  0  0
    7.4819    1.7749    0.0000 H   0  0  0  0  0  0  0  0  0  0  0  0
    8.4085    2.3099    0.0000 H   0  0  0  0  0  0  0  0  0  0  0  0
    4.6240    1.7749    0.0000 H   0  0  0  0  0  0  0  0  0  0  0  0
    5.5506    2.3099    0.0000 H   0  0  0  0  0  0  0  0  0  0  0  0
  1 31  1  0  0  0  0
  1 32  1  0  0  0  0
  1 33  1  0  0  0  0
  2 34  1  0  0  0  0
  3 35  1  0  0  0  0
  4  2  2  0  0  0  0
  4 36  1  0  0  0  0
  5  3  2  0  0  0  0
  5 37  1  0  0  0  0
  6 38  1  0  0  0  0
  6 39  1  0  0  0  0
  7  2  1  0  0  0  0
  7 40  1  0  0  0  0
  8  3  1  0  0  0  0
  8 41  1  0  0  0  0
  9  4  1  0  0  0  0
  9 42  1  0  0  0  0
 10  5  1  0  0  0  0
 10 43  1  0  0  0  0
 11 44  1  0  0  0  0
 11 45  1  0  0  0  0
 12 11  1  0  0  0  0
 12 46  1  0  0  0  0
 12 47  1  0  0  0  0
 13 48  1  0  0  0  0
 14 49  1  0  0  0  0
 15 13  1  0  0  0  0
 15 50  1  0  0  0  0
 16 14  2  0  0  0  0
 16 51  1  0  0  0  0
 17  6  1  0  0  0  0
 17 52  1  0  0  0  0
 17 53  1  0  0  0  0
 18  6  1  0  0  0  0
 18 54  1  0  0  0  0
 18 55  1  0  0  0  0
 19 56  1  0  0  0  0
 19 57  1  0  0  0  0
 20  7  2  0  0  0  0
 20 11  1  0  0  0  0
 21  8  2  0  0  0  0
 21 12  1  0  0  0  0
 22 13  2  0  0  0  0
 22 14  1  0  0  0  0
 23 15  2  0  0  0  0
 23 16  1  0  0  0  0
 24  9  2  0  0  0  0
 24 20  1  0  0  0  0
 25 10  2  0  0  0  0
 25 21  1  0  0  0  0
 26 19  1  0  0  0  0
 26 22  1  0  0  0  0
 27 23  1  0  0  0  0
 28  1  1  0  0  0  0
 28 17  1  0  0  0  0
 28 19  1  0  0  0  0
 29 18  1  0  0  0  0
 29 24  1  0  0  0  0
 29 25  1  0  0  0  0
 30 26  2  0  0  0  0
M  END
>  <DRUGBANK_ID>
DB13411

>  <COMMON_NAME>
Lofepramine

>  <CAS_NUMBER>
23047-25-8

>  <UNII>
OCA4JT7PAW

>  <SYNONYMS>
Lofepramine

$$$$
