MIB
 OpenBabel10282417072D

 28 29  0  0  0  0  0  0  0  0999 V2000
   -2.3368   -1.8209    0.0000 O   0  0  0  0  0  0  0  0  0  0  0  0
   -1.5298   -1.6494    0.0000 C   0  0  0  0  0  0  0  0  0  0  0  0
   -0.9778   -2.2625    0.0000 C   0  0  0  0  0  0  0  0  0  0  0  0
   -1.2748   -0.8647    0.0000 C   0  0  0  0  0  0  0  0  0  0  0  0
   -0.4679   -0.6932    0.0000 C   0  0  0  0  0  0  0  0  0  0  0  0
   -0.2129    0.0914    0.0000 C   0  0  0  0  0  0  0  0  0  0  0  0
   -0.6979    0.7589    0.0000 C   0  0  0  0  0  0  0  0  0  0  0  0
    0.5717    0.3464    0.0000 C   0  0  0  0  0  0  0  0  0  0  0  0
   -0.2129    1.4263    0.0000 N   0  0  0  0  0  0  0  0  0  0  0  0
   -0.4679    2.2109    0.0000 C   0  0  0  0  0  0  0  0  0  0  0  0
    0.5717    1.1714    0.0000 C   0  0  0  0  0  0  0  0  0  0  0  0
    1.2862   -0.0661    0.0000 C   0  0  0  0  0  0  0  0  0  0  0  0
    1.2862    1.5839    0.0000 C   0  0  0  0  0  0  0  0  0  0  0  0
    2.0006    0.3464    0.0000 C   0  0  0  0  0  0  0  0  0  0  0  0
    2.0006    1.1714    0.0000 C   0  0  0  0  0  0  0  0  0  0  0  0
   -1.3085   -3.2801    0.0000 H   0  0  0  0  0  0  0  0  0  0  0  0
    0.0688   -2.0401    0.0000 H   0  0  0  0  0  0  0  0  0  0  0  0
   -0.2619   -3.0577    0.0000 H   0  0  0  0  0  0  0  0  0  0  0  0
   -1.9653   -0.0978    0.0000 H   0  0  0  0  0  0  0  0  0  0  0  0
    0.2226   -1.4602    0.0000 H   0  0  0  0  0  0  0  0  0  0  0  0
   -1.7299    0.7589    0.0000 H   0  0  0  0  0  0  0  0  0  0  0  0
    0.2480    3.0061    0.0000 H   0  0  0  0  0  0  0  0  0  0  0  0
   -1.5145    2.4333    0.0000 H   0  0  0  0  0  0  0  0  0  0  0  0
   -0.7986    3.2285    0.0000 H   0  0  0  0  0  0  0  0  0  0  0  0
    1.2862   -1.0981    0.0000 H   0  0  0  0  0  0  0  0  0  0  0  0
    1.2862    2.6159    0.0000 H   0  0  0  0  0  0  0  0  0  0  0  0
    2.8943   -0.1696    0.0000 H   0  0  0  0  0  0  0  0  0  0  0  0
    2.8943    1.6874    0.0000 H   0  0  0  0  0  0  0  0  0  0  0  0
  1  2  2  0  0  0  0
  2  3  1  0  0  0  0
  2  4  1  0  0  0  0
  3 16  1  0  0  0  0
  3 17  1  0  0  0  0
  3 18  1  0  0  0  0
  4  5  2  0  0  0  0
  4 19  1  0  0  0  0
  5  6  1  0  0  0  0
  5 20  1  0  0  0  0
  6  7  2  0  0  0  0
  6  8  1  0  0  0  0
  7  9  1  0  0  0  0
  7 21  1  0  0  0  0
  8 11  1  0  0  0  0
  8 12  2  0  0  0  0
  9 10  1  0  0  0  0
  9 11  1  0  0  0  0
 10 22  1  0  0  0  0
 10 23  1  0  0  0  0
 10 24  1  0  0  0  0
 11 13  2  0  0  0  0
 12 14  1  0  0  0  0
 12 25  1  0  0  0  0
 13 15  1  0  0  0  0
 13 26  1  0  0  0  0
 14 15  2  0  0  0  0
 14 27  1  0  0  0  0
 15 28  1  0  0  0  0
M  END
>  <DRUGBANK_ID>
DB08186

>  <COMMON_NAME>
(3E)-4-(1-METHYL-1H-INDOL-3-YL)BUT-3-EN-2-ONE

$$$$
