
 OpenBabel10282417072D

 18 18  0  0  0  0  0  0  0  0999 V2000
    0.0000    1.8716    0.0000 S   0  0  3  0  0  0  0  0  0  0  0  0
    0.0000   -1.4286    0.0000 O   0  0  0  0  0  0  0  0  0  0  0  0
    0.7145    2.2842    0.0000 O   0  5  0  0  0  0  0  0  0  0  0  0
   -0.7146    2.2842    0.0000 O   0  0  0  0  0  0  0  0  0  0  0  0
    0.0000   -0.6035    0.0000 C   0  0  0  0  0  0  0  0  0  0  0  0
    0.0000    1.0465    0.0000 C   0  0  0  0  0  0  0  0  0  0  0  0
   -0.7146   -0.1910    0.0000 C   0  0  0  0  0  0  0  0  0  0  0  0
    0.7145   -0.1910    0.0000 C   0  0  0  0  0  0  0  0  0  0  0  0
   -0.7146    0.6339    0.0000 C   0  0  0  0  0  0  0  0  0  0  0  0
    0.7145    0.6339    0.0000 C   0  0  0  0  0  0  0  0  0  0  0  0
   -0.7146   -1.8411    0.0000 C   0  0  0  0  0  0  0  0  0  0  0  0
   -1.6083   -0.7070    0.0000 H   0  0  0  0  0  0  0  0  0  0  0  0
    1.6082   -0.7070    0.0000 H   0  0  0  0  0  0  0  0  0  0  0  0
   -1.6083    1.1499    0.0000 H   0  0  0  0  0  0  0  0  0  0  0  0
    1.6083    1.1499    0.0000 H   0  0  0  0  0  0  0  0  0  0  0  0
   -1.6412   -1.3060    0.0000 H   0  0  0  0  0  0  0  0  0  0  0  0
   -0.7147   -2.9111    0.0000 H   0  0  0  0  0  0  0  0  0  0  0  0
   -1.6413   -2.3760    0.0000 H   0  0  0  0  0  0  0  0  0  0  0  0
  1  3  1  0  0  0  0
  1  4  2  0  0  0  0
  1  6  1  0  0  0  0
  2  5  1  0  0  0  0
  2 11  1  0  0  0  0
  5  7  2  0  0  0  0
  5  8  1  0  0  0  0
  6  9  2  0  0  0  0
  6 10  1  0  0  0  0
  7  9  1  0  0  0  0
  7 12  1  0  0  0  0
  8 10  2  0  0  0  0
  8 13  1  0  0  0  0
  9 14  1  0  0  0  0
 10 15  1  0  0  0  0
 11 16  1  0  0  0  0
 11 17  1  0  0  0  0
 11 18  1  0  0  0  0
M  CHG  1   3  -1
M  END
>  <DRUGBANK_ID>
DB03033

>  <SECONDARY_ACCESSION_NUMBERS>
EXPT02236

>  <COMMON_NAME>
4-methoxybenzenesulfinate

>  <SYNONYMS>
1-methyloxy-4-sulfone-benzene

$$$$
