KIN
 OpenBabel10282417072D

 41 43  0  0  0  0  0  0  0  0999 V2000
    4.6747   -0.2083    0.0000 C   0  0  0  0  0  0  0  0  0  0  0  0
    5.3891   -0.6208    0.0000 C   0  0  0  0  0  0  0  0  0  0  0  0
    1.1023   -1.4458    0.0000 C   0  0  0  0  0  0  0  0  0  0  0  0
    0.3878   -1.8583    0.0000 C   0  0  0  0  0  0  0  0  0  0  0  0
   -0.3266   -1.4458    0.0000 C   0  0  0  0  0  0  0  0  0  0  0  0
    0.3878   -0.2083    0.0000 C   0  0  0  0  0  0  0  0  0  0  0  0
   -1.0411    0.6167    0.0000 C   0  0  0  0  0  0  0  0  0  0  0  0
   -1.7556    1.0292    0.0000 C   0  0  0  0  0  0  0  0  0  0  0  0
   -1.7556    1.8542    0.0000 C   0  0  0  0  0  0  0  0  0  0  0  0
    6.8181   -2.2708    0.0000 F   0  0  0  0  0  0  0  0  0  0  0  0
    6.1036   -1.8583    0.0000 C   0  0  0  0  0  0  0  0  0  0  0  0
    5.6911   -2.5727    0.0000 F   0  0  0  0  0  0  0  0  0  0  0  0
    6.5161   -1.1438    0.0000 F   0  0  0  0  0  0  0  0  0  0  0  0
    5.3891   -1.4458    0.0000 C   0  0  0  0  0  0  0  0  0  0  0  0
    4.6747   -1.8583    0.0000 C   0  0  0  0  0  0  0  0  0  0  0  0
    3.9602   -1.4458    0.0000 C   0  0  0  0  0  0  0  0  0  0  0  0
    3.9602   -0.6208    0.0000 C   0  0  0  0  0  0  0  0  0  0  0  0
    3.2457   -1.8583    0.0000 N   0  0  0  0  0  0  0  0  0  0  0  0
    2.5312   -1.4458    0.0000 C   0  0  0  0  0  0  0  0  0  0  0  0
    2.5312   -0.6208    0.0000 O   0  0  0  0  0  0  0  0  0  0  0  0
    1.8168   -1.8583    0.0000 N   0  0  0  0  0  0  0  0  0  0  0  0
   -0.3266   -0.6208    0.0000 C   0  0  0  0  0  0  0  0  0  0  0  0
    1.1023   -0.6208    0.0000 C   0  0  0  0  0  0  0  0  0  0  0  0
   -1.0411   -0.2083    0.0000 O   0  0  0  0  0  0  0  0  0  0  0  0
   -1.0411    2.2667    0.0000 N   0  0  0  0  0  0  0  0  0  0  0  0
   -0.3266    1.8542    0.0000 C   0  0  0  0  0  0  0  0  0  0  0  0
   -0.3266    1.0292    0.0000 C   0  0  0  0  0  0  0  0  0  0  0  0
    4.6747    0.8237    0.0000 H   0  0  0  0  0  0  0  0  0  0  0  0
    6.2828   -0.1048    0.0000 H   0  0  0  0  0  0  0  0  0  0  0  0
    0.3878   -2.8903    0.0000 H   0  0  0  0  0  0  0  0  0  0  0  0
   -1.2203   -1.9618    0.0000 H   0  0  0  0  0  0  0  0  0  0  0  0
    0.3878    0.8237    0.0000 H   0  0  0  0  0  0  0  0  0  0  0  0
   -2.6493    0.5132    0.0000 H   0  0  0  0  0  0  0  0  0  0  0  0
   -2.6493    2.3702    0.0000 H   0  0  0  0  0  0  0  0  0  0  0  0
    4.6747   -2.8903    0.0000 H   0  0  0  0  0  0  0  0  0  0  0  0
    3.0665   -0.1048    0.0000 H   0  0  0  0  0  0  0  0  0  0  0  0
    3.2457   -2.8428    0.0000 H   0  0  0  0  0  0  0  0  0  0  0  0
    1.8168   -2.8428    0.0000 H   0  0  0  0  0  0  0  0  0  0  0  0
    1.9960   -0.1048    0.0000 H   0  0  0  0  0  0  0  0  0  0  0  0
    0.5671    2.3702    0.0000 H   0  0  0  0  0  0  0  0  0  0  0  0
    0.5671    0.5132    0.0000 H   0  0  0  0  0  0  0  0  0  0  0  0
  1  2  2  0  0  0  0
  1 17  1  0  0  0  0
  1 28  1  0  0  0  0
  2 14  1  0  0  0  0
  2 29  1  0  0  0  0
  3  4  2  0  0  0  0
  3 23  1  0  0  0  0
  3 21  1  0  0  0  0
  4  5  1  0  0  0  0
  4 30  1  0  0  0  0
  5 22  2  0  0  0  0
  5 31  1  0  0  0  0
  6 22  1  0  0  0  0
  6 23  2  0  0  0  0
  6 32  1  0  0  0  0
  7  8  2  0  0  0  0
  7 27  1  0  0  0  0
  7 24  1  0  0  0  0
  8  9  1  0  0  0  0
  8 33  1  0  0  0  0
  9 25  2  0  0  0  0
  9 34  1  0  0  0  0
 10 11  1  0  0  0  0
 11 13  1  0  0  0  0
 11 12  1  0  0  0  0
 11 14  1  0  0  0  0
 14 15  2  0  0  0  0
 15 16  1  0  0  0  0
 15 35  1  0  0  0  0
 16 18  1  0  0  0  0
 16 17  2  0  0  0  0
 17 36  1  0  0  0  0
 18 19  1  0  0  0  0
 18 37  1  0  0  0  0
 19 20  2  0  0  0  0
 19 21  1  0  0  0  0
 21 38  1  0  0  0  0
 22 24  1  0  0  0  0
 23 39  1  0  0  0  0
 25 26  1  0  0  0  0
 26 27  2  0  0  0  0
 26 40  1  0  0  0  0
 27 41  1  0  0  0  0
M  END
>  <DRUGBANK_ID>
DB08043

>  <COMMON_NAME>
1-[4-(PYRIDIN-4-YLOXY)PHENYL]-3-[3-(TRIFLUOROMETHYL)PHENYL]UREA

$$$$
