
 OpenBabel10282417072D

 54 54  0  0  1  0  0  0  0  0999 V2000
    2.1434   -6.1875    0.0000 C   0  0  0  0  0  0  0  0  0  0  0  0
    2.8579   -6.6000    0.0000 C   0  0  0  0  0  0  0  0  0  0  0  0
    2.8579   -7.4250    0.0000 C   0  0  0  0  0  0  0  0  0  0  0  0
    3.5724   -6.1875    0.0000 C   0  0  0  0  0  0  0  0  0  0  0  0
    4.2868   -6.6000    0.0000 C   0  0  2  0  0  0  0  0  0  0  0  0
    5.0013   -6.1875    0.0000 N   0  0  0  0  0  0  0  0  0  0  0  0
    5.7158   -6.6000    0.0000 C   0  0  0  0  0  0  0  0  0  0  0  0
    5.7158   -7.4250    0.0000 O   0  0  0  0  0  0  0  0  0  0  0  0
    6.4302   -6.1875    0.0000 C   0  0  2  0  0  0  0  0  0  0  0  0
    6.4302   -5.3625    0.0000 C   0  0  0  0  0  0  0  0  0  0  0  0
    7.1447   -4.9500    0.0000 O   0  0  0  0  0  0  0  0  0  0  0  0
    7.1447   -6.6000    0.0000 N   0  0  0  0  0  0  0  0  0  0  0  0
    7.8592   -6.1875    0.0000 C   0  0  0  0  0  0  0  0  0  0  0  0
    7.8592   -5.3625    0.0000 O   0  0  0  0  0  0  0  0  0  0  0  0
    8.5737   -6.6000    0.0000 C   0  0  1  0  0  0  0  0  0  0  0  0
    8.5737   -7.4250    0.0000 N   0  0  0  0  0  0  0  0  0  0  0  0
    9.2881   -6.1875    0.0000 C   0  0  0  0  0  0  0  0  0  0  0  0
   10.0026   -6.6000    0.0000 C   0  0  0  0  0  0  0  0  0  0  0  0
   10.7171   -6.1875    0.0000 C   0  0  0  0  0  0  0  0  0  0  0  0
   11.4315   -6.6000    0.0000 C   0  0  0  0  0  0  0  0  0  0  0  0
   11.4315   -7.4250    0.0000 C   0  0  0  0  0  0  0  0  0  0  0  0
   12.1460   -7.8375    0.0000 O   0  0  0  0  0  0  0  0  0  0  0  0
   10.7171   -7.8375    0.0000 C   0  0  0  0  0  0  0  0  0  0  0  0
   10.0026   -7.4250    0.0000 C   0  0  0  0  0  0  0  0  0  0  0  0
    4.2868   -7.4250    0.0000 C   0  0  0  0  0  0  0  0  0  0  0  0
    5.0013   -7.8375    0.0000 O   0  0  0  0  0  0  0  0  0  0  0  0
    3.5724   -7.8375    0.0000 O   0  0  0  0  0  0  0  0  0  0  0  0
    2.1434   -5.1175    0.0000 H   0  0  0  0  0  0  0  0  0  0  0  0
    1.2168   -6.7225    0.0000 H   0  0  0  0  0  0  0  0  0  0  0  0
    1.2167   -5.6525    0.0000 H   0  0  0  0  0  0  0  0  0  0  0  0
    3.7845   -7.1350    0.0000 H   0  0  0  0  0  0  0  0  0  0  0  0
    1.9313   -7.9600    0.0000 H   0  0  0  0  0  0  0  0  0  0  0  0
    3.7845   -7.9600    0.0000 H   0  0  0  0  0  0  0  0  0  0  0  0
    2.8579   -8.4950    0.0000 H   0  0  0  0  0  0  0  0  0  0  0  0
    3.5724   -5.1175    0.0000 H   0  0  0  0  0  0  0  0  0  0  0  0
    4.4991   -5.6525    0.0000 H   0  0  0  0  0  0  0  0  0  0  0  0
    4.2868   -5.5300    0.0000 H   0  0  0  0  0  0  0  0  0  0  0  0
    5.0013   -5.2030    0.0000 H   0  0  0  0  0  0  0  0  0  0  0  0
    6.4302   -7.2575    0.0000 H   0  0  0  0  0  0  0  0  0  0  0  0
    5.5036   -4.8275    0.0000 H   0  0  0  0  0  0  0  0  0  0  0  0
    6.4302   -4.2925    0.0000 H   0  0  0  0  0  0  0  0  0  0  0  0
    7.9847   -5.4350    0.0000 H   0  0  0  0  0  0  0  0  0  0  0  0
    7.1447   -7.5845    0.0000 H   0  0  0  0  0  0  0  0  0  0  0  0
    7.6471   -7.1350    0.0000 H   0  0  0  0  0  0  0  0  0  0  0  0
    7.6904   -7.9350    0.0000 H   0  0  0  0  0  0  0  0  0  0  0  0
    9.4570   -7.9350    0.0000 H   0  0  0  0  0  0  0  0  0  0  0  0
    9.2881   -5.1175    0.0000 H   0  0  0  0  0  0  0  0  0  0  0  0
   10.2147   -5.6525    0.0000 H   0  0  0  0  0  0  0  0  0  0  0  0
   10.7171   -5.1555    0.0000 H   0  0  0  0  0  0  0  0  0  0  0  0
   12.3252   -6.0840    0.0000 H   0  0  0  0  0  0  0  0  0  0  0  0
   12.1460   -8.7745    0.0000 H   0  0  0  0  0  0  0  0  0  0  0  0
   10.7171   -8.8695    0.0000 H   0  0  0  0  0  0  0  0  0  0  0  0
    9.1089   -7.9410    0.0000 H   0  0  0  0  0  0  0  0  0  0  0  0
    5.0013   -8.7745    0.0000 H   0  0  0  0  0  0  0  0  0  0  0  0
  1  2  1  0  0  0  0
  1 28  1  0  0  0  0
  1 29  1  0  0  0  0
  1 30  1  0  0  0  0
  2  3  1  0  0  0  0
  2  4  1  0  0  0  0
  2 31  1  0  0  0  0
  3 32  1  0  0  0  0
  3 33  1  0  0  0  0
  3 34  1  0  0  0  0
  4 35  1  0  0  0  0
  4 36  1  0  0  0  0
  5  4  1  0  0  0  0
  5  6  1  0  0  0  0
  5 25  1  0  0  0  0
  5 37  1  1  0  0  0
  6  7  1  0  0  0  0
  6 38  1  0  0  0  0
  7  8  2  0  0  0  0
  9  7  1  0  0  0  0
  9 10  1  0  0  0  0
  9 12  1  0  0  0  0
  9 39  1  1  0  0  0
 10 11  1  0  0  0  0
 10 40  1  0  0  0  0
 10 41  1  0  0  0  0
 11 42  1  0  0  0  0
 12 13  1  0  0  0  0
 12 43  1  0  0  0  0
 13 14  2  0  0  0  0
 15 13  1  0  0  0  0
 15 16  1  0  0  0  0
 15 17  1  0  0  0  0
 15 44  1  1  0  0  0
 16 45  1  0  0  0  0
 16 46  1  0  0  0  0
 17 18  1  0  0  0  0
 17 47  1  0  0  0  0
 17 48  1  0  0  0  0
 18 19  2  0  0  0  0
 18 24  1  0  0  0  0
 19 20  1  0  0  0  0
 19 49  1  0  0  0  0
 20 21  2  0  0  0  0
 20 50  1  0  0  0  0
 21 22  1  0  0  0  0
 21 23  1  0  0  0  0
 22 51  1  0  0  0  0
 23 24  2  0  0  0  0
 23 52  1  0  0  0  0
 24 53  1  0  0  0  0
 25 26  1  0  0  0  0
 25 27  2  0  0  0  0
 26 54  1  0  0  0  0
M  END
>  <DRUGBANK_ID>
DB17300

>  <COMMON_NAME>
Tyroserleutide

>  <CAS_NUMBER>
138168-48-6

>  <UNII>
L9TIM50J8N

>  <SYNONYMS>
L-leucine, l-tyrosyl-l-seryl-; L-tyrosine-l-serine-l-leucine

$$$$
