U05
 OpenBabel10282417072D

 36 38  0  0  0  0  0  0  0  0999 V2000
   -1.4800   -0.8523    0.0000 N   0  0  0  0  0  0  0  0  0  0  0  0
   -2.2684   -0.6092    0.0000 C   0  0  0  0  0  0  0  0  0  0  0  0
   -2.4519    0.1952    0.0000 C   0  0  0  0  0  0  0  0  0  0  0  0
   -1.8472    0.7563    0.0000 C   0  0  0  0  0  0  0  0  0  0  0  0
   -1.0588    0.5131    0.0000 C   0  0  0  0  0  0  0  0  0  0  0  0
   -0.5444    1.1581    0.0000 C   0  0  0  0  0  0  0  0  0  0  0  0
   -0.9024    1.9014    0.0000 O   0  0  0  0  0  0  0  0  0  0  0  0
    0.2806    1.1581    0.0000 N   0  0  0  0  0  0  0  0  0  0  0  0
    0.6385    1.9014    0.0000 C   0  0  0  0  0  0  0  0  0  0  0  0
    0.7949    0.5131    0.0000 C   0  0  0  0  0  0  0  0  0  0  0  0
    1.5833    0.7563    0.0000 C   0  0  0  0  0  0  0  0  0  0  0  0
    2.1881    0.1952    0.0000 C   0  0  0  0  0  0  0  0  0  0  0  0
    2.0045   -0.6092    0.0000 C   0  0  0  0  0  0  0  0  0  0  0  0
    2.6092   -1.1703    0.0000 N   0  3  0  0  0  0  0  0  0  0  0  0
    3.3976   -0.9271    0.0000 O   0  5  0  0  0  0  0  0  0  0  0  0
    2.4257   -1.9746    0.0000 O   0  0  0  0  0  0  0  0  0  0  0  0
    1.2161   -0.8523    0.0000 C   0  0  0  0  0  0  0  0  0  0  0  0
    0.6114   -0.2912    0.0000 C   0  0  0  0  0  0  0  0  0  0  0  0
   -0.1319   -0.6491    0.0000 N   0  0  0  0  0  0  0  0  0  0  0  0
   -0.1319   -1.4741    0.0000 C   0  0  0  0  0  0  0  0  0  0  0  0
   -0.8464   -1.8866    0.0000 C   0  0  0  0  0  0  0  0  0  0  0  0
   -0.8752   -0.2912    0.0000 C   0  0  0  0  0  0  0  0  0  0  0  0
   -3.0249   -1.3111    0.0000 H   0  0  0  0  0  0  0  0  0  0  0  0
   -3.4380    0.4994    0.0000 H   0  0  0  0  0  0  0  0  0  0  0  0
   -2.0768    1.7624    0.0000 H   0  0  0  0  0  0  0  0  0  0  0  0
    1.7055    1.9814    0.0000 H   0  0  0  0  0  0  0  0  0  0  0  0
    0.0357    2.7854    0.0000 H   0  0  0  0  0  0  0  0  0  0  0  0
    1.1027    2.8655    0.0000 H   0  0  0  0  0  0  0  0  0  0  0  0
    1.8129    1.7624    0.0000 H   0  0  0  0  0  0  0  0  0  0  0  0
    3.1742    0.4994    0.0000 H   0  0  0  0  0  0  0  0  0  0  0  0
    0.9864   -1.8584    0.0000 H   0  0  0  0  0  0  0  0  0  0  0  0
    0.7947   -2.0091    0.0000 H   0  0  0  0  0  0  0  0  0  0  0  0
   -0.1319   -2.5441    0.0000 H   0  0  0  0  0  0  0  0  0  0  0  0
   -1.7730   -1.3516    0.0000 H   0  0  0  0  0  0  0  0  0  0  0  0
   -0.8464   -2.9566    0.0000 H   0  0  0  0  0  0  0  0  0  0  0  0
   -1.7731   -2.4216    0.0000 H   0  0  0  0  0  0  0  0  0  0  0  0
  1  2  2  0  0  0  0
  1 22  1  0  0  0  0
  2  3  1  0  0  0  0
  2 23  1  0  0  0  0
  3  4  2  0  0  0  0
  3 24  1  0  0  0  0
  4  5  1  0  0  0  0
  4 25  1  0  0  0  0
  5  6  1  0  0  0  0
  5 22  2  0  0  0  0
  6  7  2  0  0  0  0
  6  8  1  0  0  0  0
  8  9  1  0  0  0  0
  8 10  1  0  0  0  0
  9 26  1  0  0  0  0
  9 27  1  0  0  0  0
  9 28  1  0  0  0  0
 10 11  2  0  0  0  0
 10 18  1  0  0  0  0
 11 12  1  0  0  0  0
 11 29  1  0  0  0  0
 12 13  2  0  0  0  0
 12 30  1  0  0  0  0
 13 14  1  0  0  0  0
 13 17  1  0  0  0  0
 14 15  1  0  0  0  0
 14 16  2  0  0  0  0
 17 18  2  0  0  0  0
 17 31  1  0  0  0  0
 18 19  1  0  0  0  0
 19 20  1  0  0  0  0
 19 22  1  0  0  0  0
 20 21  1  0  0  0  0
 20 32  1  0  0  0  0
 20 33  1  0  0  0  0
 21 34  1  0  0  0  0
 21 35  1  0  0  0  0
 21 36  1  0  0  0  0
M  CHG  2  14   1  15  -1
M  END
>  <DRUGBANK_ID>
DB08665

>  <COMMON_NAME>
6,11-DIHYDRO-11-ETHYL-6-METHYL-9-NITRO-5H-PYRIDO[2,3-B][1,5]BENZODIAZEPIN-5-ONE

>  <UNII>
KOO1113T0V

$$$$
