
 OpenBabel10282417072D

 68 72  0  0  1  0  0  0  0  0999 V2000
    8.9513  -14.3137    0.0000 C   0  0  0  0  0  0  0  0  0  0  0  0
    8.9513  -15.1387    0.0000 C   0  0  0  0  0  0  0  0  0  0  0  0
    9.6657  -15.5512    0.0000 C   0  0  0  0  0  0  0  0  0  0  0  0
   10.3802  -15.1387    0.0000 C   0  0  0  0  0  0  0  0  0  0  0  0
   10.3802  -14.3137    0.0000 C   0  0  0  0  0  0  0  0  0  0  0  0
    9.6657  -13.9012    0.0000 C   0  0  0  0  0  0  0  0  0  0  0  0
   11.0947  -13.9012    0.0000 C   0  0  0  0  0  0  0  0  0  0  0  0
   11.0947  -13.0762    0.0000 C   0  0  0  0  0  0  0  0  0  0  0  0
   10.3802  -12.6637    0.0000 C   0  0  0  0  0  0  0  0  0  0  0  0
    9.6657  -13.0762    0.0000 N   0  0  0  0  0  0  0  0  0  0  0  0
   11.8103  -12.6630    0.0000 C   0  0  2  0  0  0  0  0  0  0  0  0
   12.5154  -13.0702    0.0000 C   0  0  1  0  0  0  0  0  0  0  0  0
   11.8103  -11.8389    0.0000 C   0  0  0  0  0  0  0  0  0  0  0  0
   10.3802  -11.8389    0.0000 O   0  0  0  0  0  0  0  0  0  0  0  0
    9.6768  -11.4327    0.0000 C   0  0  0  0  0  0  0  0  0  0  0  0
   13.2148  -12.6665    0.0000 C   0  0  0  0  0  0  0  0  0  0  0  0
   12.5155  -13.9011    0.0000 C   0  0  0  0  0  0  0  0  0  0  0  0
   13.9169  -13.0720    0.0000 C   0  0  0  0  0  0  0  0  0  0  0  0
   14.6178  -12.6673    0.0000 N   0  0  0  0  0  0  0  0  0  0  0  0
   15.3192  -13.0724    0.0000 C   0  0  0  0  0  0  0  0  0  0  0  0
   14.6179  -11.8389    0.0000 C   0  0  0  0  0  0  0  0  0  0  0  0
   11.7885  -14.3210    0.0000 C   0  0  0  0  0  0  0  0  0  0  0  0
   11.7887  -15.1460    0.0000 C   0  0  0  0  0  0  0  0  0  0  0  0
   12.5033  -15.5583    0.0000 C   0  0  0  0  0  0  0  0  0  0  0  0
   13.2302  -15.1384    0.0000 C   0  0  0  0  0  0  0  0  0  0  0  0
   13.2301  -14.3134    0.0000 C   0  0  0  0  0  0  0  0  0  0  0  0
   13.9448  -15.5507    0.0000 C   0  0  0  0  0  0  0  0  0  0  0  0
   14.6592  -15.1380    0.0000 C   0  0  0  0  0  0  0  0  0  0  0  0
   14.6590  -14.3130    0.0000 C   0  0  0  0  0  0  0  0  0  0  0  0
   13.9444  -13.9007    0.0000 C   0  0  0  0  0  0  0  0  0  0  0  0
   12.5152  -11.4318    0.0000 C   0  0  0  0  0  0  0  0  0  0  0  0
   12.5151  -10.6068    0.0000 C   0  0  0  0  0  0  0  0  0  0  0  0
   11.8006  -10.1944    0.0000 C   0  0  0  0  0  0  0  0  0  0  0  0
   11.0958  -10.6014    0.0000 C   0  0  0  0  0  0  0  0  0  0  0  0
   11.0958  -11.4264    0.0000 C   0  0  0  0  0  0  0  0  0  0  0  0
   13.2299  -13.4827    0.0000 O   0  0  0  0  0  0  0  0  0  0  0  0
    9.6657  -16.3761    0.0000 Br  0  0  0  0  0  0  0  0  0  0  0  0
    8.0576  -13.7977    0.0000 H   0  0  0  0  0  0  0  0  0  0  0  0
    8.0576  -15.6547    0.0000 H   0  0  0  0  0  0  0  0  0  0  0  0
   11.2739  -15.6547    0.0000 H   0  0  0  0  0  0  0  0  0  0  0  0
   11.9884  -14.4172    0.0000 H   0  0  0  0  0  0  0  0  0  0  0  0
   10.8836  -12.1280    0.0000 H   0  0  0  0  0  0  0  0  0  0  0  0
    9.6769  -10.3627    0.0000 H   0  0  0  0  0  0  0  0  0  0  0  0
    8.7501  -11.9676    0.0000 H   0  0  0  0  0  0  0  0  0  0  0  0
    8.7502  -10.8976    0.0000 H   0  0  0  0  0  0  0  0  0  0  0  0
   13.2149  -11.5965    0.0000 H   0  0  0  0  0  0  0  0  0  0  0  0
   14.1415  -12.1316    0.0000 H   0  0  0  0  0  0  0  0  0  0  0  0
   13.9168  -14.1420    0.0000 H   0  0  0  0  0  0  0  0  0  0  0  0
   14.8435  -13.6070    0.0000 H   0  0  0  0  0  0  0  0  0  0  0  0
   15.3190  -14.1424    0.0000 H   0  0  0  0  0  0  0  0  0  0  0  0
   16.2459  -12.5375    0.0000 H   0  0  0  0  0  0  0  0  0  0  0  0
   16.2458  -13.6075    0.0000 H   0  0  0  0  0  0  0  0  0  0  0  0
   15.5446  -11.3040    0.0000 H   0  0  0  0  0  0  0  0  0  0  0  0
   13.6913  -11.3038    0.0000 H   0  0  0  0  0  0  0  0  0  0  0  0
   14.6180  -10.7689    0.0000 H   0  0  0  0  0  0  0  0  0  0  0  0
   10.8947  -13.8052    0.0000 H   0  0  0  0  0  0  0  0  0  0  0  0
   10.8951  -15.6622    0.0000 H   0  0  0  0  0  0  0  0  0  0  0  0
   12.5036  -16.5903    0.0000 H   0  0  0  0  0  0  0  0  0  0  0  0
   13.9451  -16.5827    0.0000 H   0  0  0  0  0  0  0  0  0  0  0  0
   15.5531  -15.6538    0.0000 H   0  0  0  0  0  0  0  0  0  0  0  0
   15.5526  -13.7968    0.0000 H   0  0  0  0  0  0  0  0  0  0  0  0
   13.9441  -12.8687    0.0000 H   0  0  0  0  0  0  0  0  0  0  0  0
   13.4090  -11.9477    0.0000 H   0  0  0  0  0  0  0  0  0  0  0  0
   13.4088  -10.0907    0.0000 H   0  0  0  0  0  0  0  0  0  0  0  0
   11.8005   -9.1624    0.0000 H   0  0  0  0  0  0  0  0  0  0  0  0
   10.2020  -10.0854    0.0000 H   0  0  0  0  0  0  0  0  0  0  0  0
   10.2021  -11.9424    0.0000 H   0  0  0  0  0  0  0  0  0  0  0  0
   13.2299  -14.4527    0.0000 H   0  0  0  0  0  0  0  0  0  0  0  0
  1  2  2  0  0  0  0
  1  6  1  0  0  0  0
  1 38  1  0  0  0  0
  2  3  1  0  0  0  0
  2 39  1  0  0  0  0
  3  4  2  0  0  0  0
  3 37  1  0  0  0  0
  4  5  1  0  0  0  0
  4 40  1  0  0  0  0
  5  6  2  0  0  0  0
  5  7  1  0  0  0  0
  6 10  1  0  0  0  0
  7  8  2  0  0  0  0
  7 41  1  0  0  0  0
  8  9  1  0  0  0  0
  8 11  1  0  0  0  0
  9 10  2  0  0  0  0
  9 14  1  0  0  0  0
 11 12  1  0  0  0  0
 11 13  1  0  0  0  0
 11 42  1  6  0  0  0
 12 16  1  0  0  0  0
 12 17  1  0  0  0  0
 12 36  1  6  0  0  0
 13 31  2  0  0  0  0
 13 35  1  0  0  0  0
 14 15  1  0  0  0  0
 15 43  1  0  0  0  0
 15 44  1  0  0  0  0
 15 45  1  0  0  0  0
 16 18  1  0  0  0  0
 16 46  1  0  0  0  0
 16 47  1  0  0  0  0
 17 22  2  0  0  0  0
 17 26  1  0  0  0  0
 18 19  1  0  0  0  0
 18 48  1  0  0  0  0
 18 49  1  0  0  0  0
 19 20  1  0  0  0  0
 19 21  1  0  0  0  0
 20 50  1  0  0  0  0
 20 51  1  0  0  0  0
 20 52  1  0  0  0  0
 21 53  1  0  0  0  0
 21 54  1  0  0  0  0
 21 55  1  0  0  0  0
 22 23  1  0  0  0  0
 22 56  1  0  0  0  0
 23 24  2  0  0  0  0
 23 57  1  0  0  0  0
 24 25  1  0  0  0  0
 24 58  1  0  0  0  0
 25 26  2  0  0  0  0
 25 27  1  0  0  0  0
 26 30  1  0  0  0  0
 27 28  2  0  0  0  0
 27 59  1  0  0  0  0
 28 29  1  0  0  0  0
 28 60  1  0  0  0  0
 29 30  2  0  0  0  0
 29 61  1  0  0  0  0
 30 62  1  0  0  0  0
 31 32  1  0  0  0  0
 31 63  1  0  0  0  0
 32 33  2  0  0  0  0
 32 64  1  0  0  0  0
 33 34  1  0  0  0  0
 33 65  1  0  0  0  0
 34 35  2  0  0  0  0
 34 66  1  0  0  0  0
 35 67  1  0  0  0  0
 36 68  1  0  0  0  0
M  END
>  <DRUGBANK_ID>
DB08903

>  <COMMON_NAME>
Bedaquiline

>  <CAS_NUMBER>
843663-66-1

>  <UNII>
78846I289Y

>  <SYNONYMS>
1-(6-Bromo-2-methoxy-quinolin-3-yl)-4-dimethylamino-2-naphthalen-1-yl-1-phenyl-butan-2-ol; Bedaquilina; Bedaquiline; BÃ©daquiline; Bedaquilinum

$$$$
