
 OpenBabel10282417072D

 43 45  0  0  0  0  0  0  0  0999 V2000
   -2.4983    1.2501    0.0000 C   0  0  0  0  0  0  0  0  0  0  0  0
   -1.0718    1.2505    0.0000 C   0  0  0  0  0  0  0  0  0  0  0  0
   -1.7837    1.6624    0.0000 C   0  0  0  0  0  0  0  0  0  0  0  0
   -1.0718    0.4252    0.0000 C   0  0  0  0  0  0  0  0  0  0  0  0
   -2.4983    0.4214    0.0000 N   0  0  0  0  0  0  0  0  0  0  0  0
   -1.7819    0.0134    0.0000 C   0  0  0  0  0  0  0  0  0  0  0  0
   -0.3571    1.6630    0.0000 C   0  0  0  0  0  0  0  0  0  0  0  0
    0.3571    1.2505    0.0000 C   0  0  0  0  0  0  0  0  0  0  0  0
    1.7839    1.2509    0.0000 C   0  0  0  0  0  0  0  0  0  0  0  0
    1.0719    1.6628    0.0000 C   0  0  0  0  0  0  0  0  0  0  0  0
    1.7839    0.4257    0.0000 C   0  0  0  0  0  0  0  0  0  0  0  0
    0.3571    0.4219    0.0000 C   0  0  0  0  0  0  0  0  0  0  0  0
    1.0737    0.0138    0.0000 C   0  0  0  0  0  0  0  0  0  0  0  0
    2.4984    0.0130    0.0000 C   0  0  0  0  0  0  0  0  0  0  0  0
    3.2129    0.4257    0.0000 C   0  0  0  0  0  0  0  0  0  0  0  0
    3.9274    0.0130    0.0000 O   0  0  0  0  0  0  0  0  0  0  0  0
    3.2129    1.2507    0.0000 O   0  0  0  0  0  0  0  0  0  0  0  0
   -1.7819   -0.8116    0.0000 C   0  0  0  0  0  0  0  0  0  0  0  0
   -3.2129    1.6626    0.0000 C   0  0  0  0  0  0  0  0  0  0  0  0
   -2.9993    2.4596    0.0000 F   0  0  0  0  0  0  0  0  0  0  0  0
   -3.9274    2.0751    0.0000 F   0  0  0  0  0  0  0  0  0  0  0  0
   -3.9274    1.2501    0.0000 F   0  0  0  0  0  0  0  0  0  0  0  0
   -1.0682   -2.0468    0.0000 C   0  0  0  0  0  0  0  0  0  0  0  0
   -1.0675   -1.2244    0.0000 C   0  0  0  0  0  0  0  0  0  0  0  0
   -1.7829   -2.4596    0.0000 C   0  0  0  0  0  0  0  0  0  0  0  0
   -2.4995   -1.2259    0.0000 C   0  0  0  0  0  0  0  0  0  0  0  0
   -2.4948   -2.0504    0.0000 C   0  0  0  0  0  0  0  0  0  0  0  0
   -0.3537   -2.4594    0.0000 Cl  0  0  0  0  0  0  0  0  0  0  0  0
   -1.7831    2.6944    0.0000 H   0  0  0  0  0  0  0  0  0  0  0  0
   -0.1776   -0.0899    0.0000 H   0  0  0  0  0  0  0  0  0  0  0  0
   -0.3569    2.7330    0.0000 H   0  0  0  0  0  0  0  0  0  0  0  0
    0.5696    2.1979    0.0000 H   0  0  0  0  0  0  0  0  0  0  0  0
    2.6779    1.7665    0.0000 H   0  0  0  0  0  0  0  0  0  0  0  0
    1.0726    2.6948    0.0000 H   0  0  0  0  0  0  0  0  0  0  0  0
   -0.5351   -0.0967    0.0000 H   0  0  0  0  0  0  0  0  0  0  0  0
    1.0778   -1.0182    0.0000 H   0  0  0  0  0  0  0  0  0  0  0  0
    2.4984   -1.0570    0.0000 H   0  0  0  0  0  0  0  0  0  0  0  0
    3.4251   -0.5219    0.0000 H   0  0  0  0  0  0  0  0  0  0  0  0
    3.9272   -0.9240    0.0000 H   0  0  0  0  0  0  0  0  0  0  0  0
   -0.1735   -0.7089    0.0000 H   0  0  0  0  0  0  0  0  0  0  0  0
   -1.7818   -3.4916    0.0000 H   0  0  0  0  0  0  0  0  0  0  0  0
   -3.3947   -0.7124    0.0000 H   0  0  0  0  0  0  0  0  0  0  0  0
   -3.3866   -2.5698    0.0000 H   0  0  0  0  0  0  0  0  0  0  0  0
  1  5  1  0  0  0  0
  1 19  1  0  0  0  0
  2  3  1  0  0  0  0
  2  7  1  0  0  0  0
  3  1  2  0  0  0  0
  3 29  1  0  0  0  0
  4  2  2  0  0  0  0
  4 30  1  0  0  0  0
  5  6  2  0  0  0  0
  6  4  1  0  0  0  0
  6 18  1  0  0  0  0
  7  8  1  0  0  0  0
  7 31  1  0  0  0  0
  7 32  1  0  0  0  0
  8 12  1  0  0  0  0
  9 10  1  0  0  0  0
  9 33  1  0  0  0  0
 10  8  2  0  0  0  0
 10 34  1  0  0  0  0
 11  9  2  0  0  0  0
 11 14  1  0  0  0  0
 12 13  2  0  0  0  0
 12 35  1  0  0  0  0
 13 11  1  0  0  0  0
 13 36  1  0  0  0  0
 14 15  1  0  0  0  0
 14 37  1  0  0  0  0
 14 38  1  0  0  0  0
 15 16  1  0  0  0  0
 15 17  2  0  0  0  0
 16 39  1  0  0  0  0
 18 26  1  0  0  0  0
 19 20  1  0  0  0  0
 19 21  1  0  0  0  0
 19 22  1  0  0  0  0
 23 24  1  0  0  0  0
 23 28  1  0  0  0  0
 24 18  2  0  0  0  0
 24 40  1  0  0  0  0
 25 23  2  0  0  0  0
 25 41  1  0  0  0  0
 26 27  2  0  0  0  0
 26 42  1  0  0  0  0
 27 25  1  0  0  0  0
 27 43  1  0  0  0  0
M  END
>  <DRUGBANK_ID>
DB14790

>  <COMMON_NAME>
Zatolmilast

>  <CAS_NUMBER>
1606974-33-7

>  <UNII>
G786V328X6

>  <SYNONYMS>
Zatolmilast

$$$$
