
 OpenBabel10282417072D

 81 83  0  0  1  0  0  0  0  0999 V2000
    0.7934   -7.6032    0.0000 C   0  0  0  0  0  0  0  0  0  0  0  0
    1.2293   -8.3036    0.0000 C   0  0  0  0  0  0  0  0  0  0  0  0
    0.8407   -9.0314    0.0000 C   0  0  0  0  0  0  0  0  0  0  0  0
    2.0538   -8.2763    0.0000 C   0  0  1  0  0  0  0  0  0  0  0  0
    2.4898   -8.9767    0.0000 N   0  0  0  0  0  0  0  0  0  0  0  0
    2.1012   -9.7044    0.0000 C   0  0  0  0  0  0  0  0  0  0  0  0
    1.2766   -9.7318    0.0000 O   0  0  0  0  0  0  0  0  0  0  0  0
    2.5371  -10.4049    0.0000 C   0  0  0  0  0  0  0  0  0  0  0  0
    3.3617  -10.3775    0.0000 C   0  0  0  0  0  0  0  0  0  0  0  0
    3.7976  -11.0780    0.0000 C   0  0  0  0  0  0  0  0  0  0  0  0
    3.4090  -11.8057    0.0000 C   0  0  0  0  0  0  0  0  0  0  0  0
    2.5844  -11.8330    0.0000 C   0  0  0  0  0  0  0  0  0  0  0  0
    2.1485  -11.1326    0.0000 C   0  0  0  0  0  0  0  0  0  0  0  0
    3.8449  -12.5061    0.0000 C   0  0  0  0  0  0  0  0  0  0  0  0
    4.6695  -12.4788    0.0000 O   0  0  0  0  0  0  0  0  0  0  0  0
    3.4563  -13.2339    0.0000 N   0  0  0  0  0  0  0  0  0  0  0  0
    3.8922  -13.9343    0.0000 C   0  0  0  0  0  0  0  0  0  0  0  0
    3.5036  -14.6620    0.0000 C   0  0  0  0  0  0  0  0  0  0  0  0
    2.6791  -14.6893    0.0000 O   0  0  0  0  0  0  0  0  0  0  0  0
    2.2431  -13.9889    0.0000 C   0  0  0  0  0  0  0  0  0  0  0  0
    2.6318  -13.2612    0.0000 C   0  0  0  0  0  0  0  0  0  0  0  0
    2.4425   -7.5485    0.0000 C   0  0  0  0  0  0  0  0  0  0  0  0
    3.2670   -7.5212    0.0000 O   0  0  0  0  0  0  0  0  0  0  0  0
    2.0065   -6.8481    0.0000 N   0  0  0  0  0  0  0  0  0  0  0  0
    1.1836   -6.7891    0.0000 C   0  0  0  0  0  0  0  0  0  0  0  0
    0.9855   -5.9883    0.0000 C   0  0  0  0  0  0  0  0  0  0  0  0
    1.6859   -5.5523    0.0000 C   0  0  0  0  0  0  0  0  0  0  0  0
    2.3169   -6.0838    0.0000 C   0  0  2  0  0  0  0  0  0  0  0  0
    3.1178   -5.8856    0.0000 C   0  0  0  0  0  0  0  0  0  0  0  0
    3.3466   -5.0930    0.0000 O   0  0  0  0  0  0  0  0  0  0  0  0
    3.6898   -6.4801    0.0000 N   0  0  0  0  0  0  0  0  0  0  0  0
    4.4907   -6.2819    0.0000 C   0  0  2  0  0  0  0  0  0  0  0  0
    4.7195   -5.4893    0.0000 C   0  0  0  0  0  0  0  0  0  0  0  0
    5.5203   -5.2911    0.0000 C   0  0  0  0  0  0  0  0  0  0  0  0
    4.1474   -4.8948    0.0000 C   0  0  0  0  0  0  0  0  0  0  0  0
    5.0627   -6.8764    0.0000 C   0  0  0  0  0  0  0  0  0  0  0  0
    4.8339   -7.6690    0.0000 O   0  0  0  0  0  0  0  0  0  0  0  0
    5.8635   -6.6782    0.0000 C   0  0  0  0  0  0  0  0  0  0  0  0
    5.6654   -5.8774    0.0000 F   0  0  0  0  0  0  0  0  0  0  0  0
    6.0617   -7.4791    0.0000 F   0  0  0  0  0  0  0  0  0  0  0  0
    6.6644   -6.4801    0.0000 C   0  0  0  0  0  0  0  0  0  0  0  0
    7.4652   -6.2819    0.0000 F   0  0  0  0  0  0  0  0  0  0  0  0
    6.8626   -7.2809    0.0000 F   0  0  0  0  0  0  0  0  0  0  0  0
    6.4662   -5.6792    0.0000 F   0  0  0  0  0  0  0  0  0  0  0  0
    1.2974   -6.6594    0.0000 H   0  0  0  0  0  0  0  0  0  0  0  0
   -0.2760   -7.6386    0.0000 H   0  0  0  0  0  0  0  0  0  0  0  0
    0.2280   -6.6948    0.0000 H   0  0  0  0  0  0  0  0  0  0  0  0
    1.7947   -9.2120    0.0000 H   0  0  0  0  0  0  0  0  0  0  0  0
   -0.2287   -9.0669    0.0000 H   0  0  0  0  0  0  0  0  0  0  0  0
    1.4061   -9.9398    0.0000 H   0  0  0  0  0  0  0  0  0  0  0  0
    0.3367   -9.9753    0.0000 H   0  0  0  0  0  0  0  0  0  0  0  0
    1.5498   -9.2202    0.0000 H   0  0  0  0  0  0  0  0  0  0  0  0
    3.4738   -8.9441    0.0000 H   0  0  0  0  0  0  0  0  0  0  0  0
    3.8478   -9.4672    0.0000 H   0  0  0  0  0  0  0  0  0  0  0  0
    4.8290  -11.0439    0.0000 H   0  0  0  0  0  0  0  0  0  0  0  0
    2.0983  -12.7433    0.0000 H   0  0  0  0  0  0  0  0  0  0  0  0
    1.1171  -11.1668    0.0000 H   0  0  0  0  0  0  0  0  0  0  0  0
    4.9616  -13.8989    0.0000 H   0  0  0  0  0  0  0  0  0  0  0  0
    4.4576  -14.8427    0.0000 H   0  0  0  0  0  0  0  0  0  0  0  0
    4.0690  -15.5704    0.0000 H   0  0  0  0  0  0  0  0  0  0  0  0
    2.9996  -15.6058    0.0000 H   0  0  0  0  0  0  0  0  0  0  0  0
    1.1737  -14.0243    0.0000 H   0  0  0  0  0  0  0  0  0  0  0  0
    1.6778  -13.0804    0.0000 H   0  0  0  0  0  0  0  0  0  0  0  0
    2.0665  -12.3527    0.0000 H   0  0  0  0  0  0  0  0  0  0  0  0
    3.1359  -12.3174    0.0000 H   0  0  0  0  0  0  0  0  0  0  0  0
    0.4943   -7.6075    0.0000 H   0  0  0  0  0  0  0  0  0  0  0  0
    0.1415   -6.5465    0.0000 H   0  0  0  0  0  0  0  0  0  0  0  0
   -0.0059   -5.5857    0.0000 H   0  0  0  0  0  0  0  0  0  0  0  0
    0.8941   -4.9222    0.0000 H   0  0  0  0  0  0  0  0  0  0  0  0
    1.7625   -4.4850    0.0000 H   0  0  0  0  0  0  0  0  0  0  0  0
    2.6716   -5.1360    0.0000 H   0  0  0  0  0  0  0  0  0  0  0  0
    2.5595   -5.0417    0.0000 H   0  0  0  0  0  0  0  0  0  0  0  0
    3.4167   -7.4260    0.0000 H   0  0  0  0  0  0  0  0  0  0  0  0
    3.7488   -5.5109    0.0000 H   0  0  0  0  0  0  0  0  0  0  0  0
    5.0162   -4.4613    0.0000 H   0  0  0  0  0  0  0  0  0  0  0  0
    6.2623   -6.0621    0.0000 H   0  0  0  0  0  0  0  0  0  0  0  0
    5.8170   -4.2631    0.0000 H   0  0  0  0  0  0  0  0  0  0  0  0
    6.5590   -5.0340    0.0000 H   0  0  0  0  0  0  0  0  0  0  0  0
    4.4441   -3.8668    0.0000 H   0  0  0  0  0  0  0  0  0  0  0  0
    3.1087   -5.1518    0.0000 H   0  0  0  0  0  0  0  0  0  0  0  0
    3.4055   -4.1238    0.0000 H   0  0  0  0  0  0  0  0  0  0  0  0
  1  2  1  0  0  0  0
  1 45  1  0  0  0  0
  1 46  1  0  0  0  0
  1 47  1  0  0  0  0
  2  3  1  0  0  0  0
  2  4  1  0  0  0  0
  2 48  1  0  0  0  0
  3 49  1  0  0  0  0
  3 50  1  0  0  0  0
  3 51  1  0  0  0  0
  4  5  1  0  0  0  0
  4 22  1  0  0  0  0
  4 52  1  1  0  0  0
  5  6  1  0  0  0  0
  5 53  1  0  0  0  0
  6  7  2  0  0  0  0
  6  8  1  0  0  0  0
  8  9  2  0  0  0  0
  8 13  1  0  0  0  0
  9 10  1  0  0  0  0
  9 54  1  0  0  0  0
 10 11  2  0  0  0  0
 10 55  1  0  0  0  0
 11 12  1  0  0  0  0
 11 14  1  0  0  0  0
 12 13  2  0  0  0  0
 12 56  1  0  0  0  0
 13 57  1  0  0  0  0
 14 15  2  0  0  0  0
 14 16  1  0  0  0  0
 16 17  1  0  0  0  0
 16 21  1  0  0  0  0
 17 18  1  0  0  0  0
 17 58  1  0  0  0  0
 17 59  1  0  0  0  0
 18 19  1  0  0  0  0
 18 60  1  0  0  0  0
 18 61  1  0  0  0  0
 19 20  1  0  0  0  0
 20 21  1  0  0  0  0
 20 62  1  0  0  0  0
 20 63  1  0  0  0  0
 21 64  1  0  0  0  0
 21 65  1  0  0  0  0
 22 23  2  0  0  0  0
 22 24  1  0  0  0  0
 24 25  1  0  0  0  0
 24 28  1  0  0  0  0
 25 26  1  0  0  0  0
 25 66  1  0  0  0  0
 25 67  1  0  0  0  0
 26 27  1  0  0  0  0
 26 68  1  0  0  0  0
 26 69  1  0  0  0  0
 27 28  1  0  0  0  0
 27 70  1  0  0  0  0
 27 71  1  0  0  0  0
 28 29  1  0  0  0  0
 28 72  1  1  0  0  0
 29 30  2  0  0  0  0
 29 31  1  0  0  0  0
 31 73  1  0  0  0  0
 32 31  1  0  0  0  0
 32 33  1  0  0  0  0
 32 36  1  0  0  0  0
 32 74  1  1  0  0  0
 33 34  1  0  0  0  0
 33 35  1  0  0  0  0
 33 75  1  0  0  0  0
 34 76  1  0  0  0  0
 34 77  1  0  0  0  0
 34 78  1  0  0  0  0
 35 79  1  0  0  0  0
 35 80  1  0  0  0  0
 35 81  1  0  0  0  0
 36 37  2  0  0  0  0
 36 38  1  0  0  0  0
 38 39  1  0  0  0  0
 38 40  1  0  0  0  0
 38 41  1  0  0  0  0
 41 42  1  0  0  0  0
 41 43  1  0  0  0  0
 41 44  1  0  0  0  0
M  END
>  <DRUGBANK_ID>
DB02341

>  <SECONDARY_ACCESSION_NUMBERS>
EXPT02880

>  <COMMON_NAME>
Mdl 101,146

>  <CAS_NUMBER>
149859-17-6

>  <UNII>
749Y52DBP2

$$$$
