
 OpenBabel10282417072D

108111  0  0  1  0  0  0  0  0999 V2000
   -2.6309    5.3652    0.0000 C   0  0  0  0  0  0  0  0  0  0  0  0
   -3.1830    4.7521    0.0000 C   0  0  2  0  0  0  0  0  0  0  0  0
   -3.9899    4.9236    0.0000 C   0  0  0  0  0  0  0  0  0  0  0  0
   -4.2449    5.7082    0.0000 C   0  0  0  0  0  0  0  0  0  0  0  0
   -5.0519    5.8797    0.0000 C   0  0  2  0  0  0  0  0  0  0  0  0
   -5.6039    5.2666    0.0000 C   0  0  0  0  0  0  0  0  0  0  0  0
   -6.4109    5.4382    0.0000 C   0  0  0  0  0  0  0  0  0  0  0  0
   -5.3489    4.4820    0.0000 C   0  0  0  0  0  0  0  0  0  0  0  0
   -5.3068    6.6644    0.0000 O   0  0  0  0  0  0  0  0  0  0  0  0
   -6.1138    6.8359    0.0000 S   0  0  0  0  0  0  0  0  0  0  0  0
   -6.9207    7.0074    0.0000 O   0  0  0  0  0  0  0  0  0  0  0  0
   -6.2853    6.0289    0.0000 O   0  0  0  0  0  0  0  0  0  0  0  0
   -5.9422    7.6429    0.0000 O   0  0  0  0  0  0  0  0  0  0  0  0
   -2.9280    3.9674    0.0000 C   0  0  1  0  0  0  0  0  0  0  0  0
   -3.4130    3.3000    0.0000 C   0  0  0  0  0  0  0  0  0  0  0  0
   -2.9280    2.6326    0.0000 C   0  0  0  0  0  0  0  0  0  0  0  0
   -2.1434    2.8875    0.0000 C   0  0  2  0  0  0  0  0  0  0  0  0
   -2.1434    3.7125    0.0000 C   0  0  2  0  0  0  0  0  0  0  0  0
   -1.4289    4.1250    0.0000 C   0  0  0  0  0  0  0  0  0  0  0  0
   -0.7145    3.7125    0.0000 C   0  0  0  0  0  0  0  0  0  0  0  0
   -0.7145    2.8875    0.0000 C   0  0  1  0  0  0  0  0  0  0  0  0
   -1.4289    2.4750    0.0000 C   0  0  1  0  0  0  0  0  0  0  0  0
   -1.4289    1.6500    0.0000 C   0  0  1  0  0  0  0  0  0  0  0  0
   -0.7145    1.2375    0.0000 C   0  0  0  0  0  0  0  0  0  0  0  0
   -0.0000    1.6500    0.0000 C   0  0  2  0  0  0  0  0  0  0  0  0
    0.0000    2.4750    0.0000 C   0  0  2  0  0  0  0  0  0  0  0  0
    0.7145    2.8875    0.0000 C   0  0  0  0  0  0  0  0  0  0  0  0
    1.4289    2.4750    0.0000 C   0  0  0  0  0  0  0  0  0  0  0  0
    1.4289    1.6500    0.0000 C   0  0  1  0  0  0  0  0  0  0  0  0
    0.7145    1.2375    0.0000 C   0  0  0  0  0  0  0  0  0  0  0  0
    2.1434    1.2375    0.0000 N   0  0  0  0  0  0  0  0  0  0  0  0
    2.8579    1.6500    0.0000 C   0  0  0  0  0  0  0  0  0  0  0  0
    3.5724    1.2375    0.0000 C   0  0  0  0  0  0  0  0  0  0  0  0
    4.2868    1.6500    0.0000 C   0  0  0  0  0  0  0  0  0  0  0  0
    5.0013    1.2375    0.0000 N   0  0  0  0  0  0  0  0  0  0  0  0
    5.7158    1.6500    0.0000 C   0  0  0  0  0  0  0  0  0  0  0  0
    6.4302    1.2375    0.0000 C   0  0  0  0  0  0  0  0  0  0  0  0
    7.1447    1.6500    0.0000 C   0  0  0  0  0  0  0  0  0  0  0  0
    7.8592    1.2375    0.0000 C   0  0  0  0  0  0  0  0  0  0  0  0
    8.5737    1.6500    0.0000 N   0  0  0  0  0  0  0  0  0  0  0  0
    0.0000    3.3000    0.0000 C   0  0  0  0  0  0  0  0  0  0  0  0
   -2.1434    1.2375    0.0000 O   0  0  0  0  0  0  0  0  0  0  0  0
   -2.2296    4.5330    0.0000 C   0  0  0  0  0  0  0  0  0  0  0  0
   -1.5843    5.1427    0.0000 H   0  0  0  0  0  0  0  0  0  0  0  0
   -2.9615    6.3828    0.0000 H   0  0  0  0  0  0  0  0  0  0  0  0
   -1.9149    6.1603    0.0000 H   0  0  0  0  0  0  0  0  0  0  0  0
   -3.8989    3.9569    0.0000 H   0  0  0  0  0  0  0  0  0  0  0  0
   -4.7058    4.1284    0.0000 H   0  0  0  0  0  0  0  0  0  0  0  0
   -5.0365    5.1460    0.0000 H   0  0  0  0  0  0  0  0  0  0  0  0
   -3.5290    6.5034    0.0000 H   0  0  0  0  0  0  0  0  0  0  0  0
   -4.5756    6.7258    0.0000 H   0  0  0  0  0  0  0  0  0  0  0  0
   -4.3359    6.6749    0.0000 H   0  0  0  0  0  0  0  0  0  0  0  0
   -6.3199    4.4714    0.0000 H   0  0  0  0  0  0  0  0  0  0  0  0
   -6.7415    6.4559    0.0000 H   0  0  0  0  0  0  0  0  0  0  0  0
   -7.1269    4.6431    0.0000 H   0  0  0  0  0  0  0  0  0  0  0  0
   -7.4575    5.6607    0.0000 H   0  0  0  0  0  0  0  0  0  0  0  0
   -6.0648    3.6868    0.0000 H   0  0  0  0  0  0  0  0  0  0  0  0
   -4.3023    4.2596    0.0000 H   0  0  0  0  0  0  0  0  0  0  0  0
   -5.0182    3.4644    0.0000 H   0  0  0  0  0  0  0  0  0  0  0  0
   -5.0197    7.9426    0.0000 H   0  0  0  0  0  0  0  0  0  0  0  0
   -3.9848    4.1348    0.0000 H   0  0  0  0  0  0  0  0  0  0  0  0
   -4.4830    3.3000    0.0000 H   0  0  0  0  0  0  0  0  0  0  0  0
   -3.8987    2.3466    0.0000 H   0  0  0  0  0  0  0  0  0  0  0  0
   -3.2586    1.6150    0.0000 H   0  0  0  0  0  0  0  0  0  0  0  0
   -2.1714    1.8760    0.0000 H   0  0  0  0  0  0  0  0  0  0  0  0
   -1.2168    3.4225    0.0000 H   0  0  0  0  0  0  0  0  0  0  0  0
   -1.4289    5.1950    0.0000 H   0  0  0  0  0  0  0  0  0  0  0  0
   -0.5022    4.6600    0.0000 H   0  0  0  0  0  0  0  0  0  0  0  0
    0.2122    4.2475    0.0000 H   0  0  0  0  0  0  0  0  0  0  0  0
    0.2121    3.1775    0.0000 H   0  0  0  0  0  0  0  0  0  0  0  0
   -1.6412    3.4225    0.0000 H   0  0  0  0  0  0  0  0  0  0  0  0
   -1.4289    3.5450    0.0000 H   0  0  0  0  0  0  0  0  0  0  0  0
   -2.3555    2.1850    0.0000 H   0  0  0  0  0  0  0  0  0  0  0  0
   -0.7145    0.1675    0.0000 H   0  0  0  0  0  0  0  0  0  0  0  0
    0.2121    0.7025    0.0000 H   0  0  0  0  0  0  0  0  0  0  0  0
   -0.9266    2.1850    0.0000 H   0  0  0  0  0  0  0  0  0  0  0  0
    0.7145    3.9575    0.0000 H   0  0  0  0  0  0  0  0  0  0  0  0
    1.6412    3.4225    0.0000 H   0  0  0  0  0  0  0  0  0  0  0  0
    2.3556    3.0100    0.0000 H   0  0  0  0  0  0  0  0  0  0  0  0
    2.3555    1.9400    0.0000 H   0  0  0  0  0  0  0  0  0  0  0  0
    2.3555    2.1850    0.0000 H   0  0  0  0  0  0  0  0  0  0  0  0
    0.7145    0.1675    0.0000 H   0  0  0  0  0  0  0  0  0  0  0  0
   -0.2121    0.7025    0.0000 H   0  0  0  0  0  0  0  0  0  0  0  0
    2.1434    0.2175    0.0000 H   0  0  0  0  0  0  0  0  0  0  0  0
    2.8579    2.7200    0.0000 H   0  0  0  0  0  0  0  0  0  0  0  0
    3.7845    2.1850    0.0000 H   0  0  0  0  0  0  0  0  0  0  0  0
    3.5724    0.1675    0.0000 H   0  0  0  0  0  0  0  0  0  0  0  0
    4.4991    0.7025    0.0000 H   0  0  0  0  0  0  0  0  0  0  0  0
    4.2868    2.7200    0.0000 H   0  0  0  0  0  0  0  0  0  0  0  0
    5.2134    2.1850    0.0000 H   0  0  0  0  0  0  0  0  0  0  0  0
    5.0013    0.2175    0.0000 H   0  0  0  0  0  0  0  0  0  0  0  0
    5.7158    2.7200    0.0000 H   0  0  0  0  0  0  0  0  0  0  0  0
    6.6425    2.1850    0.0000 H   0  0  0  0  0  0  0  0  0  0  0  0
    6.4302    0.1675    0.0000 H   0  0  0  0  0  0  0  0  0  0  0  0
    7.3568    0.7025    0.0000 H   0  0  0  0  0  0  0  0  0  0  0  0
    7.1447    2.7200    0.0000 H   0  0  0  0  0  0  0  0  0  0  0  0
    8.0713    2.1850    0.0000 H   0  0  0  0  0  0  0  0  0  0  0  0
    7.8592    0.1675    0.0000 H   0  0  0  0  0  0  0  0  0  0  0  0
    8.7858    0.7025    0.0000 H   0  0  0  0  0  0  0  0  0  0  0  0
    9.4570    1.1400    0.0000 H   0  0  0  0  0  0  0  0  0  0  0  0
    8.5737    2.6700    0.0000 H   0  0  0  0  0  0  0  0  0  0  0  0
    0.9266    3.8350    0.0000 H   0  0  0  0  0  0  0  0  0  0  0  0
   -0.9266    3.8350    0.0000 H   0  0  0  0  0  0  0  0  0  0  0  0
    0.0000    4.3700    0.0000 H   0  0  0  0  0  0  0  0  0  0  0  0
   -2.9834    1.7225    0.0000 H   0  0  0  0  0  0  0  0  0  0  0  0
   -1.3639    5.1619    0.0000 H   0  0  0  0  0  0  0  0  0  0  0  0
   -3.2071    4.9683    0.0000 H   0  0  0  0  0  0  0  0  0  0  0  0
   -2.3414    5.5971    0.0000 H   0  0  0  0  0  0  0  0  0  0  0  0
  1 44  1  0  0  0  0
  1 45  1  0  0  0  0
  1 46  1  0  0  0  0
  2  1  1  0  0  0  0
  2  3  1  0  0  0  0
  2 47  1  6  0  0  0
  3  4  1  0  0  0  0
  3 48  1  0  0  0  0
  3 49  1  0  0  0  0
  4  5  1  0  0  0  0
  4 50  1  0  0  0  0
  4 51  1  0  0  0  0
  5  6  1  0  0  0  0
  5  9  1  0  0  0  0
  5 52  1  1  0  0  0
  6  7  1  0  0  0  0
  6  8  1  0  0  0  0
  6 53  1  0  0  0  0
  7 54  1  0  0  0  0
  7 55  1  0  0  0  0
  7 56  1  0  0  0  0
  8 57  1  0  0  0  0
  8 58  1  0  0  0  0
  8 59  1  0  0  0  0
  9 10  1  0  0  0  0
 10 11  2  0  0  0  0
 10 12  2  0  0  0  0
 10 13  1  0  0  0  0
 13 60  1  0  0  0  0
 14  2  1  0  0  0  0
 14 15  1  0  0  0  0
 14 18  1  0  0  0  0
 14 61  1  1  0  0  0
 15 16  1  0  0  0  0
 15 62  1  0  0  0  0
 15 63  1  0  0  0  0
 16 64  1  0  0  0  0
 16 65  1  0  0  0  0
 17 16  1  0  0  0  0
 17 18  1  0  0  0  0
 17 66  1  1  0  0  0
 18 19  1  0  0  0  0
 18 43  1  6  0  0  0
 19 20  1  0  0  0  0
 19 67  1  0  0  0  0
 19 68  1  0  0  0  0
 20 69  1  0  0  0  0
 20 70  1  0  0  0  0
 21 20  1  0  0  0  0
 21 22  1  0  0  0  0
 21 26  1  0  0  0  0
 21 71  1  1  0  0  0
 22 17  1  0  0  0  0
 22 23  1  0  0  0  0
 22 72  1  6  0  0  0
 23 24  1  0  0  0  0
 23 42  1  0  0  0  0
 23 73  1  6  0  0  0
 24 74  1  0  0  0  0
 24 75  1  0  0  0  0
 25 24  1  0  0  0  0
 25 26  1  0  0  0  0
 25 30  1  0  0  0  0
 25 76  1  1  0  0  0
 26 27  1  0  0  0  0
 26 41  1  6  0  0  0
 27 28  1  0  0  0  0
 27 77  1  0  0  0  0
 27 78  1  0  0  0  0
 28 29  1  0  0  0  0
 28 79  1  0  0  0  0
 28 80  1  0  0  0  0
 29 30  1  0  0  0  0
 29 31  1  0  0  0  0
 29 81  1  1  0  0  0
 30 82  1  0  0  0  0
 30 83  1  0  0  0  0
 31 32  1  0  0  0  0
 31 84  1  0  0  0  0
 32 33  1  0  0  0  0
 32 85  1  0  0  0  0
 32 86  1  0  0  0  0
 33 34  1  0  0  0  0
 33 87  1  0  0  0  0
 33 88  1  0  0  0  0
 34 35  1  0  0  0  0
 34 89  1  0  0  0  0
 34 90  1  0  0  0  0
 35 36  1  0  0  0  0
 35 91  1  0  0  0  0
 36 37  1  0  0  0  0
 36 92  1  0  0  0  0
 36 93  1  0  0  0  0
 37 38  1  0  0  0  0
 37 94  1  0  0  0  0
 37 95  1  0  0  0  0
 38 39  1  0  0  0  0
 38 96  1  0  0  0  0
 38 97  1  0  0  0  0
 39 40  1  0  0  0  0
 39 98  1  0  0  0  0
 39 99  1  0  0  0  0
 40100  1  0  0  0  0
 40101  1  0  0  0  0
 41102  1  0  0  0  0
 41103  1  0  0  0  0
 41104  1  0  0  0  0
 42105  1  0  0  0  0
 43106  1  0  0  0  0
 43107  1  0  0  0  0
 43108  1  0  0  0  0
M  END
>  <DRUGBANK_ID>
DB06461

>  <COMMON_NAME>
Squalamine

>  <CAS_NUMBER>
148717-90-2

>  <UNII>
F8PO54Z4V7

>  <SYNONYMS>
Squalamine

$$$$
