K01
 OpenBabel10282417072D

 46 48  0  0  0  0  0  0  0  0999 V2000
   -1.0078   -1.7415    0.0000 O   0  0  0  0  0  0  0  0  0  0  0  0
   -1.4203   -1.0271    0.0000 C   0  0  0  0  0  0  0  0  0  0  0  0
   -2.2453   -1.0271    0.0000 C   0  0  0  0  0  0  0  0  0  0  0  0
   -2.7302   -0.3596    0.0000 S   0  0  0  0  0  0  0  0  0  0  0  0
   -3.5148   -0.6146    0.0000 C   0  0  0  0  0  0  0  0  0  0  0  0
   -3.5148   -1.4396    0.0000 C   0  0  0  0  0  0  0  0  0  0  0  0
   -2.7302   -1.6945    0.0000 C   0  0  0  0  0  0  0  0  0  0  0  0
   -1.0078   -0.3126    0.0000 N   0  0  0  0  0  0  0  0  0  0  0  0
   -0.1828   -0.3126    0.0000 C   0  0  0  0  0  0  0  0  0  0  0  0
    0.3021   -0.9800    0.0000 S   0  0  0  0  0  0  0  0  0  0  0  0
    1.0868   -0.7251    0.0000 C   0  0  0  0  0  0  0  0  0  0  0  0
    1.0868    0.0999    0.0000 C   0  0  0  0  0  0  0  0  0  0  0  0
    1.8012    0.5124    0.0000 C   0  0  0  0  0  0  0  0  0  0  0  0
    2.5157    0.0999    0.0000 C   0  0  0  0  0  0  0  0  0  0  0  0
    2.5157   -0.7251    0.0000 C   0  0  0  0  0  0  0  0  0  0  0  0
    1.8012   -1.1376    0.0000 C   0  0  0  0  0  0  0  0  0  0  0  0
    0.3021    0.3549    0.0000 C   0  0  0  0  0  0  0  0  0  0  0  0
    0.0472    1.1395    0.0000 C   0  0  0  0  0  0  0  0  0  0  0  0
    0.5992    1.7526    0.0000 O   0  0  0  0  0  0  0  0  0  0  0  0
   -0.7598    1.3110    0.0000 N   0  0  0  0  0  0  0  0  0  0  0  0
   -1.0147    2.0956    0.0000 C   0  0  0  0  0  0  0  0  0  0  0  0
   -0.4627    2.7087    0.0000 C   0  0  0  0  0  0  0  0  0  0  0  0
   -1.3118    0.6979    0.0000 C   0  0  0  0  0  0  0  0  0  0  0  0
   -2.1188    0.8694    0.0000 C   0  0  0  0  0  0  0  0  0  0  0  0
   -4.3497   -0.0080    0.0000 H   0  0  0  0  0  0  0  0  0  0  0  0
   -4.3497   -2.0462    0.0000 H   0  0  0  0  0  0  0  0  0  0  0  0
   -2.4113   -2.6760    0.0000 H   0  0  0  0  0  0  0  0  0  0  0  0
   -1.5001    0.5400    0.0000 H   0  0  0  0  0  0  0  0  0  0  0  0
    1.8012    1.5824    0.0000 H   0  0  0  0  0  0  0  0  0  0  0  0
    2.7278    1.0474    0.0000 H   0  0  0  0  0  0  0  0  0  0  0  0
    3.4423    0.6349    0.0000 H   0  0  0  0  0  0  0  0  0  0  0  0
    3.4423   -0.4351    0.0000 H   0  0  0  0  0  0  0  0  0  0  0  0
    3.4423   -1.2601    0.0000 H   0  0  0  0  0  0  0  0  0  0  0  0
    2.5157   -1.7951    0.0000 H   0  0  0  0  0  0  0  0  0  0  0  0
    1.8012   -2.2076    0.0000 H   0  0  0  0  0  0  0  0  0  0  0  0
    2.7278   -1.6726    0.0000 H   0  0  0  0  0  0  0  0  0  0  0  0
   -2.0613    2.3181    0.0000 H   0  0  0  0  0  0  0  0  0  0  0  0
   -1.3454    3.1132    0.0000 H   0  0  0  0  0  0  0  0  0  0  0  0
    0.5839    2.4863    0.0000 H   0  0  0  0  0  0  0  0  0  0  0  0
   -0.7934    3.7263    0.0000 H   0  0  0  0  0  0  0  0  0  0  0  0
    0.2532    3.5039    0.0000 H   0  0  0  0  0  0  0  0  0  0  0  0
   -0.9811   -0.3197    0.0000 H   0  0  0  0  0  0  0  0  0  0  0  0
   -2.0277   -0.0973    0.0000 H   0  0  0  0  0  0  0  0  0  0  0  0
   -2.4495    1.8870    0.0000 H   0  0  0  0  0  0  0  0  0  0  0  0
   -2.8347    0.0742    0.0000 H   0  0  0  0  0  0  0  0  0  0  0  0
   -3.1654    1.0918    0.0000 H   0  0  0  0  0  0  0  0  0  0  0  0
  1  2  2  0  0  0  0
  2  3  1  0  0  0  0
  2  8  1  0  0  0  0
  3  7  2  0  0  0  0
  3  4  1  0  0  0  0
  4  5  1  0  0  0  0
  5  6  2  0  0  0  0
  5 25  1  0  0  0  0
  6  7  1  0  0  0  0
  6 26  1  0  0  0  0
  7 27  1  0  0  0  0
  8  9  1  0  0  0  0
  8 28  1  0  0  0  0
  9 17  2  0  0  0  0
  9 10  1  0  0  0  0
 10 11  1  0  0  0  0
 11 12  2  0  0  0  0
 11 16  1  0  0  0  0
 12 17  1  0  0  0  0
 12 13  1  0  0  0  0
 13 14  1  0  0  0  0
 13 29  1  0  0  0  0
 13 30  1  0  0  0  0
 14 15  1  0  0  0  0
 14 31  1  0  0  0  0
 14 32  1  0  0  0  0
 15 16  1  0  0  0  0
 15 33  1  0  0  0  0
 15 34  1  0  0  0  0
 16 35  1  0  0  0  0
 16 36  1  0  0  0  0
 17 18  1  0  0  0  0
 18 20  1  0  0  0  0
 18 19  2  0  0  0  0
 20 23  1  0  0  0  0
 20 21  1  0  0  0  0
 21 22  1  0  0  0  0
 21 37  1  0  0  0  0
 21 38  1  0  0  0  0
 22 39  1  0  0  0  0
 22 40  1  0  0  0  0
 22 41  1  0  0  0  0
 23 24  1  0  0  0  0
 23 42  1  0  0  0  0
 23 43  1  0  0  0  0
 24 44  1  0  0  0  0
 24 45  1  0  0  0  0
 24 46  1  0  0  0  0
M  END
>  <DRUGBANK_ID>
DB08032

>  <COMMON_NAME>
N,N-DIETHYL-2-[(2-THIENYLCARBONYL)AMINO]-4,5,6,7-TETRAHYDRO-1-BENZOTHIOPHENE-3-CARBOXAMIDE

$$$$
