
 OpenBabel10282417072D

 26 23  0  0  0  0  0  0  0  0999 V2000
   -0.4607    2.3646    0.0000 N   0  0  0  0  0  0  0  0  0  0  0  0
    2.0144    2.3646    0.0000 Fe  0  1  0  0  0  0  0  0  0  0  0  0
   -2.0144   -2.3646    0.0000 O   0  0  0  0  0  0  0  0  0  0  0  0
   -1.2999   -1.9520    0.0000 C   0  0  0  0  0  0  0  0  0  0  0  0
   -0.5853   -2.3646    0.0000 O   0  0  0  0  0  0  0  0  0  0  0  0
   -1.2999   -1.1270    0.0000 C   0  0  0  0  0  0  0  0  0  0  0  0
   -0.5853   -0.7145    0.0000 C   0  0  0  0  0  0  0  0  0  0  0  0
   -0.1728   -1.4290    0.0000 O   0  0  0  0  0  0  0  0  0  0  0  0
    0.1291   -0.3019    0.0000 C   0  0  0  0  0  0  0  0  0  0  0  0
    0.8436   -0.7145    0.0000 C   0  0  0  0  0  0  0  0  0  0  0  0
    1.5581   -0.3019    0.0000 O   0  0  0  0  0  0  0  0  0  0  0  0
    0.8436   -1.5395    0.0000 O   0  0  0  0  0  0  0  0  0  0  0  0
   -0.9979    0.0000    0.0000 C   0  0  0  0  0  0  0  0  0  0  0  0
   -0.5853    0.7145    0.0000 O   0  0  0  0  0  0  0  0  0  0  0  0
   -1.8229    0.0000    0.0000 O   0  0  0  0  0  0  0  0  0  0  0  0
    0.5593    2.3646    0.0000 H   0  0  0  0  0  0  0  0  0  0  0  0
   -0.9707    3.2479    0.0000 H   0  0  0  0  0  0  0  0  0  0  0  0
   -0.9707    1.4813    0.0000 H   0  0  0  0  0  0  0  0  0  0  0  0
   -2.8259   -1.8962    0.0000 H   0  0  0  0  0  0  0  0  0  0  0  0
   -2.2265   -0.5920    0.0000 H   0  0  0  0  0  0  0  0  0  0  0  0
   -1.2998   -0.0570    0.0000 H   0  0  0  0  0  0  0  0  0  0  0  0
   -0.6578   -2.2690    0.0000 H   0  0  0  0  0  0  0  0  0  0  0  0
    0.1291    0.7681    0.0000 H   0  0  0  0  0  0  0  0  0  0  0  0
    1.0558    0.2331    0.0000 H   0  0  0  0  0  0  0  0  0  0  0  0
    0.0321   -2.0080    0.0000 H   0  0  0  0  0  0  0  0  0  0  0  0
   -2.2914    0.8115    0.0000 H   0  0  0  0  0  0  0  0  0  0  0  0
  1 16  1  0  0  0  0
  1 17  1  0  0  0  0
  1 18  1  0  0  0  0
  3  4  1  0  0  0  0
  3 19  1  0  0  0  0
  4  5  2  0  0  0  0
  4  6  1  0  0  0  0
  6  7  1  0  0  0  0
  6 20  1  0  0  0  0
  6 21  1  0  0  0  0
  7  8  1  0  0  0  0
  7  9  1  0  0  0  0
  7 13  1  0  0  0  0
  8 22  1  0  0  0  0
  9 10  1  0  0  0  0
  9 23  1  0  0  0  0
  9 24  1  0  0  0  0
 10 11  2  0  0  0  0
 10 12  1  0  0  0  0
 12 25  1  0  0  0  0
 13 14  2  0  0  0  0
 13 15  1  0  0  0  0
 15 26  1  0  0  0  0
M  CHG  1   2   3
M  END
>  <DRUGBANK_ID>
DB09501

>  <COMMON_NAME>
Ferric ammonium citrate

>  <CAS_NUMBER>
1185-57-5

>  <UNII>
UVP74NG1C5

>  <SYNONYMS>
Ferric ammonium citrate; Ferric ammonium citrate, green

$$$$
