
 OpenBabel10282417072D

 32 34  0  0  0  0  0  0  0  0999 V2000
   -2.1037    0.9900    0.0000 C   0  0  0  0  0  0  0  0  0  0  0  0
   -2.1037    0.1650    0.0000 C   0  0  0  0  0  0  0  0  0  0  0  0
   -1.3612   -0.2475    0.0000 C   0  0  0  0  0  0  0  0  0  0  0  0
   -0.6600    0.1650    0.0000 C   0  0  0  0  0  0  0  0  0  0  0  0
   -0.6600    0.9900    0.0000 C   0  0  0  0  0  0  0  0  0  0  0  0
   -1.3612    1.4025    0.0000 C   0  0  0  0  0  0  0  0  0  0  0  0
    0.1237   -0.0825    0.0000 C   0  0  0  0  0  0  0  0  0  0  0  0
    0.1237    1.2375    0.0000 C   0  0  0  0  0  0  0  0  0  0  0  0
    0.6187    0.5775    0.0000 C   0  0  0  0  0  0  0  0  0  0  0  0
    1.0312   -0.1237    0.0000 C   0  0  0  0  0  0  0  0  0  0  0  0
    1.8562    1.3200    0.0000 C   0  0  0  0  0  0  0  0  0  0  0  0
    1.0312    1.3200    0.0000 C   0  0  0  0  0  0  0  0  0  0  0  0
    1.8562   -0.1237    0.0000 C   0  0  0  0  0  0  0  0  0  0  0  0
    0.7837   -0.9075    0.0000 N   0  0  0  0  0  0  0  0  0  0  0  0
    1.4437   -1.4025    0.0000 C   0  0  0  0  0  0  0  0  0  0  0  0
    2.1037   -0.9075    0.0000 N   0  0  0  0  0  0  0  0  0  0  0  0
   -2.9932    1.5134    0.0000 H   0  0  0  0  0  0  0  0  0  0  0  0
   -2.9932   -0.3584    0.0000 H   0  0  0  0  0  0  0  0  0  0  0  0
   -1.3485   -1.2794    0.0000 H   0  0  0  0  0  0  0  0  0  0  0  0
   -1.3485    2.4344    0.0000 H   0  0  0  0  0  0  0  0  0  0  0  0
    0.4508   -1.1013    0.0000 H   0  0  0  0  0  0  0  0  0  0  0  0
    1.1789   -0.2597    0.0000 H   0  0  0  0  0  0  0  0  0  0  0  0
    0.4508    2.2563    0.0000 H   0  0  0  0  0  0  0  0  0  0  0  0
    1.1789    1.4147    0.0000 H   0  0  0  0  0  0  0  0  0  0  0  0
    2.3912    0.3934    0.0000 H   0  0  0  0  0  0  0  0  0  0  0  0
    2.3912    2.2466    0.0000 H   0  0  0  0  0  0  0  0  0  0  0  0
    2.9262    1.3200    0.0000 H   0  0  0  0  0  0  0  0  0  0  0  0
    0.4886    2.2422    0.0000 H   0  0  0  0  0  0  0  0  0  0  0  0
   -0.0387    1.3068    0.0000 H   0  0  0  0  0  0  0  0  0  0  0  0
    2.4663    0.7087    0.0000 H   0  0  0  0  0  0  0  0  0  0  0  0
   -0.1537   -1.2085    0.0000 H   0  0  0  0  0  0  0  0  0  0  0  0
    1.4437   -2.4345    0.0000 H   0  0  0  0  0  0  0  0  0  0  0  0
  1  2  2  0  0  0  0
  1  6  1  0  0  0  0
  1 17  1  0  0  0  0
  2  3  1  0  0  0  0
  2 18  1  0  0  0  0
  3  4  2  0  0  0  0
  3 19  1  0  0  0  0
  4  5  1  0  0  0  0
  4  7  1  0  0  0  0
  5  6  2  0  0  0  0
  5  8  1  0  0  0  0
  6 20  1  0  0  0  0
  7  9  1  0  0  0  0
  7 21  1  0  0  0  0
  7 22  1  0  0  0  0
  8 23  1  0  0  0  0
  8 24  1  0  0  0  0
  9  8  1  0  0  0  0
  9 10  1  0  0  0  0
  9 12  1  0  0  0  0
 10 14  1  0  0  0  0
 11 12  1  0  0  0  0
 11 25  1  0  0  0  0
 11 26  1  0  0  0  0
 11 27  1  0  0  0  0
 12 28  1  0  0  0  0
 12 29  1  0  0  0  0
 13 10  2  0  0  0  0
 13 16  1  0  0  0  0
 13 30  1  0  0  0  0
 14 15  1  0  0  0  0
 14 31  1  0  0  0  0
 15 16  2  0  0  0  0
 15 32  1  0  0  0  0
M  END
>  <DRUGBANK_ID>
DB11481

>  <COMMON_NAME>
Atipamezole

>  <CAS_NUMBER>
104054-27-5

>  <UNII>
03N9U5JAF6

>  <SYNONYMS>
Atipamezole

$$$$
