
 OpenBabel10282417072D

214214  0  0  1  0  0  0  0  0999 V2000
   -2.1226    0.1719    0.0000 H   0  0  0  0  0  0  0  0  0  0  0  0
   -2.3208    0.9728    0.0000 C   0  0  2  0  0  0  0  0  0  0  0  0
   -1.5281    0.7440    0.0000 C   0  0  2  0  0  0  0  0  0  0  0  0
   -1.3300   -0.0569    0.0000 O   0  0  0  0  0  0  0  0  0  0  0  0
   -0.9337    1.3160    0.0000 C   0  0  2  0  0  0  0  0  0  0  0  0
   -1.1318    2.1169    0.0000 C   0  0  0  0  0  0  0  0  0  0  0  0
   -0.1410    1.0872    0.0000 C   0  0  0  0  0  0  0  0  0  0  0  0
    0.0571    0.2863    0.0000 C   0  0  0  0  0  0  0  0  0  0  0  0
    0.8498    0.0575    0.0000 C   0  0  0  0  0  0  0  0  0  0  0  0
    1.4442    0.6296    0.0000 C   0  0  0  0  0  0  0  0  0  0  0  0
    2.2369    0.4008    0.0000 C   0  0  0  0  0  0  0  0  0  0  0  0
    2.8314    0.9728    0.0000 C   0  0  0  0  0  0  0  0  0  0  0  0
    3.6240    0.7440    0.0000 N   0  0  0  0  0  0  0  0  0  0  0  0
    4.2185    1.3160    0.0000 C   0  0  0  0  0  0  0  0  0  0  0  0
    5.0111    1.0872    0.0000 C   0  0  0  0  0  0  0  0  0  0  0  0
    4.0203    2.1169    0.0000 O   0  0  0  0  0  0  0  0  0  0  0  0
   -2.5189    1.7736    0.0000 N   0  0  0  0  0  0  0  0  0  0  0  0
   -3.2353    2.1829    0.0000 C   0  0  0  0  0  0  0  0  0  0  0  0
   -1.7284    2.0097    0.0000 C   0  0  0  0  0  0  0  0  0  0  0  0
   -1.0043    2.4049    0.0000 O   0  0  0  0  0  0  0  0  0  0  0  0
   -1.5376    2.8123    0.0000 C   0  0  2  0  0  0  0  0  0  0  0  0
   -0.7471    3.0483    0.0000 C   0  0  0  0  0  0  0  0  0  0  0  0
   -0.5562    3.8510    0.0000 C   0  0  0  0  0  0  0  0  0  0  0  0
   -0.1474    2.4818    0.0000 C   0  0  0  0  0  0  0  0  0  0  0  0
   -2.1372    3.3789    0.0000 N   0  0  0  0  0  0  0  0  0  0  0  0
   -2.9611    3.3359    0.0000 C   0  0  0  0  0  0  0  0  0  0  0  0
   -1.5998    4.0048    0.0000 C   0  0  0  0  0  0  0  0  0  0  0  0
   -0.7816    4.1104    0.0000 O   0  0  0  0  0  0  0  0  0  0  0  0
   -1.8732    4.7832    0.0000 C   0  0  2  0  0  0  0  0  0  0  0  0
   -1.3358    5.4092    0.0000 C   0  0  0  0  0  0  0  0  0  0  0  0
   -0.5250    5.2567    0.0000 C   0  0  0  0  0  0  0  0  0  0  0  0
    0.0124    5.8827    0.0000 C   0  0  0  0  0  0  0  0  0  0  0  0
   -0.2516    4.4784    0.0000 C   0  0  0  0  0  0  0  0  0  0  0  0
   -2.6840    4.9357    0.0000 N   0  0  0  0  0  0  0  0  0  0  0  0
   -3.3539    4.4540    0.0000 C   0  0  0  0  0  0  0  0  0  0  0  0
   -2.5703    5.7528    0.0000 C   0  0  0  0  0  0  0  0  0  0  0  0
   -1.8058    6.0629    0.0000 O   0  0  0  0  0  0  0  0  0  0  0  0
   -3.2212    6.2598    0.0000 C   0  0  2  0  0  0  0  0  0  0  0  0
   -3.1075    7.0769    0.0000 C   0  0  0  0  0  0  0  0  0  0  0  0
   -2.3430    7.3870    0.0000 C   0  0  0  0  0  0  0  0  0  0  0  0
   -2.2293    8.2042    0.0000 C   0  0  0  0  0  0  0  0  0  0  0  0
   -1.6922    6.8800    0.0000 C   0  0  0  0  0  0  0  0  0  0  0  0
   -3.9857    5.9497    0.0000 N   0  0  0  0  0  0  0  0  0  0  0  0
   -4.2888    5.1824    0.0000 C   0  0  0  0  0  0  0  0  0  0  0  0
   -4.3318    6.6986    0.0000 C   0  0  0  0  0  0  0  0  0  0  0  0
   -3.8563    7.3728    0.0000 O   0  0  0  0  0  0  0  0  0  0  0  0
   -5.1534    6.7732    0.0000 C   0  0  1  0  0  0  0  0  0  0  0  0
   -5.4995    7.5221    0.0000 C   0  0  0  0  0  0  0  0  0  0  0  0
   -5.6289    6.0990    0.0000 N   0  0  0  0  0  0  0  0  0  0  0  0
   -6.3249    6.5419    0.0000 C   0  0  0  0  0  0  0  0  0  0  0  0
   -6.2894    7.3661    0.0000 O   0  0  0  0  0  0  0  0  0  0  0  0
   -7.0565    6.1605    0.0000 C   0  0  2  0  0  0  0  0  0  0  0  0
   -7.7526    6.6034    0.0000 C   0  0  0  0  0  0  0  0  0  0  0  0
   -7.0920    5.3363    0.0000 N   0  0  0  0  0  0  0  0  0  0  0  0
   -7.9170    5.3325    0.0000 C   0  0  0  0  0  0  0  0  0  0  0  0
   -8.3327    6.0451    0.0000 O   0  0  0  0  0  0  0  0  0  0  0  0
   -8.3262    4.6162    0.0000 C   0  0  2  0  0  0  0  0  0  0  0  0
   -9.1512    4.6124    0.0000 C   0  0  0  0  0  0  0  0  0  0  0  0
   -9.5670    5.3250    0.0000 C   0  0  0  0  0  0  0  0  0  0  0  0
  -10.3920    5.3212    0.0000 C   0  0  0  0  0  0  0  0  0  0  0  0
   -9.1577    6.0413    0.0000 C   0  0  0  0  0  0  0  0  0  0  0  0
   -7.9105    3.9036    0.0000 N   0  0  0  0  0  0  0  0  0  0  0  0
   -7.1078    3.7127    0.0000 C   0  0  0  0  0  0  0  0  0  0  0  0
   -8.6025    3.4544    0.0000 C   0  0  0  0  0  0  0  0  0  0  0  0
   -9.3375    3.8291    0.0000 O   0  0  0  0  0  0  0  0  0  0  0  0
   -8.5594    2.6305    0.0000 C   0  0  1  0  0  0  0  0  0  0  0  0
   -7.8244    2.2558    0.0000 N   0  0  0  0  0  0  0  0  0  0  0  0
   -8.1637    1.5038    0.0000 C   0  0  0  0  0  0  0  0  0  0  0  0
   -8.9846    1.4217    0.0000 O   0  0  0  0  0  0  0  0  0  0  0  0
   -7.6821    0.8340    0.0000 C   0  0  2  0  0  0  0  0  0  0  0  0
   -8.0214    0.0820    0.0000 C   0  0  0  0  0  0  0  0  0  0  0  0
   -8.8423   -0.0002    0.0000 C   0  0  0  0  0  0  0  0  0  0  0  0
   -9.1816   -0.7522    0.0000 C   0  0  0  0  0  0  0  0  0  0  0  0
   -9.3239    0.6697    0.0000 C   0  0  0  0  0  0  0  0  0  0  0  0
   -6.8612    0.9162    0.0000 N   0  0  0  0  0  0  0  0  0  0  0  0
   -6.3542    1.5670    0.0000 C   0  0  0  0  0  0  0  0  0  0  0  0
   -6.7401    0.1001    0.0000 C   0  0  0  0  0  0  0  0  0  0  0  0
   -7.3862   -0.4128    0.0000 O   0  0  0  0  0  0  0  0  0  0  0  0
   -5.9728   -0.2030    0.0000 C   0  0  1  0  0  0  0  0  0  0  0  0
   -5.8516   -1.0191    0.0000 C   0  0  0  0  0  0  0  0  0  0  0  0
   -5.3266    0.3099    0.0000 N   0  0  0  0  0  0  0  0  0  0  0  0
   -5.2519    1.1315    0.0000 C   0  0  0  0  0  0  0  0  0  0  0  0
   -4.7835   -0.3111    0.0000 C   0  0  0  0  0  0  0  0  0  0  0  0
   -5.0498   -1.0920    0.0000 O   0  0  0  0  0  0  0  0  0  0  0  0
   -3.9742   -0.1513    0.0000 C   0  0  2  0  0  0  0  0  0  0  0  0
   -3.4310   -0.7723    0.0000 C   0  0  0  0  0  0  0  0  0  0  0  0
   -3.6973   -1.5532    0.0000 C   0  0  0  0  0  0  0  0  0  0  0  0
   -3.7079    0.6296    0.0000 N   0  0  0  0  0  0  0  0  0  0  0  0
   -2.9152    0.4008    0.0000 C   0  0  0  0  0  0  0  0  0  0  0  0
   -2.7171   -0.4001    0.0000 O   0  0  0  0  0  0  0  0  0  0  0  0
   -9.2514    2.1813    0.0000 C   0  0  0  0  0  0  0  0  0  0  0  0
   -9.4651    1.3845    0.0000 C   0  0  0  0  0  0  0  0  0  0  0  0
   -9.9864    2.5560    0.0000 C   0  0  0  0  0  0  0  0  0  0  0  0
   -2.2991    0.0021    0.0000 H   0  0  0  0  0  0  0  0  0  0  0  0
   -2.0290   -0.7294    0.0000 H   0  0  0  0  0  0  0  0  0  0  0  0
   -1.9617    1.6128    0.0000 H   0  0  0  0  0  0  0  0  0  0  0  0
   -0.3607    2.8587    0.0000 H   0  0  0  0  0  0  0  0  0  0  0  0
   -2.1598    2.4138    0.0000 H   0  0  0  0  0  0  0  0  0  0  0  0
   -1.3887    3.1556    0.0000 H   0  0  0  0  0  0  0  0  0  0  0  0
    0.6300    1.8291    0.0000 H   0  0  0  0  0  0  0  0  0  0  0  0
    0.8870    0.7904    0.0000 H   0  0  0  0  0  0  0  0  0  0  0  0
   -0.7139   -0.4556    0.0000 H   0  0  0  0  0  0  0  0  0  0  0  0
    0.3141   -0.7524    0.0000 H   0  0  0  0  0  0  0  0  0  0  0  0
    1.1069   -0.9812    0.0000 H   0  0  0  0  0  0  0  0  0  0  0  0
    1.8779   -0.2392    0.0000 H   0  0  0  0  0  0  0  0  0  0  0  0
    1.1871    1.6683    0.0000 H   0  0  0  0  0  0  0  0  0  0  0  0
    2.2152    1.3716    0.0000 H   0  0  0  0  0  0  0  0  0  0  0  0
    2.4939   -0.6379    0.0000 H   0  0  0  0  0  0  0  0  0  0  0  0
    3.2649    0.1040    0.0000 H   0  0  0  0  0  0  0  0  0  0  0  0
    2.5744    2.0115    0.0000 H   0  0  0  0  0  0  0  0  0  0  0  0
    3.6024    1.7147    0.0000 H   0  0  0  0  0  0  0  0  0  0  0  0
    3.8604   -0.2117    0.0000 H   0  0  0  0  0  0  0  0  0  0  0  0
    5.2681    0.0485    0.0000 H   0  0  0  0  0  0  0  0  0  0  0  0
    5.7821    1.8291    0.0000 H   0  0  0  0  0  0  0  0  0  0  0  0
    6.0391    0.7904    0.0000 H   0  0  0  0  0  0  0  0  0  0  0  0
   -3.2401    3.2529    0.0000 H   0  0  0  0  0  0  0  0  0  0  0  0
   -4.1595    1.6437    0.0000 H   0  0  0  0  0  0  0  0  0  0  0  0
   -4.1644    2.7137    0.0000 H   0  0  0  0  0  0  0  0  0  0  0  0
   -0.7598    2.0775    0.0000 H   0  0  0  0  0  0  0  0  0  0  0  0
    0.2782    3.3545    0.0000 H   0  0  0  0  0  0  0  0  0  0  0  0
    0.4691    4.1571    0.0000 H   0  0  0  0  0  0  0  0  0  0  0  0
   -1.3339    4.5859    0.0000 H   0  0  0  0  0  0  0  0  0  0  0  0
   -0.3086    4.8920    0.0000 H   0  0  0  0  0  0  0  0  0  0  0  0
   -0.3948    1.4408    0.0000 H   0  0  0  0  0  0  0  0  0  0  0  0
    0.8778    2.7880    0.0000 H   0  0  0  0  0  0  0  0  0  0  0  0
    0.6304    1.7470    0.0000 H   0  0  0  0  0  0  0  0  0  0  0  0
   -3.5437    4.2334    0.0000 H   0  0  0  0  0  0  0  0  0  0  0  0
   -3.4471    2.3826    0.0000 H   0  0  0  0  0  0  0  0  0  0  0  0
   -4.0296    3.2801    0.0000 H   0  0  0  0  0  0  0  0  0  0  0  0
   -0.8216    4.5855    0.0000 H   0  0  0  0  0  0  0  0  0  0  0  0
   -1.6904    6.4187    0.0000 H   0  0  0  0  0  0  0  0  0  0  0  0
   -0.6388    6.2210    0.0000 H   0  0  0  0  0  0  0  0  0  0  0  0
    0.5266    5.0590    0.0000 H   0  0  0  0  0  0  0  0  0  0  0  0
    1.0640    5.6850    0.0000 H   0  0  0  0  0  0  0  0  0  0  0  0
   -0.3422    6.8922    0.0000 H   0  0  0  0  0  0  0  0  0  0  0  0
    0.7094    6.6946    0.0000 H   0  0  0  0  0  0  0  0  0  0  0  0
   -0.9486    3.6665    0.0000 H   0  0  0  0  0  0  0  0  0  0  0  0
    0.8000    4.2808    0.0000 H   0  0  0  0  0  0  0  0  0  0  0  0
    0.1030    3.4689    0.0000 H   0  0  0  0  0  0  0  0  0  0  0  0
   -4.3292    4.8940    0.0000 H   0  0  0  0  0  0  0  0  0  0  0  0
   -3.2473    3.3893    0.0000 H   0  0  0  0  0  0  0  0  0  0  0  0
   -4.2226    3.8293    0.0000 H   0  0  0  0  0  0  0  0  0  0  0  0
   -2.2297    6.6620    0.0000 H   0  0  0  0  0  0  0  0  0  0  0  0
   -3.9516    7.7345    0.0000 H   0  0  0  0  0  0  0  0  0  0  0  0
   -2.9600    8.1367    0.0000 H   0  0  0  0  0  0  0  0  0  0  0  0
   -1.3515    7.7892    0.0000 H   0  0  0  0  0  0  0  0  0  0  0  0
   -1.2378    8.6064    0.0000 H   0  0  0  0  0  0  0  0  0  0  0  0
   -3.0734    8.8618    0.0000 H   0  0  0  0  0  0  0  0  0  0  0  0
   -2.0818    9.2640    0.0000 H   0  0  0  0  0  0  0  0  0  0  0  0
   -1.8396    5.8202    0.0000 H   0  0  0  0  0  0  0  0  0  0  0  0
   -0.7007    7.2822    0.0000 H   0  0  0  0  0  0  0  0  0  0  0  0
   -0.8481    6.2224    0.0000 H   0  0  0  0  0  0  0  0  0  0  0  0
   -5.3472    5.0253    0.0000 H   0  0  0  0  0  0  0  0  0  0  0  0
   -3.6235    4.3444    0.0000 H   0  0  0  0  0  0  0  0  0  0  0  0
   -4.6819    4.1872    0.0000 H   0  0  0  0  0  0  0  0  0  0  0  0
   -4.5367    7.6476    0.0000 H   0  0  0  0  0  0  0  0  0  0  0  0
   -4.8828    8.3965    0.0000 H   0  0  0  0  0  0  0  0  0  0  0  0
   -6.5651    7.6190    0.0000 H   0  0  0  0  0  0  0  0  0  0  0  0
   -5.9484    8.4934    0.0000 H   0  0  0  0  0  0  0  0  0  0  0  0
   -5.4382    5.1331    0.0000 H   0  0  0  0  0  0  0  0  0  0  0  0
   -7.0105    7.2295    0.0000 H   0  0  0  0  0  0  0  0  0  0  0  0
   -7.7065    7.6724    0.0000 H   0  0  0  0  0  0  0  0  0  0  0  0
   -8.7014    6.1088    0.0000 H   0  0  0  0  0  0  0  0  0  0  0  0
   -8.6554    7.1778    0.0000 H   0  0  0  0  0  0  0  0  0  0  0  0
   -6.4094    4.6269    0.0000 H   0  0  0  0  0  0  0  0  0  0  0  0
   -8.8654    5.5404    0.0000 H   0  0  0  0  0  0  0  0  0  0  0  0
   -9.6819    3.6833    0.0000 H   0  0  0  0  0  0  0  0  0  0  0  0
  -10.2212    4.6075    0.0000 H   0  0  0  0  0  0  0  0  0  0  0  0
  -10.1062    6.2492    0.0000 H   0  0  0  0  0  0  0  0  0  0  0  0
  -10.9313    6.2454    0.0000 H   0  0  0  0  0  0  0  0  0  0  0  0
  -10.9227    4.3921    0.0000 H   0  0  0  0  0  0  0  0  0  0  0  0
  -11.4620    5.3163    0.0000 H   0  0  0  0  0  0  0  0  0  0  0  0
   -8.0877    6.0461    0.0000 H   0  0  0  0  0  0  0  0  0  0  0  0
   -9.6968    6.9655    0.0000 H   0  0  0  0  0  0  0  0  0  0  0  0
   -8.6268    6.9703    0.0000 H   0  0  0  0  0  0  0  0  0  0  0  0
   -6.8017    2.6874    0.0000 H   0  0  0  0  0  0  0  0  0  0  0  0
   -6.3729    4.4904    0.0000 H   0  0  0  0  0  0  0  0  0  0  0  0
   -6.0668    3.4651    0.0000 H   0  0  0  0  0  0  0  0  0  0  0  0
   -9.5127    3.1164    0.0000 H   0  0  0  0  0  0  0  0  0  0  0  0
   -6.8955    2.5820    0.0000 H   0  0  0  0  0  0  0  0  0  0  0  0
   -8.7468    0.7274    0.0000 H   0  0  0  0  0  0  0  0  0  0  0  0
   -7.3968   -0.7867    0.0000 H   0  0  0  0  0  0  0  0  0  0  0  0
   -8.4614   -0.8933    0.0000 H   0  0  0  0  0  0  0  0  0  0  0  0
   -9.9070   -0.1067    0.0000 H   0  0  0  0  0  0  0  0  0  0  0  0
  -10.2463   -0.8588    0.0000 H   0  0  0  0  0  0  0  0  0  0  0  0
   -8.5570   -1.6210    0.0000 H   0  0  0  0  0  0  0  0  0  0  0  0
   -9.6217   -1.7275    0.0000 H   0  0  0  0  0  0  0  0  0  0  0  0
   -8.8838    1.6450    0.0000 H   0  0  0  0  0  0  0  0  0  0  0  0
  -10.3886    0.5632    0.0000 H   0  0  0  0  0  0  0  0  0  0  0  0
   -9.9485    1.5385    0.0000 H   0  0  0  0  0  0  0  0  0  0  0  0
   -5.2944    1.4196    0.0000 H   0  0  0  0  0  0  0  0  0  0  0  0
   -6.7564    2.5585    0.0000 H   0  0  0  0  0  0  0  0  0  0  0  0
   -5.6966    2.4111    0.0000 H   0  0  0  0  0  0  0  0  0  0  0  0
   -6.8108   -0.8683    0.0000 H   0  0  0  0  0  0  0  0  0  0  0  0
   -6.6896   -1.6844    0.0000 H   0  0  0  0  0  0  0  0  0  0  0  0
   -4.8564   -1.4122    0.0000 H   0  0  0  0  0  0  0  0  0  0  0  0
   -5.6944   -2.0775    0.0000 H   0  0  0  0  0  0  0  0  0  0  0  0
   -4.2806    1.5804    0.0000 H   0  0  0  0  0  0  0  0  0  0  0  0
   -6.1263    1.7482    0.0000 H   0  0  0  0  0  0  0  0  0  0  0  0
   -5.1550    2.1971    0.0000 H   0  0  0  0  0  0  0  0  0  0  0  0
   -4.3195   -1.1641    0.0000 H   0  0  0  0  0  0  0  0  0  0  0  0
   -2.3813   -0.5650    0.0000 H   0  0  0  0  0  0  0  0  0  0  0  0
   -2.7266   -1.5777    0.0000 H   0  0  0  0  0  0  0  0  0  0  0  0
   -4.7470   -1.7605    0.0000 H   0  0  0  0  0  0  0  0  0  0  0  0
   -2.9929   -2.3587    0.0000 H   0  0  0  0  0  0  0  0  0  0  0  0
   -4.0427   -2.5659    0.0000 H   0  0  0  0  0  0  0  0  0  0  0  0
   -4.1630    1.5026    0.0000 H   0  0  0  0  0  0  0  0  0  0  0  0
  -10.2290    1.7463    0.0000 H   0  0  0  0  0  0  0  0  0  0  0  0
  -10.4987    1.1078    0.0000 H   0  0  0  0  0  0  0  0  0  0  0  0
   -8.7087    0.6277    0.0000 H   0  0  0  0  0  0  0  0  0  0  0  0
   -9.7423    0.3510    0.0000 H   0  0  0  0  0  0  0  0  0  0  0  0
  -10.0422    3.6245    0.0000 H   0  0  0  0  0  0  0  0  0  0  0  0
  -10.8839    1.9734    0.0000 H   0  0  0  0  0  0  0  0  0  0  0  0
  -10.9397    3.0420    0.0000 H   0  0  0  0  0  0  0  0  0  0  0  0
  2  1  1  6  0  0  0
  2 17  1  0  0  0  0
  2 89  1  0  0  0  0
  3  2  1  0  0  0  0
  3  4  1  0  0  0  0
  3  5  1  0  0  0  0
  3 94  1  6  0  0  0
  4 95  1  0  0  0  0
  5  6  1  0  0  0  0
  5  7  1  0  0  0  0
  5 96  1  1  0  0  0
  6 97  1  0  0  0  0
  6 98  1  0  0  0  0
  6 99  1  0  0  0  0
  7  8  1  0  0  0  0
  7100  1  0  0  0  0
  7101  1  0  0  0  0
  8  9  1  0  0  0  0
  8102  1  0  0  0  0
  8103  1  0  0  0  0
  9 10  1  0  0  0  0
  9104  1  0  0  0  0
  9105  1  0  0  0  0
 10 11  1  0  0  0  0
 10106  1  0  0  0  0
 10107  1  0  0  0  0
 11 12  1  0  0  0  0
 11108  1  0  0  0  0
 11109  1  0  0  0  0
 12 13  1  0  0  0  0
 12110  1  0  0  0  0
 12111  1  0  0  0  0
 13 14  1  0  0  0  0
 13112  1  0  0  0  0
 14 15  1  0  0  0  0
 14 16  2  0  0  0  0
 15113  1  0  0  0  0
 15114  1  0  0  0  0
 15115  1  0  0  0  0
 17 18  1  0  0  0  0
 17 19  1  0  0  0  0
 18116  1  0  0  0  0
 18117  1  0  0  0  0
 18118  1  0  0  0  0
 19 20  2  0  0  0  0
 21 19  1  0  0  0  0
 21 22  1  0  0  0  0
 21 25  1  0  0  0  0
 21119  1  6  0  0  0
 22 23  1  0  0  0  0
 22 24  1  0  0  0  0
 22120  1  0  0  0  0
 23121  1  0  0  0  0
 23122  1  0  0  0  0
 23123  1  0  0  0  0
 24124  1  0  0  0  0
 24125  1  0  0  0  0
 24126  1  0  0  0  0
 25 26  1  0  0  0  0
 25 27  1  0  0  0  0
 26127  1  0  0  0  0
 26128  1  0  0  0  0
 26129  1  0  0  0  0
 27 28  2  0  0  0  0
 29 27  1  0  0  0  0
 29 30  1  0  0  0  0
 29 34  1  0  0  0  0
 29130  1  6  0  0  0
 30 31  1  0  0  0  0
 30131  1  0  0  0  0
 30132  1  0  0  0  0
 31 32  1  0  0  0  0
 31 33  1  0  0  0  0
 31133  1  0  0  0  0
 32134  1  0  0  0  0
 32135  1  0  0  0  0
 32136  1  0  0  0  0
 33137  1  0  0  0  0
 33138  1  0  0  0  0
 33139  1  0  0  0  0
 34 35  1  0  0  0  0
 34 36  1  0  0  0  0
 35140  1  0  0  0  0
 35141  1  0  0  0  0
 35142  1  0  0  0  0
 36 37  2  0  0  0  0
 38 36  1  0  0  0  0
 38 39  1  0  0  0  0
 38 43  1  0  0  0  0
 38143  1  6  0  0  0
 39 40  1  0  0  0  0
 39144  1  0  0  0  0
 39145  1  0  0  0  0
 40 41  1  0  0  0  0
 40 42  1  0  0  0  0
 40146  1  0  0  0  0
 41147  1  0  0  0  0
 41148  1  0  0  0  0
 41149  1  0  0  0  0
 42150  1  0  0  0  0
 42151  1  0  0  0  0
 42152  1  0  0  0  0
 43 44  1  0  0  0  0
 43 45  1  0  0  0  0
 44153  1  0  0  0  0
 44154  1  0  0  0  0
 44155  1  0  0  0  0
 45 46  2  0  0  0  0
 47 45  1  0  0  0  0
 47 48  1  0  0  0  0
 47 49  1  0  0  0  0
 47156  1  1  0  0  0
 48157  1  0  0  0  0
 48158  1  0  0  0  0
 48159  1  0  0  0  0
 49 50  1  0  0  0  0
 49160  1  0  0  0  0
 50 51  2  0  0  0  0
 52 50  1  0  0  0  0
 52 53  1  0  0  0  0
 52 54  1  0  0  0  0
 52161  1  6  0  0  0
 53162  1  0  0  0  0
 53163  1  0  0  0  0
 53164  1  0  0  0  0
 54 55  1  0  0  0  0
 54165  1  0  0  0  0
 55 56  2  0  0  0  0
 57 55  1  0  0  0  0
 57 58  1  0  0  0  0
 57 62  1  0  0  0  0
 57166  1  6  0  0  0
 58 59  1  0  0  0  0
 58167  1  0  0  0  0
 58168  1  0  0  0  0
 59 60  1  0  0  0  0
 59 61  1  0  0  0  0
 59169  1  0  0  0  0
 60170  1  0  0  0  0
 60171  1  0  0  0  0
 60172  1  0  0  0  0
 61173  1  0  0  0  0
 61174  1  0  0  0  0
 61175  1  0  0  0  0
 62 63  1  0  0  0  0
 62 64  1  0  0  0  0
 63176  1  0  0  0  0
 63177  1  0  0  0  0
 63178  1  0  0  0  0
 64 65  2  0  0  0  0
 66 64  1  0  0  0  0
 66 67  1  0  0  0  0
 66 91  1  0  0  0  0
 66179  1  6  0  0  0
 67 68  1  0  0  0  0
 67180  1  0  0  0  0
 68 69  2  0  0  0  0
 70 68  1  0  0  0  0
 70 71  1  0  0  0  0
 70 75  1  0  0  0  0
 70181  1  6  0  0  0
 71 72  1  0  0  0  0
 71182  1  0  0  0  0
 71183  1  0  0  0  0
 72 73  1  0  0  0  0
 72 74  1  0  0  0  0
 72184  1  0  0  0  0
 73185  1  0  0  0  0
 73186  1  0  0  0  0
 73187  1  0  0  0  0
 74188  1  0  0  0  0
 74189  1  0  0  0  0
 74190  1  0  0  0  0
 75 76  1  0  0  0  0
 75 77  1  0  0  0  0
 76191  1  0  0  0  0
 76192  1  0  0  0  0
 76193  1  0  0  0  0
 77 78  2  0  0  0  0
 79 77  1  0  0  0  0
 79 80  1  0  0  0  0
 79 81  1  0  0  0  0
 79194  1  1  0  0  0
 80195  1  0  0  0  0
 80196  1  0  0  0  0
 80197  1  0  0  0  0
 81 82  1  0  0  0  0
 81 83  1  0  0  0  0
 82198  1  0  0  0  0
 82199  1  0  0  0  0
 82200  1  0  0  0  0
 83 84  2  0  0  0  0
 85 83  1  0  0  0  0
 85 86  1  0  0  0  0
 85 88  1  0  0  0  0
 85201  1  6  0  0  0
 86 87  1  0  0  0  0
 86202  1  0  0  0  0
 86203  1  0  0  0  0
 87204  1  0  0  0  0
 87205  1  0  0  0  0
 87206  1  0  0  0  0
 88 89  1  0  0  0  0
 88207  1  0  0  0  0
 89 90  2  0  0  0  0
 91 92  1  0  0  0  0
 91 93  1  0  0  0  0
 91208  1  0  0  0  0
 92209  1  0  0  0  0
 92210  1  0  0  0  0
 92211  1  0  0  0  0
 93212  1  0  0  0  0
 93213  1  0  0  0  0
 93214  1  0  0  0  0
M  END
>  <DRUGBANK_ID>
DB18246

>  <COMMON_NAME>
Rencofilstat

>  <CAS_NUMBER>
1383420-08-3

>  <UNII>
M3H4D91AY5

$$$$
