
 OpenBabel10282417072D

 72 72  0  0  0  0  0  0  0  0999 V2000
   -6.5371   -1.1576    0.0000 O   0  0  0  0  0  0  0  0  0  0  0  0
   -6.5371   -0.3326    0.0000 P   0  0  0  0  0  0  0  0  0  0  0  0
   -6.5371    0.4923    0.0000 O   0  0  0  0  0  0  0  0  0  0  0  0
   -5.7121   -0.3326    0.0000 O   0  0  0  0  0  0  0  0  0  0  0  0
   -7.3621   -0.3326    0.0000 O   0  0  0  0  0  0  0  0  0  0  0  0
   -3.3549   -1.6500    0.0000 C   0  0  0  0  0  0  0  0  0  0  0  0
   -2.6404   -1.2375    0.0000 N   0  0  0  0  0  0  0  0  0  0  0  0
   -2.6404   -0.4125    0.0000 C   0  0  0  0  0  0  0  0  0  0  0  0
   -1.9260   -1.6500    0.0000 C   0  0  0  0  0  0  0  0  0  0  0  0
   -1.2115   -1.2375    0.0000 C   0  0  0  0  0  0  0  0  0  0  0  0
   -0.4970   -1.6500    0.0000 C   0  0  0  0  0  0  0  0  0  0  0  0
    0.2173   -1.2375    0.0000 N   0  0  0  0  0  0  0  0  0  0  0  0
    0.9318   -1.6500    0.0000 C   0  0  0  0  0  0  0  0  0  0  0  0
    0.9318   -2.4750    0.0000 O   0  0  0  0  0  0  0  0  0  0  0  0
    1.6463   -1.2375    0.0000 C   0  0  0  0  0  0  0  0  0  0  0  0
    1.6463   -0.4125    0.0000 C   0  0  0  0  0  0  0  0  0  0  0  0
    0.9318    0.0000    0.0000 O   0  0  0  0  0  0  0  0  0  0  0  0
    0.9318    0.8250    0.0000 C   0  0  0  0  0  0  0  0  0  0  0  0
    0.2173    1.2375    0.0000 C   0  0  0  0  0  0  0  0  0  0  0  0
   -0.4970    0.8250    0.0000 C   0  0  0  0  0  0  0  0  0  0  0  0
   -1.2115    1.2375    0.0000 C   0  0  0  0  0  0  0  0  0  0  0  0
   -1.2115    2.0625    0.0000 C   0  0  0  0  0  0  0  0  0  0  0  0
   -0.4970    2.4750    0.0000 C   0  0  0  0  0  0  0  0  0  0  0  0
    0.2173    2.0625    0.0000 C   0  0  0  0  0  0  0  0  0  0  0  0
    0.9318    2.4750    0.0000 C   0  0  0  0  0  0  0  0  0  0  0  0
    1.6463    2.0625    0.0000 C   0  0  0  0  0  0  0  0  0  0  0  0
    1.6463    1.2375    0.0000 C   0  0  0  0  0  0  0  0  0  0  0  0
    2.3607   -1.6500    0.0000 C   0  0  0  0  0  0  0  0  0  0  0  0
    3.0752   -1.2375    0.0000 C   0  0  0  0  0  0  0  0  0  0  0  0
    3.7897   -1.6500    0.0000 C   0  0  0  0  0  0  0  0  0  0  0  0
    4.5042   -1.2375    0.0000 C   0  0  0  0  0  0  0  0  0  0  0  0
    5.2186   -1.6500    0.0000 C   0  0  0  0  0  0  0  0  0  0  0  0
    5.9331   -1.2375    0.0000 C   0  0  0  0  0  0  0  0  0  0  0  0
    5.9331   -0.4125    0.0000 O   0  0  0  0  0  0  0  0  0  0  0  0
    6.6476   -1.6500    0.0000 N   0  0  0  0  0  0  0  0  0  0  0  0
    7.3621   -1.2375    0.0000 O   0  0  0  0  0  0  0  0  0  0  0  0
   -7.3771   -1.6426    0.0000 H   0  0  0  0  0  0  0  0  0  0  0  0
   -5.6971    0.9773    0.0000 H   0  0  0  0  0  0  0  0  0  0  0  0
   -5.2271   -1.1726    0.0000 H   0  0  0  0  0  0  0  0  0  0  0  0
   -4.2815   -1.1150    0.0000 H   0  0  0  0  0  0  0  0  0  0  0  0
   -3.3549   -2.7200    0.0000 H   0  0  0  0  0  0  0  0  0  0  0  0
   -4.2816   -2.1850    0.0000 H   0  0  0  0  0  0  0  0  0  0  0  0
   -1.7138    0.1225    0.0000 H   0  0  0  0  0  0  0  0  0  0  0  0
   -3.5670    0.1225    0.0000 H   0  0  0  0  0  0  0  0  0  0  0  0
   -2.6404    0.6575    0.0000 H   0  0  0  0  0  0  0  0  0  0  0  0
   -1.9260   -2.7200    0.0000 H   0  0  0  0  0  0  0  0  0  0  0  0
   -0.9994   -2.1850    0.0000 H   0  0  0  0  0  0  0  0  0  0  0  0
   -1.2115   -0.1675    0.0000 H   0  0  0  0  0  0  0  0  0  0  0  0
   -0.2849   -0.7025    0.0000 H   0  0  0  0  0  0  0  0  0  0  0  0
   -0.4969   -2.7200    0.0000 H   0  0  0  0  0  0  0  0  0  0  0  0
    0.4297   -2.1849    0.0000 H   0  0  0  0  0  0  0  0  0  0  0  0
    0.2172   -0.2530    0.0000 H   0  0  0  0  0  0  0  0  0  0  0  0
    2.5729    0.1225    0.0000 H   0  0  0  0  0  0  0  0  0  0  0  0
    1.6463    0.6575    0.0000 H   0  0  0  0  0  0  0  0  0  0  0  0
   -0.4969   -0.2070    0.0000 H   0  0  0  0  0  0  0  0  0  0  0  0
   -2.1052    0.7215    0.0000 H   0  0  0  0  0  0  0  0  0  0  0  0
   -2.1052    2.5785    0.0000 H   0  0  0  0  0  0  0  0  0  0  0  0
   -0.4969    3.5070    0.0000 H   0  0  0  0  0  0  0  0  0  0  0  0
    0.9318    3.5070    0.0000 H   0  0  0  0  0  0  0  0  0  0  0  0
    2.5400    2.5785    0.0000 H   0  0  0  0  0  0  0  0  0  0  0  0
    2.5400    0.7215    0.0000 H   0  0  0  0  0  0  0  0  0  0  0  0
    2.3607   -2.6820    0.0000 H   0  0  0  0  0  0  0  0  0  0  0  0
    3.0752   -0.1675    0.0000 H   0  0  0  0  0  0  0  0  0  0  0  0
    4.0018   -0.7025    0.0000 H   0  0  0  0  0  0  0  0  0  0  0  0
    3.7897   -2.7200    0.0000 H   0  0  0  0  0  0  0  0  0  0  0  0
    4.7163   -2.1850    0.0000 H   0  0  0  0  0  0  0  0  0  0  0  0
    4.5042   -0.1675    0.0000 H   0  0  0  0  0  0  0  0  0  0  0  0
    5.4309   -0.7025    0.0000 H   0  0  0  0  0  0  0  0  0  0  0  0
    5.2186   -2.7200    0.0000 H   0  0  0  0  0  0  0  0  0  0  0  0
    6.1452   -2.1850    0.0000 H   0  0  0  0  0  0  0  0  0  0  0  0
    6.6476   -2.6345    0.0000 H   0  0  0  0  0  0  0  0  0  0  0  0
    8.2021   -1.7225    0.0000 H   0  0  0  0  0  0  0  0  0  0  0  0
  1  2  1  0  0  0  0
  1 37  1  0  0  0  0
  2  3  1  0  0  0  0
  2  4  1  0  0  0  0
  2  5  2  0  0  0  0
  3 38  1  0  0  0  0
  4 39  1  0  0  0  0
  6  7  1  0  0  0  0
  6 40  1  0  0  0  0
  6 41  1  0  0  0  0
  6 42  1  0  0  0  0
  7  8  1  0  0  0  0
  7  9  1  0  0  0  0
  8 43  1  0  0  0  0
  8 44  1  0  0  0  0
  8 45  1  0  0  0  0
  9 10  1  0  0  0  0
  9 46  1  0  0  0  0
  9 47  1  0  0  0  0
 10 11  1  0  0  0  0
 10 48  1  0  0  0  0
 10 49  1  0  0  0  0
 11 12  1  0  0  0  0
 11 50  1  0  0  0  0
 11 51  1  0  0  0  0
 12 13  1  0  0  0  0
 12 52  1  0  0  0  0
 13 14  2  0  0  0  0
 13 15  1  0  0  0  0
 15 16  1  0  0  0  0
 15 28  2  0  0  0  0
 16 17  1  0  0  0  0
 16 53  1  0  0  0  0
 16 54  1  0  0  0  0
 17 18  1  0  0  0  0
 18 19  2  0  0  0  0
 18 27  1  0  0  0  0
 19 20  1  0  0  0  0
 19 24  1  0  0  0  0
 20 21  2  0  0  0  0
 20 55  1  0  0  0  0
 21 22  1  0  0  0  0
 21 56  1  0  0  0  0
 22 23  2  0  0  0  0
 22 57  1  0  0  0  0
 23 24  1  0  0  0  0
 23 58  1  0  0  0  0
 24 25  2  0  0  0  0
 25 26  1  0  0  0  0
 25 59  1  0  0  0  0
 26 27  2  0  0  0  0
 26 60  1  0  0  0  0
 27 61  1  0  0  0  0
 28 29  1  0  0  0  0
 28 62  1  0  0  0  0
 29 30  1  0  0  0  0
 29 63  1  0  0  0  0
 29 64  1  0  0  0  0
 30 31  1  0  0  0  0
 30 65  1  0  0  0  0
 30 66  1  0  0  0  0
 31 32  1  0  0  0  0
 31 67  1  0  0  0  0
 31 68  1  0  0  0  0
 32 33  1  0  0  0  0
 32 69  1  0  0  0  0
 32 70  1  0  0  0  0
 33 34  2  0  0  0  0
 33 35  1  0  0  0  0
 35 36  1  0  0  0  0
 35 71  1  0  0  0  0
 36 72  1  0  0  0  0
M  END
>  <DRUGBANK_ID>
DB17118

>  <COMMON_NAME>
Ivaltinostat

>  <CAS_NUMBER>
936221-33-9

>  <SYNONYMS>
(E)-N-(3-(DIMETHYLAMINO)PROPYL)-N'-HYDROXY-2-((1-NAPHTHYLOXY)METHYL)-2-OCTENEDIAMIDE; 2-OCTENEDIAMIDE, N1-(3-(DIMETHYLAMINO)PROPYL)-N8-HYDROXY-2-((1-NAPHTHALENYLOXY)METHYL)-, (2E)-

$$$$
