1288
 OpenBabel10282417072D

 43 44  0  0  1  0  0  0  0  0999 V2000
    2.3645   -0.4125    0.0000 O   0  0  0  0  0  0  0  0  0  0  0  0
    1.6500   -3.3001    0.0000 O   0  0  0  0  0  0  0  0  0  0  0  0
    4.5080   -3.3001    0.0000 O   0  0  0  0  0  0  0  0  0  0  0  0
    7.3659    3.3001    0.0000 O   0  0  0  0  0  0  0  0  0  0  0  0
    3.7935    0.4125    0.0000 N   0  0  0  0  0  0  0  0  0  0  0  0
    4.5080    0.8250    0.0000 C   0  0  3  0  0  0  0  0  0  0  0  0
    4.5080    1.6500    0.0000 C   0  0  0  0  0  0  0  0  0  0  0  0
    3.7935   -0.4125    0.0000 C   0  0  0  0  0  0  0  0  0  0  0  0
    3.0791   -0.8250    0.0000 C   0  0  3  0  0  0  0  0  0  0  0  0
    5.2224    0.4125    0.0000 C   0  0  0  0  0  0  0  0  0  0  0  0
    5.2224    2.0625    0.0000 C   0  0  0  0  0  0  0  0  0  0  0  0
    3.0791   -1.6500    0.0000 C   0  0  0  0  0  0  0  0  0  0  0  0
    5.9370    1.6500    0.0000 C   0  0  0  0  0  0  0  0  0  0  0  0
    5.2224    2.8876    0.0000 C   0  0  0  0  0  0  0  0  0  0  0  0
    3.7935   -2.0625    0.0000 C   0  0  0  0  0  0  0  0  0  0  0  0
    2.3645   -2.0625    0.0000 C   0  0  0  0  0  0  0  0  0  0  0  0
    2.3645   -2.8876    0.0000 C   0  0  0  0  0  0  0  0  0  0  0  0
    3.7935   -2.8876    0.0000 C   0  0  0  0  0  0  0  0  0  0  0  0
    6.6515    2.0625    0.0000 C   0  0  0  0  0  0  0  0  0  0  0  0
    5.9370    3.3001    0.0000 C   0  0  0  0  0  0  0  0  0  0  0  0
    6.6515    2.8876    0.0000 C   0  0  0  0  0  0  0  0  0  0  0  0
    3.0791   -3.3001    0.0000 C   0  0  0  0  0  0  0  0  0  0  0  0
    2.3644    0.5575    0.0000 H   0  0  0  0  0  0  0  0  0  0  0  0
    0.8385   -2.8316    0.0000 H   0  0  0  0  0  0  0  0  0  0  0  0
    4.5080   -4.2371    0.0000 H   0  0  0  0  0  0  0  0  0  0  0  0
    8.1774    2.8316    0.0000 H   0  0  0  0  0  0  0  0  0  0  0  0
    2.9102    0.9225    0.0000 H   0  0  0  0  0  0  0  0  0  0  0  0
    3.5814    1.3600    0.0000 H   0  0  0  0  0  0  0  0  0  0  0  0
    3.5813    2.1850    0.0000 H   0  0  0  0  0  0  0  0  0  0  0  0
    4.5080    2.7200    0.0000 H   0  0  0  0  0  0  0  0  0  0  0  0
    4.7202   -0.9475    0.0000 H   0  0  0  0  0  0  0  0  0  0  0  0
    3.7935   -1.4825    0.0000 H   0  0  0  0  0  0  0  0  0  0  0  0
    3.0790    0.2450    0.0000 H   0  0  0  0  0  0  0  0  0  0  0  0
    5.2224   -0.6575    0.0000 H   0  0  0  0  0  0  0  0  0  0  0  0
    6.1491    0.9475    0.0000 H   0  0  0  0  0  0  0  0  0  0  0  0
    6.1490   -0.1225    0.0000 H   0  0  0  0  0  0  0  0  0  0  0  0
    5.9370    0.6180    0.0000 H   0  0  0  0  0  0  0  0  0  0  0  0
    4.3287    3.4036    0.0000 H   0  0  0  0  0  0  0  0  0  0  0  0
    4.6872   -1.5465    0.0000 H   0  0  0  0  0  0  0  0  0  0  0  0
    1.4708   -1.5465    0.0000 H   0  0  0  0  0  0  0  0  0  0  0  0
    7.5452    1.5465    0.0000 H   0  0  0  0  0  0  0  0  0  0  0  0
    5.9370    4.3321    0.0000 H   0  0  0  0  0  0  0  0  0  0  0  0
    3.0792   -4.3321    0.0000 H   0  0  0  0  0  0  0  0  0  0  0  0
  1  9  1  0  0  0  0
  1 23  1  0  0  0  0
  2 17  1  0  0  0  0
  2 24  1  0  0  0  0
  3 18  1  0  0  0  0
  3 25  1  0  0  0  0
  4 21  1  0  0  0  0
  4 26  1  0  0  0  0
  5  6  1  0  0  0  0
  5  8  1  0  0  0  0
  5 27  1  0  0  0  0
  6  7  1  0  0  0  0
  6 10  1  0  0  0  0
  6 28  1  0  0  0  0
  7 11  1  0  0  0  0
  7 29  1  0  0  0  0
  7 30  1  0  0  0  0
  8  9  1  0  0  0  0
  8 31  1  0  0  0  0
  8 32  1  0  0  0  0
  9 12  1  0  0  0  0
  9 33  1  0  0  0  0
 10 34  1  0  0  0  0
 10 35  1  0  0  0  0
 10 36  1  0  0  0  0
 11 13  2  0  0  0  0
 11 14  1  0  0  0  0
 12 15  2  0  0  0  0
 12 16  1  0  0  0  0
 13 19  1  0  0  0  0
 13 37  1  0  0  0  0
 14 20  2  0  0  0  0
 14 38  1  0  0  0  0
 15 18  1  0  0  0  0
 15 39  1  0  0  0  0
 16 17  2  0  0  0  0
 16 40  1  0  0  0  0
 17 22  1  0  0  0  0
 18 22  2  0  0  0  0
 19 21  2  0  0  0  0
 19 41  1  0  0  0  0
 20 21  1  0  0  0  0
 20 42  1  0  0  0  0
 22 43  1  0  0  0  0
M  END
>  <DRUGBANK_ID>
DB01288

>  <COMMON_NAME>
Fenoterol

>  <CAS_NUMBER>
13392-18-2

>  <UNII>
22M9P70OQ9

>  <SYNONYMS>
1-(3,5-dihydroxyphenyl)-1-hydroxy-2-((4-hydroxyphenyl)isopropylamino)ethane; 1-(p-hydroxyphenyl)-2-((β-hydroxy-β-(3',5'-dihydroxyphenyl))ethyl)aminopropane; 3,5-dihydroxy-α-(((p-hydroxy-α-methylphenethyl)amino)methyl)benzyl alcohol; 5-{1-Hydroxy-2-[2-(4-hydroxy-phenyl)-1-methyl-ethylamino]-ethyl}-benzene-1,3-diol; Fenoterol; Fenoterolum; Phenoterol

$$$$
