
 OpenBabel10282417072D

 52 55  0  0  0  0  0  0  0  0999 V2000
    5.4121    1.5125    0.0000 C   0  0  0  0  0  0  0  0  0  0  0  0
    6.1265    1.1000    0.0000 C   0  0  0  0  0  0  0  0  0  0  0  0
    6.1265    0.2750    0.0000 C   0  0  0  0  0  0  0  0  0  0  0  0
    5.4121   -0.1375    0.0000 N   0  0  0  0  0  0  0  0  0  0  0  0
    4.6976    0.2750    0.0000 C   0  0  0  0  0  0  0  0  0  0  0  0
    4.6976    1.1000    0.0000 C   0  0  0  0  0  0  0  0  0  0  0  0
    3.9831   -0.1375    0.0000 C   0  0  0  0  0  0  0  0  0  0  0  0
    3.2687    0.2750    0.0000 C   0  0  1  0  0  0  0  0  0  0  0  0
    2.4562    0.4182    0.0000 C   0  0  0  0  0  0  0  0  0  0  0  0
    2.1740    1.1935    0.0000 C   0  0  0  0  0  0  0  0  0  0  0  0
    2.7043    1.8255    0.0000 C   0  0  2  0  0  0  0  0  0  0  0  0
    3.5168    1.6822    0.0000 C   0  0  0  0  0  0  0  0  0  0  0  0
    3.7990    0.9070    0.0000 C   0  0  0  0  0  0  0  0  0  0  0  0
    2.4222    2.6007    0.0000 O   0  0  0  0  0  0  0  0  0  0  0  0
    2.9525    3.2327    0.0000 C   0  0  0  0  0  0  0  0  0  0  0  0
    2.6703    4.0079    0.0000 C   0  0  0  0  0  0  0  0  0  0  0  0
    3.2006    4.6399    0.0000 C   0  0  0  0  0  0  0  0  0  0  0  0
    4.0131    4.4967    0.0000 C   0  0  0  0  0  0  0  0  0  0  0  0
    4.2952    3.7214    0.0000 C   0  0  0  0  0  0  0  0  0  0  0  0
    3.7649    3.0894    0.0000 C   0  0  0  0  0  0  0  0  0  0  0  0
    2.9184    5.4152    0.0000 Cl  0  0  0  0  0  0  0  0  0  0  0  0
    1.8578    4.1512    0.0000 F   0  0  0  0  0  0  0  0  0  0  0  0
    2.9865   -0.5003    0.0000 C   0  0  0  0  0  0  0  0  0  0  0  0
    2.1740   -0.6435    0.0000 O   0  0  0  0  0  0  0  0  0  0  0  0
    3.5168   -1.1323    0.0000 O   0  0  0  0  0  0  0  0  0  0  0  0
    6.8410   -0.1375    0.0000 N   0  0  0  0  0  0  0  0  0  0  0  0
    6.8410   -0.9625    0.0000 C   0  0  0  0  0  0  0  0  0  0  0  0
    7.5085   -1.4475    0.0000 S   0  0  0  0  0  0  0  0  0  0  0  0
    7.2535   -2.2321    0.0000 C   0  0  0  0  0  0  0  0  0  0  0  0
    6.4285   -2.2321    0.0000 C   0  0  0  0  0  0  0  0  0  0  0  0
    6.1736   -1.4475    0.0000 N   0  0  0  0  0  0  0  0  0  0  0  0
    5.4121    2.5445    0.0000 H   0  0  0  0  0  0  0  0  0  0  0  0
    7.0202    1.6160    0.0000 H   0  0  0  0  0  0  0  0  0  0  0  0
    3.8039    1.6160    0.0000 H   0  0  0  0  0  0  0  0  0  0  0  0
    3.9831   -1.2075    0.0000 H   0  0  0  0  0  0  0  0  0  0  0  0
    3.0564   -0.6725    0.0000 H   0  0  0  0  0  0  0  0  0  0  0  0
    1.7685   -0.4015    0.0000 H   0  0  0  0  0  0  0  0  0  0  0  0
    1.4024    0.6040    0.0000 H   0  0  0  0  0  0  0  0  0  0  0  0
    1.1203    1.3793    0.0000 H   0  0  0  0  0  0  0  0  0  0  0  0
    1.8080    2.1990    0.0000 H   0  0  0  0  0  0  0  0  0  0  0  0
    1.6506    2.0113    0.0000 H   0  0  0  0  0  0  0  0  0  0  0  0
    4.2046    2.5019    0.0000 H   0  0  0  0  0  0  0  0  0  0  0  0
    4.5706    1.4964    0.0000 H   0  0  0  0  0  0  0  0  0  0  0  0
    4.8528    0.7212    0.0000 H   0  0  0  0  0  0  0  0  0  0  0  0
    4.1650   -0.0985    0.0000 H   0  0  0  0  0  0  0  0  0  0  0  0
    4.6765    5.2873    0.0000 H   0  0  0  0  0  0  0  0  0  0  0  0
    5.3115    3.5422    0.0000 H   0  0  0  0  0  0  0  0  0  0  0  0
    4.1178    2.1196    0.0000 H   0  0  0  0  0  0  0  0  0  0  0  0
    3.1963   -2.0128    0.0000 H   0  0  0  0  0  0  0  0  0  0  0  0
    7.6936    0.3548    0.0000 H   0  0  0  0  0  0  0  0  0  0  0  0
    7.8601   -3.0670    0.0000 H   0  0  0  0  0  0  0  0  0  0  0  0
    5.8219   -3.0670    0.0000 H   0  0  0  0  0  0  0  0  0  0  0  0
  1  2  2  0  0  0  0
  1  6  1  0  0  0  0
  1 32  1  0  0  0  0
  2  3  1  0  0  0  0
  2 33  1  0  0  0  0
  3  4  2  0  0  0  0
  3 26  1  0  0  0  0
  4  5  1  0  0  0  0
  5  6  2  0  0  0  0
  5  7  1  0  0  0  0
  6 34  1  0  0  0  0
  7 35  1  0  0  0  0
  7 36  1  0  0  0  0
  8  7  1  0  0  0  0
  8  9  1  0  0  0  0
  8 13  1  0  0  0  0
  8 23  1  6  0  0  0
  9 10  1  0  0  0  0
  9 37  1  0  0  0  0
  9 38  1  0  0  0  0
 10 11  1  0  0  0  0
 10 39  1  0  0  0  0
 10 40  1  0  0  0  0
 11 12  1  0  0  0  0
 11 14  1  0  0  0  0
 11 41  1  6  0  0  0
 12 13  1  0  0  0  0
 12 42  1  0  0  0  0
 12 43  1  0  0  0  0
 13 44  1  0  0  0  0
 13 45  1  0  0  0  0
 14 15  1  0  0  0  0
 15 16  2  0  0  0  0
 15 20  1  0  0  0  0
 16 17  1  0  0  0  0
 16 22  1  0  0  0  0
 17 18  2  0  0  0  0
 17 21  1  0  0  0  0
 18 19  1  0  0  0  0
 18 46  1  0  0  0  0
 19 20  2  0  0  0  0
 19 47  1  0  0  0  0
 20 48  1  0  0  0  0
 23 24  2  0  0  0  0
 23 25  1  0  0  0  0
 25 49  1  0  0  0  0
 26 27  1  0  0  0  0
 26 50  1  0  0  0  0
 27 28  1  0  0  0  0
 27 31  2  0  0  0  0
 28 29  1  0  0  0  0
 29 30  2  0  0  0  0
 29 51  1  0  0  0  0
 30 31  1  0  0  0  0
 30 52  1  0  0  0  0
M  END
>  <DRUGBANK_ID>
DB12556

>  <COMMON_NAME>
MK-5108

>  <CAS_NUMBER>
1010085-13-8

>  <UNII>
H8J407531S

$$$$
