
 OpenBabel10282417072D

 20 21  0  0  1  0  0  0  0  0999 V2000
    2.8408    0.8888    0.0000 C   0  0  0  0  0  0  0  0  0  0  0  0
    3.2533    1.6033    0.0000 C   0  0  1  0  0  0  0  0  0  0  0  0
    3.6658    0.8888    0.0000 O   0  0  0  0  0  0  0  0  0  0  0  0
    3.2533    2.4283    0.0000 C   0  0  1  0  0  0  0  0  0  0  0  0
    2.5388    2.8408    0.0000 C   0  0  1  0  0  0  0  0  0  0  0  0
    2.5388    3.6658    0.0000 C   0  0  2  0  0  0  0  0  0  0  0  0
    2.1263    4.3803    0.0000 C   0  0  0  0  0  0  0  0  0  0  0  0
    2.9513    4.3803    0.0000 O   0  0  0  0  0  0  0  0  0  0  0  0
    1.8243    2.4283    0.0000 O   0  0  0  0  0  0  0  0  0  0  0  0
    3.9678    2.8408    0.0000 O   0  0  0  0  0  0  0  0  0  0  0  0
    1.9142    0.3538    0.0000 H   0  0  0  0  0  0  0  0  0  0  0  0
    3.1177   -0.1447    0.0000 H   0  0  0  0  0  0  0  0  0  0  0  0
    2.2198    1.8802    0.0000 H   0  0  0  0  0  0  0  0  0  0  0  0
    3.2533    3.4983    0.0000 H   0  0  0  0  0  0  0  0  0  0  0  0
    3.4654    3.3758    0.0000 H   0  0  0  0  0  0  0  0  0  0  0  0
    1.5053    3.3889    0.0000 H   0  0  0  0  0  0  0  0  0  0  0  0
    1.1997    4.9153    0.0000 H   0  0  0  0  0  0  0  0  0  0  0  0
    2.4032    5.4138    0.0000 H   0  0  0  0  0  0  0  0  0  0  0  0
    0.9843    2.9133    0.0000 H   0  0  0  0  0  0  0  0  0  0  0  0
    4.8078    2.3558    0.0000 H   0  0  0  0  0  0  0  0  0  0  0  0
  1  2  1  0  0  0  0
  1  3  1  0  0  0  0
  1 11  1  0  0  0  0
  1 12  1  0  0  0  0
  2  3  1  0  0  0  0
  2  4  1  0  0  0  0
  2 13  1  1  0  0  0
  4  5  1  0  0  0  0
  4 10  1  0  0  0  0
  4 14  1  6  0  0  0
  5  9  1  0  0  0  0
  5 15  1  1  0  0  0
  6  5  1  0  0  0  0
  6  7  1  0  0  0  0
  6  8  1  0  0  0  0
  6 16  1  1  0  0  0
  7  8  1  0  0  0  0
  7 17  1  0  0  0  0
  7 18  1  0  0  0  0
  9 19  1  0  0  0  0
 10 20  1  0  0  0  0
M  END
>  <DRUGBANK_ID>
DB12873

>  <COMMON_NAME>
Dianhydrogalactitol

>  <CAS_NUMBER>
23261-20-3

>  <UNII>
4S465RYF7M

>  <SYNONYMS>
1,2:5,6-Dianhdrogalactitol; 1,2:5,6-Dianhydrogalactitol; Dianhydrogalactitol

$$$$
