
 OpenBabel10282417072D

 74 78  0  0  1  0  0  0  0  0999 V2000
   -4.9395   -4.1865    0.0000 C   0  0  0  0  0  0  0  0  0  0  0  0
   -5.9169   -1.5010    0.0000 C   0  0  0  0  0  0  0  0  0  0  0  0
    4.0668    2.3479    0.0000 C   0  0  0  0  0  0  0  0  0  0  0  0
    2.6378   -0.1271    0.0000 C   0  0  0  0  0  0  0  0  0  0  0  0
   -4.1642   -3.9044    0.0000 C   0  0  0  0  0  0  0  0  0  0  0  0
   -5.1417   -1.2188    0.0000 C   0  0  0  0  0  0  0  0  0  0  0  0
   -1.4512   -2.7548    0.0000 C   0  0  0  0  0  0  0  0  0  0  0  0
   -0.6388   -2.6116    0.0000 C   0  0  0  0  0  0  0  0  0  0  0  0
   -1.8385   -2.0264    0.0000 C   0  0  0  0  0  0  0  0  0  0  0  0
   -0.5239   -1.7946    0.0000 C   0  0  0  0  0  0  0  0  0  0  0  0
   -2.3272   -1.7151    0.0000 C   0  0  0  0  0  0  0  0  0  0  0  0
   -2.1839   -0.9026    0.0000 C   0  0  0  0  0  0  0  0  0  0  0  0
    3.3523    1.1104    0.0000 C   0  0  0  0  0  0  0  0  0  0  0  0
   -3.2457   -2.8097    0.0000 C   0  0  0  0  0  0  0  0  0  0  0  0
   -3.7344   -1.4670    0.0000 C   0  0  0  0  0  0  0  0  0  0  0  0
   -0.1712    1.5229    0.0000 C   0  0  0  0  0  0  0  0  0  0  0  0
   -0.5837   -0.6205    0.0000 C   0  0  0  0  0  0  0  0  0  0  0  0
    3.3523    1.9354    0.0000 C   0  0  0  0  0  0  0  0  0  0  0  0
    2.6378    0.6979    0.0000 C   0  0  0  0  0  0  0  0  0  0  0  0
   -3.1025   -1.9973    0.0000 C   0  0  0  0  0  0  0  0  0  0  0  0
   -1.2654   -1.4329    0.0000 C   0  0  0  0  0  0  0  0  0  0  0  0
   -4.0210   -3.0919    0.0000 C   0  0  0  0  0  0  0  0  0  0  0  0
   -4.5097   -1.7491    0.0000 C   0  0  0  0  0  0  0  0  0  0  0  0
   -0.5837    0.8085    0.0000 C   0  0  0  0  0  0  0  0  0  0  0  0
   -0.1712    0.0940    0.0000 C   0  0  0  0  0  0  0  0  0  0  0  0
    0.6538    1.5229    0.0000 C   0  0  0  0  0  0  0  0  0  0  0  0
   -1.4087    0.8085    0.0000 C   0  0  0  0  0  0  0  0  0  0  0  0
    1.9233    1.9354    0.0000 C   0  0  0  0  0  0  0  0  0  0  0  0
   -1.4087   -0.6205    0.0000 C   0  0  1  0  0  0  0  0  0  0  0  0
    2.6378    2.3479    0.0000 N   0  0  0  0  0  0  0  0  0  0  0  0
   -4.6529   -2.5616    0.0000 N   0  0  0  0  0  0  0  0  0  0  0  0
    1.1387    2.1904    0.0000 N   0  0  0  0  0  0  0  0  0  0  0  0
    1.1387    0.8555    0.0000 N   0  0  0  0  0  0  0  0  0  0  0  0
    1.9233    1.1104    0.0000 N   0  0  0  0  0  0  0  0  0  0  0  0
    0.6538    0.0940    0.0000 O   0  0  0  0  0  0  0  0  0  0  0  0
   -1.8212    1.5229    0.0000 O   0  0  0  0  0  0  0  0  0  0  0  0
   -1.8212    0.0940    0.0000 O   0  0  0  0  0  0  0  0  0  0  0  0
   -5.7591   -3.4986    0.0000 H   0  0  0  0  0  0  0  0  0  0  0  0
   -5.1254   -5.2402    0.0000 H   0  0  0  0  0  0  0  0  0  0  0  0
   -5.9450   -4.5524    0.0000 H   0  0  0  0  0  0  0  0  0  0  0  0
   -6.7366   -0.8133    0.0000 H   0  0  0  0  0  0  0  0  0  0  0  0
   -6.1026   -2.5548    0.0000 H   0  0  0  0  0  0  0  0  0  0  0  0
   -6.9224   -1.8670    0.0000 H   0  0  0  0  0  0  0  0  0  0  0  0
    4.9934    1.8129    0.0000 H   0  0  0  0  0  0  0  0  0  0  0  0
    4.0668    3.4179    0.0000 H   0  0  0  0  0  0  0  0  0  0  0  0
    4.9935    2.8829    0.0000 H   0  0  0  0  0  0  0  0  0  0  0  0
    1.7112   -0.6621    0.0000 H   0  0  0  0  0  0  0  0  0  0  0  0
    3.5644   -0.6621    0.0000 H   0  0  0  0  0  0  0  0  0  0  0  0
    2.6378   -1.1971    0.0000 H   0  0  0  0  0  0  0  0  0  0  0  0
   -3.3445   -4.5922    0.0000 H   0  0  0  0  0  0  0  0  0  0  0  0
   -3.1587   -3.5384    0.0000 H   0  0  0  0  0  0  0  0  0  0  0  0
   -4.9559   -0.1650    0.0000 H   0  0  0  0  0  0  0  0  0  0  0  0
   -4.1362   -0.8528    0.0000 H   0  0  0  0  0  0  0  0  0  0  0  0
   -1.9203   -3.7165    0.0000 H   0  0  0  0  0  0  0  0  0  0  0  0
   -2.5210   -2.7735    0.0000 H   0  0  0  0  0  0  0  0  0  0  0  0
    0.1308   -3.3549    0.0000 H   0  0  0  0  0  0  0  0  0  0  0  0
    0.3729   -2.2633    0.0000 H   0  0  0  0  0  0  0  0  0  0  0  0
   -2.8981   -1.8775    0.0000 H   0  0  0  0  0  0  0  0  0  0  0  0
   -2.1869   -1.0147    0.0000 H   0  0  0  0  0  0  0  0  0  0  0  0
    0.4209   -1.2923    0.0000 H   0  0  0  0  0  0  0  0  0  0  0  0
   -0.5425   -0.7248    0.0000 H   0  0  0  0  0  0  0  0  0  0  0  0
   -1.5075   -2.4029    0.0000 H   0  0  0  0  0  0  0  0  0  0  0  0
   -2.5130   -2.7688    0.0000 H   0  0  0  0  0  0  0  0  0  0  0  0
   -3.0035   -0.2148    0.0000 H   0  0  0  0  0  0  0  0  0  0  0  0
   -1.9980    0.1511    0.0000 H   0  0  0  0  0  0  0  0  0  0  0  0
    4.2460    0.5944    0.0000 H   0  0  0  0  0  0  0  0  0  0  0  0
   -2.4551   -3.4730    0.0000 H   0  0  0  0  0  0  0  0  0  0  0  0
   -3.5551   -0.4507    0.0000 H   0  0  0  0  0  0  0  0  0  0  0  0
   -0.7062    2.4496    0.0000 H   0  0  0  0  0  0  0  0  0  0  0  0
    0.3638    2.4495    0.0000 H   0  0  0  0  0  0  0  0  0  0  0  0
   -0.0487   -1.5471    0.0000 H   0  0  0  0  0  0  0  0  0  0  0  0
   -1.1187   -1.5471    0.0000 H   0  0  0  0  0  0  0  0  0  0  0  0
   -0.4109   -0.7890    0.0000 H   0  0  0  0  0  0  0  0  0  0  0  0
    1.1223   -0.7175    0.0000 H   0  0  0  0  0  0  0  0  0  0  0  0
  1 38  1  0  0  0  0
  1 39  1  0  0  0  0
  1 40  1  0  0  0  0
  2 41  1  0  0  0  0
  2 42  1  0  0  0  0
  2 43  1  0  0  0  0
  3 44  1  0  0  0  0
  3 45  1  0  0  0  0
  3 46  1  0  0  0  0
  4 47  1  0  0  0  0
  4 48  1  0  0  0  0
  4 49  1  0  0  0  0
  5  1  1  0  0  0  0
  5 50  1  0  0  0  0
  5 51  1  0  0  0  0
  6  2  1  0  0  0  0
  6 52  1  0  0  0  0
  6 53  1  0  0  0  0
  7 54  1  0  0  0  0
  7 55  1  0  0  0  0
  8  7  1  0  0  0  0
  8 56  1  0  0  0  0
  8 57  1  0  0  0  0
  9  7  1  0  0  0  0
  9 58  1  0  0  0  0
  9 59  1  0  0  0  0
 10  8  1  0  0  0  0
 10 60  1  0  0  0  0
 10 61  1  0  0  0  0
 11 62  1  0  0  0  0
 11 63  1  0  0  0  0
 12 11  1  0  0  0  0
 12 64  1  0  0  0  0
 12 65  1  0  0  0  0
 13 66  1  0  0  0  0
 14 67  1  0  0  0  0
 15 68  1  0  0  0  0
 16 69  1  0  0  0  0
 16 70  1  0  0  0  0
 17 71  1  0  0  0  0
 17 72  1  0  0  0  0
 18  3  1  0  0  0  0
 18 13  1  0  0  0  0
 19  4  1  0  0  0  0
 19 13  2  0  0  0  0
 20 11  1  0  0  0  0
 20 14  2  0  0  0  0
 20 15  1  0  0  0  0
 21  9  1  0  0  0  0
 21 10  1  0  0  0  0
 21 73  1  0  0  0  0
 22  5  1  0  0  0  0
 22 14  1  0  0  0  0
 23  6  1  0  0  0  0
 23 15  2  0  0  0  0
 24 16  1  0  0  0  0
 25 17  1  0  0  0  0
 25 24  2  0  0  0  0
 26 16  1  0  0  0  0
 27 24  1  0  0  0  0
 29 12  1  1  0  0  0
 29 17  1  0  0  0  0
 29 21  1  0  0  0  0
 30 18  2  0  0  0  0
 30 28  1  0  0  0  0
 31 22  2  0  0  0  0
 31 23  1  0  0  0  0
 32 26  1  0  0  0  0
 32 28  2  0  0  0  0
 33 26  2  0  0  0  0
 34 19  1  0  0  0  0
 34 28  1  0  0  0  0
 34 33  1  0  0  0  0
 35 25  1  0  0  0  0
 35 74  1  0  0  0  0
 36 27  2  0  0  0  0
 37 27  1  0  0  0  0
 37 29  1  0  0  0  0
M  END
>  <DRUGBANK_ID>
DB11878

>  <COMMON_NAME>
Filibuvir

>  <CAS_NUMBER>
877130-28-4

>  <UNII>
198J479Y2L

>  <SYNONYMS>
Filibuvir

$$$$
