
 OpenBabel10282417072D

 44 45  0  0  0  0  0  0  0  0999 V2000
   17.5970  -11.7345    0.0000 C   0  0  0  0  0  0  0  0  0  0  0  0
   17.5928  -12.5610    0.0000 N   0  0  0  0  0  0  0  0  0  0  0  0
   18.3071  -12.9799    0.0000 C   0  0  0  0  0  0  0  0  0  0  0  0
   19.0254  -12.5682    0.0000 N   0  0  0  0  0  0  0  0  0  0  0  0
   19.0297  -11.7416    0.0000 C   0  0  0  0  0  0  0  0  0  0  0  0
   18.3154  -11.3269    0.0000 N   0  0  0  0  0  0  0  0  0  0  0  0
   14.7436  -11.7334    0.0000 S   0  0  0  0  0  0  0  0  0  0  0  0
   15.4575  -11.3253    0.0000 N   0  0  0  0  0  0  0  0  0  0  0  0
   14.1499  -12.3572    0.0000 O   0  0  0  0  0  0  0  0  0  0  0  0
   15.3211  -12.3985    0.0000 O   0  0  0  0  0  0  0  0  0  0  0  0
   16.1683  -11.7345    0.0000 C   0  0  0  0  0  0  0  0  0  0  0  0
   16.8826  -11.3233    0.0000 N   0  0  0  0  0  0  0  0  0  0  0  0
   19.7400  -11.3275    0.0000 O   0  0  0  0  0  0  0  0  0  0  0  0
   20.4502  -11.7387    0.0000 C   0  0  0  0  0  0  0  0  0  0  0  0
   16.1641  -12.5610    0.0000 O   0  0  0  0  0  0  0  0  0  0  0  0
   18.2989  -13.8028    0.0000 C   0  0  0  0  0  0  0  0  0  0  0  0
   14.7395  -10.0773    0.0000 C   0  0  0  0  0  0  0  0  0  0  0  0
   15.4498  -10.4927    0.0000 O   0  0  0  0  0  0  0  0  0  0  0  0
   16.2466   -9.8298    0.0000 C   0  0  0  0  0  0  0  0  0  0  0  0
   14.7355   -9.2510    0.0000 O   0  0  0  0  0  0  0  0  0  0  0  0
   14.0338  -11.3208    0.0000 C   0  0  0  0  0  0  0  0  0  0  0  0
   14.0291  -10.4953    0.0000 C   0  0  0  0  0  0  0  0  0  0  0  0
   13.3113  -10.0846    0.0000 C   0  0  0  0  0  0  0  0  0  0  0  0
   12.6394  -10.5035    0.0000 C   0  0  0  0  0  0  0  0  0  0  0  0
   12.6029  -11.3291    0.0000 C   0  0  0  0  0  0  0  0  0  0  0  0
   13.3207  -11.7357    0.0000 C   0  0  0  0  0  0  0  0  0  0  0  0
   16.8785  -10.5381    0.0000 C   0  0  0  0  0  0  0  0  0  0  0  0
   15.4590  -10.3408    0.0000 H   0  0  0  0  0  0  0  0  0  0  0  0
   20.4489  -12.8087    0.0000 H   0  0  0  0  0  0  0  0  0  0  0  0
   21.3775  -11.2048    0.0000 H   0  0  0  0  0  0  0  0  0  0  0  0
   21.3762  -12.2748    0.0000 H   0  0  0  0  0  0  0  0  0  0  0  0
   17.3670  -14.3285    0.0000 H   0  0  0  0  0  0  0  0  0  0  0  0
   19.2202  -14.3470    0.0000 H   0  0  0  0  0  0  0  0  0  0  0  0
   18.2882  -14.8727    0.0000 H   0  0  0  0  0  0  0  0  0  0  0  0
   17.2505  -10.2000    0.0000 H   0  0  0  0  0  0  0  0  0  0  0  0
   16.0652   -8.7753    0.0000 H   0  0  0  0  0  0  0  0  0  0  0  0
   17.0692   -9.1455    0.0000 H   0  0  0  0  0  0  0  0  0  0  0  0
   13.2918   -9.0528    0.0000 H   0  0  0  0  0  0  0  0  0  0  0  0
   11.7483   -9.9829    0.0000 H   0  0  0  0  0  0  0  0  0  0  0  0
   11.7000  -11.8289    0.0000 H   0  0  0  0  0  0  0  0  0  0  0  0
   13.3267  -12.7677    0.0000 H   0  0  0  0  0  0  0  0  0  0  0  0
   17.8023   -9.9983    0.0000 H   0  0  0  0  0  0  0  0  0  0  0  0
   15.9491  -10.0079    0.0000 H   0  0  0  0  0  0  0  0  0  0  0  0
   16.8729   -9.4681    0.0000 H   0  0  0  0  0  0  0  0  0  0  0  0
  1  2  2  0  0  0  0
  2  3  1  0  0  0  0
  3 16  1  0  0  0  0
  3  4  2  0  0  0  0
  4  5  1  0  0  0  0
  5 13  1  0  0  0  0
  5  6  2  0  0  0  0
  6  1  1  0  0  0  0
  7  8  1  0  0  0  0
  7  9  2  0  0  0  0
  7 10  2  0  0  0  0
  8 11  1  0  0  0  0
  8 28  1  0  0  0  0
 11 15  2  0  0  0  0
 11 12  1  0  0  0  0
 12  1  1  0  0  0  0
 12 27  1  0  0  0  0
 13 14  1  0  0  0  0
 14 29  1  0  0  0  0
 14 30  1  0  0  0  0
 14 31  1  0  0  0  0
 16 32  1  0  0  0  0
 16 33  1  0  0  0  0
 16 34  1  0  0  0  0
 17 18  1  0  0  0  0
 17 20  2  0  0  0  0
 18 19  1  0  0  0  0
 19 35  1  0  0  0  0
 19 36  1  0  0  0  0
 19 37  1  0  0  0  0
 21  7  1  0  0  0  0
 21 22  1  0  0  0  0
 22 17  1  0  0  0  0
 22 23  2  0  0  0  0
 23 24  1  0  0  0  0
 23 38  1  0  0  0  0
 24 25  2  0  0  0  0
 24 39  1  0  0  0  0
 25 26  1  0  0  0  0
 25 40  1  0  0  0  0
 26 21  2  0  0  0  0
 26 41  1  0  0  0  0
 27 42  1  0  0  0  0
 27 43  1  0  0  0  0
 27 44  1  0  0  0  0
M  END
>  <DRUGBANK_ID>
DB03656

>  <SECONDARY_ACCESSION_NUMBERS>
EXPT00085

>  <COMMON_NAME>
Tribenuron Methyl

>  <CAS_NUMBER>
101200-48-0

>  <UNII>
D0493A985P

>  <SYNONYMS>
Sulfmethmeton-methyl; Tribenuron methyl ester; Tribenuron-methyl

$$$$
