107
 OpenBabel10282417072D

 46 50  0  0  0  0  0  0  0  0999 V2000
   -3.2268    2.0402    0.0000 O   0  0  0  0  0  0  0  0  0  0  0  0
   -2.5123    2.4527    0.0000 C   0  0  0  0  0  0  0  0  0  0  0  0
   -2.4261    3.2732    0.0000 N   0  0  0  0  0  0  0  0  0  0  0  0
   -1.6191    3.4448    0.0000 C   0  0  0  0  0  0  0  0  0  0  0  0
   -1.2066    4.1592    0.0000 C   0  0  0  0  0  0  0  0  0  0  0  0
   -0.3816    4.1592    0.0000 C   0  0  0  0  0  0  0  0  0  0  0  0
    0.0309    3.4448    0.0000 C   0  0  0  0  0  0  0  0  0  0  0  0
    0.8379    3.2732    0.0000 N   0  0  0  0  0  0  0  0  0  0  0  0
    0.9241    2.4527    0.0000 C   0  0  0  0  0  0  0  0  0  0  0  0
    0.1704    2.1172    0.0000 S   0  0  0  0  0  0  0  0  0  0  0  0
   -0.3816    2.7303    0.0000 C   0  0  0  0  0  0  0  0  0  0  0  0
   -1.2066    2.7303    0.0000 C   0  0  0  0  0  0  0  0  0  0  0  0
   -1.7586    2.1172    0.0000 C   0  0  0  0  0  0  0  0  0  0  0  0
   -1.5871    1.3102    0.0000 C   0  0  0  0  0  0  0  0  0  0  0  0
   -0.8025    1.0553    0.0000 N   0  0  0  0  0  0  0  0  0  0  0  0
   -0.6309    0.2483    0.0000 C   0  0  0  0  0  0  0  0  0  0  0  0
    0.1537   -0.0066    0.0000 C   0  0  0  0  0  0  0  0  0  0  0  0
    0.3252   -0.8136    0.0000 C   0  0  0  0  0  0  0  0  0  0  0  0
   -0.2879   -1.3656    0.0000 C   0  0  0  0  0  0  0  0  0  0  0  0
   -1.0725   -1.1107    0.0000 C   0  0  0  0  0  0  0  0  0  0  0  0
   -1.2440   -0.3037    0.0000 C   0  0  0  0  0  0  0  0  0  0  0  0
   -0.1164   -2.1726    0.0000 S   0  0  0  0  0  0  0  0  0  0  0  0
   -0.9233   -2.3441    0.0000 O   0  0  0  0  0  0  0  0  0  0  0  0
    0.6906   -2.0011    0.0000 O   0  0  0  0  0  0  0  0  0  0  0  0
    0.0552   -2.9796    0.0000 N   0  0  0  0  0  0  0  0  0  0  0  0
    2.2375   -2.9374    0.0000 C   0  0  0  0  0  0  0  0  0  0  0  0
    2.4090   -3.7444    0.0000 C   0  0  0  0  0  0  0  0  0  0  0  0
    1.7959   -4.2964    0.0000 C   0  0  0  0  0  0  0  0  0  0  0  0
    1.0113   -4.0415    0.0000 N   0  0  0  0  0  0  0  0  0  0  0  0
    0.8398   -3.2345    0.0000 C   0  0  0  0  0  0  0  0  0  0  0  0
    1.4529   -2.6825    0.0000 C   0  0  0  0  0  0  0  0  0  0  0  0
   -1.7226    5.0529    0.0000 H   0  0  0  0  0  0  0  0  0  0  0  0
    0.1344    5.0529    0.0000 H   0  0  0  0  0  0  0  0  0  0  0  0
    1.8178    1.9366    0.0000 H   0  0  0  0  0  0  0  0  0  0  0  0
   -2.3823    0.5942    0.0000 H   0  0  0  0  0  0  0  0  0  0  0  0
   -1.3646    0.2636    0.0000 H   0  0  0  0  0  0  0  0  0  0  0  0
   -0.0709    1.7141    0.0000 H   0  0  0  0  0  0  0  0  0  0  0  0
    0.9206    0.6839    0.0000 H   0  0  0  0  0  0  0  0  0  0  0  0
    1.3067   -1.1325    0.0000 H   0  0  0  0  0  0  0  0  0  0  0  0
   -1.8394   -1.8012    0.0000 H   0  0  0  0  0  0  0  0  0  0  0  0
   -2.2255    0.0152    0.0000 H   0  0  0  0  0  0  0  0  0  0  0  0
   -0.6764   -3.6384    0.0000 H   0  0  0  0  0  0  0  0  0  0  0  0
    3.0044   -2.2469    0.0000 H   0  0  0  0  0  0  0  0  0  0  0  0
    3.3905   -4.0633    0.0000 H   0  0  0  0  0  0  0  0  0  0  0  0
    2.0105   -5.3058    0.0000 H   0  0  0  0  0  0  0  0  0  0  0  0
    1.2383   -1.6731    0.0000 H   0  0  0  0  0  0  0  0  0  0  0  0
  1  2  2  0  0  0  0
  2  3  1  0  0  0  0
  2 13  1  0  0  0  0
  3  4  2  0  0  0  0
  4  5  1  0  0  0  0
  4 12  1  0  0  0  0
  5  6  2  0  0  0  0
  5 32  1  0  0  0  0
  6  7  1  0  0  0  0
  6 33  1  0  0  0  0
  7  8  1  0  0  0  0
  7 11  2  0  0  0  0
  8  9  2  0  0  0  0
  9 10  1  0  0  0  0
  9 34  1  0  0  0  0
 10 11  1  0  0  0  0
 11 12  1  0  0  0  0
 12 13  2  0  0  0  0
 13 14  1  0  0  0  0
 14 15  1  0  0  0  0
 14 35  1  0  0  0  0
 14 36  1  0  0  0  0
 15 16  1  0  0  0  0
 15 37  1  0  0  0  0
 16 17  2  0  0  0  0
 16 21  1  0  0  0  0
 17 18  1  0  0  0  0
 17 38  1  0  0  0  0
 18 19  2  0  0  0  0
 18 39  1  0  0  0  0
 19 20  1  0  0  0  0
 19 22  1  0  0  0  0
 20 21  2  0  0  0  0
 20 40  1  0  0  0  0
 21 41  1  0  0  0  0
 22 23  2  0  0  0  0
 22 24  2  0  0  0  0
 22 25  1  0  0  0  0
 25 30  1  0  0  0  0
 25 42  1  0  0  0  0
 26 27  2  0  0  0  0
 26 31  1  0  0  0  0
 26 43  1  0  0  0  0
 27 28  1  0  0  0  0
 27 44  1  0  0  0  0
 28 29  2  0  0  0  0
 28 45  1  0  0  0  0
 29 30  1  0  0  0  0
 30 31  2  0  0  0  0
 31 46  1  0  0  0  0
M  END
>  <DRUGBANK_ID>
DB06844

>  <COMMON_NAME>
4-[(7-OXO-7H-THIAZOLO[5,4-E]INDOL-8-YLMETHYL)-AMINO]-N-PYRIDIN-2-YL-BENZENESULFONAMIDE

$$$$
