
 OpenBabel10282417072D

 75 72  0  0  1  0  0  0  0  0999 V2000
   -4.3583   -0.2888    0.0000 C   0  0  0  0  0  0  0  0  0  0  0  0
   -3.6438    0.1237    0.0000 N   0  0  0  0  0  0  0  0  0  0  0  0
   -3.6438    0.9487    0.0000 C   0  0  0  0  0  0  0  0  0  0  0  0
   -2.9293   -0.2888    0.0000 C   0  0  0  0  0  0  0  0  0  0  0  0
   -2.2149    0.1237    0.0000 C   0  0  0  0  0  0  0  0  0  0  0  0
   -2.2149    0.9487    0.0000 O   0  0  0  0  0  0  0  0  0  0  0  0
   -1.5004   -0.2888    0.0000 O   0  0  0  0  0  0  0  0  0  0  0  0
   -0.7859    0.1237    0.0000 C   0  0  0  0  0  0  0  0  0  0  0  0
   -0.0714   -0.2888    0.0000 C   0  0  2  0  0  0  0  0  0  0  0  0
    0.6430    0.1237    0.0000 C   0  0  2  0  0  0  0  0  0  0  0  0
    1.3575   -0.2887    0.0000 C   0  0  1  0  0  0  0  0  0  0  0  0
    2.0720    0.1237    0.0000 C   0  0  2  0  0  0  0  0  0  0  0  0
    2.7864   -0.2887    0.0000 C   0  0  0  0  0  0  0  0  0  0  0  0
    2.7864   -1.1137    0.0000 O   0  0  0  0  0  0  0  0  0  0  0  0
    3.5009    0.1238    0.0000 O   0  5  0  0  0  0  0  0  0  0  0  0
    2.0720    0.9488    0.0000 O   0  0  0  0  0  0  0  0  0  0  0  0
    1.3575   -1.1138    0.0000 O   0  0  0  0  0  0  0  0  0  0  0  0
    0.6430    0.9487    0.0000 O   0  0  0  0  0  0  0  0  0  0  0  0
   -0.0714   -1.1138    0.0000 O   0  0  0  0  0  0  0  0  0  0  0  0
    6.5725   -0.2605    0.0000 C   0  0  0  0  0  0  0  0  0  0  0  0
    7.2870    0.1520    0.0000 N   0  0  0  0  0  0  0  0  0  0  0  0
    7.2870    0.9770    0.0000 C   0  0  0  0  0  0  0  0  0  0  0  0
    8.0015   -0.2605    0.0000 C   0  0  0  0  0  0  0  0  0  0  0  0
    8.7159    0.1520    0.0000 C   0  0  0  0  0  0  0  0  0  0  0  0
    8.7159    0.9770    0.0000 O   0  0  0  0  0  0  0  0  0  0  0  0
    9.4304   -0.2605    0.0000 O   0  0  0  0  0  0  0  0  0  0  0  0
   10.1449    0.1520    0.0000 C   0  0  0  0  0  0  0  0  0  0  0  0
   10.8593   -0.2605    0.0000 C   0  0  2  0  0  0  0  0  0  0  0  0
   11.5738    0.1520    0.0000 C   0  0  2  0  0  0  0  0  0  0  0  0
   12.2883   -0.2605    0.0000 C   0  0  1  0  0  0  0  0  0  0  0  0
   13.0028    0.1520    0.0000 C   0  0  2  0  0  0  0  0  0  0  0  0
   13.7172   -0.2605    0.0000 C   0  0  0  0  0  0  0  0  0  0  0  0
   14.4317    0.1520    0.0000 O   0  0  0  0  0  0  0  0  0  0  0  0
   13.7172   -1.0855    0.0000 O   0  5  0  0  0  0  0  0  0  0  0  0
   13.0028    0.9770    0.0000 O   0  0  0  0  0  0  0  0  0  0  0  0
   12.2883   -1.0855    0.0000 O   0  0  0  0  0  0  0  0  0  0  0  0
   11.5738    0.9770    0.0000 O   0  0  0  0  0  0  0  0  0  0  0  0
   10.8593   -1.0855    0.0000 O   0  0  0  0  0  0  0  0  0  0  0  0
    4.2154    0.5363    0.0000 Ca  0  2  0  0  0  0  0  0  0  0  0  0
   -5.2849    0.2462    0.0000 H   0  0  0  0  0  0  0  0  0  0  0  0
   -4.3583   -1.3588    0.0000 H   0  0  0  0  0  0  0  0  0  0  0  0
   -5.2850   -0.8238    0.0000 H   0  0  0  0  0  0  0  0  0  0  0  0
   -2.7172    1.4837    0.0000 H   0  0  0  0  0  0  0  0  0  0  0  0
   -4.5704    1.4837    0.0000 H   0  0  0  0  0  0  0  0  0  0  0  0
   -3.6438    2.0187    0.0000 H   0  0  0  0  0  0  0  0  0  0  0  0
   -2.9293   -1.3588    0.0000 H   0  0  0  0  0  0  0  0  0  0  0  0
   -2.0026   -0.8238    0.0000 H   0  0  0  0  0  0  0  0  0  0  0  0
   -0.7859    1.1937    0.0000 H   0  0  0  0  0  0  0  0  0  0  0  0
    0.1407    0.6587    0.0000 H   0  0  0  0  0  0  0  0  0  0  0  0
   -0.9980   -0.8238    0.0000 H   0  0  0  0  0  0  0  0  0  0  0  0
   -0.2837    0.6587    0.0000 H   0  0  0  0  0  0  0  0  0  0  0  0
    0.4309   -0.8238    0.0000 H   0  0  0  0  0  0  0  0  0  0  0  0
    1.1454    0.6588    0.0000 H   0  0  0  0  0  0  0  0  0  0  0  0
    2.9120    1.4338    0.0000 H   0  0  0  0  0  0  0  0  0  0  0  0
    0.5175   -1.5988    0.0000 H   0  0  0  0  0  0  0  0  0  0  0  0
    1.4830    1.4337    0.0000 H   0  0  0  0  0  0  0  0  0  0  0  0
   -0.9114   -1.5988    0.0000 H   0  0  0  0  0  0  0  0  0  0  0  0
    5.6459    0.2745    0.0000 H   0  0  0  0  0  0  0  0  0  0  0  0
    6.5725   -1.3305    0.0000 H   0  0  0  0  0  0  0  0  0  0  0  0
    5.6458   -0.7955    0.0000 H   0  0  0  0  0  0  0  0  0  0  0  0
    8.2136    1.5120    0.0000 H   0  0  0  0  0  0  0  0  0  0  0  0
    6.3604    1.5120    0.0000 H   0  0  0  0  0  0  0  0  0  0  0  0
    7.2870    2.0470    0.0000 H   0  0  0  0  0  0  0  0  0  0  0  0
    8.0015   -1.3305    0.0000 H   0  0  0  0  0  0  0  0  0  0  0  0
    8.9282   -0.7955    0.0000 H   0  0  0  0  0  0  0  0  0  0  0  0
   10.1449    1.2220    0.0000 H   0  0  0  0  0  0  0  0  0  0  0  0
   11.0716    0.6870    0.0000 H   0  0  0  0  0  0  0  0  0  0  0  0
    9.9326   -0.7955    0.0000 H   0  0  0  0  0  0  0  0  0  0  0  0
   10.6472    0.6870    0.0000 H   0  0  0  0  0  0  0  0  0  0  0  0
   11.3617   -0.7955    0.0000 H   0  0  0  0  0  0  0  0  0  0  0  0
   12.0762    0.6870    0.0000 H   0  0  0  0  0  0  0  0  0  0  0  0
   13.8428    1.4620    0.0000 H   0  0  0  0  0  0  0  0  0  0  0  0
   11.4483   -1.5705    0.0000 H   0  0  0  0  0  0  0  0  0  0  0  0
   12.4138    1.4620    0.0000 H   0  0  0  0  0  0  0  0  0  0  0  0
   10.0193   -1.5705    0.0000 H   0  0  0  0  0  0  0  0  0  0  0  0
  1  2  1  0  0  0  0
  1 40  1  0  0  0  0
  1 41  1  0  0  0  0
  1 42  1  0  0  0  0
  2  3  1  0  0  0  0
  2  4  1  0  0  0  0
  3 43  1  0  0  0  0
  3 44  1  0  0  0  0
  3 45  1  0  0  0  0
  4  5  1  0  0  0  0
  4 46  1  0  0  0  0
  4 47  1  0  0  0  0
  5  6  2  0  0  0  0
  5  7  1  0  0  0  0
  7  8  1  0  0  0  0
  8  9  1  0  0  0  0
  8 48  1  0  0  0  0
  8 49  1  0  0  0  0
  9 10  1  0  0  0  0
  9 19  1  0  0  0  0
  9 50  1  1  0  0  0
 10 11  1  0  0  0  0
 10 18  1  0  0  0  0
 10 51  1  6  0  0  0
 11 12  1  0  0  0  0
 11 17  1  0  0  0  0
 11 52  1  6  0  0  0
 12 13  1  0  0  0  0
 12 16  1  0  0  0  0
 12 53  1  6  0  0  0
 13 14  2  0  0  0  0
 13 15  1  0  0  0  0
 16 54  1  0  0  0  0
 17 55  1  0  0  0  0
 18 56  1  0  0  0  0
 19 57  1  0  0  0  0
 20 21  1  0  0  0  0
 20 58  1  0  0  0  0
 20 59  1  0  0  0  0
 20 60  1  0  0  0  0
 21 22  1  0  0  0  0
 21 23  1  0  0  0  0
 22 61  1  0  0  0  0
 22 62  1  0  0  0  0
 22 63  1  0  0  0  0
 23 24  1  0  0  0  0
 23 64  1  0  0  0  0
 23 65  1  0  0  0  0
 24 25  2  0  0  0  0
 24 26  1  0  0  0  0
 26 27  1  0  0  0  0
 27 28  1  0  0  0  0
 27 66  1  0  0  0  0
 27 67  1  0  0  0  0
 28 29  1  0  0  0  0
 28 38  1  0  0  0  0
 28 68  1  1  0  0  0
 29 30  1  0  0  0  0
 29 37  1  0  0  0  0
 29 69  1  6  0  0  0
 30 31  1  0  0  0  0
 30 36  1  0  0  0  0
 30 70  1  6  0  0  0
 31 32  1  0  0  0  0
 31 35  1  0  0  0  0
 31 71  1  6  0  0  0
 32 33  2  0  0  0  0
 32 34  1  0  0  0  0
 35 72  1  0  0  0  0
 36 73  1  0  0  0  0
 37 74  1  0  0  0  0
 38 75  1  0  0  0  0
M  CHG  3  15  -1  34  -1  39   2
M  END
>  <DRUGBANK_ID>
DB13590

>  <COMMON_NAME>
Calcium pangamate

>  <CAS_NUMBER>
20310-61-6

>  <UNII>
492G10Q871

$$$$
