
 OpenBabel10282417072D

 28 29  0  0  0  0  0  0  0  0999 V2000
    0.0000   -0.4125    0.0000 C   0  0  0  0  0  0  0  0  0  0  0  0
    0.7145   -0.8250    0.0000 N   0  0  0  0  0  0  0  0  0  0  0  0
    2.1434    0.8250    0.0000 C   0  0  0  0  0  0  0  0  0  0  0  0
   -0.7145   -0.8250    0.0000 N   0  0  0  0  0  0  0  0  0  0  0  0
    1.4289   -0.4125    0.0000 C   0  0  0  0  0  0  0  0  0  0  0  0
    2.8579    0.4125    0.0000 C   0  0  0  0  0  0  0  0  0  0  0  0
   -1.4289   -0.4125    0.0000 C   0  0  0  0  0  0  0  0  0  0  0  0
    2.1434   -0.8250    0.0000 C   0  0  0  0  0  0  0  0  0  0  0  0
   -2.8579    0.4125    0.0000 C   0  0  0  0  0  0  0  0  0  0  0  0
   -2.1434   -0.8250    0.0000 C   0  0  0  0  0  0  0  0  0  0  0  0
   -2.1434    0.8250    0.0000 C   0  0  0  0  0  0  0  0  0  0  0  0
    1.4289    0.4125    0.0000 C   0  0  0  0  0  0  0  0  0  0  0  0
    0.0000    0.4125    0.0000 O   0  0  0  0  0  0  0  0  0  0  0  0
   -1.4289    0.4125    0.0000 C   0  0  0  0  0  0  0  0  0  0  0  0
   -2.8579   -0.4125    0.0000 C   0  0  0  0  0  0  0  0  0  0  0  0
    2.8579   -0.4125    0.0000 C   0  0  0  0  0  0  0  0  0  0  0  0
    0.7145   -1.8095    0.0000 H   0  0  0  0  0  0  0  0  0  0  0  0
    2.1434    1.8570    0.0000 H   0  0  0  0  0  0  0  0  0  0  0  0
   -0.7145   -1.8095    0.0000 H   0  0  0  0  0  0  0  0  0  0  0  0
    3.7516    0.9285    0.0000 H   0  0  0  0  0  0  0  0  0  0  0  0
    2.1434   -1.8570    0.0000 H   0  0  0  0  0  0  0  0  0  0  0  0
   -3.7516    0.9285    0.0000 H   0  0  0  0  0  0  0  0  0  0  0  0
   -2.1434   -1.8570    0.0000 H   0  0  0  0  0  0  0  0  0  0  0  0
   -2.1434    1.8570    0.0000 H   0  0  0  0  0  0  0  0  0  0  0  0
    0.5352    0.9285    0.0000 H   0  0  0  0  0  0  0  0  0  0  0  0
   -0.5352    0.9285    0.0000 H   0  0  0  0  0  0  0  0  0  0  0  0
   -3.7516   -0.9285    0.0000 H   0  0  0  0  0  0  0  0  0  0  0  0
    3.7516   -0.9285    0.0000 H   0  0  0  0  0  0  0  0  0  0  0  0
  2  1  1  0  0  0  0
  2 17  1  0  0  0  0
  3 18  1  0  0  0  0
  4  1  1  0  0  0  0
  4 19  1  0  0  0  0
  5  2  1  0  0  0  0
  5 12  2  0  0  0  0
  6  3  2  0  0  0  0
  6 20  1  0  0  0  0
  7  4  1  0  0  0  0
  8  5  1  0  0  0  0
  8 16  2  0  0  0  0
  8 21  1  0  0  0  0
  9 22  1  0  0  0  0
 10  7  1  0  0  0  0
 10 23  1  0  0  0  0
 11  9  2  0  0  0  0
 11 14  1  0  0  0  0
 11 24  1  0  0  0  0
 12  3  1  0  0  0  0
 12 25  1  0  0  0  0
 13  1  2  0  0  0  0
 14  7  2  0  0  0  0
 14 26  1  0  0  0  0
 15  9  1  0  0  0  0
 15 10  2  0  0  0  0
 15 27  1  0  0  0  0
 16  6  1  0  0  0  0
 16 28  1  0  0  0  0
M  END
>  <DRUGBANK_ID>
DB07496

>  <COMMON_NAME>
1,3-diphenylurea

>  <CAS_NUMBER>
102-07-8

>  <UNII>
94YD8RMX5B

>  <SYNONYMS>
Carbanilide; Diphenylcarbamide; Diphenylurea; N-phenyl-N'-phenylurea; N,N'-diphenylurea; s-diphenylurea; sym-diphenylurea

$$$$
