
 OpenBabel10282417072D

 24 24  0  0  0  0  0  0  0  0999 V2000
    0.3253   -1.1412    0.0000 C   0  0  0  0  0  0  0  0  0  0  0  0
    1.0398   -0.7287    0.0000 C   0  0  0  0  0  0  0  0  0  0  0  0
   -0.3891   -0.7287    0.0000 C   0  0  0  0  0  0  0  0  0  0  0  0
    1.0398    0.0963    0.0000 N   0  0  0  0  0  0  0  0  0  0  0  0
    1.7543   -1.1412    0.0000 O   0  0  0  0  0  0  0  0  0  0  0  0
   -0.3891    0.0963    0.0000 C   0  0  0  0  0  0  0  0  0  0  0  0
    0.3253    0.5088    0.0000 C   0  0  0  0  0  0  0  0  0  0  0  0
    0.3253    1.3339    0.0000 O   0  0  0  0  0  0  0  0  0  0  0  0
   -1.2870   -0.4580    0.0000 C   0  0  0  0  0  0  0  0  0  0  0  0
   -0.9499   -1.3339    0.0000 C   0  0  0  0  0  0  0  0  0  0  0  0
   -1.7543   -1.1509    0.0000 C   0  0  0  0  0  0  0  0  0  0  0  0
    0.3253   -2.2112    0.0000 H   0  0  0  0  0  0  0  0  0  0  0  0
   -0.6014   -1.6762    0.0000 H   0  0  0  0  0  0  0  0  0  0  0  0
    1.8924    0.5886    0.0000 H   0  0  0  0  0  0  0  0  0  0  0  0
   -1.3158    0.6313    0.0000 H   0  0  0  0  0  0  0  0  0  0  0  0
   -0.3891    1.1663    0.0000 H   0  0  0  0  0  0  0  0  0  0  0  0
   -1.5318    0.5836    0.0000 H   0  0  0  0  0  0  0  0  0  0  0  0
   -2.0667   -1.1908    0.0000 H   0  0  0  0  0  0  0  0  0  0  0  0
   -2.3115   -0.1491    0.0000 H   0  0  0  0  0  0  0  0  0  0  0  0
   -0.6338   -2.3561    0.0000 H   0  0  0  0  0  0  0  0  0  0  0  0
   -1.6771   -2.1188    0.0000 H   0  0  0  0  0  0  0  0  0  0  0  0
   -2.0704   -0.1287    0.0000 H   0  0  0  0  0  0  0  0  0  0  0  0
   -2.4815   -1.9358    0.0000 H   0  0  0  0  0  0  0  0  0  0  0  0
   -2.7976   -0.9135    0.0000 H   0  0  0  0  0  0  0  0  0  0  0  0
  1  2  1  0  0  0  0
  1  3  1  0  0  0  0
  1 12  1  0  0  0  0
  1 13  1  0  0  0  0
  2  4  1  0  0  0  0
  2  5  2  0  0  0  0
  3  6  1  0  0  0  0
  3  9  1  0  0  0  0
  3 10  1  0  0  0  0
  4  7  1  0  0  0  0
  4 14  1  0  0  0  0
  6  7  1  0  0  0  0
  6 15  1  0  0  0  0
  6 16  1  0  0  0  0
  7  8  2  0  0  0  0
  9 17  1  0  0  0  0
  9 18  1  0  0  0  0
  9 19  1  0  0  0  0
 10 11  1  0  0  0  0
 10 20  1  0  0  0  0
 10 21  1  0  0  0  0
 11 22  1  0  0  0  0
 11 23  1  0  0  0  0
 11 24  1  0  0  0  0
M  END
>  <DRUGBANK_ID>
DB13740

>  <COMMON_NAME>
Bemegride

>  <CAS_NUMBER>
64-65-3

>  <UNII>
57DQA39DO2

>  <SYNONYMS>
Bemegrida; Bemegride; Bemegridum

$$$$
