1AD
 OpenBabel10282417072D

 44 45  0  0  0  0  0  0  0  0999 V2000
    1.5466    0.3688    0.0000 C   0  0  2  0  0  0  0  0  0  0  0  0
    1.1341   -0.9008    0.0000 C   0  0  1  0  0  0  0  0  0  0  0  0
    0.0946    0.1388    0.0000 C   0  0  0  0  0  0  0  0  0  0  0  0
    2.2141   -0.1161    0.0000 C   0  0  0  0  0  0  0  0  0  0  0  0
    1.5466    1.1938    0.0000 C   0  0  0  0  0  0  0  0  0  0  0  0
    1.9591   -0.9008    0.0000 C   0  0  0  0  0  0  0  0  0  0  0  0
    0.6492   -1.5682    0.0000 C   0  0  0  0  0  0  0  0  0  0  0  0
   -0.5185   -0.4132    0.0000 C   0  0  2  0  0  0  0  0  0  0  0  0
    0.8792   -0.1161    0.0000 N   0  0  0  0  0  0  0  0  0  0  0  0
   -0.0770    0.9458    0.0000 O   0  0  0  0  0  0  0  0  0  0  0  0
    1.5466    2.0188    0.0000 C   0  0  0  0  0  0  0  0  0  0  0  0
    0.9848   -2.3219    0.0000 N   0  0  0  0  0  0  0  0  0  0  0  0
   -1.3031   -0.1583    0.0000 C   0  0  0  0  0  0  0  0  0  0  0  0
   -0.3470   -1.2202    0.0000 N   0  0  0  0  0  0  0  0  0  0  0  0
    1.5466    2.8438    0.0000 C   0  0  0  0  0  0  0  0  0  0  0  0
   -1.9706   -0.6432    0.0000 C   0  0  0  0  0  0  0  0  0  0  0  0
   -1.5581    0.6263    0.0000 C   0  0  0  0  0  0  0  0  0  0  0  0
   -2.6380   -0.1583    0.0000 C   0  0  0  0  0  0  0  0  0  0  0  0
   -2.3831    0.6263    0.0000 C   0  0  0  0  0  0  0  0  0  0  0  0
    2.0669    0.6339    0.0000 H   0  0  0  0  0  0  0  0  0  0  0  0
    1.3992   -1.4210    0.0000 H   0  0  0  0  0  0  0  0  0  0  0  0
   -0.6399    0.1579    0.0000 H   0  0  0  0  0  0  0  0  0  0  0  0
    3.2317    0.2146    0.0000 H   0  0  0  0  0  0  0  0  0  0  0  0
    2.9707   -0.8727    0.0000 H   0  0  0  0  0  0  0  0  0  0  0  0
    2.5880   -1.7665    0.0000 H   0  0  0  0  0  0  0  0  0  0  0  0
    3.0159   -0.7334    0.0000 H   0  0  0  0  0  0  0  0  0  0  0  0
   -0.4149   -1.4564    0.0000 H   0  0  0  0  0  0  0  0  0  0  0  0
    0.0203   -2.4339    0.0000 H   0  0  0  0  0  0  0  0  0  0  0  0
    0.3853   -3.1471    0.0000 H   0  0  0  0  0  0  0  0  0  0  0  0
    1.9992   -2.4285    0.0000 H   0  0  0  0  0  0  0  0  0  0  0  0
   -2.3207    0.1723    0.0000 H   0  0  0  0  0  0  0  0  0  0  0  0
   -1.1050   -1.9027    0.0000 H   0  0  0  0  0  0  0  0  0  0  0  0
    0.6231   -1.5354    0.0000 H   0  0  0  0  0  0  0  0  0  0  0  0
    2.4732    3.3788    0.0000 H   0  0  0  0  0  0  0  0  0  0  0  0
    0.6200    3.3788    0.0000 H   0  0  0  0  0  0  0  0  0  0  0  0
    1.5466    3.9138    0.0000 H   0  0  0  0  0  0  0  0  0  0  0  0
   -1.9706   -1.7132    0.0000 H   0  0  0  0  0  0  0  0  0  0  0  0
   -2.9240   -1.1290    0.0000 H   0  0  0  0  0  0  0  0  0  0  0  0
   -0.9292    1.4920    0.0000 H   0  0  0  0  0  0  0  0  0  0  0  0
   -2.0439    1.5797    0.0000 H   0  0  0  0  0  0  0  0  0  0  0  0
   -3.6556   -0.4890    0.0000 H   0  0  0  0  0  0  0  0  0  0  0  0
   -3.3946    0.5983    0.0000 H   0  0  0  0  0  0  0  0  0  0  0  0
   -3.0120    1.4919    0.0000 H   0  0  0  0  0  0  0  0  0  0  0  0
   -3.4399    0.4589    0.0000 H   0  0  0  0  0  0  0  0  0  0  0  0
  1  4  1  0  0  0  0
  1  5  1  0  0  0  0
  1  9  1  0  0  0  0
  1 20  1  6  0  0  0
  2  6  1  0  0  0  0
  2  7  1  0  0  0  0
  2  9  1  0  0  0  0
  2 21  1  6  0  0  0
  3  8  1  0  0  0  0
  3  9  1  0  0  0  0
  3 10  2  0  0  0  0
  4  6  1  0  0  0  0
  4 23  1  0  0  0  0
  4 24  1  0  0  0  0
  5 11  3  0  0  0  0
  6 25  1  0  0  0  0
  6 26  1  0  0  0  0
  7 12  1  0  0  0  0
  7 27  1  0  0  0  0
  7 28  1  0  0  0  0
  8 13  1  0  0  0  0
  8 14  1  0  0  0  0
  8 22  1  6  0  0  0
 11 15  1  0  0  0  0
 12 29  1  0  0  0  0
 12 30  1  0  0  0  0
 13 16  1  0  0  0  0
 13 17  1  0  0  0  0
 13 31  1  0  0  0  0
 14 32  1  0  0  0  0
 14 33  1  0  0  0  0
 15 34  1  0  0  0  0
 15 35  1  0  0  0  0
 15 36  1  0  0  0  0
 16 18  1  0  0  0  0
 16 37  1  0  0  0  0
 16 38  1  0  0  0  0
 17 19  1  0  0  0  0
 17 39  1  0  0  0  0
 17 40  1  0  0  0  0
 18 19  1  0  0  0  0
 18 41  1  0  0  0  0
 18 42  1  0  0  0  0
 19 43  1  0  0  0  0
 19 44  1  0  0  0  0
M  END
>  <DRUGBANK_ID>
DB06880

>  <COMMON_NAME>
(1S)-2-[(2S,5R)-2-(AMINOMETHYL)-5-PROP-1-YN-1-YLPYRROLIDIN-1-YL]-1-CYCLOPENTYL-2-OXOETHANAMINE

$$$$
