
 OpenBabel10282417072D

167175  0  0  0  0  0  0  0  0999 V2000
   -4.3682    1.4911    0.0000 O   0  0  0  0  0  0  0  0  0  0  0  0
   -3.5775    1.7266    0.0000 C   0  0  1  0  0  0  0  0  0  0  0  0
   -3.5552    2.5514    0.0000 C   0  0  1  0  0  0  0  0  0  0  0  0
   -4.3356    2.8268    0.0000 C   0  0  0  0  0  0  0  0  0  0  0  0
   -4.8340    2.1705    0.0000 C   0  0  0  0  0  0  0  0  0  0  0  0
   -2.8619    1.3200    0.0000 C   0  0  0  0  0  0  0  0  0  0  0  0
   -2.1499    1.7284    0.0000 C   0  0  0  0  0  0  0  0  0  0  0  0
   -2.1499    2.5534    0.0000 C   0  0  0  0  0  0  0  0  0  0  0  0
   -2.8619    2.9700    0.0000 C   0  0  1  0  0  0  0  0  0  0  0  0
   -5.7453    6.2950    0.0000 C   0  0  0  0  0  0  0  0  0  0  0  0
   -4.9828    6.6659    0.0000 C   0  0  0  0  0  0  0  0  0  0  0  0
   -4.2703    6.2575    0.0000 C   0  0  0  0  0  0  0  0  0  0  0  0
   -3.5578    6.6700    0.0000 C   0  0  0  0  0  0  0  0  0  0  0  0
   -2.8453    6.2617    0.0000 C   0  0  2  0  0  0  0  0  0  0  0  0
   -1.4212    7.0867    0.0000 C   0  0  0  0  0  0  0  0  0  0  0  0
   -1.4212    6.2617    0.0000 C   0  0  1  0  0  0  0  0  0  0  0  0
   -0.7092    5.8534    0.0000 O   0  0  0  0  0  0  0  0  0  0  0  0
    0.0027    6.2617    0.0000 C   0  0  1  0  0  0  0  0  0  0  0  0
    0.0027    7.0867    0.0000 C   0  0  2  0  0  0  0  0  0  0  0  0
   -0.7092    7.5034    0.0000 C   0  0  0  0  0  0  0  0  0  0  0  0
   -2.8453    5.4367    0.0000 C   0  0  0  0  0  0  0  0  0  0  0  0
   -2.1332    5.0284    0.0000 C   0  0  1  0  0  0  0  0  0  0  0  0
   -1.4212    5.4367    0.0000 C   0  0  0  0  0  0  0  0  0  0  0  0
   -2.1332    6.6784    0.0000 O   0  0  0  0  0  0  0  0  0  0  0  0
   -5.0112    7.4909    0.0000 C   0  0  0  0  0  0  0  0  0  0  0  0
   -2.8494    7.0867    0.0000 H   0  0  0  0  0  0  0  0  0  0  0  0
    0.7130    7.5034    0.0000 C   0  0  0  0  0  0  0  0  0  0  0  0
   -2.1411    4.2034    0.0000 O   0  0  0  0  0  0  0  0  0  0  0  0
   -2.8578    3.7950    0.0000 C   0  0  0  0  0  0  0  0  0  0  0  0
   -3.5744    4.2075    0.0000 O   0  0  0  0  0  0  0  0  0  0  0  0
   -1.4411    1.3159    0.0000 C   0  0  0  0  0  0  0  0  0  0  0  0
   -2.8661    0.4950    0.0000 N   0  0  0  0  0  0  0  0  0  0  0  0
   -4.3411    3.6534    0.0000 C   0  0  0  0  0  0  0  0  0  0  0  0
   -5.0578    4.0659    0.0000 C   0  0  0  0  0  0  0  0  0  0  0  0
   -5.0619    4.8909    0.0000 C   0  0  0  0  0  0  0  0  0  0  0  0
   -5.7786    5.3034    0.0000 C   0  0  2  0  0  0  0  0  0  0  0  0
   -6.4953    4.8950    0.0000 C   0  0  0  0  0  0  0  0  0  0  0  0
   -2.1494    3.3867    0.0000 H   0  0  0  0  0  0  0  0  0  0  0  0
   -3.5828    0.9034    0.0000 H   0  0  0  0  0  0  0  0  0  0  0  0
   -3.5619    3.3784    0.0000 O   0  0  0  0  0  0  0  0  0  0  0  0
   -3.4495   -0.0883    0.0000 O   0  0  0  0  0  0  0  0  0  0  0  0
    0.7166    5.8482    0.0000 C   0  0  0  0  0  0  0  0  0  0  0  0
    1.4316    6.2596    0.0000 C   0  0  0  0  0  0  0  0  0  0  0  0
    1.4104   -5.9239    0.0000 O   0  0  0  0  0  0  0  0  0  0  0  0
    2.2011   -5.6884    0.0000 C   0  0  1  0  0  0  0  0  0  0  0  0
    2.2234   -4.8636    0.0000 C   0  0  1  0  0  0  0  0  0  0  0  0
    1.4430   -4.5882    0.0000 C   0  0  0  0  0  0  0  0  0  0  0  0
    0.9446   -5.2445    0.0000 C   0  0  0  0  0  0  0  0  0  0  0  0
    2.9167   -6.0950    0.0000 C   0  0  0  0  0  0  0  0  0  0  0  0
    3.6287   -5.6866    0.0000 C   0  0  0  0  0  0  0  0  0  0  0  0
    3.6287   -4.8616    0.0000 C   0  0  0  0  0  0  0  0  0  0  0  0
    2.9167   -4.4450    0.0000 C   0  0  1  0  0  0  0  0  0  0  0  0
    0.0333   -1.1200    0.0000 C   0  0  0  0  0  0  0  0  0  0  0  0
    0.7958   -0.7491    0.0000 C   0  0  0  0  0  0  0  0  0  0  0  0
    1.5083   -1.1575    0.0000 C   0  0  0  0  0  0  0  0  0  0  0  0
    2.2208   -0.7450    0.0000 C   0  0  0  0  0  0  0  0  0  0  0  0
    2.9333   -1.1533    0.0000 C   0  0  2  0  0  0  0  0  0  0  0  0
    4.3574   -0.3283    0.0000 C   0  0  0  0  0  0  0  0  0  0  0  0
    4.3574   -1.1533    0.0000 C   0  0  1  0  0  0  0  0  0  0  0  0
    5.0694   -1.5616    0.0000 O   0  0  0  0  0  0  0  0  0  0  0  0
    5.7814   -1.1533    0.0000 C   0  0  1  0  0  0  0  0  0  0  0  0
    5.7814   -0.3283    0.0000 C   0  0  2  0  0  0  0  0  0  0  0  0
    5.0694    0.0883    0.0000 C   0  0  0  0  0  0  0  0  0  0  0  0
    2.9333   -1.9783    0.0000 C   0  0  0  0  0  0  0  0  0  0  0  0
    3.6454   -2.3866    0.0000 C   0  0  1  0  0  0  0  0  0  0  0  0
    4.3574   -1.9783    0.0000 C   0  0  0  0  0  0  0  0  0  0  0  0
    3.6454   -0.7366    0.0000 O   0  0  0  0  0  0  0  0  0  0  0  0
    0.7674    0.0758    0.0000 C   0  0  0  0  0  0  0  0  0  0  0  0
    2.9292   -0.3283    0.0000 H   0  0  0  0  0  0  0  0  0  0  0  0
    6.4917    0.0883    0.0000 C   0  0  0  0  0  0  0  0  0  0  0  0
    3.6375   -3.2116    0.0000 O   0  0  0  0  0  0  0  0  0  0  0  0
    2.9208   -3.6200    0.0000 C   0  0  0  0  0  0  0  0  0  0  0  0
    2.2042   -3.2075    0.0000 O   0  0  0  0  0  0  0  0  0  0  0  0
    4.3375   -6.0991    0.0000 C   0  0  0  0  0  0  0  0  0  0  0  0
    2.9125   -6.9200    0.0000 N   0  0  0  0  0  0  0  0  0  0  0  0
    1.4375   -3.7616    0.0000 C   0  0  0  0  0  0  0  0  0  0  0  0
    0.7208   -3.3491    0.0000 C   0  0  0  0  0  0  0  0  0  0  0  0
    0.7167   -2.5241    0.0000 C   0  0  0  0  0  0  0  0  0  0  0  0
    0.0000   -2.1116    0.0000 C   0  0  2  0  0  0  0  0  0  0  0  0
   -0.7166   -2.5200    0.0000 C   0  0  0  0  0  0  0  0  0  0  0  0
    3.6292   -4.0283    0.0000 H   0  0  0  0  0  0  0  0  0  0  0  0
    2.1958   -6.5116    0.0000 H   0  0  0  0  0  0  0  0  0  0  0  0
    2.2167   -4.0366    0.0000 O   0  0  0  0  0  0  0  0  0  0  0  0
    2.3291   -7.5034    0.0000 O   0  0  0  0  0  0  0  0  0  0  0  0
    6.4953   -1.5668    0.0000 C   0  0  0  0  0  0  0  0  0  0  0  0
   -5.9037    2.1964    0.0000 H   0  0  0  0  0  0  0  0  0  0  0  0
   -5.3442    1.2300    0.0000 H   0  0  0  0  0  0  0  0  0  0  0  0
   -1.2547    3.0668    0.0000 H   0  0  0  0  0  0  0  0  0  0  0  0
   -6.6428    6.8776    0.0000 H   0  0  0  0  0  0  0  0  0  0  0  0
   -6.6940    5.8002    0.0000 H   0  0  0  0  0  0  0  0  0  0  0  0
   -4.2681    5.2255    0.0000 H   0  0  0  0  0  0  0  0  0  0  0  0
   -3.5602    7.7400    0.0000 H   0  0  0  0  0  0  0  0  0  0  0  0
   -2.6326    7.2075    0.0000 H   0  0  0  0  0  0  0  0  0  0  0  0
   -2.3494    7.6190    0.0000 H   0  0  0  0  0  0  0  0  0  0  0  0
   -1.4259    8.1567    0.0000 H   0  0  0  0  0  0  0  0  0  0  0  0
    0.0004    5.1917    0.0000 H   0  0  0  0  0  0  0  0  0  0  0  0
    0.9312    6.5549    0.0000 H   0  0  0  0  0  0  0  0  0  0  0  0
   -0.7092    8.5734    0.0000 H   0  0  0  0  0  0  0  0  0  0  0  0
    0.2190    8.0356    0.0000 H   0  0  0  0  0  0  0  0  0  0  0  0
   -3.7711    4.9003    0.0000 H   0  0  0  0  0  0  0  0  0  0  0  0
   -2.8429    4.3667    0.0000 H   0  0  0  0  0  0  0  0  0  0  0  0
   -3.0616    4.4965    0.0000 H   0  0  0  0  0  0  0  0  0  0  0  0
   -0.4953    4.9003    0.0000 H   0  0  0  0  0  0  0  0  0  0  0  0
   -0.4942    5.9710    0.0000 H   0  0  0  0  0  0  0  0  0  0  0  0
   -4.1035    8.0575    0.0000 H   0  0  0  0  0  0  0  0  0  0  0  0
   -5.9557    7.9937    0.0000 H   0  0  0  0  0  0  0  0  0  0  0  0
   -5.0480    8.5603    0.0000 H   0  0  0  0  0  0  0  0  0  0  0  0
    1.6433    6.9749    0.0000 H   0  0  0  0  0  0  0  0  0  0  0  0
    0.7056    8.5734    0.0000 H   0  0  0  0  0  0  0  0  0  0  0  0
    1.6359    8.0448    0.0000 H   0  0  0  0  0  0  0  0  0  0  0  0
   -1.4448    0.2459    0.0000 H   0  0  0  0  0  0  0  0  0  0  0  0
   -0.5126    1.8477    0.0000 H   0  0  0  0  0  0  0  0  0  0  0  0
   -0.5163    0.7777    0.0000 H   0  0  0  0  0  0  0  0  0  0  0  0
   -3.4494    4.1730    0.0000 H   0  0  0  0  0  0  0  0  0  0  0  0
   -5.9499    3.5471    0.0000 H   0  0  0  0  0  0  0  0  0  0  0  0
   -4.1698    5.4097    0.0000 H   0  0  0  0  0  0  0  0  0  0  0  0
   -5.7809    4.2334    0.0000 H   0  0  0  0  0  0  0  0  0  0  0  0
   -7.4189    5.4352    0.0000 H   0  0  0  0  0  0  0  0  0  0  0  0
   -6.5014    3.8250    0.0000 H   0  0  0  0  0  0  0  0  0  0  0  0
   -7.4250    4.3652    0.0000 H   0  0  0  0  0  0  0  0  0  0  0  0
   -2.7258    3.8702    0.0000 H   0  0  0  0  0  0  0  0  0  0  0  0
   -4.3546    0.1543    0.0000 H   0  0  0  0  0  0  0  0  0  0  0  0
    0.7151    4.7782    0.0000 H   0  0  0  0  0  0  0  0  0  0  0  0
    1.6425    5.3119    0.0000 H   0  0  0  0  0  0  0  0  0  0  0  0
    2.3575    5.7232    0.0000 H   0  0  0  0  0  0  0  0  0  0  0  0
    1.4332    7.3296    0.0000 H   0  0  0  0  0  0  0  0  0  0  0  0
    2.3590    6.7932    0.0000 H   0  0  0  0  0  0  0  0  0  0  0  0
   -0.1251   -5.2186    0.0000 H   0  0  0  0  0  0  0  0  0  0  0  0
    0.4344   -6.1850    0.0000 H   0  0  0  0  0  0  0  0  0  0  0  0
    4.5239   -4.3482    0.0000 H   0  0  0  0  0  0  0  0  0  0  0  0
   -0.8642   -0.5374    0.0000 H   0  0  0  0  0  0  0  0  0  0  0  0
   -0.9154   -1.6148    0.0000 H   0  0  0  0  0  0  0  0  0  0  0  0
    1.5105   -2.1895    0.0000 H   0  0  0  0  0  0  0  0  0  0  0  0
    2.2184    0.3250    0.0000 H   0  0  0  0  0  0  0  0  0  0  0  0
    3.1460   -0.2075    0.0000 H   0  0  0  0  0  0  0  0  0  0  0  0
    3.4292    0.2040    0.0000 H   0  0  0  0  0  0  0  0  0  0  0  0
    4.3527    0.7417    0.0000 H   0  0  0  0  0  0  0  0  0  0  0  0
    5.7791   -2.2233    0.0000 H   0  0  0  0  0  0  0  0  0  0  0  0
    6.7099   -0.8601    0.0000 H   0  0  0  0  0  0  0  0  0  0  0  0
    5.0694    1.1583    0.0000 H   0  0  0  0  0  0  0  0  0  0  0  0
    5.9976    0.6206    0.0000 H   0  0  0  0  0  0  0  0  0  0  0  0
    2.0075   -2.5147    0.0000 H   0  0  0  0  0  0  0  0  0  0  0  0
    2.9357   -3.0483    0.0000 H   0  0  0  0  0  0  0  0  0  0  0  0
    2.7170   -2.9185    0.0000 H   0  0  0  0  0  0  0  0  0  0  0  0
    5.2833   -2.5147    0.0000 H   0  0  0  0  0  0  0  0  0  0  0  0
    5.2844   -1.4440    0.0000 H   0  0  0  0  0  0  0  0  0  0  0  0
    1.6751    0.6424    0.0000 H   0  0  0  0  0  0  0  0  0  0  0  0
   -0.1771    0.5786    0.0000 H   0  0  0  0  0  0  0  0  0  0  0  0
    0.7306    1.1452    0.0000 H   0  0  0  0  0  0  0  0  0  0  0  0
    7.4220   -0.4403    0.0000 H   0  0  0  0  0  0  0  0  0  0  0  0
    6.4844    1.1583    0.0000 H   0  0  0  0  0  0  0  0  0  0  0  0
    7.4147    0.6296    0.0000 H   0  0  0  0  0  0  0  0  0  0  0  0
    4.3338   -7.1691    0.0000 H   0  0  0  0  0  0  0  0  0  0  0  0
    5.2660   -5.5673    0.0000 H   0  0  0  0  0  0  0  0  0  0  0  0
    5.2623   -6.6373    0.0000 H   0  0  0  0  0  0  0  0  0  0  0  0
    2.3292   -3.2420    0.0000 H   0  0  0  0  0  0  0  0  0  0  0  0
   -0.1713   -3.8679    0.0000 H   0  0  0  0  0  0  0  0  0  0  0  0
    1.6088   -2.0053    0.0000 H   0  0  0  0  0  0  0  0  0  0  0  0
   -0.0023   -3.1816    0.0000 H   0  0  0  0  0  0  0  0  0  0  0  0
   -1.6402   -1.9798    0.0000 H   0  0  0  0  0  0  0  0  0  0  0  0
   -0.7226   -3.5900    0.0000 H   0  0  0  0  0  0  0  0  0  0  0  0
   -1.6462   -3.0498    0.0000 H   0  0  0  0  0  0  0  0  0  0  0  0
    3.0528   -3.5448    0.0000 H   0  0  0  0  0  0  0  0  0  0  0  0
    1.4240   -7.2609    0.0000 H   0  0  0  0  0  0  0  0  0  0  0  0
    6.4938   -2.6368    0.0000 H   0  0  0  0  0  0  0  0  0  0  0  0
    7.4227   -1.0331    0.0000 H   0  0  0  0  0  0  0  0  0  0  0  0
    7.4212   -2.1031    0.0000 H   0  0  0  0  0  0  0  0  0  0  0  0
  1  2  1  0  0  0  0
  2  3  1  0  0  0  0
  2  6  1  0  0  0  0
  2 39  1  6  0  0  0
  3  4  1  0  0  0  0
  3  9  1  0  0  0  0
  3 40  1  6  0  0  0
  4  5  1  0  0  0  0
  4 33  2  0  0  0  0
  5  1  1  0  0  0  0
  5 86  1  0  0  0  0
  5 87  1  0  0  0  0
  6 32  2  0  0  0  0
  6  7  1  0  0  0  0
  7 31  1  0  0  0  0
  7  8  2  0  0  0  0
  8  9  1  0  0  0  0
  8 88  1  0  0  0  0
  9 38  1  1  0  0  0
 10 11  1  0  0  0  0
 10 89  1  0  0  0  0
 10 90  1  0  0  0  0
 11 12  2  0  0  0  0
 11 25  1  0  0  0  0
 12 13  1  0  0  0  0
 12 91  1  0  0  0  0
 13 92  1  0  0  0  0
 13 93  1  0  0  0  0
 14 21  1  0  0  0  0
 14 24  1  0  0  0  0
 14 26  1  6  0  0  0
 14 13  1  0  0  0  0
 15 20  1  0  0  0  0
 15 94  1  0  0  0  0
 15 95  1  0  0  0  0
 16 24  1  6  0  0  0
 16 15  1  0  0  0  0
 16 17  1  0  0  0  0
 17 18  1  0  0  0  0
 18 19  1  0  0  0  0
 18 42  1  0  0  0  0
 18 96  1  6  0  0  0
 19 27  1  0  0  0  0
 19 20  1  0  0  0  0
 19 97  1  1  0  0  0
 20 98  1  0  0  0  0
 20 99  1  0  0  0  0
 21 22  1  0  0  0  0
 21100  1  0  0  0  0
 21101  1  0  0  0  0
 22 23  1  0  0  0  0
 22 28  1  0  0  0  0
 22102  1  6  0  0  0
 23 16  1  0  0  0  0
 23103  1  0  0  0  0
 23104  1  0  0  0  0
 25105  1  0  0  0  0
 25106  1  0  0  0  0
 25107  1  0  0  0  0
 27108  1  0  0  0  0
 27109  1  0  0  0  0
 27110  1  0  0  0  0
 28 29  1  0  0  0  0
 29  9  1  0  0  0  0
 29 30  2  0  0  0  0
 31111  1  0  0  0  0
 31112  1  0  0  0  0
 31113  1  0  0  0  0
 32 41  1  0  0  0  0
 33 34  1  0  0  0  0
 33114  1  0  0  0  0
 34 35  2  0  0  0  0
 34115  1  0  0  0  0
 35 36  1  0  0  0  0
 35116  1  0  0  0  0
 36 10  1  0  0  0  0
 36 37  1  0  0  0  0
 36117  1  1  0  0  0
 37118  1  0  0  0  0
 37119  1  0  0  0  0
 37120  1  0  0  0  0
 40121  1  0  0  0  0
 41122  1  0  0  0  0
 42 43  1  0  0  0  0
 42123  1  0  0  0  0
 42124  1  0  0  0  0
 43125  1  0  0  0  0
 43126  1  0  0  0  0
 43127  1  0  0  0  0
 44 45  1  0  0  0  0
 45 46  1  0  0  0  0
 45 49  1  0  0  0  0
 45 82  1  6  0  0  0
 46 47  1  0  0  0  0
 46 52  1  0  0  0  0
 46 83  1  6  0  0  0
 47 48  1  0  0  0  0
 47 76  2  0  0  0  0
 48 44  1  0  0  0  0
 48128  1  0  0  0  0
 48129  1  0  0  0  0
 49 75  2  0  0  0  0
 49 50  1  0  0  0  0
 50 74  1  0  0  0  0
 50 51  2  0  0  0  0
 51 52  1  0  0  0  0
 51130  1  0  0  0  0
 52 81  1  1  0  0  0
 53 54  1  0  0  0  0
 53131  1  0  0  0  0
 53132  1  0  0  0  0
 54 55  2  0  0  0  0
 54 68  1  0  0  0  0
 55 56  1  0  0  0  0
 55133  1  0  0  0  0
 56134  1  0  0  0  0
 56135  1  0  0  0  0
 57 64  1  0  0  0  0
 57 67  1  0  0  0  0
 57 69  1  6  0  0  0
 57 56  1  0  0  0  0
 58 63  1  0  0  0  0
 58136  1  0  0  0  0
 58137  1  0  0  0  0
 59 67  1  6  0  0  0
 59 58  1  0  0  0  0
 59 60  1  0  0  0  0
 60 61  1  0  0  0  0
 61 62  1  0  0  0  0
 61 85  1  0  0  0  0
 61138  1  6  0  0  0
 62 70  1  0  0  0  0
 62 63  1  0  0  0  0
 62139  1  1  0  0  0
 63140  1  0  0  0  0
 63141  1  0  0  0  0
 64 65  1  0  0  0  0
 64142  1  0  0  0  0
 64143  1  0  0  0  0
 65 66  1  0  0  0  0
 65 71  1  0  0  0  0
 65144  1  6  0  0  0
 66 59  1  0  0  0  0
 66145  1  0  0  0  0
 66146  1  0  0  0  0
 68147  1  0  0  0  0
 68148  1  0  0  0  0
 68149  1  0  0  0  0
 70150  1  0  0  0  0
 70151  1  0  0  0  0
 70152  1  0  0  0  0
 71 72  1  0  0  0  0
 72 52  1  0  0  0  0
 72 73  2  0  0  0  0
 74153  1  0  0  0  0
 74154  1  0  0  0  0
 74155  1  0  0  0  0
 75 84  1  0  0  0  0
 76 77  1  0  0  0  0
 76156  1  0  0  0  0
 77 78  2  0  0  0  0
 77157  1  0  0  0  0
 78 79  1  0  0  0  0
 78158  1  0  0  0  0
 79 53  1  0  0  0  0
 79 80  1  0  0  0  0
 79159  1  1  0  0  0
 80160  1  0  0  0  0
 80161  1  0  0  0  0
 80162  1  0  0  0  0
 83163  1  0  0  0  0
 84164  1  0  0  0  0
 85165  1  0  0  0  0
 85166  1  0  0  0  0
 85167  1  0  0  0  0
M  END
>  <DRUGBANK_ID>
DB11531

>  <COMMON_NAME>
Milbemycin oxime

>  <CAS_NUMBER>
129496-10-2

>  <UNII>
0502PUN0GT

$$$$
