
 OpenBabel10282417072D

137143  0  0  0  0  0  0  0  0999 V2000
    5.8855    1.3562    0.0000 C   0  0  1  0  0  0  0  0  0  0  0  0
    4.4688    1.3562    0.0000 C   0  0  2  0  0  0  0  0  0  0  0  0
    5.1812    1.7688    0.0000 O   0  0  0  0  0  0  0  0  0  0  0  0
    1.6188    1.3687    0.0000 C   0  0  2  0  0  0  0  0  0  0  0  0
    3.0437    1.3562    0.0000 C   0  0  1  0  0  0  0  0  0  0  0  0
    5.8855    0.5312    0.0000 C   0  0  2  0  0  0  0  0  0  0  0  0
   -3.3563    1.8479    0.0000 O   0  0  0  0  0  0  0  0  0  0  0  0
   -5.2563    2.0729    0.0000 O   0  0  0  0  0  0  0  0  0  0  0  0
   -2.6937    1.3604    0.0000 C   0  0  1  0  0  0  0  0  0  0  0  0
    4.4688    0.5312    0.0000 C   0  0  1  0  0  0  0  0  0  0  0  0
   -1.8687    1.3687    0.0000 C   0  0  1  0  0  0  0  0  0  0  0  0
   -4.0270    1.3604    0.0000 C   0  0  1  0  0  0  0  0  0  0  0  0
   -6.0813    2.0729    0.0000 C   0  0  1  0  0  0  0  0  0  0  0  0
    3.7563    1.7688    0.0000 C   0  0  1  0  0  0  0  0  0  0  0  0
    5.1812    0.1187    0.0000 C   0  0  1  0  0  0  0  0  0  0  0  0
    2.3354    1.7688    0.0000 O   0  0  0  0  0  0  0  0  0  0  0  0
   -2.9437    0.5812    0.0000 C   0  0  2  0  0  0  0  0  0  0  0  0
   -4.8521    1.3604    0.0000 C   0  0  2  0  0  0  0  0  0  0  0  0
   -1.2020    1.8479    0.0000 O   0  0  0  0  0  0  0  0  0  0  0  0
    0.9562    1.8562    0.0000 O   0  0  0  0  0  0  0  0  0  0  0  0
    3.0354    0.5312    0.0000 C   0  0  1  0  0  0  0  0  0  0  0  0
    6.6063    1.7688    0.0000 C   0  0  0  0  0  0  0  0  0  0  0  0
    0.2854    1.3687    0.0000 C   0  0  2  0  0  0  0  0  0  0  0  0
    1.6188    0.5437    0.0000 C   0  0  0  0  0  0  0  0  0  0  0  0
   -3.7687    0.5812    0.0000 C   0  0  0  0  0  0  0  0  0  0  0  0
   -3.7563   -0.8645    0.0000 O   0  0  0  0  0  0  0  0  0  0  0  0
    2.3312    0.1229    0.0000 C   0  0  2  0  0  0  0  0  0  0  0  0
   -0.5395    1.3687    0.0000 C   0  0  1  0  0  0  0  0  0  0  0  0
   -5.2563    0.6479    0.0000 C   0  0  2  0  0  0  0  0  0  0  0  0
    6.6063    2.5938    0.0000 C   0  0  0  0  0  0  0  0  0  0  0  0
   -2.9313   -0.8562    0.0000 C   0  0  1  0  0  0  0  0  0  0  0  0
   -2.5270   -0.1437    0.0000 O   0  0  0  0  0  0  0  0  0  0  0  0
   -6.4938    1.3604    0.0000 C   0  0  1  0  0  0  0  0  0  0  0  0
   -6.0813    0.6479    0.0000 C   0  0  0  0  0  0  0  0  0  0  0  0
   -4.1687   -1.5771    0.0000 C   0  0  1  0  0  0  0  0  0  0  0  0
   -1.6145    0.5812    0.0000 C   0  0  0  0  0  0  0  0  0  0  0  0
    7.3188    3.0062    0.0000 O   0  0  0  0  0  0  0  0  0  0  0  0
    0.5437    0.5812    0.0000 C   0  0  0  0  0  0  0  0  0  0  0  0
    5.8938    2.1812    0.0000 O   0  0  0  0  0  0  0  0  0  0  0  0
    1.3687    0.5812    0.0000 C   0  0  0  0  0  0  0  0  0  0  0  0
   -0.7895    0.5812    0.0000 C   0  0  0  0  0  0  0  0  0  0  0  0
   -3.7563   -2.2895    0.0000 C   0  0  2  0  0  0  0  0  0  0  0  0
    5.8855    3.0062    0.0000 O   0  0  0  0  0  0  0  0  0  0  0  0
   -6.0771    2.8979    0.0000 O   0  0  0  0  0  0  0  0  0  0  0  0
   -2.9313   -2.2895    0.0000 C   0  0  0  0  0  0  0  0  0  0  0  0
    3.7563    0.1187    0.0000 O   0  0  0  0  0  0  0  0  0  0  0  0
    5.1812   -0.7062    0.0000 O   0  0  0  0  0  0  0  0  0  0  0  0
   -2.5187   -1.5688    0.0000 C   0  0  0  0  0  0  0  0  0  0  0  0
    2.3229   -0.6937    0.0000 O   0  0  0  0  0  0  0  0  0  0  0  0
    6.6063    0.1187    0.0000 C   0  0  0  0  0  0  0  0  0  0  0  0
   -6.7938    2.4855    0.0000 C   0  0  0  0  0  0  0  0  0  0  0  0
   -2.2812    0.6479    0.0000 C   0  0  0  0  0  0  0  0  0  0  0  0
    3.7687    2.5938    0.0000 C   0  0  0  0  0  0  0  0  0  0  0  0
    3.7563    0.9438    0.0000 C   0  0  0  0  0  0  0  0  0  0  0  0
   -4.1687   -3.0062    0.0000 O   0  0  0  0  0  0  0  0  0  0  0  0
   -0.1187    0.6479    0.0000 C   0  0  0  0  0  0  0  0  0  0  0  0
   -4.8437   -0.0687    0.0000 C   0  0  0  0  0  0  0  0  0  0  0  0
   -7.3188    1.3687    0.0000 C   0  0  0  0  0  0  0  0  0  0  0  0
   -4.9937   -1.5771    0.0000 C   0  0  0  0  0  0  0  0  0  0  0  0
    3.7687   -0.7062    0.0000 C   0  0  0  0  0  0  0  0  0  0  0  0
   -4.9937   -3.0062    0.0000 C   0  0  0  0  0  0  0  0  0  0  0  0
   -3.5187   -0.2770    0.0000 H   0  0  0  0  0  0  0  0  0  0  0  0
    4.4730    2.1812    0.0000 H   0  0  0  0  0  0  0  0  0  0  0  0
   -0.1187    2.0812    0.0000 H   0  0  0  0  0  0  0  0  0  0  0  0
   -2.4770    2.1563    0.0000 H   0  0  0  0  0  0  0  0  0  0  0  0
   -4.4313    0.6437    0.0000 H   0  0  0  0  0  0  0  0  0  0  0  0
    3.0479    2.1812    0.0000 H   0  0  0  0  0  0  0  0  0  0  0  0
   -4.4313    2.0729    0.0000 H   0  0  0  0  0  0  0  0  0  0  0  0
    6.8111    1.0680    0.0000 H   0  0  0  0  0  0  0  0  0  0  0  0
    4.4688   -0.5388    0.0000 H   0  0  0  0  0  0  0  0  0  0  0  0
    2.8334    2.3102    0.0000 H   0  0  0  0  0  0  0  0  0  0  0  0
    4.2542   -0.4157    0.0000 H   0  0  0  0  0  0  0  0  0  0  0  0
   -1.8797    0.6940    0.0000 H   0  0  0  0  0  0  0  0  0  0  0  0
    3.5768    1.4541    0.0000 H   0  0  0  0  0  0  0  0  0  0  0  0
    7.5320    1.2321    0.0000 H   0  0  0  0  0  0  0  0  0  0  0  0
    7.5334    2.3029    0.0000 H   0  0  0  0  0  0  0  0  0  0  0  0
    0.6895    0.0133    0.0000 H   0  0  0  0  0  0  0  0  0  0  0  0
    0.6935    1.0810    0.0000 H   0  0  0  0  0  0  0  0  0  0  0  0
   -4.3951   -0.2863    0.0000 H   0  0  0  0  0  0  0  0  0  0  0  0
   -4.8263    0.7439    0.0000 H   0  0  0  0  0  0  0  0  0  0  0  0
    1.3992   -0.4028    0.0000 H   0  0  0  0  0  0  0  0  0  0  0  0
   -4.1863    0.6513    0.0000 H   0  0  0  0  0  0  0  0  0  0  0  0
   -7.0329    0.4361    0.0000 H   0  0  0  0  0  0  0  0  0  0  0  0
   -6.6157   -0.2791    0.0000 H   0  0  0  0  0  0  0  0  0  0  0  0
   -5.5460   -0.2786    0.0000 H   0  0  0  0  0  0  0  0  0  0  0  0
   -4.7032   -0.6502    0.0000 H   0  0  0  0  0  0  0  0  0  0  0  0
   -2.2443   -0.2838    0.0000 H   0  0  0  0  0  0  0  0  0  0  0  0
   -2.6711    0.7501    0.0000 H   0  0  0  0  0  0  0  0  0  0  0  0
    8.1308    2.5386    0.0000 H   0  0  0  0  0  0  0  0  0  0  0  0
   -0.0840   -0.2853    0.0000 H   0  0  0  0  0  0  0  0  0  0  0  0
   -0.5135    0.7464    0.0000 H   0  0  0  0  0  0  0  0  0  0  0  0
    6.7387    2.6577    0.0000 H   0  0  0  0  0  0  0  0  0  0  0  0
    2.0005   -0.2824    0.0000 H   0  0  0  0  0  0  0  0  0  0  0  0
    2.4247    0.7539    0.0000 H   0  0  0  0  0  0  0  0  0  0  0  0
   -0.1576   -0.2823    0.0000 H   0  0  0  0  0  0  0  0  0  0  0  0
    0.2665    0.7539    0.0000 H   0  0  0  0  0  0  0  0  0  0  0  0
   -3.2206   -3.2158    0.0000 H   0  0  0  0  0  0  0  0  0  0  0  0
   -5.2346    3.3786    0.0000 H   0  0  0  0  0  0  0  0  0  0  0  0
   -2.3946   -3.2152    0.0000 H   0  0  0  0  0  0  0  0  0  0  0  0
   -1.8613   -2.2866    0.0000 H   0  0  0  0  0  0  0  0  0  0  0  0
    4.3412   -1.1912    0.0000 H   0  0  0  0  0  0  0  0  0  0  0  0
   -1.4487   -1.5662    0.0000 H   0  0  0  0  0  0  0  0  0  0  0  0
   -1.9854   -0.6412    0.0000 H   0  0  0  0  0  0  0  0  0  0  0  0
    1.4780   -1.1701    0.0000 H   0  0  0  0  0  0  0  0  0  0  0  0
    6.6104   -0.9513    0.0000 H   0  0  0  0  0  0  0  0  0  0  0  0
    7.5309    0.6572    0.0000 H   0  0  0  0  0  0  0  0  0  0  0  0
    7.5350   -0.4128    0.0000 H   0  0  0  0  0  0  0  0  0  0  0  0
   -6.7924    3.5555    0.0000 H   0  0  0  0  0  0  0  0  0  0  0  0
   -7.7211    1.9517    0.0000 H   0  0  0  0  0  0  0  0  0  0  0  0
   -7.7197    3.0217    0.0000 H   0  0  0  0  0  0  0  0  0  0  0  0
   -3.3512    0.6438    0.0000 H   0  0  0  0  0  0  0  0  0  0  0  0
   -1.7427   -0.2767    0.0000 H   0  0  0  0  0  0  0  0  0  0  0  0
   -2.8127   -0.2808    0.0000 H   0  0  0  0  0  0  0  0  0  0  0  0
    4.7033    3.1148    0.0000 H   0  0  0  0  0  0  0  0  0  0  0  0
    2.8502    3.1427    0.0000 H   0  0  0  0  0  0  0  0  0  0  0  0
    3.7848    3.6637    0.0000 H   0  0  0  0  0  0  0  0  0  0  0  0
    4.6809    0.4053    0.0000 H   0  0  0  0  0  0  0  0  0  0  0  0
    3.7603    2.0138    0.0000 H   0  0  0  0  0  0  0  0  0  0  0  0
    4.6850    1.4753    0.0000 H   0  0  0  0  0  0  0  0  0  0  0  0
   -1.1886    0.6344    0.0000 H   0  0  0  0  0  0  0  0  0  0  0  0
    0.4280   -0.2719    0.0000 H   0  0  0  0  0  0  0  0  0  0  0  0
   -0.6420   -0.2854    0.0000 H   0  0  0  0  0  0  0  0  0  0  0  0
   -5.3798   -0.9947    0.0000 H   0  0  0  0  0  0  0  0  0  0  0  0
   -3.7737   -0.0700    0.0000 H   0  0  0  0  0  0  0  0  0  0  0  0
   -4.3098   -0.9960    0.0000 H   0  0  0  0  0  0  0  0  0  0  0  0
   -7.8445    2.3007    0.0000 H   0  0  0  0  0  0  0  0  0  0  0  0
   -7.8631    0.4475    0.0000 H   0  0  0  0  0  0  0  0  0  0  0  0
   -8.3887    1.3795    0.0000 H   0  0  0  0  0  0  0  0  0  0  0  0
   -5.5287   -0.6505    0.0000 H   0  0  0  0  0  0  0  0  0  0  0  0
   -5.5287   -2.5037    0.0000 H   0  0  0  0  0  0  0  0  0  0  0  0
   -6.0637   -1.5771    0.0000 H   0  0  0  0  0  0  0  0  0  0  0  0
    2.8502   -1.2551    0.0000 H   0  0  0  0  0  0  0  0  0  0  0  0
    4.7033   -1.2272    0.0000 H   0  0  0  0  0  0  0  0  0  0  0  0
    3.7848   -1.7761    0.0000 H   0  0  0  0  0  0  0  0  0  0  0  0
   -5.5287   -2.0796    0.0000 H   0  0  0  0  0  0  0  0  0  0  0  0
   -5.5287   -3.9328    0.0000 H   0  0  0  0  0  0  0  0  0  0  0  0
   -6.0637   -3.0062    0.0000 H   0  0  0  0  0  0  0  0  0  0  0  0
  1 39  1  1  0  0  0
  2  3  1  0  0  0  0
  2 63  1  1  0  0  0
  3  1  1  0  0  0  0
  4 16  1  6  0  0  0
  4 20  1  0  0  0  0
  5 14  1  0  0  0  0
  5 67  1  1  0  0  0
  6  1  1  0  0  0  0
  6 50  1  0  0  0  0
  6 69  1  6  0  0  0
  7  9  1  0  0  0  0
  8 18  1  0  0  0  0
  9 11  1  0  0  0  0
  9 65  1  6  0  0  0
 10 15  1  0  0  0  0
 10 46  1  0  0  0  0
 10  2  1  0  0  0  0
 10 70  1  6  0  0  0
 11 19  1  0  0  0  0
 11 52  1  6  0  0  0
 11 36  1  0  0  0  0
 12  7  1  0  0  0  0
 12 66  1  1  0  0  0
 12 25  1  0  0  0  0
 13  8  1  0  0  0  0
 13 44  1  1  0  0  0
 13 51  1  0  0  0  0
 14  2  1  0  0  0  0
 14 53  1  0  0  0  0
 14 71  1  6  0  0  0
 15  6  1  0  0  0  0
 15 47  1  0  0  0  0
 15 72  1  1  0  0  0
 16  5  1  0  0  0  0
 17  9  1  0  0  0  0
 17 32  1  0  0  0  0
 17 73  1  6  0  0  0
 18 12  1  0  0  0  0
 18 68  1  1  0  0  0
 19 28  1  0  0  0  0
 21  5  1  0  0  0  0
 21 54  1  0  0  0  0
 21 74  1  1  0  0  0
 22  1  1  0  0  0  0
 22 75  1  0  0  0  0
 22 76  1  0  0  0  0
 23 20  1  0  0  0  0
 23 56  1  6  0  0  0
 24 27  1  0  0  0  0
 24  4  1  0  0  0  0
 24 77  1  0  0  0  0
 24 78  1  0  0  0  0
 25 17  1  0  0  0  0
 25 79  1  0  0  0  0
 25 80  1  0  0  0  0
 26 31  1  0  0  0  0
 27 21  1  0  0  0  0
 27 49  1  0  0  0  0
 27 81  1  6  0  0  0
 28 23  1  0  0  0  0
 28 64  1  6  0  0  0
 29 18  1  0  0  0  0
 29 57  1  0  0  0  0
 29 82  1  6  0  0  0
 30 22  1  0  0  0  0
 31 32  1  0  0  0  0
 31 62  1  6  0  0  0
 33 34  1  0  0  0  0
 33 58  1  0  0  0  0
 33 13  1  0  0  0  0
 33 83  1  6  0  0  0
 34 29  1  0  0  0  0
 34 84  1  0  0  0  0
 34 85  1  0  0  0  0
 35 26  1  0  0  0  0
 35 59  1  0  0  0  0
 35 86  1  6  0  0  0
 36 41  1  0  0  0  0
 36 87  1  0  0  0  0
 36 88  1  0  0  0  0
 37 30  1  0  0  0  0
 37 89  1  0  0  0  0
 38 40  1  0  0  0  0
 38 23  1  0  0  0  0
 38 90  1  0  0  0  0
 38 91  1  0  0  0  0
 39 92  1  0  0  0  0
 40  4  1  0  0  0  0
 40 93  1  0  0  0  0
 40 94  1  0  0  0  0
 41 28  1  0  0  0  0
 41 95  1  0  0  0  0
 41 96  1  0  0  0  0
 42 45  1  0  0  0  0
 42 55  1  0  0  0  0
 42 35  1  0  0  0  0
 42 97  1  1  0  0  0
 43 30  2  0  0  0  0
 44 98  1  0  0  0  0
 45 48  1  0  0  0  0
 45 99  1  0  0  0  0
 45100  1  0  0  0  0
 47101  1  0  0  0  0
 48 31  1  0  0  0  0
 48102  1  0  0  0  0
 48103  1  0  0  0  0
 49104  1  0  0  0  0
 50105  1  0  0  0  0
 50106  1  0  0  0  0
 50107  1  0  0  0  0
 51108  1  0  0  0  0
 51109  1  0  0  0  0
 51110  1  0  0  0  0
 52111  1  0  0  0  0
 52112  1  0  0  0  0
 52113  1  0  0  0  0
 53114  1  0  0  0  0
 53115  1  0  0  0  0
 53116  1  0  0  0  0
 54117  1  0  0  0  0
 54118  1  0  0  0  0
 54119  1  0  0  0  0
 56120  1  0  0  0  0
 56121  1  0  0  0  0
 56122  1  0  0  0  0
 57123  1  0  0  0  0
 57124  1  0  0  0  0
 57125  1  0  0  0  0
 58126  1  0  0  0  0
 58127  1  0  0  0  0
 58128  1  0  0  0  0
 59129  1  0  0  0  0
 59130  1  0  0  0  0
 59131  1  0  0  0  0
 60 46  1  0  0  0  0
 60132  1  0  0  0  0
 60133  1  0  0  0  0
 60134  1  0  0  0  0
 61 55  1  0  0  0  0
 61135  1  0  0  0  0
 61136  1  0  0  0  0
 61137  1  0  0  0  0
M  END
>  <DRUGBANK_ID>
DB11545

>  <COMMON_NAME>
Semduramicin

>  <CAS_NUMBER>
113378-31-7

>  <UNII>
P6VXL377WL

>  <SYNONYMS>
Semduramicin; Semduramicina; Semduramicine; Semduramicinum

$$$$
