
 OpenBabel10282417072D

 67 71  0  0  0  0  0  0  0  0999 V2000
   -1.8280   -1.5171    0.0000 N   0  0  0  0  0  0  0  0  0  0  0  0
   -2.6349   -1.6886    0.0000 N   0  0  0  0  0  0  0  0  0  0  0  0
   -3.0474   -0.9743    0.0000 C   0  0  0  0  0  0  0  0  0  0  0  0
   -2.4954   -0.3612    0.0000 C   0  0  0  0  0  0  0  0  0  0  0  0
   -1.7418   -0.6967    0.0000 C   0  0  0  0  0  0  0  0  0  0  0  0
   -1.0272   -0.2842    0.0000 C   0  0  0  0  0  0  0  0  0  0  0  0
   -1.0272    0.5408    0.0000 O   0  0  0  0  0  0  0  0  0  0  0  0
   -0.3127   -0.6967    0.0000 N   0  0  0  0  0  0  0  0  0  0  0  0
   -3.8679   -0.8879    0.0000 C   0  0  0  0  0  0  0  0  0  0  0  0
   -4.6884   -0.8017    0.0000 F   0  0  0  0  0  0  0  0  0  0  0  0
   -4.2034   -0.1343    0.0000 F   0  0  0  0  0  0  0  0  0  0  0  0
   -4.3528   -1.5554    0.0000 F   0  0  0  0  0  0  0  0  0  0  0  0
    0.4015   -0.2842    0.0000 C   0  0  0  0  0  0  0  0  0  0  0  0
    1.1160   -0.6967    0.0000 C   0  0  0  0  0  0  0  0  0  0  0  0
    1.8305   -0.2842    0.0000 C   0  0  0  0  0  0  0  0  0  0  0  0
    1.8305    0.5408    0.0000 C   0  0  0  0  0  0  0  0  0  0  0  0
    1.1160    0.9532    0.0000 C   0  0  0  0  0  0  0  0  0  0  0  0
    0.4015    0.5408    0.0000 C   0  0  0  0  0  0  0  0  0  0  0  0
    1.1160   -1.5216    0.0000 F   0  0  0  0  0  0  0  0  0  0  0  0
    1.1160    1.7782    0.0000 C   0  0  2  0  0  0  0  0  0  0  0  0
    0.4015    2.1907    0.0000 N   0  0  0  0  0  0  0  0  0  0  0  0
   -0.3127    1.7782    0.0000 C   0  0  0  0  0  0  0  0  0  0  0  0
   -1.0272    2.1907    0.0000 C   0  0  0  0  0  0  0  0  0  0  0  0
   -1.4397    2.9051    0.0000 C   0  0  0  0  0  0  0  0  0  0  0  0
   -1.8522    2.1907    0.0000 C   0  0  0  0  0  0  0  0  0  0  0  0
    1.8305    2.1907    0.0000 C   0  0  0  0  0  0  0  0  0  0  0  0
    2.5449    1.7782    0.0000 C   0  0  0  0  0  0  0  0  0  0  0  0
    3.2594    2.1907    0.0000 C   0  0  0  0  0  0  0  0  0  0  0  0
    3.2594    3.0157    0.0000 C   0  0  0  0  0  0  0  0  0  0  0  0
    2.5449    3.4282    0.0000 C   0  0  0  0  0  0  0  0  0  0  0  0
    1.8305    3.0157    0.0000 C   0  0  0  0  0  0  0  0  0  0  0  0
    3.9739    1.7782    0.0000 C   0  0  0  0  0  0  0  0  0  0  0  0
    4.6884    1.3657    0.0000 N   0  0  0  0  0  0  0  0  0  0  0  0
   -1.2149   -2.0692    0.0000 C   0  0  0  0  0  0  0  0  0  0  0  0
   -0.4303   -1.8142    0.0000 C   0  0  0  0  0  0  0  0  0  0  0  0
    0.1827   -2.3662    0.0000 C   0  0  0  0  0  0  0  0  0  0  0  0
    0.0112   -3.1732    0.0000 C   0  0  0  0  0  0  0  0  0  0  0  0
   -0.7734   -3.4282    0.0000 C   0  0  0  0  0  0  0  0  0  0  0  0
   -1.3864   -2.8761    0.0000 C   0  0  0  0  0  0  0  0  0  0  0  0
    0.9673   -2.1113    0.0000 C   0  0  0  0  0  0  0  0  0  0  0  0
    1.5804   -2.6633    0.0000 N   0  0  0  0  0  0  0  0  0  0  0  0
   -2.7100    0.6482    0.0000 H   0  0  0  0  0  0  0  0  0  0  0  0
   -0.3126   -1.6812    0.0000 H   0  0  0  0  0  0  0  0  0  0  0  0
    2.7242   -0.8002    0.0000 H   0  0  0  0  0  0  0  0  0  0  0  0
    2.7242    1.0569    0.0000 H   0  0  0  0  0  0  0  0  0  0  0  0
   -0.4922    1.0569    0.0000 H   0  0  0  0  0  0  0  0  0  0  0  0
    0.1894    1.2432    0.0000 H   0  0  0  0  0  0  0  0  0  0  0  0
    0.4014    3.2107    0.0000 H   0  0  0  0  0  0  0  0  0  0  0  0
   -0.3126    0.7082    0.0000 H   0  0  0  0  0  0  0  0  0  0  0  0
    0.6140    1.2433    0.0000 H   0  0  0  0  0  0  0  0  0  0  0  0
   -1.3041    1.1572    0.0000 H   0  0  0  0  0  0  0  0  0  0  0  0
   -1.4397    3.9751    0.0000 H   0  0  0  0  0  0  0  0  0  0  0  0
   -2.4732    3.1821    0.0000 H   0  0  0  0  0  0  0  0  0  0  0  0
   -2.7789    1.6557    0.0000 H   0  0  0  0  0  0  0  0  0  0  0  0
   -1.5753    1.1572    0.0000 H   0  0  0  0  0  0  0  0  0  0  0  0
    2.5449    0.7462    0.0000 H   0  0  0  0  0  0  0  0  0  0  0  0
    4.1531    3.5317    0.0000 H   0  0  0  0  0  0  0  0  0  0  0  0
    2.5449    4.4602    0.0000 H   0  0  0  0  0  0  0  0  0  0  0  0
    0.9368    3.5317    0.0000 H   0  0  0  0  0  0  0  0  0  0  0  0
   -0.2158   -0.8047    0.0000 H   0  0  0  0  0  0  0  0  0  0  0  0
    0.7782   -3.8637    0.0000 H   0  0  0  0  0  0  0  0  0  0  0  0
   -0.9880   -4.4376    0.0000 H   0  0  0  0  0  0  0  0  0  0  0  0
   -2.3679   -3.1949    0.0000 H   0  0  0  0  0  0  0  0  0  0  0  0
    1.1898   -1.0647    0.0000 H   0  0  0  0  0  0  0  0  0  0  0  0
    0.1721   -1.3953    0.0000 H   0  0  0  0  0  0  0  0  0  0  0  0
    1.3684   -3.6610    0.0000 H   0  0  0  0  0  0  0  0  0  0  0  0
    2.5505   -2.3481    0.0000 H   0  0  0  0  0  0  0  0  0  0  0  0
  1  2  1  0  0  0  0
  1  5  1  0  0  0  0
  1 34  1  0  0  0  0
  2  3  2  0  0  0  0
  3  4  1  0  0  0  0
  3  9  1  0  0  0  0
  4  5  2  0  0  0  0
  4 42  1  0  0  0  0
  5  6  1  0  0  0  0
  6  7  2  0  0  0  0
  6  8  1  0  0  0  0
  8 13  1  0  0  0  0
  8 43  1  0  0  0  0
  9 10  1  0  0  0  0
  9 11  1  0  0  0  0
  9 12  1  0  0  0  0
 13 14  1  0  0  0  0
 13 18  2  0  0  0  0
 14 15  2  0  0  0  0
 14 19  1  0  0  0  0
 15 16  1  0  0  0  0
 15 44  1  0  0  0  0
 16 17  2  0  0  0  0
 16 45  1  0  0  0  0
 17 18  1  0  0  0  0
 18 46  1  0  0  0  0
 20 21  1  0  0  0  0
 20 26  1  0  0  0  0
 20 17  1  0  0  0  0
 20 47  1  1  0  0  0
 21 22  1  0  0  0  0
 21 48  1  0  0  0  0
 22 23  1  0  0  0  0
 22 49  1  0  0  0  0
 22 50  1  0  0  0  0
 23 24  1  0  0  0  0
 23 25  1  0  0  0  0
 23 51  1  0  0  0  0
 24 25  1  0  0  0  0
 24 52  1  0  0  0  0
 24 53  1  0  0  0  0
 25 54  1  0  0  0  0
 25 55  1  0  0  0  0
 26 27  1  0  0  0  0
 26 31  2  0  0  0  0
 27 28  2  0  0  0  0
 27 56  1  0  0  0  0
 28 29  1  0  0  0  0
 28 32  1  0  0  0  0
 29 30  2  0  0  0  0
 29 57  1  0  0  0  0
 30 31  1  0  0  0  0
 30 58  1  0  0  0  0
 31 59  1  0  0  0  0
 32 33  3  0  0  0  0
 34 35  1  0  0  0  0
 34 39  2  0  0  0  0
 35 36  2  0  0  0  0
 35 60  1  0  0  0  0
 36 37  1  0  0  0  0
 36 40  1  0  0  0  0
 37 38  2  0  0  0  0
 37 61  1  0  0  0  0
 38 39  1  0  0  0  0
 38 62  1  0  0  0  0
 39 63  1  0  0  0  0
 40 41  1  0  0  0  0
 40 64  1  0  0  0  0
 40 65  1  0  0  0  0
 41 66  1  0  0  0  0
 41 67  1  0  0  0  0
M  END
>  <DRUGBANK_ID>
DB15982

>  <COMMON_NAME>
Berotralstat

>  <CAS_NUMBER>
1809010-50-1

>  <UNII>
XZA0KB1BDQ

>  <SYNONYMS>
(+)-1-(3-(aminomethyl) phenyl)-N-(5-((3-cyanophenyl)(cyclopropylmethylamino)methyl)-2-fluorophenyl)-3-(trifluoromethyl)-1H-pyrazole-5-carboxamide dihydrochloride; (R)-1-(3-(aminomethyl) phenyl)-N-(5-((3- cyanophenyl)(cyclopropylmethylamino)methyl)-2-fluorophenyl)-3- (trifluoromethyl)-1H-pyrazole-5-carboxamide dihydrochloride; 2-[3-(aminomethyl)phenyl]-N-[5-[(R)-(3-cyanophenyl)-(cyclopropylmethylamino)methyl]-2-fluorophenyl]-5-(trifluoromethyl)pyrazole-3-carboxamide; BCX7353; Berotralstat

$$$$
