
 OpenBabel10282417072D

 55 56  0  0  1  0  0  0  0  0999 V2000
    0.8212    3.6509    0.0000 C   0  0  0  0  0  0  0  0  0  0  0  0
    0.1067    3.2384    0.0000 O   0  0  0  0  0  0  0  0  0  0  0  0
   -0.6078    3.6509    0.0000 C   0  0  0  0  0  0  0  0  0  0  0  0
   -1.3222    3.2384    0.0000 C   0  0  0  0  0  0  0  0  0  0  0  0
   -1.3222    2.4134    0.0000 O   0  0  0  0  0  0  0  0  0  0  0  0
   -2.0367    2.0009    0.0000 C   0  0  0  0  0  0  0  0  0  0  0  0
   -2.0367    3.6509    0.0000 C   0  0  0  0  0  0  0  0  0  0  0  0
   -2.0367    4.4759    0.0000 C   0  0  0  0  0  0  0  0  0  0  0  0
   -1.3222    4.8884    0.0000 C   0  0  0  0  0  0  0  0  0  0  0  0
   -1.3222    5.7134    0.0000 C   0  0  0  0  0  0  0  0  0  0  0  0
   -0.6078    6.1259    0.0000 C   0  0  0  0  0  0  0  0  0  0  0  0
   -0.6078    6.9509    0.0000 C   0  0  0  0  0  0  0  0  0  0  0  0
    0.1067    7.3634    0.0000 F   0  0  0  0  0  0  0  0  0  0  0  0
   -0.6078    4.4759    0.0000 C   0  0  0  0  0  0  0  0  0  0  0  0
   -2.7512    3.2384    0.0000 C   0  0  0  0  0  0  0  0  0  0  0  0
   -3.4656    3.6509    0.0000 O   0  0  0  0  0  0  0  0  0  0  0  0
   -2.7512    2.4134    0.0000 N   0  0  0  0  0  0  0  0  0  0  0  0
   -3.4656    2.0009    0.0000 C   0  0  0  0  0  0  0  0  0  0  0  0
   -3.4656    1.1759    0.0000 C   0  0  2  0  0  0  0  0  0  0  0  0
   -2.7982    0.6910    0.0000 C   0  0  0  0  0  0  0  0  0  0  0  0
   -3.0531   -0.0937    0.0000 C   0  0  0  0  0  0  0  0  0  0  0  0
   -3.8781   -0.0937    0.0000 C   0  0  0  0  0  0  0  0  0  0  0  0
   -4.1331    0.6910    0.0000 N   0  0  0  0  0  0  0  0  0  0  0  0
   -4.9177    0.9459    0.0000 C   0  0  0  0  0  0  0  0  0  0  0  0
   -5.5308    0.3939    0.0000 C   0  0  0  0  0  0  0  0  0  0  0  0
   -5.3593   -0.4131    0.0000 C   0  0  0  0  0  0  0  0  0  0  0  0
    1.7478    3.1159    0.0000 H   0  0  0  0  0  0  0  0  0  0  0  0
    0.8212    4.7209    0.0000 H   0  0  0  0  0  0  0  0  0  0  0  0
    1.7479    4.1859    0.0000 H   0  0  0  0  0  0  0  0  0  0  0  0
   -2.9633    2.5359    0.0000 H   0  0  0  0  0  0  0  0  0  0  0  0
   -2.0367    0.9309    0.0000 H   0  0  0  0  0  0  0  0  0  0  0  0
   -2.9634    1.4659    0.0000 H   0  0  0  0  0  0  0  0  0  0  0  0
   -2.9304    4.9919    0.0000 H   0  0  0  0  0  0  0  0  0  0  0  0
   -2.2489    6.2484    0.0000 H   0  0  0  0  0  0  0  0  0  0  0  0
   -1.3222    6.7834    0.0000 H   0  0  0  0  0  0  0  0  0  0  0  0
    0.3189    5.5909    0.0000 H   0  0  0  0  0  0  0  0  0  0  0  0
    0.3188    6.6609    0.0000 H   0  0  0  0  0  0  0  0  0  0  0  0
   -1.5344    7.4859    0.0000 H   0  0  0  0  0  0  0  0  0  0  0  0
   -0.6078    8.0209    0.0000 H   0  0  0  0  0  0  0  0  0  0  0  0
    0.2859    4.9919    0.0000 H   0  0  0  0  0  0  0  0  0  0  0  0
   -1.8986    1.9212    0.0000 H   0  0  0  0  0  0  0  0  0  0  0  0
   -4.3923    2.5359    0.0000 H   0  0  0  0  0  0  0  0  0  0  0  0
   -4.3922    1.4659    0.0000 H   0  0  0  0  0  0  0  0  0  0  0  0
   -2.5122    1.6617    0.0000 H   0  0  0  0  0  0  0  0  0  0  0  0
   -1.7806    1.0217    0.0000 H   0  0  0  0  0  0  0  0  0  0  0  0
   -2.0416   -0.0656    0.0000 H   0  0  0  0  0  0  0  0  0  0  0  0
   -2.4241   -0.9593    0.0000 H   0  0  0  0  0  0  0  0  0  0  0  0
   -3.5389   -1.0471    0.0000 H   0  0  0  0  0  0  0  0  0  0  0  0
   -4.5070   -0.9594    0.0000 H   0  0  0  0  0  0  0  0  0  0  0  0
   -4.9349    0.0737    0.0000 H   0  0  0  0  0  0  0  0  0  0  0  0
   -5.1402    1.9925    0.0000 H   0  0  0  0  0  0  0  0  0  0  0  0
   -5.9353    1.2766    0.0000 H   0  0  0  0  0  0  0  0  0  0  0  0
   -6.5123    0.7128    0.0000 H   0  0  0  0  0  0  0  0  0  0  0  0
   -6.1263   -1.1036    0.0000 H   0  0  0  0  0  0  0  0  0  0  0  0
   -4.3778   -0.7320    0.0000 H   0  0  0  0  0  0  0  0  0  0  0  0
  1  2  1  0  0  0  0
  1 27  1  0  0  0  0
  1 28  1  0  0  0  0
  1 29  1  0  0  0  0
  2  3  1  0  0  0  0
  3  4  2  0  0  0  0
  3 14  1  0  0  0  0
  4  5  1  0  0  0  0
  4  7  1  0  0  0  0
  5  6  1  0  0  0  0
  6 30  1  0  0  0  0
  6 31  1  0  0  0  0
  6 32  1  0  0  0  0
  7  8  2  0  0  0  0
  7 15  1  0  0  0  0
  8  9  1  0  0  0  0
  8 33  1  0  0  0  0
  9 10  1  0  0  0  0
  9 14  2  0  0  0  0
 10 11  1  0  0  0  0
 10 34  1  0  0  0  0
 10 35  1  0  0  0  0
 11 12  1  0  0  0  0
 11 36  1  0  0  0  0
 11 37  1  0  0  0  0
 12 13  1  0  0  0  0
 12 38  1  0  0  0  0
 12 39  1  0  0  0  0
 14 40  1  0  0  0  0
 15 16  2  0  0  0  0
 15 17  1  0  0  0  0
 17 18  1  0  0  0  0
 17 41  1  0  0  0  0
 18 42  1  0  0  0  0
 18 43  1  0  0  0  0
 19 18  1  0  0  0  0
 19 20  1  0  0  0  0
 19 23  1  0  0  0  0
 19 44  1  1  0  0  0
 20 21  1  0  0  0  0
 20 45  1  0  0  0  0
 20 46  1  0  0  0  0
 21 22  1  0  0  0  0
 21 47  1  0  0  0  0
 21 48  1  0  0  0  0
 22 23  1  0  0  0  0
 22 49  1  0  0  0  0
 22 50  1  0  0  0  0
 23 24  1  0  0  0  0
 24 25  1  0  0  0  0
 24 51  1  0  0  0  0
 24 52  1  0  0  0  0
 25 26  2  0  0  0  0
 25 53  1  0  0  0  0
 26 54  1  0  0  0  0
 26 55  1  0  0  0  0
M  END
>  <DRUGBANK_ID>
DB15167

>  <COMMON_NAME>
Fallypride

>  <CAS_NUMBER>
166173-78-0

>  <UNII>
G9FWZ369GX

$$$$
