ZZ6
 OpenBabel10282417072D

 35 37  0  0  0  0  0  0  0  0999 V2000
   -0.6866    1.2249    0.0000 Cl  0  0  0  0  0  0  0  0  0  0  0  0
    0.0279    1.6374    0.0000 C   0  0  0  0  0  0  0  0  0  0  0  0
    0.0279    2.4624    0.0000 C   0  0  0  0  0  0  0  0  0  0  0  0
    0.7424    2.8749    0.0000 C   0  0  0  0  0  0  0  0  0  0  0  0
    0.7424    3.6999    0.0000 Cl  0  0  0  0  0  0  0  0  0  0  0  0
    1.4568    2.4624    0.0000 C   0  0  0  0  0  0  0  0  0  0  0  0
    1.4568    1.6374    0.0000 C   0  0  0  0  0  0  0  0  0  0  0  0
    0.7424    1.2249    0.0000 C   0  0  0  0  0  0  0  0  0  0  0  0
    0.7424    0.3999    0.0000 C   0  0  0  0  0  0  0  0  0  0  0  0
    1.4568   -0.0126    0.0000 N   0  0  0  0  0  0  0  0  0  0  0  0
    1.4568   -0.8376    0.0000 C   0  0  0  0  0  0  0  0  0  0  0  0
    2.1713   -1.2501    0.0000 N   0  0  0  0  0  0  0  0  0  0  0  0
    0.7424   -1.2501    0.0000 N   0  0  0  0  0  0  0  0  0  0  0  0
    0.0279   -0.8376    0.0000 C   0  0  0  0  0  0  0  0  0  0  0  0
   -0.7567   -1.0925    0.0000 S   0  0  0  0  0  0  0  0  0  0  0  0
    0.0279   -0.0126    0.0000 C   0  0  0  0  0  0  0  0  0  0  0  0
   -0.7567    0.2424    0.0000 C   0  0  0  0  0  0  0  0  0  0  0  0
   -1.2417   -0.4251    0.0000 C   0  0  0  0  0  0  0  0  0  0  0  0
   -2.0667   -0.4251    0.0000 C   0  0  0  0  0  0  0  0  0  0  0  0
   -2.4792    0.2894    0.0000 O   0  0  0  0  0  0  0  0  0  0  0  0
   -2.4792   -1.1395    0.0000 N   0  0  0  0  0  0  0  0  0  0  0  0
   -3.3042   -1.1395    0.0000 C   0  0  0  0  0  0  0  0  0  0  0  0
   -3.7167   -1.8540    0.0000 C   0  0  0  0  0  0  0  0  0  0  0  0
   -0.8658    2.9784    0.0000 H   0  0  0  0  0  0  0  0  0  0  0  0
    2.3505    2.9784    0.0000 H   0  0  0  0  0  0  0  0  0  0  0  0
    2.3505    1.1214    0.0000 H   0  0  0  0  0  0  0  0  0  0  0  0
    2.1713   -2.2346    0.0000 H   0  0  0  0  0  0  0  0  0  0  0  0
    3.0239   -0.7578    0.0000 H   0  0  0  0  0  0  0  0  0  0  0  0
   -1.0756    1.2239    0.0000 H   0  0  0  0  0  0  0  0  0  0  0  0
   -1.9870   -1.9921    0.0000 H   0  0  0  0  0  0  0  0  0  0  0  0
   -3.8392   -0.2129    0.0000 H   0  0  0  0  0  0  0  0  0  0  0  0
   -4.3742   -1.1395    0.0000 H   0  0  0  0  0  0  0  0  0  0  0  0
   -4.7867   -1.8540    0.0000 H   0  0  0  0  0  0  0  0  0  0  0  0
   -3.1817   -2.7806    0.0000 H   0  0  0  0  0  0  0  0  0  0  0  0
   -4.2517   -2.7807    0.0000 H   0  0  0  0  0  0  0  0  0  0  0  0
  1  2  1  0  0  0  0
  2  3  1  0  0  0  0
  2  8  2  0  0  0  0
  3  4  2  0  0  0  0
  3 24  1  0  0  0  0
  4  5  1  0  0  0  0
  4  6  1  0  0  0  0
  6  7  2  0  0  0  0
  6 25  1  0  0  0  0
  7  8  1  0  0  0  0
  7 26  1  0  0  0  0
  8  9  1  0  0  0  0
  9 10  1  0  0  0  0
  9 16  2  0  0  0  0
 10 11  2  0  0  0  0
 11 12  1  0  0  0  0
 11 13  1  0  0  0  0
 12 27  1  0  0  0  0
 12 28  1  0  0  0  0
 13 14  2  0  0  0  0
 14 15  1  0  0  0  0
 14 16  1  0  0  0  0
 15 18  1  0  0  0  0
 16 17  1  0  0  0  0
 17 18  2  0  0  0  0
 17 29  1  0  0  0  0
 18 19  1  0  0  0  0
 19 20  2  0  0  0  0
 19 21  1  0  0  0  0
 21 22  1  0  0  0  0
 21 30  1  0  0  0  0
 22 23  1  0  0  0  0
 22 31  1  0  0  0  0
 22 32  1  0  0  0  0
 23 33  1  0  0  0  0
 23 34  1  0  0  0  0
 23 35  1  0  0  0  0
M  END
>  <DRUGBANK_ID>
DB08789

>  <COMMON_NAME>
2-AMINO-4-(2,4-DICHLOROPHENYL)-N-ETHYLTHIENO[2,3-D]PYRIMIDINE-6-CARBOXAMIDE

$$$$
