
 OpenBabel10282417072D

 38 41  0  0  0  0  0  0  0  0999 V2000
    0.0169    0.2684    0.0000 N   0  0  0  0  0  0  0  0  0  0  0  0
    0.8150    0.0653    0.0000 C   0  0  3  0  0  0  0  0  0  0  0  0
    1.1488   -0.7038    0.0000 C   0  0  0  0  0  0  0  0  0  0  0  0
    0.7521   -1.4149    0.0000 N   0  0  0  0  0  0  0  0  0  0  0  0
   -0.6360   -0.2345    0.0000 C   0  0  0  0  0  0  0  0  0  0  0  0
   -0.6505   -1.0666    0.0000 C   0  0  0  0  0  0  0  0  0  0  0  0
   -0.0120   -1.5890    0.0000 C   0  0  0  0  0  0  0  0  0  0  0  0
   -0.2007    1.0715    0.0000 C   0  0  0  0  0  0  0  0  0  0  0  0
    1.4051    0.6506    0.0000 C   0  0  0  0  0  0  0  0  0  0  0  0
    1.1730    1.4342    0.0000 N   0  0  0  0  0  0  0  0  0  0  0  0
    1.3374   -2.0243    0.0000 C   0  0  0  0  0  0  0  0  0  0  0  0
    1.9711   -0.8344    0.0000 C   0  0  0  0  0  0  0  0  0  0  0  0
    2.0726   -1.6567    0.0000 C   0  0  0  0  0  0  0  0  0  0  0  0
    0.3652    1.6519    0.0000 C   0  0  0  0  0  0  0  0  0  0  0  0
   -1.3664   -1.4729    0.0000 C   0  0  0  0  0  0  0  0  0  0  0  0
   -1.3374    0.1814    0.0000 C   0  0  0  0  0  0  0  0  0  0  0  0
    1.7389    2.0243    0.0000 C   0  0  0  0  0  0  0  0  0  0  0  0
   -2.0726   -1.0375    0.0000 C   0  0  0  0  0  0  0  0  0  0  0  0
   -2.0582   -0.2200    0.0000 C   0  0  0  0  0  0  0  0  0  0  0  0
    0.1214   -0.7494    0.0000 H   0  0  0  0  0  0  0  0  0  0  0  0
   -0.2568   -2.6306    0.0000 H   0  0  0  0  0  0  0  0  0  0  0  0
    0.7420   -2.3482    0.0000 H   0  0  0  0  0  0  0  0  0  0  0  0
   -1.2363    1.3404    0.0000 H   0  0  0  0  0  0  0  0  0  0  0  0
   -0.4881    2.1022    0.0000 H   0  0  0  0  0  0  0  0  0  0  0  0
    2.4416    0.3851    0.0000 H   0  0  0  0  0  0  0  0  0  0  0  0
    2.1475    1.4211    0.0000 H   0  0  0  0  0  0  0  0  0  0  0  0
    1.1618   -3.0413    0.0000 H   0  0  0  0  0  0  0  0  0  0  0  0
    2.7134   -0.1174    0.0000 H   0  0  0  0  0  0  0  0  0  0  0  0
    2.9821   -2.1444    0.0000 H   0  0  0  0  0  0  0  0  0  0  0  0
    0.0825    2.6839    0.0000 H   0  0  0  0  0  0  0  0  0  0  0  0
    1.1202    2.4101    0.0000 H   0  0  0  0  0  0  0  0  0  0  0  0
   -1.3851   -2.5047    0.0000 H   0  0  0  0  0  0  0  0  0  0  0  0
   -1.3234    1.2133    0.0000 H   0  0  0  0  0  0  0  0  0  0  0  0
    2.7780    1.7691    0.0000 H   0  0  0  0  0  0  0  0  0  0  0  0
    1.4404    3.0518    0.0000 H   0  0  0  0  0  0  0  0  0  0  0  0
    2.4795    2.7966    0.0000 H   0  0  0  0  0  0  0  0  0  0  0  0
   -2.9781   -1.5326    0.0000 H   0  0  0  0  0  0  0  0  0  0  0  0
   -2.9433    0.3107    0.0000 H   0  0  0  0  0  0  0  0  0  0  0  0
  2  1  1  0  0  0  0
  2 20  1  0  0  0  0
  3  2  1  0  0  0  0
  4  3  1  0  0  0  0
  4  7  1  0  0  0  0
  5  1  1  0  0  0  0
  6  5  2  0  0  0  0
  7  6  1  0  0  0  0
  7 21  1  0  0  0  0
  7 22  1  0  0  0  0
  8  1  1  0  0  0  0
  8 23  1  0  0  0  0
  8 24  1  0  0  0  0
  9  2  1  0  0  0  0
  9 25  1  0  0  0  0
  9 26  1  0  0  0  0
 10  9  1  0  0  0  0
 10 14  1  0  0  0  0
 11  4  1  0  0  0  0
 11 13  2  0  0  0  0
 11 27  1  0  0  0  0
 12  3  2  0  0  0  0
 12 28  1  0  0  0  0
 13 12  1  0  0  0  0
 13 29  1  0  0  0  0
 14  8  1  0  0  0  0
 14 30  1  0  0  0  0
 14 31  1  0  0  0  0
 15  6  1  0  0  0  0
 15 32  1  0  0  0  0
 16  5  1  0  0  0  0
 16 33  1  0  0  0  0
 17 10  1  0  0  0  0
 17 34  1  0  0  0  0
 17 35  1  0  0  0  0
 17 36  1  0  0  0  0
 18 15  2  0  0  0  0
 18 37  1  0  0  0  0
 19 16  2  0  0  0  0
 19 18  1  0  0  0  0
 19 38  1  0  0  0  0
M  END
>  <DRUGBANK_ID>
DB09305

>  <COMMON_NAME>
Aptazapine

>  <CAS_NUMBER>
71576-40-4

>  <UNII>
240J927J1R

>  <SYNONYMS>
Aptazapine

$$$$
