LC1
 OpenBabel10282417072D

 26 28  0  0  0  0  0  0  0  0999 V2000
   -2.4423   -0.4626    0.0000 C   0  0  0  0  0  0  0  0  0  0  0  0
   -3.2269   -0.2077    0.0000 S   0  0  0  0  0  0  0  0  0  0  0  0
   -3.2269    0.6173    0.0000 C   0  0  0  0  0  0  0  0  0  0  0  0
   -2.4423    0.8723    0.0000 N   0  0  0  0  0  0  0  0  0  0  0  0
   -1.9574    0.2048    0.0000 C   0  0  0  0  0  0  0  0  0  0  0  0
   -1.1324    0.2048    0.0000 C   0  0  0  0  0  0  0  0  0  0  0  0
   -0.6475    0.8723    0.0000 N   0  0  0  0  0  0  0  0  0  0  0  0
    0.1371    0.6173    0.0000 C   0  0  0  0  0  0  0  0  0  0  0  0
    0.8516    1.0298    0.0000 C   0  0  0  0  0  0  0  0  0  0  0  0
    1.5661    0.6173    0.0000 C   0  0  0  0  0  0  0  0  0  0  0  0
    1.5661   -0.2077    0.0000 C   0  0  0  0  0  0  0  0  0  0  0  0
    2.2806   -0.6202    0.0000 S   0  0  0  0  0  0  0  0  0  0  0  0
    2.9950   -1.0327    0.0000 O   0  0  0  0  0  0  0  0  0  0  0  0
    1.8681   -1.3346    0.0000 O   0  0  0  0  0  0  0  0  0  0  0  0
    2.6931    0.0943    0.0000 N   0  0  0  0  0  0  0  0  0  0  0  0
    0.8516   -0.6202    0.0000 C   0  0  0  0  0  0  0  0  0  0  0  0
    0.1371   -0.2077    0.0000 C   0  0  0  0  0  0  0  0  0  0  0  0
   -0.6475   -0.4626    0.0000 N   0  0  0  0  0  0  0  0  0  0  0  0
   -2.1234   -1.4441    0.0000 H   0  0  0  0  0  0  0  0  0  0  0  0
   -4.0618    1.2239    0.0000 H   0  0  0  0  0  0  0  0  0  0  0  0
   -0.9517    1.8086    0.0000 H   0  0  0  0  0  0  0  0  0  0  0  0
    0.8516    2.0618    0.0000 H   0  0  0  0  0  0  0  0  0  0  0  0
    2.4598    1.1333    0.0000 H   0  0  0  0  0  0  0  0  0  0  0  0
    3.7131    0.0943    0.0000 H   0  0  0  0  0  0  0  0  0  0  0  0
    2.1831    0.9776    0.0000 H   0  0  0  0  0  0  0  0  0  0  0  0
    0.8516   -1.6522    0.0000 H   0  0  0  0  0  0  0  0  0  0  0  0
  1  2  1  0  0  0  0
  1  5  2  0  0  0  0
  1 19  1  0  0  0  0
  2  3  1  0  0  0  0
  3  4  2  0  0  0  0
  3 20  1  0  0  0  0
  4  5  1  0  0  0  0
  5  6  1  0  0  0  0
  6  7  1  0  0  0  0
  6 18  2  0  0  0  0
  7  8  1  0  0  0  0
  7 21  1  0  0  0  0
  8  9  2  0  0  0  0
  8 17  1  0  0  0  0
  9 10  1  0  0  0  0
  9 22  1  0  0  0  0
 10 11  2  0  0  0  0
 10 23  1  0  0  0  0
 11 12  1  0  0  0  0
 11 16  1  0  0  0  0
 12 13  2  0  0  0  0
 12 14  2  0  0  0  0
 12 15  1  0  0  0  0
 15 24  1  0  0  0  0
 15 25  1  0  0  0  0
 16 17  2  0  0  0  0
 16 26  1  0  0  0  0
 17 18  1  0  0  0  0
M  END
>  <DRUGBANK_ID>
DB08083

>  <COMMON_NAME>
2-(1,3-thiazol-4-yl)-1H-benzimidazole-5-sulfonamide

$$$$
