
 OpenBabel10282417072D

 60 63  0  0  1  0  0  0  0  0999 V2000
   11.1613   -9.5509    0.0000 C   0  0  0  0  0  0  0  0  0  0  0  0
   10.4469   -9.9634    0.0000 C   0  0  0  0  0  0  0  0  0  0  0  0
   10.4469  -10.7884    0.0000 C   0  0  0  0  0  0  0  0  0  0  0  0
   11.1613  -11.2009    0.0000 C   0  0  0  0  0  0  0  0  0  0  0  0
   11.8758  -10.7884    0.0000 C   0  0  0  0  0  0  0  0  0  0  0  0
   11.8758   -9.9634    0.0000 C   0  0  0  0  0  0  0  0  0  0  0  0
   12.5903   -9.5509    0.0000 C   0  0  0  0  0  0  0  0  0  0  0  0
   12.5903  -11.2009    0.0000 C   0  0  0  0  0  0  0  0  0  0  0  0
   13.3047  -10.7884    0.0000 C   0  0  0  0  0  0  0  0  0  0  0  0
   13.3047   -9.9634    0.0000 C   0  0  2  0  0  0  0  0  0  0  0  0
   14.0192   -9.5509    0.0000 C   0  0  0  0  0  0  0  0  0  0  0  0
   14.0192  -11.2009    0.0000 C   0  0  0  0  0  0  0  0  0  0  0  0
   14.7337  -10.7884    0.0000 C   0  0  1  0  0  0  0  0  0  0  0  0
   14.7337   -9.9634    0.0000 C   0  0  2  0  0  0  0  0  0  0  0  0
   15.4481   -9.5509    0.0000 C   0  0  1  0  0  0  0  0  0  0  0  0
   15.4481  -11.2009    0.0000 C   0  0  0  0  0  0  0  0  0  0  0  0
   16.1626  -10.7884    0.0000 C   0  0  0  0  0  0  0  0  0  0  0  0
   16.1626   -9.9634    0.0000 C   0  0  0  0  0  0  0  0  0  0  0  0
   11.1613   -8.7259    0.0000 N   0  0  0  0  0  0  0  0  0  0  0  0
   15.4481   -8.7259    0.0000 N   0  0  0  0  0  0  0  0  0  0  0  0
   14.7337   -9.1384    0.0000 H   0  0  0  0  0  0  0  0  0  0  0  0
   13.3047   -9.1384    0.0000 H   0  0  0  0  0  0  0  0  0  0  0  0
   14.7337  -11.6134    0.0000 O   0  0  0  0  0  0  0  0  0  0  0  0
   11.8758   -8.3134    0.0000 C   0  0  0  0  0  0  0  0  0  0  0  0
   10.4469   -8.3134    0.0000 C   0  0  0  0  0  0  0  0  0  0  0  0
   16.1626   -8.3134    0.0000 C   0  0  0  0  0  0  0  0  0  0  0  0
   14.7336   -8.3134    0.0000 C   0  0  0  0  0  0  0  0  0  0  0  0
   16.8771   -9.5509    0.0000 O   0  0  0  0  0  0  0  0  0  0  0  0
   11.1613  -12.0259    0.0000 O   0  0  0  0  0  0  0  0  0  0  0  0
   12.5903  -12.0259    0.0000 O   0  0  0  0  0  0  0  0  0  0  0  0
   14.0192  -12.0259    0.0000 O   0  0  0  0  0  0  0  0  0  0  0  0
   15.4481  -12.0259    0.0000 O   0  0  0  0  0  0  0  0  0  0  0  0
   16.8771  -11.2009    0.0000 C   0  0  0  0  0  0  0  0  0  0  0  0
   16.8771  -12.0259    0.0000 O   0  0  0  0  0  0  0  0  0  0  0  0
   17.5915  -10.7884    0.0000 N   0  0  0  0  0  0  0  0  0  0  0  0
    9.5532   -9.4474    0.0000 H   0  0  0  0  0  0  0  0  0  0  0  0
    9.5532  -11.3044    0.0000 H   0  0  0  0  0  0  0  0  0  0  0  0
   12.5903   -8.4809    0.0000 H   0  0  0  0  0  0  0  0  0  0  0  0
   13.5170   -9.0159    0.0000 H   0  0  0  0  0  0  0  0  0  0  0  0
   14.0192   -8.4809    0.0000 H   0  0  0  0  0  0  0  0  0  0  0  0
   14.9458   -9.0159    0.0000 H   0  0  0  0  0  0  0  0  0  0  0  0
   14.5214   -9.0159    0.0000 H   0  0  0  0  0  0  0  0  0  0  0  0
   13.8937  -12.0984    0.0000 H   0  0  0  0  0  0  0  0  0  0  0  0
   12.8024   -8.8484    0.0000 H   0  0  0  0  0  0  0  0  0  0  0  0
   11.8758   -7.2434    0.0000 H   0  0  0  0  0  0  0  0  0  0  0  0
   12.8025   -7.7784    0.0000 H   0  0  0  0  0  0  0  0  0  0  0  0
   10.4469   -7.2434    0.0000 H   0  0  0  0  0  0  0  0  0  0  0  0
    9.5202   -8.8484    0.0000 H   0  0  0  0  0  0  0  0  0  0  0  0
    9.5203   -7.7784    0.0000 H   0  0  0  0  0  0  0  0  0  0  0  0
   17.0892   -8.8484    0.0000 H   0  0  0  0  0  0  0  0  0  0  0  0
   16.1626   -7.2434    0.0000 H   0  0  0  0  0  0  0  0  0  0  0  0
   17.0893   -7.7784    0.0000 H   0  0  0  0  0  0  0  0  0  0  0  0
   14.7336   -7.2434    0.0000 H   0  0  0  0  0  0  0  0  0  0  0  0
   13.8070   -8.8484    0.0000 H   0  0  0  0  0  0  0  0  0  0  0  0
   13.8069   -7.7784    0.0000 H   0  0  0  0  0  0  0  0  0  0  0  0
   17.6886  -10.0194    0.0000 H   0  0  0  0  0  0  0  0  0  0  0  0
   10.3498  -12.4944    0.0000 H   0  0  0  0  0  0  0  0  0  0  0  0
   13.2077  -12.4944    0.0000 H   0  0  0  0  0  0  0  0  0  0  0  0
   18.4441  -11.2806    0.0000 H   0  0  0  0  0  0  0  0  0  0  0  0
   17.5915   -9.8039    0.0000 H   0  0  0  0  0  0  0  0  0  0  0  0
  1  2  2  0  0  0  0
  1  6  1  0  0  0  0
  1 19  1  0  0  0  0
  2  3  1  0  0  0  0
  2 36  1  0  0  0  0
  3  4  2  0  0  0  0
  3 37  1  0  0  0  0
  4  5  1  0  0  0  0
  4 29  1  0  0  0  0
  5  8  1  0  0  0  0
  6  5  2  0  0  0  0
  7  6  1  0  0  0  0
  7 10  1  0  0  0  0
  7 38  1  0  0  0  0
  7 39  1  0  0  0  0
  8  9  1  0  0  0  0
  8 30  2  0  0  0  0
  9 12  2  0  0  0  0
 10  9  1  0  0  0  0
 10 22  1  6  0  0  0
 11 10  1  0  0  0  0
 11 14  1  0  0  0  0
 11 40  1  0  0  0  0
 11 41  1  0  0  0  0
 12 13  1  0  0  0  0
 12 31  1  0  0  0  0
 13 16  1  0  0  0  0
 13 23  1  6  0  0  0
 14 13  1  0  0  0  0
 14 21  1  6  0  0  0
 15 14  1  0  0  0  0
 15 18  1  0  0  0  0
 15 20  1  0  0  0  0
 15 42  1  1  0  0  0
 16 17  1  0  0  0  0
 16 32  2  0  0  0  0
 17 18  2  0  0  0  0
 17 33  1  0  0  0  0
 18 28  1  0  0  0  0
 19 24  1  0  0  0  0
 19 25  1  0  0  0  0
 20 26  1  0  0  0  0
 20 27  1  0  0  0  0
 23 43  1  0  0  0  0
 24 44  1  0  0  0  0
 24 45  1  0  0  0  0
 24 46  1  0  0  0  0
 25 47  1  0  0  0  0
 25 48  1  0  0  0  0
 25 49  1  0  0  0  0
 26 50  1  0  0  0  0
 26 51  1  0  0  0  0
 26 52  1  0  0  0  0
 27 53  1  0  0  0  0
 27 54  1  0  0  0  0
 27 55  1  0  0  0  0
 28 56  1  0  0  0  0
 29 57  1  0  0  0  0
 31 58  1  0  0  0  0
 33 34  2  0  0  0  0
 33 35  1  0  0  0  0
 35 59  1  0  0  0  0
 35 60  1  0  0  0  0
M  END
>  <DRUGBANK_ID>
DB01017

>  <SECONDARY_ACCESSION_NUMBERS>
APRD00547

>  <COMMON_NAME>
Minocycline

>  <CAS_NUMBER>
10118-90-8

>  <UNII>
FYY3R43WGO

>  <SYNONYMS>
(4S,4aS,5aR,12aS)-4,7-bis(dimethylamino)-3,10,12,12a-tetrahydroxy-1,11-dioxo-1,4,4a,5,5a,6,11,12a-octahydrotetracene-2-carboxamide; 7-Dimethylamino-6-demethyl-6-deoxytetracycline; Minociclina; Minociclinum; Minocyclin; Minocycline; Minocyclinum; Minomycin

$$$$
