QUE
 OpenBabel10282417072D

 32 34  0  0  0  0  0  0  0  0999 V2000
   -2.6029   -0.7737    0.0000 C   0  0  0  0  0  0  0  0  0  0  0  0
   -1.8884   -1.1862    0.0000 C   0  0  0  0  0  0  0  0  0  0  0  0
   -1.1740   -0.7737    0.0000 C   0  0  0  0  0  0  0  0  0  0  0  0
   -1.1740    0.0513    0.0000 C   0  0  0  0  0  0  0  0  0  0  0  0
   -1.8884    0.4638    0.0000 C   0  0  0  0  0  0  0  0  0  0  0  0
   -2.6029    0.0513    0.0000 C   0  0  0  0  0  0  0  0  0  0  0  0
   -0.4595   -1.1862    0.0000 C   0  0  0  0  0  0  0  0  0  0  0  0
    0.2550   -0.7737    0.0000 C   0  0  0  0  0  0  0  0  0  0  0  0
    0.2550    0.0513    0.0000 C   0  0  0  0  0  0  0  0  0  0  0  0
    0.9695    0.4638    0.0000 C   0  0  0  0  0  0  0  0  0  0  0  0
    0.9695    1.2888    0.0000 C   0  0  0  0  0  0  0  0  0  0  0  0
    1.6839    1.7013    0.0000 C   0  0  0  0  0  0  0  0  0  0  0  0
    2.3984    1.2888    0.0000 C   0  0  0  0  0  0  0  0  0  0  0  0
    2.3984    0.4638    0.0000 C   0  0  0  0  0  0  0  0  0  0  0  0
    1.6839    0.0513    0.0000 C   0  0  0  0  0  0  0  0  0  0  0  0
   -0.4595    0.4638    0.0000 O   0  0  0  0  0  0  0  0  0  0  0  0
   -0.4595   -2.0112    0.0000 O   0  0  0  0  0  0  0  0  0  0  0  0
    3.1129    0.0513    0.0000 O   0  0  0  0  0  0  0  0  0  0  0  0
    3.1129    1.7013    0.0000 O   0  0  0  0  0  0  0  0  0  0  0  0
    0.9695   -1.1862    0.0000 O   0  0  0  0  0  0  0  0  0  0  0  0
   -3.3174    0.4638    0.0000 O   0  0  0  0  0  0  0  0  0  0  0  0
   -1.8884   -2.0112    0.0000 O   0  0  0  0  0  0  0  0  0  0  0  0
   -3.4966   -1.2897    0.0000 H   0  0  0  0  0  0  0  0  0  0  0  0
   -1.8884    1.4958    0.0000 H   0  0  0  0  0  0  0  0  0  0  0  0
    0.0758    1.8048    0.0000 H   0  0  0  0  0  0  0  0  0  0  0  0
    1.6839    2.7333    0.0000 H   0  0  0  0  0  0  0  0  0  0  0  0
    1.6839   -0.9807    0.0000 H   0  0  0  0  0  0  0  0  0  0  0  0
    3.1129   -0.8857    0.0000 H   0  0  0  0  0  0  0  0  0  0  0  0
    3.9244    1.2328    0.0000 H   0  0  0  0  0  0  0  0  0  0  0  0
    0.9695   -2.1232    0.0000 H   0  0  0  0  0  0  0  0  0  0  0  0
   -3.3174    1.4008    0.0000 H   0  0  0  0  0  0  0  0  0  0  0  0
   -2.6999   -2.4797    0.0000 H   0  0  0  0  0  0  0  0  0  0  0  0
  1  2  2  0  0  0  0
  1  6  1  0  0  0  0
  1 23  1  0  0  0  0
  2  3  1  0  0  0  0
  2 22  1  0  0  0  0
  3  4  2  0  0  0  0
  3  7  1  0  0  0  0
  4  5  1  0  0  0  0
  4 16  1  0  0  0  0
  5  6  2  0  0  0  0
  5 24  1  0  0  0  0
  6 21  1  0  0  0  0
  7  8  1  0  0  0  0
  7 17  2  0  0  0  0
  8  9  2  0  0  0  0
  8 20  1  0  0  0  0
  9 10  1  0  0  0  0
  9 16  1  0  0  0  0
 10 11  2  0  0  0  0
 10 15  1  0  0  0  0
 11 12  1  0  0  0  0
 11 25  1  0  0  0  0
 12 13  2  0  0  0  0
 12 26  1  0  0  0  0
 13 14  1  0  0  0  0
 13 19  1  0  0  0  0
 14 15  2  0  0  0  0
 14 18  1  0  0  0  0
 15 27  1  0  0  0  0
 18 28  1  0  0  0  0
 19 29  1  0  0  0  0
 20 30  1  0  0  0  0
 21 31  1  0  0  0  0
 22 32  1  0  0  0  0
M  END
>  <DRUGBANK_ID>
DB04216

>  <SECONDARY_ACCESSION_NUMBERS>
EXPT02732

>  <COMMON_NAME>
Quercetin

>  <CAS_NUMBER>
117-39-5

>  <UNII>
9IKM0I5T1E

>  <SYNONYMS>
2-(3,4-dihydroxyphenyl)-3,5,7-trihydroxy-4H-1-benzopyran-4-one; 3,3',4',5,7-pentahydroxyflavone; 3,5,7,3',4'-Pentahydroxyflavone; 3'-HYDROXYKAEMPFEROL; FLAVONE, 3,3',4',5,7-PENTAHYDROXY-; poly (lactide-co-glycolide)-polyethylene glycol nanoparticles encapsulating quercetin; Sophoretin; Xanthaurine

$$$$
