1097
 OpenBabel10282417072D

 28 29  0  0  0  0  0  0  0  0999 V2000
    2.9915    2.4910    0.0000 F   0  0  0  0  0  0  0  0  0  0  0  0
    4.6416    2.4910    0.0000 F   0  0  0  0  0  0  0  0  0  0  0  0
    3.8166    3.3160    0.0000 F   0  0  0  0  0  0  0  0  0  0  0  0
    2.6896   -3.3160    0.0000 O   0  0  0  0  0  0  0  0  0  0  0  0
    2.3876   -0.8090    0.0000 O   0  0  0  0  0  0  0  0  0  0  0  0
    3.8166   -0.8090    0.0000 N   0  0  0  0  0  0  0  0  0  0  0  0
    3.5146   -3.3160    0.0000 N   0  0  0  0  0  0  0  0  0  0  0  0
    3.8166    0.0160    0.0000 C   0  0  0  0  0  0  0  0  0  0  0  0
    3.8166    1.6660    0.0000 C   0  0  0  0  0  0  0  0  0  0  0  0
    3.1021   -2.0465    0.0000 C   0  0  0  0  0  0  0  0  0  0  0  0
    4.5310    0.4285    0.0000 C   0  0  0  0  0  0  0  0  0  0  0  0
    3.1021    0.4285    0.0000 C   0  0  0  0  0  0  0  0  0  0  0  0
    4.5310    1.2535    0.0000 C   0  0  0  0  0  0  0  0  0  0  0  0
    3.1021    1.2535    0.0000 C   0  0  0  0  0  0  0  0  0  0  0  0
    3.1021   -1.2215    0.0000 C   0  0  0  0  0  0  0  0  0  0  0  0
    2.4347   -2.5314    0.0000 C   0  0  0  0  0  0  0  0  0  0  0  0
    3.8166    2.4910    0.0000 C   0  0  0  0  0  0  0  0  0  0  0  0
    3.7695   -2.5314    0.0000 C   0  0  0  0  0  0  0  0  0  0  0  0
    1.6500   -2.2764    0.0000 C   0  0  0  0  0  0  0  0  0  0  0  0
    4.6692   -1.3013    0.0000 H   0  0  0  0  0  0  0  0  0  0  0  0
    5.4247   -0.0875    0.0000 H   0  0  0  0  0  0  0  0  0  0  0  0
    2.2084   -0.0875    0.0000 H   0  0  0  0  0  0  0  0  0  0  0  0
    5.4247    1.7695    0.0000 H   0  0  0  0  0  0  0  0  0  0  0  0
    2.2084    1.7695    0.0000 H   0  0  0  0  0  0  0  0  0  0  0  0
    4.7510   -2.2125    0.0000 H   0  0  0  0  0  0  0  0  0  0  0  0
    1.4276   -1.2298    0.0000 H   0  0  0  0  0  0  0  0  0  0  0  0
    0.8548   -2.9923    0.0000 H   0  0  0  0  0  0  0  0  0  0  0  0
    0.6324   -1.9457    0.0000 H   0  0  0  0  0  0  0  0  0  0  0  0
  1 17  1  0  0  0  0
  2 17  1  0  0  0  0
  3 17  1  0  0  0  0
  4  7  1  0  0  0  0
  4 16  1  0  0  0  0
  5 15  2  0  0  0  0
  6  8  1  0  0  0  0
  6 15  1  0  0  0  0
  6 20  1  0  0  0  0
  7 18  2  0  0  0  0
  8 11  2  0  0  0  0
  8 12  1  0  0  0  0
  9 13  2  0  0  0  0
  9 14  1  0  0  0  0
  9 17  1  0  0  0  0
 10 15  1  0  0  0  0
 10 16  2  0  0  0  0
 10 18  1  0  0  0  0
 11 13  1  0  0  0  0
 11 21  1  0  0  0  0
 12 14  2  0  0  0  0
 12 22  1  0  0  0  0
 13 23  1  0  0  0  0
 14 24  1  0  0  0  0
 16 19  1  0  0  0  0
 18 25  1  0  0  0  0
 19 26  1  0  0  0  0
 19 27  1  0  0  0  0
 19 28  1  0  0  0  0
M  END
>  <DRUGBANK_ID>
DB01097

>  <SECONDARY_ACCESSION_NUMBERS>
APRD00205

>  <COMMON_NAME>
Leflunomide

>  <CAS_NUMBER>
75706-12-6

>  <UNII>
G162GK9U4W

>  <SYNONYMS>
4-ISOXAZOLECARBOXAMIDE, 5-METHYL-N-(4-(TRIFLUOROMETHYL)PHENYL)-; 5-Methyl-N-(4-(trifluoromethyl)phenyl)-4-isoxazolecarboxamide; 5-Methylisoxazole-4-carboxylic acid (4-trifluoromethyl)anilide; alpha,alpha,alpha-Trifluoro-5-methyl-4-isoxazolecarboxy-p-toluidide; Leflunomida; Leflunomide; LÃ©flunomide; Leflunomidum; N-(4-(TRIFLUOROMETHYL)PHENYL) 5 METHYLISOXAZOLE-4-CARBOXAMIDE; N-[4-(trifluoromethyl)phenyl] 5 methylisoxazole-4-carboxamide

$$$$
