
 OpenBabel10282417072D

 14 15  0  0  0  0  0  0  0  0999 V2000
    0.0794    0.0010    0.0000 C   0  0  0  0  0  0  0  0  0  0  0  0
    0.0806   -0.8239    0.0000 C   0  0  0  0  0  0  0  0  0  0  0  0
    0.8656   -1.0776    0.0000 C   0  0  0  0  0  0  0  0  0  0  0  0
    0.8636    0.2571    0.0000 N   0  0  0  0  0  0  0  0  0  0  0  0
    1.3495   -0.4095    0.0000 N   0  0  0  0  0  0  0  0  0  0  0  0
   -1.3495   -0.0010    0.0000 N   0  0  0  0  0  0  0  0  0  0  0  0
   -0.6332   -1.2375    0.0000 N   0  0  0  0  0  0  0  0  0  0  0  0
   -1.3483   -0.8260    0.0000 C   0  0  0  0  0  0  0  0  0  0  0  0
   -0.6356    0.4125    0.0000 C   0  0  0  0  0  0  0  0  0  0  0  0
   -0.6356    1.2375    0.0000 O   0  0  0  0  0  0  0  0  0  0  0  0
    1.1978   -2.0947    0.0000 H   0  0  0  0  0  0  0  0  0  0  0  0
    1.9227   -1.2434    0.0000 H   0  0  0  0  0  0  0  0  0  0  0  0
   -2.2413   -1.3433    0.0000 H   0  0  0  0  0  0  0  0  0  0  0  0
    0.1759    1.7060    0.0000 H   0  0  0  0  0  0  0  0  0  0  0  0
  1  2  2  0  0  0  0
  2  3  1  0  0  0  0
  3  5  1  0  0  0  0
  3 11  1  0  0  0  0
  3 12  1  0  0  0  0
  4  1  1  0  0  0  0
  4  5  2  0  0  0  0
  6  8  1  0  0  0  0
  7  2  1  0  0  0  0
  8  7  2  0  0  0  0
  8 13  1  0  0  0  0
  9  6  2  0  0  0  0
  9  1  1  0  0  0  0
  9 10  1  0  0  0  0
 10 14  1  0  0  0  0
M  END
>  <DRUGBANK_ID>
DB03153

>  <SECONDARY_ACCESSION_NUMBERS>
EXPT02643

>  <COMMON_NAME>
3H-pyrazolo[4,3-d]pyrimidin-7-ol

>  <UNII>
UNA9YT8PYM

$$$$
