
 OpenBabel10282417072D

 89 93  0  0  0  0  0  0  0  0999 V2000
    5.0451    6.4435    0.0000 C   0  0  0  0  0  0  0  0  0  0  0  0
    4.4931    5.8304    0.0000 C   0  0  0  0  0  0  0  0  0  0  0  0
    4.7480    5.0458    0.0000 O   0  0  0  0  0  0  0  0  0  0  0  0
    4.1960    4.4327    0.0000 C   0  0  0  0  0  0  0  0  0  0  0  0
    4.4509    3.6481    0.0000 C   0  0  0  0  0  0  0  0  0  0  0  0
    3.8989    3.0350    0.0000 C   0  0  0  0  0  0  0  0  0  0  0  0
    3.0919    3.2065    0.0000 C   0  0  0  0  0  0  0  0  0  0  0  0
    2.8370    3.9911    0.0000 C   0  0  0  0  0  0  0  0  0  0  0  0
    3.3890    4.6042    0.0000 N   0  0  0  0  0  0  0  0  0  0  0  0
    2.5399    2.5934    0.0000 C   0  0  0  0  0  0  0  0  0  0  0  0
    2.7948    1.8088    0.0000 C   0  0  0  0  0  0  0  0  0  0  0  0
    2.2428    1.1957    0.0000 C   0  0  0  0  0  0  0  0  0  0  0  0
    1.4358    1.3672    0.0000 C   0  0  0  0  0  0  0  0  0  0  0  0
    1.1809    2.1518    0.0000 C   0  0  0  0  0  0  0  0  0  0  0  0
    1.7329    2.7649    0.0000 C   0  0  0  0  0  0  0  0  0  0  0  0
    0.8838    0.7541    0.0000 C   0  0  0  0  0  0  0  0  0  0  0  0
    1.1387   -0.0305    0.0000 N   0  0  0  0  0  0  0  0  0  0  0  0
    1.9233   -0.2854    0.0000 C   0  0  0  0  0  0  0  0  0  0  0  0
    2.6378    0.1271    0.0000 C   0  0  0  0  0  0  0  0  0  0  0  0
    3.3523   -0.2854    0.0000 C   0  0  0  0  0  0  0  0  0  0  0  0
    3.3523   -1.1104    0.0000 C   0  0  0  0  0  0  0  0  0  0  0  0
    2.6378   -1.5229    0.0000 C   0  0  0  0  0  0  0  0  0  0  0  0
    1.9233   -1.1104    0.0000 C   0  0  0  0  0  0  0  0  0  0  0  0
    1.1387   -1.3654    0.0000 C   0  0  0  0  0  0  0  0  0  0  0  0
    0.6538   -0.6979    0.0000 C   0  0  0  0  0  0  0  0  0  0  0  0
   -0.1712   -0.6979    0.0000 C   0  0  0  0  0  0  0  0  0  0  0  0
   -0.5837    0.0165    0.0000 C   0  0  0  0  0  0  0  0  0  0  0  0
    0.1308    0.4290    0.0000 C   0  0  0  0  0  0  0  0  0  0  0  0
   -0.9962    0.7310    0.0000 C   0  0  0  0  0  0  0  0  0  0  0  0
   -1.2982   -0.3960    0.0000 C   0  0  0  0  0  0  0  0  0  0  0  0
   -1.2982   -1.2210    0.0000 O   0  0  0  0  0  0  0  0  0  0  0  0
   -2.0126    0.0165    0.0000 O   0  0  0  0  0  0  0  0  0  0  0  0
    0.8838   -2.1500    0.0000 S   0  0  0  0  0  0  0  0  0  0  0  0
    0.0768   -2.3215    0.0000 C   0  0  0  0  0  0  0  0  0  0  0  0
   -0.0947   -1.5146    0.0000 C   0  0  0  0  0  0  0  0  0  0  0  0
    0.2483   -3.1285    0.0000 C   0  0  0  0  0  0  0  0  0  0  0  0
   -0.7302   -2.4931    0.0000 C   0  0  0  0  0  0  0  0  0  0  0  0
    4.0668   -1.5229    0.0000 O   0  0  0  0  0  0  0  0  0  0  0  0
    4.7812   -1.1104    0.0000 C   0  0  0  0  0  0  0  0  0  0  0  0
    4.7812   -0.2854    0.0000 C   0  0  0  0  0  0  0  0  0  0  0  0
    4.0668    0.1271    0.0000 C   0  0  0  0  0  0  0  0  0  0  0  0
    4.0668    0.9521    0.0000 C   0  0  0  0  0  0  0  0  0  0  0  0
    4.7812    1.3646    0.0000 C   0  0  0  0  0  0  0  0  0  0  0  0
    5.4957    0.9521    0.0000 C   0  0  0  0  0  0  0  0  0  0  0  0
    5.4957    0.1271    0.0000 N   0  0  0  0  0  0  0  0  0  0  0  0
    4.7812    2.1896    0.0000 C   0  0  0  0  0  0  0  0  0  0  0  0
    6.0917    6.2211    0.0000 H   0  0  0  0  0  0  0  0  0  0  0  0
    4.7144    7.4611    0.0000 H   0  0  0  0  0  0  0  0  0  0  0  0
    5.7610    7.2387    0.0000 H   0  0  0  0  0  0  0  0  0  0  0  0
    3.4465    6.0529    0.0000 H   0  0  0  0  0  0  0  0  0  0  0  0
    3.7771    5.0352    0.0000 H   0  0  0  0  0  0  0  0  0  0  0  0
    5.4603    3.4335    0.0000 H   0  0  0  0  0  0  0  0  0  0  0  0
    4.2178    2.0535    0.0000 H   0  0  0  0  0  0  0  0  0  0  0  0
    1.8276    4.2057    0.0000 H   0  0  0  0  0  0  0  0  0  0  0  0
    3.8042    1.5942    0.0000 H   0  0  0  0  0  0  0  0  0  0  0  0
    2.5617    0.2142    0.0000 H   0  0  0  0  0  0  0  0  0  0  0  0
    0.1715    2.3664    0.0000 H   0  0  0  0  0  0  0  0  0  0  0  0
    1.4140    3.7464    0.0000 H   0  0  0  0  0  0  0  0  0  0  0  0
   -0.1628    0.9766    0.0000 H   0  0  0  0  0  0  0  0  0  0  0  0
    0.1678   -0.0411    0.0000 H   0  0  0  0  0  0  0  0  0  0  0  0
    2.6378    1.1591    0.0000 H   0  0  0  0  0  0  0  0  0  0  0  0
    4.2460    0.2306    0.0000 H   0  0  0  0  0  0  0  0  0  0  0  0
    2.6378   -2.5549    0.0000 H   0  0  0  0  0  0  0  0  0  0  0  0
   -0.7062   -1.6246    0.0000 H   0  0  0  0  0  0  0  0  0  0  0  0
   -1.2412   -0.6979    0.0000 H   0  0  0  0  0  0  0  0  0  0  0  0
    1.0574   -0.1060    0.0000 H   0  0  0  0  0  0  0  0  0  0  0  0
    0.1308    1.4990    0.0000 H   0  0  0  0  0  0  0  0  0  0  0  0
    1.0575    0.9640    0.0000 H   0  0  0  0  0  0  0  0  0  0  0  0
   -0.4612    1.6576    0.0000 H   0  0  0  0  0  0  0  0  0  0  0  0
   -2.0662    0.7310    0.0000 H   0  0  0  0  0  0  0  0  0  0  0  0
   -1.5312    1.6577    0.0000 H   0  0  0  0  0  0  0  0  0  0  0  0
   -2.0126    0.9535    0.0000 H   0  0  0  0  0  0  0  0  0  0  0  0
    0.7005   -0.7986    0.0000 H   0  0  0  0  0  0  0  0  0  0  0  0
   -1.1123   -1.1839    0.0000 H   0  0  0  0  0  0  0  0  0  0  0  0
   -0.3172   -0.4680    0.0000 H   0  0  0  0  0  0  0  0  0  0  0  0
   -0.5469   -3.8444    0.0000 H   0  0  0  0  0  0  0  0  0  0  0  0
    1.2659   -3.4592    0.0000 H   0  0  0  0  0  0  0  0  0  0  0  0
    0.4707   -4.1751    0.0000 H   0  0  0  0  0  0  0  0  0  0  0  0
   -1.4462   -1.6980    0.0000 H   0  0  0  0  0  0  0  0  0  0  0  0
   -1.0608   -3.5108    0.0000 H   0  0  0  0  0  0  0  0  0  0  0  0
   -1.7768   -2.7156    0.0000 H   0  0  0  0  0  0  0  0  0  0  0  0
    5.7079   -1.6454    0.0000 H   0  0  0  0  0  0  0  0  0  0  0  0
    5.7078   -0.5754    0.0000 H   0  0  0  0  0  0  0  0  0  0  0  0
    3.1731   -0.3889    0.0000 H   0  0  0  0  0  0  0  0  0  0  0  0
    3.1731    1.4681    0.0000 H   0  0  0  0  0  0  0  0  0  0  0  0
    6.3894    1.4681    0.0000 H   0  0  0  0  0  0  0  0  0  0  0  0
    5.7078    2.7246    0.0000 H   0  0  0  0  0  0  0  0  0  0  0  0
    3.8546    2.7246    0.0000 H   0  0  0  0  0  0  0  0  0  0  0  0
    4.7812    3.2596    0.0000 H   0  0  0  0  0  0  0  0  0  0  0  0
  1  2  1  0  0  0  0
  1 47  1  0  0  0  0
  1 48  1  0  0  0  0
  1 49  1  0  0  0  0
  2  3  1  0  0  0  0
  2 50  1  0  0  0  0
  2 51  1  0  0  0  0
  3  4  1  0  0  0  0
  4  5  2  0  0  0  0
  4  9  1  0  0  0  0
  5  6  1  0  0  0  0
  5 52  1  0  0  0  0
  6  7  2  0  0  0  0
  6 53  1  0  0  0  0
  7  8  1  0  0  0  0
  7 10  1  0  0  0  0
  8  9  2  0  0  0  0
  8 54  1  0  0  0  0
 10 11  2  0  0  0  0
 10 15  1  0  0  0  0
 11 12  1  0  0  0  0
 11 55  1  0  0  0  0
 12 13  2  0  0  0  0
 12 56  1  0  0  0  0
 13 14  1  0  0  0  0
 13 16  1  0  0  0  0
 14 15  2  0  0  0  0
 14 57  1  0  0  0  0
 15 58  1  0  0  0  0
 16 17  1  0  0  0  0
 16 59  1  0  0  0  0
 16 60  1  0  0  0  0
 17 18  1  0  0  0  0
 17 25  1  0  0  0  0
 18 19  2  0  0  0  0
 18 23  1  0  0  0  0
 19 20  1  0  0  0  0
 19 61  1  0  0  0  0
 20 21  2  0  0  0  0
 20 62  1  0  0  0  0
 21 22  1  0  0  0  0
 21 38  1  0  0  0  0
 22 23  2  0  0  0  0
 22 63  1  0  0  0  0
 23 24  1  0  0  0  0
 24 25  2  0  0  0  0
 24 33  1  0  0  0  0
 25 26  1  0  0  0  0
 26 27  1  0  0  0  0
 26 64  1  0  0  0  0
 26 65  1  0  0  0  0
 27 28  1  0  0  0  0
 27 29  1  0  0  0  0
 27 30  1  0  0  0  0
 28 66  1  0  0  0  0
 28 67  1  0  0  0  0
 28 68  1  0  0  0  0
 29 69  1  0  0  0  0
 29 70  1  0  0  0  0
 29 71  1  0  0  0  0
 30 31  2  0  0  0  0
 30 32  1  0  0  0  0
 32 72  1  0  0  0  0
 33 34  1  0  0  0  0
 34 35  1  0  0  0  0
 34 36  1  0  0  0  0
 34 37  1  0  0  0  0
 35 73  1  0  0  0  0
 35 74  1  0  0  0  0
 35 75  1  0  0  0  0
 36 76  1  0  0  0  0
 36 77  1  0  0  0  0
 36 78  1  0  0  0  0
 37 79  1  0  0  0  0
 37 80  1  0  0  0  0
 37 81  1  0  0  0  0
 38 39  1  0  0  0  0
 39 40  1  0  0  0  0
 39 82  1  0  0  0  0
 39 83  1  0  0  0  0
 40 41  2  0  0  0  0
 40 45  1  0  0  0  0
 41 42  1  0  0  0  0
 41 84  1  0  0  0  0
 42 43  2  0  0  0  0
 42 85  1  0  0  0  0
 43 44  1  0  0  0  0
 43 46  1  0  0  0  0
 44 45  2  0  0  0  0
 44 86  1  0  0  0  0
 46 87  1  0  0  0  0
 46 88  1  0  0  0  0
 46 89  1  0  0  0  0
M  END
>  <DRUGBANK_ID>
DB06346

>  <COMMON_NAME>
Fiboflapon

>  <CAS_NUMBER>
936350-00-4

>  <UNII>
Y1NA96IX3T

>  <SYNONYMS>
Fiboflapon

$$$$
