
 OpenBabel10282417072D

 42 44  0  0  0  0  0  0  0  0999 V2000
   -1.6093    0.3256    0.0000 C   0  0  0  0  0  0  0  0  0  0  0  0
   -1.2737   -0.4281    0.0000 N   0  0  0  0  0  0  0  0  0  0  0  0
   -0.4667   -0.5996    0.0000 C   0  0  0  0  0  0  0  0  0  0  0  0
    0.1464   -0.0476    0.0000 N   0  0  0  0  0  0  0  0  0  0  0  0
   -0.0252    0.7594    0.0000 C   0  0  0  0  0  0  0  0  0  0  0  0
   -0.8098    1.0144    0.0000 C   0  0  0  0  0  0  0  0  0  0  0  0
   -0.9813    1.8213    0.0000 C   0  0  0  0  0  0  0  0  0  0  0  0
   -0.3682    2.3734    0.0000 C   0  0  0  0  0  0  0  0  0  0  0  0
   -0.5398    3.1803    0.0000 I   0  0  0  0  0  0  0  0  0  0  0  0
    0.4164    2.1184    0.0000 C   0  0  0  0  0  0  0  0  0  0  0  0
    0.5879    1.3115    0.0000 C   0  0  0  0  0  0  0  0  0  0  0  0
    1.3725    1.0565    0.0000 F   0  0  0  0  0  0  0  0  0  0  0  0
   -0.3805   -1.4201    0.0000 C   0  0  0  0  0  0  0  0  0  0  0  0
    0.3340   -1.8326    0.0000 C   0  0  0  0  0  0  0  0  0  0  0  0
    0.3340   -2.6576    0.0000 O   0  0  0  0  0  0  0  0  0  0  0  0
    1.0484   -1.4201    0.0000 N   0  0  0  0  0  0  0  0  0  0  0  0
    1.7629   -1.8326    0.0000 O   0  0  0  0  0  0  0  0  0  0  0  0
    2.4774   -1.4201    0.0000 C   0  0  0  0  0  0  0  0  0  0  0  0
    3.1918   -1.8326    0.0000 C   0  0  0  0  0  0  0  0  0  0  0  0
    3.9063   -1.4201    0.0000 O   0  0  0  0  0  0  0  0  0  0  0  0
   -1.1342   -1.7556    0.0000 C   0  0  0  0  0  0  0  0  0  0  0  0
   -1.3891   -2.5402    0.0000 C   0  0  0  0  0  0  0  0  0  0  0  0
   -2.1961   -2.7118    0.0000 C   0  0  0  0  0  0  0  0  0  0  0  0
   -2.7481   -2.0987    0.0000 C   0  0  0  0  0  0  0  0  0  0  0  0
   -2.4932   -1.3141    0.0000 N   0  0  0  0  0  0  0  0  0  0  0  0
   -1.6862   -1.1425    0.0000 C   0  0  0  0  0  0  0  0  0  0  0  0
   -0.9804    1.1913    0.0000 H   0  0  0  0  0  0  0  0  0  0  0  0
   -2.6734    0.4374    0.0000 H   0  0  0  0  0  0  0  0  0  0  0  0
   -2.0445    1.3031    0.0000 H   0  0  0  0  0  0  0  0  0  0  0  0
    1.0827   -0.3518    0.0000 H   0  0  0  0  0  0  0  0  0  0  0  0
   -1.5768    0.3239    0.0000 H   0  0  0  0  0  0  0  0  0  0  0  0
   -1.9628    2.1402    0.0000 H   0  0  0  0  0  0  0  0  0  0  0  0
    1.1834    2.8089    0.0000 H   0  0  0  0  0  0  0  0  0  0  0  0
    1.0484   -0.4356    0.0000 H   0  0  0  0  0  0  0  0  0  0  0  0
    2.4774   -0.3501    0.0000 H   0  0  0  0  0  0  0  0  0  0  0  0
    3.4041   -0.8851    0.0000 H   0  0  0  0  0  0  0  0  0  0  0  0
    3.1918   -2.9026    0.0000 H   0  0  0  0  0  0  0  0  0  0  0  0
    4.1184   -2.3676    0.0000 H   0  0  0  0  0  0  0  0  0  0  0  0
    4.7463   -1.9051    0.0000 H   0  0  0  0  0  0  0  0  0  0  0  0
   -0.6985   -3.3071    0.0000 H   0  0  0  0  0  0  0  0  0  0  0  0
   -2.5150   -3.6933    0.0000 H   0  0  0  0  0  0  0  0  0  0  0  0
   -3.7575   -2.3133    0.0000 H   0  0  0  0  0  0  0  0  0  0  0  0
  1  2  1  0  0  0  0
  1 27  1  0  0  0  0
  1 28  1  0  0  0  0
  1 29  1  0  0  0  0
  2  3  1  0  0  0  0
  2 26  1  0  0  0  0
  3  4  1  0  0  0  0
  3 13  2  0  0  0  0
  4  5  1  0  0  0  0
  4 30  1  0  0  0  0
  5  6  2  0  0  0  0
  5 11  1  0  0  0  0
  6  7  1  0  0  0  0
  6 31  1  0  0  0  0
  7  8  2  0  0  0  0
  7 32  1  0  0  0  0
  8  9  1  0  0  0  0
  8 10  1  0  0  0  0
 10 11  2  0  0  0  0
 10 33  1  0  0  0  0
 11 12  1  0  0  0  0
 13 14  1  0  0  0  0
 13 21  1  0  0  0  0
 14 15  2  0  0  0  0
 14 16  1  0  0  0  0
 16 17  1  0  0  0  0
 16 34  1  0  0  0  0
 17 18  1  0  0  0  0
 18 19  1  0  0  0  0
 18 35  1  0  0  0  0
 18 36  1  0  0  0  0
 19 20  1  0  0  0  0
 19 37  1  0  0  0  0
 19 38  1  0  0  0  0
 20 39  1  0  0  0  0
 21 22  2  0  0  0  0
 21 26  1  0  0  0  0
 22 23  1  0  0  0  0
 22 40  1  0  0  0  0
 23 24  2  0  0  0  0
 23 41  1  0  0  0  0
 24 25  1  0  0  0  0
 24 42  1  0  0  0  0
 25 26  2  0  0  0  0
M  END
>  <DRUGBANK_ID>
DB18102

>  <COMMON_NAME>
Nedometinib

>  <CAS_NUMBER>
2252314-46-6

>  <UNII>
K5T4I78IYZ

>  <SYNONYMS>
2-((2-fluoro-4-iodophenyl)amino)-n-(2-hydroxyethoxy)-1-methyl-1h-pyrrolo(2,3-b)pyridine-3-carboxamide

$$$$
