
 OpenBabel10282417072D

 42 45  0  0  0  0  0  0  0  0999 V2000
    2.2413    2.7643    0.0000 C   0  0  0  0  0  0  0  0  0  0  0  0
    2.9557    2.3518    0.0000 C   0  0  0  0  0  0  0  0  0  0  0  0
    2.9557    1.5268    0.0000 C   0  0  0  0  0  0  0  0  0  0  0  0
    2.2413    1.1143    0.0000 C   0  0  0  0  0  0  0  0  0  0  0  0
    1.5268    1.5268    0.0000 C   0  0  0  0  0  0  0  0  0  0  0  0
    1.5268    2.3518    0.0000 C   0  0  0  0  0  0  0  0  0  0  0  0
    2.2413    0.2893    0.0000 C   0  0  3  0  0  0  0  0  0  0  0  0
    1.4163    0.2893    0.0000 C   0  0  0  0  0  0  0  0  0  0  0  0
    1.0038   -0.4252    0.0000 C   0  0  0  0  0  0  0  0  0  0  0  0
    0.1788   -0.4252    0.0000 C   0  0  0  0  0  0  0  0  0  0  0  0
   -0.2337    0.2893    0.0000 C   0  0  0  0  0  0  0  0  0  0  0  0
    0.1788    1.0038    0.0000 C   0  0  0  0  0  0  0  0  0  0  0  0
    1.0038    1.0038    0.0000 C   0  0  0  0  0  0  0  0  0  0  0  0
   -1.0587    0.2893    0.0000 F   0  0  0  0  0  0  0  0  0  0  0  0
    3.0663    0.2893    0.0000 C   0  0  0  0  0  0  0  0  0  0  0  0
    3.4788    1.0038    0.0000 C   0  0  0  0  0  0  0  0  0  0  0  0
    4.3038    1.0038    0.0000 C   0  0  0  0  0  0  0  0  0  0  0  0
    4.7163    0.2893    0.0000 C   0  0  0  0  0  0  0  0  0  0  0  0
    4.3038   -0.4252    0.0000 C   0  0  0  0  0  0  0  0  0  0  0  0
    3.4788   -0.4252    0.0000 C   0  0  0  0  0  0  0  0  0  0  0  0
    3.3072   -1.2322    0.0000 F   0  0  0  0  0  0  0  0  0  0  0  0
    2.2413   -0.5357    0.0000 N   0  0  0  0  0  0  0  0  0  0  0  0
    1.5738   -1.0206    0.0000 C   0  0  0  0  0  0  0  0  0  0  0  0
    1.8288   -1.8053    0.0000 C   0  0  0  0  0  0  0  0  0  0  0  0
    2.6538   -1.8053    0.0000 N   0  0  0  0  0  0  0  0  0  0  0  0
    2.9087   -1.0206    0.0000 C   0  0  0  0  0  0  0  0  0  0  0  0
    2.2413    3.7963    0.0000 H   0  0  0  0  0  0  0  0  0  0  0  0
    3.8494    2.8678    0.0000 H   0  0  0  0  0  0  0  0  0  0  0  0
    3.8494    1.0108    0.0000 H   0  0  0  0  0  0  0  0  0  0  0  0
    0.6331    1.0108    0.0000 H   0  0  0  0  0  0  0  0  0  0  0  0
    0.6331    2.8678    0.0000 H   0  0  0  0  0  0  0  0  0  0  0  0
    1.5198   -1.3189    0.0000 H   0  0  0  0  0  0  0  0  0  0  0  0
   -0.3372   -1.3189    0.0000 H   0  0  0  0  0  0  0  0  0  0  0  0
   -0.3372    1.8975    0.0000 H   0  0  0  0  0  0  0  0  0  0  0  0
    1.5198    1.8975    0.0000 H   0  0  0  0  0  0  0  0  0  0  0  0
    2.9628    1.8975    0.0000 H   0  0  0  0  0  0  0  0  0  0  0  0
    4.8198    1.8975    0.0000 H   0  0  0  0  0  0  0  0  0  0  0  0
    5.7483    0.2893    0.0000 H   0  0  0  0  0  0  0  0  0  0  0  0
    4.8198   -1.3189    0.0000 H   0  0  0  0  0  0  0  0  0  0  0  0
    0.5923   -0.7017    0.0000 H   0  0  0  0  0  0  0  0  0  0  0  0
    1.2222   -2.6402    0.0000 H   0  0  0  0  0  0  0  0  0  0  0  0
    3.8902   -0.7017    0.0000 H   0  0  0  0  0  0  0  0  0  0  0  0
  1  2  2  0  0  0  0
  1  6  1  0  0  0  0
  1 27  1  0  0  0  0
  2  3  1  0  0  0  0
  2 28  1  0  0  0  0
  3  4  2  0  0  0  0
  3 29  1  0  0  0  0
  4  5  1  0  0  0  0
  4  7  1  0  0  0  0
  5  6  2  0  0  0  0
  5 30  1  0  0  0  0
  6 31  1  0  0  0  0
  7  8  1  0  0  0  0
  7 15  1  0  0  0  0
  7 22  1  0  0  0  0
  8  9  2  0  0  0  0
  8 13  1  0  0  0  0
  9 10  1  0  0  0  0
  9 32  1  0  0  0  0
 10 11  2  0  0  0  0
 10 33  1  0  0  0  0
 11 12  1  0  0  0  0
 11 14  1  0  0  0  0
 12 13  2  0  0  0  0
 12 34  1  0  0  0  0
 13 35  1  0  0  0  0
 15 16  2  0  0  0  0
 15 20  1  0  0  0  0
 16 17  1  0  0  0  0
 16 36  1  0  0  0  0
 17 18  2  0  0  0  0
 17 37  1  0  0  0  0
 18 19  1  0  0  0  0
 18 38  1  0  0  0  0
 19 20  2  0  0  0  0
 19 39  1  0  0  0  0
 20 21  1  0  0  0  0
 22 23  1  0  0  0  0
 22 26  1  0  0  0  0
 23 24  2  0  0  0  0
 23 40  1  0  0  0  0
 24 25  1  0  0  0  0
 24 41  1  0  0  0  0
 25 26  2  0  0  0  0
 26 42  1  0  0  0  0
M  END
>  <DRUGBANK_ID>
DB13425

>  <COMMON_NAME>
Flutrimazole

>  <CAS_NUMBER>
119006-77-8

>  <UNII>
776S0UP252

>  <SYNONYMS>
flutrimazol; Flutrimazole

$$$$
