
 OpenBabel10282417072D

 33 36  0  0  0  0  0  0  0  0999 V2000
   -1.7293    0.5674    0.0000 O   0  0  0  0  0  0  0  0  0  0  0  0
   -1.4743   -0.2172    0.0000 C   0  0  0  0  0  0  0  0  0  0  0  0
   -2.0264   -0.8304    0.0000 C   0  0  0  0  0  0  0  0  0  0  0  0
   -1.7714   -1.6150    0.0000 C   0  0  0  0  0  0  0  0  0  0  0  0
   -0.9644   -1.7864    0.0000 N   0  0  0  0  0  0  0  0  0  0  0  0
   -0.4124   -1.1733    0.0000 C   0  0  0  0  0  0  0  0  0  0  0  0
    0.4126   -1.1733    0.0000 N   0  0  0  0  0  0  0  0  0  0  0  0
    0.9645   -1.7864    0.0000 C   0  0  0  0  0  0  0  0  0  0  0  0
    0.7096   -2.5711    0.0000 N   0  0  0  0  0  0  0  0  0  0  0  0
    1.7715   -1.6150    0.0000 N   0  0  0  0  0  0  0  0  0  0  0  0
    2.0264   -0.8304    0.0000 C   0  0  0  0  0  0  0  0  0  0  0  0
    1.4744   -0.2172    0.0000 C   0  0  0  0  0  0  0  0  0  0  0  0
    0.6674   -0.3887    0.0000 C   0  0  0  0  0  0  0  0  0  0  0  0
    0.0000    0.0960    0.0000 C   0  0  0  0  0  0  0  0  0  0  0  0
   -0.6673   -0.3887    0.0000 C   0  0  0  0  0  0  0  0  0  0  0  0
    0.0000    0.9210    0.0000 C   0  0  0  0  0  0  0  0  0  0  0  0
   -0.7144    1.3336    0.0000 C   0  0  0  0  0  0  0  0  0  0  0  0
   -0.7144    2.1586    0.0000 C   0  0  0  0  0  0  0  0  0  0  0  0
    0.0000    2.5711    0.0000 N   0  0  0  0  0  0  0  0  0  0  0  0
    0.7145    2.1586    0.0000 C   0  0  0  0  0  0  0  0  0  0  0  0
    0.7145    1.3336    0.0000 N   0  0  0  0  0  0  0  0  0  0  0  0
    1.4289    2.5711    0.0000 N   0  0  0  0  0  0  0  0  0  0  0  0
   -1.1024    1.2638    0.0000 H   0  0  0  0  0  0  0  0  0  0  0  0
   -3.0359   -0.6159    0.0000 H   0  0  0  0  0  0  0  0  0  0  0  0
   -2.4619   -2.3820    0.0000 H   0  0  0  0  0  0  0  0  0  0  0  0
   -0.2534   -2.7759    0.0000 H   0  0  0  0  0  0  0  0  0  0  0  0
    1.3684   -3.3027    0.0000 H   0  0  0  0  0  0  0  0  0  0  0  0
    3.0359   -0.6159    0.0000 H   0  0  0  0  0  0  0  0  0  0  0  0
    1.7934    0.7643    0.0000 H   0  0  0  0  0  0  0  0  0  0  0  0
   -1.6082    0.8177    0.0000 H   0  0  0  0  0  0  0  0  0  0  0  0
   -1.6081    2.6746    0.0000 H   0  0  0  0  0  0  0  0  0  0  0  0
    2.2815    2.0789    0.0000 H   0  0  0  0  0  0  0  0  0  0  0  0
    1.4289    3.5556    0.0000 H   0  0  0  0  0  0  0  0  0  0  0  0
  1 23  1  0  0  0  0
  2  1  1  0  0  0  0
  2  3  1  0  0  0  0
  2 15  2  0  0  0  0
  3  4  2  0  0  0  0
  3 24  1  0  0  0  0
  4  5  1  0  0  0  0
  4 25  1  0  0  0  0
  6  5  2  0  0  0  0
  6  7  1  0  0  0  0
  8  7  1  0  0  0  0
  8  9  1  0  0  0  0
  8 10  2  0  0  0  0
  9 26  1  0  0  0  0
  9 27  1  0  0  0  0
 11 10  1  0  0  0  0
 11 12  2  0  0  0  0
 11 28  1  0  0  0  0
 12 13  1  0  0  0  0
 12 29  1  0  0  0  0
 13  7  1  0  0  0  0
 13 14  2  0  0  0  0
 15  6  1  0  0  0  0
 15 14  1  0  0  0  0
 16 14  1  0  0  0  0
 16 17  1  0  0  0  0
 16 21  2  0  0  0  0
 17 30  1  0  0  0  0
 18 17  2  0  0  0  0
 18 19  1  0  0  0  0
 18 31  1  0  0  0  0
 20 19  2  0  0  0  0
 20 21  1  0  0  0  0
 20 22  1  0  0  0  0
 22 32  1  0  0  0  0
 22 33  1  0  0  0  0
M  END
>  <DRUGBANK_ID>
DB08694

>  <COMMON_NAME>
Variolin B

$$$$
