
 OpenBabel10282417072D

 32 32  0  0  0  0  0  0  0  0999 V2000
    1.4289    0.2293    0.0000 S   0  0  0  0  0  0  0  0  0  0  0  0
    2.1434   -2.6582    0.0000 F   0  0  0  0  0  0  0  0  0  0  0  0
    1.0164   -2.9601    0.0000 F   0  0  0  0  0  0  0  0  0  0  0  0
    1.8414   -1.5312    0.0000 F   0  0  0  0  0  0  0  0  0  0  0  0
   -2.1434   -2.6582    0.0000 F   0  0  0  0  0  0  0  0  0  0  0  0
   -1.0165   -2.9601    0.0000 F   0  0  0  0  0  0  0  0  0  0  0  0
   -1.8415   -1.5312    0.0000 F   0  0  0  0  0  0  0  0  0  0  0  0
    2.1434    1.4668    0.0000 O   0  0  0  0  0  0  0  0  0  0  0  0
    0.0000    0.2293    0.0000 N   0  0  0  0  0  0  0  0  0  0  0  0
    1.4289    2.7044    0.0000 N   0  0  0  0  0  0  0  0  0  0  0  0
   -0.7145    2.2919    0.0000 N   0  0  0  0  0  0  0  0  0  0  0  0
    0.7144    0.6418    0.0000 C   0  0  1  0  0  0  0  0  0  0  0  0
    0.0000   -0.5956    0.0000 C   0  0  0  0  0  0  0  0  0  0  0  0
    0.7144    1.4668    0.0000 C   0  0  3  0  0  0  0  0  0  0  0  0
    0.7144   -1.8331    0.0000 C   0  0  0  0  0  0  0  0  0  0  0  0
   -0.7145   -1.8331    0.0000 C   0  0  0  0  0  0  0  0  0  0  0  0
   -0.7145   -1.0081    0.0000 C   0  0  0  0  0  0  0  0  0  0  0  0
    0.7144   -1.0081    0.0000 C   0  0  0  0  0  0  0  0  0  0  0  0
    0.0000   -2.2456    0.0000 C   0  0  0  0  0  0  0  0  0  0  0  0
    1.4289   -2.2456    0.0000 C   0  0  0  0  0  0  0  0  0  0  0  0
   -1.4290   -2.2456    0.0000 C   0  0  0  0  0  0  0  0  0  0  0  0
    1.4289    1.8793    0.0000 C   0  0  0  0  0  0  0  0  0  0  0  0
    0.0000    1.8793    0.0000 C   0  0  0  0  0  0  0  0  0  0  0  0
   -0.4430    0.4851    0.0000 H   0  0  0  0  0  0  0  0  0  0  0  0
    1.8719    0.4851    0.0000 H   0  0  0  0  0  0  0  0  0  0  0  0
    1.8719    2.9601    0.0000 H   0  0  0  0  0  0  0  0  0  0  0  0
    0.9859    2.9601    0.0000 H   0  0  0  0  0  0  0  0  0  0  0  0
    0.7144   -0.4282    0.0000 H   0  0  0  0  0  0  0  0  0  0  0  0
    1.6410    0.9318    0.0000 H   0  0  0  0  0  0  0  0  0  0  0  0
   -1.6082   -0.4921    0.0000 H   0  0  0  0  0  0  0  0  0  0  0  0
    1.6081   -0.4921    0.0000 H   0  0  0  0  0  0  0  0  0  0  0  0
    0.0000   -3.2776    0.0000 H   0  0  0  0  0  0  0  0  0  0  0  0
  1 12  1  0  0  0  0
  1 25  1  0  0  0  0
  2 20  1  0  0  0  0
  3 20  1  0  0  0  0
  4 20  1  0  0  0  0
  5 21  1  0  0  0  0
  6 21  1  0  0  0  0
  7 21  1  0  0  0  0
  8 22  2  0  0  0  0
  9 13  1  0  0  0  0
  9 24  1  0  0  0  0
 10 22  1  0  0  0  0
 10 26  1  0  0  0  0
 10 27  1  0  0  0  0
 11 23  3  0  0  0  0
 12  9  1  0  0  0  0
 12 14  1  0  0  0  0
 12 28  1  6  0  0  0
 13 17  2  0  0  0  0
 13 18  1  0  0  0  0
 14 22  1  0  0  0  0
 14 23  1  0  0  0  0
 14 29  1  0  0  0  0
 15 18  2  0  0  0  0
 15 19  1  0  0  0  0
 15 20  1  0  0  0  0
 16 17  1  0  0  0  0
 16 19  2  0  0  0  0
 16 21  1  0  0  0  0
 17 30  1  0  0  0  0
 18 31  1  0  0  0  0
 19 32  1  0  0  0  0
M  END
>  <DRUGBANK_ID>
DB06913

>  <COMMON_NAME>
(3R)-3-[3,5-Bis(trifluoromethyl)anilino]-2-cyano-3-sulfanylpropanamide

$$$$
