
 OpenBabel10282417072D

 31 30  0  0  1  0  0  0  0  0999 V2000
    2.9980    2.5559    0.0000 C   0  0  0  0  0  0  0  0  0  0  0  0
    3.7125    2.1434    0.0000 C   0  0  0  0  0  0  0  0  0  0  0  0
    4.4270    2.5559    0.0000 C   0  0  0  0  0  0  0  0  0  0  0  0
    5.1414    2.1434    0.0000 C   0  0  1  0  0  0  0  0  0  0  0  0
    5.1414    1.3184    0.0000 C   0  0  0  0  0  0  0  0  0  0  0  0
    5.8559    2.5559    0.0000 C   0  0  0  0  0  0  0  0  0  0  0  0
    6.5704    2.1434    0.0000 C   0  0  1  0  0  0  0  0  0  0  0  0
    7.2849    2.5559    0.0000 C   0  0  0  0  0  0  0  0  0  0  0  0
    7.9993    2.1434    0.0000 C   0  0  0  0  0  0  0  0  0  0  0  0
    8.7138    2.5559    0.0000 O   0  0  0  0  0  0  0  0  0  0  0  0
    7.9993    1.3184    0.0000 O   0  0  0  0  0  0  0  0  0  0  0  0
    6.5704    1.3184    0.0000 N   0  0  0  0  0  0  0  0  0  0  0  0
    2.9980    3.6259    0.0000 H   0  0  0  0  0  0  0  0  0  0  0  0
    2.0714    2.0209    0.0000 H   0  0  0  0  0  0  0  0  0  0  0  0
    2.0713    3.0909    0.0000 H   0  0  0  0  0  0  0  0  0  0  0  0
    3.7125    1.0734    0.0000 H   0  0  0  0  0  0  0  0  0  0  0  0
    4.6391    1.6084    0.0000 H   0  0  0  0  0  0  0  0  0  0  0  0
    4.4270    3.6259    0.0000 H   0  0  0  0  0  0  0  0  0  0  0  0
    5.3537    3.0909    0.0000 H   0  0  0  0  0  0  0  0  0  0  0  0
    4.2147    1.6084    0.0000 H   0  0  0  0  0  0  0  0  0  0  0  0
    4.2148    0.7834    0.0000 H   0  0  0  0  0  0  0  0  0  0  0  0
    6.0680    0.7834    0.0000 H   0  0  0  0  0  0  0  0  0  0  0  0
    5.1414    0.2484    0.0000 H   0  0  0  0  0  0  0  0  0  0  0  0
    5.8559    3.6259    0.0000 H   0  0  0  0  0  0  0  0  0  0  0  0
    6.7825    3.0909    0.0000 H   0  0  0  0  0  0  0  0  0  0  0  0
    5.6438    1.6084    0.0000 H   0  0  0  0  0  0  0  0  0  0  0  0
    7.2849    3.6259    0.0000 H   0  0  0  0  0  0  0  0  0  0  0  0
    8.2116    3.0909    0.0000 H   0  0  0  0  0  0  0  0  0  0  0  0
    7.1878    0.8499    0.0000 H   0  0  0  0  0  0  0  0  0  0  0  0
    5.6871    0.8084    0.0000 H   0  0  0  0  0  0  0  0  0  0  0  0
    7.4537    0.8084    0.0000 H   0  0  0  0  0  0  0  0  0  0  0  0
  1  2  1  0  0  0  0
  1 13  1  0  0  0  0
  1 14  1  0  0  0  0
  1 15  1  0  0  0  0
  2  3  1  0  0  0  0
  2 16  1  0  0  0  0
  2 17  1  0  0  0  0
  3  4  1  0  0  0  0
  3 18  1  0  0  0  0
  3 19  1  0  0  0  0
  4  5  1  0  0  0  0
  4  6  1  0  0  0  0
  4 20  1  1  0  0  0
  5 21  1  0  0  0  0
  5 22  1  0  0  0  0
  5 23  1  0  0  0  0
  6  7  1  0  0  0  0
  6 24  1  0  0  0  0
  6 25  1  0  0  0  0
  7  8  1  0  0  0  0
  7 12  1  0  0  0  0
  7 26  1  6  0  0  0
  8  9  1  0  0  0  0
  8 27  1  0  0  0  0
  8 28  1  0  0  0  0
  9 10  2  0  0  0  0
  9 11  1  0  0  0  0
 11 29  1  0  0  0  0
 12 30  1  0  0  0  0
 12 31  1  0  0  0  0
M  END
>  <DRUGBANK_ID>
DB12105

>  <COMMON_NAME>
Imagabalin

>  <CAS_NUMBER>
610300-07-7

>  <UNII>
NDG6931B7H

>  <SYNONYMS>
Imagabalin

$$$$
