
 OpenBabel10282417072D

 26 25  0  0  1  0  0  0  0  0999 V2000
    4.0954    0.7145    0.0000 C   0  0  0  0  0  0  0  0  0  0  0  0
    3.3809    1.1270    0.0000 C   0  0  0  0  0  0  0  0  0  0  0  0
    1.9520    1.1270    0.0000 C   0  0  0  0  0  0  0  0  0  0  0  0
    1.2375    0.7145    0.0000 C   0  0  1  0  0  0  0  0  0  0  0  0
    0.5230    1.1270    0.0000 C   0  0  0  0  0  0  0  0  0  0  0  0
    4.8099    1.1270    0.0000 B   0  5  0  0  0  0  0  0  0  0  0  0
    1.2375   -0.1105    0.0000 N   0  0  0  0  0  0  0  0  0  0  0  0
   -0.1914    0.7145    0.0000 O   0  0  0  0  0  0  0  0  0  0  0  0
    0.5230    1.9520    0.0000 O   0  0  0  0  0  0  0  0  0  0  0  0
    5.5243    1.5395    0.0000 O   0  0  0  0  0  0  0  0  0  0  0  0
    5.2224    0.4125    0.0000 O   0  0  0  0  0  0  0  0  0  0  0  0
    4.3974    1.8414    0.0000 O   0  0  0  0  0  0  0  0  0  0  0  0
    2.6664    0.7145    0.0000 S   0  0  0  0  0  0  0  0  0  0  0  0
    1.2375    1.5395    0.0000 H   0  0  0  0  0  0  0  0  0  0  0  0
    4.0954   -0.3555    0.0000 H   0  0  0  0  0  0  0  0  0  0  0  0
    5.0220    0.1795    0.0000 H   0  0  0  0  0  0  0  0  0  0  0  0
    3.3809    2.1970    0.0000 H   0  0  0  0  0  0  0  0  0  0  0  0
    2.4543    1.6620    0.0000 H   0  0  0  0  0  0  0  0  0  0  0  0
    1.9520    2.1970    0.0000 H   0  0  0  0  0  0  0  0  0  0  0  0
    2.8787    1.6620    0.0000 H   0  0  0  0  0  0  0  0  0  0  0  0
    0.3542   -0.6205    0.0000 H   0  0  0  0  0  0  0  0  0  0  0  0
    2.1208   -0.6205    0.0000 H   0  0  0  0  0  0  0  0  0  0  0  0
    1.3345    2.4205    0.0000 H   0  0  0  0  0  0  0  0  0  0  0  0
    6.3644    1.0545    0.0000 H   0  0  0  0  0  0  0  0  0  0  0  0
    4.7374   -0.4275    0.0000 H   0  0  0  0  0  0  0  0  0  0  0  0
    4.8824    2.6815    0.0000 H   0  0  0  0  0  0  0  0  0  0  0  0
  1 15  1  0  0  0  0
  1 16  1  0  0  0  0
  2  1  1  0  0  0  0
  2 17  1  0  0  0  0
  2 18  1  0  0  0  0
  3 19  1  0  0  0  0
  3 20  1  0  0  0  0
  4  3  1  0  0  0  0
  4  7  1  0  0  0  0
  4 14  1  1  0  0  0
  5  4  1  0  0  0  0
  6  1  1  0  0  0  0
  7 21  1  0  0  0  0
  7 22  1  0  0  0  0
  8  5  2  0  0  0  0
  9  5  1  0  0  0  0
  9 23  1  0  0  0  0
 10  6  1  0  0  0  0
 10 24  1  0  0  0  0
 11  6  1  0  0  0  0
 11 25  1  0  0  0  0
 12  6  1  0  0  0  0
 12 26  1  0  0  0  0
 13  2  1  0  0  0  0
 13  3  1  0  0  0  0
M  CHG  1   6  -1
M  END
>  <DRUGBANK_ID>
DB03731

>  <SECONDARY_ACCESSION_NUMBERS>
EXPT02831

>  <COMMON_NAME>
S-2-(Boronoethyl)-L-Cysteine

$$$$
