
 OpenBabel10282417072D

 19 19  0  0  0  0  0  0  0  0999 V2000
    0.7111    0.4184    0.0000 C   0  0  0  0  0  0  0  0  0  0  0  0
    0.0000    0.8325    0.0000 C   0  0  0  0  0  0  0  0  0  0  0  0
    0.7111   -0.4184    0.0000 C   0  0  0  0  0  0  0  0  0  0  0  0
   -0.7111    0.4184    0.0000 C   0  0  0  0  0  0  0  0  0  0  0  0
   -0.7111   -0.4184    0.0000 C   0  0  0  0  0  0  0  0  0  0  0  0
    0.0000   -0.8366    0.0000 C   0  0  0  0  0  0  0  0  0  0  0  0
    1.4180    0.8325    0.0000 Cl  0  0  0  0  0  0  0  0  0  0  0  0
    0.0000    1.6691    0.0000 O   0  0  0  0  0  0  0  0  0  0  0  0
   -1.4180   -0.8366    0.0000 C   0  0  0  0  0  0  0  0  0  0  0  0
    0.0000   -1.6691    0.0000 C   0  0  0  0  0  0  0  0  0  0  0  0
    1.6069   -0.9308    0.0000 H   0  0  0  0  0  0  0  0  0  0  0  0
   -1.6058    0.9327    0.0000 H   0  0  0  0  0  0  0  0  0  0  0  0
    0.8115    2.1376    0.0000 H   0  0  0  0  0  0  0  0  0  0  0  0
   -2.3503   -0.3115    0.0000 H   0  0  0  0  0  0  0  0  0  0  0  0
   -1.4066   -1.9065    0.0000 H   0  0  0  0  0  0  0  0  0  0  0  0
   -2.3389   -1.3814    0.0000 H   0  0  0  0  0  0  0  0  0  0  0  0
   -0.9266   -2.2041    0.0000 H   0  0  0  0  0  0  0  0  0  0  0  0
    0.9266   -2.2041    0.0000 H   0  0  0  0  0  0  0  0  0  0  0  0
    0.0000   -2.7391    0.0000 H   0  0  0  0  0  0  0  0  0  0  0  0
  2  1  2  0  0  0  0
  3  1  1  0  0  0  0
  3 11  1  0  0  0  0
  4  2  1  0  0  0  0
  4  5  2  0  0  0  0
  4 12  1  0  0  0  0
  5  6  1  0  0  0  0
  6  3  2  0  0  0  0
  7  1  1  0  0  0  0
  8  2  1  0  0  0  0
  8 13  1  0  0  0  0
  9  5  1  0  0  0  0
  9 14  1  0  0  0  0
  9 15  1  0  0  0  0
  9 16  1  0  0  0  0
 10  6  1  0  0  0  0
 10 17  1  0  0  0  0
 10 18  1  0  0  0  0
 10 19  1  0  0  0  0
M  END
>  <DRUGBANK_ID>
DB15658

>  <COMMON_NAME>
2-chloro-4,5-dimethylphenol

>  <CAS_NUMBER>
1124-04-5

>  <UNII>
601F79M480

>  <SYNONYMS>
2-Chloro-4,5-dimethylphenol; 2-Chloro-4,5-xylenol; 3,4-Dimethyl-6-chlorophenol; 6-Chloro-3,4-xylenol; Banol phenol

$$$$
