MDX
 OpenBabel10282417072D

 36 35  0  0  0  0  0  0  0  0999 V2000
   -4.4121    0.2639    0.0000 O   0  0  0  0  0  0  0  0  0  0  0  0
   -3.6976   -0.1486    0.0000 C   0  0  0  0  0  0  0  0  0  0  0  0
   -3.6976   -0.9737    0.0000 O   0  0  0  0  0  0  0  0  0  0  0  0
   -2.9831    0.2639    0.0000 C   0  0  0  0  0  0  0  0  0  0  0  0
   -2.2686   -0.1486    0.0000 C   0  0  0  0  0  0  0  0  0  0  0  0
   -1.5540    0.2639    0.0000 C   0  0  0  0  0  0  0  0  0  0  0  0
   -0.8395   -0.1486    0.0000 C   0  0  0  0  0  0  0  0  0  0  0  0
   -0.1250    0.2639    0.0000 C   0  0  0  0  0  0  0  0  0  0  0  0
    0.5895   -0.1486    0.0000 C   0  0  0  0  0  0  0  0  0  0  0  0
    1.3041    0.2639    0.0000 C   0  0  0  0  0  0  0  0  0  0  0  0
    2.0186   -0.1486    0.0000 C   0  0  0  0  0  0  0  0  0  0  0  0
    2.7331    0.2639    0.0000 C   0  0  0  0  0  0  0  0  0  0  0  0
    3.4477   -0.1486    0.0000 C   0  0  0  0  0  0  0  0  0  0  0  0
    4.1622    0.2639    0.0000 S   0  0  0  0  0  0  0  0  0  0  0  0
   -4.5091   -1.4422    0.0000 H   0  0  0  0  0  0  0  0  0  0  0  0
   -2.9831    1.3339    0.0000 H   0  0  0  0  0  0  0  0  0  0  0  0
   -2.0565    0.7989    0.0000 H   0  0  0  0  0  0  0  0  0  0  0  0
   -2.2686   -1.2186    0.0000 H   0  0  0  0  0  0  0  0  0  0  0  0
   -1.3420   -0.6837    0.0000 H   0  0  0  0  0  0  0  0  0  0  0  0
   -1.5540    1.3339    0.0000 H   0  0  0  0  0  0  0  0  0  0  0  0
   -0.6273    0.7989    0.0000 H   0  0  0  0  0  0  0  0  0  0  0  0
   -0.8395   -1.2186    0.0000 H   0  0  0  0  0  0  0  0  0  0  0  0
    0.0871   -0.6836    0.0000 H   0  0  0  0  0  0  0  0  0  0  0  0
   -0.1250    1.3339    0.0000 H   0  0  0  0  0  0  0  0  0  0  0  0
    0.8016    0.7989    0.0000 H   0  0  0  0  0  0  0  0  0  0  0  0
    0.5895   -1.2186    0.0000 H   0  0  0  0  0  0  0  0  0  0  0  0
    1.5161   -0.6837    0.0000 H   0  0  0  0  0  0  0  0  0  0  0  0
    1.3041    1.3339    0.0000 H   0  0  0  0  0  0  0  0  0  0  0  0
    2.2308    0.7989    0.0000 H   0  0  0  0  0  0  0  0  0  0  0  0
    2.0186   -1.2186    0.0000 H   0  0  0  0  0  0  0  0  0  0  0  0
    2.9452   -0.6836    0.0000 H   0  0  0  0  0  0  0  0  0  0  0  0
    2.7331    1.3339    0.0000 H   0  0  0  0  0  0  0  0  0  0  0  0
    3.6597    0.7990    0.0000 H   0  0  0  0  0  0  0  0  0  0  0  0
    3.4477   -1.2186    0.0000 H   0  0  0  0  0  0  0  0  0  0  0  0
    4.3744   -0.6836    0.0000 H   0  0  0  0  0  0  0  0  0  0  0  0
    5.3400   -0.4161    0.0000 H   0  0  0  0  0  0  0  0  0  0  0  0
  1  2  2  0  0  0  0
  2  4  1  0  0  0  0
  2  3  1  0  0  0  0
  3 15  1  0  0  0  0
  4  5  1  0  0  0  0
  4 16  1  0  0  0  0
  4 17  1  0  0  0  0
  5  6  1  0  0  0  0
  5 18  1  0  0  0  0
  5 19  1  0  0  0  0
  6  7  1  0  0  0  0
  6 20  1  0  0  0  0
  6 21  1  0  0  0  0
  7  8  1  0  0  0  0
  7 22  1  0  0  0  0
  7 23  1  0  0  0  0
  8  9  1  0  0  0  0
  8 24  1  0  0  0  0
  8 25  1  0  0  0  0
  9 10  1  0  0  0  0
  9 26  1  0  0  0  0
  9 27  1  0  0  0  0
 10 11  1  0  0  0  0
 10 28  1  0  0  0  0
 10 29  1  0  0  0  0
 11 12  1  0  0  0  0
 11 30  1  0  0  0  0
 11 31  1  0  0  0  0
 12 13  1  0  0  0  0
 12 32  1  0  0  0  0
 12 33  1  0  0  0  0
 13 14  1  0  0  0  0
 13 34  1  0  0  0  0
 13 35  1  0  0  0  0
 14 36  1  0  0  0  0
M  END
>  <DRUGBANK_ID>
DB08171

>  <COMMON_NAME>
11-MERCAPTOUNDECANOIC ACID

$$$$
