BIP
 OpenBabel10282417072D

 24 24  0  0  0  0  0  0  0  0999 V2000
    1.5808    1.1185    0.0000 C   0  0  0  0  0  0  0  0  0  0  0  0
    1.5808    1.9435    0.0000 O   0  0  0  0  0  0  0  0  0  0  0  0
    2.2953    0.7060    0.0000 O   0  0  0  0  0  0  0  0  0  0  0  0
    0.8663    0.7060    0.0000 C   0  0  2  0  0  0  0  0  0  0  0  0
    0.1518    1.1185    0.0000 C   0  0  0  0  0  0  0  0  0  0  0  0
   -0.5626    0.7060    0.0000 I   0  0  0  0  0  0  0  0  0  0  0  0
    0.8663   -0.1190    0.0000 C   0  0  0  0  0  0  0  0  0  0  0  0
    0.1518   -0.5315    0.0000 C   0  0  0  0  0  0  0  0  0  0  0  0
    0.1518   -1.3565    0.0000 C   0  0  0  0  0  0  0  0  0  0  0  0
   -0.5626   -1.7690    0.0000 C   0  0  0  0  0  0  0  0  0  0  0  0
   -1.2771   -1.3565    0.0000 C   0  0  0  0  0  0  0  0  0  0  0  0
   -1.2771   -0.5315    0.0000 C   0  0  0  0  0  0  0  0  0  0  0  0
   -0.5626   -0.1190    0.0000 C   0  0  0  0  0  0  0  0  0  0  0  0
    0.8663    1.2899    0.0000 H   0  0  0  0  0  0  0  0  0  0  0  0
    2.2953   -0.2310    0.0000 H   0  0  0  0  0  0  0  0  0  0  0  0
    0.1518    2.1885    0.0000 H   0  0  0  0  0  0  0  0  0  0  0  0
   -0.7749    1.6535    0.0000 H   0  0  0  0  0  0  0  0  0  0  0  0
    1.7929   -0.6540    0.0000 H   0  0  0  0  0  0  0  0  0  0  0  0
    0.8663   -1.1890    0.0000 H   0  0  0  0  0  0  0  0  0  0  0  0
    1.0455   -1.8725    0.0000 H   0  0  0  0  0  0  0  0  0  0  0  0
   -0.5626   -2.8010    0.0000 H   0  0  0  0  0  0  0  0  0  0  0  0
   -2.1708   -1.8725    0.0000 H   0  0  0  0  0  0  0  0  0  0  0  0
   -2.1708   -0.0155    0.0000 H   0  0  0  0  0  0  0  0  0  0  0  0
   -0.5626    0.9130    0.0000 H   0  0  0  0  0  0  0  0  0  0  0  0
  1  2  2  0  0  0  0
  1  3  1  0  0  0  0
  1  4  1  0  0  0  0
  3 15  1  0  0  0  0
  4  5  1  0  0  0  0
  4  7  1  0  0  0  0
  4 14  1  6  0  0  0
  5  6  1  0  0  0  0
  5 16  1  0  0  0  0
  5 17  1  0  0  0  0
  7  8  1  0  0  0  0
  7 18  1  0  0  0  0
  7 19  1  0  0  0  0
  8  9  2  0  0  0  0
  8 13  1  0  0  0  0
  9 10  1  0  0  0  0
  9 20  1  0  0  0  0
 10 11  2  0  0  0  0
 10 21  1  0  0  0  0
 11 12  1  0  0  0  0
 11 22  1  0  0  0  0
 12 13  2  0  0  0  0
 12 23  1  0  0  0  0
 13 24  1  0  0  0  0
M  END
>  <DRUGBANK_ID>
DB03441

>  <SECONDARY_ACCESSION_NUMBERS>
EXPT00709

>  <COMMON_NAME>
2-Benzyl-3-Iodopropanoic Acid

$$$$
