1125
 OpenBabel10282417072D

 31 33  0  0  0  0  0  0  0  0999 V2000
    4.1159    1.4482    0.0000 O   0  0  0  0  0  0  0  0  0  0  0  0
    4.1159   -1.4482    0.0000 O   0  0  0  0  0  0  0  0  0  0  0  0
    7.6412    0.0000    0.0000 O   0  0  0  0  0  0  0  0  0  0  0  0
    4.3412    0.0000    0.0000 C   0  0  0  0  0  0  0  0  0  0  0  0
    3.8597    0.6639    0.0000 C   0  0  0  0  0  0  0  0  0  0  0  0
    3.8597   -0.6639    0.0000 C   0  0  0  0  0  0  0  0  0  0  0  0
    3.0791    0.4125    0.0000 C   0  0  0  0  0  0  0  0  0  0  0  0
    3.0791   -0.4125    0.0000 C   0  0  0  0  0  0  0  0  0  0  0  0
    5.1662    0.0000    0.0000 C   0  0  0  0  0  0  0  0  0  0  0  0
    2.3645    0.8250    0.0000 C   0  0  0  0  0  0  0  0  0  0  0  0
    2.3645   -0.8250    0.0000 C   0  0  0  0  0  0  0  0  0  0  0  0
    5.5787    0.7145    0.0000 C   0  0  0  0  0  0  0  0  0  0  0  0
    5.5787   -0.7145    0.0000 C   0  0  0  0  0  0  0  0  0  0  0  0
    1.6500    0.4125    0.0000 C   0  0  0  0  0  0  0  0  0  0  0  0
    1.6500   -0.4125    0.0000 C   0  0  0  0  0  0  0  0  0  0  0  0
    6.4037    0.7145    0.0000 C   0  0  0  0  0  0  0  0  0  0  0  0
    6.4037   -0.7145    0.0000 C   0  0  0  0  0  0  0  0  0  0  0  0
    6.8162    0.0000    0.0000 C   0  0  0  0  0  0  0  0  0  0  0  0
    8.0537   -0.7145    0.0000 C   0  0  0  0  0  0  0  0  0  0  0  0
    4.8274   -0.9532    0.0000 H   0  0  0  0  0  0  0  0  0  0  0  0
    2.3645    1.8570    0.0000 H   0  0  0  0  0  0  0  0  0  0  0  0
    2.3645   -1.8570    0.0000 H   0  0  0  0  0  0  0  0  0  0  0  0
    5.0627    1.6082    0.0000 H   0  0  0  0  0  0  0  0  0  0  0  0
    5.0627   -1.6082    0.0000 H   0  0  0  0  0  0  0  0  0  0  0  0
    0.7563    0.9285    0.0000 H   0  0  0  0  0  0  0  0  0  0  0  0
    0.7563   -0.9285    0.0000 H   0  0  0  0  0  0  0  0  0  0  0  0
    6.9197    1.6082    0.0000 H   0  0  0  0  0  0  0  0  0  0  0  0
    6.9197   -1.6082    0.0000 H   0  0  0  0  0  0  0  0  0  0  0  0
    7.5187   -1.6411    0.0000 H   0  0  0  0  0  0  0  0  0  0  0  0
    9.1237   -0.7145    0.0000 H   0  0  0  0  0  0  0  0  0  0  0  0
    8.5887   -1.6412    0.0000 H   0  0  0  0  0  0  0  0  0  0  0  0
  1  5  2  0  0  0  0
  2  6  2  0  0  0  0
  3 18  1  0  0  0  0
  3 19  1  0  0  0  0
  4  5  1  0  0  0  0
  4  6  1  0  0  0  0
  4  9  1  0  0  0  0
  4 20  1  0  0  0  0
  5  7  1  0  0  0  0
  6  8  1  0  0  0  0
  7  8  1  0  0  0  0
  7 10  2  0  0  0  0
  8 11  2  0  0  0  0
  9 12  2  0  0  0  0
  9 13  1  0  0  0  0
 10 14  1  0  0  0  0
 10 21  1  0  0  0  0
 11 15  1  0  0  0  0
 11 22  1  0  0  0  0
 12 16  1  0  0  0  0
 12 23  1  0  0  0  0
 13 17  2  0  0  0  0
 13 24  1  0  0  0  0
 14 15  2  0  0  0  0
 14 25  1  0  0  0  0
 15 26  1  0  0  0  0
 16 18  2  0  0  0  0
 16 27  1  0  0  0  0
 17 18  1  0  0  0  0
 17 28  1  0  0  0  0
 19 29  1  0  0  0  0
 19 30  1  0  0  0  0
 19 31  1  0  0  0  0
M  END
>  <DRUGBANK_ID>
DB01125

>  <SECONDARY_ACCESSION_NUMBERS>
APRD00799

>  <COMMON_NAME>
Anisindione

>  <CAS_NUMBER>
117-37-3

>  <UNII>
S747T1ERAJ

>  <SYNONYMS>
2-(4-Methoxyphenyl)-1H-indene-1,3(2H)-dione; 2-(4-Methoxyphenyl)indan-1,3-dione; 2-(p-Methoxyphenyl)-1,3-indandione; 2-(p-Methoxyphenyl)indane-1,3-dione; 2-p-Anisyl-1,3-indandione; 2-para-Anisyl-1,3-indandione; Anisin indandione; Anisindiona; Anisindione; Anisindionum

$$$$
