
 OpenBabel10282417072D

 32 33  0  0  0  0  0  0  0  0999 V2000
   -2.5828   -0.5618    0.0000 C   0  0  0  0  0  0  0  0  0  0  0  0
   -1.8291   -0.8974    0.0000 C   0  0  0  0  0  0  0  0  0  0  0  0
   -1.1617   -0.4125    0.0000 C   0  0  1  0  0  0  0  0  0  0  0  0
   -1.1617    0.4125    0.0000 C   0  0  0  0  0  0  0  0  0  0  0  0
   -1.8291    0.8974    0.0000 O   0  0  0  0  0  0  0  0  0  0  0  0
   -0.3770    0.6674    0.0000 N   0  0  0  0  0  0  0  0  0  0  0  0
    0.1078    0.0000    0.0000 C   0  0  0  0  0  0  0  0  0  0  0  0
   -0.3770   -0.6674    0.0000 S   0  0  0  0  0  0  0  0  0  0  0  0
    0.5203    0.7144    0.0000 C   0  0  0  0  0  0  0  0  0  0  0  0
    1.3453    0.7144    0.0000 C   0  0  0  0  0  0  0  0  0  0  0  0
    1.7578    0.0000    0.0000 N   0  0  0  0  0  0  0  0  0  0  0  0
    1.3453   -0.7144    0.0000 C   0  0  0  0  0  0  0  0  0  0  0  0
    0.5203   -0.7144    0.0000 C   0  0  0  0  0  0  0  0  0  0  0  0
    2.5828    0.0000    0.0000 C   0  0  0  0  0  0  0  0  0  0  0  0
   -2.6946    0.5023    0.0000 H   0  0  0  0  0  0  0  0  0  0  0  0
   -3.4485   -1.1907    0.0000 H   0  0  0  0  0  0  0  0  0  0  0  0
   -3.5603   -0.1266    0.0000 H   0  0  0  0  0  0  0  0  0  0  0  0
   -1.7173   -1.9615    0.0000 H   0  0  0  0  0  0  0  0  0  0  0  0
   -0.8516   -1.3326    0.0000 H   0  0  0  0  0  0  0  0  0  0  0  0
   -2.1151    0.0733    0.0000 H   0  0  0  0  0  0  0  0  0  0  0  0
   -0.0727    1.6037    0.0000 H   0  0  0  0  0  0  0  0  0  0  0  0
   -0.0147    1.6411    0.0000 H   0  0  0  0  0  0  0  0  0  0  0  0
    1.0553    1.6410    0.0000 H   0  0  0  0  0  0  0  0  0  0  0  0
    1.8803    1.6411    0.0000 H   0  0  0  0  0  0  0  0  0  0  0  0
    2.4153    0.7144    0.0000 H   0  0  0  0  0  0  0  0  0  0  0  0
    1.8803   -1.6411    0.0000 H   0  0  0  0  0  0  0  0  0  0  0  0
    0.8103   -1.6410    0.0000 H   0  0  0  0  0  0  0  0  0  0  0  0
   -0.0147   -1.6411    0.0000 H   0  0  0  0  0  0  0  0  0  0  0  0
   -0.5497   -0.7144    0.0000 H   0  0  0  0  0  0  0  0  0  0  0  0
    3.1178   -0.9266    0.0000 H   0  0  0  0  0  0  0  0  0  0  0  0
    3.1178    0.9266    0.0000 H   0  0  0  0  0  0  0  0  0  0  0  0
    3.6528    0.0000    0.0000 H   0  0  0  0  0  0  0  0  0  0  0  0
  1  2  1  0  0  0  0
  1 15  1  0  0  0  0
  1 16  1  0  0  0  0
  1 17  1  0  0  0  0
  2 18  1  0  0  0  0
  2 19  1  0  0  0  0
  3  2  1  0  0  0  0
  3  4  1  0  0  0  0
  3  8  1  0  0  0  0
  3 20  1  6  0  0  0
  4  5  2  0  0  0  0
  4  6  1  0  0  0  0
  6  7  1  0  0  0  0
  6 21  1  0  0  0  0
  7  8  1  0  0  0  0
  7  9  1  0  0  0  0
  7 13  1  0  0  0  0
  9 10  1  0  0  0  0
  9 22  1  0  0  0  0
  9 23  1  0  0  0  0
 10 11  1  0  0  0  0
 10 24  1  0  0  0  0
 10 25  1  0  0  0  0
 11 12  1  0  0  0  0
 11 14  1  0  0  0  0
 12 13  1  0  0  0  0
 12 26  1  0  0  0  0
 12 27  1  0  0  0  0
 13 28  1  0  0  0  0
 13 29  1  0  0  0  0
 14 30  1  0  0  0  0
 14 31  1  0  0  0  0
 14 32  1  0  0  0  0
M  END
>  <DRUGBANK_ID>
DB05152

>  <COMMON_NAME>
NGX267

>  <CAS_NUMBER>
503431-81-0

>  <UNII>
8D3PZX7G73

$$$$
