210
 OpenBabel10282417072D

 59 64  0  0  0  0  0  0  0  0999 V2000
    2.4469   -3.8851    0.0000 O   0  0  0  0  0  0  0  0  0  0  0  0
    2.9958    3.7168    0.0000 O   0  0  0  0  0  0  0  0  0  0  0  0
    4.3746    3.3417    0.0000 O   0  0  0  0  0  0  0  0  0  0  0  0
    4.0407   -3.4580    0.0000 C   0  0  3  0  0  0  0  0  0  0  0  0
    4.1604   -3.8170    0.0000 C   0  0  3  0  0  0  0  0  0  0  0  0
    5.4205   -3.4580    0.0000 C   0  0  3  0  0  0  0  0  0  0  0  0
    4.7306   -2.2632    0.0000 C   0  0  3  0  0  0  0  0  0  0  0  0
    3.3504   -3.8563    0.0000 C   0  0  0  0  0  0  0  0  0  0  0  0
    4.7306   -3.7078    0.0000 C   0  0  0  0  0  0  0  0  0  0  0  0
    4.0407   -2.6615    0.0000 C   0  0  0  0  0  0  0  0  0  0  0  0
    4.9076   -4.2103    0.0000 C   0  0  0  0  0  0  0  0  0  0  0  0
    4.1604   -2.9546    0.0000 C   0  0  0  0  0  0  0  0  0  0  0  0
    5.4205   -2.6615    0.0000 C   0  0  0  0  0  0  0  0  0  0  0  0
    3.4574   -2.8747    0.0000 C   0  0  0  0  0  0  0  0  0  0  0  0
    2.6604   -3.0883    0.0000 C   0  0  0  0  0  0  0  0  0  0  0  0
    3.6709   -2.0778    0.0000 C   0  0  0  0  0  0  0  0  0  0  0  0
    3.0875   -1.4944    0.0000 C   0  0  0  0  0  0  0  0  0  0  0  0
    2.0770   -2.5049    0.0000 C   0  0  0  0  0  0  0  0  0  0  0  0
    2.2906   -1.7079    0.0000 C   0  0  0  0  0  0  0  0  0  0  0  0
    3.3010   -0.6975    0.0000 C   0  0  0  0  0  0  0  0  0  0  0  0
    1.6500   -4.0986    0.0000 C   0  0  0  0  0  0  0  0  0  0  0  0
    2.7177   -0.1142    0.0000 C   0  0  0  0  0  0  0  0  0  0  0  0
    4.0979   -0.4840    0.0000 C   0  0  0  0  0  0  0  0  0  0  0  0
    2.9312    0.6828    0.0000 C   0  0  0  0  0  0  0  0  0  0  0  0
    4.3114    0.3129    0.0000 C   0  0  0  0  0  0  0  0  0  0  0  0
    3.7280    0.8963    0.0000 C   0  0  0  0  0  0  0  0  0  0  0  0
    2.3142    1.2810    0.0000 C   0  0  0  0  0  0  0  0  0  0  0  0
    3.9633    1.7228    0.0000 C   0  0  0  0  0  0  0  0  0  0  0  0
    2.5302    2.1127    0.0000 C   0  0  0  0  0  0  0  0  0  0  0  0
    3.3603    2.3351    0.0000 C   0  0  0  0  0  0  0  0  0  0  0  0
    3.5769    3.1312    0.0000 C   0  0  0  0  0  0  0  0  0  0  0  0
    3.2418    4.6209    0.0000 H   0  0  0  0  0  0  0  0  0  0  0  0
    3.9290   -4.8617    0.0000 H   0  0  0  0  0  0  0  0  0  0  0  0
    4.5751   -4.1140    0.0000 H   0  0  0  0  0  0  0  0  0  0  0  0
    3.9139   -2.9545    0.0000 H   0  0  0  0  0  0  0  0  0  0  0  0
    2.3238   -4.1581    0.0000 H   0  0  0  0  0  0  0  0  0  0  0  0
    3.5285   -4.9114    0.0000 H   0  0  0  0  0  0  0  0  0  0  0  0
    4.7306   -4.7778    0.0000 H   0  0  0  0  0  0  0  0  0  0  0  0
    5.6066   -4.3223    0.0000 H   0  0  0  0  0  0  0  0  0  0  0  0
    3.1141   -2.1265    0.0000 H   0  0  0  0  0  0  0  0  0  0  0  0
    4.0407   -1.5915    0.0000 H   0  0  0  0  0  0  0  0  0  0  0  0
    5.1660   -5.2486    0.0000 H   0  0  0  0  0  0  0  0  0  0  0  0
    5.9608   -4.3989    0.0000 H   0  0  0  0  0  0  0  0  0  0  0  0
    3.1534   -2.5929    0.0000 H   0  0  0  0  0  0  0  0  0  0  0  0
    3.8769   -1.9228    0.0000 H   0  0  0  0  0  0  0  0  0  0  0  0
    6.3471   -2.1265    0.0000 H   0  0  0  0  0  0  0  0  0  0  0  0
    5.4205   -1.5915    0.0000 H   0  0  0  0  0  0  0  0  0  0  0  0
    4.6677   -1.8107    0.0000 H   0  0  0  0  0  0  0  0  0  0  0  0
    1.0802   -2.7720    0.0000 H   0  0  0  0  0  0  0  0  0  0  0  0
    1.5609   -0.9781    0.0000 H   0  0  0  0  0  0  0  0  0  0  0  0
    0.8934   -3.3420    0.0000 H   0  0  0  0  0  0  0  0  0  0  0  0
    1.3730   -5.1321    0.0000 H   0  0  0  0  0  0  0  0  0  0  0  0
    0.6165   -4.3755    0.0000 H   0  0  0  0  0  0  0  0  0  0  0  0
    1.7209   -0.3813    0.0000 H   0  0  0  0  0  0  0  0  0  0  0  0
    4.8276   -1.2137    0.0000 H   0  0  0  0  0  0  0  0  0  0  0  0
    5.3082    0.5800    0.0000 H   0  0  0  0  0  0  0  0  0  0  0  0
    1.3205    1.0024    0.0000 H   0  0  0  0  0  0  0  0  0  0  0  0
    4.9632    1.9783    0.0000 H   0  0  0  0  0  0  0  0  0  0  0  0
    1.7977    2.8396    0.0000 H   0  0  0  0  0  0  0  0  0  0  0  0
  1 15  1  0  0  0  0
  1 21  1  0  0  0  0
  2 31  1  0  0  0  0
  2 32  1  0  0  0  0
  3 31  2  0  0  0  0
  4  8  1  0  0  0  0
  4  9  1  0  0  0  0
  4 10  1  0  0  0  0
  4 14  1  0  0  0  0
  5  8  1  0  0  0  0
  5 11  1  0  0  0  0
  5 12  1  0  0  0  0
  5 33  1  0  0  0  0
  6  9  1  0  0  0  0
  6 11  1  0  0  0  0
  6 13  1  0  0  0  0
  6 34  1  0  0  0  0
  7 10  1  0  0  0  0
  7 12  1  0  0  0  0
  7 13  1  0  0  0  0
  7 35  1  0  0  0  0
  8 36  1  0  0  0  0
  8 37  1  0  0  0  0
  9 38  1  0  0  0  0
  9 39  1  0  0  0  0
 10 40  1  0  0  0  0
 10 41  1  0  0  0  0
 11 42  1  0  0  0  0
 11 43  1  0  0  0  0
 12 44  1  0  0  0  0
 12 45  1  0  0  0  0
 13 46  1  0  0  0  0
 13 47  1  0  0  0  0
 14 15  2  0  0  0  0
 14 16  1  0  0  0  0
 15 18  1  0  0  0  0
 16 17  2  0  0  0  0
 16 48  1  0  0  0  0
 17 19  1  0  0  0  0
 17 20  1  0  0  0  0
 18 19  2  0  0  0  0
 18 49  1  0  0  0  0
 19 50  1  0  0  0  0
 20 22  2  0  0  0  0
 20 23  1  0  0  0  0
 21 51  1  0  0  0  0
 21 52  1  0  0  0  0
 21 53  1  0  0  0  0
 22 24  1  0  0  0  0
 22 54  1  0  0  0  0
 23 25  2  0  0  0  0
 23 55  1  0  0  0  0
 24 26  2  0  0  0  0
 24 27  1  0  0  0  0
 25 26  1  0  0  0  0
 25 56  1  0  0  0  0
 26 28  1  0  0  0  0
 27 29  2  0  0  0  0
 27 57  1  0  0  0  0
 28 30  2  0  0  0  0
 28 58  1  0  0  0  0
 29 30  1  0  0  0  0
 29 59  1  0  0  0  0
 30 31  1  0  0  0  0
M  END
>  <DRUGBANK_ID>
DB00210

>  <SECONDARY_ACCESSION_NUMBERS>
APRD00780

>  <COMMON_NAME>
Adapalene

>  <CAS_NUMBER>
106685-40-9

>  <UNII>
1L4806J2QF

>  <SYNONYMS>
6-(3-(1-Adamantyl)-4-methoxyphenyl)-2-naphthoic acid; Adapalene; Adapal√®ne; Adapaleno; Adapalenum

$$$$
