
 OpenBabel10282417072D

 36 37  0  0  0  0  0  0  0  0999 V2000
   -2.5162    0.2062    0.0000 C   0  0  0  0  0  0  0  0  0  0  0  0
   -2.5162    1.0312    0.0000 C   0  0  0  0  0  0  0  0  0  0  0  0
   -1.8150    1.4437    0.0000 C   0  0  0  0  0  0  0  0  0  0  0  0
   -1.0725    1.0312    0.0000 C   0  0  0  0  0  0  0  0  0  0  0  0
   -1.0725    0.2062    0.0000 C   0  0  0  0  0  0  0  0  0  0  0  0
   -1.8150   -0.2062    0.0000 C   0  0  0  0  0  0  0  0  0  0  0  0
   -0.3712   -0.2062    0.0000 O   0  0  0  0  0  0  0  0  0  0  0  0
    0.3712    0.2062    0.0000 C   0  0  0  0  0  0  0  0  0  0  0  0
    1.0725   -0.2062    0.0000 C   0  0  3  0  0  0  0  0  0  0  0  0
   -0.3712    1.4437    0.0000 O   0  0  0  0  0  0  0  0  0  0  0  0
    0.3712    1.0312    0.0000 C   0  0  0  0  0  0  0  0  0  0  0  0
    1.0725    1.4437    0.0000 C   0  0  0  0  0  0  0  0  0  0  0  0
    1.7737    0.2062    0.0000 O   0  0  0  0  0  0  0  0  0  0  0  0
    2.5162   -0.2062    0.0000 C   0  0  0  0  0  0  0  0  0  0  0  0
    2.5162   -1.0312    0.0000 C   0  0  0  0  0  0  0  0  0  0  0  0
    1.7737   -1.4437    0.0000 N   0  0  0  0  0  0  0  0  0  0  0  0
    1.0725   -1.0312    0.0000 C   0  0  0  0  0  0  0  0  0  0  0  0
   -3.4120   -0.3062    0.0000 H   0  0  0  0  0  0  0  0  0  0  0  0
   -3.4120    1.5436    0.0000 H   0  0  0  0  0  0  0  0  0  0  0  0
   -1.8277    2.4756    0.0000 H   0  0  0  0  0  0  0  0  0  0  0  0
   -1.8277   -1.2381    0.0000 H   0  0  0  0  0  0  0  0  0  0  0  0
    0.3843    1.2761    0.0000 H   0  0  0  0  0  0  0  0  0  0  0  0
    1.3032    0.7318    0.0000 H   0  0  0  0  0  0  0  0  0  0  0  0
    1.0725    0.8638    0.0000 H   0  0  0  0  0  0  0  0  0  0  0  0
    0.3843   -0.0387    0.0000 H   0  0  0  0  0  0  0  0  0  0  0  0
    1.3032    0.5057    0.0000 H   0  0  0  0  0  0  0  0  0  0  0  0
    2.0034    0.9162    0.0000 H   0  0  0  0  0  0  0  0  0  0  0  0
    1.0638    2.5137    0.0000 H   0  0  0  0  0  0  0  0  0  0  0  0
    1.9948    1.9862    0.0000 H   0  0  0  0  0  0  0  0  0  0  0  0
    3.4384    0.3365    0.0000 H   0  0  0  0  0  0  0  0  0  0  0  0
    3.4451   -0.7373    0.0000 H   0  0  0  0  0  0  0  0  0  0  0  0
    3.4384   -1.5738    0.0000 H   0  0  0  0  0  0  0  0  0  0  0  0
    2.5030   -2.1011    0.0000 H   0  0  0  0  0  0  0  0  0  0  0  0
    1.7611   -2.4636    0.0000 H   0  0  0  0  0  0  0  0  0  0  0  0
    0.1437   -1.5624    0.0000 H   0  0  0  0  0  0  0  0  0  0  0  0
    0.1469   -0.4943    0.0000 H   0  0  0  0  0  0  0  0  0  0  0  0
  1  2  2  0  0  0  0
  1  6  1  0  0  0  0
  1 18  1  0  0  0  0
  2  3  1  0  0  0  0
  2 19  1  0  0  0  0
  3  4  2  0  0  0  0
  3 20  1  0  0  0  0
  4  5  1  0  0  0  0
  4 10  1  0  0  0  0
  5  6  2  0  0  0  0
  5  7  1  0  0  0  0
  6 21  1  0  0  0  0
  7  8  1  0  0  0  0
  8  9  1  0  0  0  0
  8 22  1  0  0  0  0
  8 23  1  0  0  0  0
  9 13  1  0  0  0  0
  9 17  1  0  0  0  0
  9 24  1  0  0  0  0
 10 11  1  0  0  0  0
 11 12  1  0  0  0  0
 11 25  1  0  0  0  0
 11 26  1  0  0  0  0
 12 27  1  0  0  0  0
 12 28  1  0  0  0  0
 12 29  1  0  0  0  0
 13 14  1  0  0  0  0
 14 15  1  0  0  0  0
 14 30  1  0  0  0  0
 14 31  1  0  0  0  0
 15 16  1  0  0  0  0
 15 32  1  0  0  0  0
 15 33  1  0  0  0  0
 16 17  1  0  0  0  0
 16 34  1  0  0  0  0
 17 35  1  0  0  0  0
 17 36  1  0  0  0  0
M  END
>  <DRUGBANK_ID>
DB09185

>  <COMMON_NAME>
Viloxazine

>  <CAS_NUMBER>
46817-91-8

>  <UNII>
5I5Y2789ZF

>  <SYNONYMS>
2-((2-Ethoxyphenoxy)methyl)morpholine; Viloxazina; Viloxazine; Viloxazinum

$$$$
