
 OpenBabel10282417072D

 52 51  0  0  0  0  0  0  0  0999 V2000
   -0.3572    2.0625    0.0000 C   0  0  0  0  0  0  0  0  0  0  0  0
   -1.7862    2.0625    0.0000 C   0  0  0  0  0  0  0  0  0  0  0  0
   -2.5006    1.6500    0.0000 C   0  0  0  0  0  0  0  0  0  0  0  0
   -0.3572   -2.0625    0.0000 C   0  0  0  0  0  0  0  0  0  0  0  0
   -3.2151   -0.4125    0.0000 C   0  0  0  0  0  0  0  0  0  0  0  0
   -3.2151    0.4125    0.0000 C   0  0  0  0  0  0  0  0  0  0  0  0
   -1.7862   -2.0625    0.0000 C   0  0  0  0  0  0  0  0  0  0  0  0
   -2.5006   -1.6500    0.0000 C   0  0  0  0  0  0  0  0  0  0  0  0
   -1.0717    1.6500    0.0000 O   0  0  0  0  0  0  0  0  0  0  0  0
   -2.5006    0.8250    0.0000 O   0  0  0  0  0  0  0  0  0  0  0  0
   -2.5006   -0.8250    0.0000 O   0  0  0  0  0  0  0  0  0  0  0  0
   -1.0717   -1.6500    0.0000 O   0  0  0  0  0  0  0  0  0  0  0  0
    0.3571    1.6500    0.0000 C   0  0  0  0  0  0  0  0  0  0  0  0
    0.3571   -1.6500    0.0000 C   0  0  0  0  0  0  0  0  0  0  0  0
    2.5006    2.0625    0.0000 C   0  0  0  0  0  0  0  0  0  0  0  0
    2.5006   -2.0625    0.0000 C   0  0  0  0  0  0  0  0  0  0  0  0
    1.0716    2.0625    0.0000 O   0  0  0  0  0  0  0  0  0  0  0  0
    1.7861    1.6500    0.0000 C   0  0  0  0  0  0  0  0  0  0  0  0
    1.0716   -2.0625    0.0000 O   0  0  0  0  0  0  0  0  0  0  0  0
    1.7861   -1.6500    0.0000 C   0  0  0  0  0  0  0  0  0  0  0  0
    3.2151    1.6500    0.0000 O   0  0  0  0  0  0  0  0  0  0  0  0
    3.2151   -1.6500    0.0000 O   0  0  0  0  0  0  0  0  0  0  0  0
   -0.3571    3.1325    0.0000 H   0  0  0  0  0  0  0  0  0  0  0  0
    0.5695    2.5974    0.0000 H   0  0  0  0  0  0  0  0  0  0  0  0
   -1.7862    3.1325    0.0000 H   0  0  0  0  0  0  0  0  0  0  0  0
   -0.8596    2.5975    0.0000 H   0  0  0  0  0  0  0  0  0  0  0  0
   -3.4273    2.1850    0.0000 H   0  0  0  0  0  0  0  0  0  0  0  0
   -3.4272    1.1150    0.0000 H   0  0  0  0  0  0  0  0  0  0  0  0
   -0.3571   -3.1325    0.0000 H   0  0  0  0  0  0  0  0  0  0  0  0
    0.5695   -2.5974    0.0000 H   0  0  0  0  0  0  0  0  0  0  0  0
   -4.1417   -0.9475    0.0000 H   0  0  0  0  0  0  0  0  0  0  0  0
   -4.1417    0.1225    0.0000 H   0  0  0  0  0  0  0  0  0  0  0  0
   -4.1417    0.9475    0.0000 H   0  0  0  0  0  0  0  0  0  0  0  0
   -3.2151    1.4825    0.0000 H   0  0  0  0  0  0  0  0  0  0  0  0
   -1.7862   -3.1325    0.0000 H   0  0  0  0  0  0  0  0  0  0  0  0
   -0.8596   -2.5975    0.0000 H   0  0  0  0  0  0  0  0  0  0  0  0
   -3.4273   -2.1850    0.0000 H   0  0  0  0  0  0  0  0  0  0  0  0
   -2.5006   -2.7200    0.0000 H   0  0  0  0  0  0  0  0  0  0  0  0
    0.3570    0.5800    0.0000 H   0  0  0  0  0  0  0  0  0  0  0  0
   -0.5696    1.1151    0.0000 H   0  0  0  0  0  0  0  0  0  0  0  0
    0.3570   -0.5800    0.0000 H   0  0  0  0  0  0  0  0  0  0  0  0
   -0.5696   -1.1151    0.0000 H   0  0  0  0  0  0  0  0  0  0  0  0
    2.5006    3.1325    0.0000 H   0  0  0  0  0  0  0  0  0  0  0  0
    1.5740    2.5975    0.0000 H   0  0  0  0  0  0  0  0  0  0  0  0
    2.5006   -3.1325    0.0000 H   0  0  0  0  0  0  0  0  0  0  0  0
    1.5740   -2.5975    0.0000 H   0  0  0  0  0  0  0  0  0  0  0  0
    1.7861    0.5800    0.0000 H   0  0  0  0  0  0  0  0  0  0  0  0
    0.8595    1.1150    0.0000 H   0  0  0  0  0  0  0  0  0  0  0  0
    1.7861   -0.5800    0.0000 H   0  0  0  0  0  0  0  0  0  0  0  0
    0.8595   -1.1150    0.0000 H   0  0  0  0  0  0  0  0  0  0  0  0
    3.2151    0.6800    0.0000 H   0  0  0  0  0  0  0  0  0  0  0  0
    4.0551   -2.1350    0.0000 H   0  0  0  0  0  0  0  0  0  0  0  0
  1  9  1  0  0  0  0
  1 13  1  0  0  0  0
  1 23  1  0  0  0  0
  1 24  1  0  0  0  0
  2  3  1  0  0  0  0
  2  9  1  0  0  0  0
  2 25  1  0  0  0  0
  2 26  1  0  0  0  0
  3 27  1  0  0  0  0
  3 28  1  0  0  0  0
  4 12  1  0  0  0  0
  4 29  1  0  0  0  0
  4 30  1  0  0  0  0
  5  6  1  0  0  0  0
  5 31  1  0  0  0  0
  5 32  1  0  0  0  0
  6 33  1  0  0  0  0
  6 34  1  0  0  0  0
  7  8  1  0  0  0  0
  7 35  1  0  0  0  0
  7 36  1  0  0  0  0
  8 11  1  0  0  0  0
  8 37  1  0  0  0  0
  8 38  1  0  0  0  0
 10  6  1  0  0  0  0
 10  3  1  0  0  0  0
 11  5  1  0  0  0  0
 12  7  1  0  0  0  0
 13 39  1  0  0  0  0
 13 40  1  0  0  0  0
 14  4  1  0  0  0  0
 14 41  1  0  0  0  0
 14 42  1  0  0  0  0
 15 21  1  0  0  0  0
 15 18  1  0  0  0  0
 15 43  1  0  0  0  0
 15 44  1  0  0  0  0
 16 20  1  0  0  0  0
 16 45  1  0  0  0  0
 16 46  1  0  0  0  0
 17 13  1  0  0  0  0
 17 18  1  0  0  0  0
 18 47  1  0  0  0  0
 18 48  1  0  0  0  0
 19 14  1  0  0  0  0
 20 19  1  0  0  0  0
 20 49  1  0  0  0  0
 20 50  1  0  0  0  0
 21 51  1  0  0  0  0
 22 16  1  0  0  0  0
 22 52  1  0  0  0  0
M  END
>  <DRUGBANK_ID>
DB03394

>  <SECONDARY_ACCESSION_NUMBERS>
EXPT02477

>  <COMMON_NAME>
Heptaethylene glycol

>  <CAS_NUMBER>
5617-32-3

>  <SYNONYMS>
3,6,9,12,15,18-hexaoxaeicosane-1,20-diol; Heptaethylene glycol, Peg330

$$$$
