HOM
 OpenBabel10282417072D

 28 29  0  0  0  0  0  0  0  0999 V2000
   -0.4969   -0.0587    0.0000 C   0  0  0  0  0  0  0  0  0  0  0  0
   -0.4969    0.7663    0.0000 C   0  0  0  0  0  0  0  0  0  0  0  0
    0.9320    0.7663    0.0000 C   0  0  0  0  0  0  0  0  0  0  0  0
    1.6465    1.1788    0.0000 C   0  0  0  0  0  0  0  0  0  0  0  0
    2.3610    0.7663    0.0000 C   0  0  0  0  0  0  0  0  0  0  0  0
    2.3610   -0.0587    0.0000 C   0  0  0  0  0  0  0  0  0  0  0  0
    1.6465   -0.4712    0.0000 C   0  0  0  0  0  0  0  0  0  0  0  0
    0.9320   -0.0587    0.0000 C   0  0  0  0  0  0  0  0  0  0  0  0
    0.2176   -0.4712    0.0000 C   0  0  0  0  0  0  0  0  0  0  0  0
   -1.2114   -0.4712    0.0000 C   0  0  0  0  0  0  0  0  0  0  0  0
   -1.9259   -0.0587    0.0000 C   0  0  0  0  0  0  0  0  0  0  0  0
    0.2176   -1.2962    0.0000 C   0  0  0  0  0  0  0  0  0  0  0  0
   -1.2114    1.1788    0.0000 O   0  0  0  0  0  0  0  0  0  0  0  0
    0.2176    1.1788    0.0000 O   0  0  0  0  0  0  0  0  0  0  0  0
    3.0754    1.1788    0.0000 O   0  0  0  0  0  0  0  0  0  0  0  0
   -2.6403   -0.4712    0.0000 O   0  0  0  0  0  0  0  0  0  0  0  0
    1.6465    2.2108    0.0000 H   0  0  0  0  0  0  0  0  0  0  0  0
    3.2547   -0.5747    0.0000 H   0  0  0  0  0  0  0  0  0  0  0  0
    1.6465   -1.5032    0.0000 H   0  0  0  0  0  0  0  0  0  0  0  0
   -1.2114   -1.5412    0.0000 H   0  0  0  0  0  0  0  0  0  0  0  0
   -2.1380   -1.0062    0.0000 H   0  0  0  0  0  0  0  0  0  0  0  0
   -1.9259    1.0113    0.0000 H   0  0  0  0  0  0  0  0  0  0  0  0
   -2.8526    0.4763    0.0000 H   0  0  0  0  0  0  0  0  0  0  0  0
   -0.7090   -1.8312    0.0000 H   0  0  0  0  0  0  0  0  0  0  0  0
    1.1442   -1.8312    0.0000 H   0  0  0  0  0  0  0  0  0  0  0  0
    0.2176   -2.3662    0.0000 H   0  0  0  0  0  0  0  0  0  0  0  0
    3.8869    0.7103    0.0000 H   0  0  0  0  0  0  0  0  0  0  0  0
   -3.4804    0.0138    0.0000 H   0  0  0  0  0  0  0  0  0  0  0  0
  1  2  1  0  0  0  0
  1  9  2  0  0  0  0
  1 10  1  0  0  0  0
  2 13  2  0  0  0  0
  2 14  1  0  0  0  0
  3  4  2  0  0  0  0
  3  8  1  0  0  0  0
  3 14  1  0  0  0  0
  4  5  1  0  0  0  0
  4 17  1  0  0  0  0
  5  6  2  0  0  0  0
  5 15  1  0  0  0  0
  6  7  1  0  0  0  0
  6 18  1  0  0  0  0
  7  8  2  0  0  0  0
  7 19  1  0  0  0  0
  8  9  1  0  0  0  0
  9 12  1  0  0  0  0
 10 11  1  0  0  0  0
 10 20  1  0  0  0  0
 10 21  1  0  0  0  0
 11 16  1  0  0  0  0
 11 22  1  0  0  0  0
 11 23  1  0  0  0  0
 12 24  1  0  0  0  0
 12 25  1  0  0  0  0
 12 26  1  0  0  0  0
 15 27  1  0  0  0  0
 16 28  1  0  0  0  0
M  END
>  <DRUGBANK_ID>
DB07908

>  <COMMON_NAME>
7-HYDROXY-4-METHYL-3-(2-HYDROXY-ETHYL)COUMARIN

$$$$
