
 OpenBabel10282417072D

 53 54  0  0  0  0  0  0  0  0999 V2000
   -6.4302    3.7125    0.0000 C   0  0  0  0  0  0  0  0  0  0  0  0
   -5.7158    3.3000    0.0000 C   0  0  0  0  0  0  0  0  0  0  0  0
   -5.0013    3.7125    0.0000 N   0  0  0  0  0  0  0  0  0  0  0  0
   -5.0013    4.5375    0.0000 C   0  0  0  0  0  0  0  0  0  0  0  0
   -4.2868    4.9500    0.0000 C   0  0  0  0  0  0  0  0  0  0  0  0
   -4.2868    3.3000    0.0000 C   0  0  0  0  0  0  0  0  0  0  0  0
   -3.5724    3.7125    0.0000 C   0  0  0  0  0  0  0  0  0  0  0  0
   -2.8579    3.3000    0.0000 C   0  0  0  0  0  0  0  0  0  0  0  0
   -2.1434    3.7125    0.0000 C   0  0  0  0  0  0  0  0  0  0  0  0
   -1.4289    3.3000    0.0000 C   0  0  0  0  0  0  0  0  0  0  0  0
   -0.7145    3.7125    0.0000 C   0  0  0  0  0  0  0  0  0  0  0  0
    0.0000    3.3000    0.0000 C   0  0  0  0  0  0  0  0  0  0  0  0
    0.0000    2.4750    0.0000 C   0  0  0  0  0  0  0  0  0  0  0  0
   -0.7145    2.0625    0.0000 C   0  0  0  0  0  0  0  0  0  0  0  0
   -1.4289    2.4750    0.0000 C   0  0  0  0  0  0  0  0  0  0  0  0
   -2.1434    2.0625    0.0000 O   0  0  0  0  0  0  0  0  0  0  0  0
   -2.8579    2.4750    0.0000 C   0  0  0  0  0  0  0  0  0  0  0  0
   -3.5724    2.0625    0.0000 O   0  0  0  0  0  0  0  0  0  0  0  0
   -0.7145    1.2375    0.0000 Cl  0  0  0  0  0  0  0  0  0  0  0  0
    0.7145    2.0625    0.0000 O   0  0  0  0  0  0  0  0  0  0  0  0
    1.4289    2.4750    0.0000 C   0  0  0  0  0  0  0  0  0  0  0  0
    2.1434    2.0625    0.0000 C   0  0  0  0  0  0  0  0  0  0  0  0
    2.1434    1.2375    0.0000 O   0  0  0  0  0  0  0  0  0  0  0  0
    2.8579    2.4750    0.0000 O   0  0  0  0  0  0  0  0  0  0  0  0
    3.5724    2.0625    0.0000 C   0  0  0  0  0  0  0  0  0  0  0  0
    4.2868    2.4750    0.0000 C   0  0  0  0  0  0  0  0  0  0  0  0
   -2.1434    4.5375    0.0000 C   0  0  0  0  0  0  0  0  0  0  0  0
   -6.4302    4.7825    0.0000 H   0  0  0  0  0  0  0  0  0  0  0  0
   -7.3569    3.1775    0.0000 H   0  0  0  0  0  0  0  0  0  0  0  0
   -7.3568    4.2475    0.0000 H   0  0  0  0  0  0  0  0  0  0  0  0
   -5.7158    2.2300    0.0000 H   0  0  0  0  0  0  0  0  0  0  0  0
   -4.7892    2.7650    0.0000 H   0  0  0  0  0  0  0  0  0  0  0  0
   -5.9279    5.0725    0.0000 H   0  0  0  0  0  0  0  0  0  0  0  0
   -5.0013    5.6075    0.0000 H   0  0  0  0  0  0  0  0  0  0  0  0
   -3.3602    4.4150    0.0000 H   0  0  0  0  0  0  0  0  0  0  0  0
   -4.2868    6.0200    0.0000 H   0  0  0  0  0  0  0  0  0  0  0  0
   -3.3601    5.4850    0.0000 H   0  0  0  0  0  0  0  0  0  0  0  0
   -4.2868    2.2300    0.0000 H   0  0  0  0  0  0  0  0  0  0  0  0
   -3.3601    2.7650    0.0000 H   0  0  0  0  0  0  0  0  0  0  0  0
   -3.5724    4.7825    0.0000 H   0  0  0  0  0  0  0  0  0  0  0  0
   -2.6458    4.2475    0.0000 H   0  0  0  0  0  0  0  0  0  0  0  0
   -0.7145    4.7445    0.0000 H   0  0  0  0  0  0  0  0  0  0  0  0
    0.8937    3.8160    0.0000 H   0  0  0  0  0  0  0  0  0  0  0  0
    1.4289    3.5450    0.0000 H   0  0  0  0  0  0  0  0  0  0  0  0
    2.3555    3.0100    0.0000 H   0  0  0  0  0  0  0  0  0  0  0  0
    3.5724    0.9925    0.0000 H   0  0  0  0  0  0  0  0  0  0  0  0
    4.4991    1.5275    0.0000 H   0  0  0  0  0  0  0  0  0  0  0  0
    5.2135    1.9400    0.0000 H   0  0  0  0  0  0  0  0  0  0  0  0
    4.2868    3.5450    0.0000 H   0  0  0  0  0  0  0  0  0  0  0  0
    5.2134    3.0100    0.0000 H   0  0  0  0  0  0  0  0  0  0  0  0
   -1.2168    5.0725    0.0000 H   0  0  0  0  0  0  0  0  0  0  0  0
   -3.0700    5.0725    0.0000 H   0  0  0  0  0  0  0  0  0  0  0  0
   -2.1434    5.6075    0.0000 H   0  0  0  0  0  0  0  0  0  0  0  0
  1  2  1  0  0  0  0
  1 28  1  0  0  0  0
  1 29  1  0  0  0  0
  1 30  1  0  0  0  0
  2  3  1  0  0  0  0
  2 31  1  0  0  0  0
  2 32  1  0  0  0  0
  3  4  1  0  0  0  0
  3  6  1  0  0  0  0
  4  5  1  0  0  0  0
  4 33  1  0  0  0  0
  4 34  1  0  0  0  0
  5 35  1  0  0  0  0
  5 36  1  0  0  0  0
  5 37  1  0  0  0  0
  6  7  1  0  0  0  0
  6 38  1  0  0  0  0
  6 39  1  0  0  0  0
  7  8  1  0  0  0  0
  7 40  1  0  0  0  0
  7 41  1  0  0  0  0
  8  9  2  0  0  0  0
  8 17  1  0  0  0  0
  9 10  1  0  0  0  0
  9 27  1  0  0  0  0
 10 11  2  0  0  0  0
 10 15  1  0  0  0  0
 11 12  1  0  0  0  0
 11 42  1  0  0  0  0
 12 13  2  0  0  0  0
 12 43  1  0  0  0  0
 13 14  1  0  0  0  0
 13 20  1  0  0  0  0
 14 15  2  0  0  0  0
 14 19  1  0  0  0  0
 15 16  1  0  0  0  0
 16 17  1  0  0  0  0
 17 18  2  0  0  0  0
 20 21  1  0  0  0  0
 21 22  1  0  0  0  0
 21 44  1  0  0  0  0
 21 45  1  0  0  0  0
 22 23  2  0  0  0  0
 22 24  1  0  0  0  0
 24 25  1  0  0  0  0
 25 26  1  0  0  0  0
 25 46  1  0  0  0  0
 25 47  1  0  0  0  0
 26 48  1  0  0  0  0
 26 49  1  0  0  0  0
 26 50  1  0  0  0  0
 27 51  1  0  0  0  0
 27 52  1  0  0  0  0
 27 53  1  0  0  0  0
M  END
>  <DRUGBANK_ID>
DB13367

>  <COMMON_NAME>
Cloricromen

>  <CAS_NUMBER>
68206-94-0

>  <UNII>
B9454PE93C

>  <SYNONYMS>
Cloricromen

$$$$
