RED
 OpenBabel10282417072D

 28 27  0  0  0  0  0  0  0  0999 V2000
   -2.6439    0.1412    0.0000 C   0  0  0  0  0  0  0  0  0  0  0  0
   -3.3584   -0.2713    0.0000 O   0  0  0  0  0  0  0  0  0  0  0  0
   -2.6439    0.9662    0.0000 O   0  0  0  0  0  0  0  0  0  0  0  0
   -1.9294   -0.2713    0.0000 C   0  0  0  0  0  0  0  0  0  0  0  0
   -1.2150    0.1412    0.0000 C   0  0  0  0  0  0  0  0  0  0  0  0
   -0.5005   -0.2713    0.0000 C   0  0  0  0  0  0  0  0  0  0  0  0
    0.2140    0.1412    0.0000 C   0  0  0  0  0  0  0  0  0  0  0  0
    0.9285   -0.2713    0.0000 C   0  0  2  0  0  0  0  0  0  0  0  0
    1.6429    0.1412    0.0000 C   0  0  0  0  0  0  0  0  0  0  0  0
    2.3574   -0.2713    0.0000 C   0  0  0  0  0  0  0  0  0  0  0  0
    3.0719    0.1412    0.0000 S   0  0  0  0  0  0  0  0  0  0  0  0
    0.9285   -1.0963    0.0000 S   0  0  0  0  0  0  0  0  0  0  0  0
    0.9285    0.3127    0.0000 H   0  0  0  0  0  0  0  0  0  0  0  0
   -1.8324    1.4347    0.0000 H   0  0  0  0  0  0  0  0  0  0  0  0
   -1.9294   -1.3413    0.0000 H   0  0  0  0  0  0  0  0  0  0  0  0
   -1.0027   -0.8063    0.0000 H   0  0  0  0  0  0  0  0  0  0  0  0
   -1.2150    1.2112    0.0000 H   0  0  0  0  0  0  0  0  0  0  0  0
   -0.2884    0.6762    0.0000 H   0  0  0  0  0  0  0  0  0  0  0  0
   -0.5005   -1.3413    0.0000 H   0  0  0  0  0  0  0  0  0  0  0  0
    0.4261   -0.8063    0.0000 H   0  0  0  0  0  0  0  0  0  0  0  0
    0.2140    1.2112    0.0000 H   0  0  0  0  0  0  0  0  0  0  0  0
    1.1406    0.6762    0.0000 H   0  0  0  0  0  0  0  0  0  0  0  0
    1.6429    1.2112    0.0000 H   0  0  0  0  0  0  0  0  0  0  0  0
    2.5695    0.6762    0.0000 H   0  0  0  0  0  0  0  0  0  0  0  0
    2.3574   -1.3413    0.0000 H   0  0  0  0  0  0  0  0  0  0  0  0
    3.2840   -0.8063    0.0000 H   0  0  0  0  0  0  0  0  0  0  0  0
    4.2497   -0.5388    0.0000 H   0  0  0  0  0  0  0  0  0  0  0  0
   -0.2493   -1.7763    0.0000 H   0  0  0  0  0  0  0  0  0  0  0  0
  1  2  2  0  0  0  0
  1  3  1  0  0  0  0
  1  4  1  0  0  0  0
  3 14  1  0  0  0  0
  4  5  1  0  0  0  0
  4 15  1  0  0  0  0
  4 16  1  0  0  0  0
  5  6  1  0  0  0  0
  5 17  1  0  0  0  0
  5 18  1  0  0  0  0
  6  7  1  0  0  0  0
  6 19  1  0  0  0  0
  6 20  1  0  0  0  0
  7  8  1  0  0  0  0
  7 21  1  0  0  0  0
  7 22  1  0  0  0  0
  8  9  1  0  0  0  0
  8 12  1  0  0  0  0
  8 13  1  1  0  0  0
  9 10  1  0  0  0  0
  9 23  1  0  0  0  0
  9 24  1  0  0  0  0
 10 11  1  0  0  0  0
 10 25  1  0  0  0  0
 10 26  1  0  0  0  0
 11 27  1  0  0  0  0
 12 28  1  0  0  0  0
M  END
>  <DRUGBANK_ID>
DB03760

>  <SECONDARY_ACCESSION_NUMBERS>
EXPT02769

>  <COMMON_NAME>
Dihydrolipoic Acid

>  <CAS_NUMBER>
462-20-4

>  <UNII>
00K1YL9Q69

$$$$
