
 OpenBabel10282417072D

 54 56  0  0  1  0  0  0  0  0999 V2000
    1.0662   -1.8798    0.0000 C   0  0  0  0  0  0  0  0  0  0  0  0
    0.4614   -1.3187    0.0000 C   0  0  0  0  0  0  0  0  0  0  0  0
    0.6450   -0.5144    0.0000 C   0  0  2  0  0  0  0  0  0  0  0  0
    0.0000    0.0000    0.0000 C   0  0  0  0  0  0  0  0  0  0  0  0
   -0.7145   -0.4125    0.0000 C   0  0  0  0  0  0  0  0  0  0  0  0
   -1.4289    0.0000    0.0000 C   0  0  0  0  0  0  0  0  0  0  0  0
   -1.4289    0.8250    0.0000 C   0  0  0  0  0  0  0  0  0  0  0  0
   -0.7145    1.2375    0.0000 C   0  0  0  0  0  0  0  0  0  0  0  0
   -0.0000    0.8250    0.0000 C   0  0  0  0  0  0  0  0  0  0  0  0
    0.6450    1.3394    0.0000 C   0  0  0  0  0  0  0  0  0  0  0  0
    1.4493    1.1558    0.0000 N   0  0  0  0  0  0  0  0  0  0  0  0
    1.8073    0.4125    0.0000 N   0  0  0  0  0  0  0  0  0  0  0  0
    1.4493   -0.3308    0.0000 C   0  0  0  0  0  0  0  0  0  0  0  0
    1.9637   -0.9758    0.0000 C   0  0  0  0  0  0  0  0  0  0  0  0
    0.4614    2.1437    0.0000 C   0  0  0  0  0  0  0  0  0  0  0  0
   -0.3269    2.3869    0.0000 C   0  0  0  0  0  0  0  0  0  0  0  0
   -0.5105    3.1912    0.0000 C   0  0  0  0  0  0  0  0  0  0  0  0
    0.0943    3.7523    0.0000 C   0  0  0  0  0  0  0  0  0  0  0  0
    0.8826    3.5092    0.0000 C   0  0  0  0  0  0  0  0  0  0  0  0
    1.0662    2.7048    0.0000 C   0  0  0  0  0  0  0  0  0  0  0  0
    1.4874    4.0703    0.0000 O   0  0  0  0  0  0  0  0  0  0  0  0
    2.2757    3.8271    0.0000 C   0  0  0  0  0  0  0  0  0  0  0  0
   -0.0893    4.5566    0.0000 O   0  0  0  0  0  0  0  0  0  0  0  0
    0.5155    5.1178    0.0000 C   0  0  0  0  0  0  0  0  0  0  0  0
   -2.1434    1.2375    0.0000 O   0  0  0  0  0  0  0  0  0  0  0  0
   -2.1434    2.0625    0.0000 C   0  0  0  0  0  0  0  0  0  0  0  0
   -2.1434   -0.4125    0.0000 O   0  0  0  0  0  0  0  0  0  0  0  0
   -2.1434   -1.2375    0.0000 C   0  0  0  0  0  0  0  0  0  0  0  0
    0.8282   -2.9230    0.0000 H   0  0  0  0  0  0  0  0  0  0  0  0
    2.0886   -1.5643    0.0000 H   0  0  0  0  0  0  0  0  0  0  0  0
    1.8506   -2.6075    0.0000 H   0  0  0  0  0  0  0  0  0  0  0  0
   -0.5611   -1.6341    0.0000 H   0  0  0  0  0  0  0  0  0  0  0  0
   -0.3230   -0.5909    0.0000 H   0  0  0  0  0  0  0  0  0  0  0  0
   -0.3650   -0.8678    0.0000 H   0  0  0  0  0  0  0  0  0  0  0  0
   -0.7145   -1.4445    0.0000 H   0  0  0  0  0  0  0  0  0  0  0  0
   -0.7145    2.2695    0.0000 H   0  0  0  0  0  0  0  0  0  0  0  0
    1.5728   -1.9718    0.0000 H   0  0  0  0  0  0  0  0  0  0  0  0
    3.0217   -0.8163    0.0000 H   0  0  0  0  0  0  0  0  0  0  0  0
    2.6309   -1.8123    0.0000 H   0  0  0  0  0  0  0  0  0  0  0  0
   -1.0834    1.6850    0.0000 H   0  0  0  0  0  0  0  0  0  0  0  0
   -1.4966    3.4954    0.0000 H   0  0  0  0  0  0  0  0  0  0  0  0
    2.0523    2.4006    0.0000 H   0  0  0  0  0  0  0  0  0  0  0  0
    2.5137    2.7839    0.0000 H   0  0  0  0  0  0  0  0  0  0  0  0
    3.0601    4.5548    0.0000 H   0  0  0  0  0  0  0  0  0  0  0  0
    3.2981    3.5117    0.0000 H   0  0  0  0  0  0  0  0  0  0  0  0
    1.5380    4.8024    0.0000 H   0  0  0  0  0  0  0  0  0  0  0  0
    0.2774    6.1610    0.0000 H   0  0  0  0  0  0  0  0  0  0  0  0
    1.2998    5.8456    0.0000 H   0  0  0  0  0  0  0  0  0  0  0  0
   -1.2168    2.5975    0.0000 H   0  0  0  0  0  0  0  0  0  0  0  0
   -3.0700    2.5975    0.0000 H   0  0  0  0  0  0  0  0  0  0  0  0
   -2.1434    3.1325    0.0000 H   0  0  0  0  0  0  0  0  0  0  0  0
   -3.0700   -1.7725    0.0000 H   0  0  0  0  0  0  0  0  0  0  0  0
   -1.2168   -1.7725    0.0000 H   0  0  0  0  0  0  0  0  0  0  0  0
   -2.1434   -2.3075    0.0000 H   0  0  0  0  0  0  0  0  0  0  0  0
  1  2  1  0  0  0  0
  1 29  1  0  0  0  0
  1 30  1  0  0  0  0
  1 31  1  0  0  0  0
  2 32  1  0  0  0  0
  2 33  1  0  0  0  0
  3  2  1  0  0  0  0
  3  4  1  0  0  0  0
  3 13  1  0  0  0  0
  3 34  1  1  0  0  0
  4  5  2  0  0  0  0
  4  9  1  0  0  0  0
  5  6  1  0  0  0  0
  5 35  1  0  0  0  0
  6  7  2  0  0  0  0
  6 27  1  0  0  0  0
  7  8  1  0  0  0  0
  7 25  1  0  0  0  0
  8  9  2  0  0  0  0
  8 36  1  0  0  0  0
  9 10  1  0  0  0  0
 10 11  2  0  0  0  0
 10 15  1  0  0  0  0
 11 12  1  0  0  0  0
 12 13  2  0  0  0  0
 13 14  1  0  0  0  0
 14 37  1  0  0  0  0
 14 38  1  0  0  0  0
 14 39  1  0  0  0  0
 15 16  2  0  0  0  0
 15 20  1  0  0  0  0
 16 17  1  0  0  0  0
 16 40  1  0  0  0  0
 17 18  2  0  0  0  0
 17 41  1  0  0  0  0
 18 19  1  0  0  0  0
 18 23  1  0  0  0  0
 19 20  2  0  0  0  0
 19 21  1  0  0  0  0
 20 42  1  0  0  0  0
 21 22  1  0  0  0  0
 22 43  1  0  0  0  0
 22 44  1  0  0  0  0
 22 45  1  0  0  0  0
 23 24  1  0  0  0  0
 24 46  1  0  0  0  0
 24 47  1  0  0  0  0
 24 48  1  0  0  0  0
 25 26  1  0  0  0  0
 26 49  1  0  0  0  0
 26 50  1  0  0  0  0
 26 51  1  0  0  0  0
 27 28  1  0  0  0  0
 28 52  1  0  0  0  0
 28 53  1  0  0  0  0
 28 54  1  0  0  0  0
M  END
>  <DRUGBANK_ID>
DB06582

>  <COMMON_NAME>
Dextofisopam

>  <CAS_NUMBER>
82059-50-5

>  <UNII>
EZ15I5D6C1

>  <SYNONYMS>
Dextofisopam; R-tofisopam

$$$$
