
 OpenBabel10282417072D

 44 43  0  0  0  0  0  0  0  0999 V2000
    5.3625   -2.1434    0.0000 C   0  0  0  0  0  0  0  0  0  0  0  0
    4.5375   -1.3184    0.0000 C   0  0  0  0  0  0  0  0  0  0  0  0
    4.5375   -2.9684    0.0000 C   0  0  0  0  0  0  0  0  0  0  0  0
   -0.8250    0.0000    0.0000 C   0  0  0  0  0  0  0  0  0  0  0  0
    0.0000    0.8250    0.0000 C   0  0  0  0  0  0  0  0  0  0  0  0
    0.0000   -0.8250    0.0000 C   0  0  0  0  0  0  0  0  0  0  0  0
    2.4750   -1.4289    0.0000 C   0  0  0  0  0  0  0  0  0  0  0  0
    2.0625   -0.7144    0.0000 C   0  0  0  0  0  0  0  0  0  0  0  0
    3.3000   -1.4289    0.0000 C   0  0  0  0  0  0  0  0  0  0  0  0
    1.2375   -0.7144    0.0000 C   0  0  0  0  0  0  0  0  0  0  0  0
    3.7125   -2.1434    0.0000 C   0  0  0  0  0  0  0  0  0  0  0  0
    0.8250    0.0000    0.0000 C   0  0  0  0  0  0  0  0  0  0  0  0
    4.5375   -2.1434    0.0000 N   0  3  0  0  0  0  0  0  0  0  0  0
    0.0000    0.0000    0.0000 N   0  3  0  0  0  0  0  0  0  0  0  0
    5.8975   -3.0700    0.0000 H   0  0  0  0  0  0  0  0  0  0  0  0
    5.8975   -1.2168    0.0000 H   0  0  0  0  0  0  0  0  0  0  0  0
    6.4325   -2.1434    0.0000 H   0  0  0  0  0  0  0  0  0  0  0  0
    5.4641   -0.7834    0.0000 H   0  0  0  0  0  0  0  0  0  0  0  0
    3.6109   -0.7834    0.0000 H   0  0  0  0  0  0  0  0  0  0  0  0
    4.5375   -0.2484    0.0000 H   0  0  0  0  0  0  0  0  0  0  0  0
    3.6109   -3.5034    0.0000 H   0  0  0  0  0  0  0  0  0  0  0  0
    5.4641   -3.5034    0.0000 H   0  0  0  0  0  0  0  0  0  0  0  0
    4.5375   -4.0384    0.0000 H   0  0  0  0  0  0  0  0  0  0  0  0
   -1.3600    0.9266    0.0000 H   0  0  0  0  0  0  0  0  0  0  0  0
   -1.3600   -0.9266    0.0000 H   0  0  0  0  0  0  0  0  0  0  0  0
   -1.8950   -0.0000    0.0000 H   0  0  0  0  0  0  0  0  0  0  0  0
    0.9266    1.3600    0.0000 H   0  0  0  0  0  0  0  0  0  0  0  0
   -0.9266    1.3600    0.0000 H   0  0  0  0  0  0  0  0  0  0  0  0
   -0.0000    1.8950    0.0000 H   0  0  0  0  0  0  0  0  0  0  0  0
   -0.9266   -1.3600    0.0000 H   0  0  0  0  0  0  0  0  0  0  0  0
    0.9266   -1.3600    0.0000 H   0  0  0  0  0  0  0  0  0  0  0  0
    0.0000   -1.8950    0.0000 H   0  0  0  0  0  0  0  0  0  0  0  0
    1.9400   -2.3555    0.0000 H   0  0  0  0  0  0  0  0  0  0  0  0
    3.0100   -2.3555    0.0000 H   0  0  0  0  0  0  0  0  0  0  0  0
    2.5975    0.2122    0.0000 H   0  0  0  0  0  0  0  0  0  0  0  0
    1.5275    0.2122    0.0000 H   0  0  0  0  0  0  0  0  0  0  0  0
    3.8350   -0.5023    0.0000 H   0  0  0  0  0  0  0  0  0  0  0  0
    4.3700   -1.4289    0.0000 H   0  0  0  0  0  0  0  0  0  0  0  0
    0.7025   -1.6411    0.0000 H   0  0  0  0  0  0  0  0  0  0  0  0
    0.1675   -0.7144    0.0000 H   0  0  0  0  0  0  0  0  0  0  0  0
    3.1775   -3.0700    0.0000 H   0  0  0  0  0  0  0  0  0  0  0  0
    4.2475   -3.0700    0.0000 H   0  0  0  0  0  0  0  0  0  0  0  0
    1.3600    0.9267    0.0000 H   0  0  0  0  0  0  0  0  0  0  0  0
    0.2900    0.9266    0.0000 H   0  0  0  0  0  0  0  0  0  0  0  0
  1 15  1  0  0  0  0
  1 16  1  0  0  0  0
  1 17  1  0  0  0  0
  2 18  1  0  0  0  0
  2 19  1  0  0  0  0
  2 20  1  0  0  0  0
  3 21  1  0  0  0  0
  3 22  1  0  0  0  0
  3 23  1  0  0  0  0
  4 24  1  0  0  0  0
  4 25  1  0  0  0  0
  4 26  1  0  0  0  0
  5 27  1  0  0  0  0
  5 28  1  0  0  0  0
  5 29  1  0  0  0  0
  6 30  1  0  0  0  0
  6 31  1  0  0  0  0
  6 32  1  0  0  0  0
  7 33  1  0  0  0  0
  7 34  1  0  0  0  0
  8  7  1  0  0  0  0
  8 35  1  0  0  0  0
  8 36  1  0  0  0  0
  9  7  1  0  0  0  0
  9 37  1  0  0  0  0
  9 38  1  0  0  0  0
 10  8  1  0  0  0  0
 10 39  1  0  0  0  0
 10 40  1  0  0  0  0
 11  9  1  0  0  0  0
 11 41  1  0  0  0  0
 11 42  1  0  0  0  0
 12 10  1  0  0  0  0
 12 43  1  0  0  0  0
 12 44  1  0  0  0  0
 13  1  1  0  0  0  0
 13  2  1  0  0  0  0
 13  3  1  0  0  0  0
 13 11  1  0  0  0  0
 14  4  1  0  0  0  0
 14  5  1  0  0  0  0
 14  6  1  0  0  0  0
 14 12  1  0  0  0  0
M  CHG  2  13   1  14   1
M  END
>  <DRUGBANK_ID>
DB08960

>  <COMMON_NAME>
Hexamethonium

>  <CAS_NUMBER>
60-26-4

>  <UNII>
3C9PSP36Z2

>  <SYNONYMS>
N,N,N,N',N',N'-hexamethylhexane-1,6-diaminium

$$$$
