
 OpenBabel10282417072D

316316  0  0  1  0  0  0  0  0999 V2000
   37.2844   -0.6533    0.0000 C   0  0  0  0  0  0  0  0  0  0  0  0
   37.8670   -1.2375    0.0000 C   0  0  0  0  0  0  0  0  0  0  0  0
   38.6641   -1.0251    0.0000 C   0  0  0  0  0  0  0  0  0  0  0  0
   39.2467   -1.6092    0.0000 C   0  0  0  0  0  0  0  0  0  0  0  0
   40.0439   -1.3968    0.0000 C   0  0  0  0  0  0  0  0  0  0  0  0
   40.6264   -1.9810    0.0000 C   0  0  0  0  0  0  0  0  0  0  0  0
   41.4236   -1.7686    0.0000 C   0  0  0  0  0  0  0  0  0  0  0  0
   42.0062   -2.3527    0.0000 C   0  0  0  0  0  0  0  0  0  0  0  0
   42.8034   -2.1403    0.0000 C   0  0  0  0  0  0  0  0  0  0  0  0
   43.3859   -2.7245    0.0000 C   0  0  0  0  0  0  0  0  0  0  0  0
   44.1831   -2.5120    0.0000 C   0  0  0  0  0  0  0  0  0  0  0  0
   44.7657   -3.0962    0.0000 C   0  0  0  0  0  0  0  0  0  0  0  0
   45.5628   -2.8838    0.0000 C   0  0  0  0  0  0  0  0  0  0  0  0
   46.1454   -3.4680    0.0000 C   0  0  0  0  0  0  0  0  0  0  0  0
   46.9426   -3.2555    0.0000 C   0  0  0  0  0  0  0  0  0  0  0  0
   47.5251   -3.8397    0.0000 C   0  0  0  0  0  0  0  0  0  0  0  0
   47.3105   -4.6363    0.0000 O   0  0  0  0  0  0  0  0  0  0  0  0
   48.3223   -3.6273    0.0000 O   0  0  0  0  0  0  0  0  0  0  0  0
   48.9049   -4.2114    0.0000 C   0  0  0  0  0  0  0  0  0  0  0  0
   49.7021   -3.9990    0.0000 C   0  0  2  0  0  0  0  0  0  0  0  0
   50.2846   -4.5832    0.0000 C   0  0  0  0  0  0  0  0  0  0  0  0
   51.0818   -4.3708    0.0000 S   0  0  0  0  0  0  0  0  0  0  0  0
   51.6644   -4.9549    0.0000 C   0  0  0  0  0  0  0  0  0  0  0  0
   52.4615   -4.7425    0.0000 C   0  0  2  0  0  0  0  0  0  0  0  0
   52.6762   -3.9459    0.0000 N   0  0  0  0  0  0  0  0  0  0  0  0
   53.0441   -5.3267    0.0000 C   0  0  0  0  0  0  0  0  0  0  0  0
   52.8295   -6.1233    0.0000 O   0  0  0  0  0  0  0  0  0  0  0  0
   53.8413   -5.1143    0.0000 N   0  0  0  0  0  0  0  0  0  0  0  0
   54.4238   -5.6984    0.0000 C   0  0  0  0  0  0  0  0  0  0  0  0
   55.2210   -5.4860    0.0000 C   0  0  0  0  0  0  0  0  0  0  0  0
   55.4356   -4.6894    0.0000 O   0  0  0  0  0  0  0  0  0  0  0  0
   55.8036   -6.0702    0.0000 N   0  0  0  0  0  0  0  0  0  0  0  0
   56.6008   -5.8577    0.0000 C   0  0  1  0  0  0  0  0  0  0  0  0
   56.8154   -5.0611    0.0000 C   0  0  0  0  0  0  0  0  0  0  0  0
   57.6126   -4.8487    0.0000 C   0  0  0  0  0  0  0  0  0  0  0  0
   58.1951   -5.4329    0.0000 N   0  0  0  0  0  0  0  0  0  0  0  0
   57.8272   -4.0521    0.0000 O   0  0  0  0  0  0  0  0  0  0  0  0
   57.1833   -6.4419    0.0000 C   0  0  0  0  0  0  0  0  0  0  0  0
   56.9687   -7.2385    0.0000 O   0  0  0  0  0  0  0  0  0  0  0  0
   57.9805   -6.2295    0.0000 N   0  0  0  0  0  0  0  0  0  0  0  0
   58.5631   -6.8137    0.0000 C   0  0  1  0  0  0  0  0  0  0  0  0
   58.3484   -7.6102    0.0000 C   0  0  0  0  0  0  0  0  0  0  0  0
   58.9310   -8.1944    0.0000 C   0  0  0  0  0  0  0  0  0  0  0  0
   59.7282   -7.9820    0.0000 N   0  0  0  0  0  0  0  0  0  0  0  0
   58.7164   -8.9910    0.0000 O   0  0  0  0  0  0  0  0  0  0  0  0
   59.3602   -6.6012    0.0000 C   0  0  0  0  0  0  0  0  0  0  0  0
   59.5749   -5.8046    0.0000 O   0  0  0  0  0  0  0  0  0  0  0  0
   59.9428   -7.1854    0.0000 N   0  0  0  0  0  0  0  0  0  0  0  0
   60.7400   -6.9730    0.0000 C   0  0  1  0  0  0  0  0  0  0  0  0
   60.9546   -6.1764    0.0000 C   0  0  0  0  0  0  0  0  0  0  0  0
   61.7518   -5.9640    0.0000 C   0  0  0  0  0  0  0  0  0  0  0  0
   61.9664   -5.1674    0.0000 O   0  0  0  0  0  0  0  0  0  0  0  0
   62.3343   -6.5481    0.0000 O   0  0  0  0  0  0  0  0  0  0  0  0
   61.3225   -7.5571    0.0000 C   0  0  0  0  0  0  0  0  0  0  0  0
   61.1079   -8.3537    0.0000 O   0  0  0  0  0  0  0  0  0  0  0  0
   62.1197   -7.3447    0.0000 N   0  0  0  0  0  0  0  0  0  0  0  0
   62.7023   -7.9289    0.0000 C   0  0  1  0  0  0  0  0  0  0  0  0
   62.4877   -8.7255    0.0000 C   0  0  0  0  0  0  0  0  0  0  0  0
   63.0702   -9.3096    0.0000 C   0  0  0  0  0  0  0  0  0  0  0  0
   62.8556  -10.1062    0.0000 C   0  0  0  0  0  0  0  0  0  0  0  0
   62.0584  -10.3187    0.0000 O   0  0  0  0  0  0  0  0  0  0  0  0
   63.4381  -10.6904    0.0000 O   0  0  0  0  0  0  0  0  0  0  0  0
   63.4995   -7.7165    0.0000 C   0  0  0  0  0  0  0  0  0  0  0  0
   63.7141   -6.9199    0.0000 O   0  0  0  0  0  0  0  0  0  0  0  0
   64.0820   -8.3006    0.0000 N   0  0  0  0  0  0  0  0  0  0  0  0
   64.8792   -8.0882    0.0000 C   0  0  1  0  0  0  0  0  0  0  0  0
   65.0938   -7.2916    0.0000 C   0  0  0  0  0  0  0  0  0  0  0  0
   65.8910   -7.0792    0.0000 O   0  0  0  0  0  0  0  0  0  0  0  0
   65.4618   -8.6724    0.0000 C   0  0  0  0  0  0  0  0  0  0  0  0
   65.2471   -9.4690    0.0000 O   0  0  0  0  0  0  0  0  0  0  0  0
   66.2589   -8.4599    0.0000 N   0  0  0  0  0  0  0  0  0  0  0  0
   66.8415   -9.0441    0.0000 C   0  0  1  0  0  0  0  0  0  0  0  0
   66.6269   -9.8407    0.0000 C   0  0  0  0  0  0  0  0  0  0  0  0
   67.2094  -10.4249    0.0000 C   0  0  0  0  0  0  0  0  0  0  0  0
   66.9948  -11.2215    0.0000 N   0  0  0  0  0  0  0  0  0  0  0  0
   68.0066  -10.2124    0.0000 O   0  0  0  0  0  0  0  0  0  0  0  0
   67.6387   -8.8317    0.0000 C   0  0  0  0  0  0  0  0  0  0  0  0
   67.8533   -8.0351    0.0000 O   0  0  0  0  0  0  0  0  0  0  0  0
   68.2212   -9.4159    0.0000 N   0  0  0  0  0  0  0  0  0  0  0  0
   69.0184   -9.2034    0.0000 C   0  0  1  0  0  0  0  0  0  0  0  0
   69.2330   -8.4068    0.0000 C   0  0  1  0  0  0  0  0  0  0  0  0
   68.6505   -7.8227    0.0000 C   0  0  0  0  0  0  0  0  0  0  0  0
   70.0302   -8.1944    0.0000 C   0  0  0  0  0  0  0  0  0  0  0  0
   70.2449   -7.3978    0.0000 C   0  0  0  0  0  0  0  0  0  0  0  0
   69.6010   -9.7876    0.0000 C   0  0  0  0  0  0  0  0  0  0  0  0
   69.3863  -10.5842    0.0000 O   0  0  0  0  0  0  0  0  0  0  0  0
   70.3982   -9.5752    0.0000 N   0  0  0  0  0  0  0  0  0  0  0  0
   70.9807  -10.1593    0.0000 C   0  0  1  0  0  0  0  0  0  0  0  0
   70.7661  -10.9559    0.0000 C   0  0  0  0  0  0  0  0  0  0  0  0
   71.3486  -11.5401    0.0000 O   0  0  0  0  0  0  0  0  0  0  0  0
   71.7779   -9.9469    0.0000 C   0  0  0  0  0  0  0  0  0  0  0  0
   71.9925   -9.1503    0.0000 O   0  0  0  0  0  0  0  0  0  0  0  0
   72.3605  -10.5311    0.0000 N   0  0  0  0  0  0  0  0  0  0  0  0
   73.1576  -10.3187    0.0000 C   0  0  1  0  0  0  0  0  0  0  0  0
   73.7402  -10.9028    0.0000 C   0  0  0  0  0  0  0  0  0  0  0  0
   73.5256  -11.6994    0.0000 C   0  0  0  0  0  0  0  0  0  0  0  0
   74.1081  -12.2836    0.0000 C   0  0  0  0  0  0  0  0  0  0  0  0
   73.8935  -13.0802    0.0000 C   0  0  0  0  0  0  0  0  0  0  0  0
   73.0963  -13.2926    0.0000 C   0  0  0  0  0  0  0  0  0  0  0  0
   72.5138  -12.7084    0.0000 C   0  0  0  0  0  0  0  0  0  0  0  0
   72.7284  -11.9118    0.0000 C   0  0  0  0  0  0  0  0  0  0  0  0
   73.3723   -9.5221    0.0000 C   0  0  0  0  0  0  0  0  0  0  0  0
   74.1694   -9.3096    0.0000 O   0  0  0  0  0  0  0  0  0  0  0  0
   72.7897   -8.9379    0.0000 N   0  0  0  0  0  0  0  0  0  0  0  0
   73.0043   -8.1413    0.0000 C   0  0  1  0  0  0  0  0  0  0  0  0
   73.8015   -7.9289    0.0000 C   0  0  0  0  0  0  0  0  0  0  0  0
   74.0161   -7.1323    0.0000 C   0  0  0  0  0  0  0  0  0  0  0  0
   74.8133   -6.9199    0.0000 C   0  0  0  0  0  0  0  0  0  0  0  0
   75.0280   -6.1233    0.0000 C   0  0  0  0  0  0  0  0  0  0  0  0
   75.8251   -5.9108    0.0000 N   0  0  0  0  0  0  0  0  0  0  0  0
   72.4218   -7.5571    0.0000 C   0  0  0  0  0  0  0  0  0  0  0  0
   71.6246   -7.7696    0.0000 O   0  0  0  0  0  0  0  0  0  0  0  0
   72.6364   -6.7605    0.0000 N   0  0  0  0  0  0  0  0  0  0  0  0
   72.0538   -6.1764    0.0000 C   0  0  1  0  0  0  0  0  0  0  0  0
   71.2567   -6.3888    0.0000 C   0  0  0  0  0  0  0  0  0  0  0  0
   70.6741   -5.8046    0.0000 C   0  0  0  0  0  0  0  0  0  0  0  0
   69.8769   -6.0171    0.0000 C   0  0  0  0  0  0  0  0  0  0  0  0
   69.6623   -6.8137    0.0000 O   0  0  0  0  0  0  0  0  0  0  0  0
   69.2944   -5.4329    0.0000 O   0  0  0  0  0  0  0  0  0  0  0  0
   72.2685   -5.3798    0.0000 C   0  0  0  0  0  0  0  0  0  0  0  0
   73.0657   -5.1674    0.0000 O   0  0  0  0  0  0  0  0  0  0  0  0
   71.6859   -4.7956    0.0000 N   0  0  0  0  0  0  0  0  0  0  0  0
   71.9005   -3.9990    0.0000 C   0  0  1  0  0  0  0  0  0  0  0  0
   71.3180   -3.4149    0.0000 C   0  0  0  0  0  0  0  0  0  0  0  0
   71.5326   -2.6183    0.0000 C   0  0  0  0  0  0  0  0  0  0  0  0
   70.9501   -2.0341    0.0000 C   0  0  0  0  0  0  0  0  0  0  0  0
   71.1647   -1.2375    0.0000 C   0  0  0  0  0  0  0  0  0  0  0  0
   70.5821   -0.6533    0.0000 N   0  0  0  0  0  0  0  0  0  0  0  0
   72.6977   -3.7866    0.0000 C   0  0  0  0  0  0  0  0  0  0  0  0
   72.9124   -2.9900    0.0000 O   0  0  0  0  0  0  0  0  0  0  0  0
   73.2803   -4.3708    0.0000 O   0  0  0  0  0  0  0  0  0  0  0  0
   49.9167   -3.2024    0.0000 O   0  0  0  0  0  0  0  0  0  0  0  0
   49.3341   -2.6183    0.0000 C   0  0  0  0  0  0  0  0  0  0  0  0
   48.5369   -2.8307    0.0000 O   0  0  0  0  0  0  0  0  0  0  0  0
   49.5488   -1.8217    0.0000 C   0  0  0  0  0  0  0  0  0  0  0  0
   48.9662   -1.2375    0.0000 C   0  0  0  0  0  0  0  0  0  0  0  0
   49.1808   -0.4409    0.0000 C   0  0  0  0  0  0  0  0  0  0  0  0
   48.5983    0.1433    0.0000 C   0  0  0  0  0  0  0  0  0  0  0  0
   48.8129    0.9399    0.0000 C   0  0  0  0  0  0  0  0  0  0  0  0
   48.2303    1.5240    0.0000 C   0  0  0  0  0  0  0  0  0  0  0  0
   48.4450    2.3206    0.0000 C   0  0  0  0  0  0  0  0  0  0  0  0
   47.8624    2.9048    0.0000 C   0  0  0  0  0  0  0  0  0  0  0  0
   48.0770    3.7014    0.0000 C   0  0  0  0  0  0  0  0  0  0  0  0
   47.4945    4.2855    0.0000 C   0  0  0  0  0  0  0  0  0  0  0  0
   47.7091    5.0821    0.0000 C   0  0  0  0  0  0  0  0  0  0  0  0
   47.1265    5.6663    0.0000 C   0  0  0  0  0  0  0  0  0  0  0  0
   47.3412    6.4629    0.0000 C   0  0  0  0  0  0  0  0  0  0  0  0
   46.7586    7.0471    0.0000 C   0  0  0  0  0  0  0  0  0  0  0  0
   46.9732    7.8437    0.0000 C   0  0  0  0  0  0  0  0  0  0  0  0
   37.5628    0.3799    0.0000 H   0  0  0  0  0  0  0  0  0  0  0  0
   36.2505   -0.9288    0.0000 H   0  0  0  0  0  0  0  0  0  0  0  0
   36.5288    0.1043    0.0000 H   0  0  0  0  0  0  0  0  0  0  0  0
   37.5886   -2.2707    0.0000 H   0  0  0  0  0  0  0  0  0  0  0  0
   38.6226   -1.9951    0.0000 H   0  0  0  0  0  0  0  0  0  0  0  0
   38.9424    0.0081    0.0000 H   0  0  0  0  0  0  0  0  0  0  0  0
   39.6980   -0.7495    0.0000 H   0  0  0  0  0  0  0  0  0  0  0  0
   38.9684   -2.6424    0.0000 H   0  0  0  0  0  0  0  0  0  0  0  0
   40.0023   -2.3669    0.0000 H   0  0  0  0  0  0  0  0  0  0  0  0
   40.3223   -0.3637    0.0000 H   0  0  0  0  0  0  0  0  0  0  0  0
   41.0778   -1.1214    0.0000 H   0  0  0  0  0  0  0  0  0  0  0  0
   40.3480   -3.0141    0.0000 H   0  0  0  0  0  0  0  0  0  0  0  0
   41.3819   -2.7387    0.0000 H   0  0  0  0  0  0  0  0  0  0  0  0
   41.7019   -0.7354    0.0000 H   0  0  0  0  0  0  0  0  0  0  0  0
   42.4575   -1.4930    0.0000 H   0  0  0  0  0  0  0  0  0  0  0  0
   41.7279   -3.3859    0.0000 H   0  0  0  0  0  0  0  0  0  0  0  0
   42.7618   -3.1104    0.0000 H   0  0  0  0  0  0  0  0  0  0  0  0
   43.0818   -1.1072    0.0000 H   0  0  0  0  0  0  0  0  0  0  0  0
   43.8373   -1.8649    0.0000 H   0  0  0  0  0  0  0  0  0  0  0  0
   43.1075   -3.7577    0.0000 H   0  0  0  0  0  0  0  0  0  0  0  0
   44.1415   -3.4821    0.0000 H   0  0  0  0  0  0  0  0  0  0  0  0
   44.4614   -1.4788    0.0000 H   0  0  0  0  0  0  0  0  0  0  0  0
   45.2170   -2.2365    0.0000 H   0  0  0  0  0  0  0  0  0  0  0  0
   44.4873   -4.1294    0.0000 H   0  0  0  0  0  0  0  0  0  0  0  0
   45.5213   -3.8538    0.0000 H   0  0  0  0  0  0  0  0  0  0  0  0
   45.8412   -1.8506    0.0000 H   0  0  0  0  0  0  0  0  0  0  0  0
   46.5967   -2.6083    0.0000 H   0  0  0  0  0  0  0  0  0  0  0  0
   45.8671   -4.5012    0.0000 H   0  0  0  0  0  0  0  0  0  0  0  0
   46.9010   -4.2256    0.0000 H   0  0  0  0  0  0  0  0  0  0  0  0
   47.2210   -2.2223    0.0000 H   0  0  0  0  0  0  0  0  0  0  0  0
   47.9765   -2.9800    0.0000 H   0  0  0  0  0  0  0  0  0  0  0  0
   48.6266   -5.2446    0.0000 H   0  0  0  0  0  0  0  0  0  0  0  0
   49.6605   -4.9691    0.0000 H   0  0  0  0  0  0  0  0  0  0  0  0
   48.9465   -3.2414    0.0000 H   0  0  0  0  0  0  0  0  0  0  0  0
   50.0062   -5.6163    0.0000 H   0  0  0  0  0  0  0  0  0  0  0  0
   51.0401   -5.3409    0.0000 H   0  0  0  0  0  0  0  0  0  0  0  0
   51.3861   -5.9881    0.0000 H   0  0  0  0  0  0  0  0  0  0  0  0
   52.4200   -5.7125    0.0000 H   0  0  0  0  0  0  0  0  0  0  0  0
   51.7060   -3.9848    0.0000 H   0  0  0  0  0  0  0  0  0  0  0  0
   53.6618   -3.6833    0.0000 H   0  0  0  0  0  0  0  0  0  0  0  0
   51.9560   -3.2236    0.0000 H   0  0  0  0  0  0  0  0  0  0  0  0
   54.0974   -4.1637    0.0000 H   0  0  0  0  0  0  0  0  0  0  0  0
   54.1454   -6.7316    0.0000 H   0  0  0  0  0  0  0  0  0  0  0  0
   55.1793   -6.4561    0.0000 H   0  0  0  0  0  0  0  0  0  0  0  0
   55.5475   -7.0208    0.0000 H   0  0  0  0  0  0  0  0  0  0  0  0
   55.8452   -5.1001    0.0000 H   0  0  0  0  0  0  0  0  0  0  0  0
   56.0598   -4.3035    0.0000 H   0  0  0  0  0  0  0  0  0  0  0  0
   57.0938   -4.0279    0.0000 H   0  0  0  0  0  0  0  0  0  0  0  0
   57.9389   -6.3835    0.0000 H   0  0  0  0  0  0  0  0  0  0  0  0
   59.1464   -5.1795    0.0000 H   0  0  0  0  0  0  0  0  0  0  0  0
   58.2366   -5.2789    0.0000 H   0  0  0  0  0  0  0  0  0  0  0  0
   57.5292   -7.0892    0.0000 H   0  0  0  0  0  0  0  0  0  0  0  0
   57.3145   -7.8857    0.0000 H   0  0  0  0  0  0  0  0  0  0  0  0
   58.0700   -8.6434    0.0000 H   0  0  0  0  0  0  0  0  0  0  0  0
   60.4234   -8.6791    0.0000 H   0  0  0  0  0  0  0  0  0  0  0  0
   59.9844   -7.0314    0.0000 H   0  0  0  0  0  0  0  0  0  0  0  0
   59.6867   -8.1360    0.0000 H   0  0  0  0  0  0  0  0  0  0  0  0
   59.9844   -6.2154    0.0000 H   0  0  0  0  0  0  0  0  0  0  0  0
   60.1990   -5.4188    0.0000 H   0  0  0  0  0  0  0  0  0  0  0  0
   61.2330   -5.1432    0.0000 H   0  0  0  0  0  0  0  0  0  0  0  0
   62.8718   -4.9261    0.0000 H   0  0  0  0  0  0  0  0  0  0  0  0
   62.3758   -6.3941    0.0000 H   0  0  0  0  0  0  0  0  0  0  0  0
   61.6684   -8.2044    0.0000 H   0  0  0  0  0  0  0  0  0  0  0  0
   61.4538   -9.0010    0.0000 H   0  0  0  0  0  0  0  0  0  0  0  0
   62.2094   -9.7587    0.0000 H   0  0  0  0  0  0  0  0  0  0  0  0
   64.1041   -9.0341    0.0000 H   0  0  0  0  0  0  0  0  0  0  0  0
   63.8258  -10.0672    0.0000 H   0  0  0  0  0  0  0  0  0  0  0  0
   61.3967   -9.6553    0.0000 H   0  0  0  0  0  0  0  0  0  0  0  0
   63.8259   -9.2512    0.0000 H   0  0  0  0  0  0  0  0  0  0  0  0
   64.1236   -7.3306    0.0000 H   0  0  0  0  0  0  0  0  0  0  0  0
   64.3382   -6.5340    0.0000 H   0  0  0  0  0  0  0  0  0  0  0  0
   65.3722   -6.2584    0.0000 H   0  0  0  0  0  0  0  0  0  0  0  0
   66.5759   -7.7661    0.0000 H   0  0  0  0  0  0  0  0  0  0  0  0
   66.5150   -7.5093    0.0000 H   0  0  0  0  0  0  0  0  0  0  0  0
   65.8076   -9.3196    0.0000 H   0  0  0  0  0  0  0  0  0  0  0  0
   65.5930  -10.1162    0.0000 H   0  0  0  0  0  0  0  0  0  0  0  0
   66.3485  -10.8738    0.0000 H   0  0  0  0  0  0  0  0  0  0  0  0
   66.0435  -11.4750    0.0000 H   0  0  0  0  0  0  0  0  0  0  0  0
   67.6900  -11.9186    0.0000 H   0  0  0  0  0  0  0  0  0  0  0  0
   67.9651  -10.3665    0.0000 H   0  0  0  0  0  0  0  0  0  0  0  0
   68.2628   -8.4458    0.0000 H   0  0  0  0  0  0  0  0  0  0  0  0
   68.1991   -8.6823    0.0000 H   0  0  0  0  0  0  0  0  0  0  0  0
   68.9289   -6.7895    0.0000 H   0  0  0  0  0  0  0  0  0  0  0  0
   67.6166   -8.0982    0.0000 H   0  0  0  0  0  0  0  0  0  0  0  0
   67.8949   -7.0651    0.0000 H   0  0  0  0  0  0  0  0  0  0  0  0
   70.7857   -8.9521    0.0000 H   0  0  0  0  0  0  0  0  0  0  0  0
   71.0641   -7.9190    0.0000 H   0  0  0  0  0  0  0  0  0  0  0  0
   71.2788   -7.1224    0.0000 H   0  0  0  0  0  0  0  0  0  0  0  0
   69.4894   -6.6401    0.0000 H   0  0  0  0  0  0  0  0  0  0  0  0
   70.5234   -6.3647    0.0000 H   0  0  0  0  0  0  0  0  0  0  0  0
   70.6543   -8.6246    0.0000 H   0  0  0  0  0  0  0  0  0  0  0  0
   69.9468  -10.4348    0.0000 H   0  0  0  0  0  0  0  0  0  0  0  0
   69.7322  -11.2314    0.0000 H   0  0  0  0  0  0  0  0  0  0  0  0
   70.4877  -11.9890    0.0000 H   0  0  0  0  0  0  0  0  0  0  0  0
   71.0962  -12.4767    0.0000 H   0  0  0  0  0  0  0  0  0  0  0  0
   72.1044  -11.4817    0.0000 H   0  0  0  0  0  0  0  0  0  0  0  0
   72.8793  -11.3519    0.0000 H   0  0  0  0  0  0  0  0  0  0  0  0
   74.7741  -10.6272    0.0000 H   0  0  0  0  0  0  0  0  0  0  0  0
   74.4958  -11.6604    0.0000 H   0  0  0  0  0  0  0  0  0  0  0  0
   75.1053  -12.0179    0.0000 H   0  0  0  0  0  0  0  0  0  0  0  0
   74.6222  -13.8109    0.0000 H   0  0  0  0  0  0  0  0  0  0  0  0
   72.8278  -14.2891    0.0000 H   0  0  0  0  0  0  0  0  0  0  0  0
   71.5166  -12.9741    0.0000 H   0  0  0  0  0  0  0  0  0  0  0  0
   71.9997  -11.1811    0.0000 H   0  0  0  0  0  0  0  0  0  0  0  0
   71.8384   -9.1914    0.0000 H   0  0  0  0  0  0  0  0  0  0  0  0
   73.7599   -8.8989    0.0000 H   0  0  0  0  0  0  0  0  0  0  0  0
   74.5571   -8.6865    0.0000 H   0  0  0  0  0  0  0  0  0  0  0  0
   74.8354   -7.6534    0.0000 H   0  0  0  0  0  0  0  0  0  0  0  0
   73.2605   -6.3747    0.0000 H   0  0  0  0  0  0  0  0  0  0  0  0
   74.2945   -6.0991    0.0000 H   0  0  0  0  0  0  0  0  0  0  0  0
   75.5688   -7.6776    0.0000 H   0  0  0  0  0  0  0  0  0  0  0  0
   75.8472   -6.6445    0.0000 H   0  0  0  0  0  0  0  0  0  0  0  0
   74.2724   -5.3657    0.0000 H   0  0  0  0  0  0  0  0  0  0  0  0
   75.3063   -5.0901    0.0000 H   0  0  0  0  0  0  0  0  0  0  0  0
   76.5454   -6.6330    0.0000 H   0  0  0  0  0  0  0  0  0  0  0  0
   76.0903   -4.9259    0.0000 H   0  0  0  0  0  0  0  0  0  0  0  0
   73.5877   -6.5069    0.0000 H   0  0  0  0  0  0  0  0  0  0  0  0
   71.7755   -7.2096    0.0000 H   0  0  0  0  0  0  0  0  0  0  0  0
   70.9783   -7.4220    0.0000 H   0  0  0  0  0  0  0  0  0  0  0  0
   70.2228   -6.6643    0.0000 H   0  0  0  0  0  0  0  0  0  0  0  0
   70.9524   -4.7714    0.0000 H   0  0  0  0  0  0  0  0  0  0  0  0
   69.9185   -5.0470    0.0000 H   0  0  0  0  0  0  0  0  0  0  0  0
   68.7569   -7.0550    0.0000 H   0  0  0  0  0  0  0  0  0  0  0  0
   70.7346   -5.0491    0.0000 H   0  0  0  0  0  0  0  0  0  0  0  0
   70.8666   -4.2745    0.0000 H   0  0  0  0  0  0  0  0  0  0  0  0
   70.2841   -3.6904    0.0000 H   0  0  0  0  0  0  0  0  0  0  0  0
   70.5624   -2.6573    0.0000 H   0  0  0  0  0  0  0  0  0  0  0  0
   72.5665   -2.3428    0.0000 H   0  0  0  0  0  0  0  0  0  0  0  0
   71.8110   -1.5852    0.0000 H   0  0  0  0  0  0  0  0  0  0  0  0
   69.9162   -2.3096    0.0000 H   0  0  0  0  0  0  0  0  0  0  0  0
   70.1945   -1.2765    0.0000 H   0  0  0  0  0  0  0  0  0  0  0  0
   72.1986   -0.9620    0.0000 H   0  0  0  0  0  0  0  0  0  0  0  0
   71.4430   -0.2043    0.0000 H   0  0  0  0  0  0  0  0  0  0  0  0
   70.8474    0.3316    0.0000 H   0  0  0  0  0  0  0  0  0  0  0  0
   69.5965   -0.9159    0.0000 H   0  0  0  0  0  0  0  0  0  0  0  0
   73.8178   -2.7488    0.0000 H   0  0  0  0  0  0  0  0  0  0  0  0
   50.5827   -1.5462    0.0000 H   0  0  0  0  0  0  0  0  0  0  0  0
   49.8272   -0.7885    0.0000 H   0  0  0  0  0  0  0  0  0  0  0  0
   47.9323   -1.5130    0.0000 H   0  0  0  0  0  0  0  0  0  0  0  0
   48.2106   -0.4799    0.0000 H   0  0  0  0  0  0  0  0  0  0  0  0
   50.2147   -0.1654    0.0000 H   0  0  0  0  0  0  0  0  0  0  0  0
   49.4592    0.5922    0.0000 H   0  0  0  0  0  0  0  0  0  0  0  0
   47.5644   -0.1322    0.0000 H   0  0  0  0  0  0  0  0  0  0  0  0
   47.8427    0.9009    0.0000 H   0  0  0  0  0  0  0  0  0  0  0  0
   49.8468    1.2155    0.0000 H   0  0  0  0  0  0  0  0  0  0  0  0
   49.0912    1.9731    0.0000 H   0  0  0  0  0  0  0  0  0  0  0  0
   47.1964    1.2485    0.0000 H   0  0  0  0  0  0  0  0  0  0  0  0
   47.4748    2.2817    0.0000 H   0  0  0  0  0  0  0  0  0  0  0  0
   49.4789    2.5961    0.0000 H   0  0  0  0  0  0  0  0  0  0  0  0
   48.7234    3.3538    0.0000 H   0  0  0  0  0  0  0  0  0  0  0  0
   46.8285    2.6293    0.0000 H   0  0  0  0  0  0  0  0  0  0  0  0
   47.1068    3.6624    0.0000 H   0  0  0  0  0  0  0  0  0  0  0  0
   49.1109    3.9769    0.0000 H   0  0  0  0  0  0  0  0  0  0  0  0
   48.3553    4.7346    0.0000 H   0  0  0  0  0  0  0  0  0  0  0  0
   46.4606    4.0100    0.0000 H   0  0  0  0  0  0  0  0  0  0  0  0
   46.7389    5.0431    0.0000 H   0  0  0  0  0  0  0  0  0  0  0  0
   48.7430    5.3576    0.0000 H   0  0  0  0  0  0  0  0  0  0  0  0
   47.9874    6.1153    0.0000 H   0  0  0  0  0  0  0  0  0  0  0  0
   46.0926    5.3908    0.0000 H   0  0  0  0  0  0  0  0  0  0  0  0
   46.3710    6.4240    0.0000 H   0  0  0  0  0  0  0  0  0  0  0  0
   48.3751    6.7384    0.0000 H   0  0  0  0  0  0  0  0  0  0  0  0
   47.6196    7.4961    0.0000 H   0  0  0  0  0  0  0  0  0  0  0  0
   45.7247    6.7716    0.0000 H   0  0  0  0  0  0  0  0  0  0  0  0
   46.0030    7.8047    0.0000 H   0  0  0  0  0  0  0  0  0  0  0  0
   48.0071    8.1192    0.0000 H   0  0  0  0  0  0  0  0  0  0  0  0
   46.2176    8.6013    0.0000 H   0  0  0  0  0  0  0  0  0  0  0  0
   47.2515    8.8769    0.0000 H   0  0  0  0  0  0  0  0  0  0  0  0
  1  2  1  0  0  0  0
  1150  1  0  0  0  0
  1151  1  0  0  0  0
  1152  1  0  0  0  0
  2  3  1  0  0  0  0
  2153  1  0  0  0  0
  2154  1  0  0  0  0
  3  4  1  0  0  0  0
  3155  1  0  0  0  0
  3156  1  0  0  0  0
  4  5  1  0  0  0  0
  4157  1  0  0  0  0
  4158  1  0  0  0  0
  5  6  1  0  0  0  0
  5159  1  0  0  0  0
  5160  1  0  0  0  0
  6  7  1  0  0  0  0
  6161  1  0  0  0  0
  6162  1  0  0  0  0
  7  8  1  0  0  0  0
  7163  1  0  0  0  0
  7164  1  0  0  0  0
  8  9  1  0  0  0  0
  8165  1  0  0  0  0
  8166  1  0  0  0  0
  9 10  1  0  0  0  0
  9167  1  0  0  0  0
  9168  1  0  0  0  0
 10 11  1  0  0  0  0
 10169  1  0  0  0  0
 10170  1  0  0  0  0
 11 12  1  0  0  0  0
 11171  1  0  0  0  0
 11172  1  0  0  0  0
 12 13  1  0  0  0  0
 12173  1  0  0  0  0
 12174  1  0  0  0  0
 13 14  1  0  0  0  0
 13175  1  0  0  0  0
 13176  1  0  0  0  0
 14 15  1  0  0  0  0
 14177  1  0  0  0  0
 14178  1  0  0  0  0
 15 16  1  0  0  0  0
 15179  1  0  0  0  0
 15180  1  0  0  0  0
 16 17  2  0  0  0  0
 16 18  1  0  0  0  0
 18 19  1  0  0  0  0
 19181  1  0  0  0  0
 19182  1  0  0  0  0
 20 19  1  0  0  0  0
 20 21  1  0  0  0  0
 20132  1  0  0  0  0
 20183  1  6  0  0  0
 21 22  1  0  0  0  0
 21184  1  0  0  0  0
 21185  1  0  0  0  0
 22 23  1  0  0  0  0
 23186  1  0  0  0  0
 23187  1  0  0  0  0
 24 23  1  0  0  0  0
 24 25  1  0  0  0  0
 24 26  1  0  0  0  0
 24188  1  1  0  0  0
 25189  1  0  0  0  0
 25190  1  0  0  0  0
 26 27  2  0  0  0  0
 26 28  1  0  0  0  0
 28 29  1  0  0  0  0
 28191  1  0  0  0  0
 29 30  1  0  0  0  0
 29192  1  0  0  0  0
 29193  1  0  0  0  0
 30 31  2  0  0  0  0
 30 32  1  0  0  0  0
 32194  1  0  0  0  0
 33 32  1  0  0  0  0
 33 34  1  0  0  0  0
 33 38  1  0  0  0  0
 33195  1  6  0  0  0
 34 35  1  0  0  0  0
 34196  1  0  0  0  0
 34197  1  0  0  0  0
 35 36  1  0  0  0  0
 35 37  2  0  0  0  0
 36198  1  0  0  0  0
 36199  1  0  0  0  0
 38 39  2  0  0  0  0
 38 40  1  0  0  0  0
 40200  1  0  0  0  0
 41 40  1  0  0  0  0
 41 42  1  0  0  0  0
 41 46  1  0  0  0  0
 41201  1  1  0  0  0
 42 43  1  0  0  0  0
 42202  1  0  0  0  0
 42203  1  0  0  0  0
 43 44  1  0  0  0  0
 43 45  2  0  0  0  0
 44204  1  0  0  0  0
 44205  1  0  0  0  0
 46 47  2  0  0  0  0
 46 48  1  0  0  0  0
 48206  1  0  0  0  0
 49 48  1  0  0  0  0
 49 50  1  0  0  0  0
 49 54  1  0  0  0  0
 49207  1  6  0  0  0
 50 51  1  0  0  0  0
 50208  1  0  0  0  0
 50209  1  0  0  0  0
 51 52  1  0  0  0  0
 51 53  2  0  0  0  0
 52210  1  0  0  0  0
 54 55  2  0  0  0  0
 54 56  1  0  0  0  0
 56211  1  0  0  0  0
 57 56  1  0  0  0  0
 57 58  1  0  0  0  0
 57 63  1  0  0  0  0
 57212  1  1  0  0  0
 58 59  1  0  0  0  0
 58213  1  0  0  0  0
 58214  1  0  0  0  0
 59 60  1  0  0  0  0
 59215  1  0  0  0  0
 59216  1  0  0  0  0
 60 61  1  0  0  0  0
 60 62  2  0  0  0  0
 61217  1  0  0  0  0
 63 64  2  0  0  0  0
 63 65  1  0  0  0  0
 65218  1  0  0  0  0
 66 65  1  0  0  0  0
 66 67  1  0  0  0  0
 66 69  1  0  0  0  0
 66219  1  6  0  0  0
 67 68  1  0  0  0  0
 67220  1  0  0  0  0
 67221  1  0  0  0  0
 68222  1  0  0  0  0
 69 70  2  0  0  0  0
 69 71  1  0  0  0  0
 71223  1  0  0  0  0
 72 71  1  0  0  0  0
 72 73  1  0  0  0  0
 72 77  1  0  0  0  0
 72224  1  1  0  0  0
 73 74  1  0  0  0  0
 73225  1  0  0  0  0
 73226  1  0  0  0  0
 74 75  1  0  0  0  0
 74 76  2  0  0  0  0
 75227  1  0  0  0  0
 75228  1  0  0  0  0
 77 78  2  0  0  0  0
 77 79  1  0  0  0  0
 79229  1  0  0  0  0
 80 79  1  0  0  0  0
 80 81  1  0  0  0  0
 80 85  1  0  0  0  0
 80230  1  6  0  0  0
 81 82  1  0  0  0  0
 81 83  1  0  0  0  0
 81231  1  6  0  0  0
 82232  1  0  0  0  0
 82233  1  0  0  0  0
 82234  1  0  0  0  0
 83 84  1  0  0  0  0
 83235  1  0  0  0  0
 83236  1  0  0  0  0
 84237  1  0  0  0  0
 84238  1  0  0  0  0
 84239  1  0  0  0  0
 85 86  2  0  0  0  0
 85 87  1  0  0  0  0
 87240  1  0  0  0  0
 88 87  1  0  0  0  0
 88 89  1  0  0  0  0
 88 91  1  0  0  0  0
 88241  1  1  0  0  0
 89 90  1  0  0  0  0
 89242  1  0  0  0  0
 89243  1  0  0  0  0
 90244  1  0  0  0  0
 91 92  2  0  0  0  0
 91 93  1  0  0  0  0
 93245  1  0  0  0  0
 94 93  1  0  0  0  0
 94 95  1  0  0  0  0
 94102  1  0  0  0  0
 94246  1  1  0  0  0
 95 96  1  0  0  0  0
 95247  1  0  0  0  0
 95248  1  0  0  0  0
 96 97  2  0  0  0  0
 96101  1  0  0  0  0
 97 98  1  0  0  0  0
 97249  1  0  0  0  0
 98 99  2  0  0  0  0
 98250  1  0  0  0  0
 99100  1  0  0  0  0
 99251  1  0  0  0  0
100101  2  0  0  0  0
100252  1  0  0  0  0
101253  1  0  0  0  0
102103  2  0  0  0  0
102104  1  0  0  0  0
104254  1  0  0  0  0
105104  1  0  0  0  0
105106  1  0  0  0  0
105111  1  0  0  0  0
105255  1  1  0  0  0
106107  1  0  0  0  0
106256  1  0  0  0  0
106257  1  0  0  0  0
107108  1  0  0  0  0
107258  1  0  0  0  0
107259  1  0  0  0  0
108109  1  0  0  0  0
108260  1  0  0  0  0
108261  1  0  0  0  0
109110  1  0  0  0  0
109262  1  0  0  0  0
109263  1  0  0  0  0
110264  1  0  0  0  0
110265  1  0  0  0  0
111112  2  0  0  0  0
111113  1  0  0  0  0
113266  1  0  0  0  0
114113  1  0  0  0  0
114115  1  0  0  0  0
114120  1  0  0  0  0
114267  1  6  0  0  0
115116  1  0  0  0  0
115268  1  0  0  0  0
115269  1  0  0  0  0
116117  1  0  0  0  0
116270  1  0  0  0  0
116271  1  0  0  0  0
117118  1  0  0  0  0
117119  2  0  0  0  0
118272  1  0  0  0  0
120121  2  0  0  0  0
120122  1  0  0  0  0
122273  1  0  0  0  0
123122  1  0  0  0  0
123124  1  0  0  0  0
123129  1  0  0  0  0
123274  1  6  0  0  0
124125  1  0  0  0  0
124275  1  0  0  0  0
124276  1  0  0  0  0
125126  1  0  0  0  0
125277  1  0  0  0  0
125278  1  0  0  0  0
126127  1  0  0  0  0
126279  1  0  0  0  0
126280  1  0  0  0  0
127128  1  0  0  0  0
127281  1  0  0  0  0
127282  1  0  0  0  0
128283  1  0  0  0  0
128284  1  0  0  0  0
129130  1  0  0  0  0
129131  2  0  0  0  0
130285  1  0  0  0  0
132133  1  0  0  0  0
133134  2  0  0  0  0
133135  1  0  0  0  0
135136  1  0  0  0  0
135286  1  0  0  0  0
135287  1  0  0  0  0
136137  1  0  0  0  0
136288  1  0  0  0  0
136289  1  0  0  0  0
137138  1  0  0  0  0
137290  1  0  0  0  0
137291  1  0  0  0  0
138139  1  0  0  0  0
138292  1  0  0  0  0
138293  1  0  0  0  0
139140  1  0  0  0  0
139294  1  0  0  0  0
139295  1  0  0  0  0
140141  1  0  0  0  0
140296  1  0  0  0  0
140297  1  0  0  0  0
141142  1  0  0  0  0
141298  1  0  0  0  0
141299  1  0  0  0  0
142143  1  0  0  0  0
142300  1  0  0  0  0
142301  1  0  0  0  0
143144  1  0  0  0  0
143302  1  0  0  0  0
143303  1  0  0  0  0
144145  1  0  0  0  0
144304  1  0  0  0  0
144305  1  0  0  0  0
145146  1  0  0  0  0
145306  1  0  0  0  0
145307  1  0  0  0  0
146147  1  0  0  0  0
146308  1  0  0  0  0
146309  1  0  0  0  0
147148  1  0  0  0  0
147310  1  0  0  0  0
147311  1  0  0  0  0
148149  1  0  0  0  0
148312  1  0  0  0  0
148313  1  0  0  0  0
149314  1  0  0  0  0
149315  1  0  0  0  0
149316  1  0  0  0  0
M  END
>  <DRUGBANK_ID>
DB18482

>  <COMMON_NAME>
MALP-2

>  <CAS_NUMBER>
250718-44-6

>  <UNII>
DZX5IUA94D

>  <SYNONYMS>
L-lysine, s-((2r)-2,3-bis((1-oxohexadecyl)oxy)propyl)-l-cysteinylglycyl-l-asparaginyl-l-asparaginyl-l-.alpha.-aspartyl-l-.alpha.-glutamyl-l-seryl-l-asparaginyl-l-isoleucyl-l-seryl-l-phenylalanyl-l-lysyl-l-.alpha.-glutamyl-; Macrophage-activating lipopeptide-2; S-(2,3-bispalmitoyloxy-(2r)-propyl)-cysteinly-gnndesnisfkek; S-[2,3-bispalmitoyloxy-(2R)-propyl]-cysteinly-GNNDESNISFKEK

$$$$
