
 OpenBabel10282417072D

 27 27  0  0  0  0  0  0  0  0999 V2000
    0.7137    0.4152    0.0000 C   0  0  0  0  0  0  0  0  0  0  0  0
   -0.0041    0.8278    0.0000 C   0  0  0  0  0  0  0  0  0  0  0  0
   -0.7138    0.4152    0.0000 C   0  0  0  0  0  0  0  0  0  0  0  0
   -1.4290    0.8267    0.0000 N   0  0  0  0  0  0  0  0  0  0  0  0
   -2.1454    0.4116    0.0000 N   0  0  0  0  0  0  0  0  0  0  0  0
   -2.8566    0.8217    0.0000 C   0  0  0  0  0  0  0  0  0  0  0  0
   -3.5730    0.4067    0.0000 N   0  0  0  0  0  0  0  0  0  0  0  0
   -2.8573    1.6469    0.0000 N   0  0  0  0  0  0  0  0  0  0  0  0
   -0.7138   -0.4098    0.0000 C   0  0  0  0  0  0  0  0  0  0  0  0
   -0.0041   -0.8224    0.0000 C   0  0  0  0  0  0  0  0  0  0  0  0
    0.7137   -0.4098    0.0000 C   0  0  0  0  0  0  0  0  0  0  0  0
    1.4279   -0.8231    0.0000 N   0  0  0  0  0  0  0  0  0  0  0  0
    2.1454   -0.4098    0.0000 N   0  0  0  0  0  0  0  0  0  0  0  0
    2.8554   -0.8217    0.0000 C   0  0  0  0  0  0  0  0  0  0  0  0
    3.5730   -0.4084    0.0000 S   0  0  0  0  0  0  0  0  0  0  0  0
    2.8542   -1.6469    0.0000 N   0  0  0  0  0  0  0  0  0  0  0  0
    1.6069    0.9321    0.0000 H   0  0  0  0  0  0  0  0  0  0  0  0
   -0.0066    1.8598    0.0000 H   0  0  0  0  0  0  0  0  0  0  0  0
   -2.1444   -0.5729    0.0000 H   0  0  0  0  0  0  0  0  0  0  0  0
   -4.4263    0.8977    0.0000 H   0  0  0  0  0  0  0  0  0  0  0  0
   -2.0051    2.1399    0.0000 H   0  0  0  0  0  0  0  0  0  0  0  0
   -3.7103    2.1384    0.0000 H   0  0  0  0  0  0  0  0  0  0  0  0
   -1.6083   -0.9245    0.0000 H   0  0  0  0  0  0  0  0  0  0  0  0
   -0.0066   -1.8544    0.0000 H   0  0  0  0  0  0  0  0  0  0  0  0
    2.1469    0.5747    0.0000 H   0  0  0  0  0  0  0  0  0  0  0  0
    2.0009   -2.1379    0.0000 H   0  0  0  0  0  0  0  0  0  0  0  0
    3.7061   -2.1404    0.0000 H   0  0  0  0  0  0  0  0  0  0  0  0
  1  2  2  0  0  0  0
  1 17  1  0  0  0  0
  2  3  1  0  0  0  0
  2 18  1  0  0  0  0
  3  4  2  0  0  0  0
  3  9  1  0  0  0  0
  4  5  1  0  0  0  0
  5  6  1  0  0  0  0
  5 19  1  0  0  0  0
  6  7  2  0  0  0  0
  6  8  1  0  0  0  0
  7 20  1  0  0  0  0
  8 21  1  0  0  0  0
  8 22  1  0  0  0  0
  9 10  2  0  0  0  0
  9 23  1  0  0  0  0
 10 11  1  0  0  0  0
 10 24  1  0  0  0  0
 11  1  1  0  0  0  0
 11 12  2  0  0  0  0
 12 13  1  0  0  0  0
 13 14  1  0  0  0  0
 13 25  1  0  0  0  0
 14 15  2  0  0  0  0
 14 16  1  0  0  0  0
 16 26  1  0  0  0  0
 16 27  1  0  0  0  0
M  END
>  <DRUGBANK_ID>
DB13697

>  <COMMON_NAME>
Ambazone

>  <CAS_NUMBER>
539-21-9

>  <UNII>
BYK4592A3Q

>  <SYNONYMS>
Ambazona; Ambazone; Ambazonum

$$$$
