1115
 OpenBabel10282417072D

 43 44  0  0  0  0  0  0  0  0999 V2000
    6.6515   -0.5693    0.0000 O   0  0  0  0  0  0  0  0  0  0  0  0
    2.3645   -0.5693    0.0000 O   0  0  0  0  0  0  0  0  0  0  0  0
    5.9370    0.6683    0.0000 O   0  0  0  0  0  0  0  0  0  0  0  0
    3.0791    0.6683    0.0000 O   0  0  0  0  0  0  0  0  0  0  0  0
    5.9370    2.3183    0.0000 O   0  5  0  0  0  0  0  0  0  0  0  0
    6.6515    1.0808    0.0000 O   0  0  0  0  0  0  0  0  0  0  0  0
    4.5080   -1.8068    0.0000 N   0  0  0  0  0  0  0  0  0  0  0  0
    5.9370    1.4933    0.0000 N   0  3  0  0  0  0  0  0  0  0  0  0
    4.5080   -0.1568    0.0000 C   0  0  3  0  0  0  0  0  0  0  0  0
    5.2224   -0.5693    0.0000 C   0  0  0  0  0  0  0  0  0  0  0  0
    3.7935   -0.5693    0.0000 C   0  0  0  0  0  0  0  0  0  0  0  0
    4.5080    0.6683    0.0000 C   0  0  0  0  0  0  0  0  0  0  0  0
    5.2224   -1.3943    0.0000 C   0  0  0  0  0  0  0  0  0  0  0  0
    3.7935   -1.3943    0.0000 C   0  0  0  0  0  0  0  0  0  0  0  0
    5.2224    1.0808    0.0000 C   0  0  0  0  0  0  0  0  0  0  0  0
    3.7935    1.0808    0.0000 C   0  0  0  0  0  0  0  0  0  0  0  0
    5.9370   -0.1568    0.0000 C   0  0  0  0  0  0  0  0  0  0  0  0
    3.0791   -0.1568    0.0000 C   0  0  0  0  0  0  0  0  0  0  0  0
    5.9370   -1.8068    0.0000 C   0  0  0  0  0  0  0  0  0  0  0  0
    3.0791   -1.8068    0.0000 C   0  0  0  0  0  0  0  0  0  0  0  0
    5.2224    1.9058    0.0000 C   0  0  0  0  0  0  0  0  0  0  0  0
    3.7935    1.9058    0.0000 C   0  0  0  0  0  0  0  0  0  0  0  0
    4.5080    2.3183    0.0000 C   0  0  0  0  0  0  0  0  0  0  0  0
    7.3659   -0.1568    0.0000 C   0  0  0  0  0  0  0  0  0  0  0  0
    1.6500   -0.1568    0.0000 C   0  0  0  0  0  0  0  0  0  0  0  0
    4.5080   -2.7913    0.0000 H   0  0  0  0  0  0  0  0  0  0  0  0
    4.5080   -1.2268    0.0000 H   0  0  0  0  0  0  0  0  0  0  0  0
    2.8998    0.5648    0.0000 H   0  0  0  0  0  0  0  0  0  0  0  0
    5.9371   -2.8768    0.0000 H   0  0  0  0  0  0  0  0  0  0  0  0
    6.8636   -1.2717    0.0000 H   0  0  0  0  0  0  0  0  0  0  0  0
    6.8637   -2.3417    0.0000 H   0  0  0  0  0  0  0  0  0  0  0  0
    2.1524   -1.2718    0.0000 H   0  0  0  0  0  0  0  0  0  0  0  0
    3.0791   -2.8768    0.0000 H   0  0  0  0  0  0  0  0  0  0  0  0
    2.1525   -2.3418    0.0000 H   0  0  0  0  0  0  0  0  0  0  0  0
    6.1161    2.4218    0.0000 H   0  0  0  0  0  0  0  0  0  0  0  0
    2.8998    2.4218    0.0000 H   0  0  0  0  0  0  0  0  0  0  0  0
    4.5080    3.3503    0.0000 H   0  0  0  0  0  0  0  0  0  0  0  0
    8.2926   -0.6918    0.0000 H   0  0  0  0  0  0  0  0  0  0  0  0
    7.3659    0.9132    0.0000 H   0  0  0  0  0  0  0  0  0  0  0  0
    8.2925    0.3782    0.0000 H   0  0  0  0  0  0  0  0  0  0  0  0
    1.6500    0.9132    0.0000 H   0  0  0  0  0  0  0  0  0  0  0  0
    0.7234   -0.6918    0.0000 H   0  0  0  0  0  0  0  0  0  0  0  0
    0.7233    0.3782    0.0000 H   0  0  0  0  0  0  0  0  0  0  0  0
  1 17  1  0  0  0  0
  1 24  1  0  0  0  0
  2 18  1  0  0  0  0
  2 25  1  0  0  0  0
  3 17  2  0  0  0  0
  4 18  2  0  0  0  0
  5  8  1  0  0  0  0
  6  8  2  0  0  0  0
  7 13  1  0  0  0  0
  7 14  1  0  0  0  0
  7 26  1  0  0  0  0
  8 15  1  0  0  0  0
  9 10  1  0  0  0  0
  9 11  1  0  0  0  0
  9 12  1  0  0  0  0
  9 27  1  0  0  0  0
 10 13  2  0  0  0  0
 10 17  1  0  0  0  0
 11 14  2  0  0  0  0
 11 18  1  0  0  0  0
 12 15  1  0  0  0  0
 12 16  2  0  0  0  0
 13 19  1  0  0  0  0
 14 20  1  0  0  0  0
 15 21  2  0  0  0  0
 16 22  1  0  0  0  0
 16 28  1  0  0  0  0
 19 29  1  0  0  0  0
 19 30  1  0  0  0  0
 19 31  1  0  0  0  0
 20 32  1  0  0  0  0
 20 33  1  0  0  0  0
 20 34  1  0  0  0  0
 21 23  1  0  0  0  0
 21 35  1  0  0  0  0
 22 23  2  0  0  0  0
 22 36  1  0  0  0  0
 23 37  1  0  0  0  0
 24 38  1  0  0  0  0
 24 39  1  0  0  0  0
 24 40  1  0  0  0  0
 25 41  1  0  0  0  0
 25 42  1  0  0  0  0
 25 43  1  0  0  0  0
M  CHG  2   5  -1   8   1
M  END
>  <DRUGBANK_ID>
DB01115

>  <SECONDARY_ACCESSION_NUMBERS>
APRD00590

>  <COMMON_NAME>
Nifedipine

>  <CAS_NUMBER>
21829-25-4

>  <UNII>
I9ZF7L6G2L

>  <SYNONYMS>
4-(2'-Nitrophenyl)-2,6-dimethyl-1,4-dihydropyridin-3,5-dicarbons√§uredimethylester; Nifedipine; Nifedipino; Nifedipinum

$$$$
