
 OpenBabel10282417072D

 40 41  0  0  0  0  0  0  0  0999 V2000
   -2.3858   -1.0235    0.0000 C   0  0  0  0  0  0  0  0  0  0  0  0
   -1.0804   -0.4423    0.0000 C   0  0  0  0  0  0  0  0  0  0  0  0
   -2.0502   -1.7772    0.0000 C   0  0  0  0  0  0  0  0  0  0  0  0
   -0.7448   -1.1960    0.0000 C   0  0  0  0  0  0  0  0  0  0  0  0
   -2.0535    3.5721    0.0000 C   0  0  0  0  0  0  0  0  0  0  0  0
   -2.7679    3.1596    0.0000 C   0  0  0  0  0  0  0  0  0  0  0  0
   -2.2364    0.3976    0.0000 C   0  0  0  0  0  0  0  0  0  0  0  0
    0.1131    2.1046    0.0000 C   0  0  0  0  0  0  0  0  0  0  0  0
   -1.9009   -0.3561    0.0000 C   0  0  0  0  0  0  0  0  0  0  0  0
   -1.2297   -1.8634    0.0000 C   0  0  0  0  0  0  0  0  0  0  0  0
   -1.3390    3.1596    0.0000 C   0  0  0  0  0  0  0  0  0  0  0  0
   -1.7515    1.0650    0.0000 C   0  0  0  0  0  0  0  0  0  0  0  0
   -3.4824    3.5721    0.0000 C   0  0  0  0  0  0  0  0  0  0  0  0
    0.7262    1.5526    0.0000 C   0  0  0  0  0  0  0  0  0  0  0  0
   -1.3390    2.3346    0.0000 C   0  0  0  0  0  0  0  0  0  0  0  0
   -0.9265    1.0650    0.0000 C   0  0  0  0  0  0  0  0  0  0  0  0
   -0.6245    3.5721    0.0000 N   0  0  0  0  0  0  0  0  0  0  0  0
   -2.0064    1.8496    0.0000 N   0  0  0  0  0  0  0  0  0  0  0  0
   -0.6716    1.8496    0.0000 N   0  0  0  0  0  0  0  0  0  0  0  0
   -0.8942   -2.6171    0.0000 O   0  0  0  0  0  0  0  0  0  0  0  0
   -4.1969    3.1596    0.0000 O   0  0  0  0  0  0  0  0  0  0  0  0
   -3.4824    4.3971    0.0000 O   0  0  0  0  0  0  0  0  0  0  0  0
    1.5108    1.8075    0.0000 O   0  0  0  0  0  0  0  0  0  0  0  0
    0.5546    0.7456    0.0000 O   0  0  0  0  0  0  0  0  0  0  0  0
   -0.4416    0.3976    0.0000 O   0  0  0  0  0  0  0  0  0  0  0  0
   -3.0569    0.4838    0.0000 H   0  0  0  0  0  0  0  0  0  0  0  0
    0.0900    3.1596    0.0000 H   0  0  0  0  0  0  0  0  0  0  0  0
   -3.4121   -0.9156    0.0000 H   0  0  0  0  0  0  0  0  0  0  0  0
   -0.4738    0.3926    0.0000 H   0  0  0  0  0  0  0  0  0  0  0  0
   -2.6568   -2.6121    0.0000 H   0  0  0  0  0  0  0  0  0  0  0  0
    0.2815   -1.3039    0.0000 H   0  0  0  0  0  0  0  0  0  0  0  0
   -2.0535    4.6421    0.0000 H   0  0  0  0  0  0  0  0  0  0  0  0
   -1.1269    4.1071    0.0000 H   0  0  0  0  0  0  0  0  0  0  0  0
   -2.7679    2.0896    0.0000 H   0  0  0  0  0  0  0  0  0  0  0  0
   -3.6945    2.6246    0.0000 H   0  0  0  0  0  0  0  0  0  0  0  0
    0.3355    3.1512    0.0000 H   0  0  0  0  0  0  0  0  0  0  0  0
   -0.6821    2.8205    0.0000 H   0  0  0  0  0  0  0  0  0  0  0  0
   -1.4450   -3.3751    0.0000 H   0  0  0  0  0  0  0  0  0  0  0  0
   -2.6709    4.8656    0.0000 H   0  0  0  0  0  0  0  0  0  0  0  0
   -0.3366    0.4561    0.0000 H   0  0  0  0  0  0  0  0  0  0  0  0
  1 28  1  0  0  0  0
  2 29  1  0  0  0  0
  3  1  1  0  0  0  0
  3 30  1  0  0  0  0
  4  2  2  0  0  0  0
  4 31  1  0  0  0  0
  5 32  1  0  0  0  0
  5 33  1  0  0  0  0
  6  5  1  0  0  0  0
  6 34  1  0  0  0  0
  6 35  1  0  0  0  0
  8 36  1  0  0  0  0
  8 37  1  0  0  0  0
  9  1  2  0  0  0  0
  9  2  1  0  0  0  0
  9  7  1  0  0  0  0
 10  3  2  0  0  0  0
 10  4  1  0  0  0  0
 11  5  1  0  0  0  0
 12  7  2  0  0  0  0
 13  6  1  0  0  0  0
 14  8  1  0  0  0  0
 15 11  1  0  0  0  0
 16 12  1  0  0  0  0
 17 11  2  0  0  0  0
 18 12  1  0  0  0  0
 18 15  2  0  0  0  0
 19  8  1  0  0  0  0
 19 15  1  0  0  0  0
 19 16  1  0  0  0  0
 20 10  1  0  0  0  0
 20 38  1  0  0  0  0
 21 13  2  0  0  0  0
 22 13  1  0  0  0  0
 22 39  1  0  0  0  0
 23 14  2  0  0  0  0
 24 14  1  0  0  0  0
 24 40  1  0  0  0  0
 25 16  2  0  0  0  0
 26  7  1  0  0  0  0
 27 17  1  0  0  0  0
M  END
>  <DRUGBANK_ID>
DB04668

>  <COMMON_NAME>
CHROMOPHORE (GLU-TYR-GLY)

$$$$
