
 OpenBabel10282417072D

 45 48  0  0  1  0  0  0  0  0999 V2000
    7.5775    1.7429    0.0000 O   0  0  0  0  0  0  0  0  0  0  0  0
    8.6275    0.2949    0.0000 O   0  0  0  0  0  0  0  0  0  0  0  0
    2.0917   -1.8105    0.0000 O   0  0  0  0  0  0  0  0  0  0  0  0
    6.5406    0.7074    0.0000 C   0  0  1  0  0  0  0  0  0  0  0  0
    6.5406   -0.1176    0.0000 C   0  0  2  0  0  0  0  0  0  0  0  0
    5.8262   -0.5300    0.0000 C   0  0  1  0  0  0  0  0  0  0  0  0
    5.1119   -0.1176    0.0000 C   0  0  2  0  0  0  0  0  0  0  0  0
    7.3211    0.9588    0.0000 C   0  0  2  0  0  0  0  0  0  0  0  0
    5.8262    1.1199    0.0000 C   0  0  0  0  0  0  0  0  0  0  0  0
    7.3211   -0.3689    0.0000 C   0  0  0  0  0  0  0  0  0  0  0  0
    7.8026    0.2949    0.0000 C   0  0  1  0  0  0  0  0  0  0  0  0
    5.1119    0.7074    0.0000 C   0  0  0  0  0  0  0  0  0  0  0  0
    5.8395   -1.3891    0.0000 C   0  0  0  0  0  0  0  0  0  0  0  0
    6.5406    1.5323    0.0000 C   0  0  0  0  0  0  0  0  0  0  0  0
    4.3612   -0.5356    0.0000 C   0  0  0  0  0  0  0  0  0  0  0  0
    5.0987   -1.8245    0.0000 C   0  0  0  0  0  0  0  0  0  0  0  0
    4.3545   -1.3948    0.0000 C   0  0  0  0  0  0  0  0  0  0  0  0
    3.5966   -0.0703    0.0000 C   0  0  0  0  0  0  0  0  0  0  0  0
    3.5829   -1.8483    0.0000 C   0  0  0  0  0  0  0  0  0  0  0  0
    2.8147   -0.5058    0.0000 C   0  0  0  0  0  0  0  0  0  0  0  0
    2.8078   -1.4008    0.0000 C   0  0  0  0  0  0  0  0  0  0  0  0
    6.6105   -0.7738    0.0000 H   0  0  0  0  0  0  0  0  0  0  0  0
    6.4003   -0.8555    0.0000 H   0  0  0  0  0  0  0  0  0  0  0  0
    5.6833    0.2124    0.0000 H   0  0  0  0  0  0  0  0  0  0  0  0
    8.5267    1.9428    0.0000 H   0  0  0  0  0  0  0  0  0  0  0  0
    9.1125   -0.5451    0.0000 H   0  0  0  0  0  0  0  0  0  0  0  0
    1.2821   -1.3388    0.0000 H   0  0  0  0  0  0  0  0  0  0  0  0
    6.5662    1.7171    0.0000 H   0  0  0  0  0  0  0  0  0  0  0  0
    5.8262    2.1899    0.0000 H   0  0  0  0  0  0  0  0  0  0  0  0
    4.8995    1.6548    0.0000 H   0  0  0  0  0  0  0  0  0  0  0  0
    7.6535   -1.3860    0.0000 H   0  0  0  0  0  0  0  0  0  0  0  0
    8.3781   -0.5350    0.0000 H   0  0  0  0  0  0  0  0  0  0  0  0
    8.2888    1.2481    0.0000 H   0  0  0  0  0  0  0  0  0  0  0  0
    4.1852    1.2424    0.0000 H   0  0  0  0  0  0  0  0  0  0  0  0
    5.1118    1.7774    0.0000 H   0  0  0  0  0  0  0  0  0  0  0  0
    6.7723   -1.9133    0.0000 H   0  0  0  0  0  0  0  0  0  0  0  0
    5.8499   -2.4590    0.0000 H   0  0  0  0  0  0  0  0  0  0  0  0
    7.4672    2.0673    0.0000 H   0  0  0  0  0  0  0  0  0  0  0  0
    5.6140    2.0673    0.0000 H   0  0  0  0  0  0  0  0  0  0  0  0
    6.5406    2.6023    0.0000 H   0  0  0  0  0  0  0  0  0  0  0  0
    5.1028   -2.8945    0.0000 H   0  0  0  0  0  0  0  0  0  0  0  0
    4.1731   -2.3613    0.0000 H   0  0  0  0  0  0  0  0  0  0  0  0
    3.6165    0.9615    0.0000 H   0  0  0  0  0  0  0  0  0  0  0  0
    3.5869   -2.8803    0.0000 H   0  0  0  0  0  0  0  0  0  0  0  0
    1.9270    0.0205    0.0000 H   0  0  0  0  0  0  0  0  0  0  0  0
  1 25  1  0  0  0  0
  2 26  1  0  0  0  0
  3 21  1  0  0  0  0
  3 27  1  0  0  0  0
  4  5  1  0  0  0  0
  4  8  1  0  0  0  0
  4  9  1  0  0  0  0
  4 14  1  1  0  0  0
  5  6  1  0  0  0  0
  5 10  1  0  0  0  0
  5 22  1  6  0  0  0
  6  7  1  0  0  0  0
  6 13  1  0  0  0  0
  6 23  1  1  0  0  0
  7 12  1  0  0  0  0
  7 15  1  0  0  0  0
  7 24  1  6  0  0  0
  8  1  1  0  0  0  0
  8 11  1  0  0  0  0
  8 28  1  6  0  0  0
  9 12  1  0  0  0  0
  9 29  1  0  0  0  0
  9 30  1  0  0  0  0
 10 11  1  0  0  0  0
 10 31  1  0  0  0  0
 10 32  1  0  0  0  0
 11  2  1  0  0  0  0
 11 33  1  1  0  0  0
 12 34  1  0  0  0  0
 12 35  1  0  0  0  0
 13 16  1  0  0  0  0
 13 36  1  0  0  0  0
 13 37  1  0  0  0  0
 14 38  1  0  0  0  0
 14 39  1  0  0  0  0
 14 40  1  0  0  0  0
 15 17  2  0  0  0  0
 15 18  1  0  0  0  0
 16 17  1  0  0  0  0
 16 41  1  0  0  0  0
 16 42  1  0  0  0  0
 17 19  1  0  0  0  0
 18 20  2  0  0  0  0
 18 43  1  0  0  0  0
 19 21  2  0  0  0  0
 19 44  1  0  0  0  0
 20 21  1  0  0  0  0
 20 45  1  0  0  0  0
M  END
>  <DRUGBANK_ID>
DB04573

>  <SECONDARY_ACCESSION_NUMBERS>
EXPT01361; DB05375

>  <COMMON_NAME>
Estriol

>  <CAS_NUMBER>
50-27-1

>  <UNII>
FB33469R8E

>  <SYNONYMS>
(16α,17β)-estra-1,3,5(10)-triene-3,16,17-triol; 1,3,5(10)-Estratriene-3,16-alpha,17beta-triol; 16-alpha-Hydroxyestradiol; 16alpha-hydroxyestradiol; 16α-hydroxyestradiol; 16α,17β-estriol; 3,16alpha,17beta-Trihydroxy-delta(1,3,5)-estratriene; Estriol; Oestriol; Östriol; Trihydroxyestrin

$$$$
