
 OpenBabel10282417072D

 71 71  0  0  1  0  0  0  0  0999 V2000
   10.7879    5.4274    0.0000 Cl  0  0  0  0  0  0  0  0  0  0  0  0
    7.9804    5.4616    0.0000 O   0  0  0  0  0  0  0  0  0  0  0  0
    8.6949    9.1742    0.0000 O   0  0  0  0  0  0  0  0  0  0  0  0
    0.4430    5.4274    0.0000 O   0  0  0  0  0  0  0  0  0  0  0  0
    4.4080    4.2241    0.0000 N   0  0  0  0  0  0  0  0  0  0  0  0
    6.5514    5.4616    0.0000 N   0  0  0  0  0  0  0  0  0  0  0  0
    7.2659    9.1742    0.0000 N   0  0  0  0  0  0  0  0  0  0  0  0
    5.1225    4.6366    0.0000 C   0  0  0  0  0  0  0  0  0  0  0  0
    5.8369    4.2241    0.0000 C   0  0  0  0  0  0  0  0  0  0  0  0
    5.1225    5.4616    0.0000 C   0  0  0  0  0  0  0  0  0  0  0  0
    6.5514    4.6366    0.0000 C   0  0  0  0  0  0  0  0  0  0  0  0
    5.8369    5.8741    0.0000 C   0  0  0  0  0  0  0  0  0  0  0  0
    4.4080    3.3991    0.0000 C   0  0  0  0  0  0  0  0  0  0  0  0
    3.6934    4.6366    0.0000 C   0  0  0  0  0  0  0  0  0  0  0  0
    7.2659    5.8741    0.0000 C   0  0  0  0  0  0  0  0  0  0  0  0
    3.6934    2.9866    0.0000 C   0  0  0  0  0  0  0  0  0  0  0  0
    7.2659    6.6991    0.0000 C   0  0  0  0  0  0  0  0  0  0  0  0
    3.6934    2.1615    0.0000 C   0  0  0  0  0  0  0  0  0  0  0  0
    6.5514    7.1117    0.0000 C   0  0  0  0  0  0  0  0  0  0  0  0
    7.9804    7.1117    0.0000 C   0  0  0  0  0  0  0  0  0  0  0  0
    6.5514    7.9367    0.0000 C   0  0  0  0  0  0  0  0  0  0  0  0
    7.9804    7.9367    0.0000 C   0  0  0  0  0  0  0  0  0  0  0  0
    7.2659    8.3492    0.0000 C   0  0  0  0  0  0  0  0  0  0  0  0
    2.9790    1.7490    0.0000 C   0  0  0  0  0  0  0  0  0  0  0  0
    4.4080    1.7490    0.0000 C   0  0  0  0  0  0  0  0  0  0  0  0
    5.8369    8.3492    0.0000 C   0  0  0  0  0  0  0  0  0  0  0  0
    8.6949    8.3492    0.0000 C   0  0  0  0  0  0  0  0  0  0  0  0
    2.9790    0.9240    0.0000 C   0  0  0  0  0  0  0  0  0  0  0  0
    4.4080    0.9240    0.0000 C   0  0  0  0  0  0  0  0  0  0  0  0
    3.6934    0.5115    0.0000 C   0  0  0  0  0  0  0  0  0  0  0  0
    7.9804    9.5867    0.0000 C   0  0  0  0  0  0  0  0  0  0  0  0
    7.9804   10.4117    0.0000 C   0  0  0  0  0  0  0  0  0  0  0  0
    8.6949   10.8242    0.0000 C   0  0  0  0  0  0  0  0  0  0  0  0
   12.0159    5.4274    0.0000 H   0  0  0  0  0  0  0  0  0  0  0  0
    1.4130    5.4274    0.0000 H   0  0  0  0  0  0  0  0  0  0  0  0
   -0.0420    6.2674    0.0000 H   0  0  0  0  0  0  0  0  0  0  0  0
    6.4133    9.6665    0.0000 H   0  0  0  0  0  0  0  0  0  0  0  0
    6.0492    5.1716    0.0000 H   0  0  0  0  0  0  0  0  0  0  0  0
    5.8369    3.1541    0.0000 H   0  0  0  0  0  0  0  0  0  0  0  0
    6.7635    3.6891    0.0000 H   0  0  0  0  0  0  0  0  0  0  0  0
    4.1958    5.9966    0.0000 H   0  0  0  0  0  0  0  0  0  0  0  0
    5.1225    6.5316    0.0000 H   0  0  0  0  0  0  0  0  0  0  0  0
    7.4780    4.1016    0.0000 H   0  0  0  0  0  0  0  0  0  0  0  0
    6.5514    3.5666    0.0000 H   0  0  0  0  0  0  0  0  0  0  0  0
    5.8369    6.9441    0.0000 H   0  0  0  0  0  0  0  0  0  0  0  0
    4.9102    6.4091    0.0000 H   0  0  0  0  0  0  0  0  0  0  0  0
    5.3346    2.8641    0.0000 H   0  0  0  0  0  0  0  0  0  0  0  0
    4.4079    2.3291    0.0000 H   0  0  0  0  0  0  0  0  0  0  0  0
    3.6933    5.7066    0.0000 H   0  0  0  0  0  0  0  0  0  0  0  0
    2.7668    4.1015    0.0000 H   0  0  0  0  0  0  0  0  0  0  0  0
    2.7667    5.1715    0.0000 H   0  0  0  0  0  0  0  0  0  0  0  0
    2.7668    3.5216    0.0000 H   0  0  0  0  0  0  0  0  0  0  0  0
    2.7667    2.4516    0.0000 H   0  0  0  0  0  0  0  0  0  0  0  0
    5.6576    6.5957    0.0000 H   0  0  0  0  0  0  0  0  0  0  0  0
    8.8742    6.5957    0.0000 H   0  0  0  0  0  0  0  0  0  0  0  0
    2.0853    2.2650    0.0000 H   0  0  0  0  0  0  0  0  0  0  0  0
    5.3017    2.2650    0.0000 H   0  0  0  0  0  0  0  0  0  0  0  0
    5.8369    9.4192    0.0000 H   0  0  0  0  0  0  0  0  0  0  0  0
    4.9103    7.8142    0.0000 H   0  0  0  0  0  0  0  0  0  0  0  0
    4.9102    8.8842    0.0000 H   0  0  0  0  0  0  0  0  0  0  0  0
    9.6215    7.8142    0.0000 H   0  0  0  0  0  0  0  0  0  0  0  0
    8.6949    9.4192    0.0000 H   0  0  0  0  0  0  0  0  0  0  0  0
    9.6216    8.8842    0.0000 H   0  0  0  0  0  0  0  0  0  0  0  0
    2.0853    0.4080    0.0000 H   0  0  0  0  0  0  0  0  0  0  0  0
    5.3017    0.4080    0.0000 H   0  0  0  0  0  0  0  0  0  0  0  0
    3.6933   -0.5205    0.0000 H   0  0  0  0  0  0  0  0  0  0  0  0
    7.0538   10.9467    0.0000 H   0  0  0  0  0  0  0  0  0  0  0  0
    7.9804   11.4817    0.0000 H   0  0  0  0  0  0  0  0  0  0  0  0
    9.6215   10.2892    0.0000 H   0  0  0  0  0  0  0  0  0  0  0  0
    8.6949   11.8942    0.0000 H   0  0  0  0  0  0  0  0  0  0  0  0
    9.6216   11.3592    0.0000 H   0  0  0  0  0  0  0  0  0  0  0  0
  1 34  1  0  0  0  0
  2 15  2  0  0  0  0
  3 31  2  0  0  0  0
  4 35  1  0  0  0  0
  4 36  1  0  0  0  0
  5  8  1  0  0  0  0
  5 13  1  0  0  0  0
  5 14  1  0  0  0  0
  6 11  1  0  0  0  0
  6 12  1  0  0  0  0
  6 15  1  0  0  0  0
  7 23  1  0  0  0  0
  7 31  1  0  0  0  0
  7 37  1  0  0  0  0
  8  9  1  0  0  0  0
  8 10  1  0  0  0  0
  8 38  1  0  0  0  0
  9 11  1  0  0  0  0
  9 39  1  0  0  0  0
  9 40  1  0  0  0  0
 10 12  1  0  0  0  0
 10 41  1  0  0  0  0
 10 42  1  0  0  0  0
 11 43  1  0  0  0  0
 11 44  1  0  0  0  0
 12 45  1  0  0  0  0
 12 46  1  0  0  0  0
 13 16  1  0  0  0  0
 13 47  1  0  0  0  0
 13 48  1  0  0  0  0
 14 49  1  0  0  0  0
 14 50  1  0  0  0  0
 14 51  1  0  0  0  0
 15 17  1  0  0  0  0
 16 18  1  0  0  0  0
 16 52  1  0  0  0  0
 16 53  1  0  0  0  0
 17 19  2  0  0  0  0
 17 20  1  0  0  0  0
 18 24  2  0  0  0  0
 18 25  1  0  0  0  0
 19 21  1  0  0  0  0
 19 54  1  0  0  0  0
 20 22  2  0  0  0  0
 20 55  1  0  0  0  0
 21 23  2  0  0  0  0
 21 26  1  0  0  0  0
 22 23  1  0  0  0  0
 22 27  1  0  0  0  0
 24 28  1  0  0  0  0
 24 56  1  0  0  0  0
 25 29  2  0  0  0  0
 25 57  1  0  0  0  0
 26 58  1  0  0  0  0
 26 59  1  0  0  0  0
 26 60  1  0  0  0  0
 27 61  1  0  0  0  0
 27 62  1  0  0  0  0
 27 63  1  0  0  0  0
 28 30  2  0  0  0  0
 28 64  1  0  0  0  0
 29 30  1  0  0  0  0
 29 65  1  0  0  0  0
 30 66  1  0  0  0  0
 31 32  1  0  0  0  0
 32 33  1  0  0  0  0
 32 67  1  0  0  0  0
 32 68  1  0  0  0  0
 33 69  1  0  0  0  0
 33 70  1  0  0  0  0
 33 71  1  0  0  0  0
M  END
>  <DRUGBANK_ID>
DB05461

>  <COMMON_NAME>
OPC-28326

>  <UNII>
FR0M0E7AZM

$$$$
