
 OpenBabel10282417072D

 64 68  0  0  0  0  0  0  0  0999 V2000
   -1.0924    0.4461    0.0000 N   0  0  0  0  0  0  0  0  0  0  0  0
   -0.4441    0.0100    0.0000 C   0  0  0  0  0  0  0  0  0  0  0  0
   -1.8349    0.1986    0.0000 C   0  0  2  0  0  0  0  0  0  0  0  0
   -0.7211    1.2711    0.0000 N   0  0  0  0  0  0  0  0  0  0  0  0
    0.2688    0.4049    0.0000 C   0  0  0  0  0  0  0  0  0  0  0  0
   -0.4732   -0.9151    0.0000 N   0  0  0  0  0  0  0  0  0  0  0  0
   -2.4949    0.6937    0.0000 C   0  0  0  0  0  0  0  0  0  0  0  0
   -2.0824   -0.5439    0.0000 C   0  0  1  0  0  0  0  0  0  0  0  0
    0.1451    1.1474    0.0000 N   0  0  0  0  0  0  0  0  0  0  0  0
    0.9701   -0.0076    0.0000 C   0  0  0  0  0  0  0  0  0  0  0  0
    0.2275   -1.3276    0.0000 C   0  0  0  0  0  0  0  0  0  0  0  0
   -3.1549    0.2399    0.0000 C   0  0  1  0  0  0  0  0  0  0  0  0
   -2.9075   -0.5439    0.0000 C   0  0  1  0  0  0  0  0  0  0  0  0
   -1.6286   -1.2039    0.0000 O   0  0  0  0  0  0  0  0  0  0  0  0
    0.9698   -0.8738    0.0000 N   0  0  0  0  0  0  0  0  0  0  0  0
    1.7126    0.4049    0.0000 N   0  0  0  0  0  0  0  0  0  0  0  0
   -3.9388    0.4874    0.0000 O   0  0  0  0  0  0  0  0  0  0  0  0
   -3.1549   -1.2864    0.0000 O   0  0  0  0  0  0  0  0  0  0  0  0
    0.2280   -2.1115    0.0000 S   0  0  0  0  0  0  0  0  0  0  0  0
    0.9288   -2.5239    0.0000 C   0  0  0  0  0  0  0  0  0  0  0  0
    1.6301   -2.1115    0.0000 C   0  0  0  0  0  0  0  0  0  0  0  0
   -4.6531    0.0749    0.0000 C   0  0  0  0  0  0  0  0  0  0  0  0
   -5.3677    0.4874    0.0000 C   0  0  0  0  0  0  0  0  0  0  0  0
   -6.0822    0.0749    0.0000 O   0  0  0  0  0  0  0  0  0  0  0  0
    2.3480   -2.5181    0.0000 C   0  0  0  0  0  0  0  0  0  0  0  0
    2.4271   -0.0076    0.0000 C   0  0  1  0  0  0  0  0  0  0  0  0
    3.2549    0.0151    0.0000 C   0  0  1  0  0  0  0  0  0  0  0  0
    2.8229   -0.7286    0.0000 C   0  0  0  0  0  0  0  0  0  0  0  0
    3.9742    0.4426    0.0000 C   0  0  0  0  0  0  0  0  0  0  0  0
    3.9635    1.2864    0.0000 C   0  0  0  0  0  0  0  0  0  0  0  0
    4.6726    1.7080    0.0000 C   0  0  0  0  0  0  0  0  0  0  0  0
    5.3919    1.3045    0.0000 C   0  0  0  0  0  0  0  0  0  0  0  0
    5.4031    0.4607    0.0000 C   0  0  0  0  0  0  0  0  0  0  0  0
    4.6937    0.0391    0.0000 C   0  0  0  0  0  0  0  0  0  0  0  0
    4.6624    2.5239    0.0000 F   0  0  0  0  0  0  0  0  0  0  0  0
    6.0822    1.7144    0.0000 F   0  0  0  0  0  0  0  0  0  0  0  0
   -1.6635    1.2548    0.0000 H   0  0  0  0  0  0  0  0  0  0  0  0
   -2.4728    1.7635    0.0000 H   0  0  0  0  0  0  0  0  0  0  0  0
   -3.4367    1.2016    0.0000 H   0  0  0  0  0  0  0  0  0  0  0  0
   -1.0229   -0.3943    0.0000 H   0  0  0  0  0  0  0  0  0  0  0  0
   -3.3130    1.2982    0.0000 H   0  0  0  0  0  0  0  0  0  0  0  0
   -2.2818   -1.4119    0.0000 H   0  0  0  0  0  0  0  0  0  0  0  0
   -2.0460   -2.0795    0.0000 H   0  0  0  0  0  0  0  0  0  0  0  0
    1.7207    1.3894    0.0000 H   0  0  0  0  0  0  0  0  0  0  0  0
   -4.1052   -1.4810    0.0000 H   0  0  0  0  0  0  0  0  0  0  0  0
    0.9286   -3.5939    0.0000 H   0  0  0  0  0  0  0  0  0  0  0  0
    1.8575   -3.0553    0.0000 H   0  0  0  0  0  0  0  0  0  0  0  0
    1.6214   -1.0415    0.0000 H   0  0  0  0  0  0  0  0  0  0  0  0
    2.5523   -1.5689    0.0000 H   0  0  0  0  0  0  0  0  0  0  0  0
   -4.6530   -0.9951    0.0000 H   0  0  0  0  0  0  0  0  0  0  0  0
   -5.5797   -0.4602    0.0000 H   0  0  0  0  0  0  0  0  0  0  0  0
   -5.3677    1.5574    0.0000 H   0  0  0  0  0  0  0  0  0  0  0  0
   -6.2944    1.0224    0.0000 H   0  0  0  0  0  0  0  0  0  0  0  0
   -6.9222    0.5599    0.0000 H   0  0  0  0  0  0  0  0  0  0  0  0
    2.3569   -3.5881    0.0000 H   0  0  0  0  0  0  0  0  0  0  0  0
    3.2702   -1.9755    0.0000 H   0  0  0  0  0  0  0  0  0  0  0  0
    3.2790   -3.0454    0.0000 H   0  0  0  0  0  0  0  0  0  0  0  0
    2.6898    1.0296    0.0000 H   0  0  0  0  0  0  0  0  0  0  0  0
    2.9573    1.0429    0.0000 H   0  0  0  0  0  0  0  0  0  0  0  0
    2.8100   -1.7985    0.0000 H   0  0  0  0  0  0  0  0  0  0  0  0
    1.7848   -0.9881    0.0000 H   0  0  0  0  0  0  0  0  0  0  0  0
    3.0633    1.7910    0.0000 H   0  0  0  0  0  0  0  0  0  0  0  0
    6.3034   -0.0437    0.0000 H   0  0  0  0  0  0  0  0  0  0  0  0
    4.7067   -0.9928    0.0000 H   0  0  0  0  0  0  0  0  0  0  0  0
  1  2  1  0  0  0  0
  1  4  1  0  0  0  0
  2  5  2  0  0  0  0
  2  6  1  0  0  0  0
  3  1  1  0  0  0  0
  3  7  1  0  0  0  0
  3  8  1  0  0  0  0
  3 37  1  6  0  0  0
  4  9  2  0  0  0  0
  5 10  1  0  0  0  0
  5  9  1  0  0  0  0
  6 11  2  0  0  0  0
  7 12  1  0  0  0  0
  7 38  1  0  0  0  0
  7 39  1  0  0  0  0
  8 13  1  0  0  0  0
  8 14  1  0  0  0  0
  8 40  1  1  0  0  0
 10 15  2  0  0  0  0
 10 16  1  0  0  0  0
 11 15  1  0  0  0  0
 11 19  1  0  0  0  0
 12 17  1  0  0  0  0
 12 13  1  0  0  0  0
 12 41  1  6  0  0  0
 13 18  1  0  0  0  0
 13 42  1  1  0  0  0
 14 43  1  0  0  0  0
 16 44  1  0  0  0  0
 17 22  1  0  0  0  0
 18 45  1  0  0  0  0
 19 20  1  0  0  0  0
 20 21  1  0  0  0  0
 20 46  1  0  0  0  0
 20 47  1  0  0  0  0
 21 25  1  0  0  0  0
 21 48  1  0  0  0  0
 21 49  1  0  0  0  0
 22 23  1  0  0  0  0
 22 50  1  0  0  0  0
 22 51  1  0  0  0  0
 23 24  1  0  0  0  0
 23 52  1  0  0  0  0
 23 53  1  0  0  0  0
 24 54  1  0  0  0  0
 25 55  1  0  0  0  0
 25 56  1  0  0  0  0
 25 57  1  0  0  0  0
 26 27  1  0  0  0  0
 26 16  1  0  0  0  0
 26 58  1  6  0  0  0
 27 28  1  0  0  0  0
 27 29  1  0  0  0  0
 27 59  1  1  0  0  0
 28 26  1  0  0  0  0
 28 60  1  0  0  0  0
 28 61  1  0  0  0  0
 29 30  2  0  0  0  0
 29 34  1  0  0  0  0
 30 31  1  0  0  0  0
 30 62  1  0  0  0  0
 31 32  2  0  0  0  0
 31 35  1  0  0  0  0
 32 33  1  0  0  0  0
 32 36  1  0  0  0  0
 33 34  2  0  0  0  0
 33 63  1  0  0  0  0
 34 64  1  0  0  0  0
M  END
>  <DRUGBANK_ID>
DB08816

>  <SECONDARY_ACCESSION_NUMBERS>
DB04902

>  <COMMON_NAME>
Ticagrelor

>  <CAS_NUMBER>
274693-27-5

>  <UNII>
GLH0314RVC

>  <SYNONYMS>
(1S,2S,3R,5S)-3-(7-((1R,2S)-2-(3,4-Difluorophenyl)cyclopropylamino)-5-(propylthio)-3H-(1,2,3)triazolo(4,5-d)pyrimidin-3-yl)-5-(2-hydroxyethoxy)cyclopentane-1,2-diol; Ticagrelor

$$$$
