
 OpenBabel10282417072D

 48 51  0  0  0  0  0  0  0  0999 V2000
    3.9934    0.8250    0.0000 C   0  0  0  0  0  0  0  0  0  0  0  0
   11.1381    0.8250    0.0000 C   0  0  0  0  0  0  0  0  0  0  0  0
   10.4236   -0.4125    0.0000 C   0  0  0  0  0  0  0  0  0  0  0  0
   10.4236    1.2375    0.0000 C   0  0  0  0  0  0  0  0  0  0  0  0
    9.7092    0.0000    0.0000 C   0  0  0  0  0  0  0  0  0  0  0  0
    3.2789    1.2375    0.0000 C   0  0  0  0  0  0  0  0  0  0  0  0
    6.1368   -0.4125    0.0000 C   0  0  0  0  0  0  0  0  0  0  0  0
    5.4223    0.8250    0.0000 C   0  0  0  0  0  0  0  0  0  0  0  0
    6.8513   -0.0000    0.0000 C   0  0  0  0  0  0  0  0  0  0  0  0
    6.1368    1.2375    0.0000 C   0  0  0  0  0  0  0  0  0  0  0  0
    3.2789   -0.4125    0.0000 C   0  0  0  0  0  0  0  0  0  0  0  0
    4.7079   -0.4125    0.0000 C   0  0  0  0  0  0  0  0  0  0  0  0
    8.2802    0.8250    0.0000 C   0  0  0  0  0  0  0  0  0  0  0  0
    1.2949    0.4125    0.0000 C   0  0  0  0  0  0  0  0  0  0  0  0
    3.9934    0.0000    0.0000 C   0  0  0  0  0  0  0  0  0  0  0  0
   11.1381   -0.0000    0.0000 C   0  0  0  0  0  0  0  0  0  0  0  0
    9.7092    0.8250    0.0000 C   0  0  0  0  0  0  0  0  0  0  0  0
    2.5645    0.8250    0.0000 C   0  0  0  0  0  0  0  0  0  0  0  0
    2.5645    0.0000    0.0000 C   0  0  0  0  0  0  0  0  0  0  0  0
    7.5658    1.2375    0.0000 C   0  0  0  0  0  0  0  0  0  0  0  0
   11.8526   -0.4125    0.0000 Cl  0  0  0  0  0  0  0  0  0  0  0  0
    5.4223   -0.0000    0.0000 N   0  0  0  0  0  0  0  0  0  0  0  0
    6.8513    0.8250    0.0000 N   0  0  0  0  0  0  0  0  0  0  0  0
    7.5658    2.0625    0.0000 O   0  0  0  0  0  0  0  0  0  0  0  0
    8.9947    1.2375    0.0000 O   0  0  0  0  0  0  0  0  0  0  0  0
    1.7798    1.0799    0.0000 O   0  0  0  0  0  0  0  0  0  0  0  0
    1.7798   -0.2549    0.0000 O   0  0  0  0  0  0  0  0  0  0  0  0
    4.8871    1.3410    0.0000 H   0  0  0  0  0  0  0  0  0  0  0  0
   12.0318    1.3410    0.0000 H   0  0  0  0  0  0  0  0  0  0  0  0
   10.4236   -1.4445    0.0000 H   0  0  0  0  0  0  0  0  0  0  0  0
   10.4236    2.2695    0.0000 H   0  0  0  0  0  0  0  0  0  0  0  0
    8.8155   -0.5160    0.0000 H   0  0  0  0  0  0  0  0  0  0  0  0
    3.2789    2.2695    0.0000 H   0  0  0  0  0  0  0  0  0  0  0  0
    6.1368   -1.4825    0.0000 H   0  0  0  0  0  0  0  0  0  0  0  0
    5.2102   -0.9475    0.0000 H   0  0  0  0  0  0  0  0  0  0  0  0
    4.4957    1.3600    0.0000 H   0  0  0  0  0  0  0  0  0  0  0  0
    4.4957    0.2900    0.0000 H   0  0  0  0  0  0  0  0  0  0  0  0
    7.7779   -0.5350    0.0000 H   0  0  0  0  0  0  0  0  0  0  0  0
    7.7779    0.5350    0.0000 H   0  0  0  0  0  0  0  0  0  0  0  0
    6.1368    2.3075    0.0000 H   0  0  0  0  0  0  0  0  0  0  0  0
    7.0634    1.7725    0.0000 H   0  0  0  0  0  0  0  0  0  0  0  0
    3.2789   -1.4445    0.0000 H   0  0  0  0  0  0  0  0  0  0  0  0
    4.7079   -1.4825    0.0000 H   0  0  0  0  0  0  0  0  0  0  0  0
    5.6346   -0.9475    0.0000 H   0  0  0  0  0  0  0  0  0  0  0  0
    8.2802   -0.2450    0.0000 H   0  0  0  0  0  0  0  0  0  0  0  0
    9.2068    0.2900    0.0000 H   0  0  0  0  0  0  0  0  0  0  0  0
    0.2249    0.4125    0.0000 H   0  0  0  0  0  0  0  0  0  0  0  0
    0.8091   -0.5409    0.0000 H   0  0  0  0  0  0  0  0  0  0  0  0
  1 28  1  0  0  0  0
  2 29  1  0  0  0  0
  3 30  1  0  0  0  0
  4  2  1  0  0  0  0
  4 31  1  0  0  0  0
  5  3  2  0  0  0  0
  5 32  1  0  0  0  0
  6  1  2  0  0  0  0
  6 33  1  0  0  0  0
  7 34  1  0  0  0  0
  7 35  1  0  0  0  0
  8 36  1  0  0  0  0
  8 37  1  0  0  0  0
  9  7  1  0  0  0  0
  9 38  1  0  0  0  0
  9 39  1  0  0  0  0
 10  8  1  0  0  0  0
 10 40  1  0  0  0  0
 10 41  1  0  0  0  0
 11 42  1  0  0  0  0
 12 43  1  0  0  0  0
 12 44  1  0  0  0  0
 13 45  1  0  0  0  0
 13 46  1  0  0  0  0
 14 47  1  0  0  0  0
 14 48  1  0  0  0  0
 15  1  1  0  0  0  0
 15 11  2  0  0  0  0
 15 12  1  0  0  0  0
 16  2  2  0  0  0  0
 16  3  1  0  0  0  0
 17  4  2  0  0  0  0
 17  5  1  0  0  0  0
 18  6  1  0  0  0  0
 19 11  1  0  0  0  0
 19 18  2  0  0  0  0
 20 13  1  0  0  0  0
 21 16  1  0  0  0  0
 22  7  1  0  0  0  0
 22  8  1  0  0  0  0
 22 12  1  0  0  0  0
 23  9  1  0  0  0  0
 23 10  1  0  0  0  0
 23 20  1  0  0  0  0
 24 20  2  0  0  0  0
 25 13  1  0  0  0  0
 25 17  1  0  0  0  0
 26 14  1  0  0  0  0
 26 18  1  0  0  0  0
 27 14  1  0  0  0  0
 27 19  1  0  0  0  0
M  END
>  <DRUGBANK_ID>
DB13790

>  <COMMON_NAME>
Fipexide

>  <CAS_NUMBER>
34161-24-5

>  <UNII>
TG44VME01D

>  <SYNONYMS>
Fipexide

$$$$
