
 OpenBabel10282417072D

 44 45  0  0  0  0  0  0  0  0999 V2000
   -1.0407    1.3016    0.0000 S   0  0  0  0  0  0  0  0  0  0  0  0
   -0.5510    0.6330    0.0000 C   0  0  0  0  0  0  0  0  0  0  0  0
   -1.0345   -0.0378    0.0000 C   0  0  2  0  0  0  0  0  0  0  0  0
   -1.0365   -0.8627    0.0000 C   0  0  0  0  0  0  0  0  0  0  0  0
   -0.3283   -1.2769    0.0000 O   0  0  0  0  0  0  0  0  0  0  0  0
    0.3864   -0.8567    0.0000 C   0  0  0  0  0  0  0  0  0  0  0  0
    1.0991   -1.2756    0.0000 O   0  0  0  0  0  0  0  0  0  0  0  0
    1.8138   -0.8602    0.0000 C   0  0  0  0  0  0  0  0  0  0  0  0
    2.5220   -1.2789    0.0000 C   0  0  0  0  0  0  0  0  0  0  0  0
    3.2348   -1.6933    0.0000 C   0  0  0  0  0  0  0  0  0  0  0  0
    3.2368   -0.8636    0.0000 C   0  0  0  0  0  0  0  0  0  0  0  0
    2.5200   -2.1039    0.0000 C   0  0  0  0  0  0  0  0  0  0  0  0
    1.8157   -0.0353    0.0000 O   0  0  0  0  0  0  0  0  0  0  0  0
   -1.7650   -1.2689    0.0000 O   0  0  0  0  0  0  0  0  0  0  0  0
   -1.8265    0.2143    0.0000 N   0  0  0  0  0  0  0  0  0  0  0  0
   -1.8245    1.0394    0.0000 C   0  0  1  0  0  0  0  0  0  0  0  0
   -2.6495    1.0412    0.0000 C   0  0  0  0  0  0  0  0  0  0  0  0
   -2.6515    0.2162    0.0000 C   0  0  0  0  0  0  0  0  0  0  0  0
   -3.2368   -0.3615    0.0000 O   0  0  0  0  0  0  0  0  0  0  0  0
   -1.8226    1.8736    0.0000 H   0  0  0  0  0  0  0  0  0  0  0  0
    0.0316    0.0477    0.0000 C   0  0  0  0  0  0  0  0  0  0  0  0
    0.0344    1.2202    0.0000 C   0  0  0  0  0  0  0  0  0  0  0  0
   -1.2612    2.1039    0.0000 O   0  0  0  0  0  0  0  0  0  0  0  0
   -0.4599    1.8889    0.0000 O   0  0  0  0  0  0  0  0  0  0  0  0
   -0.0166   -0.3678    0.0000 H   0  0  0  0  0  0  0  0  0  0  0  0
    0.3863    0.2133    0.0000 H   0  0  0  0  0  0  0  0  0  0  0  0
    1.3151   -0.3253    0.0000 H   0  0  0  0  0  0  0  0  0  0  0  0
    3.2316   -2.7633    0.0000 H   0  0  0  0  0  0  0  0  0  0  0  0
    4.1631   -1.1611    0.0000 H   0  0  0  0  0  0  0  0  0  0  0  0
    4.1598   -2.2311    0.0000 H   0  0  0  0  0  0  0  0  0  0  0  0
    4.1649   -1.3961    0.0000 H   0  0  0  0  0  0  0  0  0  0  0  0
    3.2339    0.2064    0.0000 H   0  0  0  0  0  0  0  0  0  0  0  0
    4.1620   -0.3261    0.0000 H   0  0  0  0  0  0  0  0  0  0  0  0
    1.5921   -2.6367    0.0000 H   0  0  0  0  0  0  0  0  0  0  0  0
    3.4453   -2.6411    0.0000 H   0  0  0  0  0  0  0  0  0  0  0  0
    2.5174   -3.1739    0.0000 H   0  0  0  0  0  0  0  0  0  0  0  0
   -3.4044    1.7995    0.0000 H   0  0  0  0  0  0  0  0  0  0  0  0
   -3.6390    0.6341    0.0000 H   0  0  0  0  0  0  0  0  0  0  0  0
   -0.2477   -0.9852    0.0000 H   0  0  0  0  0  0  0  0  0  0  0  0
    1.0658    0.3222    0.0000 H   0  0  0  0  0  0  0  0  0  0  0  0
    0.7865   -0.7107    0.0000 H   0  0  0  0  0  0  0  0  0  0  0  0
    1.0684    0.9449    0.0000 H   0  0  0  0  0  0  0  0  0  0  0  0
   -0.2441    2.2533    0.0000 H   0  0  0  0  0  0  0  0  0  0  0  0
    0.7898    1.9780    0.0000 H   0  0  0  0  0  0  0  0  0  0  0  0
  2  1  1  0  0  0  0
  3  2  1  0  0  0  0
  3  4  1  0  0  0  0
  3 15  1  0  0  0  0
  3 25  1  1  0  0  0
  5  4  1  0  0  0  0
  6  5  1  0  0  0  0
  6 26  1  0  0  0  0
  6 27  1  0  0  0  0
  7  6  1  0  0  0  0
  8  7  1  0  0  0  0
  9  8  1  0  0  0  0
 10  9  1  0  0  0  0
 10 28  1  0  0  0  0
 10 29  1  0  0  0  0
 10 30  1  0  0  0  0
 11  9  1  0  0  0  0
 11 31  1  0  0  0  0
 11 32  1  0  0  0  0
 11 33  1  0  0  0  0
 12  9  1  0  0  0  0
 12 34  1  0  0  0  0
 12 35  1  0  0  0  0
 12 36  1  0  0  0  0
 13  8  2  0  0  0  0
 14  4  2  0  0  0  0
 15 16  1  0  0  0  0
 16  1  1  0  0  0  0
 16 20  1  6  0  0  0
 17 16  1  0  0  0  0
 17 37  1  0  0  0  0
 17 38  1  0  0  0  0
 18 17  1  0  0  0  0
 18 15  1  0  0  0  0
 19 18  2  0  0  0  0
 21  2  1  0  0  0  0
 21 39  1  0  0  0  0
 21 40  1  0  0  0  0
 21 41  1  0  0  0  0
 22  2  1  0  0  0  0
 22 42  1  0  0  0  0
 22 43  1  0  0  0  0
 22 44  1  0  0  0  0
 23  1  2  0  0  0  0
 24  1  2  0  0  0  0
M  END
>  <DRUGBANK_ID>
DB15761

>  <COMMON_NAME>
Sulbactam pivoxil

>  <CAS_NUMBER>
69388-79-0

>  <UNII>
2X0WTA96KX

>  <SYNONYMS>
Pivsulbactam; Sulbactam pivoxil; Sulbactam pivoxyl

$$$$
