
 OpenBabel10282417072D

 15 14  0  0  0  0  0  0  0  0999 V2000
    0.7144    0.1512    0.0000 P   0  0  0  0  0  0  0  0  0  0  0  0
    1.4289   -0.2612    0.0000 O   0  0  0  0  0  0  0  0  0  0  0  0
    0.7144    0.9762    0.0000 O   0  0  0  0  0  0  0  0  0  0  0  0
    0.0000   -0.2612    0.0000 C   0  0  0  0  0  0  0  0  0  0  0  0
    0.9206   -0.6482    0.0000 O   0  0  0  0  0  0  0  0  0  0  0  0
   -0.7145    0.1512    0.0000 P   0  0  0  0  0  0  0  0  0  0  0  0
   -1.4289   -0.2611    0.0000 O   0  0  0  0  0  0  0  0  0  0  0  0
   -0.7145    0.9762    0.0000 O   0  0  0  0  0  0  0  0  0  0  0  0
   -0.9380   -0.6482    0.0000 O   0  0  0  0  0  0  0  0  0  0  0  0
    0.4137   -0.9763    0.0000 Cl  0  0  0  0  0  0  0  0  0  0  0  0
   -0.4112   -0.9763    0.0000 Cl  0  0  0  0  0  0  0  0  0  0  0  0
    1.4290   -1.2312    0.0000 H   0  0  0  0  0  0  0  0  0  0  0  0
    0.2283   -1.3276    0.0000 H   0  0  0  0  0  0  0  0  0  0  0  0
   -2.2689    0.2240    0.0000 H   0  0  0  0  0  0  0  0  0  0  0  0
   -1.8776   -0.8891    0.0000 H   0  0  0  0  0  0  0  0  0  0  0  0
  1  2  1  0  0  0  0
  1  3  2  0  0  0  0
  1  4  1  0  0  0  0
  1  5  1  0  0  0  0
  2 12  1  0  0  0  0
  4  6  1  0  0  0  0
  4 10  1  0  0  0  0
  4 11  1  0  0  0  0
  5 13  1  0  0  0  0
  6  7  1  0  0  0  0
  6  8  2  0  0  0  0
  6  9  1  0  0  0  0
  7 14  1  0  0  0  0
  9 15  1  0  0  0  0
M  END
>  <DRUGBANK_ID>
DB00720

>  <SECONDARY_ACCESSION_NUMBERS>
APRD00639

>  <COMMON_NAME>
Clodronic acid

>  <CAS_NUMBER>
10596-23-3

>  <UNII>
0813BZ6866

>  <SYNONYMS>
(Dichloro-phosphono-methyl)-phosphonic acid; (dichloromethylene)bisphosphonic acid; (dichloromethylene)diphosphonic acid; Acide clodronique; Acido clodronico; Acidum clodronicum; Clodronate; Clodronic acid; Clodronsaeure; Clodrons√§ure; dichloromethylene-1,1-bisphosphonic acid; dichloromethylene-1,1-diphosphonic acid; Dichloromethylidene diphosphonate

$$$$
