OBP
 OpenBabel10282417072D

 26 27  0  0  0  0  0  0  0  0999 V2000
    1.1816    0.2110    0.0000 C   0  0  0  0  0  0  0  0  0  0  0  0
    0.4671   -0.2015    0.0000 C   0  0  0  0  0  0  0  0  0  0  0  0
    0.4671   -1.0265    0.0000 C   0  0  0  0  0  0  0  0  0  0  0  0
    1.1816   -1.4390    0.0000 C   0  0  0  0  0  0  0  0  0  0  0  0
    1.8961   -1.0265    0.0000 C   0  0  0  0  0  0  0  0  0  0  0  0
    1.8961   -0.2015    0.0000 C   0  0  0  0  0  0  0  0  0  0  0  0
   -0.2473    0.2110    0.0000 C   0  0  0  0  0  0  0  0  0  0  0  0
   -0.9618   -0.2015    0.0000 C   0  0  0  0  0  0  0  0  0  0  0  0
   -1.6763    0.2110    0.0000 C   0  0  0  0  0  0  0  0  0  0  0  0
   -1.6763    1.0360    0.0000 C   0  0  0  0  0  0  0  0  0  0  0  0
   -0.9618    1.4485    0.0000 C   0  0  0  0  0  0  0  0  0  0  0  0
   -0.2473    1.0360    0.0000 C   0  0  0  0  0  0  0  0  0  0  0  0
    0.4671    1.4485    0.0000 O   0  0  0  0  0  0  0  0  0  0  0  0
   -0.2473   -1.4390    0.0000 S   0  0  2  0  0  0  0  0  0  0  0  0
   -0.9618   -1.0265    0.0000 O   0  0  0  0  0  0  0  0  0  0  0  0
   -0.2473   -2.2640    0.0000 O   0  0  0  0  0  0  0  0  0  0  0  0
    1.1816    1.2430    0.0000 H   0  0  0  0  0  0  0  0  0  0  0  0
    1.1816   -2.4710    0.0000 H   0  0  0  0  0  0  0  0  0  0  0  0
    2.7898   -1.5425    0.0000 H   0  0  0  0  0  0  0  0  0  0  0  0
    2.7898    0.3145    0.0000 H   0  0  0  0  0  0  0  0  0  0  0  0
   -0.9618   -1.2335    0.0000 H   0  0  0  0  0  0  0  0  0  0  0  0
   -2.5700   -0.3050    0.0000 H   0  0  0  0  0  0  0  0  0  0  0  0
   -2.5700    1.5520    0.0000 H   0  0  0  0  0  0  0  0  0  0  0  0
   -0.9618    2.4805    0.0000 H   0  0  0  0  0  0  0  0  0  0  0  0
    1.2786    0.9800    0.0000 H   0  0  0  0  0  0  0  0  0  0  0  0
   -1.0873   -2.7490    0.0000 H   0  0  0  0  0  0  0  0  0  0  0  0
  1  2  2  0  0  0  0
  1  6  1  0  0  0  0
  1 17  1  0  0  0  0
  2  3  1  0  0  0  0
  2  7  1  0  0  0  0
  3  4  2  0  0  0  0
  3 14  1  0  0  0  0
  4  5  1  0  0  0  0
  4 18  1  0  0  0  0
  5  6  2  0  0  0  0
  5 19  1  0  0  0  0
  6 20  1  0  0  0  0
  7  8  2  0  0  0  0
  7 12  1  0  0  0  0
  8  9  1  0  0  0  0
  8 21  1  0  0  0  0
  9 10  2  0  0  0  0
  9 22  1  0  0  0  0
 10 11  1  0  0  0  0
 10 23  1  0  0  0  0
 11 12  2  0  0  0  0
 11 24  1  0  0  0  0
 12 13  1  0  0  0  0
 13 25  1  0  0  0  0
 14 15  2  1  0  0  0
 14 16  1  0  0  0  0
 16 26  1  0  0  0  0
M  END
>  <DRUGBANK_ID>
DB08319

>  <COMMON_NAME>
2'-HYDROXY-1,1'-BIPHENYL-2-SULFINIC ACID

$$$$
