2KL
 OpenBabel10282417072D

 54 57  0  0  0  0  0  0  0  0999 V2000
   -3.9507    0.0577    0.0000 O   0  0  0  0  0  0  0  0  0  0  0  0
   -3.5382    0.7722    0.0000 C   0  0  0  0  0  0  0  0  0  0  0  0
   -3.9507    1.4867    0.0000 N   0  0  0  0  0  0  0  0  0  0  0  0
   -4.7757    1.4867    0.0000 C   0  0  0  0  0  0  0  0  0  0  0  0
   -5.1882    2.2012    0.0000 C   0  0  0  0  0  0  0  0  0  0  0  0
   -2.7132    0.7722    0.0000 C   0  0  0  0  0  0  0  0  0  0  0  0
   -2.2283    1.4397    0.0000 S   0  0  0  0  0  0  0  0  0  0  0  0
   -2.2283    0.1048    0.0000 C   0  0  0  0  0  0  0  0  0  0  0  0
   -1.4436    0.3597    0.0000 C   0  0  0  0  0  0  0  0  0  0  0  0
   -1.4436    1.1847    0.0000 C   0  0  0  0  0  0  0  0  0  0  0  0
   -0.7292    1.5972    0.0000 N   0  0  0  0  0  0  0  0  0  0  0  0
   -0.0147    1.1847    0.0000 C   0  0  0  0  0  0  0  0  0  0  0  0
    0.6998    1.5972    0.0000 N   0  0  0  0  0  0  0  0  0  0  0  0
   -0.0147    0.3597    0.0000 N   0  0  0  0  0  0  0  0  0  0  0  0
   -0.7292   -0.0528    0.0000 C   0  0  0  0  0  0  0  0  0  0  0  0
   -0.7292   -0.8778    0.0000 C   0  0  0  0  0  0  0  0  0  0  0  0
   -0.0147   -1.2903    0.0000 C   0  0  0  0  0  0  0  0  0  0  0  0
   -1.4436   -1.2903    0.0000 C   0  0  0  0  0  0  0  0  0  0  0  0
   -2.1581   -0.8778    0.0000 Cl  0  0  0  0  0  0  0  0  0  0  0  0
   -1.4436   -2.1153    0.0000 C   0  0  0  0  0  0  0  0  0  0  0  0
   -0.7292   -2.5278    0.0000 C   0  0  0  0  0  0  0  0  0  0  0  0
   -0.7292   -3.3528    0.0000 Cl  0  0  0  0  0  0  0  0  0  0  0  0
   -0.0147   -2.1153    0.0000 C   0  0  0  0  0  0  0  0  0  0  0  0
    0.6998   -2.5278    0.0000 O   0  0  0  0  0  0  0  0  0  0  0  0
    1.4142   -2.1153    0.0000 C   0  0  0  0  0  0  0  0  0  0  0  0
    2.1287   -2.5278    0.0000 C   0  0  0  0  0  0  0  0  0  0  0  0
    2.8432   -2.1153    0.0000 N   0  0  0  0  0  0  0  0  0  0  0  0
    2.9294   -1.2948    0.0000 C   0  0  0  0  0  0  0  0  0  0  0  0
    3.5969   -2.4508    0.0000 C   0  0  0  0  0  0  0  0  0  0  0  0
    4.1489   -1.8378    0.0000 C   0  0  0  0  0  0  0  0  0  0  0  0
    3.7364   -1.1233    0.0000 C   0  0  0  0  0  0  0  0  0  0  0  0
   -3.4584    2.3393    0.0000 H   0  0  0  0  0  0  0  0  0  0  0  0
   -5.3107    0.5601    0.0000 H   0  0  0  0  0  0  0  0  0  0  0  0
   -5.8457    1.4867    0.0000 H   0  0  0  0  0  0  0  0  0  0  0  0
   -4.6532    3.1278    0.0000 H   0  0  0  0  0  0  0  0  0  0  0  0
   -6.2582    2.2012    0.0000 H   0  0  0  0  0  0  0  0  0  0  0  0
   -5.7232    3.1279    0.0000 H   0  0  0  0  0  0  0  0  0  0  0  0
   -2.5472   -0.8767    0.0000 H   0  0  0  0  0  0  0  0  0  0  0  0
    1.5524    1.1049    0.0000 H   0  0  0  0  0  0  0  0  0  0  0  0
    0.6998    2.5817    0.0000 H   0  0  0  0  0  0  0  0  0  0  0  0
    0.8790   -0.7743    0.0000 H   0  0  0  0  0  0  0  0  0  0  0  0
   -2.3373   -2.6313    0.0000 H   0  0  0  0  0  0  0  0  0  0  0  0
    1.4142   -1.0453    0.0000 H   0  0  0  0  0  0  0  0  0  0  0  0
    2.3408   -1.5803    0.0000 H   0  0  0  0  0  0  0  0  0  0  0  0
    2.1287   -3.5978    0.0000 H   0  0  0  0  0  0  0  0  0  0  0  0
    3.0553   -3.0628    0.0000 H   0  0  0  0  0  0  0  0  0  0  0  0
    2.1342   -0.5788    0.0000 H   0  0  0  0  0  0  0  0  0  0  0  0
    3.2064   -0.2613    0.0000 H   0  0  0  0  0  0  0  0  0  0  0  0
    3.8194   -3.4974    0.0000 H   0  0  0  0  0  0  0  0  0  0  0  0
    4.6304   -2.7278    0.0000 H   0  0  0  0  0  0  0  0  0  0  0  0
    5.2130   -1.9497    0.0000 H   0  0  0  0  0  0  0  0  0  0  0  0
    4.7317   -0.9404    0.0000 H   0  0  0  0  0  0  0  0  0  0  0  0
    4.1716   -0.1458    0.0000 H   0  0  0  0  0  0  0  0  0  0  0  0
    4.8049   -1.0673    0.0000 H   0  0  0  0  0  0  0  0  0  0  0  0
  1  2  2  0  0  0  0
  2  3  1  0  0  0  0
  2  6  1  0  0  0  0
  3  4  1  0  0  0  0
  3 32  1  0  0  0  0
  4  5  1  0  0  0  0
  4 33  1  0  0  0  0
  4 34  1  0  0  0  0
  5 35  1  0  0  0  0
  5 36  1  0  0  0  0
  5 37  1  0  0  0  0
  6  7  1  0  0  0  0
  6  8  2  0  0  0  0
  7 10  1  0  0  0  0
  8  9  1  0  0  0  0
  8 38  1  0  0  0  0
  9 10  1  0  0  0  0
  9 15  2  0  0  0  0
 10 11  2  0  0  0  0
 11 12  1  0  0  0  0
 12 13  1  0  0  0  0
 12 14  2  0  0  0  0
 13 39  1  0  0  0  0
 13 40  1  0  0  0  0
 14 15  1  0  0  0  0
 15 16  1  0  0  0  0
 16 17  1  0  0  0  0
 16 18  2  0  0  0  0
 17 23  2  0  0  0  0
 17 41  1  0  0  0  0
 18 19  1  0  0  0  0
 18 20  1  0  0  0  0
 20 21  2  0  0  0  0
 20 42  1  0  0  0  0
 21 22  1  0  0  0  0
 21 23  1  0  0  0  0
 23 24  1  0  0  0  0
 24 25  1  0  0  0  0
 25 26  1  0  0  0  0
 25 43  1  0  0  0  0
 25 44  1  0  0  0  0
 26 27  1  0  0  0  0
 26 45  1  0  0  0  0
 26 46  1  0  0  0  0
 27 28  1  0  0  0  0
 27 29  1  0  0  0  0
 28 31  1  0  0  0  0
 28 47  1  0  0  0  0
 28 48  1  0  0  0  0
 29 30  1  0  0  0  0
 29 49  1  0  0  0  0
 29 50  1  0  0  0  0
 30 31  1  0  0  0  0
 30 51  1  0  0  0  0
 30 52  1  0  0  0  0
 31 53  1  0  0  0  0
 31 54  1  0  0  0  0
M  END
>  <DRUGBANK_ID>
DB06969

>  <COMMON_NAME>
2-amino-4-[2,4-dichloro-5-(2-pyrrolidin-1-ylethoxy)phenyl]-N-ethylthieno[2,3-d]pyrimidine-6-carboxamide

$$$$
