233
 OpenBabel10282417072D

 18 18  0  0  0  0  0  0  0  0999 V2000
    2.0930    0.4909    0.0000 O   0  0  0  0  0  0  0  0  0  0  0  0
    4.2365    1.7284    0.0000 O   0  0  0  0  0  0  0  0  0  0  0  0
    2.8075    1.7284    0.0000 O   0  0  0  0  0  0  0  0  0  0  0  0
    3.5220   -1.9842    0.0000 N   0  0  0  0  0  0  0  0  0  0  0  0
    3.5220    0.4909    0.0000 C   0  0  0  0  0  0  0  0  0  0  0  0
    2.8075    0.0784    0.0000 C   0  0  0  0  0  0  0  0  0  0  0  0
    3.5220   -1.1592    0.0000 C   0  0  0  0  0  0  0  0  0  0  0  0
    2.8075   -0.7466    0.0000 C   0  0  0  0  0  0  0  0  0  0  0  0
    4.2365    0.0784    0.0000 C   0  0  0  0  0  0  0  0  0  0  0  0
    4.2365   -0.7466    0.0000 C   0  0  0  0  0  0  0  0  0  0  0  0
    3.5220    1.3159    0.0000 C   0  0  0  0  0  0  0  0  0  0  0  0
    2.0930    1.4279    0.0000 H   0  0  0  0  0  0  0  0  0  0  0  0
    5.0480    1.2599    0.0000 H   0  0  0  0  0  0  0  0  0  0  0  0
    2.6694   -2.4765    0.0000 H   0  0  0  0  0  0  0  0  0  0  0  0
    4.3746   -2.4764    0.0000 H   0  0  0  0  0  0  0  0  0  0  0  0
    1.9137   -1.2626    0.0000 H   0  0  0  0  0  0  0  0  0  0  0  0
    5.1302    0.5944    0.0000 H   0  0  0  0  0  0  0  0  0  0  0  0
    5.1303   -1.2626    0.0000 H   0  0  0  0  0  0  0  0  0  0  0  0
  1  6  1  0  0  0  0
  1 12  1  0  0  0  0
  2 11  1  0  0  0  0
  2 13  1  0  0  0  0
  3 11  2  0  0  0  0
  4  7  1  0  0  0  0
  4 14  1  0  0  0  0
  4 15  1  0  0  0  0
  5  6  2  0  0  0  0
  5  9  1  0  0  0  0
  5 11  1  0  0  0  0
  6  8  1  0  0  0  0
  7  8  2  0  0  0  0
  7 10  1  0  0  0  0
  8 16  1  0  0  0  0
  9 10  2  0  0  0  0
  9 17  1  0  0  0  0
 10 18  1  0  0  0  0
M  END
>  <DRUGBANK_ID>
DB00233

>  <SECONDARY_ACCESSION_NUMBERS>
APRD00749; EXPT00693; DB09367

>  <COMMON_NAME>
Aminosalicylic acid

>  <CAS_NUMBER>
65-49-6

>  <UNII>
5B2658E0N2

>  <SYNONYMS>
4-amino-2-hydroxybenzoic acid; 4-aminosalicylate; 4-aminosalicylic acid; Aminosalicylic acid; p-aminosalicylic acid; para-amino salicylic acid; para-aminosalicylic acid; PAS

$$$$
