
 OpenBabel10282417072D

 16 16  0  0  0  0  0  0  0  0999 V2000
    0.3632   -0.4230    0.0000 C   0  0  0  0  0  0  0  0  0  0  0  0
   -0.3512   -0.8282    0.0000 C   0  0  0  0  0  0  0  0  0  0  0  0
    0.3632    0.4188    0.0000 C   0  0  0  0  0  0  0  0  0  0  0  0
    1.0698   -0.8433    0.0000 C   0  0  0  0  0  0  0  0  0  0  0  0
   -1.0698   -0.4230    0.0000 C   0  0  0  0  0  0  0  0  0  0  0  0
   -0.3512   -1.6465    0.0000 Cl  0  0  0  0  0  0  0  0  0  0  0  0
   -0.3388    0.8167    0.0000 C   0  0  0  0  0  0  0  0  0  0  0  0
   -1.0643    0.4176    0.0000 C   0  0  0  0  0  0  0  0  0  0  0  0
   -0.3388    1.6465    0.0000 O   0  0  0  0  0  0  0  0  0  0  0  0
    1.2549    0.9383    0.0000 H   0  0  0  0  0  0  0  0  0  0  0  0
    1.0559   -1.9132    0.0000 H   0  0  0  0  0  0  0  0  0  0  0  0
    2.0033   -0.3204    0.0000 H   0  0  0  0  0  0  0  0  0  0  0  0
    1.9894   -1.3903    0.0000 H   0  0  0  0  0  0  0  0  0  0  0  0
   -1.9626   -0.9406    0.0000 H   0  0  0  0  0  0  0  0  0  0  0  0
   -1.9509    0.9457    0.0000 H   0  0  0  0  0  0  0  0  0  0  0  0
    0.4727    2.1150    0.0000 H   0  0  0  0  0  0  0  0  0  0  0  0
  1  2  1  0  0  0  0
  1  3  2  0  0  0  0
  1  4  1  0  0  0  0
  2  5  2  0  0  0  0
  2  6  1  0  0  0  0
  3  7  1  0  0  0  0
  3 10  1  0  0  0  0
  4 11  1  0  0  0  0
  4 12  1  0  0  0  0
  4 13  1  0  0  0  0
  5  8  1  0  0  0  0
  5 14  1  0  0  0  0
  7  9  1  0  0  0  0
  7  8  2  0  0  0  0
  8 15  1  0  0  0  0
  9 16  1  0  0  0  0
M  END
>  <DRUGBANK_ID>
DB16864

>  <COMMON_NAME>
Chlorocresol

>  <CAS_NUMBER>
59-50-7

>  <UNII>
36W53O7109

>  <SYNONYMS>
3-Methyl-4-chlorophenol; 4-Chloro-3-methyl phenol; Chlorocresol; p-Chloro-m-cresol

$$$$
