
 OpenBabel10282417072D

 48 51  0  0  0  0  0  0  0  0999 V2000
   -3.2905   -3.1583    0.0000 C   0  0  0  0  0  0  0  0  0  0  0  0
   -2.8402   -2.4670    0.0000 N   0  0  0  0  0  0  0  0  0  0  0  0
   -3.2137   -1.7314    0.0000 C   0  0  0  0  0  0  0  0  0  0  0  0
   -2.0164   -2.5114    0.0000 C   0  0  0  0  0  0  0  0  0  0  0  0
   -1.5661   -1.8201    0.0000 C   0  0  0  0  0  0  0  0  0  0  0  0
   -0.7423   -1.8644    0.0000 C   0  0  0  0  0  0  0  0  0  0  0  0
   -0.2920   -1.1731    0.0000 N   0  0  0  0  0  0  0  0  0  0  0  0
   -0.5866   -0.4025    0.0000 C   0  0  0  0  0  0  0  0  0  0  0  0
   -1.3563   -0.1058    0.0000 C   0  0  0  0  0  0  0  0  0  0  0  0
   -1.4843    0.7092    0.0000 C   0  0  0  0  0  0  0  0  0  0  0  0
   -0.8424    1.2275    0.0000 C   0  0  0  0  0  0  0  0  0  0  0  0
   -0.0726    0.9308    0.0000 C   0  0  0  0  0  0  0  0  0  0  0  0
    0.0553    0.1158    0.0000 C   0  0  0  0  0  0  0  0  0  0  0  0
    0.7466   -0.3345    0.0000 C   0  0  0  0  0  0  0  0  0  0  0  0
    0.5320   -1.1311    0.0000 N   0  0  0  0  0  0  0  0  0  0  0  0
    1.4822    0.0390    0.0000 C   0  0  0  0  0  0  0  0  0  0  0  0
    2.1735   -0.4113    0.0000 C   0  0  0  0  0  0  0  0  0  0  0  0
    2.9091   -0.0378    0.0000 C   0  0  0  0  0  0  0  0  0  0  0  0
    2.9534    0.7860    0.0000 C   0  0  0  0  0  0  0  0  0  0  0  0
    2.2621    1.2363    0.0000 C   0  0  0  0  0  0  0  0  0  0  0  0
    1.5265    0.8628    0.0000 C   0  0  0  0  0  0  0  0  0  0  0  0
    0.8353    1.3131    0.0000 N   0  0  0  0  0  0  0  0  0  0  0  0
    3.6003   -0.4881    0.0000 O   0  0  0  0  0  0  0  0  0  0  0  0
    4.3360   -0.1146    0.0000 C   0  0  0  0  0  0  0  0  0  0  0  0
   -0.9703    2.0425    0.0000 N   0  3  0  0  0  0  0  0  0  0  0  0
   -0.3284    2.5608    0.0000 O   0  0  0  0  0  0  0  0  0  0  0  0
   -1.7401    2.3393    0.0000 O   0  5  0  0  0  0  0  0  0  0  0  0
   -4.3590   -3.1008    0.0000 H   0  0  0  0  0  0  0  0  0  0  0  0
   -2.8061   -4.1123    0.0000 H   0  0  0  0  0  0  0  0  0  0  0  0
   -3.8745   -4.0549    0.0000 H   0  0  0  0  0  0  0  0  0  0  0  0
   -2.6297   -0.8348    0.0000 H   0  0  0  0  0  0  0  0  0  0  0  0
   -4.2822   -1.6739    0.0000 H   0  0  0  0  0  0  0  0  0  0  0  0
   -3.6981   -0.7773    0.0000 H   0  0  0  0  0  0  0  0  0  0  0  0
   -1.5320   -3.4655    0.0000 H   0  0  0  0  0  0  0  0  0  0  0  0
   -0.9479   -2.5689    0.0000 H   0  0  0  0  0  0  0  0  0  0  0  0
   -2.0506   -0.8661    0.0000 H   0  0  0  0  0  0  0  0  0  0  0  0
   -0.9821   -0.9235    0.0000 H   0  0  0  0  0  0  0  0  0  0  0  0
   -0.2578   -2.8184    0.0000 H   0  0  0  0  0  0  0  0  0  0  0  0
    0.3262   -1.9219    0.0000 H   0  0  0  0  0  0  0  0  0  0  0  0
   -2.1592   -0.7542    0.0000 H   0  0  0  0  0  0  0  0  0  0  0  0
   -2.4473    1.0803    0.0000 H   0  0  0  0  0  0  0  0  0  0  0  0
    2.1180   -1.4418    0.0000 H   0  0  0  0  0  0  0  0  0  0  0  0
    3.8736    1.2533    0.0000 H   0  0  0  0  0  0  0  0  0  0  0  0
    2.3176    2.2668    0.0000 H   0  0  0  0  0  0  0  0  0  0  0  0
    0.9232    2.2937    0.0000 H   0  0  0  0  0  0  0  0  0  0  0  0
    5.2325   -0.6987    0.0000 H   0  0  0  0  0  0  0  0  0  0  0  0
    4.3936    0.9539    0.0000 H   0  0  0  0  0  0  0  0  0  0  0  0
    5.2901    0.3698    0.0000 H   0  0  0  0  0  0  0  0  0  0  0  0
  1  2  1  0  0  0  0
  1 28  1  0  0  0  0
  1 29  1  0  0  0  0
  1 30  1  0  0  0  0
  2  3  1  0  0  0  0
  2  4  1  0  0  0  0
  3 31  1  0  0  0  0
  3 32  1  0  0  0  0
  3 33  1  0  0  0  0
  4  5  1  0  0  0  0
  4 34  1  0  0  0  0
  4 35  1  0  0  0  0
  5  6  1  0  0  0  0
  5 36  1  0  0  0  0
  5 37  1  0  0  0  0
  6  7  1  0  0  0  0
  6 38  1  0  0  0  0
  6 39  1  0  0  0  0
  7  8  1  0  0  0  0
  7 15  1  0  0  0  0
  8  9  2  0  0  0  0
  8 13  1  0  0  0  0
  9 10  1  0  0  0  0
  9 40  1  0  0  0  0
 10 11  2  0  0  0  0
 10 41  1  0  0  0  0
 11 12  1  0  0  0  0
 11 25  1  0  0  0  0
 12 13  2  0  0  0  0
 12 22  1  0  0  0  0
 13 14  1  0  0  0  0
 14 15  2  0  0  0  0
 14 16  1  0  0  0  0
 16 17  2  0  0  0  0
 16 21  1  0  0  0  0
 17 18  1  0  0  0  0
 17 42  1  0  0  0  0
 18 19  2  0  0  0  0
 18 23  1  0  0  0  0
 19 20  1  0  0  0  0
 19 43  1  0  0  0  0
 20 21  2  0  0  0  0
 20 44  1  0  0  0  0
 21 22  1  0  0  0  0
 22 45  1  0  0  0  0
 23 24  1  0  0  0  0
 24 46  1  0  0  0  0
 24 47  1  0  0  0  0
 24 48  1  0  0  0  0
 25 26  2  0  0  0  0
 25 27  1  0  0  0  0
M  CHG  2  25   1  27  -1
M  END
>  <DRUGBANK_ID>
DB12549

>  <COMMON_NAME>
Pyrazoloacridine

>  <CAS_NUMBER>
99009-20-8

>  <UNII>
L24XJN68OW

$$$$
