
 OpenBabel10282417072D

 24 24  0  0  0  0  0  0  0  0999 V2000
    0.3572   -0.4125    0.0000 C   0  0  2  0  0  0  0  0  0  0  0  0
    0.3572   -1.2374    0.0000 O   0  0  0  0  0  0  0  0  0  0  0  0
   -0.3572    0.0000    0.0000 C   0  0  2  0  0  0  0  0  0  0  0  0
   -1.0716   -0.4125    0.0000 O   0  0  0  0  0  0  0  0  0  0  0  0
   -0.3572    0.8250    0.0000 C   0  0  2  0  0  0  0  0  0  0  0  0
    1.0717    0.8250    0.0000 C   0  0  3  0  0  0  0  0  0  0  0  0
    1.7861    1.2374    0.0000 O   0  0  0  0  0  0  0  0  0  0  0  0
    1.7861   -0.4125    0.0000 O   0  0  0  0  0  0  0  0  0  0  0  0
    0.3572    1.2374    0.0000 O   0  0  0  0  0  0  0  0  0  0  0  0
    1.0717    0.0000    0.0000 C   0  0  2  0  0  0  0  0  0  0  0  0
   -1.0716    1.2374    0.0000 C   0  0  0  0  0  0  0  0  0  0  0  0
   -1.7861    0.8250    0.0000 O   0  0  0  0  0  0  0  0  0  0  0  0
   -0.5695   -0.9475    0.0000 H   0  0  0  0  0  0  0  0  0  0  0  0
   -0.4828   -1.7224    0.0000 H   0  0  0  0  0  0  0  0  0  0  0  0
   -1.2839    0.5350    0.0000 H   0  0  0  0  0  0  0  0  0  0  0  0
   -1.9117    0.0725    0.0000 H   0  0  0  0  0  0  0  0  0  0  0  0
   -1.2838    0.2900    0.0000 H   0  0  0  0  0  0  0  0  0  0  0  0
    0.1451    0.2899    0.0000 H   0  0  0  0  0  0  0  0  0  0  0  0
    2.6261    0.7523    0.0000 H   0  0  0  0  0  0  0  0  0  0  0  0
    1.7861   -1.3825    0.0000 H   0  0  0  0  0  0  0  0  0  0  0  0
    1.0717   -1.0700    0.0000 H   0  0  0  0  0  0  0  0  0  0  0  0
   -1.0716    2.3074    0.0000 H   0  0  0  0  0  0  0  0  0  0  0  0
   -1.9982    1.7725    0.0000 H   0  0  0  0  0  0  0  0  0  0  0  0
   -2.6261    1.3101    0.0000 H   0  0  0  0  0  0  0  0  0  0  0  0
  1 10  1  0  0  0  0
  1  2  1  0  0  0  0
  1 13  1  1  0  0  0
  2 14  1  0  0  0  0
  3  1  1  0  0  0  0
  3  4  1  0  0  0  0
  3 15  1  1  0  0  0
  4 16  1  0  0  0  0
  5  3  1  0  0  0  0
  5  9  1  0  0  0  0
  5 11  1  0  0  0  0
  5 17  1  6  0  0  0
  6 10  1  0  0  0  0
  6  7  1  0  0  0  0
  6 18  1  0  0  0  0
  7 19  1  0  0  0  0
  8 20  1  0  0  0  0
  9  6  1  0  0  0  0
 10  8  1  0  0  0  0
 10 21  1  1  0  0  0
 11 12  1  0  0  0  0
 11 22  1  0  0  0  0
 11 23  1  0  0  0  0
 12 24  1  0  0  0  0
M  END
>  <DRUGBANK_ID>
DB03989

>  <SECONDARY_ACCESSION_NUMBERS>
EXPT00500

>  <COMMON_NAME>
D-Allopyranose

>  <CAS_NUMBER>
2595-97-3

>  <UNII>
SV1ATP0KYY

>  <SYNONYMS>
D-Allose

$$$$
