
 OpenBabel10282417072D

 45 49  0  0  1  0  0  0  0  0999 V2000
   10.4069   -1.2697    0.0000 C   0  0  0  0  0  0  0  0  0  0  0  0
    9.6410   -1.5762    0.0000 C   0  0  0  0  0  0  0  0  0  0  0  0
    9.5234   -2.3928    0.0000 C   0  0  1  0  0  0  0  0  0  0  0  0
    8.7535   -2.0965    0.0000 O   0  0  0  0  0  0  0  0  0  0  0  0
   10.3457   -2.3256    0.0000 C   0  0  0  0  0  0  0  0  0  0  0  0
   10.9109   -2.9267    0.0000 C   0  0  0  0  0  0  0  0  0  0  0  0
   11.6976   -2.6782    0.0000 O   0  0  0  0  0  0  0  0  0  0  0  0
   10.7933   -3.7432    0.0000 O   0  0  0  0  0  0  0  0  0  0  0  0
   10.0816   -4.1605    0.0000 C   0  0  0  0  0  0  0  0  0  0  0  0
    9.3117   -3.8642    0.0000 C   0  0  0  0  0  0  0  0  0  0  0  0
    9.0633   -3.0775    0.0000 C   0  0  0  0  0  0  0  0  0  0  0  0
    8.2577   -2.8993    0.0000 C   0  0  0  0  0  0  0  0  0  0  0  0
    7.7006   -3.5078    0.0000 C   0  0  0  0  0  0  0  0  0  0  0  0
    7.9491   -4.2945    0.0000 N   0  0  0  0  0  0  0  0  0  0  0  0
    7.2776   -4.7739    0.0000 C   0  0  0  0  0  0  0  0  0  0  0  0
    6.6142   -4.2834    0.0000 C   0  0  0  0  0  0  0  0  0  0  0  0
    5.8059   -4.4482    0.0000 C   0  0  0  0  0  0  0  0  0  0  0  0
    5.2589   -3.8306    0.0000 C   0  0  0  0  0  0  0  0  0  0  0  0
    4.4506   -3.9954    0.0000 C   0  0  0  0  0  0  0  0  0  0  0  0
    3.9036   -3.3778    0.0000 C   0  0  0  0  0  0  0  0  0  0  0  0
    3.0953   -3.5426    0.0000 F   0  0  0  0  0  0  0  0  0  0  0  0
    4.1651   -2.5953    0.0000 C   0  0  0  0  0  0  0  0  0  0  0  0
    3.6182   -1.9776    0.0000 F   0  0  0  0  0  0  0  0  0  0  0  0
    4.9734   -2.4305    0.0000 C   0  0  0  0  0  0  0  0  0  0  0  0
    5.5204   -3.0481    0.0000 C   0  0  0  0  0  0  0  0  0  0  0  0
    6.3287   -2.8833    0.0000 N   0  0  0  0  0  0  0  0  0  0  0  0
    6.8757   -3.5009    0.0000 C   0  0  0  0  0  0  0  0  0  0  0  0
    8.7546   -4.4727    0.0000 C   0  0  0  0  0  0  0  0  0  0  0  0
    9.0030   -5.2594    0.0000 O   0  0  0  0  0  0  0  0  0  0  0  0
   11.2479   -1.9312    0.0000 H   0  0  0  0  0  0  0  0  0  0  0  0
   10.5593   -0.2106    0.0000 H   0  0  0  0  0  0  0  0  0  0  0  0
   11.4003   -0.8722    0.0000 H   0  0  0  0  0  0  0  0  0  0  0  0
    8.8000   -0.9146    0.0000 H   0  0  0  0  0  0  0  0  0  0  0  0
    8.6476   -1.9737    0.0000 H   0  0  0  0  0  0  0  0  0  0  0  0
    8.6026   -1.1383    0.0000 H   0  0  0  0  0  0  0  0  0  0  0  0
   10.7299   -1.3270    0.0000 H   0  0  0  0  0  0  0  0  0  0  0  0
   11.3957   -2.1197    0.0000 H   0  0  0  0  0  0  0  0  0  0  0  0
   10.1687   -5.2270    0.0000 H   0  0  0  0  0  0  0  0  0  0  0  0
    9.2249   -4.8016    0.0000 H   0  0  0  0  0  0  0  0  0  0  0  0
    7.9469   -1.9152    0.0000 H   0  0  0  0  0  0  0  0  0  0  0  0
    7.2687   -5.8439    0.0000 H   0  0  0  0  0  0  0  0  0  0  0  0
    6.3202   -5.2517    0.0000 H   0  0  0  0  0  0  0  0  0  0  0  0
    5.4789   -5.4270    0.0000 H   0  0  0  0  0  0  0  0  0  0  0  0
    4.1236   -4.9742    0.0000 H   0  0  0  0  0  0  0  0  0  0  0  0
    5.3004   -1.4517    0.0000 H   0  0  0  0  0  0  0  0  0  0  0  0
  1  2  1  0  0  0  0
  1 30  1  0  0  0  0
  1 31  1  0  0  0  0
  1 32  1  0  0  0  0
  2 33  1  0  0  0  0
  2 34  1  0  0  0  0
  3  2  1  0  0  0  0
  3  4  1  6  0  0  0
  3  5  1  0  0  0  0
  3 11  1  0  0  0  0
  4 35  1  0  0  0  0
  5  6  1  0  0  0  0
  5 36  1  0  0  0  0
  5 37  1  0  0  0  0
  6  7  2  0  0  0  0
  6  8  1  0  0  0  0
  8  9  1  0  0  0  0
  9 10  1  0  0  0  0
  9 38  1  0  0  0  0
  9 39  1  0  0  0  0
 10 11  2  0  0  0  0
 10 28  1  0  0  0  0
 11 12  1  0  0  0  0
 12 13  2  0  0  0  0
 12 40  1  0  0  0  0
 13 14  1  0  0  0  0
 13 27  1  0  0  0  0
 14 15  1  0  0  0  0
 14 28  1  0  0  0  0
 15 16  1  0  0  0  0
 15 41  1  0  0  0  0
 15 42  1  0  0  0  0
 16 17  2  0  0  0  0
 16 27  1  0  0  0  0
 17 18  1  0  0  0  0
 17 43  1  0  0  0  0
 18 19  2  0  0  0  0
 18 25  1  0  0  0  0
 19 20  1  0  0  0  0
 19 44  1  0  0  0  0
 20 21  1  0  0  0  0
 20 22  2  0  0  0  0
 22 23  1  0  0  0  0
 22 24  1  0  0  0  0
 24 25  2  0  0  0  0
 24 45  1  0  0  0  0
 25 26  1  0  0  0  0
 26 27  2  0  0  0  0
 28 29  2  0  0  0  0
M  END
>  <DRUGBANK_ID>
DB16138

>  <COMMON_NAME>
Diflomotecan

>  <CAS_NUMBER>
220997-97-7

>  <UNII>
QKT1LC4J1P

>  <SYNONYMS>
Diflomotecan

$$$$
