
 OpenBabel10282417072D

 52 54  0  0  0  0  0  0  0  0999 V2000
   -3.1291    0.6738    0.0000 C   0  0  0  0  0  0  0  0  0  0  0  0
   -3.1304   -0.1490    0.0000 C   0  0  0  0  0  0  0  0  0  0  0  0
   -2.4174   -0.5619    0.0000 C   0  0  0  0  0  0  0  0  0  0  0  0
   -1.7026   -0.1485    0.0000 C   0  0  0  0  0  0  0  0  0  0  0  0
   -1.7058    0.6779    0.0000 C   0  0  0  0  0  0  0  0  0  0  0  0
   -2.4194    1.0867    0.0000 C   0  0  0  0  0  0  0  0  0  0  0  0
   -2.4189   -1.3869    0.0000 O   0  0  0  0  0  0  0  0  0  0  0  0
   -0.9843    1.0939    0.0000 S   0  0  0  0  0  0  0  0  0  0  0  0
   -0.2675    1.5126    0.0000 O   0  0  0  0  0  0  0  0  0  0  0  0
   -0.5661    0.3735    0.0000 N   0  0  0  0  0  0  0  0  0  0  0  0
   -1.3998    1.8112    0.0000 O   0  0  0  0  0  0  0  0  0  0  0  0
   -0.8186   -0.4121    0.0000 C   0  0  0  0  0  0  0  0  0  0  0  0
   -0.1462   -0.8905    0.0000 C   0  0  0  0  0  0  0  0  0  0  0  0
    0.5100   -0.4082    0.0000 C   0  0  0  0  0  0  0  0  0  0  0  0
    0.2588    0.3746    0.0000 C   0  0  2  0  0  0  0  0  0  0  0  0
    0.6822    1.0826    0.0000 C   0  0  0  0  0  0  0  0  0  0  0  0
    1.5071    1.0700    0.0000 C   0  0  0  0  0  0  0  0  0  0  0  0
    1.9086    0.3492    0.0000 N   0  0  0  0  0  0  0  0  0  0  0  0
    1.4817   -0.3534    0.0000 C   0  0  0  0  0  0  0  0  0  0  0  0
    1.8797   -1.0719    0.0000 C   0  0  0  0  0  0  0  0  0  0  0  0
    2.7049   -1.0889    0.0000 C   0  0  3  0  0  0  0  0  0  0  0  0
    3.1304   -0.3812    0.0000 C   0  0  0  0  0  0  0  0  0  0  0  0
    2.7311    0.3436    0.0000 C   0  0  0  0  0  0  0  0  0  0  0  0
    3.1036   -1.8112    0.0000 C   0  0  0  0  0  0  0  0  0  0  0  0
   -4.0233    1.1890    0.0000 H   0  0  0  0  0  0  0  0  0  0  0  0
   -4.0249   -0.6637    0.0000 H   0  0  0  0  0  0  0  0  0  0  0  0
   -0.8077   -0.6624    0.0000 H   0  0  0  0  0  0  0  0  0  0  0  0
   -2.4229    2.1187    0.0000 H   0  0  0  0  0  0  0  0  0  0  0  0
   -3.2312   -1.8539    0.0000 H   0  0  0  0  0  0  0  0  0  0  0  0
   -1.8340   -0.7494    0.0000 H   0  0  0  0  0  0  0  0  0  0  0  0
   -1.5789    0.3408    0.0000 H   0  0  0  0  0  0  0  0  0  0  0  0
   -0.1379   -1.9605    0.0000 H   0  0  0  0  0  0  0  0  0  0  0  0
    0.8104   -1.3700    0.0000 H   0  0  0  0  0  0  0  0  0  0  0  0
    1.5279   -0.7379    0.0000 H   0  0  0  0  0  0  0  0  0  0  0  0
    1.2676    0.3474    0.0000 H   0  0  0  0  0  0  0  0  0  0  0  0
    1.3218    0.2526    0.0000 H   0  0  0  0  0  0  0  0  0  0  0  0
    0.1615    2.0173    0.0000 H   0  0  0  0  0  0  0  0  0  0  0  0
    1.2313    2.0010    0.0000 H   0  0  0  0  0  0  0  0  0  0  0  0
    2.0562    1.9883    0.0000 H   0  0  0  0  0  0  0  0  0  0  0  0
    2.5770    1.0536    0.0000 H   0  0  0  0  0  0  0  0  0  0  0  0
    0.4119   -0.3319    0.0000 H   0  0  0  0  0  0  0  0  0  0  0  0
    0.9293   -1.2698    0.0000 H   0  0  0  0  0  0  0  0  0  0  0  0
    1.3270   -1.9881    0.0000 H   0  0  0  0  0  0  0  0  0  0  0  0
    2.3962   -2.0090    0.0000 H   0  0  0  0  0  0  0  0  0  0  0  0
    2.1878   -0.1522    0.0000 H   0  0  0  0  0  0  0  0  0  0  0  0
    4.2002   -0.4014    0.0000 H   0  0  0  0  0  0  0  0  0  0  0  0
    3.6833    0.5349    0.0000 H   0  0  0  0  0  0  0  0  0  0  0  0
    3.2785    1.2630    0.0000 H   0  0  0  0  0  0  0  0  0  0  0  0
    3.8009    0.3257    0.0000 H   0  0  0  0  0  0  0  0  0  0  0  0
    2.5509   -2.7274    0.0000 H   0  0  0  0  0  0  0  0  0  0  0  0
    4.1734   -1.8318    0.0000 H   0  0  0  0  0  0  0  0  0  0  0  0
    3.6207   -2.7480    0.0000 H   0  0  0  0  0  0  0  0  0  0  0  0
  1  2  2  0  0  0  0
  1 25  1  0  0  0  0
  2  3  1  0  0  0  0
  2 26  1  0  0  0  0
  3  7  1  0  0  0  0
  3  4  2  0  0  0  0
  4  5  1  0  0  0  0
  4 27  1  0  0  0  0
  5  6  2  0  0  0  0
  5  8  1  0  0  0  0
  6  1  1  0  0  0  0
  6 28  1  0  0  0  0
  7 29  1  0  0  0  0
  8  9  2  0  0  0  0
  8 10  1  0  0  0  0
  8 11  2  0  0  0  0
 10 12  1  0  0  0  0
 12 13  1  0  0  0  0
 12 30  1  0  0  0  0
 12 31  1  0  0  0  0
 13 14  1  0  0  0  0
 13 32  1  0  0  0  0
 13 33  1  0  0  0  0
 14 15  1  0  0  0  0
 14 34  1  0  0  0  0
 14 35  1  0  0  0  0
 15 10  1  0  0  0  0
 15 16  1  0  0  0  0
 15 36  1  6  0  0  0
 16 17  1  0  0  0  0
 16 37  1  0  0  0  0
 16 38  1  0  0  0  0
 17 18  1  0  0  0  0
 17 39  1  0  0  0  0
 17 40  1  0  0  0  0
 18 19  1  0  0  0  0
 18 23  1  0  0  0  0
 19 20  1  0  0  0  0
 19 41  1  0  0  0  0
 19 42  1  0  0  0  0
 20 21  1  0  0  0  0
 20 43  1  0  0  0  0
 20 44  1  0  0  0  0
 21 22  1  0  0  0  0
 21 24  1  0  0  0  0
 21 45  1  0  0  0  0
 22 23  1  0  0  0  0
 22 46  1  0  0  0  0
 22 47  1  0  0  0  0
 23 48  1  0  0  0  0
 23 49  1  0  0  0  0
 24 50  1  0  0  0  0
 24 51  1  0  0  0  0
 24 52  1  0  0  0  0
M  END
>  <DRUGBANK_ID>
DB13988

>  <COMMON_NAME>
SB-269970

>  <CAS_NUMBER>
201038-74-6

>  <UNII>
KC8KP5XU6F

$$$$
