
 OpenBabel10282417072D

 24 24  0  0  0  0  0  0  0  0999 V2000
   14.9998   -9.5113    0.0000 C   0  0  0  0  0  0  0  0  0  0  0  0
   14.2821   -9.0959    0.0000 C   0  0  0  0  0  0  0  0  0  0  0  0
   14.9929  -10.3321    0.0000 C   0  0  0  0  0  0  0  0  0  0  0  0
   15.7106   -9.0925    0.0000 C   0  0  0  0  0  0  0  0  0  0  0  0
   13.5713   -9.5113    0.0000 C   0  0  0  0  0  0  0  0  0  0  0  0
   15.7106  -10.7442    0.0000 C   0  0  0  0  0  0  0  0  0  0  0  0
   14.2787  -10.7407    0.0000 Cl  0  0  0  0  0  0  0  0  0  0  0  0
   16.4248   -9.5045    0.0000 C   0  0  0  0  0  0  0  0  0  0  0  0
   15.7071   -8.2649    0.0000 Cl  0  0  0  0  0  0  0  0  0  0  0  0
   12.8571   -9.0959    0.0000 N   0  0  0  0  0  0  0  0  0  0  0  0
   13.5713  -10.3355    0.0000 O   0  0  0  0  0  0  0  0  0  0  0  0
   16.4248  -10.3321    0.0000 C   0  0  0  0  0  0  0  0  0  0  0  0
   12.1393   -9.5113    0.0000 C   0  0  0  0  0  0  0  0  0  0  0  0
   11.4251   -9.0959    0.0000 N   0  0  0  0  0  0  0  0  0  0  0  0
   12.1393  -10.3355    0.0000 N   0  0  0  0  0  0  0  0  0  0  0  0
   14.2799   -8.0259    0.0000 H   0  0  0  0  0  0  0  0  0  0  0  0
   13.3535   -8.5643    0.0000 H   0  0  0  0  0  0  0  0  0  0  0  0
   15.7117  -11.7762    0.0000 H   0  0  0  0  0  0  0  0  0  0  0  0
   17.3184   -8.9883    0.0000 H   0  0  0  0  0  0  0  0  0  0  0  0
   12.8582   -8.1114    0.0000 H   0  0  0  0  0  0  0  0  0  0  0  0
   17.3185  -10.8482    0.0000 H   0  0  0  0  0  0  0  0  0  0  0  0
   11.4283   -8.1114    0.0000 H   0  0  0  0  0  0  0  0  0  0  0  0
   10.5709   -9.5854    0.0000 H   0  0  0  0  0  0  0  0  0  0  0  0
   11.2867  -10.8277    0.0000 H   0  0  0  0  0  0  0  0  0  0  0  0
  1  2  1  0  0  0  0
  1  3  2  0  0  0  0
  1  4  1  0  0  0  0
  2  5  1  0  0  0  0
  2 16  1  0  0  0  0
  2 17  1  0  0  0  0
  3  6  1  0  0  0  0
  3  7  1  0  0  0  0
  4  8  2  0  0  0  0
  4  9  1  0  0  0  0
  5 10  1  0  0  0  0
  5 11  2  0  0  0  0
  6 12  2  0  0  0  0
  6 18  1  0  0  0  0
  8 12  1  0  0  0  0
  8 19  1  0  0  0  0
 10 13  1  0  0  0  0
 10 20  1  0  0  0  0
 12 21  1  0  0  0  0
 13 14  1  0  0  0  0
 13 15  2  0  0  0  0
 14 22  1  0  0  0  0
 14 23  1  0  0  0  0
 15 24  1  0  0  0  0
M  END
>  <DRUGBANK_ID>
DB01018

>  <SECONDARY_ACCESSION_NUMBERS>
APRD00075

>  <COMMON_NAME>
Guanfacine

>  <CAS_NUMBER>
29110-47-2

>  <UNII>
30OMY4G3MK

>  <SYNONYMS>
Guanfacina; Guanfacine; Guanfacinum

$$$$
