BCE
 OpenBabel10282417072D

 35 36  0  0  0  0  0  0  0  0999 V2000
    2.3227   -0.7595    0.0000 C   0  0  0  0  0  0  0  0  0  0  0  0
    3.0372   -1.1720    0.0000 C   0  0  0  0  0  0  0  0  0  0  0  0
    3.0372   -1.9970    0.0000 C   0  0  0  0  0  0  0  0  0  0  0  0
    2.3227   -2.4095    0.0000 C   0  0  0  0  0  0  0  0  0  0  0  0
    1.6083   -1.9970    0.0000 C   0  0  0  0  0  0  0  0  0  0  0  0
    1.6083   -1.1720    0.0000 C   0  0  0  0  0  0  0  0  0  0  0  0
    0.8938   -0.7595    0.0000 C   0  0  0  0  0  0  0  0  0  0  0  0
    0.1793   -1.1720    0.0000 C   0  0  0  0  0  0  0  0  0  0  0  0
   -0.5351   -0.7595    0.0000 C   0  0  0  0  0  0  0  0  0  0  0  0
    0.8938    0.0655    0.0000 C   0  0  0  0  0  0  0  0  0  0  0  0
    0.1793    0.4780    0.0000 C   0  0  0  0  0  0  0  0  0  0  0  0
   -0.5351    0.0655    0.0000 C   0  0  0  0  0  0  0  0  0  0  0  0
   -1.2496    0.4780    0.0000 N   0  0  0  0  0  0  0  0  0  0  0  0
   -1.2496    1.3030    0.0000 C   0  0  0  0  0  0  0  0  0  0  0  0
   -0.5351    1.7155    0.0000 O   0  0  0  0  0  0  0  0  0  0  0  0
   -1.9641    1.7155    0.0000 C   0  0  0  0  0  0  0  0  0  0  0  0
   -1.9641    2.5405    0.0000 C   0  0  0  0  0  0  0  0  0  0  0  0
   -1.9641    3.3655    0.0000 N   0  0  0  0  0  0  0  0  0  0  0  0
   -2.6785    1.3030    0.0000 C   0  0  0  0  0  0  0  0  0  0  0  0
   -3.3930    1.7155    0.0000 C   0  0  0  0  0  0  0  0  0  0  0  0
   -2.6785    0.4780    0.0000 O   0  0  0  0  0  0  0  0  0  0  0  0
    2.3227    0.2725    0.0000 H   0  0  0  0  0  0  0  0  0  0  0  0
    3.9309   -0.6560    0.0000 H   0  0  0  0  0  0  0  0  0  0  0  0
    3.9309   -2.5130    0.0000 H   0  0  0  0  0  0  0  0  0  0  0  0
    2.3227   -3.4415    0.0000 H   0  0  0  0  0  0  0  0  0  0  0  0
    0.7146   -2.5130    0.0000 H   0  0  0  0  0  0  0  0  0  0  0  0
    0.1793   -2.2040    0.0000 H   0  0  0  0  0  0  0  0  0  0  0  0
   -1.4288   -1.2755    0.0000 H   0  0  0  0  0  0  0  0  0  0  0  0
    1.7875    0.5815    0.0000 H   0  0  0  0  0  0  0  0  0  0  0  0
    0.1793    1.5100    0.0000 H   0  0  0  0  0  0  0  0  0  0  0  0
   -2.1022   -0.0143    0.0000 H   0  0  0  0  0  0  0  0  0  0  0  0
   -3.3930    2.7855    0.0000 H   0  0  0  0  0  0  0  0  0  0  0  0
   -4.3196    1.1805    0.0000 H   0  0  0  0  0  0  0  0  0  0  0  0
   -4.3197    2.2505    0.0000 H   0  0  0  0  0  0  0  0  0  0  0  0
   -3.4900    0.0095    0.0000 H   0  0  0  0  0  0  0  0  0  0  0  0
  1  2  2  0  0  0  0
  1  6  1  0  0  0  0
  1 22  1  0  0  0  0
  2  3  1  0  0  0  0
  2 23  1  0  0  0  0
  3  4  2  0  0  0  0
  3 24  1  0  0  0  0
  4  5  1  0  0  0  0
  4 25  1  0  0  0  0
  5  6  2  0  0  0  0
  5 26  1  0  0  0  0
  6  7  1  0  0  0  0
  7  8  2  0  0  0  0
  7 10  1  0  0  0  0
  8  9  1  0  0  0  0
  8 27  1  0  0  0  0
  9 12  2  0  0  0  0
  9 28  1  0  0  0  0
 10 11  2  0  0  0  0
 10 29  1  0  0  0  0
 11 12  1  0  0  0  0
 11 30  1  0  0  0  0
 12 13  1  0  0  0  0
 13 14  1  0  0  0  0
 13 31  1  0  0  0  0
 14 15  2  0  0  0  0
 14 16  1  0  0  0  0
 16 17  1  0  0  0  0
 16 19  2  0  0  0  0
 17 18  3  0  0  0  0
 19 20  1  0  0  0  0
 19 21  1  0  0  0  0
 20 32  1  0  0  0  0
 20 33  1  0  0  0  0
 20 34  1  0  0  0  0
 21 35  1  0  0  0  0
M  END
>  <DRUGBANK_ID>
DB07443

>  <COMMON_NAME>
(2Z)-N-biphenyl-4-yl-2-cyano-3-hydroxybut-2-enamide

$$$$
