
 OpenBabel10282417072D

 19 16  0  0  0  0  0  0  0  0999 V2000
    0.0000   -1.4842    0.0000 C   0  0  0  0  0  0  0  0  0  0  0  0
    0.0000   -0.0552    0.0000 C   0  0  0  0  0  0  0  0  0  0  0  0
    0.4125   -0.7697    0.0000 C   0  0  3  0  0  0  0  0  0  0  0  0
    0.4125   -2.1986    0.0000 O   0  0  0  0  0  0  0  0  0  0  0  0
    1.2375   -0.7697    0.0000 O   0  0  0  0  0  0  0  0  0  0  0  0
    0.7144    1.7861    0.0000 O   0  5  0  0  0  0  0  0  0  0  0  0
   -0.7144    0.9611    0.0000 O   0  5  0  0  0  0  0  0  0  0  0  0
   -0.4125    2.0881    0.0000 O   0  0  0  0  0  0  0  0  0  0  0  0
    0.4125    0.6592    0.0000 O   0  0  0  0  0  0  0  0  0  0  0  0
    0.0000    1.3736    0.0000 P   0  0  0  0  0  0  0  0  0  0  0  0
    1.4289    2.1986    0.0000 Na  0  3  0  0  0  0  0  0  0  0  0  0
   -1.4289    0.5486    0.0000 Na  0  3  0  0  0  0  0  0  0  0  0  0
   -1.0700   -1.4842    0.0000 H   0  0  0  0  0  0  0  0  0  0  0  0
   -0.5350   -2.4109    0.0000 H   0  0  0  0  0  0  0  0  0  0  0  0
   -1.0700   -0.0552    0.0000 H   0  0  0  0  0  0  0  0  0  0  0  0
   -0.5350    0.8715    0.0000 H   0  0  0  0  0  0  0  0  0  0  0  0
   -0.6575   -0.7697    0.0000 H   0  0  0  0  0  0  0  0  0  0  0  0
   -0.0725   -3.0387    0.0000 H   0  0  0  0  0  0  0  0  0  0  0  0
    1.7225   -1.6097    0.0000 H   0  0  0  0  0  0  0  0  0  0  0  0
  1 13  1  0  0  0  0
  1 14  1  0  0  0  0
  2 15  1  0  0  0  0
  2 16  1  0  0  0  0
  3  1  1  0  0  0  0
  3  2  1  0  0  0  0
  3 17  1  0  0  0  0
  4  1  1  0  0  0  0
  4 18  1  0  0  0  0
  5  3  1  0  0  0  0
  5 19  1  0  0  0  0
  9  2  1  0  0  0  0
 10  6  1  0  0  0  0
 10  7  1  0  0  0  0
 10  8  2  0  0  0  0
 10  9  1  0  0  0  0
M  CHG  4   6  -1   7  -1  11   1  12   1
M  END
>  <DRUGBANK_ID>
DB09561

>  <SECONDARY_ACCESSION_NUMBERS>
DBSALT001586

>  <COMMON_NAME>
Sodium glycerophosphate

>  <CAS_NUMBER>
1334-74-3

>  <UNII>
G43E72677U

>  <SYNONYMS>
Disodium glycerol phosphate; Sodium glycerophosphate anhydrous

$$$$
