
 OpenBabel10282417072D

 51 54  0  0  0  0  0  0  0  0999 V2000
    1.4568    1.0145    0.0000 C   0  0  0  0  0  0  0  0  0  0  0  0
    1.4568    0.1895    0.0000 C   0  0  0  0  0  0  0  0  0  0  0  0
    0.7447   -0.2188    0.0000 S   0  0  0  0  0  0  0  0  0  0  0  0
    0.7447    1.4311    0.0000 C   0  0  0  0  0  0  0  0  0  0  0  0
    2.1724    1.4249    0.0000 C   0  0  0  0  0  0  0  0  0  0  0  0
    2.8857    1.0103    0.0000 S   0  0  0  0  0  0  0  0  0  0  0  0
    0.7466    2.2572    0.0000 C   0  0  0  0  0  0  0  0  0  0  0  0
    0.0322    2.6697    0.0000 O   0  0  0  0  0  0  0  0  0  0  0  0
    1.4611    2.6697    0.0000 O   0  0  0  0  0  0  0  0  0  0  0  0
    0.0327    1.0145    0.0000 N   0  0  0  0  0  0  0  0  0  0  0  0
    0.0363    0.1895    0.0000 C   0  0  1  0  0  0  0  0  0  0  0  0
   -0.7875    0.1851    0.0000 C   0  0  1  0  0  0  0  0  0  0  0  0
   -0.7921    1.0109    0.0000 C   0  0  0  0  0  0  0  0  0  0  0  0
   -1.2014   -0.5285    0.0000 N   0  0  0  0  0  0  0  0  0  0  0  0
    3.6014    1.4207    0.0000 C   0  0  0  0  0  0  0  0  0  0  0  0
    3.6927    2.2438    0.0000 N   0  0  0  0  0  0  0  0  0  0  0  0
    4.5001    2.4130    0.0000 N   0  0  0  0  0  0  0  0  0  0  0  0
    4.9106    1.6973    0.0000 N   0  0  0  0  0  0  0  0  0  0  0  0
    4.3567    1.0859    0.0000 N   0  0  0  0  0  0  0  0  0  0  0  0
    4.5275    0.2788    0.0000 C   0  0  0  0  0  0  0  0  0  0  0  0
   -1.3780    1.5917    0.0000 O   0  0  0  0  0  0  0  0  0  0  0  0
   -2.0263   -0.5270    0.0000 C   0  0  0  0  0  0  0  0  0  0  0  0
   -2.4402   -1.2407    0.0000 C   0  0  2  0  0  0  0  0  0  0  0  0
   -2.4375    0.1881    0.0000 O   0  0  0  0  0  0  0  0  0  0  0  0
   -2.0290   -1.9559    0.0000 O   0  0  0  0  0  0  0  0  0  0  0  0
   -3.2653   -1.2392    0.0000 C   0  0  0  0  0  0  0  0  0  0  0  0
   -3.6743   -1.9558    0.0000 C   0  0  0  0  0  0  0  0  0  0  0  0
   -4.4986   -1.9546    0.0000 C   0  0  0  0  0  0  0  0  0  0  0  0
   -4.9105   -1.2389    0.0000 C   0  0  0  0  0  0  0  0  0  0  0  0
   -4.4924   -0.5228    0.0000 C   0  0  0  0  0  0  0  0  0  0  0  0
   -3.6695   -0.5275    0.0000 C   0  0  0  0  0  0  0  0  0  0  0  0
   -2.4429   -2.6697    0.0000 C   0  0  0  0  0  0  0  0  0  0  0  0
   -3.2678   -2.6681    0.0000 O   0  0  0  0  0  0  0  0  0  0  0  0
    0.0443   -0.6313    0.0000 H   0  0  0  0  0  0  0  0  0  0  0  0
    2.3826   -0.3469    0.0000 H   0  0  0  0  0  0  0  0  0  0  0  0
    1.4544   -0.8805    0.0000 H   0  0  0  0  0  0  0  0  0  0  0  0
    2.1755    2.4949    0.0000 H   0  0  0  0  0  0  0  0  0  0  0  0
    3.1006    1.9572    0.0000 H   0  0  0  0  0  0  0  0  0  0  0  0
    0.0322    3.6067    0.0000 H   0  0  0  0  0  0  0  0  0  0  0  0
   -0.2510   -0.7407    0.0000 H   0  0  0  0  0  0  0  0  0  0  0  0
   -0.7108   -1.3820    0.0000 H   0  0  0  0  0  0  0  0  0  0  0  0
    3.7317   -0.4365    0.0000 H   0  0  0  0  0  0  0  0  0  0  0  0
    5.5448   -0.0528    0.0000 H   0  0  0  0  0  0  0  0  0  0  0  0
    4.7490   -0.7680    0.0000 H   0  0  0  0  0  0  0  0  0  0  0  0
   -1.3702   -1.2427    0.0000 H   0  0  0  0  0  0  0  0  0  0  0  0
   -3.1567   -2.8486    0.0000 H   0  0  0  0  0  0  0  0  0  0  0  0
   -5.0159   -2.8476    0.0000 H   0  0  0  0  0  0  0  0  0  0  0  0
   -5.9425   -1.2357    0.0000 H   0  0  0  0  0  0  0  0  0  0  0  0
   -5.0037    0.3737    0.0000 H   0  0  0  0  0  0  0  0  0  0  0  0
   -3.1478    0.3629    0.0000 H   0  0  0  0  0  0  0  0  0  0  0  0
   -1.9286   -3.5644    0.0000 H   0  0  0  0  0  0  0  0  0  0  0  0
  1  5  1  0  0  0  0
  1  2  1  0  0  0  0
  1  4  2  0  0  0  0
  2  3  1  0  0  0  0
  2 35  1  0  0  0  0
  2 36  1  0  0  0  0
  4  7  1  0  0  0  0
  5  6  1  0  0  0  0
  5 37  1  0  0  0  0
  5 38  1  0  0  0  0
  6 15  1  0  0  0  0
  7  8  1  0  0  0  0
  7  9  2  0  0  0  0
  8 39  1  0  0  0  0
 10 11  1  0  0  0  0
 10  4  1  0  0  0  0
 11 12  1  0  0  0  0
 11 34  1  1  0  0  0
 11  3  1  0  0  0  0
 12 13  1  0  0  0  0
 12 14  1  0  0  0  0
 12 40  1  1  0  0  0
 13 21  2  0  0  0  0
 13 10  1  0  0  0  0
 14 22  1  0  0  0  0
 14 41  1  0  0  0  0
 15 16  2  0  0  0  0
 16 17  1  0  0  0  0
 17 18  2  0  0  0  0
 18 19  1  0  0  0  0
 19 15  1  0  0  0  0
 19 20  1  0  0  0  0
 20 42  1  0  0  0  0
 20 43  1  0  0  0  0
 20 44  1  0  0  0  0
 22 23  1  0  0  0  0
 22 24  2  0  0  0  0
 23 25  1  0  0  0  0
 23 26  1  0  0  0  0
 23 45  1  1  0  0  0
 25 32  1  0  0  0  0
 26 27  2  0  0  0  0
 27 28  1  0  0  0  0
 27 46  1  0  0  0  0
 28 29  2  0  0  0  0
 28 47  1  0  0  0  0
 29 30  1  0  0  0  0
 29 48  1  0  0  0  0
 30 31  2  0  0  0  0
 30 49  1  0  0  0  0
 31 26  1  0  0  0  0
 31 50  1  0  0  0  0
 32 33  2  0  0  0  0
 32 51  1  0  0  0  0
M  END
>  <DRUGBANK_ID>
DB14725

>  <COMMON_NAME>
Cefamandole nafate

>  <CAS_NUMBER>
57268-80-1

>  <SYNONYMS>
O-formylcefamandole

$$$$
