
 OpenBabel10282417072D

 25 25  0  0  0  0  0  0  0  0999 V2000
   -0.7144    0.0000    0.0000 C   0  0  0  0  0  0  0  0  0  0  0  0
   -0.7144   -0.8250    0.0000 C   0  0  0  0  0  0  0  0  0  0  0  0
   -1.4289    0.4125    0.0000 C   0  0  0  0  0  0  0  0  0  0  0  0
   -1.4289   -1.2375    0.0000 C   0  0  0  0  0  0  0  0  0  0  0  0
   -2.1434    0.0000    0.0000 C   0  0  0  0  0  0  0  0  0  0  0  0
   -2.1434   -0.8250    0.0000 C   0  0  0  0  0  0  0  0  0  0  0  0
    0.0000    0.4125    0.0000 C   0  0  0  0  0  0  0  0  0  0  0  0
    0.7144    0.0000    0.0000 O   0  0  0  0  0  0  0  0  0  0  0  0
    0.0000    1.2374    0.0000 O   0  0  0  0  0  0  0  0  0  0  0  0
    1.4289    0.4125    0.0000 C   0  0  0  0  0  0  0  0  0  0  0  0
    2.1434    0.0000    0.0000 C   0  0  0  0  0  0  0  0  0  0  0  0
    2.8579    0.4125    0.0000 C   0  0  0  0  0  0  0  0  0  0  0  0
   -2.8579   -1.2375    0.0000 O   0  0  0  0  0  0  0  0  0  0  0  0
    0.1793   -1.3410    0.0000 H   0  0  0  0  0  0  0  0  0  0  0  0
   -1.4289    1.4445    0.0000 H   0  0  0  0  0  0  0  0  0  0  0  0
   -1.4289   -2.2695    0.0000 H   0  0  0  0  0  0  0  0  0  0  0  0
   -3.0371    0.5160    0.0000 H   0  0  0  0  0  0  0  0  0  0  0  0
    1.4289    1.4825    0.0000 H   0  0  0  0  0  0  0  0  0  0  0  0
    2.3555    0.9475    0.0000 H   0  0  0  0  0  0  0  0  0  0  0  0
    2.1434   -1.0700    0.0000 H   0  0  0  0  0  0  0  0  0  0  0  0
    3.0700   -0.5350    0.0000 H   0  0  0  0  0  0  0  0  0  0  0  0
    3.7845   -0.1225    0.0000 H   0  0  0  0  0  0  0  0  0  0  0  0
    2.8579    1.4825    0.0000 H   0  0  0  0  0  0  0  0  0  0  0  0
    3.7846    0.9475    0.0000 H   0  0  0  0  0  0  0  0  0  0  0  0
   -3.6694   -0.7690    0.0000 H   0  0  0  0  0  0  0  0  0  0  0  0
  1  7  1  0  0  0  0
  2  1  1  0  0  0  0
  2 14  1  0  0  0  0
  3  1  2  0  0  0  0
  3 15  1  0  0  0  0
  4  2  2  0  0  0  0
  4 16  1  0  0  0  0
  5  3  1  0  0  0  0
  5 17  1  0  0  0  0
  6  4  1  0  0  0  0
  6  5  2  0  0  0  0
  6 13  1  0  0  0  0
  7  8  1  0  0  0  0
  7  9  2  0  0  0  0
  8 10  1  0  0  0  0
 10 11  1  0  0  0  0
 10 18  1  0  0  0  0
 10 19  1  0  0  0  0
 11 12  1  0  0  0  0
 11 20  1  0  0  0  0
 11 21  1  0  0  0  0
 12 22  1  0  0  0  0
 12 23  1  0  0  0  0
 12 24  1  0  0  0  0
 13 25  1  0  0  0  0
M  END
>  <DRUGBANK_ID>
DB14177

>  <COMMON_NAME>
Propylparaben

>  <CAS_NUMBER>
94-13-3

>  <UNII>
Z8IX2SC1OH

>  <SYNONYMS>
4-Hydroxybenzoic acid propyl ester; 4-Hydroxybenzoic acid, propyl ester; n-Propyl 4-hydroxybenzoate; n-Propyl p-hydroxybenzoate; n-propyl paraben; p-Hydroxybenzoic acid propyl ester; p-Hydroxybenzoic propyl ester; p-Oxybenzoes√§urepropylester; Propyl p-hydroxybenzoate; Propyl paraben; Propyl parahydroxybenzoate; Propylparaben

$$$$
