
 OpenBabel10282417072D

 63 66  0  0  0  0  0  0  0  0999 V2000
   -2.6424   -0.5258    0.0000 C   0  0  0  0  0  0  0  0  0  0  0  0
   -3.3568   -0.9383    0.0000 C   0  0  0  0  0  0  0  0  0  0  0  0
   -2.6424   -2.1759    0.0000 C   0  0  0  0  0  0  0  0  0  0  0  0
   -1.2134   -2.1759    0.0000 C   0  0  0  0  0  0  0  0  0  0  0  0
   -1.9279   -0.9383    0.0000 C   0  0  2  0  0  0  0  0  0  0  0  0
   -1.2134    0.2991    0.0000 C   0  0  0  0  0  0  0  0  0  0  0  0
    1.0000   -0.7807    0.0000 C   0  0  0  0  0  0  0  0  0  0  0  0
    1.4850   -0.1133    0.0000 C   0  0  0  0  0  0  0  0  0  0  0  0
   -1.9279   -0.1133    0.0000 C   0  0  0  0  0  0  0  0  0  0  0  0
   -1.2134   -0.5258    0.0000 C   0  0  1  0  0  0  0  0  0  0  0  0
   -1.2134   -1.3508    0.0000 H   0  0  0  0  0  0  0  0  0  0  0  0
   -0.4990   -0.9383    0.0000 C   0  0  2  0  0  0  0  0  0  0  0  0
   -0.4990   -0.1133    0.0000 H   0  0  0  0  0  0  0  0  0  0  0  0
    0.2154   -0.5258    0.0000 C   0  0  1  0  0  0  0  0  0  0  0  0
    0.2154    0.2991    0.0000 C   0  0  1  0  0  0  0  0  0  0  0  0
    0.2154    1.1241    0.0000 C   0  0  0  0  0  0  0  0  0  0  0  0
    0.2154   -1.3508    0.0000 H   0  0  0  0  0  0  0  0  0  0  0  0
    1.7145    0.9665    0.0000 H   0  0  0  0  0  0  0  0  0  0  0  0
   -3.3568   -1.7633    0.0000 C   0  0  0  0  0  0  0  0  0  0  0  0
   -4.0713   -2.1759    0.0000 O   0  0  0  0  0  0  0  0  0  0  0  0
   -0.4990   -1.7633    0.0000 C   0  0  0  0  0  0  0  0  0  0  0  0
    0.2154   -2.1759    0.0000 O   0  0  0  0  0  0  0  0  0  0  0  0
   -1.9279   -1.7633    0.0000 C   0  0  1  0  0  0  0  0  0  0  0  0
   -1.9279   -2.5884    0.0000 H   0  0  0  0  0  0  0  0  0  0  0  0
    2.6425    1.3509    0.0000 C   0  0  0  0  0  0  0  0  0  0  0  0
    1.9280    1.7634    0.0000 C   0  0  0  0  0  0  0  0  0  0  0  0
    3.3569    1.7634    0.0000 C   0  0  0  0  0  0  0  0  0  0  0  0
    3.3569    2.5884    0.0000 O   0  0  0  0  0  0  0  0  0  0  0  0
    4.0713    1.3509    0.0000 O   0  0  0  0  0  0  0  0  0  0  0  0
    1.0000    0.5540    0.0000 C   0  0  1  0  0  0  0  0  0  0  0  0
   -0.4990    0.7116    0.0000 C   0  0  0  0  0  0  0  0  0  0  0  0
   -0.4990    1.5366    0.0000 O   0  0  0  0  0  0  0  0  0  0  0  0
    1.2135    1.3509    0.0000 C   0  0  2  0  0  0  0  0  0  0  0  0
    0.6302    1.9343    0.0000 C   0  0  0  0  0  0  0  0  0  0  0  0
   -2.6424    0.5442    0.0000 H   0  0  0  0  0  0  0  0  0  0  0  0
   -3.5691    0.0092    0.0000 H   0  0  0  0  0  0  0  0  0  0  0  0
   -4.2835   -0.4033    0.0000 H   0  0  0  0  0  0  0  0  0  0  0  0
   -4.2834   -1.4733    0.0000 H   0  0  0  0  0  0  0  0  0  0  0  0
   -2.6424   -3.2459    0.0000 H   0  0  0  0  0  0  0  0  0  0  0  0
   -3.5691   -2.7108    0.0000 H   0  0  0  0  0  0  0  0  0  0  0  0
   -1.2134   -3.2459    0.0000 H   0  0  0  0  0  0  0  0  0  0  0  0
   -2.1401   -2.7109    0.0000 H   0  0  0  0  0  0  0  0  0  0  0  0
   -2.1401    0.8341    0.0000 H   0  0  0  0  0  0  0  0  0  0  0  0
   -1.2134    1.3691    0.0000 H   0  0  0  0  0  0  0  0  0  0  0  0
    1.3306   -1.7983    0.0000 H   0  0  0  0  0  0  0  0  0  0  0  0
    2.0568   -0.9482    0.0000 H   0  0  0  0  0  0  0  0  0  0  0  0
    2.5550   -0.1133    0.0000 H   0  0  0  0  0  0  0  0  0  0  0  0
    1.9707   -1.0667    0.0000 H   0  0  0  0  0  0  0  0  0  0  0  0
   -1.0013    0.4217    0.0000 H   0  0  0  0  0  0  0  0  0  0  0  0
   -2.8545    0.4217    0.0000 H   0  0  0  0  0  0  0  0  0  0  0  0
   -1.9279    0.9567    0.0000 H   0  0  0  0  0  0  0  0  0  0  0  0
    1.1420    1.6591    0.0000 H   0  0  0  0  0  0  0  0  0  0  0  0
   -0.7112    1.6591    0.0000 H   0  0  0  0  0  0  0  0  0  0  0  0
    0.2154    2.1941    0.0000 H   0  0  0  0  0  0  0  0  0  0  0  0
    2.6425    0.2809    0.0000 H   0  0  0  0  0  0  0  0  0  0  0  0
    3.5692    0.8159    0.0000 H   0  0  0  0  0  0  0  0  0  0  0  0
    1.9280    2.8334    0.0000 H   0  0  0  0  0  0  0  0  0  0  0  0
    1.0014    2.2984    0.0000 H   0  0  0  0  0  0  0  0  0  0  0  0
    4.0713    0.4139    0.0000 H   0  0  0  0  0  0  0  0  0  0  0  0
    1.3532    2.4117    0.0000 H   0  0  0  0  0  0  0  0  0  0  0  0
    0.9072    2.9678    0.0000 H   0  0  0  0  0  0  0  0  0  0  0  0
   -0.4034    1.6575    0.0000 H   0  0  0  0  0  0  0  0  0  0  0  0
   -0.1263    2.6910    0.0000 H   0  0  0  0  0  0  0  0  0  0  0  0
  1 35  1  0  0  0  0
  1 36  1  0  0  0  0
  2  1  1  0  0  0  0
  2 37  1  0  0  0  0
  2 38  1  0  0  0  0
  3 39  1  0  0  0  0
  3 40  1  0  0  0  0
  4 21  1  0  0  0  0
  4 41  1  0  0  0  0
  4 42  1  0  0  0  0
  5 10  1  0  0  0  0
  5  9  1  1  0  0  0
  5  1  1  0  0  0  0
  6 31  1  0  0  0  0
  6 43  1  0  0  0  0
  6 44  1  0  0  0  0
  7 45  1  0  0  0  0
  7 46  1  0  0  0  0
  8  7  1  0  0  0  0
  8 47  1  0  0  0  0
  8 48  1  0  0  0  0
  9 49  1  0  0  0  0
  9 50  1  0  0  0  0
  9 51  1  0  0  0  0
 10  6  1  0  0  0  0
 10 12  1  0  0  0  0
 10 11  1  6  0  0  0
 12 14  1  0  0  0  0
 12 21  1  0  0  0  0
 12 13  1  1  0  0  0
 14 15  1  0  0  0  0
 14  7  1  0  0  0  0
 14 17  1  6  0  0  0
 15 30  1  0  0  0  0
 15 31  1  0  0  0  0
 15 16  1  1  0  0  0
 16 52  1  0  0  0  0
 16 53  1  0  0  0  0
 16 54  1  0  0  0  0
 19  3  1  0  0  0  0
 19  2  1  0  0  0  0
 19 20  2  0  0  0  0
 21 22  2  0  0  0  0
 23  5  1  0  0  0  0
 23  3  1  0  0  0  0
 23  4  1  0  0  0  0
 23 24  1  1  0  0  0
 25 26  1  0  0  0  0
 25 27  1  0  0  0  0
 25 55  1  0  0  0  0
 25 56  1  0  0  0  0
 26 57  1  0  0  0  0
 26 58  1  0  0  0  0
 27 29  1  0  0  0  0
 27 28  2  0  0  0  0
 29 59  1  0  0  0  0
 30  8  1  0  0  0  0
 30 18  1  6  0  0  0
 30 33  1  0  0  0  0
 31 32  2  0  0  0  0
 33 26  1  0  0  0  0
 33 34  1  0  0  0  0
 33 60  1  1  0  0  0
 34 61  1  0  0  0  0
 34 62  1  0  0  0  0
 34 63  1  0  0  0  0
M  END
>  <DRUGBANK_ID>
DB11622

>  <COMMON_NAME>
Dehydrocholic acid

>  <CAS_NUMBER>
81-23-2

>  <UNII>
NH5000009I

>  <SYNONYMS>
3,7,12-Triketo-5beta-cholanoic acid; 3,7,12-triketocholanic acid; 3,7,12-trioxo-5beta-cholanic acid; 3,7,12-trioxo-5Î²-cholanic acid; 3,7,12-trioxocholanic acid; Decholin; Dehydrocholate; Dehydrocholic acid

$$$$
