
 OpenBabel10282417072D

 26 26  0  0  0  0  0  0  0  0999 V2000
    2.1434    0.4125    0.0000 C   0  0  0  0  0  0  0  0  0  0  0  0
    2.1434    1.2375    0.0000 O   0  0  0  0  0  0  0  0  0  0  0  0
    1.4289    0.0000    0.0000 C   0  0  2  0  0  0  0  0  0  0  0  0
    0.7145    0.4125    0.0000 C   0  0  0  0  0  0  0  0  0  0  0  0
    1.4289   -0.8250    0.0000 N   0  0  0  0  0  0  0  0  0  0  0  0
    0.0000    0.0000    0.0000 C   0  0  0  0  0  0  0  0  0  0  0  0
    0.0000   -0.8250    0.0000 C   0  0  0  0  0  0  0  0  0  0  0  0
   -0.7144    0.4125    0.0000 C   0  0  0  0  0  0  0  0  0  0  0  0
   -1.4288    0.0000    0.0000 C   0  0  0  0  0  0  0  0  0  0  0  0
   -1.4288   -0.8250    0.0000 C   0  0  0  0  0  0  0  0  0  0  0  0
   -0.7144   -1.2374    0.0000 C   0  0  0  0  0  0  0  0  0  0  0  0
   -2.1433   -1.2374    0.0000 O   0  0  0  0  0  0  0  0  0  0  0  0
    2.8579    0.0000    0.0000 O   0  0  0  0  0  0  0  0  0  0  0  0
   -2.8579    0.0000    0.0000 O   0  5  0  0  0  0  0  0  0  0  0  0
   -2.1433    1.2375    0.0000 O   0  0  0  0  0  0  0  0  0  0  0  0
   -2.1433    0.4125    0.0000 N   0  3  0  0  0  0  0  0  0  0  0  0
    2.3555   -0.5350    0.0000 H   0  0  0  0  0  0  0  0  0  0  0  0
    0.7145    1.4825    0.0000 H   0  0  0  0  0  0  0  0  0  0  0  0
   -0.2121    0.9475    0.0000 H   0  0  0  0  0  0  0  0  0  0  0  0
    0.5456   -1.3350    0.0000 H   0  0  0  0  0  0  0  0  0  0  0  0
    2.3122   -1.3350    0.0000 H   0  0  0  0  0  0  0  0  0  0  0  0
    0.8937   -1.3410    0.0000 H   0  0  0  0  0  0  0  0  0  0  0  0
   -0.7144    1.4445    0.0000 H   0  0  0  0  0  0  0  0  0  0  0  0
   -0.7144   -2.2694    0.0000 H   0  0  0  0  0  0  0  0  0  0  0  0
   -2.9547   -0.7688    0.0000 H   0  0  0  0  0  0  0  0  0  0  0  0
    2.8579   -0.9370    0.0000 H   0  0  0  0  0  0  0  0  0  0  0  0
  1  2  2  0  0  0  0
  1  3  1  0  0  0  0
  3  4  1  0  0  0  0
  3  5  1  0  0  0  0
  3 17  1  6  0  0  0
  4  6  1  0  0  0  0
  4 18  1  0  0  0  0
  4 19  1  0  0  0  0
  5 20  1  0  0  0  0
  5 21  1  0  0  0  0
  6  7  1  0  0  0  0
  6  8  2  0  0  0  0
  7 11  2  0  0  0  0
  7 22  1  0  0  0  0
  8  9  1  0  0  0  0
  8 23  1  0  0  0  0
  9 10  2  0  0  0  0
  9 16  1  0  0  0  0
 10 11  1  0  0  0  0
 10 12  1  0  0  0  0
 11 24  1  0  0  0  0
 12 25  1  0  0  0  0
 13  1  1  0  0  0  0
 13 26  1  0  0  0  0
 14 16  1  0  0  0  0
 16 15  2  0  0  0  0
M  CHG  2  14  -1  16   1
M  END
>  <DRUGBANK_ID>
DB03867

>  <SECONDARY_ACCESSION_NUMBERS>
EXPT02352

>  <COMMON_NAME>
3-nitro-L-tyrosine

>  <CAS_NUMBER>
621-44-3

>  <UNII>
7COY1HA6HK

>  <SYNONYMS>
(2S)-2-amino-3-(4-hydroxy-3-nitrophenyl)propanoic acid; 3-Nitro-L-tyrosine; L-3-Nitrotyrosine

$$$$
