AP6
 OpenBabel10282417072D

 32 34  0  0  0  0  0  0  0  0999 V2000
   -1.6599    1.3388    0.0000 N   0  0  0  0  0  0  0  0  0  0  0  0
   -2.3743    0.9263    0.0000 C   0  0  0  0  0  0  0  0  0  0  0  0
   -3.0888    1.3388    0.0000 N   0  0  0  0  0  0  0  0  0  0  0  0
   -2.3743    0.1013    0.0000 N   0  0  0  0  0  0  0  0  0  0  0  0
   -1.6599   -0.3112    0.0000 C   0  0  0  0  0  0  0  0  0  0  0  0
   -1.6599   -1.1362    0.0000 N   0  0  0  0  0  0  0  0  0  0  0  0
   -0.9454    0.1013    0.0000 C   0  0  0  0  0  0  0  0  0  0  0  0
   -0.9454    0.9263    0.0000 C   0  0  0  0  0  0  0  0  0  0  0  0
   -0.2309   -0.3112    0.0000 N   0  0  0  0  0  0  0  0  0  0  0  0
    0.4835    0.1013    0.0000 C   0  0  1  0  0  0  0  0  0  0  0  0
    0.4835    0.9263    0.0000 C   0  0  0  0  0  0  0  0  0  0  0  0
   -0.2309    1.3388    0.0000 N   0  0  0  0  0  0  0  0  0  0  0  0
    1.1980   -0.3112    0.0000 C   0  0  0  0  0  0  0  0  0  0  0  0
    1.9125    0.1013    0.0000 C   0  0  0  0  0  0  0  0  0  0  0  0
    1.1980   -1.1362    0.0000 C   0  0  0  0  0  0  0  0  0  0  0  0
    2.6270   -0.3112    0.0000 C   0  0  0  0  0  0  0  0  0  0  0  0
    1.9125   -1.5487    0.0000 C   0  0  0  0  0  0  0  0  0  0  0  0
    2.6270   -1.1362    0.0000 C   0  0  0  0  0  0  0  0  0  0  0  0
    0.4835   -0.4826    0.0000 H   0  0  0  0  0  0  0  0  0  0  0  0
   -3.0888    2.3233    0.0000 H   0  0  0  0  0  0  0  0  0  0  0  0
   -3.9414    0.8465    0.0000 H   0  0  0  0  0  0  0  0  0  0  0  0
   -2.5125   -1.6285    0.0000 H   0  0  0  0  0  0  0  0  0  0  0  0
   -0.8073   -1.6285    0.0000 H   0  0  0  0  0  0  0  0  0  0  0  0
   -0.2309   -1.2957    0.0000 H   0  0  0  0  0  0  0  0  0  0  0  0
    1.4102    1.4613    0.0000 H   0  0  0  0  0  0  0  0  0  0  0  0
    0.4835    1.9963    0.0000 H   0  0  0  0  0  0  0  0  0  0  0  0
   -0.2309    2.3233    0.0000 H   0  0  0  0  0  0  0  0  0  0  0  0
    1.9125    1.1333    0.0000 H   0  0  0  0  0  0  0  0  0  0  0  0
    0.3043   -1.6522    0.0000 H   0  0  0  0  0  0  0  0  0  0  0  0
    3.5207    0.2048    0.0000 H   0  0  0  0  0  0  0  0  0  0  0  0
    1.9125   -2.5807    0.0000 H   0  0  0  0  0  0  0  0  0  0  0  0
    3.5207   -1.6522    0.0000 H   0  0  0  0  0  0  0  0  0  0  0  0
  1  2  2  0  0  0  0
  1  8  1  0  0  0  0
  2  3  1  0  0  0  0
  2  4  1  0  0  0  0
  3 20  1  0  0  0  0
  3 21  1  0  0  0  0
  4  5  2  0  0  0  0
  5  6  1  0  0  0  0
  5  7  1  0  0  0  0
  6 22  1  0  0  0  0
  6 23  1  0  0  0  0
  7  8  2  0  0  0  0
  7  9  1  0  0  0  0
  8 12  1  0  0  0  0
  9 10  1  0  0  0  0
  9 24  1  0  0  0  0
 10 11  1  0  0  0  0
 10 13  1  0  0  0  0
 10 19  1  6  0  0  0
 11 12  1  0  0  0  0
 11 25  1  0  0  0  0
 11 26  1  0  0  0  0
 12 27  1  0  0  0  0
 13 14  2  0  0  0  0
 13 15  1  0  0  0  0
 14 16  1  0  0  0  0
 14 28  1  0  0  0  0
 15 17  2  0  0  0  0
 15 29  1  0  0  0  0
 16 18  2  0  0  0  0
 16 30  1  0  0  0  0
 17 18  1  0  0  0  0
 17 31  1  0  0  0  0
 18 32  1  0  0  0  0
M  END
>  <DRUGBANK_ID>
DB02911

>  <SECONDARY_ACCESSION_NUMBERS>
EXPT00536

>  <COMMON_NAME>
2,4-Diamino-6-Phenyl-5,6,7,8,-Tetrahydropteridine

$$$$
