
 OpenBabel10282417072D

 30 31  0  0  0  0  0  0  0  0999 V2000
   -1.4149    0.8015    0.0000 O   0  0  0  0  0  0  0  0  0  0  0  0
   -1.4149   -0.0234    0.0000 C   0  0  0  0  0  0  0  0  0  0  0  0
   -2.1429   -0.4117    0.0000 C   0  0  0  0  0  0  0  0  0  0  0  0
   -0.7173   -0.4421    0.0000 C   0  0  0  0  0  0  0  0  0  0  0  0
   -2.1429   -1.2367    0.0000 C   0  0  0  0  0  0  0  0  0  0  0  0
   -0.7173   -1.2671    0.0000 C   0  0  0  0  0  0  0  0  0  0  0  0
   -1.4453   -1.6553    0.0000 C   0  0  0  0  0  0  0  0  0  0  0  0
   -1.4453   -2.4803    0.0000 O   0  0  0  0  0  0  0  0  0  0  0  0
   -2.8405   -1.6432    0.0000 I   0  0  0  0  0  0  0  0  0  0  0  0
   -0.0015   -1.6553    0.0000 I   0  0  0  0  0  0  0  0  0  0  0  0
    0.7285    2.0390    0.0000 C   0  0  0  0  0  0  0  0  0  0  0  0
    0.7285    1.2140    0.0000 C   0  0  0  0  0  0  0  0  0  0  0  0
    0.0140    2.4515    0.0000 C   0  0  0  0  0  0  0  0  0  0  0  0
    0.0140    0.8015    0.0000 C   0  0  0  0  0  0  0  0  0  0  0  0
   -0.7004    2.0390    0.0000 C   0  0  0  0  0  0  0  0  0  0  0  0
   -0.7004    1.2140    0.0000 C   0  0  0  0  0  0  0  0  0  0  0  0
   -1.4149    2.4515    0.0000 I   0  0  0  0  0  0  0  0  0  0  0  0
    0.0139   -0.0234    0.0000 I   0  0  0  0  0  0  0  0  0  0  0  0
    2.1429    2.0739    0.0000 C   0  0  0  0  0  0  0  0  0  0  0  0
    2.8405    2.4803    0.0000 O   0  0  0  0  0  0  0  0  0  0  0  0
    2.1630    1.2606    0.0000 O   0  0  0  0  0  0  0  0  0  0  0  0
    1.4261    2.4454    0.0000 C   0  0  0  0  0  0  0  0  0  0  0  0
   -3.0278    0.1192    0.0000 H   0  0  0  0  0  0  0  0  0  0  0  0
    0.1808    0.0663    0.0000 H   0  0  0  0  0  0  0  0  0  0  0  0
   -2.2568   -2.9488    0.0000 H   0  0  0  0  0  0  0  0  0  0  0  0
    1.6222    0.6980    0.0000 H   0  0  0  0  0  0  0  0  0  0  0  0
    0.0140    3.4835    0.0000 H   0  0  0  0  0  0  0  0  0  0  0  0
    3.6538    2.0150    0.0000 H   0  0  0  0  0  0  0  0  0  0  0  0
    1.3997    3.5151    0.0000 H   0  0  0  0  0  0  0  0  0  0  0  0
    2.3334    3.0125    0.0000 H   0  0  0  0  0  0  0  0  0  0  0  0
  2  1  1  0  0  0  0
  3  2  2  0  0  0  0
  3 23  1  0  0  0  0
  4  2  1  0  0  0  0
  4 24  1  0  0  0  0
  5  3  1  0  0  0  0
  6  4  2  0  0  0  0
  7  5  2  0  0  0  0
  7  6  1  0  0  0  0
  8  7  1  0  0  0  0
  8 25  1  0  0  0  0
  9  5  1  0  0  0  0
 10  6  1  0  0  0  0
 12 11  1  0  0  0  0
 12 26  1  0  0  0  0
 13 11  2  0  0  0  0
 13 27  1  0  0  0  0
 14 12  2  0  0  0  0
 14 18  1  0  0  0  0
 15 13  1  0  0  0  0
 15 17  1  0  0  0  0
 16 14  1  0  0  0  0
 16 15  2  0  0  0  0
 16  1  1  0  0  0  0
 20 19  1  0  0  0  0
 20 28  1  0  0  0  0
 21 19  2  0  0  0  0
 22 11  1  0  0  0  0
 22 19  1  0  0  0  0
 22 29  1  0  0  0  0
 22 30  1  0  0  0  0
M  END
>  <DRUGBANK_ID>
DB01751

>  <SECONDARY_ACCESSION_NUMBERS>
EXPT02994

>  <COMMON_NAME>
Tetraiodothyroacetic acid

>  <CAS_NUMBER>
67-30-1

>  <UNII>
PA7UX1FFYQ

>  <SYNONYMS>
3,3',5,5'-tetraiodothyroacetic acid; 3,5-Diiodo-4-(4-hydroxy-3,5-diiodophenoxy)benzeneacetic acid; ACETIC ACID, (4-(4-HYDROXY-3,5-DIIODOPHENOXY)-3,5-DIIODOPHENYL)-; T4-ACETIC ACID; Tetrac

$$$$
