
 OpenBabel10282417072D

 32 31  0  0  0  0  0  0  0  0999 V2000
    2.9980   -2.5559    0.0000 C   0  0  0  0  0  0  0  0  0  0  0  0
    3.7125   -2.1434    0.0000 C   0  0  0  0  0  0  0  0  0  0  0  0
    4.4270   -2.5559    0.0000 C   0  0  0  0  0  0  0  0  0  0  0  0
    5.1414   -2.1434    0.0000 C   0  0  0  0  0  0  0  0  0  0  0  0
    5.1414   -1.3184    0.0000 O   0  0  0  0  0  0  0  0  0  0  0  0
    5.8559   -2.5559    0.0000 S   0  0  0  0  0  0  0  0  0  0  0  0
    6.5704   -2.1434    0.0000 C   0  0  0  0  0  0  0  0  0  0  0  0
    7.2849   -2.5559    0.0000 C   0  0  0  0  0  0  0  0  0  0  0  0
    7.9993   -2.1434    0.0000 N   0  3  0  0  0  0  0  0  0  0  0  0
    8.7138   -1.7309    0.0000 C   0  0  0  0  0  0  0  0  0  0  0  0
    8.4118   -2.8579    0.0000 C   0  0  0  0  0  0  0  0  0  0  0  0
    7.5868   -1.4289    0.0000 C   0  0  0  0  0  0  0  0  0  0  0  0
    2.0714   -2.0209    0.0000 H   0  0  0  0  0  0  0  0  0  0  0  0
    2.9980   -3.6259    0.0000 H   0  0  0  0  0  0  0  0  0  0  0  0
    2.0713   -3.0909    0.0000 H   0  0  0  0  0  0  0  0  0  0  0  0
    3.7125   -1.0734    0.0000 H   0  0  0  0  0  0  0  0  0  0  0  0
    4.6391   -1.6084    0.0000 H   0  0  0  0  0  0  0  0  0  0  0  0
    4.4270   -3.6259    0.0000 H   0  0  0  0  0  0  0  0  0  0  0  0
    5.3537   -3.0909    0.0000 H   0  0  0  0  0  0  0  0  0  0  0  0
    6.5704   -1.0734    0.0000 H   0  0  0  0  0  0  0  0  0  0  0  0
    7.4970   -1.6084    0.0000 H   0  0  0  0  0  0  0  0  0  0  0  0
    7.2849   -3.6259    0.0000 H   0  0  0  0  0  0  0  0  0  0  0  0
    8.2116   -3.0909    0.0000 H   0  0  0  0  0  0  0  0  0  0  0  0
    9.6404   -2.2659    0.0000 H   0  0  0  0  0  0  0  0  0  0  0  0
    8.7138   -0.6609    0.0000 H   0  0  0  0  0  0  0  0  0  0  0  0
    9.6405   -1.1959    0.0000 H   0  0  0  0  0  0  0  0  0  0  0  0
    7.8768   -3.7845    0.0000 H   0  0  0  0  0  0  0  0  0  0  0  0
    9.4818   -2.8579    0.0000 H   0  0  0  0  0  0  0  0  0  0  0  0
    8.9468   -3.7846    0.0000 H   0  0  0  0  0  0  0  0  0  0  0  0
    8.1218   -0.5023    0.0000 H   0  0  0  0  0  0  0  0  0  0  0  0
    6.5168   -1.4289    0.0000 H   0  0  0  0  0  0  0  0  0  0  0  0
    7.0518   -0.5022    0.0000 H   0  0  0  0  0  0  0  0  0  0  0  0
  1  2  1  0  0  0  0
  1 13  1  0  0  0  0
  1 14  1  0  0  0  0
  1 15  1  0  0  0  0
  2  3  1  0  0  0  0
  2 16  1  0  0  0  0
  2 17  1  0  0  0  0
  3  4  1  0  0  0  0
  3 18  1  0  0  0  0
  3 19  1  0  0  0  0
  4  5  2  0  0  0  0
  4  6  1  0  0  0  0
  6  7  1  0  0  0  0
  7  8  1  0  0  0  0
  7 20  1  0  0  0  0
  7 21  1  0  0  0  0
  8  9  1  0  0  0  0
  8 22  1  0  0  0  0
  8 23  1  0  0  0  0
  9 10  1  0  0  0  0
  9 11  1  0  0  0  0
  9 12  1  0  0  0  0
 10 24  1  0  0  0  0
 10 25  1  0  0  0  0
 10 26  1  0  0  0  0
 11 27  1  0  0  0  0
 11 28  1  0  0  0  0
 11 29  1  0  0  0  0
 12 30  1  0  0  0  0
 12 31  1  0  0  0  0
 12 32  1  0  0  0  0
M  CHG  1   9   1
M  END
>  <DRUGBANK_ID>
DB04250

>  <SECONDARY_ACCESSION_NUMBERS>
EXPT00639

>  <COMMON_NAME>
Butyrylthiocholine

>  <UNII>
K8D83KI04M

$$$$
