
 OpenBabel10282417072D

 75 78  0  0  1  0  0  0  0  0999 V2000
    3.7674    6.2230    0.0000 C   0  0  0  0  0  0  0  0  0  0  0  0
    3.4318    5.4693    0.0000 C   0  0  0  0  0  0  0  0  0  0  0  0
    2.6114    5.3831    0.0000 O   0  0  0  0  0  0  0  0  0  0  0  0
    3.9168    4.8019    0.0000 N   0  0  0  0  0  0  0  0  0  0  0  0
    4.7372    4.8881    0.0000 C   0  0  2  0  0  0  0  0  0  0  0  0
    5.0728    5.6418    0.0000 C   0  0  0  0  0  0  0  0  0  0  0  0
    5.8933    5.7280    0.0000 C   0  0  1  0  0  0  0  0  0  0  0  0
    6.3782    5.0606    0.0000 C   0  0  0  0  0  0  0  0  0  0  0  0
    6.0426    4.3069    0.0000 C   0  0  0  0  0  0  0  0  0  0  0  0
    5.2222    4.2207    0.0000 C   0  0  2  0  0  0  0  0  0  0  0  0
    4.8866    3.4670    0.0000 N   0  0  0  0  0  0  0  0  0  0  0  0
    5.2991    2.7525    0.0000 C   0  0  0  0  0  0  0  0  0  0  0  0
    4.7471    2.1394    0.0000 C   0  0  0  0  0  0  0  0  0  0  0  0
    3.9934    2.4750    0.0000 C   0  0  2  0  0  0  0  0  0  0  0  0
    3.2789    2.0625    0.0000 N   0  0  0  0  0  0  0  0  0  0  0  0
    3.2789    1.2375    0.0000 C   0  0  0  0  0  0  0  0  0  0  0  0
    3.9934    0.8250    0.0000 N   0  0  0  0  0  0  0  0  0  0  0  0
    3.9934    0.0000    0.0000 C   0  0  0  0  0  0  0  0  0  0  0  0
    3.2789   -0.4125    0.0000 N   0  0  0  0  0  0  0  0  0  0  0  0
    2.5645    0.0000    0.0000 C   0  0  0  0  0  0  0  0  0  0  0  0
    1.7798   -0.2549    0.0000 C   0  0  0  0  0  0  0  0  0  0  0  0
    1.2949    0.4125    0.0000 C   0  0  0  0  0  0  0  0  0  0  0  0
    1.7798    1.0799    0.0000 N   0  0  0  0  0  0  0  0  0  0  0  0
    2.5645    0.8250    0.0000 N   0  0  0  0  0  0  0  0  0  0  0  0
    0.4699    0.4125    0.0000 C   0  0  0  0  0  0  0  0  0  0  0  0
   -0.3551    0.4125    0.0000 C   0  0  0  0  0  0  0  0  0  0  0  0
    0.4699   -0.4125    0.0000 C   0  0  0  0  0  0  0  0  0  0  0  0
    0.4699    1.2375    0.0000 C   0  0  0  0  0  0  0  0  0  0  0  0
    4.0796    3.2955    0.0000 C   0  0  0  0  0  0  0  0  0  0  0  0
    3.4665    3.8475    0.0000 O   0  0  0  0  0  0  0  0  0  0  0  0
    6.2288    6.4817    0.0000 N   0  0  0  0  0  0  0  0  0  0  0  0
    5.7439    7.1491    0.0000 C   0  0  0  0  0  0  0  0  0  0  0  0
    5.2590    7.8166    0.0000 C   0  0  0  0  0  0  0  0  0  0  0  0
    6.4114    7.6341    0.0000 C   0  0  0  0  0  0  0  0  0  0  0  0
    5.0765    6.6642    0.0000 C   0  0  0  0  0  0  0  0  0  0  0  0
    4.8315    6.3348    0.0000 H   0  0  0  0  0  0  0  0  0  0  0  0
    3.1385    7.0887    0.0000 H   0  0  0  0  0  0  0  0  0  0  0  0
    4.2026    7.2005    0.0000 H   0  0  0  0  0  0  0  0  0  0  0  0
    3.5164    3.9025    0.0000 H   0  0  0  0  0  0  0  0  0  0  0  0
    4.1083    5.7538    0.0000 H   0  0  0  0  0  0  0  0  0  0  0  0
    4.4439    6.5075    0.0000 H   0  0  0  0  0  0  0  0  0  0  0  0
    5.5081    6.6193    0.0000 H   0  0  0  0  0  0  0  0  0  0  0  0
    5.2644    6.5936    0.0000 H   0  0  0  0  0  0  0  0  0  0  0  0
    7.4423    5.1724    0.0000 H   0  0  0  0  0  0  0  0  0  0  0  0
    7.0071    4.1949    0.0000 H   0  0  0  0  0  0  0  0  0  0  0  0
    6.6715    3.4412    0.0000 H   0  0  0  0  0  0  0  0  0  0  0  0
    5.6074    3.3294    0.0000 H   0  0  0  0  0  0  0  0  0  0  0  0
    5.8511    3.3550    0.0000 H   0  0  0  0  0  0  0  0  0  0  0  0
    6.3632    2.6407    0.0000 H   0  0  0  0  0  0  0  0  0  0  0  0
    5.6826    1.7536    0.0000 H   0  0  0  0  0  0  0  0  0  0  0  0
    4.9696    1.0928    0.0000 H   0  0  0  0  0  0  0  0  0  0  0  0
    3.9155    1.4660    0.0000 H   0  0  0  0  0  0  0  0  0  0  0  0
    4.0494    1.4065    0.0000 H   0  0  0  0  0  0  0  0  0  0  0  0
    2.4263    2.5548    0.0000 H   0  0  0  0  0  0  0  0  0  0  0  0
    4.8871   -0.5160    0.0000 H   0  0  0  0  0  0  0  0  0  0  0  0
    1.4609   -1.2364    0.0000 H   0  0  0  0  0  0  0  0  0  0  0  0
   -0.8901    1.3391    0.0000 H   0  0  0  0  0  0  0  0  0  0  0  0
   -0.8901   -0.5141    0.0000 H   0  0  0  0  0  0  0  0  0  0  0  0
   -1.4251    0.4125    0.0000 H   0  0  0  0  0  0  0  0  0  0  0  0
   -0.4567   -0.9475    0.0000 H   0  0  0  0  0  0  0  0  0  0  0  0
    1.3965   -0.9475    0.0000 H   0  0  0  0  0  0  0  0  0  0  0  0
    0.4699   -1.4825    0.0000 H   0  0  0  0  0  0  0  0  0  0  0  0
    1.3965    1.7725    0.0000 H   0  0  0  0  0  0  0  0  0  0  0  0
   -0.4567    1.7725    0.0000 H   0  0  0  0  0  0  0  0  0  0  0  0
    0.4699    2.3075    0.0000 H   0  0  0  0  0  0  0  0  0  0  0  0
    7.2432    6.5884    0.0000 H   0  0  0  0  0  0  0  0  0  0  0  0
    5.6943    8.7941    0.0000 H   0  0  0  0  0  0  0  0  0  0  0  0
    4.1949    7.7048    0.0000 H   0  0  0  0  0  0  0  0  0  0  0  0
    4.6301    8.6823    0.0000 H   0  0  0  0  0  0  0  0  0  0  0  0
    7.3889    7.1989    0.0000 H   0  0  0  0  0  0  0  0  0  0  0  0
    6.2995    8.6982    0.0000 H   0  0  0  0  0  0  0  0  0  0  0  0
    7.2770    8.2631    0.0000 H   0  0  0  0  0  0  0  0  0  0  0  0
    4.0990    7.0994    0.0000 H   0  0  0  0  0  0  0  0  0  0  0  0
    5.1884    5.6001    0.0000 H   0  0  0  0  0  0  0  0  0  0  0  0
    4.2109    6.0353    0.0000 H   0  0  0  0  0  0  0  0  0  0  0  0
  1  2  1  0  0  0  0
  1 36  1  0  0  0  0
  1 37  1  0  0  0  0
  1 38  1  0  0  0  0
  2  3  2  0  0  0  0
  2  4  1  0  0  0  0
  4 39  1  0  0  0  0
  5  4  1  0  0  0  0
  5  6  1  0  0  0  0
  5 10  1  0  0  0  0
  5 40  1  1  0  0  0
  6 41  1  0  0  0  0
  6 42  1  0  0  0  0
  7  6  1  0  0  0  0
  7  8  1  0  0  0  0
  7 31  1  0  0  0  0
  7 43  1  1  0  0  0
  8  9  1  0  0  0  0
  8 44  1  0  0  0  0
  8 45  1  0  0  0  0
  9 46  1  0  0  0  0
  9 47  1  0  0  0  0
 10  9  1  0  0  0  0
 10 11  1  0  0  0  0
 10 48  1  1  0  0  0
 11 12  1  0  0  0  0
 11 29  1  0  0  0  0
 12 13  1  0  0  0  0
 12 49  1  0  0  0  0
 12 50  1  0  0  0  0
 13 51  1  0  0  0  0
 13 52  1  0  0  0  0
 14 13  1  0  0  0  0
 14 15  1  0  0  0  0
 14 29  1  0  0  0  0
 14 53  1  1  0  0  0
 15 16  1  0  0  0  0
 15 54  1  0  0  0  0
 16 17  2  0  0  0  0
 16 24  1  0  0  0  0
 17 18  1  0  0  0  0
 18 19  2  0  0  0  0
 18 55  1  0  0  0  0
 19 20  1  0  0  0  0
 20 21  2  0  0  0  0
 20 24  1  0  0  0  0
 21 22  1  0  0  0  0
 21 56  1  0  0  0  0
 22 23  2  0  0  0  0
 22 25  1  0  0  0  0
 23 24  1  0  0  0  0
 25 26  1  0  0  0  0
 25 27  1  0  0  0  0
 25 28  1  0  0  0  0
 26 57  1  0  0  0  0
 26 58  1  0  0  0  0
 26 59  1  0  0  0  0
 27 60  1  0  0  0  0
 27 61  1  0  0  0  0
 27 62  1  0  0  0  0
 28 63  1  0  0  0  0
 28 64  1  0  0  0  0
 28 65  1  0  0  0  0
 29 30  2  0  0  0  0
 31 32  1  0  0  0  0
 31 66  1  0  0  0  0
 32 33  1  0  0  0  0
 32 34  1  0  0  0  0
 32 35  1  0  0  0  0
 33 67  1  0  0  0  0
 33 68  1  0  0  0  0
 33 69  1  0  0  0  0
 34 70  1  0  0  0  0
 34 71  1  0  0  0  0
 34 72  1  0  0  0  0
 35 73  1  0  0  0  0
 35 74  1  0  0  0  0
 35 75  1  0  0  0  0
M  END
>  <DRUGBANK_ID>
DB16240

>  <COMMON_NAME>
BMS-813160

>  <CAS_NUMBER>
1286279-29-5

>  <UNII>
83U7957287

$$$$
