
 OpenBabel10282417072D

 44 46  0  0  0  0  0  0  0  0999 V2000
   -1.3492    0.0486    0.0000 C   0  0  0  0  0  0  0  0  0  0  0  0
   -1.3492   -0.7763    0.0000 C   0  0  0  0  0  0  0  0  0  0  0  0
   -2.0637    0.4611    0.0000 C   0  0  0  0  0  0  0  0  0  0  0  0
   -2.0637   -1.1888    0.0000 C   0  0  0  0  0  0  0  0  0  0  0  0
   -2.7782    0.0486    0.0000 C   0  0  0  0  0  0  0  0  0  0  0  0
   -2.7782   -0.7763    0.0000 C   0  0  0  0  0  0  0  0  0  0  0  0
   -2.0637    1.2861    0.0000 C   0  0  0  0  0  0  0  0  0  0  0  0
   -0.6347   -1.1888    0.0000 C   0  0  0  0  0  0  0  0  0  0  0  0
   -0.6347    0.4611    0.0000 N   0  0  0  0  0  0  0  0  0  0  0  0
    0.0796    0.0486    0.0000 C   0  0  0  0  0  0  0  0  0  0  0  0
    0.7941    0.4611    0.0000 C   0  0  0  0  0  0  0  0  0  0  0  0
    1.5086    0.0486    0.0000 C   0  0  3  0  0  0  0  0  0  0  0  0
    0.0797   -0.7763    0.0000 O   0  0  0  0  0  0  0  0  0  0  0  0
    2.2933    1.1286    0.0000 C   0  0  0  0  0  0  0  0  0  0  0  0
    2.7782    0.4611    0.0000 C   0  0  0  0  0  0  0  0  0  0  0  0
    1.5087    0.8737    0.0000 C   0  0  0  0  0  0  0  0  0  0  0  0
    2.2932   -0.2062    0.0000 N   0  0  3  0  0  0  0  0  0  0  0  0
    2.2932   -1.0312    0.0000 C   0  0  0  0  0  0  0  0  0  0  0  0
    1.5086   -1.2861    0.0000 C   0  0  0  0  0  0  0  0  0  0  0  0
    1.0237   -0.6187    0.0000 C   0  0  0  0  0  0  0  0  0  0  0  0
   -2.0637   -2.2208    0.0000 H   0  0  0  0  0  0  0  0  0  0  0  0
   -3.6719    0.5646    0.0000 H   0  0  0  0  0  0  0  0  0  0  0  0
   -3.6719   -1.2923    0.0000 H   0  0  0  0  0  0  0  0  0  0  0  0
   -1.1371    1.8211    0.0000 H   0  0  0  0  0  0  0  0  0  0  0  0
   -2.9903    1.8211    0.0000 H   0  0  0  0  0  0  0  0  0  0  0  0
   -2.0637    2.3561    0.0000 H   0  0  0  0  0  0  0  0  0  0  0  0
   -0.6347   -2.2588    0.0000 H   0  0  0  0  0  0  0  0  0  0  0  0
    0.2919   -0.6538    0.0000 H   0  0  0  0  0  0  0  0  0  0  0  0
    0.2920   -1.7238    0.0000 H   0  0  0  0  0  0  0  0  0  0  0  0
   -0.6346    1.4456    0.0000 H   0  0  0  0  0  0  0  0  0  0  0  0
    0.7941    1.5311    0.0000 H   0  0  0  0  0  0  0  0  0  0  0  0
    1.7207    0.9961    0.0000 H   0  0  0  0  0  0  0  0  0  0  0  0
    2.6240    2.1462    0.0000 H   0  0  0  0  0  0  0  0  0  0  0  0
    1.5367    1.8852    0.0000 H   0  0  0  0  0  0  0  0  0  0  0  0
    3.8482    0.4610    0.0000 H   0  0  0  0  0  0  0  0  0  0  0  0
    3.2638   -0.4923    0.0000 H   0  0  0  0  0  0  0  0  0  0  0  0
    0.6431    1.5027    0.0000 H   0  0  0  0  0  0  0  0  0  0  0  0
    0.5553    0.3880    0.0000 H   0  0  0  0  0  0  0  0  0  0  0  0
    3.1588   -1.6601    0.0000 H   0  0  0  0  0  0  0  0  0  0  0  0
    2.1258   -2.0880    0.0000 H   0  0  0  0  0  0  0  0  0  0  0  0
    1.1779   -2.3037    0.0000 H   0  0  0  0  0  0  0  0  0  0  0  0
    0.4518   -1.4535    0.0000 H   0  0  0  0  0  0  0  0  0  0  0  0
   -0.0463   -0.6187    0.0000 H   0  0  0  0  0  0  0  0  0  0  0  0
    0.5379   -1.5721    0.0000 H   0  0  0  0  0  0  0  0  0  0  0  0
  1  2  1  0  0  0  0
  1  3  2  0  0  0  0
  1  9  1  0  0  0  0
  2  4  2  0  0  0  0
  2  8  1  0  0  0  0
  3  5  1  0  0  0  0
  3  7  1  0  0  0  0
  4  6  1  0  0  0  0
  4 21  1  0  0  0  0
  5  6  2  0  0  0  0
  5 22  1  0  0  0  0
  6 23  1  0  0  0  0
  7 24  1  0  0  0  0
  7 25  1  0  0  0  0
  7 26  1  0  0  0  0
  8 27  1  0  0  0  0
  8 28  1  0  0  0  0
  8 29  1  0  0  0  0
  9 10  1  0  0  0  0
  9 30  1  0  0  0  0
 10 11  1  0  0  0  0
 10 13  2  0  0  0  0
 11 12  1  0  0  0  0
 11 31  1  0  0  0  0
 11 32  1  0  0  0  0
 12 20  1  0  0  0  0
 14 15  1  0  0  0  0
 14 16  1  0  0  0  0
 14 33  1  0  0  0  0
 14 34  1  0  0  0  0
 15 17  1  0  0  0  0
 15 35  1  0  0  0  0
 15 36  1  0  0  0  0
 16 12  1  0  0  0  0
 16 37  1  0  0  0  0
 16 38  1  0  0  0  0
 17 18  1  0  0  0  0
 17 12  1  0  0  0  0
 18 19  1  0  0  0  0
 18 39  1  0  0  0  0
 18 40  1  0  0  0  0
 19 20  1  0  0  0  0
 19 41  1  0  0  0  0
 19 42  1  0  0  0  0
 20 43  1  0  0  0  0
 20 44  1  0  0  0  0
M  END
>  <DRUGBANK_ID>
DB12712

>  <COMMON_NAME>
Pilsicainide

>  <CAS_NUMBER>
88069-67-4

>  <UNII>
AV0X7V6CSE

>  <SYNONYMS>
Pilsicainida; Pilsicainide; Pilsica√Ønide; Pilsicainidum; Pilzicainide

$$$$
