
 OpenBabel10282417072D

 64 66  0  0  0  0  0  0  0  0999 V2000
   -4.1535    9.7051    0.0000 C   0  0  0  0  0  0  0  0  0  0  0  0
   -4.2398    8.8846    0.0000 C   0  0  0  0  0  0  0  0  0  0  0  0
   -3.5723    8.3997    0.0000 N   0  0  0  0  0  0  0  0  0  0  0  0
   -2.8187    8.7352    0.0000 C   0  0  0  0  0  0  0  0  0  0  0  0
   -2.1512    8.2503    0.0000 C   0  0  0  0  0  0  0  0  0  0  0  0
   -3.6586    7.5792    0.0000 C   0  0  0  0  0  0  0  0  0  0  0  0
   -2.9911    7.0943    0.0000 C   0  0  0  0  0  0  0  0  0  0  0  0
   -3.0774    6.2738    0.0000 O   0  0  0  0  0  0  0  0  0  0  0  0
   -2.4099    5.7889    0.0000 C   0  0  0  0  0  0  0  0  0  0  0  0
   -1.6563    6.1244    0.0000 C   0  0  0  0  0  0  0  0  0  0  0  0
   -0.9888    5.6395    0.0000 C   0  0  0  0  0  0  0  0  0  0  0  0
   -1.0751    4.8190    0.0000 C   0  0  0  0  0  0  0  0  0  0  0  0
   -0.5230    4.2059    0.0000 C   0  0  0  0  0  0  0  0  0  0  0  0
    0.3020    4.2059    0.0000 C   0  0  0  0  0  0  0  0  0  0  0  0
    0.7145    3.4914    0.0000 C   0  0  0  0  0  0  0  0  0  0  0  0
    0.3020    2.7770    0.0000 C   0  0  0  0  0  0  0  0  0  0  0  0
    0.7145    2.0625    0.0000 O   0  0  0  0  0  0  0  0  0  0  0  0
    1.5395    2.0625    0.0000 C   0  0  0  0  0  0  0  0  0  0  0  0
    1.9520    1.3480    0.0000 C   0  0  0  0  0  0  0  0  0  0  0  0
    2.7770    1.3480    0.0000 N   0  0  0  0  0  0  0  0  0  0  0  0
    3.1895    0.6336    0.0000 C   0  0  0  0  0  0  0  0  0  0  0  0
    4.0145    0.6336    0.0000 C   0  0  0  0  0  0  0  0  0  0  0  0
    3.1895    2.0625    0.0000 C   0  0  0  0  0  0  0  0  0  0  0  0
    4.0145    2.0625    0.0000 C   0  0  0  0  0  0  0  0  0  0  0  0
   -0.5230    2.7770    0.0000 C   0  0  0  0  0  0  0  0  0  0  0  0
   -0.9355    3.4914    0.0000 C   0  0  0  0  0  0  0  0  0  0  0  0
   -1.7425    3.6630    0.0000 C   0  0  0  0  0  0  0  0  0  0  0  0
   -2.3556    3.1109    0.0000 O   0  0  0  0  0  0  0  0  0  0  0  0
   -1.8287    4.4834    0.0000 C   0  0  0  0  0  0  0  0  0  0  0  0
   -2.4962    4.9684    0.0000 C   0  0  0  0  0  0  0  0  0  0  0  0
   -3.1760   10.1402    0.0000 H   0  0  0  0  0  0  0  0  0  0  0  0
   -5.0191   10.3341    0.0000 H   0  0  0  0  0  0  0  0  0  0  0  0
   -4.0416   10.7692    0.0000 H   0  0  0  0  0  0  0  0  0  0  0  0
   -5.2173    8.4494    0.0000 H   0  0  0  0  0  0  0  0  0  0  0  0
   -4.3516    7.8205    0.0000 H   0  0  0  0  0  0  0  0  0  0  0  0
   -2.7069    9.7993    0.0000 H   0  0  0  0  0  0  0  0  0  0  0  0
   -1.8412    9.1704    0.0000 H   0  0  0  0  0  0  0  0  0  0  0  0
   -2.2630    7.1862    0.0000 H   0  0  0  0  0  0  0  0  0  0  0  0
   -1.1737    8.6856    0.0000 H   0  0  0  0  0  0  0  0  0  0  0  0
   -1.2855    7.6214    0.0000 H   0  0  0  0  0  0  0  0  0  0  0  0
   -4.6361    7.1440    0.0000 H   0  0  0  0  0  0  0  0  0  0  0  0
   -3.7704    6.5151    0.0000 H   0  0  0  0  0  0  0  0  0  0  0  0
   -2.0136    7.5295    0.0000 H   0  0  0  0  0  0  0  0  0  0  0  0
   -2.1255    6.4653    0.0000 H   0  0  0  0  0  0  0  0  0  0  0  0
   -1.5484    7.1507    0.0000 H   0  0  0  0  0  0  0  0  0  0  0  0
   -0.0460    6.0592    0.0000 H   0  0  0  0  0  0  0  0  0  0  0  0
    0.8180    5.0996    0.0000 H   0  0  0  0  0  0  0  0  0  0  0  0
    1.7465    3.4914    0.0000 H   0  0  0  0  0  0  0  0  0  0  0  0
    2.0745    2.9891    0.0000 H   0  0  0  0  0  0  0  0  0  0  0  0
    2.6095    2.0625    0.0000 H   0  0  0  0  0  0  0  0  0  0  0  0
    1.4170    0.4214    0.0000 H   0  0  0  0  0  0  0  0  0  0  0  0
    2.4870    0.4214    0.0000 H   0  0  0  0  0  0  0  0  0  0  0  0
    2.6545   -0.2931    0.0000 H   0  0  0  0  0  0  0  0  0  0  0  0
    3.7245   -0.2930    0.0000 H   0  0  0  0  0  0  0  0  0  0  0  0
    4.5495   -0.2930    0.0000 H   0  0  0  0  0  0  0  0  0  0  0  0
    4.5495    1.5602    0.0000 H   0  0  0  0  0  0  0  0  0  0  0  0
    5.0845    0.6336    0.0000 H   0  0  0  0  0  0  0  0  0  0  0  0
    2.6545    2.9891    0.0000 H   0  0  0  0  0  0  0  0  0  0  0  0
    3.7245    2.9891    0.0000 H   0  0  0  0  0  0  0  0  0  0  0  0
    4.5495    1.1359    0.0000 H   0  0  0  0  0  0  0  0  0  0  0  0
    4.5495    2.9891    0.0000 H   0  0  0  0  0  0  0  0  0  0  0  0
    5.0845    2.0625    0.0000 H   0  0  0  0  0  0  0  0  0  0  0  0
   -1.0390    1.8833    0.0000 H   0  0  0  0  0  0  0  0  0  0  0  0
   -3.4390    4.5487    0.0000 H   0  0  0  0  0  0  0  0  0  0  0  0
  1  2  1  0  0  0  0
  1 31  1  0  0  0  0
  1 32  1  0  0  0  0
  1 33  1  0  0  0  0
  2  3  1  0  0  0  0
  2 34  1  0  0  0  0
  2 35  1  0  0  0  0
  3  4  1  0  0  0  0
  3  6  1  0  0  0  0
  4  5  1  0  0  0  0
  4 36  1  0  0  0  0
  4 37  1  0  0  0  0
  5 38  1  0  0  0  0
  5 39  1  0  0  0  0
  5 40  1  0  0  0  0
  6  7  1  0  0  0  0
  6 41  1  0  0  0  0
  6 42  1  0  0  0  0
  7  8  1  0  0  0  0
  7 43  1  0  0  0  0
  7 44  1  0  0  0  0
  8  9  1  0  0  0  0
  9 10  2  0  0  0  0
  9 30  1  0  0  0  0
 10 11  1  0  0  0  0
 10 45  1  0  0  0  0
 11 12  2  0  0  0  0
 11 46  1  0  0  0  0
 12 13  1  0  0  0  0
 12 29  1  0  0  0  0
 13 14  2  0  0  0  0
 13 26  1  0  0  0  0
 14 15  1  0  0  0  0
 14 47  1  0  0  0  0
 15 16  2  0  0  0  0
 15 48  1  0  0  0  0
 16 17  1  0  0  0  0
 16 25  1  0  0  0  0
 17 18  1  0  0  0  0
 18 19  1  0  0  0  0
 18 49  1  0  0  0  0
 18 50  1  0  0  0  0
 19 20  1  0  0  0  0
 19 51  1  0  0  0  0
 19 52  1  0  0  0  0
 20 21  1  0  0  0  0
 20 23  1  0  0  0  0
 21 22  1  0  0  0  0
 21 53  1  0  0  0  0
 21 54  1  0  0  0  0
 22 55  1  0  0  0  0
 22 56  1  0  0  0  0
 22 57  1  0  0  0  0
 23 24  1  0  0  0  0
 23 58  1  0  0  0  0
 23 59  1  0  0  0  0
 24 60  1  0  0  0  0
 24 61  1  0  0  0  0
 24 62  1  0  0  0  0
 25 26  2  0  0  0  0
 25 63  1  0  0  0  0
 26 27  1  0  0  0  0
 27 28  2  0  0  0  0
 27 29  1  0  0  0  0
 29 30  2  0  0  0  0
 30 64  1  0  0  0  0
M  END
>  <DRUGBANK_ID>
DB17965

>  <COMMON_NAME>
Tilorone

>  <CAS_NUMBER>
27591-97-5

>  <UNII>
O6W7VEW6KS

$$$$
