371
 OpenBabel10282417072D

 45 48  0  0  0  0  0  0  0  0999 V2000
   -0.1050   -2.3389    0.0000 O   0  0  0  0  0  0  0  0  0  0  0  0
   -0.8195   -2.7514    0.0000 C   0  0  0  0  0  0  0  0  0  0  0  0
   -0.8195   -3.5764    0.0000 C   0  0  0  0  0  0  0  0  0  0  0  0
   -0.1050   -3.9889    0.0000 C   0  0  0  0  0  0  0  0  0  0  0  0
    1.3239   -3.9889    0.0000 C   0  0  0  0  0  0  0  0  0  0  0  0
    2.0384   -3.5764    0.0000 C   0  0  0  0  0  0  0  0  0  0  0  0
    2.0384   -2.7514    0.0000 C   0  0  0  0  0  0  0  0  0  0  0  0
    1.3239   -2.3389    0.0000 C   0  0  0  0  0  0  0  0  0  0  0  0
    0.6094   -2.7514    0.0000 C   0  0  0  0  0  0  0  0  0  0  0  0
    0.6094   -3.5764    0.0000 C   0  0  0  0  0  0  0  0  0  0  0  0
   -0.1050   -4.8139    0.0000 O   0  0  0  0  0  0  0  0  0  0  0  0
   -1.5340   -2.3389    0.0000 C   0  0  0  0  0  0  0  0  0  0  0  0
   -2.2484   -2.7514    0.0000 C   0  0  0  0  0  0  0  0  0  0  0  0
   -2.9629   -2.3389    0.0000 C   0  0  0  0  0  0  0  0  0  0  0  0
   -2.9629   -1.5139    0.0000 C   0  0  0  0  0  0  0  0  0  0  0  0
   -2.2484   -1.1014    0.0000 C   0  0  0  0  0  0  0  0  0  0  0  0
   -1.5340   -1.5139    0.0000 C   0  0  0  0  0  0  0  0  0  0  0  0
    2.7529   -3.9889    0.0000 C   0  0  0  0  0  0  0  0  0  0  0  0
   -1.5340   -3.9889    0.0000 O   0  0  0  0  0  0  0  0  0  0  0  0
   -2.2484   -0.2764    0.0000 O   0  0  0  0  0  0  0  0  0  0  0  0
   -3.6774   -1.1014    0.0000 O   0  0  0  0  0  0  0  0  0  0  0  0
    0.9114   -0.2443    0.0000 C   0  0  0  0  0  0  0  0  0  0  0  0
    0.6565   -1.0289    0.0000 C   0  0  0  0  0  0  0  0  0  0  0  0
    1.3239   -1.5139    0.0000 N   0  0  0  0  0  0  0  0  0  0  0  0
    1.9914   -1.0289    0.0000 S   0  0  0  0  0  0  0  0  0  0  0  0
    1.7364   -0.2443    0.0000 C   0  0  0  0  0  0  0  0  0  0  0  0
    2.5498   -1.6362    0.0000 O   0  0  0  0  0  0  0  0  0  0  0  0
    2.8001   -0.8659    0.0000 O   0  0  0  0  0  0  0  0  0  0  0  0
    1.3239   -5.0209    0.0000 H   0  0  0  0  0  0  0  0  0  0  0  0
    2.9321   -2.2354    0.0000 H   0  0  0  0  0  0  0  0  0  0  0  0
   -2.2484   -3.7834    0.0000 H   0  0  0  0  0  0  0  0  0  0  0  0
   -3.8566   -2.8549    0.0000 H   0  0  0  0  0  0  0  0  0  0  0  0
   -0.6403   -0.9979    0.0000 H   0  0  0  0  0  0  0  0  0  0  0  0
    2.7529   -5.0589    0.0000 H   0  0  0  0  0  0  0  0  0  0  0  0
    3.6795   -3.4539    0.0000 H   0  0  0  0  0  0  0  0  0  0  0  0
    3.6796   -4.5239    0.0000 H   0  0  0  0  0  0  0  0  0  0  0  0
   -2.3455   -3.5204    0.0000 H   0  0  0  0  0  0  0  0  0  0  0  0
   -1.4369    0.1921    0.0000 H   0  0  0  0  0  0  0  0  0  0  0  0
   -3.6774   -0.1644    0.0000 H   0  0  0  0  0  0  0  0  0  0  0  0
    0.2825    0.6213    0.0000 H   0  0  0  0  0  0  0  0  0  0  0  0
   -0.1454   -0.4117    0.0000 H   0  0  0  0  0  0  0  0  0  0  0  0
   -0.3611   -1.3595    0.0000 H   0  0  0  0  0  0  0  0  0  0  0  0
    0.4890   -2.0857    0.0000 H   0  0  0  0  0  0  0  0  0  0  0  0
    2.3653    0.6214    0.0000 H   0  0  0  0  0  0  0  0  0  0  0  0
    2.7932   -0.4116    0.0000 H   0  0  0  0  0  0  0  0  0  0  0  0
  1  2  1  0  0  0  0
  1  9  1  0  0  0  0
  2 12  1  0  0  0  0
  2  3  2  0  0  0  0
  3 19  1  0  0  0  0
  3  4  1  0  0  0  0
  4 10  1  0  0  0  0
  4 11  2  0  0  0  0
  5 10  2  0  0  0  0
  5  6  1  0  0  0  0
  5 29  1  0  0  0  0
  6  7  2  0  0  0  0
  6 18  1  0  0  0  0
  7  8  1  0  0  0  0
  7 30  1  0  0  0  0
  8 24  1  0  0  0  0
  8  9  2  0  0  0  0
  9 10  1  0  0  0  0
 12 13  2  0  0  0  0
 12 17  1  0  0  0  0
 13 14  1  0  0  0  0
 13 31  1  0  0  0  0
 14 15  2  0  0  0  0
 14 32  1  0  0  0  0
 15 21  1  0  0  0  0
 15 16  1  0  0  0  0
 16 20  1  0  0  0  0
 16 17  2  0  0  0  0
 17 33  1  0  0  0  0
 18 34  1  0  0  0  0
 18 35  1  0  0  0  0
 18 36  1  0  0  0  0
 19 37  1  0  0  0  0
 20 38  1  0  0  0  0
 21 39  1  0  0  0  0
 22 26  1  0  0  0  0
 22 23  1  0  0  0  0
 22 40  1  0  0  0  0
 22 41  1  0  0  0  0
 23 24  1  0  0  0  0
 23 42  1  0  0  0  0
 23 43  1  0  0  0  0
 24 25  1  0  0  0  0
 25 26  1  0  0  0  0
 25 27  2  0  0  0  0
 25 28  2  0  0  0  0
 26 44  1  0  0  0  0
 26 45  1  0  0  0  0
M  END
>  <DRUGBANK_ID>
DB07024

>  <COMMON_NAME>
2-(3,4-DIHYDROXYPHENYL)-8-(1,1-DIOXIDOISOTHIAZOLIDIN-2-YL)-3-HYDROXY-6-METHYL-4H-CHROMEN-4-ONE

$$$$
