
 OpenBabel10282417072D

 96 97  0  0  0  0  0  0  0  0999 V2000
   -6.9548    0.2317    0.0000 C   0  0  0  0  0  0  0  0  0  0  0  0
   -6.2225    0.5963    0.0000 C   0  0  0  0  0  0  0  0  0  0  0  0
    6.1761    0.0278    0.0000 C   0  0  0  0  0  0  0  0  0  0  0  0
    6.9362    0.3738    0.0000 C   0  0  1  0  0  0  0  0  0  0  0  0
   -7.6777    0.6302    0.0000 C   0  0  0  0  0  0  0  0  0  0  0  0
    6.9362    1.1678    0.0000 C   0  0  0  0  0  0  0  0  0  0  0  0
   -6.9548   -0.5808    0.0000 C   0  0  0  0  0  0  0  0  0  0  0  0
   -5.4995    0.2039    0.0000 C   0  0  0  0  0  0  0  0  0  0  0  0
    5.4655    0.3893    0.0000 C   0  0  0  0  0  0  0  0  0  0  0  0
    7.6438   -0.0247    0.0000 C   0  0  0  0  0  0  0  0  0  0  0  0
   -3.2935    0.5468    0.0000 C   0  0  0  0  0  0  0  0  0  0  0  0
    3.2409    0.0555    0.0000 C   0  0  0  0  0  0  0  0  0  0  0  0
   -4.7394    0.5963    0.0000 C   0  0  0  0  0  0  0  0  0  0  0  0
    4.7241    0.0402    0.0000 C   0  0  0  0  0  0  0  0  0  0  0  0
   -1.8197    0.5191    0.0000 C   0  0  0  0  0  0  0  0  0  0  0  0
    1.7858    0.0865    0.0000 C   0  0  0  0  0  0  0  0  0  0  0  0
    3.9980    0.4170    0.0000 C   0  0  0  0  0  0  0  0  0  0  0  0
   -4.0351    0.1668    0.0000 C   0  0  0  0  0  0  0  0  0  0  0  0
    2.5149    0.4541    0.0000 C   0  0  0  0  0  0  0  0  0  0  0  0
   -2.5334    0.1329    0.0000 C   0  0  0  0  0  0  0  0  0  0  0  0
    1.0628    0.4665    0.0000 C   0  0  0  0  0  0  0  0  0  0  0  0
   -1.0968    0.1205    0.0000 C   0  0  0  0  0  0  0  0  0  0  0  0
    7.6962    1.5602    0.0000 C   0  0  0  0  0  0  0  0  0  0  0  0
    0.3398    0.1205    0.0000 C   0  0  0  0  0  0  0  0  0  0  0  0
   -0.3553    0.4820    0.0000 C   0  0  0  0  0  0  0  0  0  0  0  0
    8.4192    1.1493    0.0000 C   0  0  0  0  0  0  0  0  0  0  0  0
   -8.4378    0.2503    0.0000 C   0  0  0  0  0  0  0  0  0  0  0  0
   -7.7241   -0.9454    0.0000 C   0  0  0  0  0  0  0  0  0  0  0  0
    8.4378    0.3429    0.0000 C   0  0  0  0  0  0  0  0  0  0  0  0
   -7.6777    1.5602    0.0000 C   0  0  0  0  0  0  0  0  0  0  0  0
    6.2071    1.5757    0.0000 C   0  0  0  0  0  0  0  0  0  0  0  0
   -6.5283   -1.5757    0.0000 C   0  0  0  0  0  0  0  0  0  0  0  0
   -5.9197   -0.3522    0.0000 C   0  0  0  0  0  0  0  0  0  0  0  0
   -8.4192   -0.5468    0.0000 C   0  0  0  0  0  0  0  0  0  0  0  0
    8.3204   -0.8619    0.0000 C   0  0  0  0  0  0  0  0  0  0  0  0
    7.0876   -0.7693    0.0000 C   0  0  0  0  0  0  0  0  0  0  0  0
   -4.7241    1.3718    0.0000 C   0  0  0  0  0  0  0  0  0  0  0  0
    4.7241   -0.8619    0.0000 C   0  0  0  0  0  0  0  0  0  0  0  0
    1.7858   -0.7044    0.0000 C   0  0  0  0  0  0  0  0  0  0  0  0
   -1.8197    1.2914    0.0000 C   0  0  0  0  0  0  0  0  0  0  0  0
   -6.2043    1.6281    0.0000 H   0  0  0  0  0  0  0  0  0  0  0  0
    6.1537   -1.0040    0.0000 H   0  0  0  0  0  0  0  0  0  0  0  0
    6.0364    0.9528    0.0000 H   0  0  0  0  0  0  0  0  0  0  0  0
   -5.5102   -0.8280    0.0000 H   0  0  0  0  0  0  0  0  0  0  0  0
    5.4813    1.4212    0.0000 H   0  0  0  0  0  0  0  0  0  0  0  0
   -3.2805    1.5787    0.0000 H   0  0  0  0  0  0  0  0  0  0  0  0
    3.2117   -0.9761    0.0000 H   0  0  0  0  0  0  0  0  0  0  0  0
    4.0151    1.4489    0.0000 H   0  0  0  0  0  0  0  0  0  0  0  0
   -4.0733   -0.8645    0.0000 H   0  0  0  0  0  0  0  0  0  0  0  0
    2.5330    1.4859    0.0000 H   0  0  0  0  0  0  0  0  0  0  0  0
   -2.5348   -0.8991    0.0000 H   0  0  0  0  0  0  0  0  0  0  0  0
    1.0822    1.4983    0.0000 H   0  0  0  0  0  0  0  0  0  0  0  0
   -1.1227   -0.9112    0.0000 H   0  0  0  0  0  0  0  0  0  0  0  0
    7.7169    2.5920    0.0000 H   0  0  0  0  0  0  0  0  0  0  0  0
    0.3227   -0.9114    0.0000 H   0  0  0  0  0  0  0  0  0  0  0  0
   -0.3419    1.5139    0.0000 H   0  0  0  0  0  0  0  0  0  0  0  0
    9.3378    1.6981    0.0000 H   0  0  0  0  0  0  0  0  0  0  0  0
    8.4076    2.2192    0.0000 H   0  0  0  0  0  0  0  0  0  0  0  0
   -9.3545    0.8022    0.0000 H   0  0  0  0  0  0  0  0  0  0  0  0
   -9.3631   -0.2870    0.0000 H   0  0  0  0  0  0  0  0  0  0  0  0
   -7.7659   -2.0146    0.0000 H   0  0  0  0  0  0  0  0  0  0  0  0
   -8.6603   -1.4636    0.0000 H   0  0  0  0  0  0  0  0  0  0  0  0
    9.3460   -0.2228    0.0000 H   0  0  0  0  0  0  0  0  0  0  0  0
    8.3718   -0.7251    0.0000 H   0  0  0  0  0  0  0  0  0  0  0  0
   -6.7511    2.0952    0.0000 H   0  0  0  0  0  0  0  0  0  0  0  0
   -8.6043    2.0952    0.0000 H   0  0  0  0  0  0  0  0  0  0  0  0
   -7.6777    2.6302    0.0000 H   0  0  0  0  0  0  0  0  0  0  0  0
    6.1926    2.6456    0.0000 H   0  0  0  0  0  0  0  0  0  0  0  0
    5.2878    1.0282    0.0000 H   0  0  0  0  0  0  0  0  0  0  0  0
    5.2733    2.0981    0.0000 H   0  0  0  0  0  0  0  0  0  0  0  0
   -7.1692   -2.4325    0.0000 H   0  0  0  0  0  0  0  0  0  0  0  0
   -5.4658   -1.7023    0.0000 H   0  0  0  0  0  0  0  0  0  0  0  0
   -6.1067   -2.5591    0.0000 H   0  0  0  0  0  0  0  0  0  0  0  0
   -5.1975   -1.1417    0.0000 H   0  0  0  0  0  0  0  0  0  0  0  0
   -5.5971    0.6680    0.0000 H   0  0  0  0  0  0  0  0  0  0  0  0
   -4.8749   -0.1215    0.0000 H   0  0  0  0  0  0  0  0  0  0  0  0
   -9.3387   -1.0939    0.0000 H   0  0  0  0  0  0  0  0  0  0  0  0
   -9.3554   -0.0288    0.0000 H   0  0  0  0  0  0  0  0  0  0  0  0
    7.9360   -1.8605    0.0000 H   0  0  0  0  0  0  0  0  0  0  0  0
    9.3774   -0.6955    0.0000 H   0  0  0  0  0  0  0  0  0  0  0  0
    8.9930   -1.6941    0.0000 H   0  0  0  0  0  0  0  0  0  0  0  0
    6.0250   -0.6434    0.0000 H   0  0  0  0  0  0  0  0  0  0  0  0
    7.5098   -1.7525    0.0000 H   0  0  0  0  0  0  0  0  0  0  0  0
    6.4473   -1.6265    0.0000 H   0  0  0  0  0  0  0  0  0  0  0  0
   -3.7871    1.8884    0.0000 H   0  0  0  0  0  0  0  0  0  0  0  0
   -5.6400    1.9250    0.0000 H   0  0  0  0  0  0  0  0  0  0  0  0
   -4.7030    2.4416    0.0000 H   0  0  0  0  0  0  0  0  0  0  0  0
    3.7975   -1.3969    0.0000 H   0  0  0  0  0  0  0  0  0  0  0  0
    5.6507   -1.3969    0.0000 H   0  0  0  0  0  0  0  0  0  0  0  0
    4.7241   -1.9319    0.0000 H   0  0  0  0  0  0  0  0  0  0  0  0
    0.8592   -1.2394    0.0000 H   0  0  0  0  0  0  0  0  0  0  0  0
    2.7124   -1.2394    0.0000 H   0  0  0  0  0  0  0  0  0  0  0  0
    1.7858   -1.7744    0.0000 H   0  0  0  0  0  0  0  0  0  0  0  0
   -0.8931    1.8264    0.0000 H   0  0  0  0  0  0  0  0  0  0  0  0
   -2.7463    1.8264    0.0000 H   0  0  0  0  0  0  0  0  0  0  0  0
   -1.8197    2.3614    0.0000 H   0  0  0  0  0  0  0  0  0  0  0  0
  2  1  1  0  0  0  0
  2 41  1  0  0  0  0
  3  9  2  0  0  0  0
  3 42  1  0  0  0  0
  4  3  1  0  0  0  0
  4 43  1  6  0  0  0
  5  1  2  0  0  0  0
  6  4  1  0  0  0  0
  7  1  1  0  0  0  0
  8  2  2  0  0  0  0
  8 44  1  0  0  0  0
  9 14  1  0  0  0  0
  9 45  1  0  0  0  0
 10  4  1  0  0  0  0
 11 18  1  0  0  0  0
 11 46  1  0  0  0  0
 12 19  2  0  0  0  0
 12 47  1  0  0  0  0
 13  8  1  0  0  0  0
 14 17  2  0  0  0  0
 15 20  1  0  0  0  0
 16 21  2  0  0  0  0
 17 12  1  0  0  0  0
 17 48  1  0  0  0  0
 18 13  2  0  0  0  0
 18 49  1  0  0  0  0
 19 16  1  0  0  0  0
 19 50  1  0  0  0  0
 20 11  2  0  0  0  0
 20 51  1  0  0  0  0
 21 24  1  0  0  0  0
 21 52  1  0  0  0  0
 22 15  2  0  0  0  0
 22 53  1  0  0  0  0
 23  6  2  0  0  0  0
 23 54  1  0  0  0  0
 24 25  2  0  0  0  0
 24 55  1  0  0  0  0
 25 22  1  0  0  0  0
 25 56  1  0  0  0  0
 26 29  1  0  0  0  0
 26 23  1  0  0  0  0
 26 57  1  0  0  0  0
 26 58  1  0  0  0  0
 27  5  1  0  0  0  0
 27 59  1  0  0  0  0
 27 60  1  0  0  0  0
 28  7  1  0  0  0  0
 28 61  1  0  0  0  0
 28 62  1  0  0  0  0
 29 10  1  0  0  0  0
 29 63  1  0  0  0  0
 29 64  1  0  0  0  0
 30  5  1  0  0  0  0
 30 65  1  0  0  0  0
 30 66  1  0  0  0  0
 30 67  1  0  0  0  0
 31  6  1  0  0  0  0
 31 68  1  0  0  0  0
 31 69  1  0  0  0  0
 31 70  1  0  0  0  0
 32  7  1  0  0  0  0
 32 71  1  0  0  0  0
 32 72  1  0  0  0  0
 32 73  1  0  0  0  0
 33  7  1  0  0  0  0
 33 74  1  0  0  0  0
 33 75  1  0  0  0  0
 33 76  1  0  0  0  0
 34 28  1  0  0  0  0
 34 27  1  0  0  0  0
 34 77  1  0  0  0  0
 34 78  1  0  0  0  0
 35 10  1  0  0  0  0
 35 79  1  0  0  0  0
 35 80  1  0  0  0  0
 35 81  1  0  0  0  0
 36 10  1  0  0  0  0
 36 82  1  0  0  0  0
 36 83  1  0  0  0  0
 36 84  1  0  0  0  0
 37 13  1  0  0  0  0
 37 85  1  0  0  0  0
 37 86  1  0  0  0  0
 37 87  1  0  0  0  0
 38 14  1  0  0  0  0
 38 88  1  0  0  0  0
 38 89  1  0  0  0  0
 38 90  1  0  0  0  0
 39 16  1  0  0  0  0
 39 91  1  0  0  0  0
 39 92  1  0  0  0  0
 39 93  1  0  0  0  0
 40 15  1  0  0  0  0
 40 94  1  0  0  0  0
 40 95  1  0  0  0  0
 40 96  1  0  0  0  0
M  END
>  <DRUGBANK_ID>
DB15909

>  <COMMON_NAME>
alpha-Carotene

>  <CAS_NUMBER>
7488-99-5

>  <UNII>
45XWE1Z69V

>  <SYNONYMS>
(6'R)-beta,epsilon-Carotene; (all-e)-1,3,3-trimethyl-2-(3,7,12,16-tetramethyl-18-(2,6,6-trimethyl-2-cyclohexen-1-yl)-1,3,5,7,9,11,13,15,17-octadecanonaenyl)cyclohexene; 1,3,3-trimethyl-2-((1e,3e,5e,7e,9e,11e,13e,15e,17e)-3,7,12,16-tetramethyl-18-(2,6,6-trimethyl-2-cyclohexen-1-yl)-1,3,5,7,9,11,13,15,17-octadecanonaen-1-yl)cyclohexene

$$$$
