MPE
 OpenBabel10282417072D

 32 33  0  0  0  0  0  0  0  0999 V2000
   -0.6787    1.3117    0.0000 O   0  0  0  0  0  0  0  0  0  0  0  0
    0.0358    0.8992    0.0000 C   0  0  0  0  0  0  0  0  0  0  0  0
    0.7503    1.3117    0.0000 O   0  0  0  0  0  0  0  0  0  0  0  0
    0.0358    0.0742    0.0000 C   0  0  2  0  0  0  0  0  0  0  0  0
    0.7503   -0.3383    0.0000 N   0  0  0  0  0  0  0  0  0  0  0  0
    1.4647    0.0742    0.0000 O   0  0  0  0  0  0  0  0  0  0  0  0
    2.1792   -0.3383    0.0000 C   0  0  0  0  0  0  0  0  0  0  0  0
    2.8937    0.0742    0.0000 C   0  0  0  0  0  0  0  0  0  0  0  0
    3.6081   -0.3383    0.0000 S   0  0  0  0  0  0  0  0  0  0  0  0
   -0.6787   -0.3383    0.0000 C   0  0  0  0  0  0  0  0  0  0  0  0
   -0.7649   -1.1588    0.0000 C   0  0  0  0  0  0  0  0  0  0  0  0
   -1.5719   -1.3303    0.0000 N   0  0  0  0  0  0  0  0  0  0  0  0
   -1.9844   -0.6159    0.0000 C   0  0  0  0  0  0  0  0  0  0  0  0
   -2.7914   -0.4443    0.0000 C   0  0  0  0  0  0  0  0  0  0  0  0
   -1.4324   -0.0028    0.0000 C   0  0  0  0  0  0  0  0  0  0  0  0
   -1.6873    0.7818    0.0000 C   0  0  0  0  0  0  0  0  0  0  0  0
   -2.4943    0.9534    0.0000 C   0  0  0  0  0  0  0  0  0  0  0  0
   -3.0463    0.3403    0.0000 C   0  0  0  0  0  0  0  0  0  0  0  0
    0.5415    0.3661    0.0000 H   0  0  0  0  0  0  0  0  0  0  0  0
    1.5618    0.8432    0.0000 H   0  0  0  0  0  0  0  0  0  0  0  0
    0.7503   -1.3583    0.0000 H   0  0  0  0  0  0  0  0  0  0  0  0
    2.1792   -1.4083    0.0000 H   0  0  0  0  0  0  0  0  0  0  0  0
    3.1058   -0.8733    0.0000 H   0  0  0  0  0  0  0  0  0  0  0  0
    2.8937    1.1442    0.0000 H   0  0  0  0  0  0  0  0  0  0  0  0
    3.8204    0.6092    0.0000 H   0  0  0  0  0  0  0  0  0  0  0  0
    3.6080   -1.6983    0.0000 H   0  0  0  0  0  0  0  0  0  0  0  0
    0.0020   -1.8493    0.0000 H   0  0  0  0  0  0  0  0  0  0  0  0
   -1.9723   -2.2297    0.0000 H   0  0  0  0  0  0  0  0  0  0  0  0
   -3.4820   -1.2112    0.0000 H   0  0  0  0  0  0  0  0  0  0  0  0
   -0.9967    1.5487    0.0000 H   0  0  0  0  0  0  0  0  0  0  0  0
   -2.8132    1.9349    0.0000 H   0  0  0  0  0  0  0  0  0  0  0  0
   -4.0557    0.5549    0.0000 H   0  0  0  0  0  0  0  0  0  0  0  0
  1  2  2  0  0  0  0
  2  3  1  0  0  0  0
  2  4  1  0  0  0  0
  3 20  1  0  0  0  0
  4  5  1  0  0  0  0
  4 10  1  0  0  0  0
  4 19  1  1  0  0  0
  5  6  1  0  0  0  0
  5 21  1  0  0  0  0
  6  7  1  0  0  0  0
  7  8  1  0  0  0  0
  7 22  1  0  0  0  0
  7 23  1  0  0  0  0
  8  9  1  0  0  0  0
  8 24  1  0  0  0  0
  8 25  1  0  0  0  0
  9 26  1  0  0  0  0
 10 11  2  0  0  0  0
 10 15  1  0  0  0  0
 11 12  1  0  0  0  0
 11 27  1  0  0  0  0
 12 13  1  0  0  0  0
 12 28  1  0  0  0  0
 13 14  1  0  0  0  0
 13 15  2  0  0  0  0
 14 18  2  0  0  0  0
 14 29  1  0  0  0  0
 15 16  1  0  0  0  0
 16 17  2  0  0  0  0
 16 30  1  0  0  0  0
 17 18  1  0  0  0  0
 17 31  1  0  0  0  0
 18 32  1  0  0  0  0
M  END
>  <DRUGBANK_ID>
DB03455

>  <SECONDARY_ACCESSION_NUMBERS>
EXPT02219

>  <COMMON_NAME>
(1H-indol-3-yl)-(2-mercapto-ethoxyimino)-acetic acid

$$$$
