
 OpenBabel10282417072D

 91 92  0  0  0  0  0  0  0  0999 V2000
   -0.0484    1.2841    0.0000 C   0  0  1  0  0  0  0  0  0  0  0  0
   -0.8106    0.9684    0.0000 C   0  0  0  0  0  0  0  0  0  0  0  0
   -1.1263    0.2062    0.0000 C   0  0  0  0  0  0  0  0  0  0  0  0
    1.0294    0.2062    0.0000 C   0  0  2  0  0  0  0  0  0  0  0  0
   -0.8106   -0.5559    0.0000 C   0  0  0  0  0  0  0  0  0  0  0  0
   -0.0484   -0.8716    0.0000 C   0  0  2  0  0  0  0  0  0  0  0  0
    0.7137   -0.5559    0.0000 C   0  0  0  0  0  0  0  0  0  0  0  0
   -0.0484    2.1091    0.0000 C   0  0  0  0  0  0  0  0  0  0  0  0
   -1.3940    1.5518    0.0000 O   0  0  0  0  0  0  0  0  0  0  0  0
   -0.7629    2.5216    0.0000 O   0  0  0  0  0  0  0  0  0  0  0  0
    0.6660    2.5216    0.0000 C   0  0  0  0  0  0  0  0  0  0  0  0
   -1.3940   -1.1393    0.0000 O   0  0  0  0  0  0  0  0  0  0  0  0
   -0.0484   -1.6966    0.0000 C   0  0  0  0  0  0  0  0  0  0  0  0
   -0.7629   -2.1091    0.0000 C   0  0  0  0  0  0  0  0  0  0  0  0
   -0.7629   -2.9341    0.0000 C   0  0  0  0  0  0  0  0  0  0  0  0
   -1.4773   -3.3466    0.0000 C   0  0  0  0  0  0  0  0  0  0  0  0
   -0.0484   -3.3466    0.0000 C   0  0  0  0  0  0  0  0  0  0  0  0
   -1.9513    0.2062    0.0000 C   0  0  0  0  0  0  0  0  0  0  0  0
   -2.3638    0.9208    0.0000 C   0  0  0  0  0  0  0  0  0  0  0  0
   -3.1888    0.9208    0.0000 C   0  0  0  0  0  0  0  0  0  0  0  0
   -3.6013    1.6352    0.0000 C   0  0  0  0  0  0  0  0  0  0  0  0
   -3.6013    0.2063    0.0000 C   0  0  0  0  0  0  0  0  0  0  0  0
    1.8544    0.2062    0.0000 C   0  0  0  0  0  0  0  0  0  0  0  0
    2.2669   -0.5082    0.0000 C   0  0  0  0  0  0  0  0  0  0  0  0
    3.0919   -0.5082    0.0000 C   0  0  0  0  0  0  0  0  0  0  0  0
    3.5044   -1.2226    0.0000 C   0  0  0  0  0  0  0  0  0  0  0  0
    3.5044    0.2062    0.0000 C   0  0  0  0  0  0  0  0  0  0  0  0
   -0.5741    0.2062    0.0000 C   0  0  0  0  0  0  0  0  0  0  0  0
    0.2508    0.2062    0.0000 O   0  0  0  0  0  0  0  0  0  0  0  0
    0.6661    3.3466    0.0000 C   0  0  0  0  0  0  0  0  0  0  0  0
    1.3805    2.1091    0.0000 C   0  0  0  0  0  0  0  0  0  0  0  0
    0.7137    0.9684    0.0000 C   0  0  1  0  0  0  0  0  0  0  0  0
    1.1263    1.6829    0.0000 C   0  0  0  0  0  0  0  0  0  0  0  0
    1.9513    1.6828    0.0000 C   0  0  0  0  0  0  0  0  0  0  0  0
    2.3638    2.3972    0.0000 C   0  0  0  0  0  0  0  0  0  0  0  0
    3.1888    2.3972    0.0000 C   0  0  0  0  0  0  0  0  0  0  0  0
    3.6013    3.1117    0.0000 C   0  0  0  0  0  0  0  0  0  0  0  0
    3.6013    1.6827    0.0000 C   0  0  0  0  0  0  0  0  0  0  0  0
    1.5388    0.9683    0.0000 C   0  0  0  0  0  0  0  0  0  0  0  0
    1.6238   -0.6835    0.0000 H   0  0  0  0  0  0  0  0  0  0  0  0
    1.4703   -1.3125    0.0000 H   0  0  0  0  0  0  0  0  0  0  0  0
    0.5050   -1.6053    0.0000 H   0  0  0  0  0  0  0  0  0  0  0  0
   -1.1515    2.4569    0.0000 H   0  0  0  0  0  0  0  0  0  0  0  0
    1.5927    3.0566    0.0000 H   0  0  0  0  0  0  0  0  0  0  0  0
    0.8782   -2.2316    0.0000 H   0  0  0  0  0  0  0  0  0  0  0  0
   -0.0484   -2.7666    0.0000 H   0  0  0  0  0  0  0  0  0  0  0  0
   -1.6566   -1.5931    0.0000 H   0  0  0  0  0  0  0  0  0  0  0  0
   -2.4040   -2.8116    0.0000 H   0  0  0  0  0  0  0  0  0  0  0  0
   -1.4773   -4.4166    0.0000 H   0  0  0  0  0  0  0  0  0  0  0  0
   -2.4039   -3.8816    0.0000 H   0  0  0  0  0  0  0  0  0  0  0  0
   -0.0484   -4.4166    0.0000 H   0  0  0  0  0  0  0  0  0  0  0  0
    0.8782   -2.8116    0.0000 H   0  0  0  0  0  0  0  0  0  0  0  0
    0.8783   -3.8816    0.0000 H   0  0  0  0  0  0  0  0  0  0  0  0
   -2.4863   -0.7204    0.0000 H   0  0  0  0  0  0  0  0  0  0  0  0
   -3.0213    0.2063    0.0000 H   0  0  0  0  0  0  0  0  0  0  0  0
   -1.8478    1.8145    0.0000 H   0  0  0  0  0  0  0  0  0  0  0  0
   -3.0663    2.5619    0.0000 H   0  0  0  0  0  0  0  0  0  0  0  0
   -4.6713    1.6352    0.0000 H   0  0  0  0  0  0  0  0  0  0  0  0
   -4.1363    2.5618    0.0000 H   0  0  0  0  0  0  0  0  0  0  0  0
   -4.6713    0.2063    0.0000 H   0  0  0  0  0  0  0  0  0  0  0  0
   -3.0663   -0.7203    0.0000 H   0  0  0  0  0  0  0  0  0  0  0  0
   -4.1363   -0.7204    0.0000 H   0  0  0  0  0  0  0  0  0  0  0  0
    2.3894    1.1329    0.0000 H   0  0  0  0  0  0  0  0  0  0  0  0
    2.9244    0.2062    0.0000 H   0  0  0  0  0  0  0  0  0  0  0  0
    1.7509   -1.4019    0.0000 H   0  0  0  0  0  0  0  0  0  0  0  0
    2.9694   -2.1493    0.0000 H   0  0  0  0  0  0  0  0  0  0  0  0
    4.5744   -1.2226    0.0000 H   0  0  0  0  0  0  0  0  0  0  0  0
    4.0394   -2.1492    0.0000 H   0  0  0  0  0  0  0  0  0  0  0  0
    4.5744    0.2062    0.0000 H   0  0  0  0  0  0  0  0  0  0  0  0
    2.9694    1.1329    0.0000 H   0  0  0  0  0  0  0  0  0  0  0  0
    4.0394    1.1328    0.0000 H   0  0  0  0  0  0  0  0  0  0  0  0
    1.5928    3.8815    0.0000 H   0  0  0  0  0  0  0  0  0  0  0  0
   -0.2605    3.8817    0.0000 H   0  0  0  0  0  0  0  0  0  0  0  0
    0.6662    4.4166    0.0000 H   0  0  0  0  0  0  0  0  0  0  0  0
    1.3805    1.0391    0.0000 H   0  0  0  0  0  0  0  0  0  0  0  0
    2.3071    2.6441    0.0000 H   0  0  0  0  0  0  0  0  0  0  0  0
    2.3072    1.5741    0.0000 H   0  0  0  0  0  0  0  0  0  0  0  0
    0.5914    2.6096    0.0000 H   0  0  0  0  0  0  0  0  0  0  0  0
    1.6614    2.6095    0.0000 H   0  0  0  0  0  0  0  0  0  0  0  0
    2.4862    0.7561    0.0000 H   0  0  0  0  0  0  0  0  0  0  0  0
    3.0213    1.6827    0.0000 H   0  0  0  0  0  0  0  0  0  0  0  0
    1.8478    3.2909    0.0000 H   0  0  0  0  0  0  0  0  0  0  0  0
    4.6713    3.1117    0.0000 H   0  0  0  0  0  0  0  0  0  0  0  0
    3.0663    4.0383    0.0000 H   0  0  0  0  0  0  0  0  0  0  0  0
    4.1363    4.0384    0.0000 H   0  0  0  0  0  0  0  0  0  0  0  0
    3.0663    0.7561    0.0000 H   0  0  0  0  0  0  0  0  0  0  0  0
    4.6713    1.6827    0.0000 H   0  0  0  0  0  0  0  0  0  0  0  0
    4.1363    0.7560    0.0000 H   0  0  0  0  0  0  0  0  0  0  0  0
    2.0737    0.0416    0.0000 H   0  0  0  0  0  0  0  0  0  0  0  0
    2.0739    1.8949    0.0000 H   0  0  0  0  0  0  0  0  0  0  0  0
    2.6088    0.9682    0.0000 H   0  0  0  0  0  0  0  0  0  0  0  0
  1  8  1  1  0  0  0
  1 28  1  0  0  0  0
  1  2  1  0  0  0  0
  1 32  1  0  0  0  0
  2  9  1  0  0  0  0
  2  3  2  0  0  0  0
  3 18  1  0  0  0  0
  3  5  1  0  0  0  0
  4 23  1  0  0  0  0
  4  7  1  0  0  0  0
  4 40  1  6  0  0  0
  5 12  2  0  0  0  0
  6 13  1  1  0  0  0
  6 28  1  0  0  0  0
  6  5  1  0  0  0  0
  6  7  1  0  0  0  0
  7 41  1  0  0  0  0
  7 42  1  0  0  0  0
  8 10  2  0  0  0  0
  8 11  1  0  0  0  0
  9 43  1  0  0  0  0
 11 30  1  0  0  0  0
 11 31  1  0  0  0  0
 11 44  1  0  0  0  0
 13 14  1  0  0  0  0
 13 45  1  0  0  0  0
 13 46  1  0  0  0  0
 14 15  2  0  0  0  0
 14 47  1  0  0  0  0
 15 16  1  0  0  0  0
 15 17  1  0  0  0  0
 16 48  1  0  0  0  0
 16 49  1  0  0  0  0
 16 50  1  0  0  0  0
 17 51  1  0  0  0  0
 17 52  1  0  0  0  0
 17 53  1  0  0  0  0
 18 19  1  0  0  0  0
 18 54  1  0  0  0  0
 18 55  1  0  0  0  0
 19 20  2  0  0  0  0
 19 56  1  0  0  0  0
 20 21  1  0  0  0  0
 20 22  1  0  0  0  0
 21 57  1  0  0  0  0
 21 58  1  0  0  0  0
 21 59  1  0  0  0  0
 22 60  1  0  0  0  0
 22 61  1  0  0  0  0
 22 62  1  0  0  0  0
 23 24  1  0  0  0  0
 23 63  1  0  0  0  0
 23 64  1  0  0  0  0
 24 25  2  0  0  0  0
 24 65  1  0  0  0  0
 25 26  1  0  0  0  0
 25 27  1  0  0  0  0
 26 66  1  0  0  0  0
 26 67  1  0  0  0  0
 26 68  1  0  0  0  0
 27 69  1  0  0  0  0
 27 70  1  0  0  0  0
 27 71  1  0  0  0  0
 28 29  2  0  0  0  0
 30 72  1  0  0  0  0
 30 73  1  0  0  0  0
 30 74  1  0  0  0  0
 31 75  1  0  0  0  0
 31 76  1  0  0  0  0
 31 77  1  0  0  0  0
 32 33  1  6  0  0  0
 32 39  1  0  0  0  0
 32  4  1  0  0  0  0
 33 34  1  0  0  0  0
 33 78  1  0  0  0  0
 33 79  1  0  0  0  0
 34 35  1  0  0  0  0
 34 80  1  0  0  0  0
 34 81  1  0  0  0  0
 35 36  2  0  0  0  0
 35 82  1  0  0  0  0
 36 37  1  0  0  0  0
 36 38  1  0  0  0  0
 37 83  1  0  0  0  0
 37 84  1  0  0  0  0
 37 85  1  0  0  0  0
 38 86  1  0  0  0  0
 38 87  1  0  0  0  0
 38 88  1  0  0  0  0
 39 89  1  0  0  0  0
 39 90  1  0  0  0  0
 39 91  1  0  0  0  0
M  END
>  <DRUGBANK_ID>
DB01892

>  <SECONDARY_ACCESSION_NUMBERS>
EXPT01804

>  <COMMON_NAME>
Hyperforin

>  <CAS_NUMBER>
11079-53-1

>  <UNII>
RM741E34FP

>  <SYNONYMS>
Hiperforina; Hyperforine

$$$$
