
 OpenBabel10282417072D

 44 45  0  0  1  0  0  0  0  0999 V2000
   -1.4289   -1.6500    0.0000 C   0  0  0  0  0  0  0  0  0  0  0  0
   -0.7145   -0.4125    0.0000 C   0  0  0  0  0  0  0  0  0  0  0  0
    0.7145   -1.2375    0.0000 C   0  0  0  0  0  0  0  0  0  0  0  0
   -0.7145   -1.2375    0.0000 C   0  0  1  0  0  0  0  0  0  0  0  0
   -1.4289   -2.4750    0.0000 C   0  0  1  0  0  0  0  0  0  0  0  0
    1.4289   -1.6500    0.0000 C   0  0  2  0  0  0  0  0  0  0  0  0
   -0.7145   -2.8875    0.0000 C   0  0  2  0  0  0  0  0  0  0  0  0
    2.1434   -2.8875    0.0000 C   0  0  2  0  0  0  0  0  0  0  0  0
    2.8579   -2.4750    0.0000 C   0  0  2  0  0  0  0  0  0  0  0  0
    1.4289   -2.4750    0.0000 C   0  0  2  0  0  0  0  0  0  0  0  0
    2.8579   -1.6500    0.0000 C   0  0  2  0  0  0  0  0  0  0  0  0
    0.0000   -2.4750    0.0000 C   0  0  1  0  0  0  0  0  0  0  0  0
   -1.4289   -0.0000    0.0000 O   0  0  0  0  0  0  0  0  0  0  0  0
    0.7145   -0.4125    0.0000 O   0  0  0  0  0  0  0  0  0  0  0  0
   -2.1434   -2.8875    0.0000 O   0  0  0  0  0  0  0  0  0  0  0  0
   -0.7145   -3.7125    0.0000 O   0  0  0  0  0  0  0  0  0  0  0  0
    2.1434   -3.7125    0.0000 O   0  0  0  0  0  0  0  0  0  0  0  0
    3.5724   -2.8875    0.0000 O   0  0  0  0  0  0  0  0  0  0  0  0
    3.5724   -1.2375    0.0000 O   0  0  0  0  0  0  0  0  0  0  0  0
    0.0000   -1.6500    0.0000 O   0  0  0  0  0  0  0  0  0  0  0  0
    2.1434   -1.2375    0.0000 O   0  0  0  0  0  0  0  0  0  0  0  0
    0.7145   -2.8875    0.0000 O   0  0  0  0  0  0  0  0  0  0  0  0
   -1.4289   -0.8250    0.0000 H   0  0  0  0  0  0  0  0  0  0  0  0
   -2.1434   -2.0625    0.0000 H   0  0  0  0  0  0  0  0  0  0  0  0
    0.8986   -2.2820    0.0000 H   0  0  0  0  0  0  0  0  0  0  0  0
   -1.4289   -3.3000    0.0000 H   0  0  0  0  0  0  0  0  0  0  0  0
    2.9559   -3.0308    0.0000 H   0  0  0  0  0  0  0  0  0  0  0  0
    3.1401   -3.2502    0.0000 H   0  0  0  0  0  0  0  0  0  0  0  0
    0.6165   -2.3317    0.0000 H   0  0  0  0  0  0  0  0  0  0  0  0
    3.5724   -2.0625    0.0000 H   0  0  0  0  0  0  0  0  0  0  0  0
    0.0000   -3.3000    0.0000 H   0  0  0  0  0  0  0  0  0  0  0  0
   -2.3556   -1.1150    0.0000 H   0  0  0  0  0  0  0  0  0  0  0  0
   -2.3555   -2.1850    0.0000 H   0  0  0  0  0  0  0  0  0  0  0  0
    0.2122    0.1225    0.0000 H   0  0  0  0  0  0  0  0  0  0  0  0
   -0.7145    0.6575    0.0000 H   0  0  0  0  0  0  0  0  0  0  0  0
   -0.2122   -1.7725    0.0000 H   0  0  0  0  0  0  0  0  0  0  0  0
   -0.2121   -0.7025    0.0000 H   0  0  0  0  0  0  0  0  0  0  0  0
   -1.4289    0.9700    0.0000 H   0  0  0  0  0  0  0  0  0  0  0  0
    1.5545    0.0725    0.0000 H   0  0  0  0  0  0  0  0  0  0  0  0
   -2.9834   -2.4025    0.0000 H   0  0  0  0  0  0  0  0  0  0  0  0
   -1.5545   -4.1975    0.0000 H   0  0  0  0  0  0  0  0  0  0  0  0
    1.3034   -4.1975    0.0000 H   0  0  0  0  0  0  0  0  0  0  0  0
    3.5724   -3.8575    0.0000 H   0  0  0  0  0  0  0  0  0  0  0  0
    4.4124   -1.7225    0.0000 H   0  0  0  0  0  0  0  0  0  0  0  0
  1 32  1  0  0  0  0
  1 33  1  0  0  0  0
  2 34  1  0  0  0  0
  2 35  1  0  0  0  0
  3 36  1  0  0  0  0
  3 37  1  0  0  0  0
  4  1  1  0  0  0  0
  4  2  1  0  0  0  0
  4 23  1  6  0  0  0
  5  1  1  0  0  0  0
  5 15  1  0  0  0  0
  5 24  1  6  0  0  0
  6  3  1  0  0  0  0
  6 25  1  6  0  0  0
  7  5  1  0  0  0  0
  7 16  1  0  0  0  0
  7 26  1  1  0  0  0
  8 17  1  0  0  0  0
  8 27  1  6  0  0  0
  9  8  1  0  0  0  0
  9 18  1  0  0  0  0
  9 28  1  1  0  0  0
 10  6  1  0  0  0  0
 10  8  1  0  0  0  0
 10 22  1  0  0  0  0
 10 29  1  1  0  0  0
 11  9  1  0  0  0  0
 11 19  1  0  0  0  0
 11 30  1  6  0  0  0
 12  7  1  0  0  0  0
 12 22  1  0  0  0  0
 12 31  1  6  0  0  0
 13  2  1  0  0  0  0
 13 38  1  0  0  0  0
 14  3  1  0  0  0  0
 14 39  1  0  0  0  0
 15 40  1  0  0  0  0
 16 41  1  0  0  0  0
 17 42  1  0  0  0  0
 18 43  1  0  0  0  0
 19 44  1  0  0  0  0
 20  4  1  0  0  0  0
 20 12  1  0  0  0  0
 21  6  1  0  0  0  0
 21 11  1  0  0  0  0
M  END
>  <DRUGBANK_ID>
DB02065

>  <SECONDARY_ACCESSION_NUMBERS>
EXPT01157

>  <COMMON_NAME>
4-Deoxylactose

$$$$
