
 OpenBabel10282417072D

 53 56  0  0  0  0  0  0  0  0999 V2000
   -0.1014   -3.5477    0.0000 C   0  0  0  0  0  0  0  0  0  0  0  0
   -0.9083   -3.7192    0.0000 C   0  0  0  0  0  0  0  0  0  0  0  0
   -1.4604   -3.1062    0.0000 N   0  0  0  0  0  0  0  0  0  0  0  0
   -2.2673   -3.2777    0.0000 C   0  0  0  0  0  0  0  0  0  0  0  0
   -2.5223   -4.0623    0.0000 C   0  0  0  0  0  0  0  0  0  0  0  0
   -1.9702   -4.6754    0.0000 C   0  0  0  0  0  0  0  0  0  0  0  0
   -2.2252   -5.4600    0.0000 C   0  0  0  0  0  0  0  0  0  0  0  0
   -3.0321   -5.6315    0.0000 C   0  0  0  0  0  0  0  0  0  0  0  0
   -3.5842   -5.0184    0.0000 C   0  0  0  0  0  0  0  0  0  0  0  0
   -3.3292   -4.2338    0.0000 C   0  0  0  0  0  0  0  0  0  0  0  0
   -1.2054   -2.3215    0.0000 C   0  0  0  0  0  0  0  0  0  0  0  0
   -1.7575   -1.7084    0.0000 O   0  0  0  0  0  0  0  0  0  0  0  0
   -0.3984   -2.1500    0.0000 C   0  0  0  0  0  0  0  0  0  0  0  0
   -0.1435   -1.3654    0.0000 N   0  0  0  0  0  0  0  0  0  0  0  0
    0.6411   -1.1104    0.0000 C   0  0  0  0  0  0  0  0  0  0  0  0
    0.6411   -0.2854    0.0000 C   0  0  0  0  0  0  0  0  0  0  0  0
    1.3556    0.1271    0.0000 C   0  0  0  0  0  0  0  0  0  0  0  0
    2.0701   -0.2854    0.0000 N   0  0  0  0  0  0  0  0  0  0  0  0
    2.0701   -1.1104    0.0000 C   0  0  0  0  0  0  0  0  0  0  0  0
    1.3556   -1.5229    0.0000 N   0  0  0  0  0  0  0  0  0  0  0  0
    2.7845   -1.5229    0.0000 C   0  0  0  0  0  0  0  0  0  0  0  0
    3.4990   -1.1104    0.0000 C   0  0  0  0  0  0  0  0  0  0  0  0
    4.2135   -1.5229    0.0000 C   0  0  0  0  0  0  0  0  0  0  0  0
    4.2135   -2.3479    0.0000 C   0  0  0  0  0  0  0  0  0  0  0  0
    3.4990   -2.7604    0.0000 C   0  0  0  0  0  0  0  0  0  0  0  0
    2.7845   -2.3479    0.0000 C   0  0  0  0  0  0  0  0  0  0  0  0
   -0.1435   -0.0305    0.0000 N   0  0  0  0  0  0  0  0  0  0  0  0
   -0.6284   -0.6979    0.0000 C   0  0  0  0  0  0  0  0  0  0  0  0
   -1.4534   -0.6979    0.0000 O   0  0  0  0  0  0  0  0  0  0  0  0
   -0.3984    0.7541    0.0000 C   0  0  0  0  0  0  0  0  0  0  0  0
    0.6146   -4.3429    0.0000 H   0  0  0  0  0  0  0  0  0  0  0  0
    0.2293   -2.5301    0.0000 H   0  0  0  0  0  0  0  0  0  0  0  0
    0.9452   -3.3252    0.0000 H   0  0  0  0  0  0  0  0  0  0  0  0
   -1.2389   -4.7369    0.0000 H   0  0  0  0  0  0  0  0  0  0  0  0
   -1.9549   -3.9418    0.0000 H   0  0  0  0  0  0  0  0  0  0  0  0
   -2.9832   -2.4825    0.0000 H   0  0  0  0  0  0  0  0  0  0  0  0
   -3.3139   -3.5001    0.0000 H   0  0  0  0  0  0  0  0  0  0  0  0
   -0.9607   -4.4608    0.0000 H   0  0  0  0  0  0  0  0  0  0  0  0
   -1.5347   -6.2270    0.0000 H   0  0  0  0  0  0  0  0  0  0  0  0
   -3.3510   -6.6130    0.0000 H   0  0  0  0  0  0  0  0  0  0  0  0
   -4.5937   -5.2330    0.0000 H   0  0  0  0  0  0  0  0  0  0  0  0
   -4.0197   -3.4668    0.0000 H   0  0  0  0  0  0  0  0  0  0  0  0
    0.3176   -2.9452    0.0000 H   0  0  0  0  0  0  0  0  0  0  0  0
    0.6482   -1.9275    0.0000 H   0  0  0  0  0  0  0  0  0  0  0  0
    1.3556    1.1591    0.0000 H   0  0  0  0  0  0  0  0  0  0  0  0
    3.4990   -0.0784    0.0000 H   0  0  0  0  0  0  0  0  0  0  0  0
    5.1072   -1.0069    0.0000 H   0  0  0  0  0  0  0  0  0  0  0  0
    5.1072   -2.8639    0.0000 H   0  0  0  0  0  0  0  0  0  0  0  0
    3.4990   -3.7924    0.0000 H   0  0  0  0  0  0  0  0  0  0  0  0
    1.8908   -2.8639    0.0000 H   0  0  0  0  0  0  0  0  0  0  0  0
    0.3176    1.5492    0.0000 H   0  0  0  0  0  0  0  0  0  0  0  0
   -1.4450    0.9766    0.0000 H   0  0  0  0  0  0  0  0  0  0  0  0
   -0.7290    1.7717    0.0000 H   0  0  0  0  0  0  0  0  0  0  0  0
  1  2  1  0  0  0  0
  1 31  1  0  0  0  0
  1 32  1  0  0  0  0
  1 33  1  0  0  0  0
  2  3  1  0  0  0  0
  2 34  1  0  0  0  0
  2 35  1  0  0  0  0
  3  4  1  0  0  0  0
  3 11  1  0  0  0  0
  4  5  1  0  0  0  0
  4 36  1  0  0  0  0
  4 37  1  0  0  0  0
  5  6  2  0  0  0  0
  5 10  1  0  0  0  0
  6  7  1  0  0  0  0
  6 38  1  0  0  0  0
  7  8  2  0  0  0  0
  7 39  1  0  0  0  0
  8  9  1  0  0  0  0
  8 40  1  0  0  0  0
  9 10  2  0  0  0  0
  9 41  1  0  0  0  0
 10 42  1  0  0  0  0
 11 12  2  0  0  0  0
 11 13  1  0  0  0  0
 13 14  1  0  0  0  0
 13 43  1  0  0  0  0
 13 44  1  0  0  0  0
 14 15  1  0  0  0  0
 14 28  1  0  0  0  0
 15 16  1  0  0  0  0
 15 20  2  0  0  0  0
 16 17  2  0  0  0  0
 16 27  1  0  0  0  0
 17 18  1  0  0  0  0
 17 45  1  0  0  0  0
 18 19  2  0  0  0  0
 19 20  1  0  0  0  0
 19 21  1  0  0  0  0
 21 22  2  0  0  0  0
 21 26  1  0  0  0  0
 22 23  1  0  0  0  0
 22 46  1  0  0  0  0
 23 24  2  0  0  0  0
 23 47  1  0  0  0  0
 24 25  1  0  0  0  0
 24 48  1  0  0  0  0
 25 26  2  0  0  0  0
 25 49  1  0  0  0  0
 26 50  1  0  0  0  0
 27 28  1  0  0  0  0
 27 30  1  0  0  0  0
 28 29  2  0  0  0  0
 30 51  1  0  0  0  0
 30 52  1  0  0  0  0
 30 53  1  0  0  0  0
M  END
>  <DRUGBANK_ID>
DB12666

>  <COMMON_NAME>
Emapunil

>  <CAS_NUMBER>
226954-04-7

>  <UNII>
OG837L732J

>  <SYNONYMS>
Emapunil

$$$$
