
 OpenBabel10282417072D

365365  0  0  0  0  0  0  0  0999 V2000
   -0.5688    4.3611    0.0000 Ca  0  2  0  0  0  0  0  0  0  0  0  0
    1.1585   -4.0024    0.0000 Ca  0  2  0  0  0  0  0  0  0  0  0  0
    8.7037    4.3611    0.0000 Ca  0  2  0  0  0  0  0  0  0  0  0  0
   10.4311   -4.0024    0.0000 Ca  0  2  0  0  0  0  0  0  0  0  0  0
   17.9763    4.2680    0.0000 Mn  0  2  0  0  0  0  0  0  0  0  0  0
    3.1933    1.9154    0.0000 C   0  0  0  0  0  0  0  0  0  0  0  0
    2.3690    1.8804    0.0000 C   0  0  0  0  0  0  0  0  0  0  0  0
    1.9266    2.5768    0.0000 N   0  0  0  0  0  0  0  0  0  0  0  0
    1.1023    2.5418    0.0000 C   0  0  0  0  0  0  0  0  0  0  0  0
    0.7205    1.8105    0.0000 C   0  0  0  0  0  0  0  0  0  0  0  0
    0.0010    1.4416    0.0000 C   0  0  0  0  0  0  0  0  0  0  0  0
   -0.6920    1.8892    0.0000 O   0  0  0  0  0  0  0  0  0  0  0  0
   -0.6509    2.7132    0.0000 P   0  0  3  0  0  0  0  0  0  0  0  0
    0.1730    2.6721    0.0000 O   0  0  0  0  0  0  0  0  0  0  0  0
   -0.6099    3.5371    0.0000 O   0  5  0  0  0  0  0  0  0  0  0  0
   -1.4749    2.7542    0.0000 O   0  0  0  0  0  0  0  0  0  0  0  0
    1.1629    1.1142    0.0000 C   0  0  0  0  0  0  0  0  0  0  0  0
    0.7810    0.3829    0.0000 C   0  0  0  0  0  0  0  0  0  0  0  0
    1.2234   -0.3135    0.0000 N   0  0  0  0  0  0  0  0  0  0  0  0
    0.8415   -1.0448    0.0000 C   0  0  0  0  0  0  0  0  0  0  0  0
    0.0173   -1.0797    0.0000 C   0  0  0  0  0  0  0  0  0  0  0  0
   -0.4251   -0.3834    0.0000 N   0  0  0  0  0  0  0  0  0  0  0  0
   -0.0433    0.3479    0.0000 C   0  0  0  0  0  0  0  0  0  0  0  0
   -0.4857    1.0443    0.0000 C   0  0  0  0  0  0  0  0  0  0  0  0
   -0.1038    1.7756    0.0000 O   0  0  0  0  0  0  0  0  0  0  0  0
   -1.3099    1.0093    0.0000 O   0  0  0  0  0  0  0  0  0  0  0  0
   -1.2494   -0.4183    0.0000 C   0  0  0  0  0  0  0  0  0  0  0  0
   -1.6313   -1.1496    0.0000 C   0  0  0  0  0  0  0  0  0  0  0  0
   -1.1889   -1.8460    0.0000 C   0  0  0  0  0  0  0  0  0  0  0  0
   -0.3646   -1.8110    0.0000 C   0  0  0  0  0  0  0  0  0  0  0  0
    0.0778   -2.5074    0.0000 O   0  0  0  0  0  0  0  0  0  0  0  0
   -0.3041   -3.2387    0.0000 P   0  0  3  0  0  0  0  0  0  0  0  0
   -0.6860   -3.9700    0.0000 O   0  0  0  0  0  0  0  0  0  0  0  0
    0.4272   -3.6206    0.0000 O   0  5  0  0  0  0  0  0  0  0  0  0
   -1.0354   -2.8568    0.0000 O   0  0  0  0  0  0  0  0  0  0  0  0
   -1.5707   -2.5773    0.0000 C   0  0  0  0  0  0  0  0  0  0  0  0
   -2.3950   -2.6122    0.0000 N   0  0  0  0  0  0  0  0  0  0  0  0
   -2.8374   -1.9159    0.0000 C   0  0  0  0  0  0  0  0  0  0  0  0
   -3.6616   -1.9508    0.0000 C   0  0  0  0  0  0  0  0  0  0  0  0
   -2.4555   -1.1846    0.0000 C   0  0  0  0  0  0  0  0  0  0  0  0
   -2.8979   -0.4882    0.0000 O   0  0  0  0  0  0  0  0  0  0  0  0
    2.0476   -0.2785    0.0000 C   0  0  0  0  0  0  0  0  0  0  0  0
    2.0956    0.3479    0.0000 C   0  0  0  0  0  0  0  0  0  0  0  0
    3.2538    0.4877    0.0000 O   0  0  0  0  0  0  0  0  0  0  0  0
    1.6532    1.0443    0.0000 O   0  0  0  0  0  0  0  0  0  0  0  0
    1.9871    1.1491    0.0000 C   0  0  0  0  0  0  0  0  0  0  0  0
    2.4295    0.4528    0.0000 O   0  0  0  0  0  0  0  0  0  0  0  0
   12.4658    1.9154    0.0000 C   0  0  0  0  0  0  0  0  0  0  0  0
   11.6416    1.8804    0.0000 C   0  0  0  0  0  0  0  0  0  0  0  0
   11.1992    2.5768    0.0000 N   0  0  0  0  0  0  0  0  0  0  0  0
   10.3749    2.5418    0.0000 C   0  0  0  0  0  0  0  0  0  0  0  0
    9.9930    1.8105    0.0000 C   0  0  0  0  0  0  0  0  0  0  0  0
    9.2736    1.4416    0.0000 C   0  0  0  0  0  0  0  0  0  0  0  0
    8.5806    1.8892    0.0000 O   0  0  0  0  0  0  0  0  0  0  0  0
    8.6216    2.7132    0.0000 P   0  0  3  0  0  0  0  0  0  0  0  0
    9.4456    2.6721    0.0000 O   0  0  0  0  0  0  0  0  0  0  0  0
    8.6627    3.5371    0.0000 O   0  5  0  0  0  0  0  0  0  0  0  0
    7.7976    2.7542    0.0000 O   0  0  0  0  0  0  0  0  0  0  0  0
   10.4354    1.1142    0.0000 C   0  0  0  0  0  0  0  0  0  0  0  0
   10.0536    0.3829    0.0000 C   0  0  0  0  0  0  0  0  0  0  0  0
   10.4960   -0.3135    0.0000 N   0  0  0  0  0  0  0  0  0  0  0  0
   10.1141   -1.0448    0.0000 C   0  0  0  0  0  0  0  0  0  0  0  0
    9.2898   -1.0797    0.0000 C   0  0  0  0  0  0  0  0  0  0  0  0
    8.8474   -0.3834    0.0000 N   0  0  0  0  0  0  0  0  0  0  0  0
    9.2293    0.3479    0.0000 C   0  0  0  0  0  0  0  0  0  0  0  0
    8.7869    1.0443    0.0000 C   0  0  0  0  0  0  0  0  0  0  0  0
    9.1688    1.7756    0.0000 O   0  0  0  0  0  0  0  0  0  0  0  0
    7.9626    1.0093    0.0000 O   0  0  0  0  0  0  0  0  0  0  0  0
    8.0232   -0.4183    0.0000 C   0  0  0  0  0  0  0  0  0  0  0  0
    7.6413   -1.1496    0.0000 C   0  0  0  0  0  0  0  0  0  0  0  0
    8.0837   -1.8460    0.0000 C   0  0  0  0  0  0  0  0  0  0  0  0
    8.9080   -1.8110    0.0000 C   0  0  0  0  0  0  0  0  0  0  0  0
    9.3503   -2.5074    0.0000 O   0  0  0  0  0  0  0  0  0  0  0  0
    8.9685   -3.2387    0.0000 P   0  0  3  0  0  0  0  0  0  0  0  0
    8.5866   -3.9700    0.0000 O   0  0  0  0  0  0  0  0  0  0  0  0
    9.6998   -3.6206    0.0000 O   0  5  0  0  0  0  0  0  0  0  0  0
    8.2372   -2.8568    0.0000 O   0  0  0  0  0  0  0  0  0  0  0  0
    7.7018   -2.5773    0.0000 C   0  0  0  0  0  0  0  0  0  0  0  0
    6.8776   -2.6122    0.0000 N   0  0  0  0  0  0  0  0  0  0  0  0
    6.4352   -1.9159    0.0000 C   0  0  0  0  0  0  0  0  0  0  0  0
    5.6109   -1.9508    0.0000 C   0  0  0  0  0  0  0  0  0  0  0  0
    6.8170   -1.1846    0.0000 C   0  0  0  0  0  0  0  0  0  0  0  0
    6.3747   -0.4882    0.0000 O   0  0  0  0  0  0  0  0  0  0  0  0
   11.3202   -0.2785    0.0000 C   0  0  0  0  0  0  0  0  0  0  0  0
   11.3681    0.3479    0.0000 C   0  0  0  0  0  0  0  0  0  0  0  0
   12.5263    0.4877    0.0000 O   0  0  0  0  0  0  0  0  0  0  0  0
   10.9257    1.0443    0.0000 O   0  0  0  0  0  0  0  0  0  0  0  0
   11.2597    1.1491    0.0000 C   0  0  0  0  0  0  0  0  0  0  0  0
   11.7021    0.4528    0.0000 O   0  0  0  0  0  0  0  0  0  0  0  0
   21.7384    1.8223    0.0000 C   0  0  0  0  0  0  0  0  0  0  0  0
   20.9141    1.7873    0.0000 C   0  0  0  0  0  0  0  0  0  0  0  0
   20.4717    2.4837    0.0000 N   0  0  0  0  0  0  0  0  0  0  0  0
   19.6475    2.4488    0.0000 C   0  0  0  0  0  0  0  0  0  0  0  0
   19.2656    1.7175    0.0000 C   0  0  0  0  0  0  0  0  0  0  0  0
   18.5462    1.3486    0.0000 C   0  0  0  0  0  0  0  0  0  0  0  0
   17.8531    1.7961    0.0000 O   0  0  0  0  0  0  0  0  0  0  0  0
   17.8942    2.6201    0.0000 P   0  0  3  0  0  0  0  0  0  0  0  0
   18.7182    2.5790    0.0000 O   0  0  0  0  0  0  0  0  0  0  0  0
   17.9352    3.4441    0.0000 O   0  5  0  0  0  0  0  0  0  0  0  0
   17.0702    2.6612    0.0000 O   0  0  0  0  0  0  0  0  0  0  0  0
   19.7080    1.0211    0.0000 C   0  0  0  0  0  0  0  0  0  0  0  0
   19.3261    0.2898    0.0000 C   0  0  0  0  0  0  0  0  0  0  0  0
   19.7685   -0.4066    0.0000 N   0  0  0  0  0  0  0  0  0  0  0  0
   19.3866   -1.1379    0.0000 C   0  0  0  0  0  0  0  0  0  0  0  0
   18.5624   -1.1728    0.0000 C   0  0  0  0  0  0  0  0  0  0  0  0
   18.1200   -0.4764    0.0000 N   0  0  0  0  0  0  0  0  0  0  0  0
   18.5019    0.2549    0.0000 C   0  0  0  0  0  0  0  0  0  0  0  0
   18.0595    0.9512    0.0000 C   0  0  0  0  0  0  0  0  0  0  0  0
   18.4413    1.6825    0.0000 O   0  0  0  0  0  0  0  0  0  0  0  0
   17.2352    0.9163    0.0000 O   0  0  0  0  0  0  0  0  0  0  0  0
   17.2957   -0.5114    0.0000 C   0  0  0  0  0  0  0  0  0  0  0  0
   16.9139   -1.2427    0.0000 C   0  0  0  0  0  0  0  0  0  0  0  0
   17.3563   -1.9391    0.0000 C   0  0  0  0  0  0  0  0  0  0  0  0
   18.1805   -1.9041    0.0000 C   0  0  0  0  0  0  0  0  0  0  0  0
   18.6229   -2.6005    0.0000 O   0  0  0  0  0  0  0  0  0  0  0  0
   18.2410   -3.3318    0.0000 P   0  0  3  0  0  0  0  0  0  0  0  0
   17.8592   -4.0631    0.0000 O   0  0  0  0  0  0  0  0  0  0  0  0
   17.5097   -2.9499    0.0000 O   0  5  0  0  0  0  0  0  0  0  0  0
   18.9723   -3.7136    0.0000 O   0  0  0  0  0  0  0  0  0  0  0  0
   16.9744   -2.6704    0.0000 C   0  0  0  0  0  0  0  0  0  0  0  0
   16.1501   -2.7053    0.0000 N   0  0  0  0  0  0  0  0  0  0  0  0
   15.7077   -2.0089    0.0000 C   0  0  0  0  0  0  0  0  0  0  0  0
   14.8835   -2.0439    0.0000 C   0  0  0  0  0  0  0  0  0  0  0  0
   16.0896   -1.2776    0.0000 C   0  0  0  0  0  0  0  0  0  0  0  0
   15.6472   -0.5813    0.0000 O   0  0  0  0  0  0  0  0  0  0  0  0
   20.5928   -0.3716    0.0000 C   0  0  0  0  0  0  0  0  0  0  0  0
   20.6407    0.2549    0.0000 C   0  0  0  0  0  0  0  0  0  0  0  0
   21.7989    0.3946    0.0000 O   0  0  0  0  0  0  0  0  0  0  0  0
   20.1983    0.9512    0.0000 O   0  0  0  0  0  0  0  0  0  0  0  0
   20.5323    1.0560    0.0000 C   0  0  0  0  0  0  0  0  0  0  0  0
   20.9746    0.3597    0.0000 O   0  0  0  0  0  0  0  0  0  0  0  0
    3.2073   -7.3349    0.0000 C   0  0  0  0  0  0  0  0  0  0  0  0
    2.3830   -7.3698    0.0000 C   0  0  0  0  0  0  0  0  0  0  0  0
    1.9406   -6.6734    0.0000 N   0  0  0  0  0  0  0  0  0  0  0  0
    1.1164   -6.7084    0.0000 C   0  0  0  0  0  0  0  0  0  0  0  0
    0.7345   -7.4397    0.0000 C   0  0  0  0  0  0  0  0  0  0  0  0
    0.0151   -7.8086    0.0000 C   0  0  0  0  0  0  0  0  0  0  0  0
   -0.6780   -7.3610    0.0000 O   0  0  0  0  0  0  0  0  0  0  0  0
   -0.6369   -6.5370    0.0000 P   0  0  3  0  0  0  0  0  0  0  0  0
   -0.5958   -5.7131    0.0000 O   0  0  0  0  0  0  0  0  0  0  0  0
   -1.4609   -6.4960    0.0000 O   0  5  0  0  0  0  0  0  0  0  0  0
    0.1871   -6.5781    0.0000 O   0  0  0  0  0  0  0  0  0  0  0  0
    1.1769   -8.1360    0.0000 C   0  0  0  0  0  0  0  0  0  0  0  0
    0.7950   -8.8673    0.0000 C   0  0  0  0  0  0  0  0  0  0  0  0
    1.2374   -9.5637    0.0000 N   0  0  0  0  0  0  0  0  0  0  0  0
    0.8556  -10.2950    0.0000 C   0  0  0  0  0  0  0  0  0  0  0  0
    0.0313  -10.3299    0.0000 C   0  0  0  0  0  0  0  0  0  0  0  0
   -0.4111   -9.6336    0.0000 N   0  0  0  0  0  0  0  0  0  0  0  0
   -0.0292   -8.9023    0.0000 C   0  0  0  0  0  0  0  0  0  0  0  0
   -0.4716   -8.2059    0.0000 C   0  0  0  0  0  0  0  0  0  0  0  0
   -0.0897   -7.4746    0.0000 O   0  0  0  0  0  0  0  0  0  0  0  0
   -1.2959   -8.2409    0.0000 O   0  0  0  0  0  0  0  0  0  0  0  0
   -1.2354   -9.6685    0.0000 C   0  0  0  0  0  0  0  0  0  0  0  0
   -1.6172  -10.3998    0.0000 C   0  0  0  0  0  0  0  0  0  0  0  0
   -1.1748  -11.0962    0.0000 C   0  0  0  0  0  0  0  0  0  0  0  0
   -0.3506  -11.0612    0.0000 C   0  0  0  0  0  0  0  0  0  0  0  0
    0.0918  -11.7576    0.0000 O   0  0  0  0  0  0  0  0  0  0  0  0
   -0.2900  -12.4889    0.0000 P   0  0  3  0  0  0  0  0  0  0  0  0
   -0.6719  -13.2202    0.0000 O   0  0  0  0  0  0  0  0  0  0  0  0
   -1.0213  -12.1070    0.0000 O   0  5  0  0  0  0  0  0  0  0  0  0
    0.4413  -12.8708    0.0000 O   0  0  0  0  0  0  0  0  0  0  0  0
   -1.5567  -11.8275    0.0000 C   0  0  0  0  0  0  0  0  0  0  0  0
   -2.3810  -11.8624    0.0000 N   0  0  0  0  0  0  0  0  0  0  0  0
   -2.8233  -11.1661    0.0000 C   0  0  0  0  0  0  0  0  0  0  0  0
   -3.6476  -11.2010    0.0000 C   0  0  0  0  0  0  0  0  0  0  0  0
   -2.4415  -10.4348    0.0000 C   0  0  0  0  0  0  0  0  0  0  0  0
   -2.8839   -9.7384    0.0000 O   0  0  0  0  0  0  0  0  0  0  0  0
    2.0617   -9.5288    0.0000 C   0  0  0  0  0  0  0  0  0  0  0  0
    2.1096   -8.9023    0.0000 C   0  0  0  0  0  0  0  0  0  0  0  0
    3.2678   -8.7625    0.0000 O   0  0  0  0  0  0  0  0  0  0  0  0
    1.6672   -8.2059    0.0000 O   0  0  0  0  0  0  0  0  0  0  0  0
    2.0012   -8.1011    0.0000 C   0  0  0  0  0  0  0  0  0  0  0  0
    2.4436   -8.7975    0.0000 O   0  0  0  0  0  0  0  0  0  0  0  0
   12.4799   -7.3349    0.0000 C   0  0  0  0  0  0  0  0  0  0  0  0
   11.6556   -7.3698    0.0000 C   0  0  0  0  0  0  0  0  0  0  0  0
   11.2132   -6.6734    0.0000 N   0  0  0  0  0  0  0  0  0  0  0  0
   10.3889   -6.7084    0.0000 C   0  0  0  0  0  0  0  0  0  0  0  0
   10.0071   -7.4397    0.0000 C   0  0  0  0  0  0  0  0  0  0  0  0
    9.2876   -7.8086    0.0000 C   0  0  0  0  0  0  0  0  0  0  0  0
    8.5946   -7.3610    0.0000 O   0  0  0  0  0  0  0  0  0  0  0  0
    8.6357   -6.5370    0.0000 P   0  0  3  0  0  0  0  0  0  0  0  0
    8.6767   -5.7131    0.0000 O   0  0  0  0  0  0  0  0  0  0  0  0
    7.8117   -6.4960    0.0000 O   0  5  0  0  0  0  0  0  0  0  0  0
    9.4596   -6.5781    0.0000 O   0  0  0  0  0  0  0  0  0  0  0  0
   10.4495   -8.1360    0.0000 C   0  0  0  0  0  0  0  0  0  0  0  0
   10.0676   -8.8673    0.0000 C   0  0  0  0  0  0  0  0  0  0  0  0
   10.5100   -9.5637    0.0000 N   0  0  0  0  0  0  0  0  0  0  0  0
   10.1281  -10.2950    0.0000 C   0  0  0  0  0  0  0  0  0  0  0  0
    9.3039  -10.3299    0.0000 C   0  0  0  0  0  0  0  0  0  0  0  0
    8.8615   -9.6336    0.0000 N   0  0  0  0  0  0  0  0  0  0  0  0
    9.2433   -8.9023    0.0000 C   0  0  0  0  0  0  0  0  0  0  0  0
    8.8009   -8.2059    0.0000 C   0  0  0  0  0  0  0  0  0  0  0  0
    9.1828   -7.4746    0.0000 O   0  0  0  0  0  0  0  0  0  0  0  0
    7.9767   -8.2409    0.0000 O   0  0  0  0  0  0  0  0  0  0  0  0
    8.0372   -9.6685    0.0000 C   0  0  0  0  0  0  0  0  0  0  0  0
    7.6553  -10.3998    0.0000 C   0  0  0  0  0  0  0  0  0  0  0  0
    8.0977  -11.0962    0.0000 C   0  0  0  0  0  0  0  0  0  0  0  0
    8.9220  -11.0612    0.0000 C   0  0  0  0  0  0  0  0  0  0  0  0
    9.3644  -11.7576    0.0000 O   0  0  0  0  0  0  0  0  0  0  0  0
    8.9825  -12.4889    0.0000 P   0  0  3  0  0  0  0  0  0  0  0  0
    8.6007  -13.2202    0.0000 O   0  0  0  0  0  0  0  0  0  0  0  0
    8.2512  -12.1070    0.0000 O   0  5  0  0  0  0  0  0  0  0  0  0
    9.7138  -12.8708    0.0000 O   0  0  0  0  0  0  0  0  0  0  0  0
    7.7159  -11.8275    0.0000 C   0  0  0  0  0  0  0  0  0  0  0  0
    6.8916  -11.8624    0.0000 N   0  0  0  0  0  0  0  0  0  0  0  0
    6.4492  -11.1661    0.0000 C   0  0  0  0  0  0  0  0  0  0  0  0
    5.6250  -11.2010    0.0000 C   0  0  0  0  0  0  0  0  0  0  0  0
    6.8311  -10.4348    0.0000 C   0  0  0  0  0  0  0  0  0  0  0  0
    6.3887   -9.7384    0.0000 O   0  0  0  0  0  0  0  0  0  0  0  0
   11.3343   -9.5288    0.0000 C   0  0  0  0  0  0  0  0  0  0  0  0
   11.3822   -8.9023    0.0000 C   0  0  0  0  0  0  0  0  0  0  0  0
   12.5404   -8.7625    0.0000 O   0  0  0  0  0  0  0  0  0  0  0  0
   10.9398   -8.2059    0.0000 O   0  0  0  0  0  0  0  0  0  0  0  0
   11.2737   -8.1011    0.0000 C   0  0  0  0  0  0  0  0  0  0  0  0
   11.7161   -8.7975    0.0000 O   0  0  0  0  0  0  0  0  0  0  0  0
    3.7671    1.0123    0.0000 H   0  0  0  0  0  0  0  0  0  0  0  0
    3.6885    2.8639    0.0000 H   0  0  0  0  0  0  0  0  0  0  0  0
    4.2623    1.9608    0.0000 H   0  0  0  0  0  0  0  0  0  0  0  0
    0.5488    3.4128    0.0000 H   0  0  0  0  0  0  0  0  0  0  0  0
   -0.0523    0.3729    0.0000 H   0  0  0  0  0  0  0  0  0  0  0  0
   -0.9512    0.9535    0.0000 H   0  0  0  0  0  0  0  0  0  0  0  0
    0.6155    1.8089    0.0000 H   0  0  0  0  0  0  0  0  0  0  0  0
   -0.2880    0.3376    0.0000 H   0  0  0  0  0  0  0  0  0  0  0  0
    0.2857   -0.5656    0.0000 H   0  0  0  0  0  0  0  0  0  0  0  0
    1.4152   -1.9480    0.0000 H   0  0  0  0  0  0  0  0  0  0  0  0
    0.3462   -1.9933    0.0000 H   0  0  0  0  0  0  0  0  0  0  0  0
   -0.4780   -2.0282    0.0000 H   0  0  0  0  0  0  0  0  0  0  0  0
   -1.0517   -1.1250    0.0000 H   0  0  0  0  0  0  0  0  0  0  0  0
    1.0257    0.3932    0.0000 H   0  0  0  0  0  0  0  0  0  0  0  0
    0.4520    1.2964    0.0000 H   0  0  0  0  0  0  0  0  0  0  0  0
    0.8324    1.8153    0.0000 H   0  0  0  0  0  0  0  0  0  0  0  0
   -1.8231    0.4849    0.0000 H   0  0  0  0  0  0  0  0  0  0  0  0
   -2.3184   -0.4636    0.0000 H   0  0  0  0  0  0  0  0  0  0  0  0
    0.1306   -0.8625    0.0000 H   0  0  0  0  0  0  0  0  0  0  0  0
    0.7044   -1.7657    0.0000 H   0  0  0  0  0  0  0  0  0  0  0  0
   -1.6551   -4.0111    0.0000 H   0  0  0  0  0  0  0  0  0  0  0  0
   -1.0173   -3.4484    0.0000 H   0  0  0  0  0  0  0  0  0  0  0  0
   -4.2353   -1.0476    0.0000 H   0  0  0  0  0  0  0  0  0  0  0  0
   -4.1569   -2.8993    0.0000 H   0  0  0  0  0  0  0  0  0  0  0  0
   -4.7306   -1.9961    0.0000 H   0  0  0  0  0  0  0  0  0  0  0  0
   -2.4642    0.3424    0.0000 H   0  0  0  0  0  0  0  0  0  0  0  0
    2.7912   -1.0479    0.0000 H   0  0  0  0  0  0  0  0  0  0  0  0
    3.0542    0.0843    0.0000 H   0  0  0  0  0  0  0  0  0  0  0  0
    3.8162   -0.2618    0.0000 H   0  0  0  0  0  0  0  0  0  0  0  0
    1.9958   -0.3778    0.0000 H   0  0  0  0  0  0  0  0  0  0  0  0
   13.0396    1.0123    0.0000 H   0  0  0  0  0  0  0  0  0  0  0  0
   12.9610    2.8639    0.0000 H   0  0  0  0  0  0  0  0  0  0  0  0
   13.5348    1.9608    0.0000 H   0  0  0  0  0  0  0  0  0  0  0  0
    9.8215    3.4129    0.0000 H   0  0  0  0  0  0  0  0  0  0  0  0
    9.2203    0.3729    0.0000 H   0  0  0  0  0  0  0  0  0  0  0  0
    8.3214    0.9534    0.0000 H   0  0  0  0  0  0  0  0  0  0  0  0
    9.8881    1.8089    0.0000 H   0  0  0  0  0  0  0  0  0  0  0  0
    8.9846    0.3376    0.0000 H   0  0  0  0  0  0  0  0  0  0  0  0
    9.5583   -0.5656    0.0000 H   0  0  0  0  0  0  0  0  0  0  0  0
   10.6878   -1.9480    0.0000 H   0  0  0  0  0  0  0  0  0  0  0  0
    9.6188   -1.9933    0.0000 H   0  0  0  0  0  0  0  0  0  0  0  0
    8.7945   -2.0282    0.0000 H   0  0  0  0  0  0  0  0  0  0  0  0
    8.2208   -1.1250    0.0000 H   0  0  0  0  0  0  0  0  0  0  0  0
   10.2983    0.3932    0.0000 H   0  0  0  0  0  0  0  0  0  0  0  0
    9.7246    1.2964    0.0000 H   0  0  0  0  0  0  0  0  0  0  0  0
   10.1050    1.8153    0.0000 H   0  0  0  0  0  0  0  0  0  0  0  0
    7.4495    0.4849    0.0000 H   0  0  0  0  0  0  0  0  0  0  0  0
    6.9542   -0.4636    0.0000 H   0  0  0  0  0  0  0  0  0  0  0  0
    9.4033   -0.8625    0.0000 H   0  0  0  0  0  0  0  0  0  0  0  0
    9.9770   -1.7658    0.0000 H   0  0  0  0  0  0  0  0  0  0  0  0
    7.6175   -4.0111    0.0000 H   0  0  0  0  0  0  0  0  0  0  0  0
    8.2552   -3.4484    0.0000 H   0  0  0  0  0  0  0  0  0  0  0  0
    5.0372   -1.0476    0.0000 H   0  0  0  0  0  0  0  0  0  0  0  0
    5.1156   -2.8992    0.0000 H   0  0  0  0  0  0  0  0  0  0  0  0
    4.5419   -1.9961    0.0000 H   0  0  0  0  0  0  0  0  0  0  0  0
    6.8085    0.3423    0.0000 H   0  0  0  0  0  0  0  0  0  0  0  0
   12.0639   -1.0478    0.0000 H   0  0  0  0  0  0  0  0  0  0  0  0
   12.3268    0.0844    0.0000 H   0  0  0  0  0  0  0  0  0  0  0  0
   13.0887   -0.2618    0.0000 H   0  0  0  0  0  0  0  0  0  0  0  0
   11.2684   -0.3778    0.0000 H   0  0  0  0  0  0  0  0  0  0  0  0
   22.3122    0.9192    0.0000 H   0  0  0  0  0  0  0  0  0  0  0  0
   22.2336    2.7708    0.0000 H   0  0  0  0  0  0  0  0  0  0  0  0
   22.8074    1.8677    0.0000 H   0  0  0  0  0  0  0  0  0  0  0  0
   19.0941    3.3199    0.0000 H   0  0  0  0  0  0  0  0  0  0  0  0
   18.4930    0.2799    0.0000 H   0  0  0  0  0  0  0  0  0  0  0  0
   17.5941    0.8603    0.0000 H   0  0  0  0  0  0  0  0  0  0  0  0
   19.1607    1.7158    0.0000 H   0  0  0  0  0  0  0  0  0  0  0  0
   18.2571    0.2445    0.0000 H   0  0  0  0  0  0  0  0  0  0  0  0
   18.8308   -0.6587    0.0000 H   0  0  0  0  0  0  0  0  0  0  0  0
   19.9603   -2.0411    0.0000 H   0  0  0  0  0  0  0  0  0  0  0  0
   18.8913   -2.0864    0.0000 H   0  0  0  0  0  0  0  0  0  0  0  0
   18.0671   -2.1213    0.0000 H   0  0  0  0  0  0  0  0  0  0  0  0
   17.4934   -1.2181    0.0000 H   0  0  0  0  0  0  0  0  0  0  0  0
   19.5709    0.3002    0.0000 H   0  0  0  0  0  0  0  0  0  0  0  0
   18.9971    1.2034    0.0000 H   0  0  0  0  0  0  0  0  0  0  0  0
   19.3775    1.7223    0.0000 H   0  0  0  0  0  0  0  0  0  0  0  0
   16.7219    0.3917    0.0000 H   0  0  0  0  0  0  0  0  0  0  0  0
   16.2267   -0.5568    0.0000 H   0  0  0  0  0  0  0  0  0  0  0  0
   18.6757   -0.9556    0.0000 H   0  0  0  0  0  0  0  0  0  0  0  0
   19.2495   -1.8588    0.0000 H   0  0  0  0  0  0  0  0  0  0  0  0
   16.8901   -4.1043    0.0000 H   0  0  0  0  0  0  0  0  0  0  0  0
   17.5278   -3.5415    0.0000 H   0  0  0  0  0  0  0  0  0  0  0  0
   14.3097   -1.1408    0.0000 H   0  0  0  0  0  0  0  0  0  0  0  0
   14.3883   -2.9924    0.0000 H   0  0  0  0  0  0  0  0  0  0  0  0
   13.8145   -2.0893    0.0000 H   0  0  0  0  0  0  0  0  0  0  0  0
   16.0809    0.2493    0.0000 H   0  0  0  0  0  0  0  0  0  0  0  0
   21.3365   -1.1409    0.0000 H   0  0  0  0  0  0  0  0  0  0  0  0
   21.5994   -0.0086    0.0000 H   0  0  0  0  0  0  0  0  0  0  0  0
   22.3612   -0.3549    0.0000 H   0  0  0  0  0  0  0  0  0  0  0  0
   20.5408   -0.4709    0.0000 H   0  0  0  0  0  0  0  0  0  0  0  0
    3.7810   -8.2381    0.0000 H   0  0  0  0  0  0  0  0  0  0  0  0
    3.7026   -6.3865    0.0000 H   0  0  0  0  0  0  0  0  0  0  0  0
    4.2763   -7.2896    0.0000 H   0  0  0  0  0  0  0  0  0  0  0  0
    0.5630   -5.8373    0.0000 H   0  0  0  0  0  0  0  0  0  0  0  0
   -0.0382   -8.8773    0.0000 H   0  0  0  0  0  0  0  0  0  0  0  0
   -0.9370   -8.2968    0.0000 H   0  0  0  0  0  0  0  0  0  0  0  0
    0.2674   -5.2706    0.0000 H   0  0  0  0  0  0  0  0  0  0  0  0
   -0.2740   -8.9126    0.0000 H   0  0  0  0  0  0  0  0  0  0  0  0
    0.2997   -9.8158    0.0000 H   0  0  0  0  0  0  0  0  0  0  0  0
    1.4294  -11.1982    0.0000 H   0  0  0  0  0  0  0  0  0  0  0  0
    0.3603  -11.2435    0.0000 H   0  0  0  0  0  0  0  0  0  0  0  0
   -0.4640  -11.2784    0.0000 H   0  0  0  0  0  0  0  0  0  0  0  0
   -1.0377  -10.3752    0.0000 H   0  0  0  0  0  0  0  0  0  0  0  0
    1.0398   -8.8570    0.0000 H   0  0  0  0  0  0  0  0  0  0  0  0
    0.4661   -7.9538    0.0000 H   0  0  0  0  0  0  0  0  0  0  0  0
    0.8465   -7.4349    0.0000 H   0  0  0  0  0  0  0  0  0  0  0  0
   -1.8092   -8.7653    0.0000 H   0  0  0  0  0  0  0  0  0  0  0  0
   -2.3044   -9.7139    0.0000 H   0  0  0  0  0  0  0  0  0  0  0  0
    0.1446  -10.1127    0.0000 H   0  0  0  0  0  0  0  0  0  0  0  0
    0.7184  -11.0159    0.0000 H   0  0  0  0  0  0  0  0  0  0  0  0
   -1.6410  -13.2613    0.0000 H   0  0  0  0  0  0  0  0  0  0  0  0
   -1.0033  -12.6986    0.0000 H   0  0  0  0  0  0  0  0  0  0  0  0
   -4.2213  -10.2978    0.0000 H   0  0  0  0  0  0  0  0  0  0  0  0
   -4.1429  -12.1494    0.0000 H   0  0  0  0  0  0  0  0  0  0  0  0
   -4.7166  -11.2463    0.0000 H   0  0  0  0  0  0  0  0  0  0  0  0
   -2.4502   -8.9078    0.0000 H   0  0  0  0  0  0  0  0  0  0  0  0
    2.8053  -10.2982    0.0000 H   0  0  0  0  0  0  0  0  0  0  0  0
    3.0683   -9.1659    0.0000 H   0  0  0  0  0  0  0  0  0  0  0  0
    3.8302   -9.5120    0.0000 H   0  0  0  0  0  0  0  0  0  0  0  0
    2.0099   -9.6281    0.0000 H   0  0  0  0  0  0  0  0  0  0  0  0
   13.0536   -8.2381    0.0000 H   0  0  0  0  0  0  0  0  0  0  0  0
   12.9752   -6.3865    0.0000 H   0  0  0  0  0  0  0  0  0  0  0  0
   13.5489   -7.2896    0.0000 H   0  0  0  0  0  0  0  0  0  0  0  0
    9.8354   -5.8374    0.0000 H   0  0  0  0  0  0  0  0  0  0  0  0
    9.2343   -8.8773    0.0000 H   0  0  0  0  0  0  0  0  0  0  0  0
    8.3354   -8.2967    0.0000 H   0  0  0  0  0  0  0  0  0  0  0  0
    9.5398   -5.2705    0.0000 H   0  0  0  0  0  0  0  0  0  0  0  0
    8.9986   -8.9126    0.0000 H   0  0  0  0  0  0  0  0  0  0  0  0
    9.5723   -9.8158    0.0000 H   0  0  0  0  0  0  0  0  0  0  0  0
   10.7018  -11.1982    0.0000 H   0  0  0  0  0  0  0  0  0  0  0  0
    9.6328  -11.2435    0.0000 H   0  0  0  0  0  0  0  0  0  0  0  0
    8.8086  -11.2784    0.0000 H   0  0  0  0  0  0  0  0  0  0  0  0
    8.2349  -10.3752    0.0000 H   0  0  0  0  0  0  0  0  0  0  0  0
   10.3123   -8.8570    0.0000 H   0  0  0  0  0  0  0  0  0  0  0  0
    9.7386   -7.9538    0.0000 H   0  0  0  0  0  0  0  0  0  0  0  0
   10.1190   -7.4349    0.0000 H   0  0  0  0  0  0  0  0  0  0  0  0
    7.4635   -8.7653    0.0000 H   0  0  0  0  0  0  0  0  0  0  0  0
    6.9682   -9.7138    0.0000 H   0  0  0  0  0  0  0  0  0  0  0  0
    9.4172  -10.1127    0.0000 H   0  0  0  0  0  0  0  0  0  0  0  0
    9.9910  -11.0159    0.0000 H   0  0  0  0  0  0  0  0  0  0  0  0
    7.6316  -13.2614    0.0000 H   0  0  0  0  0  0  0  0  0  0  0  0
    8.2693  -12.6986    0.0000 H   0  0  0  0  0  0  0  0  0  0  0  0
    5.0513  -10.2978    0.0000 H   0  0  0  0  0  0  0  0  0  0  0  0
    5.1297  -12.1495    0.0000 H   0  0  0  0  0  0  0  0  0  0  0  0
    4.5560  -11.2463    0.0000 H   0  0  0  0  0  0  0  0  0  0  0  0
    6.8224   -8.9078    0.0000 H   0  0  0  0  0  0  0  0  0  0  0  0
   12.0779  -10.2982    0.0000 H   0  0  0  0  0  0  0  0  0  0  0  0
   12.3409   -9.1659    0.0000 H   0  0  0  0  0  0  0  0  0  0  0  0
   13.1028   -9.5120    0.0000 H   0  0  0  0  0  0  0  0  0  0  0  0
   11.2824   -9.6281    0.0000 H   0  0  0  0  0  0  0  0  0  0  0  0
  6  7  1  0  0  0  0
  6216  1  0  0  0  0
  6217  1  0  0  0  0
  6218  1  0  0  0  0
  7  8  2  0  0  0  0
  7 46  1  0  0  0  0
  8  9  1  0  0  0  0
  9 10  2  0  0  0  0
  9219  1  0  0  0  0
 10 11  1  0  0  0  0
 10 17  1  0  0  0  0
 11 12  1  0  0  0  0
 11220  1  0  0  0  0
 11221  1  0  0  0  0
 12 13  1  0  0  0  0
 13 14  1  0  0  0  0
 13 15  1  0  0  0  0
 13 16  2  0  0  0  0
 14222  1  0  0  0  0
 17 18  1  0  0  0  0
 17 46  2  0  0  0  0
 18 19  1  0  0  0  0
 18223  1  0  0  0  0
 18224  1  0  0  0  0
 19 20  1  0  0  0  0
 19 42  1  0  0  0  0
 20 21  1  0  0  0  0
 20225  1  0  0  0  0
 20226  1  0  0  0  0
 21 22  1  0  0  0  0
 21227  1  0  0  0  0
 21228  1  0  0  0  0
 22 23  1  0  0  0  0
 22 27  1  0  0  0  0
 23 24  1  0  0  0  0
 23229  1  0  0  0  0
 23230  1  0  0  0  0
 24 25  1  0  0  0  0
 24 26  2  0  0  0  0
 25231  1  0  0  0  0
 27 28  1  0  0  0  0
 27232  1  0  0  0  0
 27233  1  0  0  0  0
 28 29  2  0  0  0  0
 28 40  1  0  0  0  0
 29 30  1  0  0  0  0
 29 36  1  0  0  0  0
 30 31  1  0  0  0  0
 30234  1  0  0  0  0
 30235  1  0  0  0  0
 31 32  1  0  0  0  0
 32 33  1  0  0  0  0
 32 34  1  0  0  0  0
 32 35  2  0  0  0  0
 33236  1  0  0  0  0
 36 37  2  0  0  0  0
 36237  1  0  0  0  0
 37 38  1  0  0  0  0
 38 39  1  0  0  0  0
 38 40  2  0  0  0  0
 39238  1  0  0  0  0
 39239  1  0  0  0  0
 39240  1  0  0  0  0
 40 41  1  0  0  0  0
 41241  1  0  0  0  0
 42 43  1  0  0  0  0
 42242  1  0  0  0  0
 42243  1  0  0  0  0
 43 44  1  0  0  0  0
 43 45  2  0  0  0  0
 44244  1  0  0  0  0
 46 47  1  0  0  0  0
 47245  1  0  0  0  0
 48 49  1  0  0  0  0
 48246  1  0  0  0  0
 48247  1  0  0  0  0
 48248  1  0  0  0  0
 49 50  2  0  0  0  0
 49 88  1  0  0  0  0
 50 51  1  0  0  0  0
 51 52  2  0  0  0  0
 51249  1  0  0  0  0
 52 53  1  0  0  0  0
 52 59  1  0  0  0  0
 53 54  1  0  0  0  0
 53250  1  0  0  0  0
 53251  1  0  0  0  0
 54 55  1  0  0  0  0
 55 56  1  0  0  0  0
 55 57  1  0  0  0  0
 55 58  2  0  0  0  0
 56252  1  0  0  0  0
 59 60  1  0  0  0  0
 59 88  2  0  0  0  0
 60 61  1  0  0  0  0
 60253  1  0  0  0  0
 60254  1  0  0  0  0
 61 62  1  0  0  0  0
 61 84  1  0  0  0  0
 62 63  1  0  0  0  0
 62255  1  0  0  0  0
 62256  1  0  0  0  0
 63 64  1  0  0  0  0
 63257  1  0  0  0  0
 63258  1  0  0  0  0
 64 65  1  0  0  0  0
 64 69  1  0  0  0  0
 65 66  1  0  0  0  0
 65259  1  0  0  0  0
 65260  1  0  0  0  0
 66 67  1  0  0  0  0
 66 68  2  0  0  0  0
 67261  1  0  0  0  0
 69 70  1  0  0  0  0
 69262  1  0  0  0  0
 69263  1  0  0  0  0
 70 71  2  0  0  0  0
 70 82  1  0  0  0  0
 71 72  1  0  0  0  0
 71 78  1  0  0  0  0
 72 73  1  0  0  0  0
 72264  1  0  0  0  0
 72265  1  0  0  0  0
 73 74  1  0  0  0  0
 74 75  1  0  0  0  0
 74 76  1  0  0  0  0
 74 77  2  0  0  0  0
 75266  1  0  0  0  0
 78 79  2  0  0  0  0
 78267  1  0  0  0  0
 79 80  1  0  0  0  0
 80 81  1  0  0  0  0
 80 82  2  0  0  0  0
 81268  1  0  0  0  0
 81269  1  0  0  0  0
 81270  1  0  0  0  0
 82 83  1  0  0  0  0
 83271  1  0  0  0  0
 84 85  1  0  0  0  0
 84272  1  0  0  0  0
 84273  1  0  0  0  0
 85 86  1  0  0  0  0
 85 87  2  0  0  0  0
 86274  1  0  0  0  0
 88 89  1  0  0  0  0
 89275  1  0  0  0  0
 90 91  1  0  0  0  0
 90276  1  0  0  0  0
 90277  1  0  0  0  0
 90278  1  0  0  0  0
 91 92  2  0  0  0  0
 91130  1  0  0  0  0
 92 93  1  0  0  0  0
 93 94  2  0  0  0  0
 93279  1  0  0  0  0
 94 95  1  0  0  0  0
 94101  1  0  0  0  0
 95 96  1  0  0  0  0
 95280  1  0  0  0  0
 95281  1  0  0  0  0
 96 97  1  0  0  0  0
 97 98  1  0  0  0  0
 97 99  1  0  0  0  0
 97100  2  0  0  0  0
 98282  1  0  0  0  0
101102  1  0  0  0  0
101130  2  0  0  0  0
102103  1  0  0  0  0
102283  1  0  0  0  0
102284  1  0  0  0  0
103104  1  0  0  0  0
103126  1  0  0  0  0
104105  1  0  0  0  0
104285  1  0  0  0  0
104286  1  0  0  0  0
105106  1  0  0  0  0
105287  1  0  0  0  0
105288  1  0  0  0  0
106107  1  0  0  0  0
106111  1  0  0  0  0
107108  1  0  0  0  0
107289  1  0  0  0  0
107290  1  0  0  0  0
108109  1  0  0  0  0
108110  2  0  0  0  0
109291  1  0  0  0  0
111112  1  0  0  0  0
111292  1  0  0  0  0
111293  1  0  0  0  0
112113  2  0  0  0  0
112124  1  0  0  0  0
113114  1  0  0  0  0
113120  1  0  0  0  0
114115  1  0  0  0  0
114294  1  0  0  0  0
114295  1  0  0  0  0
115116  1  0  0  0  0
116117  1  0  0  0  0
116118  1  0  0  0  0
116119  2  0  0  0  0
117296  1  0  0  0  0
120121  2  0  0  0  0
120297  1  0  0  0  0
121122  1  0  0  0  0
122123  1  0  0  0  0
122124  2  0  0  0  0
123298  1  0  0  0  0
123299  1  0  0  0  0
123300  1  0  0  0  0
124125  1  0  0  0  0
125301  1  0  0  0  0
126127  1  0  0  0  0
126302  1  0  0  0  0
126303  1  0  0  0  0
127128  1  0  0  0  0
127129  2  0  0  0  0
128304  1  0  0  0  0
130131  1  0  0  0  0
131305  1  0  0  0  0
132133  1  0  0  0  0
132306  1  0  0  0  0
132307  1  0  0  0  0
132308  1  0  0  0  0
133134  2  0  0  0  0
133172  1  0  0  0  0
134135  1  0  0  0  0
135136  2  0  0  0  0
135309  1  0  0  0  0
136137  1  0  0  0  0
136143  1  0  0  0  0
137138  1  0  0  0  0
137310  1  0  0  0  0
137311  1  0  0  0  0
138139  1  0  0  0  0
139140  1  0  0  0  0
139141  1  0  0  0  0
139142  2  0  0  0  0
140312  1  0  0  0  0
143144  1  0  0  0  0
143172  2  0  0  0  0
144145  1  0  0  0  0
144313  1  0  0  0  0
144314  1  0  0  0  0
145146  1  0  0  0  0
145168  1  0  0  0  0
146147  1  0  0  0  0
146315  1  0  0  0  0
146316  1  0  0  0  0
147148  1  0  0  0  0
147317  1  0  0  0  0
147318  1  0  0  0  0
148149  1  0  0  0  0
148153  1  0  0  0  0
149150  1  0  0  0  0
149319  1  0  0  0  0
149320  1  0  0  0  0
150151  1  0  0  0  0
150152  2  0  0  0  0
151321  1  0  0  0  0
153154  1  0  0  0  0
153322  1  0  0  0  0
153323  1  0  0  0  0
154155  2  0  0  0  0
154166  1  0  0  0  0
155156  1  0  0  0  0
155162  1  0  0  0  0
156157  1  0  0  0  0
156324  1  0  0  0  0
156325  1  0  0  0  0
157158  1  0  0  0  0
158159  1  0  0  0  0
158160  1  0  0  0  0
158161  2  0  0  0  0
159326  1  0  0  0  0
162163  2  0  0  0  0
162327  1  0  0  0  0
163164  1  0  0  0  0
164165  1  0  0  0  0
164166  2  0  0  0  0
165328  1  0  0  0  0
165329  1  0  0  0  0
165330  1  0  0  0  0
166167  1  0  0  0  0
167331  1  0  0  0  0
168169  1  0  0  0  0
168332  1  0  0  0  0
168333  1  0  0  0  0
169170  1  0  0  0  0
169171  2  0  0  0  0
170334  1  0  0  0  0
172173  1  0  0  0  0
173335  1  0  0  0  0
174175  1  0  0  0  0
174336  1  0  0  0  0
174337  1  0  0  0  0
174338  1  0  0  0  0
175176  2  0  0  0  0
175214  1  0  0  0  0
176177  1  0  0  0  0
177178  2  0  0  0  0
177339  1  0  0  0  0
178179  1  0  0  0  0
178185  1  0  0  0  0
179180  1  0  0  0  0
179340  1  0  0  0  0
179341  1  0  0  0  0
180181  1  0  0  0  0
181182  1  0  0  0  0
181183  1  0  0  0  0
181184  2  0  0  0  0
182342  1  0  0  0  0
185186  1  0  0  0  0
185214  2  0  0  0  0
186187  1  0  0  0  0
186343  1  0  0  0  0
186344  1  0  0  0  0
187188  1  0  0  0  0
187210  1  0  0  0  0
188189  1  0  0  0  0
188345  1  0  0  0  0
188346  1  0  0  0  0
189190  1  0  0  0  0
189347  1  0  0  0  0
189348  1  0  0  0  0
190191  1  0  0  0  0
190195  1  0  0  0  0
191192  1  0  0  0  0
191349  1  0  0  0  0
191350  1  0  0  0  0
192193  1  0  0  0  0
192194  2  0  0  0  0
193351  1  0  0  0  0
195196  1  0  0  0  0
195352  1  0  0  0  0
195353  1  0  0  0  0
196197  2  0  0  0  0
196208  1  0  0  0  0
197198  1  0  0  0  0
197204  1  0  0  0  0
198199  1  0  0  0  0
198354  1  0  0  0  0
198355  1  0  0  0  0
199200  1  0  0  0  0
200201  1  0  0  0  0
200202  1  0  0  0  0
200203  2  0  0  0  0
201356  1  0  0  0  0
204205  2  0  0  0  0
204357  1  0  0  0  0
205206  1  0  0  0  0
206207  1  0  0  0  0
206208  2  0  0  0  0
207358  1  0  0  0  0
207359  1  0  0  0  0
207360  1  0  0  0  0
208209  1  0  0  0  0
209361  1  0  0  0  0
210211  1  0  0  0  0
210362  1  0  0  0  0
210363  1  0  0  0  0
211212  1  0  0  0  0
211213  2  0  0  0  0
212364  1  0  0  0  0
214215  1  0  0  0  0
215365  1  0  0  0  0
M  CHG  8   1   2   2   2   3   2   4   2   5   2  15  -1  34  -1  57  -1
M  CHG  7  76  -1  99  -1 118  -1 141  -1 160  -1 183  -1 202  -1
M  END
>  <DRUGBANK_ID>
DB18398

>  <COMMON_NAME>
Calmangafodipir

>  <CAS_NUMBER>
1401243-67-1

>  <UNII>
N0JZU0WGU5

>  <SYNONYMS>
Calcium,n,n'-1,2-ethanediylbis(n-((3-hydroxy-2-methyl-5-((phosphonooxy)methyl)-4-pyridinyl)methyl)glycine) manganese complexes trisodium trihydrogen manganate; Calmangafodipir (ca4mn(dpdp)5); Pledox; Tetracalcium monomanganese penta(dipyridoxyl diphosphate)

$$$$
