
 OpenBabel10282417072D

 65 68  0  0  0  0  0  0  0  0999 V2000
    0.7441    2.3941    0.0000 C   0  0  0  0  0  0  0  0  0  0  0  0
    5.0309   -5.0309    0.0000 C   0  0  0  0  0  0  0  0  0  0  0  0
    2.8875   -4.1763    0.0000 C   0  0  0  0  0  0  0  0  0  0  0  0
    2.8875    1.5395    0.0000 C   0  0  0  0  0  0  0  0  0  0  0  0
    0.7441    1.5691    0.0000 C   0  0  0  0  0  0  0  0  0  0  0  0
    5.0309   -4.2059    0.0000 C   0  0  0  0  0  0  0  0  0  0  0  0
    2.4750   -3.4618    0.0000 C   0  0  0  0  0  0  0  0  0  0  0  0
    3.3000    0.8250    0.0000 C   0  0  0  0  0  0  0  0  0  0  0  0
    1.4586    2.8066    0.0000 C   0  0  0  0  0  0  0  0  0  0  0  0
    4.3164   -5.4434    0.0000 C   0  0  0  0  0  0  0  0  0  0  0  0
    2.4750   -4.8908    0.0000 C   0  0  0  0  0  0  0  0  0  0  0  0
    3.3000    2.2539    0.0000 C   0  0  0  0  0  0  0  0  0  0  0  0
    2.1730    1.5691    0.0000 C   0  0  0  0  0  0  0  0  0  0  0  0
    3.6020   -4.2059    0.0000 C   0  0  0  0  0  0  0  0  0  0  0  0
    1.2375   -4.1763    0.0000 C   0  0  0  0  0  0  0  0  0  0  0  0
    4.5375    1.5395    0.0000 C   0  0  0  0  0  0  0  0  0  0  0  0
    2.1730   -0.9059    0.0000 C   0  0  0  0  0  0  0  0  0  0  0  0
    3.6020   -1.7309    0.0000 C   0  0  0  0  0  0  0  0  0  0  0  0
    2.4750   -2.0329    0.0000 C   0  0  0  0  0  0  0  0  0  0  0  0
    3.3000   -0.6039    0.0000 C   0  0  0  0  0  0  0  0  0  0  0  0
    1.4586    1.1566    0.0000 C   0  0  0  0  0  0  0  0  0  0  0  0
    4.3164   -3.7934    0.0000 C   0  0  0  0  0  0  0  0  0  0  0  0
    1.6500   -3.4618    0.0000 C   0  0  0  0  0  0  0  0  0  0  0  0
    4.1250    0.8250    0.0000 C   0  0  0  0  0  0  0  0  0  0  0  0
    1.4586    0.3316    0.0000 C   0  0  0  0  0  0  0  0  0  0  0  0
    4.3164   -2.9684    0.0000 C   0  0  0  0  0  0  0  0  0  0  0  0
    1.2375   -2.7474    0.0000 C   0  0  0  0  0  0  0  0  0  0  0  0
    4.5375    0.1105    0.0000 C   0  0  0  0  0  0  0  0  0  0  0  0
    2.8875   -1.3184    0.0000 C   0  0  0  0  0  0  0  0  0  0  0  0
    2.1730    2.3941    0.0000 N   0  0  0  0  0  0  0  0  0  0  0  0
    3.6020   -5.0309    0.0000 N   0  0  0  0  0  0  0  0  0  0  0  0
    1.6500   -4.8908    0.0000 N   0  0  0  0  0  0  0  0  0  0  0  0
    4.1250    2.2539    0.0000 N   0  0  0  0  0  0  0  0  0  0  0  0
    0.7441   -0.0809    0.0000 O   0  0  0  0  0  0  0  0  0  0  0  0
    5.0309   -2.5559    0.0000 O   0  0  0  0  0  0  0  0  0  0  0  0
    0.4125   -2.7474    0.0000 O   0  0  0  0  0  0  0  0  0  0  0  0
    5.3625    0.1105    0.0000 O   0  0  0  0  0  0  0  0  0  0  0  0
    2.1730   -0.0809    0.0000 O   0  0  0  0  0  0  0  0  0  0  0  0
    3.6020   -2.5559    0.0000 O   0  0  0  0  0  0  0  0  0  0  0  0
    1.6500   -2.0329    0.0000 O   0  0  0  0  0  0  0  0  0  0  0  0
    4.1250   -0.6039    0.0000 O   0  0  0  0  0  0  0  0  0  0  0  0
   -0.1496    2.9101    0.0000 H   0  0  0  0  0  0  0  0  0  0  0  0
    5.9246   -5.5469    0.0000 H   0  0  0  0  0  0  0  0  0  0  0  0
    3.9195   -4.1763    0.0000 H   0  0  0  0  0  0  0  0  0  0  0  0
    1.8555    1.5395    0.0000 H   0  0  0  0  0  0  0  0  0  0  0  0
   -0.1496    1.0531    0.0000 H   0  0  0  0  0  0  0  0  0  0  0  0
    5.9246   -3.6899    0.0000 H   0  0  0  0  0  0  0  0  0  0  0  0
    2.9910   -2.5681    0.0000 H   0  0  0  0  0  0  0  0  0  0  0  0
    2.7840   -0.0687    0.0000 H   0  0  0  0  0  0  0  0  0  0  0  0
    1.4586    3.8386    0.0000 H   0  0  0  0  0  0  0  0  0  0  0  0
    4.3164   -6.4754    0.0000 H   0  0  0  0  0  0  0  0  0  0  0  0
    2.9910   -5.7845    0.0000 H   0  0  0  0  0  0  0  0  0  0  0  0
    2.7840    3.1476    0.0000 H   0  0  0  0  0  0  0  0  0  0  0  0
    3.0667    1.0531    0.0000 H   0  0  0  0  0  0  0  0  0  0  0  0
    2.7083   -3.6899    0.0000 H   0  0  0  0  0  0  0  0  0  0  0  0
    0.2055   -4.1763    0.0000 H   0  0  0  0  0  0  0  0  0  0  0  0
    5.5695    1.5395    0.0000 H   0  0  0  0  0  0  0  0  0  0  0  0
    1.2464   -1.4409    0.0000 H   0  0  0  0  0  0  0  0  0  0  0  0
    1.2464   -0.3709    0.0000 H   0  0  0  0  0  0  0  0  0  0  0  0
    4.5286   -1.1959    0.0000 H   0  0  0  0  0  0  0  0  0  0  0  0
    4.5286   -2.2659    0.0000 H   0  0  0  0  0  0  0  0  0  0  0  0
    3.0100   -2.9595    0.0000 H   0  0  0  0  0  0  0  0  0  0  0  0
    1.9400   -2.9595    0.0000 H   0  0  0  0  0  0  0  0  0  0  0  0
    2.7650    0.3227    0.0000 H   0  0  0  0  0  0  0  0  0  0  0  0
    3.8350    0.3227    0.0000 H   0  0  0  0  0  0  0  0  0  0  0  0
  1 42  1  0  0  0  0
  2 43  1  0  0  0  0
  3 44  1  0  0  0  0
  4 45  1  0  0  0  0
  5  1  2  0  0  0  0
  5 46  1  0  0  0  0
  6  2  2  0  0  0  0
  6 47  1  0  0  0  0
  7  3  2  0  0  0  0
  7 48  1  0  0  0  0
  8  4  2  0  0  0  0
  8 49  1  0  0  0  0
  9  1  1  0  0  0  0
  9 50  1  0  0  0  0
 10  2  1  0  0  0  0
 10 51  1  0  0  0  0
 11  3  1  0  0  0  0
 11 52  1  0  0  0  0
 12  4  1  0  0  0  0
 12 53  1  0  0  0  0
 13 54  1  0  0  0  0
 14 55  1  0  0  0  0
 15 56  1  0  0  0  0
 16 57  1  0  0  0  0
 17 58  1  0  0  0  0
 17 59  1  0  0  0  0
 18 60  1  0  0  0  0
 18 61  1  0  0  0  0
 19 62  1  0  0  0  0
 19 63  1  0  0  0  0
 20 64  1  0  0  0  0
 20 65  1  0  0  0  0
 21  5  1  0  0  0  0
 21 13  2  0  0  0  0
 22  6  1  0  0  0  0
 22 14  2  0  0  0  0
 23  7  1  0  0  0  0
 23 15  2  0  0  0  0
 24  8  1  0  0  0  0
 24 16  2  0  0  0  0
 25 21  1  0  0  0  0
 26 22  1  0  0  0  0
 27 23  1  0  0  0  0
 28 24  1  0  0  0  0
 29 17  1  0  0  0  0
 29 18  1  0  0  0  0
 29 19  1  0  0  0  0
 29 20  1  0  0  0  0
 30  9  2  0  0  0  0
 30 13  1  0  0  0  0
 31 10  2  0  0  0  0
 31 14  1  0  0  0  0
 32 11  2  0  0  0  0
 32 15  1  0  0  0  0
 33 12  2  0  0  0  0
 33 16  1  0  0  0  0
 34 25  2  0  0  0  0
 35 26  2  0  0  0  0
 36 27  2  0  0  0  0
 37 28  2  0  0  0  0
 38 17  1  0  0  0  0
 38 25  1  0  0  0  0
 39 18  1  0  0  0  0
 39 26  1  0  0  0  0
 40 19  1  0  0  0  0
 40 27  1  0  0  0  0
 41 20  1  0  0  0  0
 41 28  1  0  0  0  0
M  END
>  <DRUGBANK_ID>
DB13441

>  <COMMON_NAME>
Niceritrol

>  <CAS_NUMBER>
5868-05-3

>  <UNII>
F54EHJ34MV

>  <SYNONYMS>
Niceritrol

$$$$
