
 OpenBabel10282417072D

 48 49  0  0  1  0  0  0  0  0999 V2000
    2.8579    0.0000    0.0000 N   0  0  0  0  0  0  0  0  0  0  0  0
    2.1434   -0.4125    0.0000 C   0  0  0  0  0  0  0  0  0  0  0  0
    2.1434   -1.2375    0.0000 C   0  0  1  0  0  0  0  0  0  0  0  0
    1.4289   -1.6500    0.0000 O   0  0  0  0  0  0  0  0  0  0  0  0
    1.4289   -2.4750    0.0000 C   0  0  2  0  0  0  0  0  0  0  0  0
    0.7145   -2.8875    0.0000 O   0  0  0  0  0  0  0  0  0  0  0  0
    0.0000   -2.4750    0.0000 C   0  0  2  0  0  0  0  0  0  0  0  0
   -0.7145   -2.8875    0.0000 C   0  0  1  0  0  0  0  0  0  0  0  0
   -0.7145   -3.7125    0.0000 N   0  0  0  0  0  0  0  0  0  0  0  0
   -1.4289   -2.4750    0.0000 C   0  0  0  0  0  0  0  0  0  0  0  0
   -1.4289   -1.6500    0.0000 C   0  0  1  0  0  0  0  0  0  0  0  0
   -2.1434   -1.2375    0.0000 N   0  0  0  0  0  0  0  0  0  0  0  0
   -0.7145   -1.2375    0.0000 C   0  0  2  0  0  0  0  0  0  0  0  0
   -0.7145   -0.4125    0.0000 O   0  0  0  0  0  0  0  0  0  0  0  0
    0.0000   -1.6500    0.0000 C   0  0  1  0  0  0  0  0  0  0  0  0
    0.7145   -1.2375    0.0000 O   0  0  0  0  0  0  0  0  0  0  0  0
    2.1434   -2.8875    0.0000 C   0  0  2  0  0  0  0  0  0  0  0  0
    2.1434   -3.7125    0.0000 N   0  0  0  0  0  0  0  0  0  0  0  0
    2.8579   -2.4750    0.0000 C   0  0  1  0  0  0  0  0  0  0  0  0
    3.5724   -2.8875    0.0000 O   0  0  0  0  0  0  0  0  0  0  0  0
    2.8579   -1.6500    0.0000 C   0  0  2  0  0  0  0  0  0  0  0  0
    3.5724   -1.2375    0.0000 O   0  0  0  0  0  0  0  0  0  0  0  0
    3.7412   -0.5100    0.0000 H   0  0  0  0  0  0  0  0  0  0  0  0
    2.8579    1.0200    0.0000 H   0  0  0  0  0  0  0  0  0  0  0  0
    1.2168    0.1225    0.0000 H   0  0  0  0  0  0  0  0  0  0  0  0
    1.2168   -0.9475    0.0000 H   0  0  0  0  0  0  0  0  0  0  0  0
    1.2168   -0.7025    0.0000 H   0  0  0  0  0  0  0  0  0  0  0  0
    0.5022   -1.9400    0.0000 H   0  0  0  0  0  0  0  0  0  0  0  0
    0.0000   -3.5450    0.0000 H   0  0  0  0  0  0  0  0  0  0  0  0
    0.2121   -3.4225    0.0000 H   0  0  0  0  0  0  0  0  0  0  0  0
   -1.5978   -4.2225    0.0000 H   0  0  0  0  0  0  0  0  0  0  0  0
    0.1688   -4.2225    0.0000 H   0  0  0  0  0  0  0  0  0  0  0  0
   -2.3556   -3.0100    0.0000 H   0  0  0  0  0  0  0  0  0  0  0  0
   -2.3555   -1.9400    0.0000 H   0  0  0  0  0  0  0  0  0  0  0  0
   -2.3555   -2.1850    0.0000 H   0  0  0  0  0  0  0  0  0  0  0  0
   -2.1434   -0.2175    0.0000 H   0  0  0  0  0  0  0  0  0  0  0  0
   -3.0267   -1.7475    0.0000 H   0  0  0  0  0  0  0  0  0  0  0  0
   -1.6412   -0.7025    0.0000 H   0  0  0  0  0  0  0  0  0  0  0  0
    0.1255    0.0725    0.0000 H   0  0  0  0  0  0  0  0  0  0  0  0
    0.0000   -0.5800    0.0000 H   0  0  0  0  0  0  0  0  0  0  0  0
    1.5545   -1.7225    0.0000 H   0  0  0  0  0  0  0  0  0  0  0  0
    1.2168   -3.4225    0.0000 H   0  0  0  0  0  0  0  0  0  0  0  0
    1.2601   -4.2225    0.0000 H   0  0  0  0  0  0  0  0  0  0  0  0
    3.0267   -4.2225    0.0000 H   0  0  0  0  0  0  0  0  0  0  0  0
    2.8579   -3.5450    0.0000 H   0  0  0  0  0  0  0  0  0  0  0  0
    3.5724   -3.8575    0.0000 H   0  0  0  0  0  0  0  0  0  0  0  0
    3.7845   -2.1850    0.0000 H   0  0  0  0  0  0  0  0  0  0  0  0
    4.4124   -1.7225    0.0000 H   0  0  0  0  0  0  0  0  0  0  0  0
  1  2  1  0  0  0  0
  1 23  1  0  0  0  0
  1 24  1  0  0  0  0
  2 25  1  0  0  0  0
  2 26  1  0  0  0  0
  3  2  1  0  0  0  0
  3  4  1  0  0  0  0
  3 21  1  0  0  0  0
  3 27  1  1  0  0  0
  4  5  1  0  0  0  0
  5  6  1  0  0  0  0
  5 17  1  0  0  0  0
  5 28  1  6  0  0  0
  7  6  1  0  0  0  0
  7  8  1  0  0  0  0
  7 15  1  0  0  0  0
  7 29  1  1  0  0  0
  8  9  1  0  0  0  0
  8 10  1  0  0  0  0
  8 30  1  6  0  0  0
  9 31  1  0  0  0  0
  9 32  1  0  0  0  0
 10 11  1  0  0  0  0
 10 33  1  0  0  0  0
 10 34  1  0  0  0  0
 11 12  1  0  0  0  0
 11 13  1  0  0  0  0
 11 35  1  6  0  0  0
 12 36  1  0  0  0  0
 12 37  1  0  0  0  0
 13 14  1  0  0  0  0
 13 15  1  0  0  0  0
 13 38  1  1  0  0  0
 14 39  1  0  0  0  0
 15 16  1  0  0  0  0
 15 40  1  6  0  0  0
 16 41  1  0  0  0  0
 17 18  1  0  0  0  0
 17 19  1  0  0  0  0
 17 42  1  6  0  0  0
 18 43  1  0  0  0  0
 18 44  1  0  0  0  0
 19 20  1  0  0  0  0
 19 21  1  0  0  0  0
 19 45  1  1  0  0  0
 20 46  1  0  0  0  0
 21 22  1  0  0  0  0
 21 47  1  6  0  0  0
 22 48  1  0  0  0  0
M  END
>  <DRUGBANK_ID>
DB04808

>  <COMMON_NAME>
Neamine

>  <CAS_NUMBER>
3947-65-7

>  <UNII>
5981U00LY0

>  <SYNONYMS>
2-desoxy-4-O-(2,6-diamino-2,6-didesoxy-α-D-glucopyranosyl)-D-streptamin; 4-O-(2,6-diamino-2,6-dideoxy-α-D-glucopyranosyl)-2-deoxy-D-streptamine; Dekamycin V; Nebramycin X; Negamicin; Neomycin A

$$$$
