25295
 OpenBabel10282417072D

 40 41  0  0  1  0  0  0  0  0999 V2000
    2.3645   -3.0938    0.0000 Cl  0  0  0  0  0  0  0  0  0  0  0  0
    3.0790    0.6188    0.0000 N   0  0  0  0  0  0  0  0  0  0  0  0
    5.2224    0.2063    0.0000 N   0  0  0  0  0  0  0  0  0  0  0  0
    2.3645    1.8563    0.0000 N   0  0  0  0  0  0  0  0  0  0  0  0
    3.7935    0.2063    0.0000 C   0  0  0  0  0  0  0  0  0  0  0  0
    4.5080    0.6188    0.0000 C   0  0  0  0  0  0  0  0  0  0  0  0
    2.3645    0.2063    0.0000 C   0  0  0  0  0  0  0  0  0  0  0  0
    3.0790    1.4438    0.0000 C   0  0  0  0  0  0  0  0  0  0  0  0
    2.3645   -0.6188    0.0000 C   0  0  0  0  0  0  0  0  0  0  0  0
    5.9370    0.6188    0.0000 C   0  0  0  0  0  0  0  0  0  0  0  0
    5.2224   -0.6188    0.0000 C   0  0  0  0  0  0  0  0  0  0  0  0
    3.0790   -1.0313    0.0000 C   0  0  0  0  0  0  0  0  0  0  0  0
    1.6500   -1.0313    0.0000 C   0  0  0  0  0  0  0  0  0  0  0  0
    3.7935    1.8563    0.0000 C   0  0  0  0  0  0  0  0  0  0  0  0
    3.0790   -1.8563    0.0000 C   0  0  0  0  0  0  0  0  0  0  0  0
    1.6500   -1.8563    0.0000 C   0  0  0  0  0  0  0  0  0  0  0  0
    3.7935    2.6813    0.0000 C   0  0  0  0  0  0  0  0  0  0  0  0
    2.3645   -2.2688    0.0000 C   0  0  0  0  0  0  0  0  0  0  0  0
    2.3645    2.6813    0.0000 C   0  0  0  0  0  0  0  0  0  0  0  0
    3.0790    3.0938    0.0000 C   0  0  0  0  0  0  0  0  0  0  0  0
    3.7935   -0.8637    0.0000 H   0  0  0  0  0  0  0  0  0  0  0  0
    4.7201   -0.3287    0.0000 H   0  0  0  0  0  0  0  0  0  0  0  0
    4.5080    1.6888    0.0000 H   0  0  0  0  0  0  0  0  0  0  0  0
    3.5814    1.1538    0.0000 H   0  0  0  0  0  0  0  0  0  0  0  0
    1.4379    0.7413    0.0000 H   0  0  0  0  0  0  0  0  0  0  0  0
    1.4379   -0.3287    0.0000 H   0  0  0  0  0  0  0  0  0  0  0  0
    6.8636    0.0837    0.0000 H   0  0  0  0  0  0  0  0  0  0  0  0
    5.9371    1.6888    0.0000 H   0  0  0  0  0  0  0  0  0  0  0  0
    6.8637    1.1537    0.0000 H   0  0  0  0  0  0  0  0  0  0  0  0
    4.2958   -1.1538    0.0000 H   0  0  0  0  0  0  0  0  0  0  0  0
    6.1490   -1.1538    0.0000 H   0  0  0  0  0  0  0  0  0  0  0  0
    5.2224   -1.6888    0.0000 H   0  0  0  0  0  0  0  0  0  0  0  0
    3.9727   -0.5153    0.0000 H   0  0  0  0  0  0  0  0  0  0  0  0
    0.7563   -0.5153    0.0000 H   0  0  0  0  0  0  0  0  0  0  0  0
    4.6872    1.3403    0.0000 H   0  0  0  0  0  0  0  0  0  0  0  0
    3.9727   -2.3723    0.0000 H   0  0  0  0  0  0  0  0  0  0  0  0
    0.7563   -2.3723    0.0000 H   0  0  0  0  0  0  0  0  0  0  0  0
    4.6872    3.1973    0.0000 H   0  0  0  0  0  0  0  0  0  0  0  0
    1.4708    3.1973    0.0000 H   0  0  0  0  0  0  0  0  0  0  0  0
    3.0790    4.1258    0.0000 H   0  0  0  0  0  0  0  0  0  0  0  0
  1 18  1  0  0  0  0
  2  5  1  0  0  0  0
  2  7  1  0  0  0  0
  2  8  1  0  0  0  0
  3  6  1  0  0  0  0
  3 10  1  0  0  0  0
  3 11  1  0  0  0  0
  4  8  1  0  0  0  0
  4 19  2  0  0  0  0
  5  6  1  0  0  0  0
  5 21  1  0  0  0  0
  5 22  1  0  0  0  0
  6 23  1  0  0  0  0
  6 24  1  0  0  0  0
  7  9  1  0  0  0  0
  7 25  1  0  0  0  0
  7 26  1  0  0  0  0
  8 14  2  0  0  0  0
  9 12  2  0  0  0  0
  9 13  1  0  0  0  0
 10 27  1  0  0  0  0
 10 28  1  0  0  0  0
 10 29  1  0  0  0  0
 11 30  1  0  0  0  0
 11 31  1  0  0  0  0
 11 32  1  0  0  0  0
 12 15  1  0  0  0  0
 12 33  1  0  0  0  0
 13 16  2  0  0  0  0
 13 34  1  0  0  0  0
 14 17  1  0  0  0  0
 14 35  1  0  0  0  0
 15 18  2  0  0  0  0
 15 36  1  0  0  0  0
 16 18  1  0  0  0  0
 16 37  1  0  0  0  0
 17 20  2  0  0  0  0
 17 38  1  0  0  0  0
 19 20  1  0  0  0  0
 19 39  1  0  0  0  0
 20 40  1  0  0  0  0
M  END
>  <DRUGBANK_ID>
DB08800

>  <SECONDARY_ACCESSION_NUMBERS>
DB07523

>  <COMMON_NAME>
Chloropyramine

>  <CAS_NUMBER>
59-32-5

>  <UNII>
2K3L8O9SOV

>  <SYNONYMS>
Chloropyramine; Chloropyraminum; Chlorpyramine; Cloropiramina; Halopyramine

$$$$
