
 OpenBabel10282417072D

 54 56  0  0  0  0  0  0  0  0999 V2000
   -3.7314    0.2537    0.0000 C   0  0  0  0  0  0  0  0  0  0  0  0
   -4.4460   -0.1587    0.0000 C   0  0  0  0  0  0  0  0  0  0  0  0
   -4.4460   -0.9837    0.0000 C   0  0  0  0  0  0  0  0  0  0  0  0
   -3.7314   -1.3962    0.0000 C   0  0  0  0  0  0  0  0  0  0  0  0
   -3.0169   -0.9837    0.0000 C   0  0  0  0  0  0  0  0  0  0  0  0
   -3.0169   -0.1587    0.0000 C   0  0  0  0  0  0  0  0  0  0  0  0
   -3.7314   -2.2212    0.0000 Cl  0  0  0  0  0  0  0  0  0  0  0  0
   -2.3025    0.2537    0.0000 N   0  0  0  0  0  0  0  0  0  0  0  0
   -1.5879   -0.1587    0.0000 C   0  0  0  0  0  0  0  0  0  0  0  0
   -0.8735    0.2537    0.0000 C   0  0  0  0  0  0  0  0  0  0  0  0
   -0.8735    1.0787    0.0000 N   0  0  0  0  0  0  0  0  0  0  0  0
   -1.5879    1.4912    0.0000 C   0  0  0  0  0  0  0  0  0  0  0  0
   -2.3025    1.0787    0.0000 C   0  0  0  0  0  0  0  0  0  0  0  0
   -0.1590    1.4912    0.0000 C   0  0  0  0  0  0  0  0  0  0  0  0
    0.5554    1.0787    0.0000 C   0  0  0  0  0  0  0  0  0  0  0  0
    1.2698    1.4912    0.0000 C   0  0  0  0  0  0  0  0  0  0  0  0
    1.9843    1.0787    0.0000 N   0  0  0  0  0  0  0  0  0  0  0  0
    2.0706    0.2582    0.0000 N   0  0  0  0  0  0  0  0  0  0  0  0
    2.8775    0.0867    0.0000 C   0  0  0  0  0  0  0  0  0  0  0  0
    3.2900    0.8012    0.0000 N   0  0  0  0  0  0  0  0  0  0  0  0
    2.7380    1.4142    0.0000 C   0  0  0  0  0  0  0  0  0  0  0  0
    2.9095    2.2212    0.0000 O   0  0  0  0  0  0  0  0  0  0  0  0
    4.1105    0.8874    0.0000 C   0  0  0  0  0  0  0  0  0  0  0  0
    4.4460    1.6411    0.0000 C   0  0  0  0  0  0  0  0  0  0  0  0
    3.2131   -0.6669    0.0000 C   0  0  0  0  0  0  0  0  0  0  0  0
    4.0335   -0.7531    0.0000 C   0  0  0  0  0  0  0  0  0  0  0  0
   -3.7314    1.2857    0.0000 H   0  0  0  0  0  0  0  0  0  0  0  0
   -5.3397    0.3574    0.0000 H   0  0  0  0  0  0  0  0  0  0  0  0
   -5.3397   -1.4997    0.0000 H   0  0  0  0  0  0  0  0  0  0  0  0
   -2.1232   -1.4997    0.0000 H   0  0  0  0  0  0  0  0  0  0  0  0
   -1.5878   -1.2287    0.0000 H   0  0  0  0  0  0  0  0  0  0  0  0
   -0.6613   -0.6937    0.0000 H   0  0  0  0  0  0  0  0  0  0  0  0
    0.0531   -0.2813    0.0000 H   0  0  0  0  0  0  0  0  0  0  0  0
    0.0532    0.7887    0.0000 H   0  0  0  0  0  0  0  0  0  0  0  0
   -1.5878    2.5612    0.0000 H   0  0  0  0  0  0  0  0  0  0  0  0
   -2.5145    2.0263    0.0000 H   0  0  0  0  0  0  0  0  0  0  0  0
   -3.2291    1.6137    0.0000 H   0  0  0  0  0  0  0  0  0  0  0  0
   -2.3024    2.1487    0.0000 H   0  0  0  0  0  0  0  0  0  0  0  0
   -0.1590    2.5612    0.0000 H   0  0  0  0  0  0  0  0  0  0  0  0
    0.7677    2.0262    0.0000 H   0  0  0  0  0  0  0  0  0  0  0  0
    0.5554    0.0087    0.0000 H   0  0  0  0  0  0  0  0  0  0  0  0
    1.4821    0.5437    0.0000 H   0  0  0  0  0  0  0  0  0  0  0  0
    1.2698    2.5612    0.0000 H   0  0  0  0  0  0  0  0  0  0  0  0
    2.1964    2.0262    0.0000 H   0  0  0  0  0  0  0  0  0  0  0  0
    4.7394    0.0218    0.0000 H   0  0  0  0  0  0  0  0  0  0  0  0
    5.1746    0.9993    0.0000 H   0  0  0  0  0  0  0  0  0  0  0  0
    5.5101    1.7530    0.0000 H   0  0  0  0  0  0  0  0  0  0  0  0
    3.8170    2.5067    0.0000 H   0  0  0  0  0  0  0  0  0  0  0  0
    4.8811    2.6186    0.0000 H   0  0  0  0  0  0  0  0  0  0  0  0
    2.5842   -1.5326    0.0000 H   0  0  0  0  0  0  0  0  0  0  0  0
    3.6484   -1.6444    0.0000 H   0  0  0  0  0  0  0  0  0  0  0  0
    4.4687   -1.7306    0.0000 H   0  0  0  0  0  0  0  0  0  0  0  0
    4.6624    0.1126    0.0000 H   0  0  0  0  0  0  0  0  0  0  0  0
    5.0976   -0.8649    0.0000 H   0  0  0  0  0  0  0  0  0  0  0  0
  1  2  1  0  0  0  0
  1  6  2  0  0  0  0
  1 27  1  0  0  0  0
  2  3  2  0  0  0  0
  2 28  1  0  0  0  0
  3  4  1  0  0  0  0
  3 29  1  0  0  0  0
  4  5  2  0  0  0  0
  4  7  1  0  0  0  0
  5  6  1  0  0  0  0
  5 30  1  0  0  0  0
  6  8  1  0  0  0  0
  8  9  1  0  0  0  0
  9 10  1  0  0  0  0
  9 31  1  0  0  0  0
  9 32  1  0  0  0  0
 10 11  1  0  0  0  0
 10 33  1  0  0  0  0
 10 34  1  0  0  0  0
 11 12  1  0  0  0  0
 11 14  1  0  0  0  0
 12 13  1  0  0  0  0
 12 35  1  0  0  0  0
 12 36  1  0  0  0  0
 13  8  1  0  0  0  0
 13 37  1  0  0  0  0
 13 38  1  0  0  0  0
 14 15  1  0  0  0  0
 14 39  1  0  0  0  0
 14 40  1  0  0  0  0
 15 16  1  0  0  0  0
 15 41  1  0  0  0  0
 15 42  1  0  0  0  0
 16 17  1  0  0  0  0
 16 43  1  0  0  0  0
 16 44  1  0  0  0  0
 17 18  1  0  0  0  0
 17 21  1  0  0  0  0
 18 19  2  0  0  0  0
 19 20  1  0  0  0  0
 19 25  1  0  0  0  0
 20 21  1  0  0  0  0
 20 23  1  0  0  0  0
 21 22  2  0  0  0  0
 23 24  1  0  0  0  0
 23 45  1  0  0  0  0
 23 46  1  0  0  0  0
 24 47  1  0  0  0  0
 24 48  1  0  0  0  0
 24 49  1  0  0  0  0
 25 26  1  0  0  0  0
 25 50  1  0  0  0  0
 25 51  1  0  0  0  0
 26 52  1  0  0  0  0
 26 53  1  0  0  0  0
 26 54  1  0  0  0  0
M  END
>  <DRUGBANK_ID>
DB09194

>  <COMMON_NAME>
Etoperidone

>  <CAS_NUMBER>
52942-31-1

>  <UNII>
KAI6MVO39Z

>  <SYNONYMS>
Etoperidone

$$$$
