
 OpenBabel10282417072D

 29 30  0  0  0  0  0  0  0  0999 V2000
   -0.7145   -2.8875    0.0000 C   0  0  0  0  0  0  0  0  0  0  0  0
    0.0000   -2.4750    0.0000 N   0  0  0  0  0  0  0  0  0  0  0  0
    0.7145   -2.8875    0.0000 C   0  0  0  0  0  0  0  0  0  0  0  0
    0.0000   -1.6500    0.0000 C   0  0  0  0  0  0  0  0  0  0  0  0
    0.7145   -1.2375    0.0000 C   0  0  0  0  0  0  0  0  0  0  0  0
    0.7145   -0.4125    0.0000 C   0  0  0  0  0  0  0  0  0  0  0  0
    1.4289    0.0000    0.0000 C   0  0  0  0  0  0  0  0  0  0  0  0
    2.1434   -0.4125    0.0000 C   0  0  0  0  0  0  0  0  0  0  0  0
    2.8579    0.0000    0.0000 C   0  0  0  0  0  0  0  0  0  0  0  0
    3.5724   -0.4125    0.0000 C   0  0  0  0  0  0  0  0  0  0  0  0
    3.5724   -1.2375    0.0000 C   0  0  0  0  0  0  0  0  0  0  0  0
    2.8579   -1.6500    0.0000 C   0  0  0  0  0  0  0  0  0  0  0  0
    2.1434   -1.2375    0.0000 C   0  0  0  0  0  0  0  0  0  0  0  0
    1.4289   -1.6500    0.0000 N   0  0  0  0  0  0  0  0  0  0  0  0
    2.8579   -2.4750    0.0000 O   0  0  0  0  0  0  0  0  0  0  0  0
    4.2868   -1.6500    0.0000 Cl  0  0  0  0  0  0  0  0  0  0  0  0
    2.8579    0.8250    0.0000 Cl  0  0  0  0  0  0  0  0  0  0  0  0
   -1.6411   -2.3525    0.0000 H   0  0  0  0  0  0  0  0  0  0  0  0
   -0.7145   -3.9575    0.0000 H   0  0  0  0  0  0  0  0  0  0  0  0
   -1.6412   -3.4225    0.0000 H   0  0  0  0  0  0  0  0  0  0  0  0
    0.7145   -3.9575    0.0000 H   0  0  0  0  0  0  0  0  0  0  0  0
    1.6411   -2.3525    0.0000 H   0  0  0  0  0  0  0  0  0  0  0  0
    1.6412   -3.4225    0.0000 H   0  0  0  0  0  0  0  0  0  0  0  0
   -0.9266   -1.1150    0.0000 H   0  0  0  0  0  0  0  0  0  0  0  0
    0.0000   -0.5800    0.0000 H   0  0  0  0  0  0  0  0  0  0  0  0
   -0.1792    0.1035    0.0000 H   0  0  0  0  0  0  0  0  0  0  0  0
    1.4289    1.0320    0.0000 H   0  0  0  0  0  0  0  0  0  0  0  0
    4.4661    0.1035    0.0000 H   0  0  0  0  0  0  0  0  0  0  0  0
    2.0464   -2.9435    0.0000 H   0  0  0  0  0  0  0  0  0  0  0  0
  1  2  1  0  0  0  0
  1 18  1  0  0  0  0
  1 19  1  0  0  0  0
  1 20  1  0  0  0  0
  2  3  1  0  0  0  0
  2  4  1  0  0  0  0
  3 21  1  0  0  0  0
  3 22  1  0  0  0  0
  3 23  1  0  0  0  0
  4  5  1  0  0  0  0
  4 24  1  0  0  0  0
  4 25  1  0  0  0  0
  5  6  2  0  0  0  0
  5 14  1  0  0  0  0
  6  7  1  0  0  0  0
  6 26  1  0  0  0  0
  7  8  2  0  0  0  0
  7 27  1  0  0  0  0
  8  9  1  0  0  0  0
  8 13  1  0  0  0  0
  9 10  2  0  0  0  0
  9 17  1  0  0  0  0
 10 11  1  0  0  0  0
 10 28  1  0  0  0  0
 11 12  2  0  0  0  0
 11 16  1  0  0  0  0
 12 13  1  0  0  0  0
 12 15  1  0  0  0  0
 13 14  2  0  0  0  0
 15 29  1  0  0  0  0
M  END
>  <DRUGBANK_ID>
DB05565

>  <COMMON_NAME>
PBT-1033

>  <CAS_NUMBER>
747408-78-2

>  <UNII>
Q7K6GJQ4O4

>  <SYNONYMS>
5,7-dichloro-2-(dimethylaminomethyl)quinolin-8-ol; 8-quinolinol, 5,7-dichloro-2-((dimethylamino)methyl)-

$$$$
