
 OpenBabel10282417072D

 45 47  0  0  1  0  0  0  0  0999 V2000
   -0.8256   -0.5974    0.0000 C   0  0  0  0  0  0  0  0  0  0  0  0
   -1.2001    0.1376    0.0000 C   0  0  0  0  0  0  0  0  0  0  0  0
   -1.7193    0.7788    0.0000 C   0  0  1  0  0  0  0  0  0  0  0  0
   -1.2700    1.4707    0.0000 N   0  0  0  0  0  0  0  0  0  0  0  0
   -0.4731    1.2572    0.0000 C   0  0  2  0  0  0  0  0  0  0  0  0
   -0.4299    0.4333    0.0000 S   0  0  0  0  0  0  0  0  0  0  0  0
   -0.2596    2.0540    0.0000 C   0  0  1  0  0  0  0  0  0  0  0  0
   -1.0565    2.2676    0.0000 C   0  0  0  0  0  0  0  0  0  0  0  0
   -1.4690    2.9820    0.0000 O   0  0  0  0  0  0  0  0  0  0  0  0
    0.4549    2.4665    0.0000 N   0  0  0  0  0  0  0  0  0  0  0  0
    0.4549    3.2915    0.0000 C   0  0  0  0  0  0  0  0  0  0  0  0
   -0.2596    3.7040    0.0000 O   0  0  0  0  0  0  0  0  0  0  0  0
    1.1694    3.7040    0.0000 C   0  0  3  0  0  0  0  0  0  0  0  0
    1.1694    4.5290    0.0000 C   0  0  0  0  0  0  0  0  0  0  0  0
    0.4549    4.9415    0.0000 C   0  0  0  0  0  0  0  0  0  0  0  0
    0.4549    5.7665    0.0000 C   0  0  0  0  0  0  0  0  0  0  0  0
    1.1694    6.1790    0.0000 C   0  0  0  0  0  0  0  0  0  0  0  0
    1.8838    5.7665    0.0000 C   0  0  0  0  0  0  0  0  0  0  0  0
    1.8838    4.9415    0.0000 C   0  0  0  0  0  0  0  0  0  0  0  0
    2.5983    6.1790    0.0000 Cl  0  0  0  0  0  0  0  0  0  0  0  0
    1.1694    7.0040    0.0000 Cl  0  0  0  0  0  0  0  0  0  0  0  0
    1.8838    3.2915    0.0000 O   0  0  0  0  0  0  0  0  0  0  0  0
    1.8838    2.4665    0.0000 C   0  0  0  0  0  0  0  0  0  0  0  0
   -2.5432    0.7356    0.0000 C   0  0  0  0  0  0  0  0  0  0  0  0
   -2.9177    0.0005    0.0000 O   0  0  0  0  0  0  0  0  0  0  0  0
   -2.9925    1.4275    0.0000 O   0  0  0  0  0  0  0  0  0  0  0  0
   -1.8920   -0.3117    0.0000 C   0  0  0  0  0  0  0  0  0  0  0  0
   -1.4084   -1.4948    0.0000 H   0  0  0  0  0  0  0  0  0  0  0  0
    0.2429   -0.6534    0.0000 H   0  0  0  0  0  0  0  0  0  0  0  0
   -0.3398   -1.5508    0.0000 H   0  0  0  0  0  0  0  0  0  0  0  0
   -2.1545   -0.1987    0.0000 H   0  0  0  0  0  0  0  0  0  0  0  0
   -1.3046    0.5838    0.0000 H   0  0  0  0  0  0  0  0  0  0  0  0
    0.5893    1.4026    0.0000 H   0  0  0  0  0  0  0  0  0  0  0  0
    1.3075    1.9742    0.0000 H   0  0  0  0  0  0  0  0  0  0  0  0
    0.2428    4.2390    0.0000 H   0  0  0  0  0  0  0  0  0  0  0  0
   -0.4388    4.4255    0.0000 H   0  0  0  0  0  0  0  0  0  0  0  0
   -0.4388    6.2825    0.0000 H   0  0  0  0  0  0  0  0  0  0  0  0
    2.7775    4.4255    0.0000 H   0  0  0  0  0  0  0  0  0  0  0  0
    0.9572    1.9315    0.0000 H   0  0  0  0  0  0  0  0  0  0  0  0
    2.8104    1.9315    0.0000 H   0  0  0  0  0  0  0  0  0  0  0  0
    1.8838    1.3965    0.0000 H   0  0  0  0  0  0  0  0  0  0  0  0
   -2.5671    2.2624    0.0000 H   0  0  0  0  0  0  0  0  0  0  0  0
   -2.8454    0.1741    0.0000 H   0  0  0  0  0  0  0  0  0  0  0  0
   -1.8360   -1.3802    0.0000 H   0  0  0  0  0  0  0  0  0  0  0  0
   -2.7894   -0.8944    0.0000 H   0  0  0  0  0  0  0  0  0  0  0  0
  1  2  1  0  0  0  0
  1 28  1  0  0  0  0
  1 29  1  0  0  0  0
  1 30  1  0  0  0  0
  2  3  1  0  0  0  0
  2  6  1  0  0  0  0
  2 27  1  0  0  0  0
  3  4  1  0  0  0  0
  3 24  1  0  0  0  0
  3 31  1  1  0  0  0
  4  8  1  0  0  0  0
  5  4  1  0  0  0  0
  5  6  1  0  0  0  0
  5  7  1  0  0  0  0
  5 32  1  6  0  0  0
  7  8  1  0  0  0  0
  7 10  1  0  0  0  0
  7 33  1  6  0  0  0
  8  9  2  0  0  0  0
 10 11  1  0  0  0  0
 10 34  1  0  0  0  0
 11 12  2  0  0  0  0
 11 13  1  0  0  0  0
 13 14  1  0  0  0  0
 13 22  1  0  0  0  0
 13 35  1  0  0  0  0
 14 15  2  0  0  0  0
 14 19  1  0  0  0  0
 15 16  1  0  0  0  0
 15 36  1  0  0  0  0
 16 17  2  0  0  0  0
 16 37  1  0  0  0  0
 17 18  1  0  0  0  0
 17 21  1  0  0  0  0
 18 19  2  0  0  0  0
 18 20  1  0  0  0  0
 19 38  1  0  0  0  0
 22 23  1  0  0  0  0
 23 39  1  0  0  0  0
 23 40  1  0  0  0  0
 23 41  1  0  0  0  0
 24 25  2  0  0  0  0
 24 26  1  0  0  0  0
 26 42  1  0  0  0  0
 27 43  1  0  0  0  0
 27 44  1  0  0  0  0
 27 45  1  0  0  0  0
M  END
>  <DRUGBANK_ID>
DB13686

>  <COMMON_NAME>
Clometocillin

>  <CAS_NUMBER>
1926-49-4

>  <UNII>
YI8LL014GF

>  <SYNONYMS>
clometocilina; Clometocillin

$$$$
