799
 OpenBabel10282417072D

 46 48  0  0  0  0  0  0  0  0999 V2000
    2.3645    2.2713    0.0000 S   0  0  0  0  0  0  0  0  0  0  0  0
    9.5574   -1.0652    0.0000 O   0  0  0  0  0  0  0  0  0  0  0  0
    8.8381   -2.2999    0.0000 O   0  0  0  0  0  0  0  0  0  0  0  0
    6.6995   -1.0541    0.0000 N   0  0  0  0  0  0  0  0  0  0  0  0
    2.3645    0.6213    0.0000 C   0  0  0  0  0  0  0  0  0  0  0  0
    1.6500    1.0338    0.0000 C   0  0  0  0  0  0  0  0  0  0  0  0
    3.0790    1.0338    0.0000 C   0  0  0  0  0  0  0  0  0  0  0  0
    1.9520   -0.0931    0.0000 C   0  0  0  0  0  0  0  0  0  0  0  0
    2.7770   -0.0931    0.0000 C   0  0  0  0  0  0  0  0  0  0  0  0
    1.6500    1.8588    0.0000 C   0  0  0  0  0  0  0  0  0  0  0  0
    3.0790    1.8588    0.0000 C   0  0  0  0  0  0  0  0  0  0  0  0
    3.8165    0.5927    0.0000 C   0  0  0  0  0  0  0  0  0  0  0  0
    3.8165    2.2999    0.0000 C   0  0  0  0  0  0  0  0  0  0  0  0
    4.5640    1.0167    0.0000 C   0  0  0  0  0  0  0  0  0  0  0  0
    4.5640    1.8760    0.0000 C   0  0  0  0  0  0  0  0  0  0  0  0
    5.2769    0.6013    0.0000 C   0  0  0  0  0  0  0  0  0  0  0  0
    5.9897    0.1861    0.0000 C   0  0  0  0  0  0  0  0  0  0  0  0
    6.7026   -0.2291    0.0000 C   0  0  0  0  0  0  0  0  0  0  0  0
    7.4187    0.1806    0.0000 C   0  0  0  0  0  0  0  0  0  0  0  0
    8.1284   -1.0596    0.0000 C   0  0  0  0  0  0  0  0  0  0  0  0
    8.1316   -0.2346    0.0000 C   0  0  0  0  0  0  0  0  0  0  0  0
    7.4124   -1.4694    0.0000 C   0  0  0  0  0  0  0  0  0  0  0  0
    8.8413   -1.4749    0.0000 C   0  0  0  0  0  0  0  0  0  0  0  0
   10.2702   -1.4804    0.0000 C   0  0  0  0  0  0  0  0  0  0  0  0
   10.9863   -1.0707    0.0000 C   0  0  0  0  0  0  0  0  0  0  0  0
    0.7234    0.4988    0.0000 H   0  0  0  0  0  0  0  0  0  0  0  0
    0.7234    1.5688    0.0000 H   0  0  0  0  0  0  0  0  0  0  0  0
    0.8820   -0.0931    0.0000 H   0  0  0  0  0  0  0  0  0  0  0  0
    2.4870   -1.0198    0.0000 H   0  0  0  0  0  0  0  0  0  0  0  0
    1.4170   -1.0197    0.0000 H   0  0  0  0  0  0  0  0  0  0  0  0
    2.2420   -1.0198    0.0000 H   0  0  0  0  0  0  0  0  0  0  0  0
    3.8470   -0.0931    0.0000 H   0  0  0  0  0  0  0  0  0  0  0  0
    3.3120   -1.0197    0.0000 H   0  0  0  0  0  0  0  0  0  0  0  0
    0.7234    2.3938    0.0000 H   0  0  0  0  0  0  0  0  0  0  0  0
    0.7234    1.3238    0.0000 H   0  0  0  0  0  0  0  0  0  0  0  0
    3.8046   -0.4392    0.0000 H   0  0  0  0  0  0  0  0  0  0  0  0
    3.8046    3.3318    0.0000 H   0  0  0  0  0  0  0  0  0  0  0  0
    5.4557    2.3955    0.0000 H   0  0  0  0  0  0  0  0  0  0  0  0
    7.4227    1.2126    0.0000 H   0  0  0  0  0  0  0  0  0  0  0  0
    9.0273    0.2780    0.0000 H   0  0  0  0  0  0  0  0  0  0  0  0
    7.4085   -2.5014    0.0000 H   0  0  0  0  0  0  0  0  0  0  0  0
   10.2660   -2.5504    0.0000 H   0  0  0  0  0  0  0  0  0  0  0  0
   11.1948   -2.0190    0.0000 H   0  0  0  0  0  0  0  0  0  0  0  0
   11.9108   -1.6093    0.0000 H   0  0  0  0  0  0  0  0  0  0  0  0
   10.9905   -0.0007    0.0000 H   0  0  0  0  0  0  0  0  0  0  0  0
   11.9150   -0.5393    0.0000 H   0  0  0  0  0  0  0  0  0  0  0  0
  1 10  1  0  0  0  0
  1 11  1  0  0  0  0
  2 23  1  0  0  0  0
  2 24  1  0  0  0  0
  3 23  2  0  0  0  0
  4 18  2  0  0  0  0
  4 22  1  0  0  0  0
  5  6  1  0  0  0  0
  5  7  1  0  0  0  0
  5  8  1  0  0  0  0
  5  9  1  0  0  0  0
  6 10  1  0  0  0  0
  6 26  1  0  0  0  0
  6 27  1  0  0  0  0
  7 11  2  0  0  0  0
  7 12  1  0  0  0  0
  8 28  1  0  0  0  0
  8 29  1  0  0  0  0
  8 30  1  0  0  0  0
  9 31  1  0  0  0  0
  9 32  1  0  0  0  0
  9 33  1  0  0  0  0
 10 34  1  0  0  0  0
 10 35  1  0  0  0  0
 11 13  1  0  0  0  0
 12 14  2  0  0  0  0
 12 36  1  0  0  0  0
 13 15  2  0  0  0  0
 13 37  1  0  0  0  0
 14 15  1  0  0  0  0
 14 16  1  0  0  0  0
 15 38  1  0  0  0  0
 16 17  3  0  0  0  0
 17 18  1  0  0  0  0
 18 19  1  0  0  0  0
 19 21  2  0  0  0  0
 19 39  1  0  0  0  0
 20 21  1  0  0  0  0
 20 22  2  0  0  0  0
 20 23  1  0  0  0  0
 21 40  1  0  0  0  0
 22 41  1  0  0  0  0
 24 25  1  0  0  0  0
 24 42  1  0  0  0  0
 24 43  1  0  0  0  0
 25 44  1  0  0  0  0
 25 45  1  0  0  0  0
 25 46  1  0  0  0  0
M  END
>  <DRUGBANK_ID>
DB00799

>  <SECONDARY_ACCESSION_NUMBERS>
APRD01246

>  <COMMON_NAME>
Tazarotene

>  <CAS_NUMBER>
118292-40-3

>  <UNII>
81BDR9Y8PS

>  <SYNONYMS>
Tazarotene; Tazarot√®ne; Tazaroteno; Tazarotenum

$$$$
