617
 OpenBabel10282417072D

 22 22  0  0  1  0  0  0  0  0999 V2000
    2.6897    0.5163    0.0000 O   0  0  0  0  0  0  0  0  0  0  0  0
    4.5543   -0.5232    0.0000 O   0  0  0  0  0  0  0  0  0  0  0  0
    1.6501   -0.5232    0.0000 O   0  0  0  0  0  0  0  0  0  0  0  0
    3.1023   -0.7533    0.0000 N   0  0  0  0  0  0  0  0  0  0  0  0
    3.5148    0.5163    0.0000 C   0  0  3  0  0  0  0  0  0  0  0  0
    4.2994    0.7713    0.0000 C   0  0  0  0  0  0  0  0  0  0  0  0
    3.7697   -0.2683    0.0000 C   0  0  0  0  0  0  0  0  0  0  0  0
    3.5148    1.3414    0.0000 C   0  0  0  0  0  0  0  0  0  0  0  0
    2.4348   -0.2683    0.0000 C   0  0  0  0  0  0  0  0  0  0  0  0
    4.4709    1.5783    0.0000 C   0  0  0  0  0  0  0  0  0  0  0  0
    3.1023   -1.5783    0.0000 C   0  0  0  0  0  0  0  0  0  0  0  0
    5.0946    0.0554    0.0000 H   0  0  0  0  0  0  0  0  0  0  0  0
    5.3170    1.1020    0.0000 H   0  0  0  0  0  0  0  0  0  0  0  0
    4.4414    1.8764    0.0000 H   0  0  0  0  0  0  0  0  0  0  0  0
    2.5882    1.8764    0.0000 H   0  0  0  0  0  0  0  0  0  0  0  0
    3.5148    2.4114    0.0000 H   0  0  0  0  0  0  0  0  0  0  0  0
    5.4885    1.9090    0.0000 H   0  0  0  0  0  0  0  0  0  0  0  0
    3.6757    2.2942    0.0000 H   0  0  0  0  0  0  0  0  0  0  0  0
    4.6933    2.6249    0.0000 H   0  0  0  0  0  0  0  0  0  0  0  0
    2.1757   -2.1133    0.0000 H   0  0  0  0  0  0  0  0  0  0  0  0
    4.0289   -2.1133    0.0000 H   0  0  0  0  0  0  0  0  0  0  0  0
    3.1023   -2.6483    0.0000 H   0  0  0  0  0  0  0  0  0  0  0  0
  1  5  1  0  0  0  0
  1  9  1  0  0  0  0
  2  7  2  0  0  0  0
  3  9  2  0  0  0  0
  4  7  1  0  0  0  0
  4  9  1  0  0  0  0
  4 11  1  0  0  0  0
  5  6  1  0  0  0  0
  5  7  1  0  0  0  0
  5  8  1  0  0  0  0
  6 10  1  0  0  0  0
  6 12  1  0  0  0  0
  6 13  1  0  0  0  0
  8 14  1  0  0  0  0
  8 15  1  0  0  0  0
  8 16  1  0  0  0  0
 10 17  1  0  0  0  0
 10 18  1  0  0  0  0
 10 19  1  0  0  0  0
 11 20  1  0  0  0  0
 11 21  1  0  0  0  0
 11 22  1  0  0  0  0
M  END
>  <DRUGBANK_ID>
DB00617

>  <SECONDARY_ACCESSION_NUMBERS>
APRD00236

>  <COMMON_NAME>
Paramethadione

>  <CAS_NUMBER>
115-67-3

>  <UNII>
Z615FRW64N

>  <SYNONYMS>
Parametadiona; Parametadione; Paramethadione; Paramethadionum

$$$$
