1559
 OpenBabel10282417072D

 36 38  0  0  0  0  0  0  0  0999 V2000
    4.5315    0.6150    0.0000 Cl  0  0  0  0  0  0  0  0  0  0  0  0
    4.3908   -1.4629    0.0000 S   0  0  0  0  0  0  0  0  0  0  0  0
    1.6500   -2.2011    0.0000 O   0  0  0  0  0  0  0  0  0  0  0  0
    2.9664   -1.7330    0.0000 N   0  0  0  0  0  0  0  0  0  0  0  0
    2.1538   -0.0668    0.0000 N   0  0  0  0  0  0  0  0  0  0  0  0
    3.6048   -0.3904    0.0000 C   0  0  0  0  0  0  0  0  0  0  0  0
    3.6089   -1.2154    0.0000 C   0  0  0  0  0  0  0  0  0  0  0  0
    2.9572    0.1207    0.0000 C   0  0  0  0  0  0  0  0  0  0  0  0
    4.8689   -0.7966    0.0000 C   0  0  0  0  0  0  0  0  0  0  0  0
    4.3842   -0.1351    0.0000 C   0  0  0  0  0  0  0  0  0  0  0  0
    5.6940   -0.7925    0.0000 C   0  0  0  0  0  0  0  0  0  0  0  0
    1.7995   -0.8120    0.0000 C   0  0  0  0  0  0  0  0  0  0  0  0
    2.1612   -1.5535    0.0000 C   0  0  0  0  0  0  0  0  0  0  0  0
    3.1368    0.9260    0.0000 C   0  0  0  0  0  0  0  0  0  0  0  0
    3.1541   -2.5364    0.0000 C   0  0  0  0  0  0  0  0  0  0  0  0
    6.1100   -1.5049    0.0000 C   0  0  0  0  0  0  0  0  0  0  0  0
    3.9240    1.1731    0.0000 C   0  0  0  0  0  0  0  0  0  0  0  0
    2.5292    1.4841    0.0000 C   0  0  0  0  0  0  0  0  0  0  0  0
    4.1035    1.9783    0.0000 C   0  0  0  0  0  0  0  0  0  0  0  0
    2.7088    2.2893    0.0000 C   0  0  0  0  0  0  0  0  0  0  0  0
    3.4959    2.5364    0.0000 C   0  0  0  0  0  0  0  0  0  0  0  0
    4.7000    0.8474    0.0000 H   0  0  0  0  0  0  0  0  0  0  0  0
    6.2244    0.1368    0.0000 H   0  0  0  0  0  0  0  0  0  0  0  0
    6.7640   -0.7872    0.0000 H   0  0  0  0  0  0  0  0  0  0  0  0
    0.7295   -0.8174    0.0000 H   0  0  0  0  0  0  0  0  0  0  0  0
    1.2348   -1.7208    0.0000 H   0  0  0  0  0  0  0  0  0  0  0  0
    2.3735   -3.2682    0.0000 H   0  0  0  0  0  0  0  0  0  0  0  0
    4.1782   -2.8466    0.0000 H   0  0  0  0  0  0  0  0  0  0  0  0
    3.3975   -3.5783    0.0000 H   0  0  0  0  0  0  0  0  0  0  0  0
    5.5796   -2.4342    0.0000 H   0  0  0  0  0  0  0  0  0  0  0  0
    7.1800   -1.4996    0.0000 H   0  0  0  0  0  0  0  0  0  0  0  0
    6.6496   -2.4289    0.0000 H   0  0  0  0  0  0  0  0  0  0  0  0
    1.5446    1.1750    0.0000 H   0  0  0  0  0  0  0  0  0  0  0  0
    5.0881    2.2875    0.0000 H   0  0  0  0  0  0  0  0  0  0  0  0
    1.9488    2.9875    0.0000 H   0  0  0  0  0  0  0  0  0  0  0  0
    3.7205    3.5437    0.0000 H   0  0  0  0  0  0  0  0  0  0  0  0
  1 17  1  0  0  0  0
  2  7  1  0  0  0  0
  2  9  1  0  0  0  0
  3 13  2  0  0  0  0
  4  7  1  0  0  0  0
  4 13  1  0  0  0  0
  4 15  1  0  0  0  0
  5  8  2  0  0  0  0
  5 12  1  0  0  0  0
  6  7  2  0  0  0  0
  6  8  1  0  0  0  0
  6 10  1  0  0  0  0
  8 14  1  0  0  0  0
  9 10  2  0  0  0  0
  9 11  1  0  0  0  0
 10 22  1  0  0  0  0
 11 16  1  0  0  0  0
 11 23  1  0  0  0  0
 11 24  1  0  0  0  0
 12 13  1  0  0  0  0
 12 25  1  0  0  0  0
 12 26  1  0  0  0  0
 14 17  1  0  0  0  0
 14 18  2  0  0  0  0
 15 27  1  0  0  0  0
 15 28  1  0  0  0  0
 15 29  1  0  0  0  0
 16 30  1  0  0  0  0
 16 31  1  0  0  0  0
 16 32  1  0  0  0  0
 17 19  2  0  0  0  0
 18 20  1  0  0  0  0
 18 33  1  0  0  0  0
 19 21  1  0  0  0  0
 19 34  1  0  0  0  0
 20 21  2  0  0  0  0
 20 35  1  0  0  0  0
 21 36  1  0  0  0  0
M  END
>  <DRUGBANK_ID>
DB01559

>  <COMMON_NAME>
Clotiazepam

>  <CAS_NUMBER>
33671-46-4

>  <UNII>
ZCN055599V

>  <SYNONYMS>
Clotiazepam; Clotiazepamum

$$$$
