
 OpenBabel10282417072D

 54 55  0  0  0  0  0  0  0  0999 V2000
   -0.0383    0.7466    0.0000 S   0  0  0  0  0  0  0  0  0  0  0  0
   -2.1818    2.8091    0.0000 P   0  0  0  0  0  0  0  0  0  0  0  0
   -2.1818    1.9840    0.0000 O   0  0  0  0  0  0  0  0  0  0  0  0
    0.6761    0.3341    0.0000 O   0  0  0  0  0  0  0  0  0  0  0  0
   -0.7529    1.9840    0.0000 O   0  0  0  0  0  0  0  0  0  0  0  0
   -2.1818    3.6341    0.0000 O   0  0  0  0  0  0  0  0  0  0  0  0
   -3.0067    2.8091    0.0000 O   0  0  0  0  0  0  0  0  0  0  0  0
   -1.3567    2.8091    0.0000 O   0  0  0  0  0  0  0  0  0  0  0  0
   -0.0383   -0.9034    0.0000 N   0  0  0  0  0  0  0  0  0  0  0  0
    1.3905   -3.3784    0.0000 N   0  0  0  0  0  0  0  0  0  0  0  0
    2.1051   -2.1409    0.0000 N   0  0  0  0  0  0  0  0  0  0  0  0
   -0.0383   -3.3784    0.0000 N   0  0  0  0  0  0  0  0  0  0  0  0
   -0.7529   -0.4908    0.0000 C   0  0  0  0  0  0  0  0  0  0  0  0
   -0.0383   -1.7283    0.0000 C   0  0  0  0  0  0  0  0  0  0  0  0
   -0.7529    0.3341    0.0000 C   0  0  0  0  0  0  0  0  0  0  0  0
   -1.4673    0.7466    0.0000 C   0  0  0  0  0  0  0  0  0  0  0  0
    0.6761   -2.1409    0.0000 C   0  0  0  0  0  0  0  0  0  0  0  0
   -1.4673    1.5716    0.0000 C   0  0  0  0  0  0  0  0  0  0  0  0
   -1.4673   -0.9034    0.0000 C   0  0  0  0  0  0  0  0  0  0  0  0
    0.6761   -2.9658    0.0000 C   0  0  0  0  0  0  0  0  0  0  0  0
    0.6761   -0.4908    0.0000 C   0  0  0  0  0  0  0  0  0  0  0  0
    1.3905   -1.7283    0.0000 C   0  0  0  0  0  0  0  0  0  0  0  0
   -0.0383    1.5716    0.0000 C   0  0  0  0  0  0  0  0  0  0  0  0
    2.1051   -2.9658    0.0000 C   0  0  0  0  0  0  0  0  0  0  0  0
    0.6761    1.9840    0.0000 C   0  0  0  0  0  0  0  0  0  0  0  0
    2.8195   -3.3784    0.0000 C   0  0  0  0  0  0  0  0  0  0  0  0
    1.3905    1.5716    0.0000 C   0  0  0  0  0  0  0  0  0  0  0  0
    0.6761    2.8091    0.0000 C   0  0  0  0  0  0  0  0  0  0  0  0
    2.1051    1.9840    0.0000 C   0  0  0  0  0  0  0  0  0  0  0  0
    1.3905    3.2216    0.0000 C   0  0  0  0  0  0  0  0  0  0  0  0
    2.1051    2.8091    0.0000 C   0  0  0  0  0  0  0  0  0  0  0  0
   -1.3418    4.1191    0.0000 H   0  0  0  0  0  0  0  0  0  0  0  0
   -3.4917    3.6491    0.0000 H   0  0  0  0  0  0  0  0  0  0  0  0
   -0.8910   -2.8863    0.0000 H   0  0  0  0  0  0  0  0  0  0  0  0
   -0.0382   -4.3629    0.0000 H   0  0  0  0  0  0  0  0  0  0  0  0
   -0.9650   -2.2632    0.0000 H   0  0  0  0  0  0  0  0  0  0  0  0
   -0.0384   -2.7983    0.0000 H   0  0  0  0  0  0  0  0  0  0  0  0
   -2.3940    0.2116    0.0000 H   0  0  0  0  0  0  0  0  0  0  0  0
   -2.3939    1.2816    0.0000 H   0  0  0  0  0  0  0  0  0  0  0  0
   -0.5407    2.1067    0.0000 H   0  0  0  0  0  0  0  0  0  0  0  0
   -0.5406    1.0366    0.0000 H   0  0  0  0  0  0  0  0  0  0  0  0
   -2.3940   -0.3685    0.0000 H   0  0  0  0  0  0  0  0  0  0  0  0
   -1.4671   -1.9734    0.0000 H   0  0  0  0  0  0  0  0  0  0  0  0
   -2.3939   -1.4385    0.0000 H   0  0  0  0  0  0  0  0  0  0  0  0
    1.5699   -1.0067    0.0000 H   0  0  0  0  0  0  0  0  0  0  0  0
    1.3904   -0.6963    0.0000 H   0  0  0  0  0  0  0  0  0  0  0  0
    2.8193   -4.4484    0.0000 H   0  0  0  0  0  0  0  0  0  0  0  0
    3.7462   -2.8435    0.0000 H   0  0  0  0  0  0  0  0  0  0  0  0
    3.7461   -3.9135    0.0000 H   0  0  0  0  0  0  0  0  0  0  0  0
    1.3904    0.5396    0.0000 H   0  0  0  0  0  0  0  0  0  0  0  0
   -0.2176    3.3251    0.0000 H   0  0  0  0  0  0  0  0  0  0  0  0
    2.9988    1.4679    0.0000 H   0  0  0  0  0  0  0  0  0  0  0  0
    1.3904    4.2536    0.0000 H   0  0  0  0  0  0  0  0  0  0  0  0
    2.9988    3.3251    0.0000 H   0  0  0  0  0  0  0  0  0  0  0  0
  1 15  1  0  0  0  0
  1 23  1  0  0  0  0
  2  3  1  0  0  0  0
  2  6  1  0  0  0  0
  2  7  1  0  0  0  0
  2  8  2  0  0  0  0
  3 18  1  0  0  0  0
  4 21  2  0  0  0  0
  5 23  2  0  0  0  0
  6 32  1  0  0  0  0
  7 33  1  0  0  0  0
  9 13  1  0  0  0  0
  9 14  1  0  0  0  0
  9 21  1  0  0  0  0
 10 20  2  0  0  0  0
 10 24  1  0  0  0  0
 11 22  1  0  0  0  0
 11 24  2  0  0  0  0
 12 20  1  0  0  0  0
 12 34  1  0  0  0  0
 12 35  1  0  0  0  0
 13 15  2  0  0  0  0
 13 19  1  0  0  0  0
 14 17  1  0  0  0  0
 14 36  1  0  0  0  0
 14 37  1  0  0  0  0
 15 16  1  0  0  0  0
 16 18  1  0  0  0  0
 16 38  1  0  0  0  0
 16 39  1  0  0  0  0
 17 20  1  0  0  0  0
 17 22  2  0  0  0  0
 18 40  1  0  0  0  0
 18 41  1  0  0  0  0
 19 42  1  0  0  0  0
 19 43  1  0  0  0  0
 19 44  1  0  0  0  0
 21 45  1  0  0  0  0
 22 46  1  0  0  0  0
 23 25  1  0  0  0  0
 24 26  1  0  0  0  0
 25 27  2  0  0  0  0
 25 28  1  0  0  0  0
 26 47  1  0  0  0  0
 26 48  1  0  0  0  0
 26 49  1  0  0  0  0
 27 29  1  0  0  0  0
 27 50  1  0  0  0  0
 28 30  2  0  0  0  0
 28 51  1  0  0  0  0
 29 31  2  0  0  0  0
 29 52  1  0  0  0  0
 30 31  1  0  0  0  0
 30 53  1  0  0  0  0
 31 54  1  0  0  0  0
M  END
>  <DRUGBANK_ID>
DB11748

>  <COMMON_NAME>
Benfotiamine

>  <CAS_NUMBER>
22457-89-2

>  <UNII>
Y92OUS2H9B

>  <SYNONYMS>
Benfotiamina; Benfotiamine; Benphothiamine; Benzoylthiamine monophosphate; S-benzoylthiamine monophosphate

$$$$
