
 OpenBabel10282417072D

 78 79  0  0  1  0  0  0  0  0999 V2000
   -3.5724    7.8375    0.0000 C   0  0  0  0  0  0  0  0  0  0  0  0
   -2.8579    8.2500    0.0000 C   0  0  0  0  0  0  0  0  0  0  0  0
   -2.1434    7.8375    0.0000 C   0  0  0  0  0  0  0  0  0  0  0  0
   -1.4289    8.2500    0.0000 C   0  0  0  0  0  0  0  0  0  0  0  0
   -0.7145    7.8375    0.0000 C   0  0  0  0  0  0  0  0  0  0  0  0
   -0.0000    8.2500    0.0000 C   0  0  0  0  0  0  0  0  0  0  0  0
    0.7145    7.8375    0.0000 C   0  0  0  0  0  0  0  0  0  0  0  0
    1.4289    8.2500    0.0000 C   0  0  0  0  0  0  0  0  0  0  0  0
    2.1434    7.8375    0.0000 C   0  0  0  0  0  0  0  0  0  0  0  0
    2.8579    8.2500    0.0000 C   0  0  0  0  0  0  0  0  0  0  0  0
    3.5724    7.8375    0.0000 C   0  0  0  0  0  0  0  0  0  0  0  0
    8.5737    9.0750    0.0000 C   0  0  0  0  0  0  0  0  0  0  0  0
    5.7158    5.7750    0.0000 C   0  0  0  0  0  0  0  0  0  0  0  0
    8.5737    8.2500    0.0000 C   0  0  2  0  0  0  0  0  0  0  0  0
    5.7158    6.6000    0.0000 C   0  0  2  0  0  0  0  0  0  0  0  0
    9.2881    7.8375    0.0000 C   0  0  2  0  0  0  0  0  0  0  0  0
    9.2881    7.0125    0.0000 C   0  0  1  0  0  0  0  0  0  0  0  0
    6.4302    7.8375    0.0000 C   0  0  2  0  0  0  0  0  0  0  0  0
    8.5737    6.6000    0.0000 C   0  0  2  0  0  0  0  0  0  0  0  0
    5.7158    8.2500    0.0000 C   0  0  2  0  0  0  0  0  0  0  0  0
    6.4302    7.0125    0.0000 C   0  0  2  0  0  0  0  0  0  0  0  0
    5.0013    7.8375    0.0000 C   0  0  2  0  0  0  0  0  0  0  0  0
    7.8592    7.0125    0.0000 C   0  0  2  0  0  0  0  0  0  0  0  0
    9.2881    9.4875    0.0000 O   0  0  0  0  0  0  0  0  0  0  0  0
    5.0013    5.3625    0.0000 O   0  0  0  0  0  0  0  0  0  0  0  0
   10.0026    8.2500    0.0000 O   0  0  0  0  0  0  0  0  0  0  0  0
   10.0026    6.6000    0.0000 O   0  0  0  0  0  0  0  0  0  0  0  0
    7.1447    8.2500    0.0000 O   0  0  0  0  0  0  0  0  0  0  0  0
    8.5737    5.7750    0.0000 O   0  0  0  0  0  0  0  0  0  0  0  0
    5.7158    9.0750    0.0000 O   0  0  0  0  0  0  0  0  0  0  0  0
    4.2868    8.2500    0.0000 O   0  0  0  0  0  0  0  0  0  0  0  0
    7.8592    7.8375    0.0000 O   0  0  0  0  0  0  0  0  0  0  0  0
    5.0013    7.0125    0.0000 O   0  0  0  0  0  0  0  0  0  0  0  0
    7.1447    6.6000    0.0000 O   0  0  0  0  0  0  0  0  0  0  0  0
    9.1040    8.8820    0.0000 H   0  0  0  0  0  0  0  0  0  0  0  0
    6.5282    6.4567    0.0000 H   0  0  0  0  0  0  0  0  0  0  0  0
    9.5703    8.6127    0.0000 H   0  0  0  0  0  0  0  0  0  0  0  0
   10.0026    7.4250    0.0000 H   0  0  0  0  0  0  0  0  0  0  0  0
    6.1481    8.6127    0.0000 H   0  0  0  0  0  0  0  0  0  0  0  0
    9.2881    6.1875    0.0000 H   0  0  0  0  0  0  0  0  0  0  0  0
    6.2461    8.8820    0.0000 H   0  0  0  0  0  0  0  0  0  0  0  0
    6.7124    6.2373    0.0000 H   0  0  0  0  0  0  0  0  0  0  0  0
    5.0013    8.6625    0.0000 H   0  0  0  0  0  0  0  0  0  0  0  0
    7.8592    6.1875    0.0000 H   0  0  0  0  0  0  0  0  0  0  0  0
   -4.4990    8.3725    0.0000 H   0  0  0  0  0  0  0  0  0  0  0  0
   -3.5724    6.7675    0.0000 H   0  0  0  0  0  0  0  0  0  0  0  0
   -4.4991    7.3025    0.0000 H   0  0  0  0  0  0  0  0  0  0  0  0
   -2.8579    9.3200    0.0000 H   0  0  0  0  0  0  0  0  0  0  0  0
   -1.9313    8.7850    0.0000 H   0  0  0  0  0  0  0  0  0  0  0  0
   -2.1434    6.7675    0.0000 H   0  0  0  0  0  0  0  0  0  0  0  0
   -1.2168    7.3025    0.0000 H   0  0  0  0  0  0  0  0  0  0  0  0
   -1.4289    9.3200    0.0000 H   0  0  0  0  0  0  0  0  0  0  0  0
   -0.5022    8.7850    0.0000 H   0  0  0  0  0  0  0  0  0  0  0  0
   -0.7145    6.7675    0.0000 H   0  0  0  0  0  0  0  0  0  0  0  0
    0.2121    7.3025    0.0000 H   0  0  0  0  0  0  0  0  0  0  0  0
    0.0000    9.3200    0.0000 H   0  0  0  0  0  0  0  0  0  0  0  0
    0.9266    8.7850    0.0000 H   0  0  0  0  0  0  0  0  0  0  0  0
    0.7145    6.7675    0.0000 H   0  0  0  0  0  0  0  0  0  0  0  0
    1.6412    7.3025    0.0000 H   0  0  0  0  0  0  0  0  0  0  0  0
    1.4289    9.3200    0.0000 H   0  0  0  0  0  0  0  0  0  0  0  0
    2.3555    8.7850    0.0000 H   0  0  0  0  0  0  0  0  0  0  0  0
    2.1434    6.7675    0.0000 H   0  0  0  0  0  0  0  0  0  0  0  0
    3.0700    7.3025    0.0000 H   0  0  0  0  0  0  0  0  0  0  0  0
    2.8579    9.3200    0.0000 H   0  0  0  0  0  0  0  0  0  0  0  0
    3.7845    8.7850    0.0000 H   0  0  0  0  0  0  0  0  0  0  0  0
    3.5724    6.7675    0.0000 H   0  0  0  0  0  0  0  0  0  0  0  0
    4.4991    7.3025    0.0000 H   0  0  0  0  0  0  0  0  0  0  0  0
    7.6470    9.6100    0.0000 H   0  0  0  0  0  0  0  0  0  0  0  0
    8.5737   10.1450    0.0000 H   0  0  0  0  0  0  0  0  0  0  0  0
    6.6424    5.2400    0.0000 H   0  0  0  0  0  0  0  0  0  0  0  0
    5.7158    4.7050    0.0000 H   0  0  0  0  0  0  0  0  0  0  0  0
   10.1282    9.0025    0.0000 H   0  0  0  0  0  0  0  0  0  0  0  0
    4.1613    5.8475    0.0000 H   0  0  0  0  0  0  0  0  0  0  0  0
   10.8426    7.7650    0.0000 H   0  0  0  0  0  0  0  0  0  0  0  0
   10.0026    5.6300    0.0000 H   0  0  0  0  0  0  0  0  0  0  0  0
    7.9847    7.7650    0.0000 H   0  0  0  0  0  0  0  0  0  0  0  0
    7.7337    5.2900    0.0000 H   0  0  0  0  0  0  0  0  0  0  0  0
    6.5558    9.5600    0.0000 H   0  0  0  0  0  0  0  0  0  0  0  0
  1 45  1  0  0  0  0
  1 46  1  0  0  0  0
  1 47  1  0  0  0  0
  2  1  1  0  0  0  0
  2 48  1  0  0  0  0
  2 49  1  0  0  0  0
  3  2  1  0  0  0  0
  3 50  1  0  0  0  0
  3 51  1  0  0  0  0
  4  3  1  0  0  0  0
  4 52  1  0  0  0  0
  4 53  1  0  0  0  0
  5  4  1  0  0  0  0
  5 54  1  0  0  0  0
  5 55  1  0  0  0  0
  6  5  1  0  0  0  0
  6 56  1  0  0  0  0
  6 57  1  0  0  0  0
  7  6  1  0  0  0  0
  7 58  1  0  0  0  0
  7 59  1  0  0  0  0
  8  7  1  0  0  0  0
  8 60  1  0  0  0  0
  8 61  1  0  0  0  0
  9  8  1  0  0  0  0
  9 62  1  0  0  0  0
  9 63  1  0  0  0  0
 10  9  1  0  0  0  0
 10 64  1  0  0  0  0
 10 65  1  0  0  0  0
 11 10  1  0  0  0  0
 11 66  1  0  0  0  0
 11 67  1  0  0  0  0
 12 68  1  0  0  0  0
 12 69  1  0  0  0  0
 13 70  1  0  0  0  0
 13 71  1  0  0  0  0
 14 12  1  0  0  0  0
 14 35  1  1  0  0  0
 15 13  1  0  0  0  0
 15 36  1  6  0  0  0
 16 14  1  0  0  0  0
 16 26  1  0  0  0  0
 16 37  1  6  0  0  0
 17 16  1  0  0  0  0
 17 27  1  0  0  0  0
 17 38  1  1  0  0  0
 18 28  1  0  0  0  0
 18 39  1  6  0  0  0
 19 17  1  0  0  0  0
 19 29  1  0  0  0  0
 19 40  1  6  0  0  0
 20 18  1  0  0  0  0
 20 30  1  0  0  0  0
 20 41  1  1  0  0  0
 21 15  1  0  0  0  0
 21 18  1  0  0  0  0
 21 34  1  0  0  0  0
 21 42  1  1  0  0  0
 22 20  1  0  0  0  0
 22 31  1  0  0  0  0
 22 43  1  6  0  0  0
 23 19  1  0  0  0  0
 23 34  1  0  0  0  0
 23 44  1  6  0  0  0
 24 12  1  0  0  0  0
 24 72  1  0  0  0  0
 25 13  1  0  0  0  0
 25 73  1  0  0  0  0
 26 74  1  0  0  0  0
 27 75  1  0  0  0  0
 28 76  1  0  0  0  0
 29 77  1  0  0  0  0
 30 78  1  0  0  0  0
 31 11  1  0  0  0  0
 32 14  1  0  0  0  0
 32 23  1  0  0  0  0
 33 15  1  0  0  0  0
 33 22  1  0  0  0  0
M  END
>  <DRUGBANK_ID>
DB02686

>  <SECONDARY_ACCESSION_NUMBERS>
EXPT03188

>  <COMMON_NAME>
Undecyl-Beta-D-Maltopyranoside

$$$$
