
 OpenBabel10282417072D

 62 65  0  0  0  0  0  0  0  0999 V2000
   -2.8878    1.0313    0.0000 C   0  0  0  0  0  0  0  0  0  0  0  0
   -2.8878    1.8564    0.0000 C   0  0  0  0  0  0  0  0  0  0  0  0
   -2.1865    2.2690    0.0000 C   0  0  0  0  0  0  0  0  0  0  0  0
   -1.4439    1.8564    0.0000 C   0  0  0  0  0  0  0  0  0  0  0  0
   -1.4439    1.0313    0.0000 C   0  0  0  0  0  0  0  0  0  0  0  0
   -2.1865    0.6188    0.0000 C   0  0  0  0  0  0  0  0  0  0  0  0
   -0.7425    2.2690    0.0000 C   0  0  0  0  0  0  0  0  0  0  0  0
   -0.0412    1.8564    0.0000 C   0  0  0  0  0  0  0  0  0  0  0  0
   -0.0412    1.0313    0.0000 C   0  0  0  0  0  0  0  0  0  0  0  0
   -0.7425    0.6188    0.0000 C   0  0  0  0  0  0  0  0  0  0  0  0
    0.6601    0.6188    0.0000 C   0  0  0  0  0  0  0  0  0  0  0  0
    1.3614    1.0313    0.0000 C   0  0  0  0  0  0  0  0  0  0  0  0
    2.1040    0.6188    0.0000 C   0  0  0  0  0  0  0  0  0  0  0  0
    2.1040   -0.2062    0.0000 C   0  0  0  0  0  0  0  0  0  0  0  0
    1.4027   -0.6188    0.0000 C   0  0  0  0  0  0  0  0  0  0  0  0
    0.6601   -0.2062    0.0000 C   0  0  0  0  0  0  0  0  0  0  0  0
   -0.0412   -0.6188    0.0000 O   0  0  0  0  0  0  0  0  0  0  0  0
   -0.7425   -0.2062    0.0000 C   0  0  0  0  0  0  0  0  0  0  0  0
    1.4027   -1.4439    0.0000 C   0  0  0  0  0  0  0  0  0  0  0  0
    2.8053    1.0313    0.0000 N   0  0  0  0  0  0  0  0  0  0  0  0
    2.8053    1.8564    0.0000 C   0  0  0  0  0  0  0  0  0  0  0  0
    3.5479    2.2690    0.0000 C   0  0  0  0  0  0  0  0  0  0  0  0
    4.2492    1.8564    0.0000 C   0  0  0  0  0  0  0  0  0  0  0  0
    4.2492    1.0313    0.0000 N   0  0  0  0  0  0  0  0  0  0  0  0
    3.5479    0.6188    0.0000 C   0  0  0  0  0  0  0  0  0  0  0  0
    4.9918    2.2690    0.0000 O   0  0  0  0  0  0  0  0  0  0  0  0
    3.5479   -0.2062    0.0000 O   0  0  0  0  0  0  0  0  0  0  0  0
   -3.5891    2.2690    0.0000 N   0  0  0  0  0  0  0  0  0  0  0  0
   -4.2904    1.8564    0.0000 S   0  0  0  0  0  0  0  0  0  0  0  0
   -4.9918    2.2690    0.0000 C   0  0  0  0  0  0  0  0  0  0  0  0
   -4.7030    1.1138    0.0000 O   0  0  0  0  0  0  0  0  0  0  0  0
   -3.8779    1.1138    0.0000 O   0  0  0  0  0  0  0  0  0  0  0  0
    0.6881   -1.8564    0.0000 C   0  0  0  0  0  0  0  0  0  0  0  0
    2.1172   -1.8564    0.0000 C   0  0  0  0  0  0  0  0  0  0  0  0
    1.4027   -2.2690    0.0000 C   0  0  0  0  0  0  0  0  0  0  0  0
   -3.7836    0.5189    0.0000 H   0  0  0  0  0  0  0  0  0  0  0  0
   -2.1992    3.3009    0.0000 H   0  0  0  0  0  0  0  0  0  0  0  0
   -2.1992   -0.4131    0.0000 H   0  0  0  0  0  0  0  0  0  0  0  0
   -0.7425    3.3010    0.0000 H   0  0  0  0  0  0  0  0  0  0  0  0
    0.8546    2.3687    0.0000 H   0  0  0  0  0  0  0  0  0  0  0  0
   -0.7425   -0.4132    0.0000 H   0  0  0  0  0  0  0  0  0  0  0  0
    1.3487    2.0632    0.0000 H   0  0  0  0  0  0  0  0  0  0  0  0
    2.9998   -0.7185    0.0000 H   0  0  0  0  0  0  0  0  0  0  0  0
   -0.7337    0.8638    0.0000 H   0  0  0  0  0  0  0  0  0  0  0  0
   -1.6735   -0.7336    0.0000 H   0  0  0  0  0  0  0  0  0  0  0  0
   -1.6647    0.3364    0.0000 H   0  0  0  0  0  0  0  0  0  0  0  0
    1.9158    2.3797    0.0000 H   0  0  0  0  0  0  0  0  0  0  0  0
    3.5606    3.3009    0.0000 H   0  0  0  0  0  0  0  0  0  0  0  0
    5.1038    0.5425    0.0000 H   0  0  0  0  0  0  0  0  0  0  0  0
   -3.5891    3.2535    0.0000 H   0  0  0  0  0  0  0  0  0  0  0  0
   -4.9831    3.3390    0.0000 H   0  0  0  0  0  0  0  0  0  0  0  0
   -5.9228    1.7416    0.0000 H   0  0  0  0  0  0  0  0  0  0  0  0
   -5.9141    2.8115    0.0000 H   0  0  0  0  0  0  0  0  0  0  0  0
   -0.2385   -1.3213    0.0000 H   0  0  0  0  0  0  0  0  0  0  0  0
    0.6880   -2.9264    0.0000 H   0  0  0  0  0  0  0  0  0  0  0  0
   -0.2386   -2.3913    0.0000 H   0  0  0  0  0  0  0  0  0  0  0  0
    2.1172   -2.9264    0.0000 H   0  0  0  0  0  0  0  0  0  0  0  0
    3.0438   -1.3214    0.0000 H   0  0  0  0  0  0  0  0  0  0  0  0
    3.0439   -2.3914    0.0000 H   0  0  0  0  0  0  0  0  0  0  0  0
    0.4761   -2.8040    0.0000 H   0  0  0  0  0  0  0  0  0  0  0  0
    2.3293   -2.8040    0.0000 H   0  0  0  0  0  0  0  0  0  0  0  0
    1.4027   -3.3390    0.0000 H   0  0  0  0  0  0  0  0  0  0  0  0
  1  2  2  0  0  0  0
  1  6  1  0  0  0  0
  1 36  1  0  0  0  0
  2  3  1  0  0  0  0
  2 28  1  0  0  0  0
  3  4  2  0  0  0  0
  3 37  1  0  0  0  0
  4  5  1  0  0  0  0
  4  7  1  0  0  0  0
  5  6  2  0  0  0  0
  5 10  1  0  0  0  0
  6 38  1  0  0  0  0
  7  8  2  0  0  0  0
  7 39  1  0  0  0  0
  8  9  1  0  0  0  0
  8 40  1  0  0  0  0
  9 10  2  0  0  0  0
  9 11  1  0  0  0  0
 10 41  1  0  0  0  0
 11 12  2  0  0  0  0
 11 16  1  0  0  0  0
 12 13  1  0  0  0  0
 12 42  1  0  0  0  0
 13 14  2  0  0  0  0
 13 20  1  0  0  0  0
 14 15  1  0  0  0  0
 14 43  1  0  0  0  0
 15 16  2  0  0  0  0
 15 19  1  0  0  0  0
 16 17  1  0  0  0  0
 17 18  1  0  0  0  0
 18 44  1  0  0  0  0
 18 45  1  0  0  0  0
 18 46  1  0  0  0  0
 19 33  1  0  0  0  0
 19 34  1  0  0  0  0
 19 35  1  0  0  0  0
 20 21  1  0  0  0  0
 20 25  1  0  0  0  0
 21 22  2  0  0  0  0
 21 47  1  0  0  0  0
 22 23  1  0  0  0  0
 22 48  1  0  0  0  0
 23 24  1  0  0  0  0
 23 26  2  0  0  0  0
 24 25  1  0  0  0  0
 24 49  1  0  0  0  0
 25 27  2  0  0  0  0
 28 29  1  0  0  0  0
 28 50  1  0  0  0  0
 29 30  1  0  0  0  0
 29 31  2  0  0  0  0
 29 32  2  0  0  0  0
 30 51  1  0  0  0  0
 30 52  1  0  0  0  0
 30 53  1  0  0  0  0
 33 54  1  0  0  0  0
 33 55  1  0  0  0  0
 33 56  1  0  0  0  0
 34 57  1  0  0  0  0
 34 58  1  0  0  0  0
 34 59  1  0  0  0  0
 35 60  1  0  0  0  0
 35 61  1  0  0  0  0
 35 62  1  0  0  0  0
M  END
>  <DRUGBANK_ID>
DB09183

>  <COMMON_NAME>
Dasabuvir

>  <CAS_NUMBER>
1132935-63-7

>  <UNII>
DE54EQW8T1

>  <SYNONYMS>
Sodium 3-(3-tert-butyl-4-methoxy-5-{6Â­ [(methylsulfonyl)amino]naphthalene-2-yl}phenyl)-2,6-dioxo-3,6-dihydro-2H-pyrimidin-1-ide hydrate (1:1:1); Dasabuvir; N-{6-[3-tert-butyl-5-(2,4-dioxo-3,4-dihydropyrimidin-1(2H)-yl)-2-methoxyphenyl]naphthalen-2-yl}methanesulfonamide

$$$$
