
 OpenBabel10282417072D

 46 49  0  0  1  0  0  0  0  0999 V2000
    7.4404    2.6586    0.0000 F   0  0  0  0  0  0  0  0  0  0  0  0
    7.0279    3.3731    0.0000 C   0  0  0  0  0  0  0  0  0  0  0  0
    6.2029    3.3731    0.0000 C   0  0  0  0  0  0  0  0  0  0  0  0
    5.7904    2.6586    0.0000 N   0  0  0  0  0  0  0  0  0  0  0  0
    4.9654    2.6586    0.0000 C   0  0  0  0  0  0  0  0  0  0  0  0
    4.5529    3.3731    0.0000 O   0  0  0  0  0  0  0  0  0  0  0  0
    4.5529    1.9441    0.0000 N   0  0  0  0  0  0  0  0  0  0  0  0
    3.7279    1.9441    0.0000 C   0  0  1  0  0  0  0  0  0  0  0  0
    3.3700    1.2008    0.0000 N   0  0  0  0  0  0  0  0  0  0  0  0
    2.5656    1.0173    0.0000 C   0  0  0  0  0  0  0  0  0  0  0  0
    2.3821    0.2130    0.0000 C   0  0  0  0  0  0  0  0  0  0  0  0
    2.9868   -0.3482    0.0000 C   0  0  0  0  0  0  0  0  0  0  0  0
    2.8032   -1.1525    0.0000 C   0  0  0  0  0  0  0  0  0  0  0  0
    2.0149   -1.3957    0.0000 C   0  0  0  0  0  0  0  0  0  0  0  0
    1.4101   -0.8345    0.0000 C   0  0  0  0  0  0  0  0  0  0  0  0
    1.5937   -0.0302    0.0000 C   0  0  0  0  0  0  0  0  0  0  0  0
    1.9206    1.5316    0.0000 C   0  0  0  0  0  0  0  0  0  0  0  0
    1.9206    2.3566    0.0000 C   0  0  0  0  0  0  0  0  0  0  0  0
    2.5656    2.8710    0.0000 N   0  0  0  0  0  0  0  0  0  0  0  0
    3.3700    2.6874    0.0000 C   0  0  0  0  0  0  0  0  0  0  0  0
    3.8843    3.3325    0.0000 O   0  0  0  0  0  0  0  0  0  0  0  0
    1.2062    2.7691    0.0000 C   0  0  0  0  0  0  0  0  0  0  0  0
    0.4917    2.3566    0.0000 C   0  0  0  0  0  0  0  0  0  0  0  0
    0.4917    1.5316    0.0000 C   0  0  0  0  0  0  0  0  0  0  0  0
    1.2062    1.1191    0.0000 C   0  0  0  0  0  0  0  0  0  0  0  0
    5.7904    4.0876    0.0000 C   0  0  0  0  0  0  0  0  0  0  0  0
    6.2029    4.8020    0.0000 C   0  0  0  0  0  0  0  0  0  0  0  0
    7.0279    4.8020    0.0000 C   0  0  0  0  0  0  0  0  0  0  0  0
    7.4404    4.0876    0.0000 C   0  0  0  0  0  0  0  0  0  0  0  0
    6.2827    1.8060    0.0000 H   0  0  0  0  0  0  0  0  0  0  0  0
    5.0452    1.0915    0.0000 H   0  0  0  0  0  0  0  0  0  0  0  0
    4.2972    1.0381    0.0000 H   0  0  0  0  0  0  0  0  0  0  0  0
    3.9730   -0.0441    0.0000 H   0  0  0  0  0  0  0  0  0  0  0  0
    3.5597   -1.8544    0.0000 H   0  0  0  0  0  0  0  0  0  0  0  0
    1.7853   -2.4018    0.0000 H   0  0  0  0  0  0  0  0  0  0  0  0
    0.4239   -1.1387    0.0000 H   0  0  0  0  0  0  0  0  0  0  0  0
    0.8372    0.6717    0.0000 H   0  0  0  0  0  0  0  0  0  0  0  0
    2.3465    3.8308    0.0000 H   0  0  0  0  0  0  0  0  0  0  0  0
    1.2062    3.8011    0.0000 H   0  0  0  0  0  0  0  0  0  0  0  0
   -0.4020    2.8726    0.0000 H   0  0  0  0  0  0  0  0  0  0  0  0
   -0.4020    1.0156    0.0000 H   0  0  0  0  0  0  0  0  0  0  0  0
    1.2062    0.0871    0.0000 H   0  0  0  0  0  0  0  0  0  0  0  0
    4.7584    4.0876    0.0000 H   0  0  0  0  0  0  0  0  0  0  0  0
    5.6869    5.6957    0.0000 H   0  0  0  0  0  0  0  0  0  0  0  0
    7.5439    5.6957    0.0000 H   0  0  0  0  0  0  0  0  0  0  0  0
    8.4724    4.0876    0.0000 H   0  0  0  0  0  0  0  0  0  0  0  0
  1  2  1  0  0  0  0
  2  3  2  0  0  0  0
  2 29  1  0  0  0  0
  3  4  1  0  0  0  0
  3 26  1  0  0  0  0
  4  5  1  0  0  0  0
  4 30  1  0  0  0  0
  5  6  2  0  0  0  0
  5  7  1  0  0  0  0
  7 31  1  0  0  0  0
  8  7  1  0  0  0  0
  8  9  1  0  0  0  0
  8 20  1  0  0  0  0
  8 32  1  6  0  0  0
  9 10  2  0  0  0  0
 10 11  1  0  0  0  0
 10 17  1  0  0  0  0
 11 12  2  0  0  0  0
 11 16  1  0  0  0  0
 12 13  1  0  0  0  0
 12 33  1  0  0  0  0
 13 14  2  0  0  0  0
 13 34  1  0  0  0  0
 14 15  1  0  0  0  0
 14 35  1  0  0  0  0
 15 16  2  0  0  0  0
 15 36  1  0  0  0  0
 16 37  1  0  0  0  0
 17 18  2  0  0  0  0
 17 25  1  0  0  0  0
 18 19  1  0  0  0  0
 18 22  1  0  0  0  0
 19 20  1  0  0  0  0
 19 38  1  0  0  0  0
 20 21  2  0  0  0  0
 22 23  2  0  0  0  0
 22 39  1  0  0  0  0
 23 24  1  0  0  0  0
 23 40  1  0  0  0  0
 24 25  2  0  0  0  0
 24 41  1  0  0  0  0
 25 42  1  0  0  0  0
 26 27  2  0  0  0  0
 26 43  1  0  0  0  0
 27 28  1  0  0  0  0
 27 44  1  0  0  0  0
 28 29  2  0  0  0  0
 28 45  1  0  0  0  0
 29 46  1  0  0  0  0
M  END
>  <DRUGBANK_ID>
DB15197

>  <COMMON_NAME>
RSV-604

>  <CAS_NUMBER>
676128-63-5

>  <UNII>
6NF9HI6D98

$$$$
