
 OpenBabel10282417072D

 11  9  0  0  0  0  0  0  0  0999 V2000
    0.4125   -0.3572    0.0000 C   0  0  0  0  0  0  0  0  0  0  0  0
   -0.4125   -0.3572    0.0000 C   0  0  0  0  0  0  0  0  0  0  0  0
    0.8250    0.3572    0.0000 C   0  0  0  0  0  0  0  0  0  0  0  0
   -0.8250   -1.0717    0.0000 C   0  0  0  0  0  0  0  0  0  0  0  0
    1.6500    0.3572    0.0000 O   0  0  0  0  0  0  0  0  0  0  0  0
    0.4125    1.0717    0.0000 O   0  5  0  0  0  0  0  0  0  0  0  0
   -1.6500   -1.0717    0.0000 O   0  0  0  0  0  0  0  0  0  0  0  0
   -0.4125   -1.7861    0.0000 O   0  5  0  0  0  0  0  0  0  0  0  0
    0.0000    1.7861    0.0000 Fe  0  2  0  0  0  0  0  0  0  0  0  0
    0.8250   -1.0717    0.0000 H   0  0  0  0  0  0  0  0  0  0  0  0
   -0.8250    0.3572    0.0000 H   0  0  0  0  0  0  0  0  0  0  0  0
  2  1  2  0  0  0  0
  3  1  1  0  0  0  0
  4  2  1  0  0  0  0
  5  3  2  0  0  0  0
  6  3  1  0  0  0  0
  7  4  2  0  0  0  0
  8  4  1  0  0  0  0
 10  1  1  0  0  0  0
 11  2  1  0  0  0  0
M  CHG  3   6  -1   8  -1   9   2
M  END
>  <DRUGBANK_ID>
DB14491

>  <SECONDARY_ACCESSION_NUMBERS>
DBSALT000079

>  <COMMON_NAME>
Ferrous fumarate

>  <CAS_NUMBER>
141-01-5

>  <UNII>
R5L488RY0Q

>  <SYNONYMS>
Ferrous fumarate; Iron(2+) fumarate

$$$$
