RL2
 OpenBabel10282417072D

 54 54  0  0  0  0  0  0  0  0999 V2000
   -4.2777    1.3787    0.0000 C   0  0  0  0  0  0  0  0  0  0  0  0
   -4.6055    2.1358    0.0000 O   0  0  0  0  0  0  0  0  0  0  0  0
   -4.7694    0.7163    0.0000 O   0  0  0  0  0  0  0  0  0  0  0  0
   -3.4581    1.2841    0.0000 C   0  0  0  0  0  0  0  0  0  0  0  0
   -3.1303    0.5270    0.0000 C   0  0  2  0  0  0  0  0  0  0  0  0
   -3.6220   -0.1354    0.0000 O   0  0  0  0  0  0  0  0  0  0  0  0
   -2.3107    0.4324    0.0000 C   0  0  0  0  0  0  0  0  0  0  0  0
   -1.8190    1.0948    0.0000 O   0  0  0  0  0  0  0  0  0  0  0  0
   -1.9829   -0.3247    0.0000 N   0  0  0  0  0  0  0  0  0  0  0  0
   -1.1633   -0.4193    0.0000 C   0  0  1  0  0  0  0  0  0  0  0  0
   -0.8355   -1.1764    0.0000 C   0  0  0  0  0  0  0  0  0  0  0  0
   -0.0160   -1.2710    0.0000 C   0  0  0  0  0  0  0  0  0  0  0  0
    0.3119   -2.0281    0.0000 C   0  0  0  0  0  0  0  0  0  0  0  0
    1.1314   -2.1227    0.0000 C   0  0  0  0  0  0  0  0  0  0  0  0
    1.4592   -2.8798    0.0000 C   0  0  0  0  0  0  0  0  0  0  0  0
    0.9675   -3.5422    0.0000 C   0  0  0  0  0  0  0  0  0  0  0  0
    0.1479   -3.4476    0.0000 C   0  0  0  0  0  0  0  0  0  0  0  0
   -0.1799   -2.6905    0.0000 C   0  0  0  0  0  0  0  0  0  0  0  0
   -0.6716    0.2431    0.0000 C   0  0  0  0  0  0  0  0  0  0  0  0
    0.1479    0.1485    0.0000 N   0  0  0  0  0  0  0  0  0  0  0  0
    0.6397    0.8109    0.0000 C   0  0  0  0  0  0  0  0  0  0  0  0
    1.4592    0.7163    0.0000 C   0  0  0  0  0  0  0  0  0  0  0  0
    1.9510    1.3787    0.0000 C   0  0  0  0  0  0  0  0  0  0  0  0
    1.6231    2.1358    0.0000 C   0  0  0  0  0  0  0  0  0  0  0  0
    2.7705    1.2841    0.0000 C   0  0  0  0  0  0  0  0  0  0  0  0
   -0.9994    1.0002    0.0000 O   0  0  0  0  0  0  0  0  0  0  0  0
   -3.7104    0.5940    0.0000 H   0  0  0  0  0  0  0  0  0  0  0  0
   -1.5114   -0.8882    0.0000 H   0  0  0  0  0  0  0  0  0  0  0  0
   -5.7002    0.8238    0.0000 H   0  0  0  0  0  0  0  0  0  0  0  0
   -2.8203    2.1433    0.0000 H   0  0  0  0  0  0  0  0  0  0  0  0
   -2.3952    1.1613    0.0000 H   0  0  0  0  0  0  0  0  0  0  0  0
   -4.5856   -0.0241    0.0000 H   0  0  0  0  0  0  0  0  0  0  0  0
   -2.5697   -1.1152    0.0000 H   0  0  0  0  0  0  0  0  0  0  0  0
   -1.4733   -2.0356    0.0000 H   0  0  0  0  0  0  0  0  0  0  0  0
   -0.4103   -2.1583    0.0000 H   0  0  0  0  0  0  0  0  0  0  0  0
    0.6217   -0.4118    0.0000 H   0  0  0  0  0  0  0  0  0  0  0  0
    1.0469   -1.3937    0.0000 H   0  0  0  0  0  0  0  0  0  0  0  0
    1.7465   -1.2941    0.0000 H   0  0  0  0  0  0  0  0  0  0  0  0
    2.4844   -2.9982    0.0000 H   0  0  0  0  0  0  0  0  0  0  0  0
    1.3776   -4.4892    0.0000 H   0  0  0  0  0  0  0  0  0  0  0  0
   -0.4672   -4.2763    0.0000 H   0  0  0  0  0  0  0  0  0  0  0  0
   -1.2051   -2.5721    0.0000 H   0  0  0  0  0  0  0  0  0  0  0  0
    0.5391   -0.7550    0.0000 H   0  0  0  0  0  0  0  0  0  0  0  0
    0.2146    1.7928    0.0000 H   0  0  0  0  0  0  0  0  0  0  0  0
    1.2775    1.6701    0.0000 H   0  0  0  0  0  0  0  0  0  0  0  0
    1.8843   -0.2656    0.0000 H   0  0  0  0  0  0  0  0  0  0  0  0
    2.5221    0.5935    0.0000 H   0  0  0  0  0  0  0  0  0  0  0  0
    2.5887    2.2379    0.0000 H   0  0  0  0  0  0  0  0  0  0  0  0
    2.2608    2.9950    0.0000 H   0  0  0  0  0  0  0  0  0  0  0  0
    0.5602    2.2585    0.0000 H   0  0  0  0  0  0  0  0  0  0  0  0
    1.1979    3.1177    0.0000 H   0  0  0  0  0  0  0  0  0  0  0  0
    3.1957    0.3022    0.0000 H   0  0  0  0  0  0  0  0  0  0  0  0
    3.4082    2.1433    0.0000 H   0  0  0  0  0  0  0  0  0  0  0  0
    3.8334    1.1614    0.0000 H   0  0  0  0  0  0  0  0  0  0  0  0
  1  2  2  0  0  0  0
  1  3  1  0  0  0  0
  1  4  1  0  0  0  0
  3 29  1  0  0  0  0
  4  5  1  0  0  0  0
  4 30  1  0  0  0  0
  4 31  1  0  0  0  0
  5  6  1  0  0  0  0
  5  7  1  0  0  0  0
  5 27  1  6  0  0  0
  6 32  1  0  0  0  0
  7  8  2  0  0  0  0
  7  9  1  0  0  0  0
  9 33  1  0  0  0  0
 10  9  1  0  0  0  0
 10 11  1  0  0  0  0
 10 19  1  0  0  0  0
 10 28  1  1  0  0  0
 11 12  1  0  0  0  0
 11 34  1  0  0  0  0
 11 35  1  0  0  0  0
 12 13  1  0  0  0  0
 12 36  1  0  0  0  0
 12 37  1  0  0  0  0
 13 14  2  0  0  0  0
 13 18  1  0  0  0  0
 14 15  1  0  0  0  0
 14 38  1  0  0  0  0
 15 16  2  0  0  0  0
 15 39  1  0  0  0  0
 16 17  1  0  0  0  0
 16 40  1  0  0  0  0
 17 18  2  0  0  0  0
 17 41  1  0  0  0  0
 18 42  1  0  0  0  0
 19 20  1  0  0  0  0
 19 26  2  0  0  0  0
 20 21  1  0  0  0  0
 20 43  1  0  0  0  0
 21 22  1  0  0  0  0
 21 44  1  0  0  0  0
 21 45  1  0  0  0  0
 22 23  1  0  0  0  0
 22 46  1  0  0  0  0
 22 47  1  0  0  0  0
 23 24  1  0  0  0  0
 23 25  1  0  0  0  0
 23 48  1  0  0  0  0
 24 49  1  0  0  0  0
 24 50  1  0  0  0  0
 24 51  1  0  0  0  0
 25 52  1  0  0  0  0
 25 53  1  0  0  0  0
 25 54  1  0  0  0  0
M  END
>  <DRUGBANK_ID>
DB03691

>  <SECONDARY_ACCESSION_NUMBERS>
EXPT02790

>  <COMMON_NAME>
WRR-112

$$$$
