
 OpenBabel10282417072D

138141  0  0  0  0  0  0  0  0999 V2000
   -6.7413   -3.5054    0.0000 N   0  0  0  0  0  0  0  0  0  0  0  0
   -6.0670   -3.1010    0.0000 C   0  0  0  0  0  0  0  0  0  0  0  0
   -5.3480   -3.5054    0.0000 C   0  0  0  0  0  0  0  0  0  0  0  0
   -4.6289   -3.1010    0.0000 N   0  0  0  0  0  0  0  0  0  0  0  0
   -3.9099   -3.5054    0.0000 C   0  0  0  0  0  0  0  0  0  0  0  0
   -3.1908   -3.1010    0.0000 C   0  0  2  0  0  0  0  0  0  0  0  0
   -2.4718   -3.5054    0.0000 N   0  0  0  0  0  0  0  0  0  0  0  0
   -1.7976   -3.1010    0.0000 C   0  0  0  0  0  0  0  0  0  0  0  0
   -1.0785   -3.5054    0.0000 O   0  0  0  0  0  0  0  0  0  0  0  0
   -6.0670   -2.2920    0.0000 O   0  0  0  0  0  0  0  0  0  0  0  0
   -3.9099   -4.3593    0.0000 O   0  0  0  0  0  0  0  0  0  0  0  0
   -3.1908   -2.2920    0.0000 C   0  0  0  0  0  0  0  0  0  0  0  0
   -3.9099   -1.8874    0.0000 C   0  0  0  0  0  0  0  0  0  0  0  0
   -3.9099   -1.0786    0.0000 C   0  0  0  0  0  0  0  0  0  0  0  0
   -4.6289   -0.6740    0.0000 N   0  0  0  0  0  0  0  0  0  0  0  0
   -1.7976   -2.2920    0.0000 C   0  0  2  0  0  0  0  0  0  0  0  0
   -2.4268   -1.7976    0.0000 C   0  0  0  0  0  0  0  0  0  0  0  0
   -1.1234   -1.7976    0.0000 N   0  0  0  0  0  0  0  0  0  0  0  0
   -2.2021   -1.0337    0.0000 C   0  0  0  0  0  0  0  0  0  0  0  0
   -1.3931   -1.0337    0.0000 C   0  0  0  0  0  0  0  0  0  0  0  0
   -0.4044   -2.2021    0.0000 C   0  0  0  0  0  0  0  0  0  0  0  0
    0.3146   -1.7976    0.0000 C   0  0  1  0  0  0  0  0  0  0  0  0
    1.0337   -2.2021    0.0000 N   0  0  0  0  0  0  0  0  0  0  0  0
    1.7078   -1.7976    0.0000 C   0  0  0  0  0  0  0  0  0  0  0  0
    2.4269   -2.2021    0.0000 C   0  0  1  0  0  0  0  0  0  0  0  0
    3.1460   -1.7976    0.0000 N   0  0  0  0  0  0  0  0  0  0  0  0
   -0.4044   -3.0560    0.0000 O   0  0  0  0  0  0  0  0  0  0  0  0
    0.3146   -0.9887    0.0000 C   0  0  0  0  0  0  0  0  0  0  0  0
   -0.4044   -0.5842    0.0000 S   0  0  0  0  0  0  0  0  0  0  0  0
   -0.4044    0.2246    0.0000 S   0  0  0  0  0  0  0  0  0  0  0  0
    1.7078   -0.9887    0.0000 O   0  0  0  0  0  0  0  0  0  0  0  0
    2.4269   -3.0560    0.0000 C   0  0  0  0  0  0  0  0  0  0  0  0
    3.1460   -3.4605    0.0000 C   0  0  0  0  0  0  0  0  0  0  0  0
    3.1460   -4.2694    0.0000 O   0  0  0  0  0  0  0  0  0  0  0  0
    3.8650   -3.0560    0.0000 N   0  0  0  0  0  0  0  0  0  0  0  0
    3.1460   -0.9887    0.0000 C   0  0  0  0  0  0  0  0  0  0  0  0
    3.8650   -0.5842    0.0000 C   0  0  2  0  0  0  0  0  0  0  0  0
    2.4269   -0.5842    0.0000 O   0  0  0  0  0  0  0  0  0  0  0  0
    4.5840   -0.9887    0.0000 C   0  0  0  0  0  0  0  0  0  0  0  0
    5.3032   -0.5842    0.0000 C   0  0  0  0  0  0  0  0  0  0  0  0
    6.0222   -0.9887    0.0000 C   0  0  0  0  0  0  0  0  0  0  0  0
    6.7413   -0.5842    0.0000 N   0  0  0  0  0  0  0  0  0  0  0  0
    6.0222   -1.8426    0.0000 O   0  0  0  0  0  0  0  0  0  0  0  0
    3.8650    0.2246    0.0000 N   0  0  0  0  0  0  0  0  0  0  0  0
    4.5840    1.4831    0.0000 C   0  0  0  0  0  0  0  0  0  0  0  0
    4.5840    0.6291    0.0000 C   0  0  0  0  0  0  0  0  0  0  0  0
    3.8650    1.8874    0.0000 C   0  0  0  0  0  0  0  0  0  0  0  0
    3.1460    1.4831    0.0000 C   0  0  1  0  0  0  0  0  0  0  0  0
    3.1460    0.6291    0.0000 C   0  0  0  0  0  0  0  0  0  0  0  0
    6.0222    1.4831    0.0000 C   0  0  0  0  0  0  0  0  0  0  0  0
    6.0222    0.6291    0.0000 C   0  0  0  0  0  0  0  0  0  0  0  0
    5.3032    1.8874    0.0000 C   0  0  0  0  0  0  0  0  0  0  0  0
    5.3032    0.2246    0.0000 C   0  0  0  0  0  0  0  0  0  0  0  0
    0.3146    1.4831    0.0000 N   0  0  0  0  0  0  0  0  0  0  0  0
   -0.4044    1.8874    0.0000 C   0  0  0  0  0  0  0  0  0  0  0  0
   -1.1234    1.4831    0.0000 C   0  0  0  0  0  0  0  0  0  0  0  0
   -1.1234    0.6291    0.0000 C   0  0  0  0  0  0  0  0  0  0  0  0
    1.7078    1.4831    0.0000 C   0  0  0  0  0  0  0  0  0  0  0  0
    1.7078    0.6291    0.0000 O   0  0  0  0  0  0  0  0  0  0  0  0
    1.0337    1.8874    0.0000 C   0  0  2  0  0  0  0  0  0  0  0  0
    2.4269    1.8874    0.0000 N   0  0  0  0  0  0  0  0  0  0  0  0
    2.4269    0.2246    0.0000 O   0  0  0  0  0  0  0  0  0  0  0  0
    1.0337    2.6964    0.0000 C   0  0  0  0  0  0  0  0  0  0  0  0
    2.4269    2.6964    0.0000 C   0  0  0  0  0  0  0  0  0  0  0  0
    1.7078    3.1009    0.0000 C   0  0  0  0  0  0  0  0  0  0  0  0
    3.1460    3.1009    0.0000 C   0  0  0  0  0  0  0  0  0  0  0  0
    3.1460    3.9548    0.0000 C   0  0  0  0  0  0  0  0  0  0  0  0
    1.7078    3.9548    0.0000 C   0  0  0  0  0  0  0  0  0  0  0  0
    2.4269    4.3593    0.0000 C   0  0  0  0  0  0  0  0  0  0  0  0
   -0.4044    2.6964    0.0000 O   0  0  0  0  0  0  0  0  0  0  0  0
    3.8650    4.3593    0.0000 O   0  0  0  0  0  0  0  0  0  0  0  0
   -5.3480   -1.0786    0.0000 C   0  0  0  0  0  0  0  0  0  0  0  0
   -5.3480   -1.8874    0.0000 N   0  0  0  0  0  0  0  0  0  0  0  0
   -6.0670   -0.6740    0.0000 N   0  0  0  0  0  0  0  0  0  0  0  0
   -7.6020   -3.0274    0.0000 H   0  0  0  0  0  0  0  0  0  0  0  0
   -6.7249   -4.4898    0.0000 H   0  0  0  0  0  0  0  0  0  0  0  0
   -5.3480   -4.5754    0.0000 H   0  0  0  0  0  0  0  0  0  0  0  0
   -4.4244   -4.0456    0.0000 H   0  0  0  0  0  0  0  0  0  0  0  0
   -4.6289   -2.1165    0.0000 H   0  0  0  0  0  0  0  0  0  0  0  0
   -4.1144   -2.5608    0.0000 H   0  0  0  0  0  0  0  0  0  0  0  0
   -2.4580   -4.4898    0.0000 H   0  0  0  0  0  0  0  0  0  0  0  0
   -2.2671   -1.7519    0.0000 H   0  0  0  0  0  0  0  0  0  0  0  0
   -3.1997   -1.2220    0.0000 H   0  0  0  0  0  0  0  0  0  0  0  0
   -4.8336   -2.4275    0.0000 H   0  0  0  0  0  0  0  0  0  0  0  0
   -4.8380   -1.3550    0.0000 H   0  0  0  0  0  0  0  0  0  0  0  0
   -2.9862   -0.5385    0.0000 H   0  0  0  0  0  0  0  0  0  0  0  0
   -3.9188   -0.0086    0.0000 H   0  0  0  0  0  0  0  0  0  0  0  0
   -4.6289    0.3105    0.0000 H   0  0  0  0  0  0  0  0  0  0  0  0
   -2.7600   -2.7597    0.0000 H   0  0  0  0  0  0  0  0  0  0  0  0
   -3.4460   -2.1234    0.0000 H   0  0  0  0  0  0  0  0  0  0  0  0
   -3.1922   -1.0499    0.0000 H   0  0  0  0  0  0  0  0  0  0  0  0
   -2.8431   -0.1770    0.0000 H   0  0  0  0  0  0  0  0  0  0  0  0
   -1.7230   -0.0769    0.0000 H   0  0  0  0  0  0  0  0  0  0  0  0
   -0.7751   -0.1602    0.0000 H   0  0  0  0  0  0  0  0  0  0  0  0
   -1.8849   -0.0834    0.0000 H   0  0  0  0  0  0  0  0  0  0  0  0
    0.3146   -2.8676    0.0000 H   0  0  0  0  0  0  0  0  0  0  0  0
    1.0475   -3.1865    0.0000 H   0  0  0  0  0  0  0  0  0  0  0  0
    1.5033   -2.7423    0.0000 H   0  0  0  0  0  0  0  0  0  0  0  0
    3.9958   -2.2946    0.0000 H   0  0  0  0  0  0  0  0  0  0  0  0
    1.2383   -0.4485    0.0000 H   0  0  0  0  0  0  0  0  0  0  0  0
    0.3057    0.0813    0.0000 H   0  0  0  0  0  0  0  0  0  0  0  0
    1.5033   -3.5962    0.0000 H   0  0  0  0  0  0  0  0  0  0  0  0
    2.4359   -4.1260    0.0000 H   0  0  0  0  0  0  0  0  0  0  0  0
    4.7121   -3.5577    0.0000 H   0  0  0  0  0  0  0  0  0  0  0  0
    3.8760   -2.0716    0.0000 H   0  0  0  0  0  0  0  0  0  0  0  0
    3.8650   -1.6542    0.0000 H   0  0  0  0  0  0  0  0  0  0  0  0
    4.5839   -2.0587    0.0000 H   0  0  0  0  0  0  0  0  0  0  0  0
    5.5076   -1.5289    0.0000 H   0  0  0  0  0  0  0  0  0  0  0  0
    5.3033    0.4858    0.0000 H   0  0  0  0  0  0  0  0  0  0  0  0
    6.2269   -0.0441    0.0000 H   0  0  0  0  0  0  0  0  0  0  0  0
    7.5883   -1.0860    0.0000 H   0  0  0  0  0  0  0  0  0  0  0  0
    6.7523    0.4002    0.0000 H   0  0  0  0  0  0  0  0  0  0  0  0
    4.7148    0.7216    0.0000 H   0  0  0  0  0  0  0  0  0  0  0  0
    3.6932    0.1081    0.0000 H   0  0  0  0  0  0  0  0  0  0  0  0
    3.8650    2.9574    0.0000 H   0  0  0  0  0  0  0  0  0  0  0  0
    2.9414    2.4277    0.0000 H   0  0  0  0  0  0  0  0  0  0  0  0
    3.1460    2.5531    0.0000 H   0  0  0  0  0  0  0  0  0  0  0  0
    6.9130    2.0042    0.0000 H   0  0  0  0  0  0  0  0  0  0  0  0
    6.9130    0.1081    0.0000 H   0  0  0  0  0  0  0  0  0  0  0  0
    5.3033    2.9194    0.0000 H   0  0  0  0  0  0  0  0  0  0  0  0
    5.3033   -0.8074    0.0000 H   0  0  0  0  0  0  0  0  0  0  0  0
    0.3146    0.4986    0.0000 H   0  0  0  0  0  0  0  0  0  0  0  0
   -2.0470    2.0234    0.0000 H   0  0  0  0  0  0  0  0  0  0  0  0
   -2.0516    0.9507    0.0000 H   0  0  0  0  0  0  0  0  0  0  0  0
   -2.0471    0.0889    0.0000 H   0  0  0  0  0  0  0  0  0  0  0  0
   -2.0515    1.1615    0.0000 H   0  0  0  0  0  0  0  0  0  0  0  0
    0.1101    2.4277    0.0000 H   0  0  0  0  0  0  0  0  0  0  0  0
    2.4269    2.8719    0.0000 H   0  0  0  0  0  0  0  0  0  0  0  0
    0.1026    3.2236    0.0000 H   0  0  0  0  0  0  0  0  0  0  0  0
    1.0202    3.7663    0.0000 H   0  0  0  0  0  0  0  0  0  0  0  0
    2.4269    1.6644    0.0000 H   0  0  0  0  0  0  0  0  0  0  0  0
    4.0368    2.5799    0.0000 H   0  0  0  0  0  0  0  0  0  0  0  0
    0.8170    4.4758    0.0000 H   0  0  0  0  0  0  0  0  0  0  0  0
    2.4269    5.3913    0.0000 H   0  0  0  0  0  0  0  0  0  0  0  0
    4.6712    3.8818    0.0000 H   0  0  0  0  0  0  0  0  0  0  0  0
   -6.2006   -2.3796    0.0000 H   0  0  0  0  0  0  0  0  0  0  0  0
   -6.0779    0.3104    0.0000 H   0  0  0  0  0  0  0  0  0  0  0  0
   -6.9141   -1.1756    0.0000 H   0  0  0  0  0  0  0  0  0  0  0  0
  1 75  1  0  0  0  0
  1 76  1  0  0  0  0
  2  1  1  0  0  0  0
  3  2  1  0  0  0  0
  3 77  1  0  0  0  0
  3 78  1  0  0  0  0
  4  3  1  0  0  0  0
  4 79  1  0  0  0  0
  5  4  1  0  0  0  0
  6  5  1  0  0  0  0
  6 12  1  0  0  0  0
  6 80  1  6  0  0  0
  7  6  1  0  0  0  0
  7 81  1  0  0  0  0
  8  7  1  0  0  0  0
  9  8  2  0  0  0  0
 10  2  2  0  0  0  0
 11  5  2  0  0  0  0
 12 82  1  0  0  0  0
 12 83  1  0  0  0  0
 13 12  1  0  0  0  0
 13 84  1  0  0  0  0
 13 85  1  0  0  0  0
 14 13  1  0  0  0  0
 14 86  1  0  0  0  0
 14 87  1  0  0  0  0
 15 14  1  0  0  0  0
 15 88  1  0  0  0  0
 16  8  1  0  0  0  0
 16 89  1  1  0  0  0
 17 16  1  0  0  0  0
 17 90  1  0  0  0  0
 17 91  1  0  0  0  0
 18 16  1  0  0  0  0
 19 17  1  0  0  0  0
 19 92  1  0  0  0  0
 19 93  1  0  0  0  0
 20 18  1  0  0  0  0
 20 19  1  0  0  0  0
 20 94  1  0  0  0  0
 20 95  1  0  0  0  0
 21 18  1  0  0  0  0
 22 21  1  0  0  0  0
 22 96  1  1  0  0  0
 23 22  1  0  0  0  0
 23 97  1  0  0  0  0
 24 23  1  0  0  0  0
 25 24  1  0  0  0  0
 25 32  1  0  0  0  0
 25 98  1  6  0  0  0
 26 25  1  0  0  0  0
 26 99  1  0  0  0  0
 27 21  2  0  0  0  0
 28 22  1  0  0  0  0
 28100  1  0  0  0  0
 28101  1  0  0  0  0
 29 28  1  0  0  0  0
 30 29  1  0  0  0  0
 31 24  2  0  0  0  0
 32102  1  0  0  0  0
 32103  1  0  0  0  0
 33 32  1  0  0  0  0
 34 33  2  0  0  0  0
 35 33  1  0  0  0  0
 35104  1  0  0  0  0
 35105  1  0  0  0  0
 36 26  1  0  0  0  0
 37 36  1  0  0  0  0
 37 39  1  0  0  0  0
 37106  1  6  0  0  0
 38 36  2  0  0  0  0
 39107  1  0  0  0  0
 39108  1  0  0  0  0
 40 39  1  0  0  0  0
 40109  1  0  0  0  0
 40110  1  0  0  0  0
 41 40  1  0  0  0  0
 42 41  1  0  0  0  0
 42111  1  0  0  0  0
 42112  1  0  0  0  0
 43 41  2  0  0  0  0
 44 37  1  0  0  0  0
 44113  1  0  0  0  0
 46 45  2  0  0  0  0
 46114  1  0  0  0  0
 47 45  1  0  0  0  0
 47115  1  0  0  0  0
 47116  1  0  0  0  0
 48 47  1  0  0  0  0
 48117  1  6  0  0  0
 49 44  1  0  0  0  0
 49 48  1  0  0  0  0
 50118  1  0  0  0  0
 51 50  1  0  0  0  0
 51119  1  0  0  0  0
 52 45  1  0  0  0  0
 52 50  2  0  0  0  0
 52120  1  0  0  0  0
 53 46  1  0  0  0  0
 53 51  2  0  0  0  0
 53121  1  0  0  0  0
 54122  1  0  0  0  0
 55 54  1  0  0  0  0
 56 55  1  0  0  0  0
 56123  1  0  0  0  0
 56124  1  0  0  0  0
 57 30  1  0  0  0  0
 57 56  1  0  0  0  0
 57125  1  0  0  0  0
 57126  1  0  0  0  0
 59 58  2  0  0  0  0
 60 54  1  0  0  0  0
 60 58  1  0  0  0  0
 60 63  1  0  0  0  0
 60127  1  6  0  0  0
 61 48  1  0  0  0  0
 61 58  1  0  0  0  0
 61128  1  0  0  0  0
 62 49  2  0  0  0  0
 63129  1  0  0  0  0
 63130  1  0  0  0  0
 64131  1  0  0  0  0
 65 63  1  0  0  0  0
 65 64  1  0  0  0  0
 66 64  2  0  0  0  0
 66132  1  0  0  0  0
 67 66  1  0  0  0  0
 68 65  2  0  0  0  0
 68133  1  0  0  0  0
 69 67  2  0  0  0  0
 69 68  1  0  0  0  0
 69134  1  0  0  0  0
 70 55  2  0  0  0  0
 71 67  1  0  0  0  0
 71135  1  0  0  0  0
 72 15  1  0  0  0  0
 73 72  2  0  0  0  0
 73136  1  0  0  0  0
 74 72  1  0  0  0  0
 74137  1  0  0  0  0
 74138  1  0  0  0  0
M  END
>  <DRUGBANK_ID>
DB00035

>  <SECONDARY_ACCESSION_NUMBERS>
BTD00112; BTD00061; BIOD00112; BIOD00061

>  <COMMON_NAME>
Desmopressin

>  <CAS_NUMBER>
16679-58-6

>  <UNII>
ENR1LLB0FP

>  <SYNONYMS>
1-(3-mercaptopropionic acid)-8-D-arginine-vasopressin; 1-deamino-8-D-arginine vasopressin; 1-desamino-8-D-arginine vasopressin; dDAVP; Desmopresina; Desmopressin; Desmopressine; Desmopressinum

$$$$
