
 OpenBabel10282417072D

126129  0  0  0  0  0  0  0  0999 V2000
   -0.1601   -0.2047    0.0000 O   0  0  0  0  0  0  0  0  0  0  0  0
   -0.5306    0.4468    0.0000 C   0  0  1  0  0  0  0  0  0  0  0  0
   -0.5306    1.2537    0.0000 C   0  0  1  0  0  0  0  0  0  0  0  0
    0.1822    1.6690    0.0000 C   0  0  2  0  0  0  0  0  0  0  0  0
    0.1822    2.4856    0.0000 C   0  0  1  0  0  0  0  0  0  0  0  0
    0.8998    2.8517    0.0000 C   0  0  0  0  0  0  0  0  0  0  0  0
    1.5260    2.4884    0.0000 C   0  0  0  0  0  0  0  0  0  0  0  0
    2.1468    2.8519    0.0000 O   0  0  0  0  0  0  0  0  0  0  0  0
   -0.5274    2.9035    0.0000 C   0  0  0  0  0  0  0  0  0  0  0  0
   -0.5274    3.7049    0.0000 C   0  0  2  0  0  0  0  0  0  0  0  0
   -1.2395    4.1210    0.0000 C   0  0  0  0  0  0  0  0  0  0  0  0
   -1.9262    3.7089    0.0000 C   0  0  0  0  0  0  0  0  0  0  0  0
   -1.9262    2.9035    0.0000 C   0  0  0  0  0  0  0  0  0  0  0  0
   -2.6391    2.4870    0.0000 C   0  0  1  0  0  0  0  0  0  0  0  0
   -2.6391    1.7327    0.0000 C   0  0  2  0  0  0  0  0  0  0  0  0
   -3.3753    1.3186    0.0000 C   0  0  0  0  0  0  0  0  0  0  0  0
   -3.3753    0.4930    0.0000 C   0  0  2  0  0  0  0  0  0  0  0  0
   -2.6656    0.0776    0.0000 O   0  0  0  0  0  0  0  0  0  0  0  0
   -1.9734    0.4678    0.0000 C   0  0  0  0  0  0  0  0  0  0  0  0
   -1.2631    0.0553    0.0000 C   0  0  0  0  0  0  0  0  0  0  0  0
   -1.9734    1.2181    0.0000 O   0  0  0  0  0  0  0  0  0  0  0  0
   -4.0888    0.0792    0.0000 C   0  0  0  0  0  0  0  0  0  0  0  0
   -1.2395    4.9243    0.0000 O   0  0  0  0  0  0  0  0  0  0  0  0
    0.1122    4.0737    0.0000 C   0  0  0  0  0  0  0  0  0  0  0  0
    1.9316    0.7935    0.0000 O   0  0  0  0  0  0  0  0  0  0  0  0
    1.9316   -0.0381    0.0000 C   0  0  2  0  0  0  0  0  0  0  0  0
    1.2468   -0.4480    0.0000 O   0  0  0  0  0  0  0  0  0  0  0  0
    1.2468   -1.2768    0.0000 C   0  0  1  0  0  0  0  0  0  0  0  0
    1.9348   -1.6693    0.0000 C   0  0  1  0  0  0  0  0  0  0  0  0
    1.9348   -2.4939    0.0000 O   0  0  0  0  0  0  0  0  0  0  0  0
    1.2106   -2.9132    0.0000 C   0  0  2  0  0  0  0  0  0  0  0  0
    0.4712   -2.4752    0.0000 O   0  0  0  0  0  0  0  0  0  0  0  0
   -0.2706   -2.8953    0.0000 C   0  0  2  0  0  0  0  0  0  0  0  0
   -0.2706   -3.7504    0.0000 C   0  0  1  0  0  0  0  0  0  0  0  0
    0.4546   -4.1883    0.0000 C   0  0  1  0  0  0  0  0  0  0  0  0
    1.2106   -3.7665    0.0000 C   0  0  0  0  0  0  0  0  0  0  0  0
    0.0190   -4.9243    0.0000 O   0  0  0  0  0  0  0  0  0  0  0  0
    0.8762   -4.9243    0.0000 C   0  0  0  0  0  0  0  0  0  0  0  0
   -1.0327   -4.1678    0.0000 O   0  0  0  0  0  0  0  0  0  0  0  0
   -1.7802   -3.7375    0.0000 C   0  0  0  0  0  0  0  0  0  0  0  0
   -2.5244   -4.1613    0.0000 C   0  0  0  0  0  0  0  0  0  0  0  0
   -3.2732   -3.7327    0.0000 C   0  0  0  0  0  0  0  0  0  0  0  0
   -4.0173   -4.1566    0.0000 C   0  0  0  0  0  0  0  0  0  0  0  0
   -1.7802   -2.8802    0.0000 O   0  0  0  0  0  0  0  0  0  0  0  0
   -1.0058   -2.4556    0.0000 C   0  0  0  0  0  0  0  0  0  0  0  0
    1.2106   -2.0560    0.0000 H   0  0  0  0  0  0  0  0  0  0  0  0
    2.6681   -1.2578    0.0000 C   0  0  1  0  0  0  0  0  0  0  0  0
    2.6681   -0.4242    0.0000 C   0  0  1  0  0  0  0  0  0  0  0  0
    3.3032   -0.1063    0.0000 O   0  0  0  0  0  0  0  0  0  0  0  0
    3.3786   -1.6458    0.0000 N   0  0  0  0  0  0  0  0  0  0  0  0
    3.3786   -2.4633    0.0000 C   0  0  0  0  0  0  0  0  0  0  0  0
    4.0888   -1.2272    0.0000 C   0  0  0  0  0  0  0  0  0  0  0  0
    0.5344   -1.6884    0.0000 C   0  0  0  0  0  0  0  0  0  0  0  0
    2.6612    0.3083    0.0000 H   0  0  0  0  0  0  0  0  0  0  0  0
   -1.2950    1.6931    0.0000 O   0  0  0  0  0  0  0  0  0  0  0  0
   -1.2950    2.4938    0.0000 C   0  0  0  0  0  0  0  0  0  0  0  0
   -3.2732   -2.8968    0.0000 C   0  0  0  0  0  0  0  0  0  0  0  0
   -0.7442   -0.7264    0.0000 C   0  0  0  0  0  0  0  0  0  0  0  0
   -0.0959   -1.0230    0.0000 O   0  0  0  0  0  0  0  0  0  0  0  0
   -1.4462   -0.9204    0.0000 C   0  0  0  0  0  0  0  0  0  0  0  0
   -3.2253    2.2374    0.0000 O   0  0  0  0  0  0  0  0  0  0  0  0
    0.5038    0.7204    0.0000 H   0  0  0  0  0  0  0  0  0  0  0  0
   -1.4567    0.7178    0.0000 H   0  0  0  0  0  0  0  0  0  0  0  0
    0.2162    0.5995    0.0000 H   0  0  0  0  0  0  0  0  0  0  0  0
    1.0947    1.9268    0.0000 H   0  0  0  0  0  0  0  0  0  0  0  0
    0.9287    3.9213    0.0000 H   0  0  0  0  0  0  0  0  0  0  0  0
    1.8341    3.3732    0.0000 H   0  0  0  0  0  0  0  0  0  0  0  0
    1.5281    1.4564    0.0000 H   0  0  0  0  0  0  0  0  0  0  0  0
   -1.4563    2.3725    0.0000 H   0  0  0  0  0  0  0  0  0  0  0  0
   -1.4529    3.4405    0.0000 H   0  0  0  0  0  0  0  0  0  0  0  0
    0.3991    3.1696    0.0000 H   0  0  0  0  0  0  0  0  0  0  0  0
   -2.8243    4.2173    0.0000 H   0  0  0  0  0  0  0  0  0  0  0  0
   -1.0311    2.3898    0.0000 H   0  0  0  0  0  0  0  0  0  0  0  0
   -3.1195    3.4431    0.0000 H   0  0  0  0  0  0  0  0  0  0  0  0
   -3.0851    2.7053    0.0000 H   0  0  0  0  0  0  0  0  0  0  0  0
   -4.2989    1.8588    0.0000 H   0  0  0  0  0  0  0  0  0  0  0  0
   -4.3034    0.7862    0.0000 H   0  0  0  0  0  0  0  0  0  0  0  0
   -4.3025    1.0271    0.0000 H   0  0  0  0  0  0  0  0  0  0  0  0
   -1.2820   -1.0145    0.0000 H   0  0  0  0  0  0  0  0  0  0  0  0
   -0.3502   -0.5029    0.0000 H   0  0  0  0  0  0  0  0  0  0  0  0
   -5.0165    0.6124    0.0000 H   0  0  0  0  0  0  0  0  0  0  0  0
   -4.0867   -0.9908    0.0000 H   0  0  0  0  0  0  0  0  0  0  0  0
   -5.0144   -0.4576    0.0000 H   0  0  0  0  0  0  0  0  0  0  0  0
    1.0386    3.5382    0.0000 H   0  0  0  0  0  0  0  0  0  0  0  0
    0.1128    5.1437    0.0000 H   0  0  0  0  0  0  0  0  0  0  0  0
    1.0391    4.6082    0.0000 H   0  0  0  0  0  0  0  0  0  0  0  0
    0.3201   -0.7419    0.0000 H   0  0  0  0  0  0  0  0  0  0  0  0
    1.0095   -2.2067    0.0000 H   0  0  0  0  0  0  0  0  0  0  0  0
   -0.2579   -1.8254    0.0000 H   0  0  0  0  0  0  0  0  0  0  0  0
   -1.1912   -3.2050    0.0000 H   0  0  0  0  0  0  0  0  0  0  0  0
    2.1333   -4.3083    0.0000 H   0  0  0  0  0  0  0  0  0  0  0  0
    2.1392   -3.2349    0.0000 H   0  0  0  0  0  0  0  0  0  0  0  0
   -0.9509   -4.9138    0.0000 H   0  0  0  0  0  0  0  0  0  0  0  0
    0.3381   -5.8491    0.0000 H   0  0  0  0  0  0  0  0  0  0  0  0
    1.9462   -4.9279    0.0000 H   0  0  0  0  0  0  0  0  0  0  0  0
    1.4080   -5.8528    0.0000 H   0  0  0  0  0  0  0  0  0  0  0  0
   -2.5256   -5.2313    0.0000 H   0  0  0  0  0  0  0  0  0  0  0  0
   -3.4503   -4.6975    0.0000 H   0  0  0  0  0  0  0  0  0  0  0  0
   -4.1983   -3.1950    0.0000 H   0  0  0  0  0  0  0  0  0  0  0  0
   -4.9408   -3.6163    0.0000 H   0  0  0  0  0  0  0  0  0  0  0  0
   -4.0235   -5.2266    0.0000 H   0  0  0  0  0  0  0  0  0  0  0  0
   -4.9470   -4.6862    0.0000 H   0  0  0  0  0  0  0  0  0  0  0  0
   -0.9893   -1.3857    0.0000 H   0  0  0  0  0  0  0  0  0  0  0  0
   -1.9406   -2.9763    0.0000 H   0  0  0  0  0  0  0  0  0  0  0  0
   -1.9241   -1.9064    0.0000 H   0  0  0  0  0  0  0  0  0  0  0  0
    2.6743   -2.3278    0.0000 H   0  0  0  0  0  0  0  0  0  0  0  0
    3.5784   -0.9865    0.0000 H   0  0  0  0  0  0  0  0  0  0  0  0
    4.1129   -0.6404    0.0000 H   0  0  0  0  0  0  0  0  0  0  0  0
    2.4520   -2.9983    0.0000 H   0  0  0  0  0  0  0  0  0  0  0  0
    4.3052   -2.9983    0.0000 H   0  0  0  0  0  0  0  0  0  0  0  0
    3.3786   -3.5333    0.0000 H   0  0  0  0  0  0  0  0  0  0  0  0
    5.0202   -1.7538    0.0000 H   0  0  0  0  0  0  0  0  0  0  0  0
    4.0792   -0.1572    0.0000 H   0  0  0  0  0  0  0  0  0  0  0  0
    5.0106   -0.6839    0.0000 H   0  0  0  0  0  0  0  0  0  0  0  0
   -0.3924   -1.1537    0.0000 H   0  0  0  0  0  0  0  0  0  0  0  0
    0.5347   -2.7584    0.0000 H   0  0  0  0  0  0  0  0  0  0  0  0
   -0.3921   -2.2237    0.0000 H   0  0  0  0  0  0  0  0  0  0  0  0
   -0.3684    3.0288    0.0000 H   0  0  0  0  0  0  0  0  0  0  0  0
   -2.2216    3.0288    0.0000 H   0  0  0  0  0  0  0  0  0  0  0  0
   -1.2950    3.5638    0.0000 H   0  0  0  0  0  0  0  0  0  0  0  0
   -2.3466   -2.3618    0.0000 H   0  0  0  0  0  0  0  0  0  0  0  0
   -4.1998   -2.3618    0.0000 H   0  0  0  0  0  0  0  0  0  0  0  0
   -3.2732   -1.8268    0.0000 H   0  0  0  0  0  0  0  0  0  0  0  0
   -2.2087   -0.1697    0.0000 H   0  0  0  0  0  0  0  0  0  0  0  0
   -1.7150   -1.9561    0.0000 H   0  0  0  0  0  0  0  0  0  0  0  0
   -2.4775   -1.2054    0.0000 H   0  0  0  0  0  0  0  0  0  0  0  0
  1 58  1  0  0  0  0
  2  1  1  0  0  0  0
  2 62  1  1  0  0  0
  3  2  1  0  0  0  0
  3  4  1  0  0  0  0
  3 55  1  0  0  0  0
  3 63  1  1  0  0  0
  4  5  1  0  0  0  0
  4 25  1  0  0  0  0
  4 64  1  1  0  0  0
  5  6  1  0  0  0  0
  5 65  1  1  0  0  0
  6 66  1  0  0  0  0
  6 67  1  0  0  0  0
  7  6  1  0  0  0  0
  7  8  2  0  0  0  0
  7 68  1  0  0  0  0
  9  5  1  0  0  0  0
  9 10  1  0  0  0  0
  9 69  1  0  0  0  0
  9 70  1  0  0  0  0
 10 11  1  0  0  0  0
 10 24  1  0  0  0  0
 10 71  1  1  0  0  0
 11 23  2  0  0  0  0
 12 11  1  0  0  0  0
 12 13  2  0  0  0  0
 12 72  1  0  0  0  0
 13 14  1  0  0  0  0
 13 73  1  0  0  0  0
 14 15  1  0  0  0  0
 14 61  1  0  0  0  0
 14 74  1  6  0  0  0
 15 16  1  0  0  0  0
 15 61  1  0  0  0  0
 15 75  1  1  0  0  0
 16 17  1  0  0  0  0
 16 76  1  0  0  0  0
 16 77  1  0  0  0  0
 17 18  1  0  0  0  0
 17 22  1  0  0  0  0
 17 78  1  1  0  0  0
 19 18  1  0  0  0  0
 19 20  1  0  0  0  0
 20  2  1  0  0  0  0
 20 79  1  0  0  0  0
 20 80  1  0  0  0  0
 21 19  2  0  0  0  0
 22 81  1  0  0  0  0
 22 82  1  0  0  0  0
 22 83  1  0  0  0  0
 24 84  1  0  0  0  0
 24 85  1  0  0  0  0
 24 86  1  0  0  0  0
 25 26  1  0  0  0  0
 26 27  1  0  0  0  0
 26 48  1  0  0  0  0
 26 54  1  6  0  0  0
 27 28  1  0  0  0  0
 28 29  1  0  0  0  0
 28 53  1  0  0  0  0
 28 87  1  6  0  0  0
 29 30  1  0  0  0  0
 29 47  1  0  0  0  0
 29 88  1  1  0  0  0
 30 31  1  0  0  0  0
 31 32  1  0  0  0  0
 31 36  1  0  0  0  0
 31 46  1  6  0  0  0
 32 33  1  0  0  0  0
 33 34  1  0  0  0  0
 33 45  1  0  0  0  0
 33 89  1  1  0  0  0
 34 35  1  0  0  0  0
 34 39  1  0  0  0  0
 34 90  1  6  0  0  0
 35 36  1  0  0  0  0
 35 37  1  1  0  0  0
 35 38  1  0  0  0  0
 36 91  1  0  0  0  0
 36 92  1  0  0  0  0
 37 93  1  0  0  0  0
 38 94  1  0  0  0  0
 38 95  1  0  0  0  0
 38 96  1  0  0  0  0
 39 40  1  0  0  0  0
 40 41  1  0  0  0  0
 40 44  2  0  0  0  0
 41 42  1  0  0  0  0
 41 97  1  0  0  0  0
 41 98  1  0  0  0  0
 42 43  1  0  0  0  0
 42 57  1  0  0  0  0
 42 99  1  0  0  0  0
 43100  1  0  0  0  0
 43101  1  0  0  0  0
 43102  1  0  0  0  0
 45103  1  0  0  0  0
 45104  1  0  0  0  0
 45105  1  0  0  0  0
 47 48  1  0  0  0  0
 47 50  1  0  0  0  0
 47106  1  6  0  0  0
 48 49  1  0  0  0  0
 48107  1  1  0  0  0
 49108  1  0  0  0  0
 50 51  1  0  0  0  0
 50 52  1  0  0  0  0
 51109  1  0  0  0  0
 51110  1  0  0  0  0
 51111  1  0  0  0  0
 52112  1  0  0  0  0
 52113  1  0  0  0  0
 52114  1  0  0  0  0
 53115  1  0  0  0  0
 53116  1  0  0  0  0
 53117  1  0  0  0  0
 55 56  1  0  0  0  0
 56118  1  0  0  0  0
 56119  1  0  0  0  0
 56120  1  0  0  0  0
 57121  1  0  0  0  0
 57122  1  0  0  0  0
 57123  1  0  0  0  0
 58 59  2  0  0  0  0
 58 60  1  0  0  0  0
 60124  1  0  0  0  0
 60125  1  0  0  0  0
 60126  1  0  0  0  0
M  END
>  <DRUGBANK_ID>
DB11383

>  <COMMON_NAME>
Carbomycin

>  <CAS_NUMBER>
4564-87-8

>  <UNII>
AIK0XUF3AV

>  <SYNONYMS>
Carbomicina; Carbomycin; Carbomycin A; Carbomycine; Carbomycinum; Magnamycin; Magnamycin A

$$$$
