
 OpenBabel10282417072D

 47 50  0  0  1  0  0  0  0  0999 V2000
    1.5712    1.6212    0.0000 C   0  0  0  0  0  0  0  0  0  0  0  0
    0.8255    1.2684    0.0000 N   0  3  0  0  0  0  0  0  0  0  0  0
    1.0572    0.3415    0.0000 C   0  0  2  0  0  0  0  0  0  0  0  0
    1.8615    0.5251    0.0000 C   0  0  0  0  0  0  0  0  0  0  0  0
    2.2195    1.2684    0.0000 C   0  0  2  0  0  0  0  0  0  0  0  0
    1.8615    2.0117    0.0000 C   0  0  0  0  0  0  0  0  0  0  0  0
    1.0572    2.1953    0.0000 C   0  0  1  0  0  0  0  0  0  0  0  0
    0.4122    1.6809    0.0000 C   0  0  1  0  0  0  0  0  0  0  0  0
    0.4122    0.8559    0.0000 C   0  0  2  0  0  0  0  0  0  0  0  0
   -0.3023    1.2684    0.0000 O   0  0  0  0  0  0  0  0  0  0  0  0
    3.0445    1.2684    0.0000 O   0  0  0  0  0  0  0  0  0  0  0  0
    3.4570    0.5539    0.0000 C   0  0  0  0  0  0  0  0  0  0  0  0
    3.0445   -0.1606    0.0000 O   0  0  0  0  0  0  0  0  0  0  0  0
    4.2820    0.5539    0.0000 C   0  0  2  0  0  0  0  0  0  0  0  0
    4.6945    1.2684    0.0000 C   0  0  0  0  0  0  0  0  0  0  0  0
    5.5195    1.2684    0.0000 O   0  0  0  0  0  0  0  0  0  0  0  0
    4.6945   -0.1606    0.0000 C   0  0  0  0  0  0  0  0  0  0  0  0
    5.5195   -0.1606    0.0000 C   0  0  0  0  0  0  0  0  0  0  0  0
    5.9320   -0.8750    0.0000 C   0  0  0  0  0  0  0  0  0  0  0  0
    5.5195   -1.5895    0.0000 C   0  0  0  0  0  0  0  0  0  0  0  0
    4.6945   -1.5895    0.0000 C   0  0  0  0  0  0  0  0  0  0  0  0
    4.2820   -0.8750    0.0000 C   0  0  0  0  0  0  0  0  0  0  0  0
    1.5712    0.9155    0.0000 C   0  0  0  0  0  0  0  0  0  0  0  0
    2.4511    1.0124    0.0000 H   0  0  0  0  0  0  0  0  0  0  0  0
    1.6585    2.6876    0.0000 H   0  0  0  0  0  0  0  0  0  0  0  0
    2.5384    2.0788    0.0000 H   0  0  0  0  0  0  0  0  0  0  0  0
    1.6171    1.2533    0.0000 H   0  0  0  0  0  0  0  0  0  0  0  0
    2.5286   -0.3115    0.0000 H   0  0  0  0  0  0  0  0  0  0  0  0
    2.9248    0.6449    0.0000 H   0  0  0  0  0  0  0  0  0  0  0  0
    2.7888    0.3624    0.0000 H   0  0  0  0  0  0  0  0  0  0  0  0
    2.5286    2.8483    0.0000 H   0  0  0  0  0  0  0  0  0  0  0  0
    1.5081    3.0217    0.0000 H   0  0  0  0  0  0  0  0  0  0  0  0
    1.6171    1.2835    0.0000 H   0  0  0  0  0  0  0  0  0  0  0  0
   -0.1906    2.5650    0.0000 H   0  0  0  0  0  0  0  0  0  0  0  0
   -0.1228    1.7825    0.0000 H   0  0  0  0  0  0  0  0  0  0  0  0
    3.7470    1.4805    0.0000 H   0  0  0  0  0  0  0  0  0  0  0  0
    4.1595    2.1950    0.0000 H   0  0  0  0  0  0  0  0  0  0  0  0
    5.2295    2.1950    0.0000 H   0  0  0  0  0  0  0  0  0  0  0  0
    6.0045    0.4284    0.0000 H   0  0  0  0  0  0  0  0  0  0  0  0
    6.0355    0.7331    0.0000 H   0  0  0  0  0  0  0  0  0  0  0  0
    6.9640   -0.8750    0.0000 H   0  0  0  0  0  0  0  0  0  0  0  0
    6.0355   -2.4832    0.0000 H   0  0  0  0  0  0  0  0  0  0  0  0
    4.1785   -2.4832    0.0000 H   0  0  0  0  0  0  0  0  0  0  0  0
    3.2500   -0.8750    0.0000 H   0  0  0  0  0  0  0  0  0  0  0  0
    1.6584   -0.1509    0.0000 H   0  0  0  0  0  0  0  0  0  0  0  0
    2.4512    1.5242    0.0000 H   0  0  0  0  0  0  0  0  0  0  0  0
    2.5384    0.4578    0.0000 H   0  0  0  0  0  0  0  0  0  0  0  0
  1  2  1  0  0  0  0
  1 24  1  0  0  0  0
  1 25  1  0  0  0  0
  1 26  1  0  0  0  0
  2  3  1  0  0  0  0
  2  7  1  0  0  0  0
  2 23  1  0  0  0  0
  3  4  1  0  0  0  0
  3  9  1  0  0  0  0
  3 27  1  1  0  0  0
  4  5  1  0  0  0  0
  4 28  1  0  0  0  0
  4 29  1  0  0  0  0
  5  6  1  0  0  0  0
  5 11  1  0  0  0  0
  5 30  1  1  0  0  0
  6 31  1  0  0  0  0
  6 32  1  0  0  0  0
  7  6  1  0  0  0  0
  7  8  1  0  0  0  0
  7 33  1  1  0  0  0
  8  9  1  0  0  0  0
  8 10  1  0  0  0  0
  8 34  1  6  0  0  0
  9 10  1  0  0  0  0
  9 35  1  6  0  0  0
 11 12  1  0  0  0  0
 12 13  2  0  0  0  0
 14 12  1  0  0  0  0
 14 15  1  0  0  0  0
 14 17  1  0  0  0  0
 14 36  1  1  0  0  0
 15 16  1  0  0  0  0
 15 37  1  0  0  0  0
 15 38  1  0  0  0  0
 16 39  1  0  0  0  0
 17 18  2  0  0  0  0
 17 22  1  0  0  0  0
 18 19  1  0  0  0  0
 18 40  1  0  0  0  0
 19 20  2  0  0  0  0
 19 41  1  0  0  0  0
 20 21  1  0  0  0  0
 20 42  1  0  0  0  0
 21 22  2  0  0  0  0
 21 43  1  0  0  0  0
 22 44  1  0  0  0  0
 23 45  1  0  0  0  0
 23 46  1  0  0  0  0
 23 47  1  0  0  0  0
M  CHG  1   2   1
M  END
>  <DRUGBANK_ID>
DB11315

>  <COMMON_NAME>
Methscopolamine

>  <CAS_NUMBER>
13265-10-6

>  <UNII>
VDR09VTQ8U

>  <SYNONYMS>
Methylscopolamine

$$$$
