
 OpenBabel10282417072D

 60 64  0  0  0  0  0  0  0  0999 V2000
   -1.8659    0.0165    0.0000 C   0  0  0  0  0  0  0  0  0  0  0  0
   -1.4534   -0.6979    0.0000 C   0  0  0  0  0  0  0  0  0  0  0  0
   -0.6284   -0.6979    0.0000 C   0  0  0  0  0  0  0  0  0  0  0  0
   -0.1435   -1.3654    0.0000 C   0  0  0  0  0  0  0  0  0  0  0  0
   -0.3984   -2.1500    0.0000 C   0  0  0  0  0  0  0  0  0  0  0  0
    0.1536   -2.7631    0.0000 O   0  0  0  0  0  0  0  0  0  0  0  0
   -1.2054   -2.3215    0.0000 C   0  0  0  0  0  0  0  0  0  0  0  0
   -1.4604   -3.1062    0.0000 C   0  0  0  0  0  0  0  0  0  0  0  0
   -2.2673   -3.2777    0.0000 C   0  0  0  0  0  0  0  0  0  0  0  0
   -2.5223   -4.0623    0.0000 Br  0  0  0  0  0  0  0  0  0  0  0  0
   -2.8194   -2.6646    0.0000 C   0  0  0  0  0  0  0  0  0  0  0  0
   -3.6263   -2.8361    0.0000 O   0  0  0  0  0  0  0  0  0  0  0  0
   -2.5644   -1.8800    0.0000 C   0  0  0  0  0  0  0  0  0  0  0  0
   -3.1165   -1.2669    0.0000 Br  0  0  0  0  0  0  0  0  0  0  0  0
   -1.7575   -1.7084    0.0000 C   0  0  0  0  0  0  0  0  0  0  0  0
    0.6411   -1.1104    0.0000 C   0  0  0  0  0  0  0  0  0  0  0  0
    0.6411   -0.2854    0.0000 C   0  0  0  0  0  0  0  0  0  0  0  0
   -0.1435   -0.0305    0.0000 O   0  0  0  0  0  0  0  0  0  0  0  0
    1.3556    0.1271    0.0000 C   0  0  0  0  0  0  0  0  0  0  0  0
    2.0701   -0.2854    0.0000 C   0  0  0  0  0  0  0  0  0  0  0  0
    2.0701   -1.1104    0.0000 C   0  0  0  0  0  0  0  0  0  0  0  0
    1.3556   -1.5229    0.0000 C   0  0  0  0  0  0  0  0  0  0  0  0
    2.7845    0.1271    0.0000 S   0  0  0  0  0  0  0  0  0  0  0  0
    3.1970   -0.5874    0.0000 O   0  0  0  0  0  0  0  0  0  0  0  0
    2.3720    0.8415    0.0000 O   0  0  0  0  0  0  0  0  0  0  0  0
    3.4990    0.5396    0.0000 N   0  0  0  0  0  0  0  0  0  0  0  0
    4.2135    0.1271    0.0000 C   0  0  0  0  0  0  0  0  0  0  0  0
    4.9279    0.5396    0.0000 C   0  0  0  0  0  0  0  0  0  0  0  0
    5.6424    0.1271    0.0000 C   0  0  0  0  0  0  0  0  0  0  0  0
    5.6424   -0.6979    0.0000 C   0  0  0  0  0  0  0  0  0  0  0  0
    4.9279   -1.1104    0.0000 C   0  0  0  0  0  0  0  0  0  0  0  0
    4.2135   -0.6979    0.0000 C   0  0  0  0  0  0  0  0  0  0  0  0
    6.3569   -1.1104    0.0000 S   0  0  0  0  0  0  0  0  0  0  0  0
    5.9444   -1.8249    0.0000 O   0  0  0  0  0  0  0  0  0  0  0  0
    6.7694   -0.3960    0.0000 O   0  0  0  0  0  0  0  0  0  0  0  0
    7.0714   -1.5229    0.0000 N   0  0  0  0  0  0  0  0  0  0  0  0
    7.0714   -2.3479    0.0000 C   0  0  0  0  0  0  0  0  0  0  0  0
    7.7388   -2.8329    0.0000 N   0  0  0  0  0  0  0  0  0  0  0  0
    7.4839   -3.6175    0.0000 C   0  0  0  0  0  0  0  0  0  0  0  0
    6.6589   -3.6175    0.0000 C   0  0  0  0  0  0  0  0  0  0  0  0
    6.4039   -2.8329    0.0000 S   0  0  0  0  0  0  0  0  0  0  0  0
   -1.3309    0.9432    0.0000 H   0  0  0  0  0  0  0  0  0  0  0  0
   -2.9359    0.0165    0.0000 H   0  0  0  0  0  0  0  0  0  0  0  0
   -2.4009    0.9431    0.0000 H   0  0  0  0  0  0  0  0  0  0  0  0
   -1.9884   -1.6246    0.0000 H   0  0  0  0  0  0  0  0  0  0  0  0
   -0.9184   -1.6245    0.0000 H   0  0  0  0  0  0  0  0  0  0  0  0
   -0.7699   -3.8731    0.0000 H   0  0  0  0  0  0  0  0  0  0  0  0
   -4.2533   -2.1398    0.0000 H   0  0  0  0  0  0  0  0  0  0  0  0
   -1.4387   -0.7269    0.0000 H   0  0  0  0  0  0  0  0  0  0  0  0
    1.3556    1.1591    0.0000 H   0  0  0  0  0  0  0  0  0  0  0  0
    2.9638   -1.6264    0.0000 H   0  0  0  0  0  0  0  0  0  0  0  0
    1.3556   -2.5549    0.0000 H   0  0  0  0  0  0  0  0  0  0  0  0
    3.4990    1.5241    0.0000 H   0  0  0  0  0  0  0  0  0  0  0  0
    4.9279    1.5716    0.0000 H   0  0  0  0  0  0  0  0  0  0  0  0
    6.5361    0.6431    0.0000 H   0  0  0  0  0  0  0  0  0  0  0  0
    4.9279   -2.1424    0.0000 H   0  0  0  0  0  0  0  0  0  0  0  0
    3.3198   -1.2139    0.0000 H   0  0  0  0  0  0  0  0  0  0  0  0
    7.9240   -1.0306    0.0000 H   0  0  0  0  0  0  0  0  0  0  0  0
    8.0905   -4.4524    0.0000 H   0  0  0  0  0  0  0  0  0  0  0  0
    6.0523   -4.4524    0.0000 H   0  0  0  0  0  0  0  0  0  0  0  0
  1  2  1  0  0  0  0
  1 42  1  0  0  0  0
  1 43  1  0  0  0  0
  1 44  1  0  0  0  0
  2  3  1  0  0  0  0
  2 45  1  0  0  0  0
  2 46  1  0  0  0  0
  3  4  2  0  0  0  0
  3 18  1  0  0  0  0
  4  5  1  0  0  0  0
  4 16  1  0  0  0  0
  5  6  2  0  0  0  0
  5  7  1  0  0  0  0
  7  8  2  0  0  0  0
  7 15  1  0  0  0  0
  8  9  1  0  0  0  0
  8 47  1  0  0  0  0
  9 10  1  0  0  0  0
  9 11  2  0  0  0  0
 11 12  1  0  0  0  0
 11 13  1  0  0  0  0
 12 48  1  0  0  0  0
 13 14  1  0  0  0  0
 13 15  2  0  0  0  0
 15 49  1  0  0  0  0
 16 17  2  0  0  0  0
 16 22  1  0  0  0  0
 17 18  1  0  0  0  0
 17 19  1  0  0  0  0
 19 20  2  0  0  0  0
 19 50  1  0  0  0  0
 20 21  1  0  0  0  0
 20 23  1  0  0  0  0
 21 22  2  0  0  0  0
 21 51  1  0  0  0  0
 22 52  1  0  0  0  0
 23 24  2  0  0  0  0
 23 25  2  0  0  0  0
 23 26  1  0  0  0  0
 26 27  1  0  0  0  0
 26 53  1  0  0  0  0
 27 28  2  0  0  0  0
 27 32  1  0  0  0  0
 28 29  1  0  0  0  0
 28 54  1  0  0  0  0
 29 30  2  0  0  0  0
 29 55  1  0  0  0  0
 30 31  1  0  0  0  0
 30 33  1  0  0  0  0
 31 32  2  0  0  0  0
 31 56  1  0  0  0  0
 32 57  1  0  0  0  0
 33 34  2  0  0  0  0
 33 35  2  0  0  0  0
 33 36  1  0  0  0  0
 36 37  1  0  0  0  0
 36 58  1  0  0  0  0
 37 38  2  0  0  0  0
 37 41  1  0  0  0  0
 38 39  1  0  0  0  0
 39 40  2  0  0  0  0
 39 59  1  0  0  0  0
 40 41  1  0  0  0  0
 40 60  1  0  0  0  0
M  END
>  <DRUGBANK_ID>
DB03311

>  <SECONDARY_ACCESSION_NUMBERS>
EXPT01493

>  <COMMON_NAME>
3-(3,5-Dibromo-4-Hydroxy-Benzoyl)-2-Ethyl-Benzofuran-6-Sulfonic Acid [4-(Thiazol-2-Ylsulfamoyl)-Phenyl]-Amide

$$$$
