U03
 OpenBabel10282417072D

 41 43  0  0  0  0  0  0  0  0999 V2000
   -0.4331   -0.0441    0.0000 C   0  0  0  0  0  0  0  0  0  0  0  0
   -0.4331   -0.8691    0.0000 C   0  0  0  0  0  0  0  0  0  0  0  0
    0.9958   -0.8691    0.0000 C   0  0  0  0  0  0  0  0  0  0  0  0
    0.9958   -0.0441    0.0000 C   0  0  0  0  0  0  0  0  0  0  0  0
    0.2814    0.3684    0.0000 C   0  0  0  0  0  0  0  0  0  0  0  0
   -1.8621   -0.0441    0.0000 C   0  0  0  0  0  0  0  0  0  0  0  0
   -1.8621   -0.8691    0.0000 C   0  0  0  0  0  0  0  0  0  0  0  0
   -2.5765   -1.2816    0.0000 C   0  0  0  0  0  0  0  0  0  0  0  0
   -3.2910   -0.8691    0.0000 C   0  0  0  0  0  0  0  0  0  0  0  0
   -3.2910   -0.0441    0.0000 C   0  0  0  0  0  0  0  0  0  0  0  0
   -2.5765    0.3684    0.0000 C   0  0  0  0  0  0  0  0  0  0  0  0
   -1.1476    0.3684    0.0000 C   0  0  2  0  0  0  0  0  0  0  0  0
   -1.1476    1.1934    0.0000 C   0  0  0  0  0  0  0  0  0  0  0  0
   -1.8621    1.6059    0.0000 C   0  0  0  0  0  0  0  0  0  0  0  0
    1.7103   -1.2816    0.0000 C   0  0  0  0  0  0  0  0  0  0  0  0
    2.4248   -0.8691    0.0000 C   0  0  0  0  0  0  0  0  0  0  0  0
    2.4248   -0.0441    0.0000 C   0  0  0  0  0  0  0  0  0  0  0  0
    1.7103    0.3684    0.0000 C   0  0  0  0  0  0  0  0  0  0  0  0
    3.8537   -0.8691    0.0000 C   0  0  0  0  0  0  0  0  0  0  0  0
   -1.1476   -1.2816    0.0000 O   0  0  0  0  0  0  0  0  0  0  0  0
    0.2814   -1.2816    0.0000 O   0  0  0  0  0  0  0  0  0  0  0  0
    0.2814    1.1934    0.0000 O   0  0  0  0  0  0  0  0  0  0  0  0
    3.1392   -1.2816    0.0000 O   0  0  0  0  0  0  0  0  0  0  0  0
   -1.1476   -0.2155    0.0000 H   0  0  0  0  0  0  0  0  0  0  0  0
   -0.9684   -1.3851    0.0000 H   0  0  0  0  0  0  0  0  0  0  0  0
   -2.5765   -2.3136    0.0000 H   0  0  0  0  0  0  0  0  0  0  0  0
   -4.1847   -1.3851    0.0000 H   0  0  0  0  0  0  0  0  0  0  0  0
   -4.1847    0.4719    0.0000 H   0  0  0  0  0  0  0  0  0  0  0  0
   -2.5765    1.4004    0.0000 H   0  0  0  0  0  0  0  0  0  0  0  0
   -0.2210    1.7284    0.0000 H   0  0  0  0  0  0  0  0  0  0  0  0
   -1.1476    2.2634    0.0000 H   0  0  0  0  0  0  0  0  0  0  0  0
   -1.8621    2.6759    0.0000 H   0  0  0  0  0  0  0  0  0  0  0  0
   -2.7887    1.0709    0.0000 H   0  0  0  0  0  0  0  0  0  0  0  0
   -2.7888    2.1409    0.0000 H   0  0  0  0  0  0  0  0  0  0  0  0
    1.7103   -2.3136    0.0000 H   0  0  0  0  0  0  0  0  0  0  0  0
    3.3185    0.4719    0.0000 H   0  0  0  0  0  0  0  0  0  0  0  0
    1.7103    1.4004    0.0000 H   0  0  0  0  0  0  0  0  0  0  0  0
    4.7803   -1.4041    0.0000 H   0  0  0  0  0  0  0  0  0  0  0  0
    3.8537    0.2009    0.0000 H   0  0  0  0  0  0  0  0  0  0  0  0
    4.7804   -0.3341    0.0000 H   0  0  0  0  0  0  0  0  0  0  0  0
    1.0929    1.6619    0.0000 H   0  0  0  0  0  0  0  0  0  0  0  0
  1  2  1  0  0  0  0
  1  5  2  0  0  0  0
  1 12  1  0  0  0  0
  2 20  2  0  0  0  0
  2 21  1  0  0  0  0
  3  4  2  0  0  0  0
  3 15  1  0  0  0  0
  3 21  1  0  0  0  0
  4  5  1  0  0  0  0
  4 18  1  0  0  0  0
  5 22  1  0  0  0  0
  6  7  2  0  0  0  0
  6 11  1  0  0  0  0
  6 12  1  0  0  0  0
  7  8  1  0  0  0  0
  7 25  1  0  0  0  0
  8  9  2  0  0  0  0
  8 26  1  0  0  0  0
  9 10  1  0  0  0  0
  9 27  1  0  0  0  0
 10 11  2  0  0  0  0
 10 28  1  0  0  0  0
 11 29  1  0  0  0  0
 12 13  1  0  0  0  0
 12 24  1  1  0  0  0
 13 14  1  0  0  0  0
 13 30  1  0  0  0  0
 13 31  1  0  0  0  0
 14 32  1  0  0  0  0
 14 33  1  0  0  0  0
 14 34  1  0  0  0  0
 15 16  2  0  0  0  0
 15 35  1  0  0  0  0
 16 17  1  0  0  0  0
 16 23  1  0  0  0  0
 17 18  2  0  0  0  0
 17 36  1  0  0  0  0
 18 37  1  0  0  0  0
 19 23  1  0  0  0  0
 19 38  1  0  0  0  0
 19 39  1  0  0  0  0
 19 40  1  0  0  0  0
 22 41  1  0  0  0  0
M  END
>  <DRUGBANK_ID>
DB08663

>  <COMMON_NAME>
4-HYDROXY-7-METHOXY-3-(1-PHENYL-PROPYL)-CHROMEN-2-ONE

$$$$
