
 OpenBabel10282417072D

 35 36  0  0  1  0  0  0  0  0999 V2000
    2.5559    5.2520    0.0000 C   0  0  0  0  0  0  0  0  0  0  0  0
    1.8414    5.6645    0.0000 C   0  0  0  0  0  0  0  0  0  0  0  0
    0.4125    8.9645    0.0000 C   0  0  0  0  0  0  0  0  0  0  0  0
    2.9684    3.7125    0.0000 C   0  0  0  0  0  0  0  0  0  0  0  0
    2.5559    4.4270    0.0000 C   0  0  1  0  0  0  0  0  0  0  0  0
    0.4125    8.1395    0.0000 C   0  0  2  0  0  0  0  0  0  0  0  0
   -0.3020    7.7270    0.0000 C   0  0  2  0  0  0  0  0  0  0  0  0
   -0.3020    6.9020    0.0000 C   0  0  1  0  0  0  0  0  0  0  0  0
    0.4125    6.4895    0.0000 C   0  0  2  0  0  0  0  0  0  0  0  0
    1.1270    6.9020    0.0000 C   0  0  1  0  0  0  0  0  0  0  0  0
   -0.3020    9.3770    0.0000 O   0  0  0  0  0  0  0  0  0  0  0  0
   -1.0164    8.1395    0.0000 O   0  0  0  0  0  0  0  0  0  0  0  0
   -1.0164    6.4895    0.0000 O   0  0  0  0  0  0  0  0  0  0  0  0
    0.4125    5.6645    0.0000 O   0  0  0  0  0  0  0  0  0  0  0  0
    1.8414    6.4895    0.0000 O   0  0  0  0  0  0  0  0  0  0  0  0
    2.1434    3.7125    0.0000 O   0  0  0  0  0  0  0  0  0  0  0  0
    1.1270    7.7270    0.0000 O   0  0  0  0  0  0  0  0  0  0  0  0
    3.3528    4.6405    0.0000 H   0  0  0  0  0  0  0  0  0  0  0  0
   -0.4000    8.2827    0.0000 H   0  0  0  0  0  0  0  0  0  0  0  0
   -0.5841    8.5022    0.0000 H   0  0  0  0  0  0  0  0  0  0  0  0
   -1.0164    7.3145    0.0000 H   0  0  0  0  0  0  0  0  0  0  0  0
   -0.3020    6.0770    0.0000 H   0  0  0  0  0  0  0  0  0  0  0  0
    1.1270    6.0770    0.0000 H   0  0  0  0  0  0  0  0  0  0  0  0
    3.4825    5.7870    0.0000 H   0  0  0  0  0  0  0  0  0  0  0  0
    3.4825    4.7170    0.0000 H   0  0  0  0  0  0  0  0  0  0  0  0
    0.9148    5.1295    0.0000 H   0  0  0  0  0  0  0  0  0  0  0  0
    0.9148    6.1995    0.0000 H   0  0  0  0  0  0  0  0  0  0  0  0
    1.3391    9.4995    0.0000 H   0  0  0  0  0  0  0  0  0  0  0  0
    0.4125   10.0345    0.0000 H   0  0  0  0  0  0  0  0  0  0  0  0
    3.8950    3.1775    0.0000 H   0  0  0  0  0  0  0  0  0  0  0  0
    2.6915    2.6790    0.0000 H   0  0  0  0  0  0  0  0  0  0  0  0
   -0.3020   10.3470    0.0000 H   0  0  0  0  0  0  0  0  0  0  0  0
   -1.0164    9.1095    0.0000 H   0  0  0  0  0  0  0  0  0  0  0  0
   -1.8565    6.9745    0.0000 H   0  0  0  0  0  0  0  0  0  0  0  0
   -0.4275    5.1795    0.0000 H   0  0  0  0  0  0  0  0  0  0  0  0
  1 24  1  0  0  0  0
  1 25  1  0  0  0  0
  2  1  1  0  0  0  0
  2 26  1  0  0  0  0
  2 27  1  0  0  0  0
  3 28  1  0  0  0  0
  3 29  1  0  0  0  0
  4 30  1  0  0  0  0
  4 31  1  0  0  0  0
  5  1  1  0  0  0  0
  5  4  1  0  0  0  0
  5 18  1  6  0  0  0
  6  3  1  0  0  0  0
  6 19  1  6  0  0  0
  7  6  1  0  0  0  0
  7 12  1  0  0  0  0
  7 20  1  1  0  0  0
  8  7  1  0  0  0  0
  8 13  1  0  0  0  0
  8 21  1  6  0  0  0
  9  8  1  0  0  0  0
  9 14  1  0  0  0  0
  9 22  1  1  0  0  0
 10  9  1  0  0  0  0
 10 15  1  0  0  0  0
 10 23  1  1  0  0  0
 11  3  1  0  0  0  0
 11 32  1  0  0  0  0
 12 33  1  0  0  0  0
 13 34  1  0  0  0  0
 14 35  1  0  0  0  0
 15  2  1  0  0  0  0
 16  4  1  0  0  0  0
 16  5  1  0  0  0  0
 17  6  1  0  0  0  0
 17 10  1  0  0  0  0
M  END
>  <DRUGBANK_ID>
DB02645

>  <SECONDARY_ACCESSION_NUMBERS>
EXPT01323

>  <COMMON_NAME>
3,4-Epoxybutyl-Alpha-D-Glucopyranoside

$$$$
