
 OpenBabel10282417072D

 55 59  0  0  0  0  0  0  0  0999 V2000
    3.7121   -3.0679    0.0000 C   0  0  0  0  0  0  0  0  0  0  0  0
    4.1021   -2.3409    0.0000 C   0  0  0  0  0  0  0  0  0  0  0  0
    4.9267   -2.3152    0.0000 C   0  0  0  0  0  0  0  0  0  0  0  0
    5.3167   -1.5882    0.0000 C   0  0  0  0  0  0  0  0  0  0  0  0
    4.8821   -0.8869    0.0000 C   0  0  0  0  0  0  0  0  0  0  0  0
    4.0575   -0.9127    0.0000 C   0  0  0  0  0  0  0  0  0  0  0  0
    3.6675   -1.6397    0.0000 C   0  0  0  0  0  0  0  0  0  0  0  0
    2.8429   -1.6655    0.0000 C   0  0  0  0  0  0  0  0  0  0  0  0
    2.4083   -0.9642    0.0000 N   0  0  0  0  0  0  0  0  0  0  0  0
    2.7983   -0.2372    0.0000 C   0  0  0  0  0  0  0  0  0  0  0  0
    3.5995   -0.0406    0.0000 N   0  0  0  0  0  0  0  0  0  0  0  0
    3.6601    0.7822    0.0000 C   0  0  0  0  0  0  0  0  0  0  0  0
    2.8963    1.0941    0.0000 C   0  0  0  0  0  0  0  0  0  0  0  0
    2.3637    0.4640    0.0000 N   0  0  0  0  0  0  0  0  0  0  0  0
    1.5391    0.4383    0.0000 C   0  0  0  0  0  0  0  0  0  0  0  0
    1.1491   -0.2887    0.0000 C   0  0  0  0  0  0  0  0  0  0  0  0
    0.3245   -0.3145    0.0000 C   0  0  0  0  0  0  0  0  0  0  0  0
   -0.1101    0.3867    0.0000 N   0  0  0  0  0  0  0  0  0  0  0  0
   -0.9347    0.3610    0.0000 C   0  0  0  0  0  0  0  0  0  0  0  0
   -1.3693    1.0622    0.0000 C   0  0  0  0  0  0  0  0  0  0  0  0
   -2.1939    1.0365    0.0000 C   0  0  0  0  0  0  0  0  0  0  0  0
   -2.6285    1.7377    0.0000 C   0  0  0  0  0  0  0  0  0  0  0  0
   -2.2386    2.4647    0.0000 C   0  0  0  0  0  0  0  0  0  0  0  0
   -1.4140    2.4905    0.0000 C   0  0  0  0  0  0  0  0  0  0  0  0
   -0.9793    1.7892    0.0000 C   0  0  0  0  0  0  0  0  0  0  0  0
    0.2799    1.1137    0.0000 C   0  0  0  0  0  0  0  0  0  0  0  0
    1.1045    1.1395    0.0000 C   0  0  0  0  0  0  0  0  0  0  0  0
    1.5837   -0.9900    0.0000 C   0  0  0  0  0  0  0  0  0  0  0  0
    1.1937   -1.7170    0.0000 O   0  0  0  0  0  0  0  0  0  0  0  0
    2.6426   -3.1013    0.0000 H   0  0  0  0  0  0  0  0  0  0  0  0
    4.2758   -3.9774    0.0000 H   0  0  0  0  0  0  0  0  0  0  0  0
    3.2063   -4.0108    0.0000 H   0  0  0  0  0  0  0  0  0  0  0  0
    5.4703   -3.1924    0.0000 H   0  0  0  0  0  0  0  0  0  0  0  0
    6.3482   -1.5560    0.0000 H   0  0  0  0  0  0  0  0  0  0  0  0
    5.3699    0.0225    0.0000 H   0  0  0  0  0  0  0  0  0  0  0  0
    3.5138   -0.0355    0.0000 H   0  0  0  0  0  0  0  0  0  0  0  0
    2.3371   -2.6084    0.0000 H   0  0  0  0  0  0  0  0  0  0  0  0
    1.7734   -1.6989    0.0000 H   0  0  0  0  0  0  0  0  0  0  0  0
    4.5696    1.3458    0.0000 H   0  0  0  0  0  0  0  0  0  0  0  0
    3.5708    1.8485    0.0000 H   0  0  0  0  0  0  0  0  0  0  0  0
    2.6412    2.1333    0.0000 H   0  0  0  0  0  0  0  0  0  0  0  0
    1.8546    1.3386    0.0000 H   0  0  0  0  0  0  0  0  0  0  0  0
   -0.1813   -1.2574    0.0000 H   0  0  0  0  0  0  0  0  0  0  0  0
   -0.7450   -0.3479    0.0000 H   0  0  0  0  0  0  0  0  0  0  0  0
   -1.4405   -0.5819    0.0000 H   0  0  0  0  0  0  0  0  0  0  0  0
   -2.0042    0.3276    0.0000 H   0  0  0  0  0  0  0  0  0  0  0  0
   -2.6818    0.1271    0.0000 H   0  0  0  0  0  0  0  0  0  0  0  0
   -3.6600    1.7054    0.0000 H   0  0  0  0  0  0  0  0  0  0  0  0
   -2.7823    3.3419    0.0000 H   0  0  0  0  0  0  0  0  0  0  0  0
   -0.9262    3.3999    0.0000 H   0  0  0  0  0  0  0  0  0  0  0  0
    0.0522    1.8214    0.0000 H   0  0  0  0  0  0  0  0  0  0  0  0
   -0.2838    2.0232    0.0000 H   0  0  0  0  0  0  0  0  0  0  0  0
    0.7857    2.0566    0.0000 H   0  0  0  0  0  0  0  0  0  0  0  0
    1.6103    2.0824    0.0000 H   0  0  0  0  0  0  0  0  0  0  0  0
    2.1740    1.1729    0.0000 H   0  0  0  0  0  0  0  0  0  0  0  0
  1  2  1  0  0  0  0
  1 30  1  0  0  0  0
  1 31  1  0  0  0  0
  1 32  1  0  0  0  0
  2  3  2  0  0  0  0
  2  7  1  0  0  0  0
  3  4  1  0  0  0  0
  3 33  1  0  0  0  0
  4  5  2  0  0  0  0
  4 34  1  0  0  0  0
  5  6  1  0  0  0  0
  5 35  1  0  0  0  0
  6  7  2  0  0  0  0
  6 36  1  0  0  0  0
  7  8  1  0  0  0  0
  8  9  1  0  0  0  0
  8 37  1  0  0  0  0
  8 38  1  0  0  0  0
  9 10  1  0  0  0  0
  9 28  1  0  0  0  0
 10 11  2  0  0  0  0
 10 14  1  0  0  0  0
 11 12  1  0  0  0  0
 12 13  1  0  0  0  0
 12 39  1  0  0  0  0
 12 40  1  0  0  0  0
 13 14  1  0  0  0  0
 13 41  1  0  0  0  0
 13 42  1  0  0  0  0
 14 15  1  0  0  0  0
 15 16  2  0  0  0  0
 15 27  1  0  0  0  0
 16 17  1  0  0  0  0
 16 28  1  0  0  0  0
 17 18  1  0  0  0  0
 17 43  1  0  0  0  0
 17 44  1  0  0  0  0
 18 19  1  0  0  0  0
 18 26  1  0  0  0  0
 19 20  1  0  0  0  0
 19 45  1  0  0  0  0
 19 46  1  0  0  0  0
 20 21  2  0  0  0  0
 20 25  1  0  0  0  0
 21 22  1  0  0  0  0
 21 47  1  0  0  0  0
 22 23  2  0  0  0  0
 22 48  1  0  0  0  0
 23 24  1  0  0  0  0
 23 49  1  0  0  0  0
 24 25  2  0  0  0  0
 24 50  1  0  0  0  0
 25 51  1  0  0  0  0
 26 27  1  0  0  0  0
 26 52  1  0  0  0  0
 26 53  1  0  0  0  0
 27 54  1  0  0  0  0
 27 55  1  0  0  0  0
 28 29  2  0  0  0  0
M  END
>  <DRUGBANK_ID>
DB14844

>  <COMMON_NAME>
Dordaviprone

>  <CAS_NUMBER>
1616632-77-9

>  <UNII>
9U35A31JAI

>  <SYNONYMS>
2,4,6,7,8,9-Hexahydro-4-((2-methylphenyl)methyl)-7-phenylmethyl)imidazo)(1,2-a)pyrido(3,4-e)pyrimidin-5(1H)-one; 7-benzyl-4-(2-methylbenzyl)-1,2,6,7,8,9-hexahydroimidazo(1,2-A)pyrido(3,4-E)pyrimidin-5(4H)-one

$$$$
