CT0
 OpenBabel10282417072D

 29 30  0  0  0  0  0  0  0  0999 V2000
   -0.2227   -1.0795    0.0000 O   0  0  0  0  0  0  0  0  0  0  0  0
   -0.2227   -0.2544    0.0000 C   0  0  0  0  0  0  0  0  0  0  0  0
   -0.9372    0.1581    0.0000 N   0  0  0  0  0  0  0  0  0  0  0  0
   -1.6517   -0.2544    0.0000 C   0  0  0  0  0  0  0  0  0  0  0  0
   -1.7379   -1.0750    0.0000 N   0  0  0  0  0  0  0  0  0  0  0  0
   -2.4054    0.0811    0.0000 S   0  0  0  0  0  0  0  0  0  0  0  0
   -2.9575   -0.5320    0.0000 C   0  0  0  0  0  0  0  0  0  0  0  0
   -2.5450   -1.2465    0.0000 C   0  0  0  0  0  0  0  0  0  0  0  0
    0.4918    0.9832    0.0000 O   0  0  0  0  0  0  0  0  0  0  0  0
    0.4918    0.1581    0.0000 C   0  0  0  0  0  0  0  0  0  0  0  0
    1.2064   -0.2544    0.0000 N   0  0  0  0  0  0  0  0  0  0  0  0
    1.9209    0.1581    0.0000 C   0  0  0  0  0  0  0  0  0  0  0  0
    2.0071    0.9786    0.0000 C   0  0  0  0  0  0  0  0  0  0  0  0
    2.6746   -0.1775    0.0000 C   0  0  0  0  0  0  0  0  0  0  0  0
    3.2267    0.4356    0.0000 C   0  0  0  0  0  0  0  0  0  0  0  0
    2.8142    1.1502    0.0000 C   0  0  0  0  0  0  0  0  0  0  0  0
   -0.9372    1.1426    0.0000 H   0  0  0  0  0  0  0  0  0  0  0  0
   -3.9838   -0.4241    0.0000 H   0  0  0  0  0  0  0  0  0  0  0  0
   -2.9648   -2.1893    0.0000 H   0  0  0  0  0  0  0  0  0  0  0  0
    1.2064   -1.2389    0.0000 H   0  0  0  0  0  0  0  0  0  0  0  0
    2.8475    0.6931    0.0000 H   0  0  0  0  0  0  0  0  0  0  0  0
    1.2119    1.6945    0.0000 H   0  0  0  0  0  0  0  0  0  0  0  0
    2.2840    2.0122    0.0000 H   0  0  0  0  0  0  0  0  0  0  0  0
    2.8970   -1.2241    0.0000 H   0  0  0  0  0  0  0  0  0  0  0  0
    3.7081   -0.4545    0.0000 H   0  0  0  0  0  0  0  0  0  0  0  0
    4.2908    0.3237    0.0000 H   0  0  0  0  0  0  0  0  0  0  0  0
    3.8095    1.3329    0.0000 H   0  0  0  0  0  0  0  0  0  0  0  0
    3.2494    2.1277    0.0000 H   0  0  0  0  0  0  0  0  0  0  0  0
    3.8827    1.2062    0.0000 H   0  0  0  0  0  0  0  0  0  0  0  0
  1  2  2  0  0  0  0
  2  3  1  0  0  0  0
  2 10  1  0  0  0  0
  3  4  1  0  0  0  0
  3 17  1  0  0  0  0
  4  5  2  0  0  0  0
  4  6  1  0  0  0  0
  5  8  1  0  0  0  0
  6  7  1  0  0  0  0
  7  8  2  0  0  0  0
  7 18  1  0  0  0  0
  8 19  1  0  0  0  0
  9 10  2  0  0  0  0
 10 11  1  0  0  0  0
 11 12  1  0  0  0  0
 11 20  1  0  0  0  0
 12 13  1  0  0  0  0
 12 14  1  0  0  0  0
 12 21  1  0  0  0  0
 13 16  1  0  0  0  0
 13 22  1  0  0  0  0
 13 23  1  0  0  0  0
 14 15  1  0  0  0  0
 14 24  1  0  0  0  0
 14 25  1  0  0  0  0
 15 16  1  0  0  0  0
 15 26  1  0  0  0  0
 15 27  1  0  0  0  0
 16 28  1  0  0  0  0
 16 29  1  0  0  0  0
M  END
>  <DRUGBANK_ID>
DB07591

>  <COMMON_NAME>
N1-CYCLOPENTYL-N2-(THIAZOL-2-YL)OXALAMIDE

$$$$
