497
 OpenBabel10282417072D

 52 55  0  0  0  0  0  0  0  0999 V2000
   -3.3411    0.5936    0.0000 C   0  0  0  0  0  0  0  0  0  0  0  0
   -2.6266    0.1811    0.0000 C   0  0  0  0  0  0  0  0  0  0  0  0
   -2.6266   -0.6439    0.0000 C   0  0  1  0  0  0  0  0  0  0  0  0
   -3.3411   -1.0564    0.0000 C   0  0  0  0  0  0  0  0  0  0  0  0
   -3.3411   -1.8814    0.0000 N   0  0  0  0  0  0  0  0  0  0  0  0
   -2.6266   -2.2939    0.0000 C   0  0  0  0  0  0  0  0  0  0  0  0
   -1.9122   -1.8814    0.0000 C   0  0  0  0  0  0  0  0  0  0  0  0
   -1.9122   -1.0564    0.0000 C   0  0  0  0  0  0  0  0  0  0  0  0
   -1.1977   -0.6439    0.0000 C   0  0  0  0  0  0  0  0  0  0  0  0
   -0.4832   -1.0564    0.0000 C   0  0  0  0  0  0  0  0  0  0  0  0
    0.2313   -0.6439    0.0000 N   0  0  0  0  0  0  0  0  0  0  0  0
    0.2313    0.1811    0.0000 C   0  0  0  0  0  0  0  0  0  0  0  0
   -0.4832    0.5936    0.0000 O   0  0  0  0  0  0  0  0  0  0  0  0
    0.9457    0.5936    0.0000 C   0  0  0  0  0  0  0  0  0  0  0  0
    0.9457    1.4186    0.0000 C   0  0  0  0  0  0  0  0  0  0  0  0
    1.6602    1.8311    0.0000 C   0  0  0  0  0  0  0  0  0  0  0  0
    2.3747    1.4186    0.0000 C   0  0  0  0  0  0  0  0  0  0  0  0
    3.0891    1.8311    0.0000 C   0  0  0  0  0  0  0  0  0  0  0  0
    3.8036    1.4186    0.0000 C   0  0  0  0  0  0  0  0  0  0  0  0
    3.8036    0.5936    0.0000 C   0  0  0  0  0  0  0  0  0  0  0  0
    3.0891    0.1811    0.0000 C   0  0  0  0  0  0  0  0  0  0  0  0
    2.3747    0.5936    0.0000 C   0  0  0  0  0  0  0  0  0  0  0  0
    1.6602    0.1811    0.0000 C   0  0  0  0  0  0  0  0  0  0  0  0
    4.5181    1.8311    0.0000 C   0  0  0  0  0  0  0  0  0  0  0  0
    4.5181    2.6561    0.0000 N   0  0  0  0  0  0  0  0  0  0  0  0
    5.2326    1.4186    0.0000 N   0  0  0  0  0  0  0  0  0  0  0  0
   -0.4832   -1.8814    0.0000 C   0  0  0  0  0  0  0  0  0  0  0  0
   -1.1977   -2.2939    0.0000 C   0  0  0  0  0  0  0  0  0  0  0  0
   -3.1323   -0.3519    0.0000 H   0  0  0  0  0  0  0  0  0  0  0  0
   -3.3411    1.6636    0.0000 H   0  0  0  0  0  0  0  0  0  0  0  0
   -4.2677    0.0586    0.0000 H   0  0  0  0  0  0  0  0  0  0  0  0
   -4.2678    1.1286    0.0000 H   0  0  0  0  0  0  0  0  0  0  0  0
   -1.7000    0.7161    0.0000 H   0  0  0  0  0  0  0  0  0  0  0  0
   -1.7000   -0.3539    0.0000 H   0  0  0  0  0  0  0  0  0  0  0  0
   -4.2677   -0.5214    0.0000 H   0  0  0  0  0  0  0  0  0  0  0  0
   -4.2677   -1.5914    0.0000 H   0  0  0  0  0  0  0  0  0  0  0  0
   -4.2244   -2.3914    0.0000 H   0  0  0  0  0  0  0  0  0  0  0  0
   -2.6266   -3.3639    0.0000 H   0  0  0  0  0  0  0  0  0  0  0  0
   -1.6999   -2.8289    0.0000 H   0  0  0  0  0  0  0  0  0  0  0  0
   -1.1977    0.3881    0.0000 H   0  0  0  0  0  0  0  0  0  0  0  0
    1.0839   -1.1362    0.0000 H   0  0  0  0  0  0  0  0  0  0  0  0
    0.0520    1.9346    0.0000 H   0  0  0  0  0  0  0  0  0  0  0  0
    1.6602    2.8631    0.0000 H   0  0  0  0  0  0  0  0  0  0  0  0
    3.0891    2.8631    0.0000 H   0  0  0  0  0  0  0  0  0  0  0  0
    4.6973    0.0776    0.0000 H   0  0  0  0  0  0  0  0  0  0  0  0
    3.0891   -0.8509    0.0000 H   0  0  0  0  0  0  0  0  0  0  0  0
    1.6602   -0.8509    0.0000 H   0  0  0  0  0  0  0  0  0  0  0  0
    5.3707    3.1484    0.0000 H   0  0  0  0  0  0  0  0  0  0  0  0
    3.6655    3.1483    0.0000 H   0  0  0  0  0  0  0  0  0  0  0  0
    5.2326    0.4341    0.0000 H   0  0  0  0  0  0  0  0  0  0  0  0
    0.4105   -2.3974    0.0000 H   0  0  0  0  0  0  0  0  0  0  0  0
   -1.1977   -3.3259    0.0000 H   0  0  0  0  0  0  0  0  0  0  0  0
  1  2  1  0  0  0  0
  1 30  1  0  0  0  0
  1 31  1  0  0  0  0
  1 32  1  0  0  0  0
  2 33  1  0  0  0  0
  2 34  1  0  0  0  0
  3  2  1  0  0  0  0
  3  4  1  0  0  0  0
  3  8  1  0  0  0  0
  3 29  1  1  0  0  0
  4  5  1  0  0  0  0
  4 35  1  0  0  0  0
  4 36  1  0  0  0  0
  5  6  1  0  0  0  0
  5 37  1  0  0  0  0
  6  7  1  0  0  0  0
  6 38  1  0  0  0  0
  6 39  1  0  0  0  0
  7  8  2  0  0  0  0
  7 28  1  0  0  0  0
  8  9  1  0  0  0  0
  9 10  2  0  0  0  0
  9 40  1  0  0  0  0
 10 11  1  0  0  0  0
 10 27  1  0  0  0  0
 11 12  1  0  0  0  0
 11 41  1  0  0  0  0
 12 13  2  0  0  0  0
 12 14  1  0  0  0  0
 14 15  2  0  0  0  0
 14 23  1  0  0  0  0
 15 16  1  0  0  0  0
 15 42  1  0  0  0  0
 16 17  2  0  0  0  0
 16 43  1  0  0  0  0
 17 18  1  0  0  0  0
 17 22  1  0  0  0  0
 18 19  2  0  0  0  0
 18 44  1  0  0  0  0
 19 20  1  0  0  0  0
 19 24  1  0  0  0  0
 20 21  2  0  0  0  0
 20 45  1  0  0  0  0
 21 22  1  0  0  0  0
 21 46  1  0  0  0  0
 22 23  2  0  0  0  0
 23 47  1  0  0  0  0
 24 25  1  0  0  0  0
 24 26  2  0  0  0  0
 25 48  1  0  0  0  0
 25 49  1  0  0  0  0
 26 50  1  0  0  0  0
 27 28  2  0  0  0  0
 27 51  1  0  0  0  0
 28 52  1  0  0  0  0
M  END
>  <DRUGBANK_ID>
DB02551

>  <SECONDARY_ACCESSION_NUMBERS>
EXPT00201

>  <COMMON_NAME>
6-[N-(4-Ethyl-1,2,3,4-Tetrahydro-6-Isoquinolinyl)Carbamyl]-2-Naphthalenecarboxamidine

$$$$
