
 OpenBabel10282417072D

  9  6  0  0  0  0  0  0  0  0999 V2000
    1.4808    0.8023    0.0000 Na  0  3  0  0  0  0  0  0  0  0  0  0
    1.5238   -0.0720    0.0000 Na  0  3  0  0  0  0  0  0  0  0  0  0
   -1.5238   -0.7144    0.0000 O   0  5  0  0  0  0  0  0  0  0  0  0
   -1.1113    0.0000    0.0000 S   0  0  3  0  0  0  0  0  0  0  0  0
   -0.2863    0.0000    0.0000 S   0  0  0  0  0  0  0  0  0  0  0  0
   -0.2863    0.8250    0.0000 O   0  0  0  0  0  0  0  0  0  0  0  0
   -1.5238    0.7145    0.0000 O   0  0  0  0  0  0  0  0  0  0  0  0
   -0.2863   -0.8250    0.0000 O   0  5  0  0  0  0  0  0  0  0  0  0
    0.5386    0.0000    0.0000 O   0  0  0  0  0  0  0  0  0  0  0  0
  3  4  1  0  0  0  0
  4  5  1  0  0  0  0
  4  7  2  0  0  0  0
  5  6  2  0  0  0  0
  5  8  1  0  0  0  0
  5  9  2  0  0  0  0
M  CHG  4   1   1   2   1   3  -1   8  -1
M  END
>  <DRUGBANK_ID>
DB15842

>  <COMMON_NAME>
Sodium metabisulfite

>  <CAS_NUMBER>
7681-57-4

>  <UNII>
4VON5FNS3C

>  <SYNONYMS>
Disodium pentaoxodisulfate; Disodium pyrosulfite; Disodium pyrosulphite; Disulfurous acid, disodium salt; Sodium metabisulfite; Sodium metabisulphite; Sodium pyrosulfite; Sodium pyrosulphite

$$$$
