
 OpenBabel10282417072D

 50 49  0  0  1  0  0  0  0  0999 V2000
   -2.0329   -1.6500    0.0000 C   0  0  0  0  0  0  0  0  0  0  0  0
   -1.3184   -1.2375    0.0000 S   0  0  0  0  0  0  0  0  0  0  0  0
   -0.9059   -1.9520    0.0000 O   0  0  0  0  0  0  0  0  0  0  0  0
   -1.7309   -0.5230    0.0000 O   0  0  0  0  0  0  0  0  0  0  0  0
   -0.6039   -0.8250    0.0000 O   0  0  0  0  0  0  0  0  0  0  0  0
    0.1105   -1.2375    0.0000 C   0  0  0  0  0  0  0  0  0  0  0  0
    0.8250   -0.8250    0.0000 C   0  0  2  0  0  0  0  0  0  0  0  0
    1.5395   -1.2375    0.0000 C   0  0  2  0  0  0  0  0  0  0  0  0
    1.5395   -2.0625    0.0000 C   0  0  1  0  0  0  0  0  0  0  0  0
    2.2539   -2.4750    0.0000 C   0  0  1  0  0  0  0  0  0  0  0  0
    2.9684   -2.0625    0.0000 C   0  0  0  0  0  0  0  0  0  0  0  0
    3.6829   -2.4750    0.0000 O   0  0  0  0  0  0  0  0  0  0  0  0
    4.3974   -2.0625    0.0000 S   0  0  0  0  0  0  0  0  0  0  0  0
    5.1118   -1.6500    0.0000 O   0  0  0  0  0  0  0  0  0  0  0  0
    4.8099   -2.7770    0.0000 O   0  0  0  0  0  0  0  0  0  0  0  0
    3.9849   -1.3480    0.0000 C   0  0  0  0  0  0  0  0  0  0  0  0
    2.2539   -3.3000    0.0000 O   0  0  0  0  0  0  0  0  0  0  0  0
    1.5395   -3.7125    0.0000 S   0  0  0  0  0  0  0  0  0  0  0  0
    1.1270   -2.9980    0.0000 O   0  0  0  0  0  0  0  0  0  0  0  0
    1.9520   -4.4270    0.0000 O   0  0  0  0  0  0  0  0  0  0  0  0
    0.8250   -4.1250    0.0000 C   0  0  0  0  0  0  0  0  0  0  0  0
    0.8250   -2.4750    0.0000 O   0  0  0  0  0  0  0  0  0  0  0  0
    2.2539   -0.8250    0.0000 O   0  0  0  0  0  0  0  0  0  0  0  0
    0.8250    0.0000    0.0000 O   0  0  0  0  0  0  0  0  0  0  0  0
    1.5395    0.4125    0.0000 S   0  0  0  0  0  0  0  0  0  0  0  0
    1.9520   -0.3020    0.0000 O   0  0  0  0  0  0  0  0  0  0  0  0
    1.1270    1.1270    0.0000 O   0  0  0  0  0  0  0  0  0  0  0  0
    2.2539    0.8250    0.0000 C   0  0  0  0  0  0  0  0  0  0  0  0
   -2.9595   -1.1150    0.0000 H   0  0  0  0  0  0  0  0  0  0  0  0
   -2.0329   -2.7200    0.0000 H   0  0  0  0  0  0  0  0  0  0  0  0
   -2.9596   -2.1850    0.0000 H   0  0  0  0  0  0  0  0  0  0  0  0
    0.1105   -2.3075    0.0000 H   0  0  0  0  0  0  0  0  0  0  0  0
    1.0371   -1.7725    0.0000 H   0  0  0  0  0  0  0  0  0  0  0  0
   -0.1016   -0.2900    0.0000 H   0  0  0  0  0  0  0  0  0  0  0  0
    1.5395   -0.1675    0.0000 H   0  0  0  0  0  0  0  0  0  0  0  0
    0.6129   -1.5275    0.0000 H   0  0  0  0  0  0  0  0  0  0  0  0
    1.3272   -3.0100    0.0000 H   0  0  0  0  0  0  0  0  0  0  0  0
    2.9684   -0.9925    0.0000 H   0  0  0  0  0  0  0  0  0  0  0  0
    3.8950   -1.5275    0.0000 H   0  0  0  0  0  0  0  0  0  0  0  0
    4.5199   -0.4214    0.0000 H   0  0  0  0  0  0  0  0  0  0  0  0
    2.9149   -1.3480    0.0000 H   0  0  0  0  0  0  0  0  0  0  0  0
    3.4499   -0.4213    0.0000 H   0  0  0  0  0  0  0  0  0  0  0  0
   -0.1016   -3.5900    0.0000 H   0  0  0  0  0  0  0  0  0  0  0  0
    0.8250   -5.1950    0.0000 H   0  0  0  0  0  0  0  0  0  0  0  0
   -0.1017   -4.6600    0.0000 H   0  0  0  0  0  0  0  0  0  0  0  0
   -0.0150   -1.9900    0.0000 H   0  0  0  0  0  0  0  0  0  0  0  0
    3.0940   -1.3100    0.0000 H   0  0  0  0  0  0  0  0  0  0  0  0
    3.1806    0.2900    0.0000 H   0  0  0  0  0  0  0  0  0  0  0  0
    2.2539    1.8950    0.0000 H   0  0  0  0  0  0  0  0  0  0  0  0
    3.1805    1.3600    0.0000 H   0  0  0  0  0  0  0  0  0  0  0  0
  1  2  1  0  0  0  0
  1 29  1  0  0  0  0
  1 30  1  0  0  0  0
  1 31  1  0  0  0  0
  2  3  2  0  0  0  0
  2  4  2  0  0  0  0
  2  5  1  0  0  0  0
  5  6  1  0  0  0  0
  6  7  1  0  0  0  0
  6 32  1  0  0  0  0
  6 33  1  0  0  0  0
  7  8  1  0  0  0  0
  7 24  1  0  0  0  0
  7 34  1  6  0  0  0
  8  9  1  0  0  0  0
  8 23  1  0  0  0  0
  8 35  1  6  0  0  0
  9 10  1  0  0  0  0
  9 22  1  0  0  0  0
  9 36  1  6  0  0  0
 10 11  1  0  0  0  0
 10 17  1  0  0  0  0
 10 37  1  6  0  0  0
 11 12  1  0  0  0  0
 11 38  1  0  0  0  0
 11 39  1  0  0  0  0
 12 13  1  0  0  0  0
 13 14  2  0  0  0  0
 13 15  2  0  0  0  0
 13 16  1  0  0  0  0
 16 40  1  0  0  0  0
 16 41  1  0  0  0  0
 16 42  1  0  0  0  0
 17 18  1  0  0  0  0
 18 19  2  0  0  0  0
 18 20  2  0  0  0  0
 18 21  1  0  0  0  0
 21 43  1  0  0  0  0
 21 44  1  0  0  0  0
 21 45  1  0  0  0  0
 22 46  1  0  0  0  0
 23 47  1  0  0  0  0
 24 25  1  0  0  0  0
 25 26  2  0  0  0  0
 25 27  2  0  0  0  0
 25 28  1  0  0  0  0
 28 48  1  0  0  0  0
 28 49  1  0  0  0  0
 28 50  1  0  0  0  0
M  END
>  <DRUGBANK_ID>
DB13334

>  <COMMON_NAME>
Mannosulfan

>  <CAS_NUMBER>
7518-35-6

>  <UNII>
135FQ40L36

>  <SYNONYMS>
Mannosulfan

$$$$
