1621
 OpenBabel10282417072D

 65 68  0  0  0  0  0  0  0  0999 V2000
    5.9361   -3.5410    0.0000 S   0  0  0  0  0  0  0  0  0  0  0  0
    8.8480   -1.8712    0.0000 S   0  0  0  0  0  0  0  0  0  0  0  0
    1.6498    3.0581    0.0000 O   0  0  0  0  0  0  0  0  0  0  0  0
    8.4328   -1.1584    0.0000 O   0  0  0  0  0  0  0  0  0  0  0  0
    9.2631   -2.5840    0.0000 O   0  0  0  0  0  0  0  0  0  0  0  0
    4.5073    0.5834    0.0000 N   0  0  0  0  0  0  0  0  0  0  0  0
    5.9361   -1.8912    0.0000 N   0  0  0  0  0  0  0  0  0  0  0  0
    9.5608   -1.4561    0.0000 N   0  0  0  0  0  0  0  0  0  0  0  0
    3.0786    1.4083    0.0000 C   0  0  0  0  0  0  0  0  0  0  0  0
    3.7929    1.8208    0.0000 C   0  0  0  0  0  0  0  0  0  0  0  0
    3.0786    0.5834    0.0000 C   0  0  0  0  0  0  0  0  0  0  0  0
    4.5073    1.4083    0.0000 C   0  0  0  0  0  0  0  0  0  0  0  0
    3.7929    0.1710    0.0000 C   0  0  0  0  0  0  0  0  0  0  0  0
    2.3641    1.8208    0.0000 C   0  0  0  0  0  0  0  0  0  0  0  0
    5.2216    0.1710    0.0000 C   0  0  0  0  0  0  0  0  0  0  0  0
    5.2216   -0.6539    0.0000 C   0  0  0  0  0  0  0  0  0  0  0  0
    2.3641    2.6456    0.0000 C   0  0  0  0  0  0  0  0  0  0  0  0
    5.9361   -1.0664    0.0000 C   0  0  0  0  0  0  0  0  0  0  0  0
    6.6504   -2.3037    0.0000 C   0  0  0  0  0  0  0  0  0  0  0  0
    5.2216   -2.3037    0.0000 C   0  0  0  0  0  0  0  0  0  0  0  0
    6.6504   -3.1286    0.0000 C   0  0  0  0  0  0  0  0  0  0  0  0
    5.2216   -3.1286    0.0000 C   0  0  0  0  0  0  0  0  0  0  0  0
    7.3878   -1.8626    0.0000 C   0  0  0  0  0  0  0  0  0  0  0  0
    8.1352   -2.2865    0.0000 C   0  0  0  0  0  0  0  0  0  0  0  0
    4.4843   -1.8626    0.0000 C   0  0  0  0  0  0  0  0  0  0  0  0
    7.3878   -3.5695    0.0000 C   0  0  0  0  0  0  0  0  0  0  0  0
    8.1352   -3.1457    0.0000 C   0  0  0  0  0  0  0  0  0  0  0  0
    4.4843   -3.5695    0.0000 C   0  0  0  0  0  0  0  0  0  0  0  0
    3.7368   -2.2865    0.0000 C   0  0  0  0  0  0  0  0  0  0  0  0
    3.7368   -3.1457    0.0000 C   0  0  0  0  0  0  0  0  0  0  0  0
   10.2767   -1.8657    0.0000 C   0  0  0  0  0  0  0  0  0  0  0  0
    9.5576   -0.6312    0.0000 C   0  0  0  0  0  0  0  0  0  0  0  0
    1.6499    4.0281    0.0000 H   0  0  0  0  0  0  0  0  0  0  0  0
    2.1520    0.8733    0.0000 H   0  0  0  0  0  0  0  0  0  0  0  0
    3.7929    2.8908    0.0000 H   0  0  0  0  0  0  0  0  0  0  0  0
    4.7196    2.3558    0.0000 H   0  0  0  0  0  0  0  0  0  0  0  0
    2.1520    0.0484    0.0000 H   0  0  0  0  0  0  0  0  0  0  0  0
    3.0786   -0.4866    0.0000 H   0  0  0  0  0  0  0  0  0  0  0  0
    5.4340    1.9433    0.0000 H   0  0  0  0  0  0  0  0  0  0  0  0
    4.5073    2.4783    0.0000 H   0  0  0  0  0  0  0  0  0  0  0  0
    3.7929   -0.8990    0.0000 H   0  0  0  0  0  0  0  0  0  0  0  0
    2.8662   -0.3640    0.0000 H   0  0  0  0  0  0  0  0  0  0  0  0
    1.4375    1.2858    0.0000 H   0  0  0  0  0  0  0  0  0  0  0  0
    1.4375    2.3558    0.0000 H   0  0  0  0  0  0  0  0  0  0  0  0
    6.1482    0.7060    0.0000 H   0  0  0  0  0  0  0  0  0  0  0  0
    6.1482   -0.3640    0.0000 H   0  0  0  0  0  0  0  0  0  0  0  0
    4.2950   -1.1889    0.0000 H   0  0  0  0  0  0  0  0  0  0  0  0
    5.2216   -1.7239    0.0000 H   0  0  0  0  0  0  0  0  0  0  0  0
    3.2908    3.1806    0.0000 H   0  0  0  0  0  0  0  0  0  0  0  0
    3.2907    2.1106    0.0000 H   0  0  0  0  0  0  0  0  0  0  0  0
    6.8627   -0.5314    0.0000 H   0  0  0  0  0  0  0  0  0  0  0  0
    5.9361    0.0036    0.0000 H   0  0  0  0  0  0  0  0  0  0  0  0
    7.3759   -0.8307    0.0000 H   0  0  0  0  0  0  0  0  0  0  0  0
    4.4963   -0.8307    0.0000 H   0  0  0  0  0  0  0  0  0  0  0  0
    7.3759   -4.6014    0.0000 H   0  0  0  0  0  0  0  0  0  0  0  0
    9.0269   -3.6652    0.0000 H   0  0  0  0  0  0  0  0  0  0  0  0
    4.4963   -4.6014    0.0000 H   0  0  0  0  0  0  0  0  0  0  0  0
    2.8451   -1.7670    0.0000 H   0  0  0  0  0  0  0  0  0  0  0  0
    2.8451   -3.6652    0.0000 H   0  0  0  0  0  0  0  0  0  0  0  0
   10.2809   -2.9357    0.0000 H   0  0  0  0  0  0  0  0  0  0  0  0
   11.2012   -1.3271    0.0000 H   0  0  0  0  0  0  0  0  0  0  0  0
   11.2054   -2.3971    0.0000 H   0  0  0  0  0  0  0  0  0  0  0  0
   10.4822   -0.0926    0.0000 H   0  0  0  0  0  0  0  0  0  0  0  0
    8.6289   -0.0998    0.0000 H   0  0  0  0  0  0  0  0  0  0  0  0
    9.5534    0.4388    0.0000 H   0  0  0  0  0  0  0  0  0  0  0  0
  1 21  1  0  0  0  0
  1 22  1  0  0  0  0
  2  4  2  0  0  0  0
  2  5  2  0  0  0  0
  2  8  1  0  0  0  0
  2 24  1  0  0  0  0
  3 17  1  0  0  0  0
  3 33  1  0  0  0  0
  6 12  1  0  0  0  0
  6 13  1  0  0  0  0
  6 15  1  0  0  0  0
  7 18  1  0  0  0  0
  7 19  1  0  0  0  0
  7 20  1  0  0  0  0
  8 31  1  0  0  0  0
  8 32  1  0  0  0  0
  9 10  1  0  0  0  0
  9 11  1  0  0  0  0
  9 14  1  0  0  0  0
  9 34  1  0  0  0  0
 10 12  1  0  0  0  0
 10 35  1  0  0  0  0
 10 36  1  0  0  0  0
 11 13  1  0  0  0  0
 11 37  1  0  0  0  0
 11 38  1  0  0  0  0
 12 39  1  0  0  0  0
 12 40  1  0  0  0  0
 13 41  1  0  0  0  0
 13 42  1  0  0  0  0
 14 17  1  0  0  0  0
 14 43  1  0  0  0  0
 14 44  1  0  0  0  0
 15 16  1  0  0  0  0
 15 45  1  0  0  0  0
 15 46  1  0  0  0  0
 16 18  1  0  0  0  0
 16 47  1  0  0  0  0
 16 48  1  0  0  0  0
 17 49  1  0  0  0  0
 17 50  1  0  0  0  0
 18 51  1  0  0  0  0
 18 52  1  0  0  0  0
 19 21  2  0  0  0  0
 19 23  1  0  0  0  0
 20 22  1  0  0  0  0
 20 25  2  0  0  0  0
 21 26  1  0  0  0  0
 22 28  2  0  0  0  0
 23 24  2  0  0  0  0
 23 53  1  0  0  0  0
 24 27  1  0  0  0  0
 25 29  1  0  0  0  0
 25 54  1  0  0  0  0
 26 27  2  0  0  0  0
 26 55  1  0  0  0  0
 27 56  1  0  0  0  0
 28 30  1  0  0  0  0
 28 57  1  0  0  0  0
 29 30  2  0  0  0  0
 29 58  1  0  0  0  0
 30 59  1  0  0  0  0
 31 60  1  0  0  0  0
 31 61  1  0  0  0  0
 31 62  1  0  0  0  0
 32 63  1  0  0  0  0
 32 64  1  0  0  0  0
 32 65  1  0  0  0  0
M  END
>  <DRUGBANK_ID>
DB01621

>  <COMMON_NAME>
Pipotiazine

>  <CAS_NUMBER>
39860-99-6

>  <UNII>
L903J9JPYV

>  <SYNONYMS>
Piportil; Pipothiazine; Pipotiazina; Pipotiazine; Pipotiazinum

$$$$
