
 OpenBabel10282417072D

 45 46  0  0  1  0  0  0  0  0999 V2000
    3.5724    3.7125    0.0000 C   0  0  0  0  0  0  0  0  0  0  0  0
    3.5724   -1.2375    0.0000 C   0  0  0  0  0  0  0  0  0  0  0  0
    2.8579    3.3000    0.0000 C   0  0  2  0  0  0  0  0  0  0  0  0
    3.5724   -0.4125    0.0000 C   0  0  2  0  0  0  0  0  0  0  0  0
    2.1434    3.7125    0.0000 C   0  0  1  0  0  0  0  0  0  0  0  0
    4.2868   -0.0000    0.0000 C   0  0  1  0  0  0  0  0  0  0  0  0
    1.4289    3.3000    0.0000 C   0  0  1  0  0  0  0  0  0  0  0  0
    4.2868    0.8250    0.0000 C   0  0  1  0  0  0  0  0  0  0  0  0
    1.4289    2.4750    0.0000 C   0  0  2  0  0  0  0  0  0  0  0  0
    3.5724    1.2375    0.0000 C   0  0  2  0  0  0  0  0  0  0  0  0
    2.1434    2.0625    0.0000 C   0  0  1  0  0  0  0  0  0  0  0  0
    2.8579    0.8250    0.0000 C   0  0  1  0  0  0  0  0  0  0  0  0
    3.5724    4.5375    0.0000 O   0  0  0  0  0  0  0  0  0  0  0  0
    4.2868   -1.6500    0.0000 O   0  0  0  0  0  0  0  0  0  0  0  0
    2.1434    4.5375    0.0000 O   0  0  0  0  0  0  0  0  0  0  0  0
    5.0013   -0.4125    0.0000 O   0  0  0  0  0  0  0  0  0  0  0  0
    0.7145    3.7125    0.0000 O   0  0  0  0  0  0  0  0  0  0  0  0
    5.0013    1.2375    0.0000 O   0  0  0  0  0  0  0  0  0  0  0  0
    0.7145    2.0625    0.0000 O   0  0  0  0  0  0  0  0  0  0  0  0
    3.5724    2.0625    0.0000 O   0  0  0  0  0  0  0  0  0  0  0  0
    2.8579    2.4750    0.0000 O   0  0  0  0  0  0  0  0  0  0  0  0
    2.8579   -0.0000    0.0000 O   0  0  0  0  0  0  0  0  0  0  0  0
    2.1434    1.2375    0.0000 S   0  0  0  0  0  0  0  0  0  0  0  0
    2.5757    4.0752    0.0000 H   0  0  0  0  0  0  0  0  0  0  0  0
    4.3848   -0.5558    0.0000 H   0  0  0  0  0  0  0  0  0  0  0  0
    2.6737    4.3445    0.0000 H   0  0  0  0  0  0  0  0  0  0  0  0
    4.5690   -0.7752    0.0000 H   0  0  0  0  0  0  0  0  0  0  0  0
    1.4289    4.1250    0.0000 H   0  0  0  0  0  0  0  0  0  0  0  0
    5.0013    0.4125    0.0000 H   0  0  0  0  0  0  0  0  0  0  0  0
    0.7145    2.8875    0.0000 H   0  0  0  0  0  0  0  0  0  0  0  0
    4.2868    1.6500    0.0000 H   0  0  0  0  0  0  0  0  0  0  0  0
    1.4289    1.6500    0.0000 H   0  0  0  0  0  0  0  0  0  0  0  0
    2.8579    1.6500    0.0000 H   0  0  0  0  0  0  0  0  0  0  0  0
    4.4990    3.1775    0.0000 H   0  0  0  0  0  0  0  0  0  0  0  0
    4.4990    4.2475    0.0000 H   0  0  0  0  0  0  0  0  0  0  0  0
    2.6457   -1.7725    0.0000 H   0  0  0  0  0  0  0  0  0  0  0  0
    3.5724   -2.3075    0.0000 H   0  0  0  0  0  0  0  0  0  0  0  0
    4.4124    5.0225    0.0000 H   0  0  0  0  0  0  0  0  0  0  0  0
    4.2868   -2.6200    0.0000 H   0  0  0  0  0  0  0  0  0  0  0  0
    2.9834    5.0225    0.0000 H   0  0  0  0  0  0  0  0  0  0  0  0
    5.0013   -1.3825    0.0000 H   0  0  0  0  0  0  0  0  0  0  0  0
    0.7145    4.6825    0.0000 H   0  0  0  0  0  0  0  0  0  0  0  0
    5.8413    0.7525    0.0000 H   0  0  0  0  0  0  0  0  0  0  0  0
   -0.1256    2.5475    0.0000 H   0  0  0  0  0  0  0  0  0  0  0  0
    4.4124    2.5475    0.0000 H   0  0  0  0  0  0  0  0  0  0  0  0
  1 34  1  0  0  0  0
  1 35  1  0  0  0  0
  2 36  1  0  0  0  0
  2 37  1  0  0  0  0
  3  1  1  0  0  0  0
  3 24  1  6  0  0  0
  4  2  1  0  0  0  0
  4 25  1  6  0  0  0
  5  3  1  0  0  0  0
  5 15  1  0  0  0  0
  5 26  1  6  0  0  0
  6  4  1  0  0  0  0
  6 16  1  0  0  0  0
  6 27  1  6  0  0  0
  7  5  1  0  0  0  0
  7 17  1  0  0  0  0
  7 28  1  6  0  0  0
  8  6  1  0  0  0  0
  8 18  1  0  0  0  0
  8 29  1  6  0  0  0
  9  7  1  0  0  0  0
  9 19  1  0  0  0  0
  9 30  1  1  0  0  0
 10  8  1  0  0  0  0
 10 20  1  0  0  0  0
 10 31  1  1  0  0  0
 11  9  1  0  0  0  0
 11 23  1  0  0  0  0
 11 32  1  6  0  0  0
 12 10  1  0  0  0  0
 12 23  1  0  0  0  0
 12 33  1  6  0  0  0
 13  1  1  0  0  0  0
 13 38  1  0  0  0  0
 14  2  1  0  0  0  0
 14 39  1  0  0  0  0
 15 40  1  0  0  0  0
 16 41  1  0  0  0  0
 17 42  1  0  0  0  0
 18 43  1  0  0  0  0
 19 44  1  0  0  0  0
 20 45  1  0  0  0  0
 21  3  1  0  0  0  0
 21 11  1  0  0  0  0
 22  4  1  0  0  0  0
 22 12  1  0  0  0  0
M  END
>  <DRUGBANK_ID>
DB04396

>  <SECONDARY_ACCESSION_NUMBERS>
EXPT03030

>  <COMMON_NAME>
Thiodigalactoside

>  <CAS_NUMBER>
51555-87-4

$$$$
