4837
 OpenBabel10282417072D

 40 41  0  0  1  0  0  0  0  0999 V2000
    1.6500   -0.8250    0.0000 Cl  0  0  0  0  0  0  0  0  0  0  0  0
    2.2540    0.0000    0.0000 O   0  0  0  0  0  0  0  0  0  0  0  0
    5.1415    0.7144    0.0000 N   0  0  0  0  0  0  0  0  0  0  0  0
    3.0790    0.0000    0.0000 C   0  0  3  0  0  0  0  0  0  0  0  0
    3.9040    0.0000    0.0000 C   0  0  0  0  0  0  0  0  0  0  0  0
    4.3165    0.7144    0.0000 C   0  0  0  0  0  0  0  0  0  0  0  0
    3.0790   -0.8250    0.0000 C   0  0  0  0  0  0  0  0  0  0  0  0
    3.0790    0.8250    0.0000 C   0  0  0  0  0  0  0  0  0  0  0  0
    2.3644   -1.2375    0.0000 C   0  0  0  0  0  0  0  0  0  0  0  0
    3.7934   -1.2375    0.0000 C   0  0  0  0  0  0  0  0  0  0  0  0
    2.3644    1.2375    0.0000 C   0  0  0  0  0  0  0  0  0  0  0  0
    3.7934    1.2375    0.0000 C   0  0  0  0  0  0  0  0  0  0  0  0
    5.5540    1.4290    0.0000 C   0  0  0  0  0  0  0  0  0  0  0  0
    5.5540    0.0000    0.0000 C   0  0  0  0  0  0  0  0  0  0  0  0
    2.3644   -2.0625    0.0000 C   0  0  0  0  0  0  0  0  0  0  0  0
    3.7934   -2.0625    0.0000 C   0  0  0  0  0  0  0  0  0  0  0  0
    2.3644    2.0625    0.0000 C   0  0  0  0  0  0  0  0  0  0  0  0
    3.7934    2.0625    0.0000 C   0  0  0  0  0  0  0  0  0  0  0  0
    3.0790   -2.4750    0.0000 C   0  0  0  0  0  0  0  0  0  0  0  0
    3.0790    2.4750    0.0000 C   0  0  0  0  0  0  0  0  0  0  0  0
    1.7690    0.8400    0.0000 H   0  0  0  0  0  0  0  0  0  0  0  0
    4.4390   -0.9267    0.0000 H   0  0  0  0  0  0  0  0  0  0  0  0
    4.9740   -0.0000    0.0000 H   0  0  0  0  0  0  0  0  0  0  0  0
    3.7815    1.6411    0.0000 H   0  0  0  0  0  0  0  0  0  0  0  0
    3.2465    0.7144    0.0000 H   0  0  0  0  0  0  0  0  0  0  0  0
    4.6871   -0.7215    0.0000 H   0  0  0  0  0  0  0  0  0  0  0  0
    1.4707    0.7215    0.0000 H   0  0  0  0  0  0  0  0  0  0  0  0
    4.6871    0.7215    0.0000 H   0  0  0  0  0  0  0  0  0  0  0  0
    6.6240    1.4291    0.0000 H   0  0  0  0  0  0  0  0  0  0  0  0
    5.0189    2.3556    0.0000 H   0  0  0  0  0  0  0  0  0  0  0  0
    6.0889    2.3557    0.0000 H   0  0  0  0  0  0  0  0  0  0  0  0
    5.0190   -0.9267    0.0000 H   0  0  0  0  0  0  0  0  0  0  0  0
    6.6240    0.0000    0.0000 H   0  0  0  0  0  0  0  0  0  0  0  0
    6.0890   -0.9266    0.0000 H   0  0  0  0  0  0  0  0  0  0  0  0
    1.4707   -2.5785    0.0000 H   0  0  0  0  0  0  0  0  0  0  0  0
    4.6871   -2.5785    0.0000 H   0  0  0  0  0  0  0  0  0  0  0  0
    1.4707    2.5785    0.0000 H   0  0  0  0  0  0  0  0  0  0  0  0
    4.6871    2.5785    0.0000 H   0  0  0  0  0  0  0  0  0  0  0  0
    3.0791   -3.5070    0.0000 H   0  0  0  0  0  0  0  0  0  0  0  0
    3.0791    3.5070    0.0000 H   0  0  0  0  0  0  0  0  0  0  0  0
  1  9  1  0  0  0  0
  2  4  1  0  0  0  0
  2 21  1  0  0  0  0
  3  6  1  0  0  0  0
  3 13  1  0  0  0  0
  3 14  1  0  0  0  0
  4  5  1  0  0  0  0
  4  7  1  0  0  0  0
  4  8  1  0  0  0  0
  5  6  1  0  0  0  0
  5 22  1  0  0  0  0
  5 23  1  0  0  0  0
  6 24  1  0  0  0  0
  6 25  1  0  0  0  0
  7  9  1  0  0  0  0
  7 10  2  0  0  0  0
  8 11  2  0  0  0  0
  8 12  1  0  0  0  0
  9 15  2  0  0  0  0
 10 16  1  0  0  0  0
 10 26  1  0  0  0  0
 11 17  1  0  0  0  0
 11 27  1  0  0  0  0
 12 18  2  0  0  0  0
 12 28  1  0  0  0  0
 13 29  1  0  0  0  0
 13 30  1  0  0  0  0
 13 31  1  0  0  0  0
 14 32  1  0  0  0  0
 14 33  1  0  0  0  0
 14 34  1  0  0  0  0
 15 19  1  0  0  0  0
 15 35  1  0  0  0  0
 16 19  2  0  0  0  0
 16 36  1  0  0  0  0
 17 20  2  0  0  0  0
 17 37  1  0  0  0  0
 18 20  1  0  0  0  0
 18 38  1  0  0  0  0
 19 39  1  0  0  0  0
 20 40  1  0  0  0  0
M  END
>  <DRUGBANK_ID>
DB04837

>  <COMMON_NAME>
Clofedanol

>  <CAS_NUMBER>
791-35-5

>  <UNII>
42C50P12AP

>  <SYNONYMS>
Chlophedianol; Clofedanol; Clofedanolum; Clofedianolo

$$$$
