
 OpenBabel10282417072D

 48 51  0  0  1  0  0  0  0  0999 V2000
    1.2751   -0.5107    0.0000 C   0  0  0  0  0  0  0  0  0  0  0  0
    0.9948   -1.2866    0.0000 C   0  0  0  0  0  0  0  0  0  0  0  0
    0.1827   -1.4318    0.0000 C   0  0  0  0  0  0  0  0  0  0  0  0
   -0.0976   -2.2077    0.0000 C   0  0  0  0  0  0  0  0  0  0  0  0
   -0.9098   -2.3529    0.0000 O   0  0  0  0  0  0  0  0  0  0  0  0
    0.4342   -2.8384    0.0000 C   0  0  0  0  0  0  0  0  0  0  0  0
    1.2463   -2.6932    0.0000 C   0  0  0  0  0  0  0  0  0  0  0  0
    1.5266   -1.9173    0.0000 C   0  0  1  0  0  0  0  0  0  0  0  0
    2.3387   -1.7721    0.0000 C   0  0  1  0  0  0  0  0  0  0  0  0
    2.6190   -0.9961    0.0000 C   0  0  0  0  0  0  0  0  0  0  0  0
    3.4311   -0.8509    0.0000 C   0  0  0  0  0  0  0  0  0  0  0  0
    3.9629   -1.4816    0.0000 C   0  0  1  0  0  0  0  0  0  0  0  0
    3.6826   -2.2576    0.0000 C   0  0  2  0  0  0  0  0  0  0  0  0
    2.8705   -2.4028    0.0000 C   0  0  2  0  0  0  0  0  0  0  0  0
    2.5902   -3.1787    0.0000 C   0  0  0  0  0  0  0  0  0  0  0  0
    1.7781   -3.3239    0.0000 C   0  0  0  0  0  0  0  0  0  0  0  0
    4.3340   -2.7639    0.0000 C   0  0  0  0  0  0  0  0  0  0  0  0
    5.0168   -2.3009    0.0000 C   0  0  0  0  0  0  0  0  0  0  0  0
    4.7875   -1.5084    0.0000 C   0  0  0  0  0  0  0  0  0  0  0  0
    5.2939   -0.8571    0.0000 O   0  0  0  0  0  0  0  0  0  0  0  0
    4.3228   -0.7393    0.0000 C   0  0  0  0  0  0  0  0  0  0  0  0
    1.8069   -1.1414    0.0000 C   0  0  0  0  0  0  0  0  0  0  0  0
    2.3284   -0.3224    0.0000 H   0  0  0  0  0  0  0  0  0  0  0  0
    0.5854    0.3073    0.0000 H   0  0  0  0  0  0  0  0  0  0  0  0
    1.6387    0.4956    0.0000 H   0  0  0  0  0  0  0  0  0  0  0  0
   -0.4825   -0.6428    0.0000 H   0  0  0  0  0  0  0  0  0  0  0  0
    0.0836   -3.8090    0.0000 H   0  0  0  0  0  0  0  0  0  0  0  0
    1.6489   -0.9541    0.0000 H   0  0  0  0  0  0  0  0  0  0  0  0
    1.9292   -0.1781    0.0000 H   0  0  0  0  0  0  0  0  0  0  0  0
    2.9825    0.0102    0.0000 H   0  0  0  0  0  0  0  0  0  0  0  0
    3.7947    0.1554    0.0000 H   0  0  0  0  0  0  0  0  0  0  0  0
    4.4844   -0.6626    0.0000 H   0  0  0  0  0  0  0  0  0  0  0  0
    4.7104   -1.9601    0.0000 H   0  0  0  0  0  0  0  0  0  0  0  0
    3.5602   -3.2208    0.0000 H   0  0  0  0  0  0  0  0  0  0  0  0
    3.2799   -3.9967    0.0000 H   0  0  0  0  0  0  0  0  0  0  0  0
    2.2266   -4.1850    0.0000 H   0  0  0  0  0  0  0  0  0  0  0  0
    1.4145   -4.3302    0.0000 H   0  0  0  0  0  0  0  0  0  0  0  0
    0.7248   -3.5122    0.0000 H   0  0  0  0  0  0  0  0  0  0  0  0
    4.2993   -3.8333    0.0000 H   0  0  0  0  0  0  0  0  0  0  0  0
    5.2711   -3.2803    0.0000 H   0  0  0  0  0  0  0  0  0  0  0  0
    6.0232   -2.6644    0.0000 H   0  0  0  0  0  0  0  0  0  0  0  0
    5.7976   -1.5693    0.0000 H   0  0  0  0  0  0  0  0  0  0  0  0
    5.3900   -0.6622    0.0000 H   0  0  0  0  0  0  0  0  0  0  0  0
    3.7224    0.1464    0.0000 H   0  0  0  0  0  0  0  0  0  0  0  0
    4.7896    0.2235    0.0000 H   0  0  0  0  0  0  0  0  0  0  0  0
    2.8602   -0.9531    0.0000 H   0  0  0  0  0  0  0  0  0  0  0  0
    1.1172   -0.3234    0.0000 H   0  0  0  0  0  0  0  0  0  0  0  0
    2.1705   -0.1351    0.0000 H   0  0  0  0  0  0  0  0  0  0  0  0
  1  2  1  0  0  0  0
  1 23  1  0  0  0  0
  1 24  1  0  0  0  0
  1 25  1  0  0  0  0
  2  3  2  0  0  0  0
  2  8  1  0  0  0  0
  3  4  1  0  0  0  0
  3 26  1  0  0  0  0
  4  5  2  0  0  0  0
  4  6  1  0  0  0  0
  6  7  2  0  0  0  0
  6 27  1  0  0  0  0
  7  8  1  0  0  0  0
  7 16  1  0  0  0  0
  8  9  1  0  0  0  0
  8 22  1  1  0  0  0
  9 10  1  0  0  0  0
  9 14  1  0  0  0  0
  9 28  1  6  0  0  0
 10 11  1  0  0  0  0
 10 29  1  0  0  0  0
 10 30  1  0  0  0  0
 11 12  1  0  0  0  0
 11 31  1  0  0  0  0
 11 32  1  0  0  0  0
 12 13  1  0  0  0  0
 12 19  1  0  0  0  0
 12 21  1  1  0  0  0
 13 14  1  0  0  0  0
 13 17  1  0  0  0  0
 13 33  1  6  0  0  0
 14 15  1  0  0  0  0
 14 34  1  1  0  0  0
 15 16  1  0  0  0  0
 15 35  1  0  0  0  0
 15 36  1  0  0  0  0
 16 37  1  0  0  0  0
 16 38  1  0  0  0  0
 17 18  1  0  0  0  0
 17 39  1  0  0  0  0
 17 40  1  0  0  0  0
 18 19  1  0  0  0  0
 18 41  1  0  0  0  0
 18 42  1  0  0  0  0
 19 20  2  0  0  0  0
 21 43  1  0  0  0  0
 21 44  1  0  0  0  0
 21 45  1  0  0  0  0
 22 46  1  0  0  0  0
 22 47  1  0  0  0  0
 22 48  1  0  0  0  0
M  END
>  <DRUGBANK_ID>
DB12194

>  <COMMON_NAME>
Atamestane

>  <CAS_NUMBER>
96301-34-7

>  <UNII>
62GA3K28B6

>  <SYNONYMS>
Atamestane

$$$$
