SG1
 OpenBabel10282417072D

 30 31  0  0  0  0  0  0  0  0999 V2000
    2.6203    0.7315    0.0000 S   0  0  0  0  0  0  0  0  0  0  0  0
    1.8357    0.4766    0.0000 C   0  0  0  0  0  0  0  0  0  0  0  0
    1.6642   -0.3304    0.0000 C   0  0  0  0  0  0  0  0  0  0  0  0
    0.8796   -0.5854    0.0000 C   0  0  0  0  0  0  0  0  0  0  0  0
    0.2665   -0.0333    0.0000 C   0  0  0  0  0  0  0  0  0  0  0  0
   -0.5182   -0.2883    0.0000 N   0  0  0  0  0  0  0  0  0  0  0  0
   -0.7731   -1.0729    0.0000 C   0  0  0  0  0  0  0  0  0  0  0  0
   -0.2882   -1.7403    0.0000 O   0  0  0  0  0  0  0  0  0  0  0  0
   -1.5981   -1.0729    0.0000 C   0  0  0  0  0  0  0  0  0  0  0  0
   -1.8530   -0.2883    0.0000 C   0  0  0  0  0  0  0  0  0  0  0  0
   -1.1856    0.1967    0.0000 C   0  0  0  0  0  0  0  0  0  0  0  0
    0.4380    0.7736    0.0000 C   0  0  0  0  0  0  0  0  0  0  0  0
   -0.1751    1.3257    0.0000 N   0  3  0  0  0  0  0  0  0  0  0  0
   -0.0036    2.1326    0.0000 O   0  5  0  0  0  0  0  0  0  0  0  0
   -0.9597    1.0707    0.0000 O   0  0  0  0  0  0  0  0  0  0  0  0
    1.2226    1.0286    0.0000 C   0  0  0  0  0  0  0  0  0  0  0  0
    3.4049    0.9864    0.0000 N   0  0  0  0  0  0  0  0  0  0  0  0
    2.8753   -0.0531    0.0000 O   0  0  0  0  0  0  0  0  0  0  0  0
    2.3654    1.5161    0.0000 O   0  0  0  0  0  0  0  0  0  0  0  0
    2.4312   -1.0209    0.0000 H   0  0  0  0  0  0  0  0  0  0  0  0
    0.6650   -1.5949    0.0000 H   0  0  0  0  0  0  0  0  0  0  0  0
   -2.2270   -1.9385    0.0000 H   0  0  0  0  0  0  0  0  0  0  0  0
   -2.6549   -0.9055    0.0000 H   0  0  0  0  0  0  0  0  0  0  0  0
   -2.8706    0.0423    0.0000 H   0  0  0  0  0  0  0  0  0  0  0  0
   -2.0205    0.7685    0.0000 H   0  0  0  0  0  0  0  0  0  0  0  0
   -1.1856    1.2667    0.0000 H   0  0  0  0  0  0  0  0  0  0  0  0
   -2.1390    0.6824    0.0000 H   0  0  0  0  0  0  0  0  0  0  0  0
    1.4371    2.0381    0.0000 H   0  0  0  0  0  0  0  0  0  0  0  0
    4.1629    0.3039    0.0000 H   0  0  0  0  0  0  0  0  0  0  0  0
    3.6170    1.9841    0.0000 H   0  0  0  0  0  0  0  0  0  0  0  0
  1  2  1  0  0  0  0
  1 17  1  0  0  0  0
  1 18  2  0  0  0  0
  1 19  2  0  0  0  0
  2  3  2  0  0  0  0
  2 16  1  0  0  0  0
  3  4  1  0  0  0  0
  3 20  1  0  0  0  0
  4  5  2  0  0  0  0
  4 21  1  0  0  0  0
  5  6  1  0  0  0  0
  5 12  1  0  0  0  0
  6  7  1  0  0  0  0
  6 11  1  0  0  0  0
  7  8  2  0  0  0  0
  7  9  1  0  0  0  0
  9 10  1  0  0  0  0
  9 22  1  0  0  0  0
  9 23  1  0  0  0  0
 10 11  1  0  0  0  0
 10 24  1  0  0  0  0
 10 25  1  0  0  0  0
 11 26  1  0  0  0  0
 11 27  1  0  0  0  0
 12 13  1  0  0  0  0
 12 16  2  0  0  0  0
 13 14  1  0  0  0  0
 13 15  2  0  0  0  0
 16 28  1  0  0  0  0
 17 29  1  0  0  0  0
 17 30  1  0  0  0  0
M  CHG  2  13   1  14  -1
M  END
>  <DRUGBANK_ID>
DB04394

>  <SECONDARY_ACCESSION_NUMBERS>
EXPT02892

>  <COMMON_NAME>
3-Nitro-4-(2-Oxo-Pyrrolidin-1-Yl)-Benzenesulfonamide

$$$$
