
 OpenBabel10282417072D

 93 97  0  0  1  0  0  0  0  0999 V2000
   -2.1434   -1.2375    0.0000 C   0  0  0  0  0  0  0  0  0  0  0  0
   -2.1434    3.7125    0.0000 C   0  0  0  0  0  0  0  0  0  0  0  0
   -3.5724   -0.4125    0.0000 C   0  0  0  0  0  0  0  0  0  0  0  0
   -6.4302    2.0625    0.0000 C   0  0  0  0  0  0  0  0  0  0  0  0
  -12.1460   -1.2375    0.0000 C   0  0  0  0  0  0  0  0  0  0  0  0
   -2.1434   -0.4125    0.0000 C   0  0  0  0  0  0  0  0  0  0  0  0
   -5.7158    3.3000    0.0000 C   0  0  0  0  0  0  0  0  0  0  0  0
   -7.8592   -1.2375    0.0000 C   0  0  0  0  0  0  0  0  0  0  0  0
   -5.0013    3.7125    0.0000 C   0  0  0  0  0  0  0  0  0  0  0  0
  -10.0026   -0.0000    0.0000 C   0  0  0  0  0  0  0  0  0  0  0  0
   -5.7158    0.8250    0.0000 C   0  0  0  0  0  0  0  0  0  0  0  0
   -8.5737   -1.6500    0.0000 C   0  0  0  0  0  0  0  0  0  0  0  0
   -5.0013    1.2375    0.0000 C   0  0  0  0  0  0  0  0  0  0  0  0
  -10.7171   -0.4125    0.0000 C   0  0  0  0  0  0  0  0  0  0  0  0
   -3.5724    3.7125    0.0000 C   0  0  0  0  0  0  0  0  0  0  0  0
   -2.8579    2.4750    0.0000 C   0  0  0  0  0  0  0  0  0  0  0  0
   -8.5737   -0.0000    0.0000 C   0  0  0  0  0  0  0  0  0  0  0  0
   -5.0013   -0.4125    0.0000 C   0  0  0  0  0  0  0  0  0  0  0  0
   -5.7158   -1.6500    0.0000 C   0  0  0  0  0  0  0  0  0  0  0  0
   -7.1447   -0.0000    0.0000 C   0  0  0  0  0  0  0  0  0  0  0  0
  -10.0026   -2.4750    0.0000 C   0  0  0  0  0  0  0  0  0  0  0  0
   -2.8579    3.3000    0.0000 C   0  0  1  0  0  0  0  0  0  0  0  0
   -2.8579   -0.0000    0.0000 C   0  0  1  0  0  0  0  0  0  0  0  0
   -5.7158    2.4750    0.0000 C   0  0  1  0  0  0  0  0  0  0  0  0
   -7.8592   -0.4125    0.0000 C   0  0  0  0  0  0  0  0  0  0  0  0
   -9.2881   -0.4125    0.0000 C   0  0  0  0  0  0  0  0  0  0  0  0
   -4.2868    3.3000    0.0000 C   0  0  0  0  0  0  0  0  0  0  0  0
   -5.7158   -0.0000    0.0000 C   0  0  1  0  0  0  0  0  0  0  0  0
   -5.0013   -1.2375    0.0000 C   0  0  2  0  0  0  0  0  0  0  0  0
   -5.0013    2.0625    0.0000 C   0  0  1  0  0  0  0  0  0  0  0  0
   -9.2881   -1.2375    0.0000 C   0  0  0  0  0  0  0  0  0  0  0  0
  -10.0026   -1.6500    0.0000 C   0  0  0  0  0  0  0  0  0  0  0  0
  -10.7171   -1.2375    0.0000 C   0  0  0  0  0  0  0  0  0  0  0  0
   -3.5724    2.0625    0.0000 C   0  0  1  0  0  0  0  0  0  0  0  0
   -6.4302   -1.2375    0.0000 C   0  0  0  0  0  0  0  0  0  0  0  0
   -4.2868    2.4750    0.0000 C   0  0  1  0  0  0  0  0  0  0  0  0
   -2.8579    0.8250    0.0000 C   0  0  0  0  0  0  0  0  0  0  0  0
   -6.4302   -0.4125    0.0000 N   0  0  0  0  0  0  0  0  0  0  0  0
  -10.7171   -2.8875    0.0000 O   0  0  0  0  0  0  0  0  0  0  0  0
   -4.2868   -1.6500    0.0000 O   0  0  0  0  0  0  0  0  0  0  0  0
   -7.1447   -1.6500    0.0000 O   0  0  0  0  0  0  0  0  0  0  0  0
   -2.1434    1.2375    0.0000 O   0  0  0  0  0  0  0  0  0  0  0  0
  -11.4315   -1.6500    0.0000 O   0  0  0  0  0  0  0  0  0  0  0  0
   -3.5724    1.2375    0.0000 O   0  0  0  0  0  0  0  0  0  0  0  0
   -2.8579    4.1250    0.0000 H   0  0  0  0  0  0  0  0  0  0  0  0
   -2.8579   -0.8250    0.0000 H   0  0  0  0  0  0  0  0  0  0  0  0
   -6.4302    2.8875    0.0000 H   0  0  0  0  0  0  0  0  0  0  0  0
   -5.0013    0.4125    0.0000 H   0  0  0  0  0  0  0  0  0  0  0  0
   -4.2868   -0.8250    0.0000 H   0  0  0  0  0  0  0  0  0  0  0  0
   -5.7158    1.6500    0.0000 H   0  0  0  0  0  0  0  0  0  0  0  0
   -2.8579    1.6500    0.0000 H   0  0  0  0  0  0  0  0  0  0  0  0
   -4.2868    1.6500    0.0000 H   0  0  0  0  0  0  0  0  0  0  0  0
   -3.0700   -1.7725    0.0000 H   0  0  0  0  0  0  0  0  0  0  0  0
   -1.2168   -1.7725    0.0000 H   0  0  0  0  0  0  0  0  0  0  0  0
   -2.1434   -2.3075    0.0000 H   0  0  0  0  0  0  0  0  0  0  0  0
   -1.2168    3.1775    0.0000 H   0  0  0  0  0  0  0  0  0  0  0  0
   -2.1434    4.7825    0.0000 H   0  0  0  0  0  0  0  0  0  0  0  0
   -1.2167    4.2475    0.0000 H   0  0  0  0  0  0  0  0  0  0  0  0
   -4.4990    0.1225    0.0000 H   0  0  0  0  0  0  0  0  0  0  0  0
   -3.5724   -1.4825    0.0000 H   0  0  0  0  0  0  0  0  0  0  0  0
   -4.4991   -0.9475    0.0000 H   0  0  0  0  0  0  0  0  0  0  0  0
   -7.3569    2.5975    0.0000 H   0  0  0  0  0  0  0  0  0  0  0  0
   -6.4302    0.9925    0.0000 H   0  0  0  0  0  0  0  0  0  0  0  0
   -7.3568    1.5275    0.0000 H   0  0  0  0  0  0  0  0  0  0  0  0
  -12.1460   -0.1675    0.0000 H   0  0  0  0  0  0  0  0  0  0  0  0
  -13.0726   -1.7725    0.0000 H   0  0  0  0  0  0  0  0  0  0  0  0
  -13.0727   -0.7025    0.0000 H   0  0  0  0  0  0  0  0  0  0  0  0
   -1.2168    0.1225    0.0000 H   0  0  0  0  0  0  0  0  0  0  0  0
   -2.1434    0.6575    0.0000 H   0  0  0  0  0  0  0  0  0  0  0  0
   -6.6095    3.8160    0.0000 H   0  0  0  0  0  0  0  0  0  0  0  0
   -6.9655   -1.7535    0.0000 H   0  0  0  0  0  0  0  0  0  0  0  0
   -5.0013    4.7445    0.0000 H   0  0  0  0  0  0  0  0  0  0  0  0
  -10.0026    1.0320    0.0000 H   0  0  0  0  0  0  0  0  0  0  0  0
   -6.6424    1.3600    0.0000 H   0  0  0  0  0  0  0  0  0  0  0  0
   -6.6424    0.2900    0.0000 H   0  0  0  0  0  0  0  0  0  0  0  0
   -8.5737   -2.6820    0.0000 H   0  0  0  0  0  0  0  0  0  0  0  0
   -4.0747    0.7025    0.0000 H   0  0  0  0  0  0  0  0  0  0  0  0
   -4.0747    1.7725    0.0000 H   0  0  0  0  0  0  0  0  0  0  0  0
  -11.6108    0.1035    0.0000 H   0  0  0  0  0  0  0  0  0  0  0  0
   -3.5724    4.7445    0.0000 H   0  0  0  0  0  0  0  0  0  0  0  0
   -1.9313    1.9400    0.0000 H   0  0  0  0  0  0  0  0  0  0  0  0
   -2.8579    1.4050    0.0000 H   0  0  0  0  0  0  0  0  0  0  0  0
   -8.5737    1.0320    0.0000 H   0  0  0  0  0  0  0  0  0  0  0  0
   -4.0747    0.1225    0.0000 H   0  0  0  0  0  0  0  0  0  0  0  0
   -4.0747   -0.9475    0.0000 H   0  0  0  0  0  0  0  0  0  0  0  0
   -5.7158   -2.7200    0.0000 H   0  0  0  0  0  0  0  0  0  0  0  0
   -6.6425   -2.1850    0.0000 H   0  0  0  0  0  0  0  0  0  0  0  0
   -7.1447    1.0700    0.0000 H   0  0  0  0  0  0  0  0  0  0  0  0
   -6.2181    0.5350    0.0000 H   0  0  0  0  0  0  0  0  0  0  0  0
   -9.0760   -3.0100    0.0000 H   0  0  0  0  0  0  0  0  0  0  0  0
  -10.0026   -3.5450    0.0000 H   0  0  0  0  0  0  0  0  0  0  0  0
  -11.5571   -2.4025    0.0000 H   0  0  0  0  0  0  0  0  0  0  0  0
   -4.2868   -2.6200    0.0000 H   0  0  0  0  0  0  0  0  0  0  0  0
  1 53  1  0  0  0  0
  1 54  1  0  0  0  0
  1 55  1  0  0  0  0
  2 56  1  0  0  0  0
  2 57  1  0  0  0  0
  2 58  1  0  0  0  0
  3 59  1  0  0  0  0
  3 60  1  0  0  0  0
  3 61  1  0  0  0  0
  4 62  1  0  0  0  0
  4 63  1  0  0  0  0
  4 64  1  0  0  0  0
  5 65  1  0  0  0  0
  5 66  1  0  0  0  0
  5 67  1  0  0  0  0
  6  1  1  0  0  0  0
  6 68  1  0  0  0  0
  6 69  1  0  0  0  0
  7 70  1  0  0  0  0
  8 71  1  0  0  0  0
  9  7  2  0  0  0  0
  9 72  1  0  0  0  0
 10 73  1  0  0  0  0
 11 74  1  0  0  0  0
 11 75  1  0  0  0  0
 12  8  2  0  0  0  0
 12 76  1  0  0  0  0
 13 11  1  0  0  0  0
 13 77  1  0  0  0  0
 13 78  1  0  0  0  0
 14 10  2  0  0  0  0
 14 79  1  0  0  0  0
 15 80  1  0  0  0  0
 16 81  1  0  0  0  0
 16 82  1  0  0  0  0
 17 83  1  0  0  0  0
 18 84  1  0  0  0  0
 18 85  1  0  0  0  0
 19 86  1  0  0  0  0
 19 87  1  0  0  0  0
 20 88  1  0  0  0  0
 20 89  1  0  0  0  0
 21 90  1  0  0  0  0
 21 91  1  0  0  0  0
 22  2  1  0  0  0  0
 22 15  1  0  0  0  0
 22 16  1  0  0  0  0
 22 45  1  1  0  0  0
 23  3  1  0  0  0  0
 23  6  1  0  0  0  0
 23 46  1  1  0  0  0
 24  4  1  0  0  0  0
 24  7  1  0  0  0  0
 24 47  1  6  0  0  0
 25  8  1  0  0  0  0
 25 17  2  0  0  0  0
 25 20  1  0  0  0  0
 26 10  1  0  0  0  0
 26 17  1  0  0  0  0
 27  9  1  0  0  0  0
 27 15  2  0  0  0  0
 28 11  1  0  0  0  0
 28 18  1  0  0  0  0
 28 48  1  6  0  0  0
 29 18  1  0  0  0  0
 29 19  1  0  0  0  0
 29 40  1  0  0  0  0
 29 49  1  6  0  0  0
 30 13  1  0  0  0  0
 30 24  1  0  0  0  0
 30 50  1  6  0  0  0
 31 12  1  0  0  0  0
 31 26  2  0  0  0  0
 32 21  1  0  0  0  0
 32 31  1  0  0  0  0
 33 14  1  0  0  0  0
 33 32  2  0  0  0  0
 34 16  1  0  0  0  0
 34 44  1  0  0  0  0
 34 51  1  1  0  0  0
 35 19  1  0  0  0  0
 36 27  1  0  0  0  0
 36 30  1  0  0  0  0
 36 34  1  0  0  0  0
 36 52  1  1  0  0  0
 37 23  1  0  0  0  0
 38 20  1  0  0  0  0
 38 28  1  0  0  0  0
 38 35  1  0  0  0  0
 39 21  1  0  0  0  0
 39 92  1  0  0  0  0
 40 93  1  0  0  0  0
 41 35  2  0  0  0  0
 42 37  2  0  0  0  0
 43  5  1  0  0  0  0
 43 33  1  0  0  0  0
 44 37  1  0  0  0  0
M  END
>  <DRUGBANK_ID>
DB03932

>  <SECONDARY_ACCESSION_NUMBERS>
EXPT00387

>  <COMMON_NAME>
LFA703

>  <UNII>
ZT4887FB5E

$$$$
