
 OpenBabel10282417072D

 17 17  0  0  1  0  0  0  0  0999 V2000
   21.8757  -11.3539    0.0000 O   0  0  0  0  0  0  0  0  0  0  0  0
   21.4342  -12.7130    0.0000 O   0  0  0  0  0  0  0  0  0  0  0  0
   19.8105  -12.1360    0.0000 N   0  0  0  0  0  0  0  0  0  0  0  0
   20.4779  -11.6510    0.0000 C   0  0  2  0  0  0  0  0  0  0  0  0
   19.1430  -11.6510    0.0000 C   0  0  0  0  0  0  0  0  0  0  0  0
   20.2230  -10.8664    0.0000 C   0  0  0  0  0  0  0  0  0  0  0  0
   19.3979  -10.8664    0.0000 C   0  0  0  0  0  0  0  0  0  0  0  0
   21.2626  -11.9060    0.0000 C   0  0  0  0  0  0  0  0  0  0  0  0
   22.7669  -11.6434    0.0000 H   0  0  0  0  0  0  0  0  0  0  0  0
   19.8105  -13.1560    0.0000 H   0  0  0  0  0  0  0  0  0  0  0  0
   20.6453  -12.7078    0.0000 H   0  0  0  0  0  0  0  0  0  0  0  0
   18.1254  -11.9817    0.0000 H   0  0  0  0  0  0  0  0  0  0  0  0
   18.3864  -10.8944    0.0000 H   0  0  0  0  0  0  0  0  0  0  0  0
   20.8519  -10.0008    0.0000 H   0  0  0  0  0  0  0  0  0  0  0  0
   19.7372   -9.9130    0.0000 H   0  0  0  0  0  0  0  0  0  0  0  0
   18.7690  -10.0008    0.0000 H   0  0  0  0  0  0  0  0  0  0  0  0
   19.8837   -9.9130    0.0000 H   0  0  0  0  0  0  0  0  0  0  0  0
  1  8  1  0  0  0  0
  1  9  1  0  0  0  0
  2  8  2  0  0  0  0
  3  4  1  0  0  0  0
  3  5  1  0  0  0  0
  3 10  1  0  0  0  0
  4  6  1  0  0  0  0
  4  8  1  0  0  0  0
  4 11  1  1  0  0  0
  5  7  1  0  0  0  0
  5 12  1  0  0  0  0
  5 13  1  0  0  0  0
  6  7  1  0  0  0  0
  6 14  1  0  0  0  0
  6 15  1  0  0  0  0
  7 16  1  0  0  0  0
  7 17  1  0  0  0  0
M  END
>  <DRUGBANK_ID>
DB02853

>  <SECONDARY_ACCESSION_NUMBERS>
EXPT01259

>  <COMMON_NAME>
D-Proline

>  <CAS_NUMBER>
344-25-2

>  <UNII>
L01Q4LGZ5L

>  <SYNONYMS>
(2R)-pyrrolidine-2-carboxylic acid; (R)-2-Carboxypyrrolidine; (R)-pyrrolidine-2-carboxylic acid; D-Prolin; DPR

$$$$
