
 OpenBabel10282417072D

 47 50  0  0  1  0  0  0  0  0999 V2000
    3.3523    1.9354    0.0000 C   0  0  0  0  0  0  0  0  0  0  0  0
    3.3523    1.1104    0.0000 N   0  0  0  0  0  0  0  0  0  0  0  0
    2.6378    0.6979    0.0000 C   0  0  0  0  0  0  0  0  0  0  0  0
    1.9233    1.1104    0.0000 C   0  0  0  0  0  0  0  0  0  0  0  0
    1.9233    1.9354    0.0000 C   0  0  0  0  0  0  0  0  0  0  0  0
    2.6378    2.3479    0.0000 N   0  0  0  0  0  0  0  0  0  0  0  0
    1.1387    2.1904    0.0000 N   0  0  0  0  0  0  0  0  0  0  0  0
    0.6538    1.5229    0.0000 C   0  0  0  0  0  0  0  0  0  0  0  0
    1.1387    0.8555    0.0000 N   0  0  0  0  0  0  0  0  0  0  0  0
    0.8838    2.9750    0.0000 C   0  0  1  0  0  0  0  0  0  0  0  0
    0.0992    3.2299    0.0000 C   0  0  1  0  0  0  0  0  0  0  0  0
    0.0992    4.0549    0.0000 C   0  0  1  0  0  0  0  0  0  0  0  0
    0.8838    4.3099    0.0000 C   0  0  2  0  0  0  0  0  0  0  0  0
    1.3687    3.6424    0.0000 O   0  0  0  0  0  0  0  0  0  0  0  0
    1.1387    5.0945    0.0000 C   0  0  0  0  0  0  0  0  0  0  0  0
    0.5867    5.7076    0.0000 O   0  0  0  0  0  0  0  0  0  0  0  0
    0.8416    6.4922    0.0000 N   0  3  0  0  0  0  0  0  0  0  0  0
    0.2896    7.1053    0.0000 O   0  0  0  0  0  0  0  0  0  0  0  0
    1.6486    6.6637    0.0000 O   0  5  0  0  0  0  0  0  0  0  0  0
   -0.5683    4.5399    0.0000 O   0  0  0  0  0  0  0  0  0  0  0  0
   -0.5683    2.7450    0.0000 O   0  0  0  0  0  0  0  0  0  0  0  0
    2.6378   -0.1271    0.0000 N   0  0  0  0  0  0  0  0  0  0  0  0
    1.9233   -0.5396    0.0000 C   0  0  0  0  0  0  0  0  0  0  0  0
    1.8371   -1.3600    0.0000 C   0  0  0  0  0  0  0  0  0  0  0  0
    1.0301   -1.5316    0.0000 C   0  0  0  0  0  0  0  0  0  0  0  0
    0.6176   -0.8171    0.0000 C   0  0  0  0  0  0  0  0  0  0  0  0
    1.1697   -0.2040    0.0000 C   0  0  0  0  0  0  0  0  0  0  0  0
    4.2460    2.4514    0.0000 H   0  0  0  0  0  0  0  0  0  0  0  0
   -0.3782    1.5229    0.0000 H   0  0  0  0  0  0  0  0  0  0  0  0
    0.1272    2.2184    0.0000 H   0  0  0  0  0  0  0  0  0  0  0  0
    0.2666    2.1731    0.0000 H   0  0  0  0  0  0  0  0  0  0  0  0
   -0.8542    3.5691    0.0000 H   0  0  0  0  0  0  0  0  0  0  0  0
    0.1272    5.0665    0.0000 H   0  0  0  0  0  0  0  0  0  0  0  0
    2.1853    5.3170    0.0000 H   0  0  0  0  0  0  0  0  0  0  0  0
    1.4694    6.1121    0.0000 H   0  0  0  0  0  0  0  0  0  0  0  0
   -0.4669    5.5046    0.0000 H   0  0  0  0  0  0  0  0  0  0  0  0
   -1.4544    3.1396    0.0000 H   0  0  0  0  0  0  0  0  0  0  0  0
    3.4904   -0.6194    0.0000 H   0  0  0  0  0  0  0  0  0  0  0  0
    0.9966   -1.0746    0.0000 H   0  0  0  0  0  0  0  0  0  0  0  0
    2.6323   -2.0759    0.0000 H   0  0  0  0  0  0  0  0  0  0  0  0
    1.5602   -2.3936    0.0000 H   0  0  0  0  0  0  0  0  0  0  0  0
    0.5949   -2.5091    0.0000 H   0  0  0  0  0  0  0  0  0  0  0  0
   -0.0384   -1.5876    0.0000 H   0  0  0  0  0  0  0  0  0  0  0  0
   -0.4465   -0.7052    0.0000 H   0  0  0  0  0  0  0  0  0  0  0  0
    0.2342    0.1818    0.0000 H   0  0  0  0  0  0  0  0  0  0  0  0
    0.9473    0.8426    0.0000 H   0  0  0  0  0  0  0  0  0  0  0  0
    2.0013    0.4693    0.0000 H   0  0  0  0  0  0  0  0  0  0  0  0
  1  2  2  0  0  0  0
  1  6  1  0  0  0  0
  1 28  1  0  0  0  0
  2  3  1  0  0  0  0
  3  4  2  0  0  0  0
  3 22  1  0  0  0  0
  4  5  1  0  0  0  0
  4  9  1  0  0  0  0
  5  6  2  0  0  0  0
  5  7  1  0  0  0  0
  7  8  1  0  0  0  0
  8  9  2  0  0  0  0
  8 29  1  0  0  0  0
 10  7  1  0  0  0  0
 10 11  1  0  0  0  0
 10 14  1  0  0  0  0
 10 30  1  6  0  0  0
 11 12  1  0  0  0  0
 11 21  1  0  0  0  0
 11 31  1  1  0  0  0
 12 13  1  0  0  0  0
 12 20  1  0  0  0  0
 12 32  1  1  0  0  0
 13 14  1  0  0  0  0
 13 15  1  0  0  0  0
 13 33  1  6  0  0  0
 15 16  1  0  0  0  0
 15 34  1  0  0  0  0
 15 35  1  0  0  0  0
 16 17  1  0  0  0  0
 17 18  2  0  0  0  0
 17 19  1  0  0  0  0
 20 36  1  0  0  0  0
 21 37  1  0  0  0  0
 22 23  1  0  0  0  0
 22 38  1  0  0  0  0
 23 24  1  0  0  0  0
 23 27  1  0  0  0  0
 23 39  1  0  0  0  0
 24 25  1  0  0  0  0
 24 40  1  0  0  0  0
 24 41  1  0  0  0  0
 25 26  1  0  0  0  0
 25 42  1  0  0  0  0
 25 43  1  0  0  0  0
 26 27  1  0  0  0  0
 26 44  1  0  0  0  0
 26 45  1  0  0  0  0
 27 46  1  0  0  0  0
 27 47  1  0  0  0  0
M  CHG  2  17   1  19  -1
M  END
>  <DRUGBANK_ID>
DB13122

>  <COMMON_NAME>
Trabodenoson

>  <CAS_NUMBER>
871108-05-3

>  <UNII>
1T237110W4

>  <SYNONYMS>
Trabodenoson

$$$$
