
 OpenBabel10282417072D

 62 63  0  0  1  0  0  0  0  0999 V2000
    1.7719    0.4671    0.0000 C   0  0  0  0  0  0  0  0  0  0  0  0
    1.0111    0.7862    0.0000 C   0  0  2  0  0  0  0  0  0  0  0  0
    1.0543    1.6101    0.0000 C   0  0  0  0  0  0  0  0  0  0  0  0
    0.4131    2.1292    0.0000 O   0  0  0  0  0  0  0  0  0  0  0  0
    1.8511    1.8236    0.0000 N   0  0  0  0  0  0  0  0  0  0  0  0
    2.3005    1.1317    0.0000 C   0  0  2  0  0  0  0  0  0  0  0  0
    2.9282    0.8604    0.0000 C   0  0  0  0  0  0  0  0  0  0  0  0
    3.1417    0.0635    0.0000 S   0  0  0  0  0  0  0  0  0  0  0  0
    3.9386   -0.1500    0.0000 S   0  0  0  0  0  0  0  0  0  0  0  0
    4.1521   -0.9469    0.0000 C   0  0  0  0  0  0  0  0  0  0  0  0
    3.5688   -1.5303    0.0000 C   0  0  0  0  0  0  0  0  0  0  0  0
    2.7719   -1.3168    0.0000 C   0  0  0  0  0  0  0  0  0  0  0  0
    2.1885   -1.9001    0.0000 C   0  0  0  0  0  0  0  0  0  0  0  0
    1.6250   -1.6866    0.0000 C   0  0  2  0  0  0  0  0  0  0  0  0
    1.4114   -0.8897    0.0000 C   0  0  0  0  0  0  0  0  0  0  0  0
    0.6146   -0.6762    0.0000 C   0  0  0  0  0  0  0  0  0  0  0  0
    0.0312   -1.2595    0.0000 O   0  0  0  0  0  0  0  0  0  0  0  0
    0.4010    0.1207    0.0000 N   0  0  0  0  0  0  0  0  0  0  0  0
    2.5502   -1.9001    0.0000 O   0  0  0  0  0  0  0  0  0  0  0  0
    3.1336   -1.3168    0.0000 C   0  0  0  0  0  0  0  0  0  0  0  0
    2.9200   -0.5199    0.0000 O   0  0  0  0  0  0  0  0  0  0  0  0
    3.9304   -1.5303    0.0000 C   0  0  0  0  0  0  0  0  0  0  0  0
    4.5138   -0.9469    0.0000 C   0  0  1  0  0  0  0  0  0  0  0  0
    4.3003   -0.1500    0.0000 C   0  0  2  0  0  0  0  0  0  0  0  0
    3.5034    0.0635    0.0000 N   0  0  0  0  0  0  0  0  0  0  0  0
    3.2899    0.8604    0.0000 C   0  0  0  0  0  0  0  0  0  0  0  0
    3.8749    1.4420    0.0000 O   0  0  0  0  0  0  0  0  0  0  0  0
    4.8836    0.4333    0.0000 C   0  0  0  0  0  0  0  0  0  0  0  0
    4.6701    1.2302    0.0000 C   0  0  0  0  0  0  0  0  0  0  0  0
    5.6805    0.2198    0.0000 C   0  0  0  0  0  0  0  0  0  0  0  0
    5.3107   -1.1605    0.0000 O   0  0  0  0  0  0  0  0  0  0  0  0
    1.9068   -0.5944    0.0000 H   0  0  0  0  0  0  0  0  0  0  0  0
    2.6237    1.1147    0.0000 H   0  0  0  0  0  0  0  0  0  0  0  0
    2.7586    0.0532    0.0000 H   0  0  0  0  0  0  0  0  0  0  0  0
    1.9173    1.3551    0.0000 H   0  0  0  0  0  0  0  0  0  0  0  0
    2.2039    2.7427    0.0000 H   0  0  0  0  0  0  0  0  0  0  0  0
    2.9909    1.9491    0.0000 H   0  0  0  0  0  0  0  0  0  0  0  0
    3.7380    1.5597    0.0000 H   0  0  0  0  0  0  0  0  0  0  0  0
    3.9509    0.5459    0.0000 H   0  0  0  0  0  0  0  0  0  0  0  0
    5.1856   -1.2238    0.0000 H   0  0  0  0  0  0  0  0  0  0  0  0
    4.4291   -1.9804    0.0000 H   0  0  0  0  0  0  0  0  0  0  0  0
    3.8458   -2.5638    0.0000 H   0  0  0  0  0  0  0  0  0  0  0  0
    2.8122   -2.2869    0.0000 H   0  0  0  0  0  0  0  0  0  0  0  0
    2.5048   -0.3200    0.0000 H   0  0  0  0  0  0  0  0  0  0  0  0
    2.4052   -2.9091    0.0000 H   0  0  0  0  0  0  0  0  0  0  0  0
    2.6489   -1.9972    0.0000 H   0  0  0  0  0  0  0  0  0  0  0  0
    2.1680   -0.1331    0.0000 H   0  0  0  0  0  0  0  0  0  0  0  0
    1.1344    0.1438    0.0000 H   0  0  0  0  0  0  0  0  0  0  0  0
   -0.5553    0.3548    0.0000 H   0  0  0  0  0  0  0  0  0  0  0  0
    4.2073   -2.5638    0.0000 H   0  0  0  0  0  0  0  0  0  0  0  0
    4.9639   -1.8072    0.0000 H   0  0  0  0  0  0  0  0  0  0  0  0
    4.7907   -1.9805    0.0000 H   0  0  0  0  0  0  0  0  0  0  0  0
    5.3338   -0.4270    0.0000 H   0  0  0  0  0  0  0  0  0  0  0  0
    2.8073   -0.6326    0.0000 H   0  0  0  0  0  0  0  0  0  0  0  0
    5.6402    1.1899    0.0000 H   0  0  0  0  0  0  0  0  0  0  0  0
    5.4267    1.9868    0.0000 H   0  0  0  0  0  0  0  0  0  0  0  0
    3.6366    1.5072    0.0000 H   0  0  0  0  0  0  0  0  0  0  0  0
    4.3932    2.2637    0.0000 H   0  0  0  0  0  0  0  0  0  0  0  0
    5.9575   -0.8137    0.0000 H   0  0  0  0  0  0  0  0  0  0  0  0
    6.4371    0.9764    0.0000 H   0  0  0  0  0  0  0  0  0  0  0  0
    6.7140   -0.0571    0.0000 H   0  0  0  0  0  0  0  0  0  0  0  0
    5.5617   -2.0975    0.0000 H   0  0  0  0  0  0  0  0  0  0  0  0
  1 32  1  0  0  0  0
  1 33  1  0  0  0  0
  1 34  1  0  0  0  0
  2  1  1  0  0  0  0
  2  3  1  0  0  0  0
  2 18  1  0  0  0  0
  2 35  1  6  0  0  0
  3  4  2  0  0  0  0
  3  5  1  0  0  0  0
  5 36  1  0  0  0  0
  6  5  1  0  0  0  0
  6  7  1  0  0  0  0
  6 26  1  0  0  0  0
  6 37  1  6  0  0  0
  7  8  1  0  0  0  0
  7 38  1  0  0  0  0
  7 39  1  0  0  0  0
  8  9  1  0  0  0  0
  9 10  1  0  0  0  0
 10 11  1  0  0  0  0
 10 40  1  0  0  0  0
 10 41  1  0  0  0  0
 11 12  1  0  0  0  0
 11 42  1  0  0  0  0
 11 43  1  0  0  0  0
 12 13  2  0  0  0  0
 12 44  1  0  0  0  0
 13 14  1  0  0  0  0
 13 45  1  0  0  0  0
 14 15  1  0  0  0  0
 14 19  1  0  0  0  0
 14 46  1  1  0  0  0
 15 16  1  0  0  0  0
 15 47  1  0  0  0  0
 15 48  1  0  0  0  0
 16 17  2  0  0  0  0
 16 18  1  0  0  0  0
 18 49  1  0  0  0  0
 19 20  1  0  0  0  0
 20 21  2  0  0  0  0
 20 22  1  0  0  0  0
 22 23  1  0  0  0  0
 22 50  1  0  0  0  0
 22 51  1  0  0  0  0
 23 24  1  0  0  0  0
 23 31  1  0  0  0  0
 23 52  1  6  0  0  0
 24 25  1  0  0  0  0
 24 28  1  0  0  0  0
 24 53  1  1  0  0  0
 25 26  1  0  0  0  0
 25 54  1  0  0  0  0
 26 27  2  0  0  0  0
 28 29  1  0  0  0  0
 28 30  1  0  0  0  0
 28 55  1  0  0  0  0
 29 56  1  0  0  0  0
 29 57  1  0  0  0  0
 29 58  1  0  0  0  0
 30 59  1  0  0  0  0
 30 60  1  0  0  0  0
 30 61  1  0  0  0  0
 31 62  1  0  0  0  0
M  END
>  <DRUGBANK_ID>
DB12279

>  <COMMON_NAME>
OBP-801

>  <CAS_NUMBER>
328548-11-4

>  <UNII>
30Q3VS5HZ4

$$$$
