
 OpenBabel10282417072D

 62 66  0  0  1  0  0  0  0  0999 V2000
   -0.6284   -0.6979    0.0000 C   0  0  0  0  0  0  0  0  0  0  0  0
   -0.1435   -1.3654    0.0000 N   0  0  0  0  0  0  0  0  0  0  0  0
    0.6411   -1.1104    0.0000 C   0  0  0  0  0  0  0  0  0  0  0  0
    0.6411   -0.2854    0.0000 C   0  0  0  0  0  0  0  0  0  0  0  0
   -0.1435   -0.0305    0.0000 N   0  0  0  0  0  0  0  0  0  0  0  0
   -0.3984    0.7541    0.0000 C   0  0  1  0  0  0  0  0  0  0  0  0
   -1.1831    1.0091    0.0000 C   0  0  0  0  0  0  0  0  0  0  0  0
   -1.1831    1.8341    0.0000 C   0  0  1  0  0  0  0  0  0  0  0  0
   -0.3984    2.0890    0.0000 C   0  0  2  0  0  0  0  0  0  0  0  0
    0.0865    1.4216    0.0000 O   0  0  0  0  0  0  0  0  0  0  0  0
   -0.1435    2.8736    0.0000 C   0  0  0  0  0  0  0  0  0  0  0  0
   -0.6955    3.4867    0.0000 O   0  0  0  0  0  0  0  0  0  0  0  0
   -0.4406    4.2713    0.0000 P   0  0  3  0  0  0  0  0  0  0  0  0
   -1.2252    4.5263    0.0000 O   0  0  0  0  0  0  0  0  0  0  0  0
    0.3440    4.0164    0.0000 O   0  0  0  0  0  0  0  0  0  0  0  0
   -0.1857    5.0560    0.0000 O   0  0  0  0  0  0  0  0  0  0  0  0
   -0.7377    5.6691    0.0000 C   0  0  1  0  0  0  0  0  0  0  0  0
   -1.5582    5.5828    0.0000 C   0  0  0  0  0  0  0  0  0  0  0  0
   -1.8937    6.3365    0.0000 C   0  0  1  0  0  0  0  0  0  0  0  0
   -1.2806    6.8885    0.0000 O   0  0  0  0  0  0  0  0  0  0  0  0
   -0.5662    6.4760    0.0000 C   0  0  2  0  0  0  0  0  0  0  0  0
    0.1875    6.8116    0.0000 C   0  0  0  0  0  0  0  0  0  0  0  0
    0.8549    6.3267    0.0000 O   0  0  0  0  0  0  0  0  0  0  0  0
   -2.7007    6.5080    0.0000 N   0  0  0  0  0  0  0  0  0  0  0  0
   -3.2527    5.8949    0.0000 C   0  0  0  0  0  0  0  0  0  0  0  0
   -4.0597    6.0664    0.0000 N   0  0  0  0  0  0  0  0  0  0  0  0
   -4.3146    6.8511    0.0000 C   0  0  0  0  0  0  0  0  0  0  0  0
   -3.7626    7.4642    0.0000 N   0  0  0  0  0  0  0  0  0  0  0  0
   -2.9556    7.2926    0.0000 C   0  0  0  0  0  0  0  0  0  0  0  0
   -2.4036    7.9057    0.0000 O   0  0  0  0  0  0  0  0  0  0  0  0
   -5.1216    7.0226    0.0000 N   0  0  0  0  0  0  0  0  0  0  0  0
   -1.8505    2.3190    0.0000 O   0  0  0  0  0  0  0  0  0  0  0  0
    1.3556    0.1271    0.0000 N   0  0  0  0  0  0  0  0  0  0  0  0
    2.0701   -0.2854    0.0000 C   0  0  0  0  0  0  0  0  0  0  0  0
    2.0701   -1.1104    0.0000 N   0  0  0  0  0  0  0  0  0  0  0  0
    1.3556   -1.5229    0.0000 C   0  0  0  0  0  0  0  0  0  0  0  0
    1.3556   -2.3479    0.0000 O   0  0  0  0  0  0  0  0  0  0  0  0
    2.7845    0.1271    0.0000 N   0  0  0  0  0  0  0  0  0  0  0  0
   -1.6604   -0.6979    0.0000 H   0  0  0  0  0  0  0  0  0  0  0  0
   -1.1550   -0.0025    0.0000 H   0  0  0  0  0  0  0  0  0  0  0  0
   -2.0488    0.3802    0.0000 H   0  0  0  0  0  0  0  0  0  0  0  0
   -2.1365    1.4949    0.0000 H   0  0  0  0  0  0  0  0  0  0  0  0
   -2.1365    1.3483    0.0000 H   0  0  0  0  0  0  0  0  0  0  0  0
   -1.1550    2.8456    0.0000 H   0  0  0  0  0  0  0  0  0  0  0  0
    0.9031    3.0961    0.0000 H   0  0  0  0  0  0  0  0  0  0  0  0
    0.1872    3.8912    0.0000 H   0  0  0  0  0  0  0  0  0  0  0  0
    0.5457    3.0676    0.0000 H   0  0  0  0  0  0  0  0  0  0  0  0
   -1.1211    4.6702    0.0000 H   0  0  0  0  0  0  0  0  0  0  0  0
   -2.0932    4.6562    0.0000 H   0  0  0  0  0  0  0  0  0  0  0  0
   -2.6267    5.6388    0.0000 H   0  0  0  0  0  0  0  0  0  0  0  0
   -2.5671    5.5050    0.0000 H   0  0  0  0  0  0  0  0  0  0  0  0
   -0.5102    7.5445    0.0000 H   0  0  0  0  0  0  0  0  0  0  0  0
    0.2993    7.8757    0.0000 H   0  0  0  0  0  0  0  0  0  0  0  0
    1.1650    7.2468    0.0000 H   0  0  0  0  0  0  0  0  0  0  0  0
    0.7535    5.3620    0.0000 H   0  0  0  0  0  0  0  0  0  0  0  0
   -2.9338    4.9134    0.0000 H   0  0  0  0  0  0  0  0  0  0  0  0
   -5.4259    7.9589    0.0000 H   0  0  0  0  0  0  0  0  0  0  0  0
   -5.7803    6.2909    0.0000 H   0  0  0  0  0  0  0  0  0  0  0  0
   -1.7491    3.2837    0.0000 H   0  0  0  0  0  0  0  0  0  0  0  0
    1.3556    1.1116    0.0000 H   0  0  0  0  0  0  0  0  0  0  0  0
    3.6371   -0.3651    0.0000 H   0  0  0  0  0  0  0  0  0  0  0  0
    2.7845    1.1116    0.0000 H   0  0  0  0  0  0  0  0  0  0  0  0
  1  2  2  0  0  0  0
  1  5  1  0  0  0  0
  1 39  1  0  0  0  0
  2  3  1  0  0  0  0
  3  4  2  0  0  0  0
  3 36  1  0  0  0  0
  4  5  1  0  0  0  0
  4 33  1  0  0  0  0
  6  5  1  0  0  0  0
  6  7  1  0  0  0  0
  6 10  1  0  0  0  0
  6 40  1  6  0  0  0
  7  8  1  0  0  0  0
  7 41  1  0  0  0  0
  7 42  1  0  0  0  0
  8  9  1  0  0  0  0
  8 32  1  0  0  0  0
  8 43  1  1  0  0  0
  9 10  1  0  0  0  0
  9 11  1  0  0  0  0
  9 44  1  6  0  0  0
 11 12  1  0  0  0  0
 11 45  1  0  0  0  0
 11 46  1  0  0  0  0
 12 13  1  0  0  0  0
 13 14  2  0  0  0  0
 13 15  1  0  0  0  0
 13 16  1  0  0  0  0
 15 47  1  0  0  0  0
 17 16  1  0  0  0  0
 17 18  1  0  0  0  0
 17 21  1  0  0  0  0
 17 48  1  6  0  0  0
 18 19  1  0  0  0  0
 18 49  1  0  0  0  0
 18 50  1  0  0  0  0
 19 20  1  0  0  0  0
 19 24  1  0  0  0  0
 19 51  1  1  0  0  0
 20 21  1  0  0  0  0
 21 22  1  0  0  0  0
 21 52  1  1  0  0  0
 22 23  1  0  0  0  0
 22 53  1  0  0  0  0
 22 54  1  0  0  0  0
 23 55  1  0  0  0  0
 24 25  1  0  0  0  0
 24 29  1  0  0  0  0
 25 26  2  0  0  0  0
 25 56  1  0  0  0  0
 26 27  1  0  0  0  0
 27 28  2  0  0  0  0
 27 31  1  0  0  0  0
 28 29  1  0  0  0  0
 29 30  2  0  0  0  0
 31 57  1  0  0  0  0
 31 58  1  0  0  0  0
 32 59  1  0  0  0  0
 33 34  1  0  0  0  0
 33 60  1  0  0  0  0
 34 35  2  0  0  0  0
 34 38  1  0  0  0  0
 35 36  1  0  0  0  0
 36 37  2  0  0  0  0
 38 61  1  0  0  0  0
 38 62  1  0  0  0  0
M  END
>  <DRUGBANK_ID>
DB11918

>  <COMMON_NAME>
Guadecitabine

>  <CAS_NUMBER>
929901-49-5

>  <UNII>
2KT4YN1DP7

>  <SYNONYMS>
Guadecitabine

$$$$
