
 OpenBabel10282417072D

 34 34  0  0  1  0  0  0  0  0999 V2000
    0.5678    1.9393    0.0000 B   0  0  0  0  0  0  0  0  0  0  0  0
    0.5678    1.1143    0.0000 C   0  0  2  0  0  0  0  0  0  0  0  0
    1.2352    0.6294    0.0000 C   0  0  0  0  0  0  0  0  0  0  0  0
    0.9803   -0.1553    0.0000 C   0  0  0  0  0  0  0  0  0  0  0  0
    0.1553   -0.1553    0.0000 C   0  0  0  0  0  0  0  0  0  0  0  0
   -0.0997    0.6294    0.0000 N   0  0  0  0  0  0  0  0  0  0  0  0
   -0.8843    0.8843    0.0000 C   0  0  0  0  0  0  0  0  0  0  0  0
   -1.0558    1.6913    0.0000 O   0  0  0  0  0  0  0  0  0  0  0  0
   -1.4974    0.3323    0.0000 C   0  0  2  0  0  0  0  0  0  0  0  0
   -2.2820    0.5872    0.0000 C   0  0  0  0  0  0  0  0  0  0  0  0
   -2.8951    0.0352    0.0000 C   0  0  0  0  0  0  0  0  0  0  0  0
   -2.4535    1.3942    0.0000 C   0  0  0  0  0  0  0  0  0  0  0  0
   -1.3259   -0.4747    0.0000 N   0  0  0  0  0  0  0  0  0  0  0  0
   -0.1467    2.3518    0.0000 O   0  0  0  0  0  0  0  0  0  0  0  0
    1.2822    2.3518    0.0000 O   0  0  0  0  0  0  0  0  0  0  0  0
    1.5212    1.6001    0.0000 H   0  0  0  0  0  0  0  0  0  0  0  0
    2.2528    0.9601    0.0000 H   0  0  0  0  0  0  0  0  0  0  0  0
    1.9918   -0.1272    0.0000 H   0  0  0  0  0  0  0  0  0  0  0  0
    1.6093   -1.0209    0.0000 H   0  0  0  0  0  0  0  0  0  0  0  0
    0.4945   -1.1087    0.0000 H   0  0  0  0  0  0  0  0  0  0  0  0
   -0.4736   -1.0210    0.0000 H   0  0  0  0  0  0  0  0  0  0  0  0
   -0.9015    0.0121    0.0000 H   0  0  0  0  0  0  0  0  0  0  0  0
   -0.4798    0.0016    0.0000 H   0  0  0  0  0  0  0  0  0  0  0  0
   -3.2996    0.9179    0.0000 H   0  0  0  0  0  0  0  0  0  0  0  0
   -3.9127    0.3659    0.0000 H   0  0  0  0  0  0  0  0  0  0  0  0
   -2.6727   -1.0114    0.0000 H   0  0  0  0  0  0  0  0  0  0  0  0
   -3.6903   -0.6807    0.0000 H   0  0  0  0  0  0  0  0  0  0  0  0
   -1.6583    2.1101    0.0000 H   0  0  0  0  0  0  0  0  0  0  0  0
   -3.4711    1.7249    0.0000 H   0  0  0  0  0  0  0  0  0  0  0  0
   -2.6759    2.4408    0.0000 H   0  0  0  0  0  0  0  0  0  0  0  0
   -2.0839   -1.1572    0.0000 H   0  0  0  0  0  0  0  0  0  0  0  0
   -0.3558   -0.7899    0.0000 H   0  0  0  0  0  0  0  0  0  0  0  0
   -0.1467    3.3218    0.0000 H   0  0  0  0  0  0  0  0  0  0  0  0
    2.1223    1.8668    0.0000 H   0  0  0  0  0  0  0  0  0  0  0  0
  1 14  1  0  0  0  0
  1 15  1  0  0  0  0
  2  1  1  0  0  0  0
  2  3  1  0  0  0  0
  2  6  1  0  0  0  0
  2 16  1  1  0  0  0
  3  4  1  0  0  0  0
  3 17  1  0  0  0  0
  3 18  1  0  0  0  0
  4  5  1  0  0  0  0
  4 19  1  0  0  0  0
  4 20  1  0  0  0  0
  5  6  1  0  0  0  0
  5 21  1  0  0  0  0
  5 22  1  0  0  0  0
  6  7  1  0  0  0  0
  7  8  2  0  0  0  0
  7  9  1  0  0  0  0
  9 10  1  0  0  0  0
  9 13  1  0  0  0  0
  9 23  1  6  0  0  0
 10 11  1  0  0  0  0
 10 12  1  0  0  0  0
 10 24  1  0  0  0  0
 11 25  1  0  0  0  0
 11 26  1  0  0  0  0
 11 27  1  0  0  0  0
 12 28  1  0  0  0  0
 12 29  1  0  0  0  0
 12 30  1  0  0  0  0
 13 31  1  0  0  0  0
 13 32  1  0  0  0  0
 14 33  1  0  0  0  0
 15 34  1  0  0  0  0
M  END
>  <DRUGBANK_ID>
DB06182

>  <COMMON_NAME>
Talabostat

>  <CAS_NUMBER>
149682-77-9

>  <UNII>
KZ1O2SH88Z

>  <SYNONYMS>
Talabostat

$$$$
