586
 OpenBabel10282417072D

 30 31  0  0  0  0  0  0  0  0999 V2000
    4.5080   -1.2870    0.0000 Cl  0  0  0  0  0  0  0  0  0  0  0  0
    1.6500   -1.2870    0.0000 Cl  0  0  0  0  0  0  0  0  0  0  0  0
    2.3645    2.4256    0.0000 O   0  0  0  0  0  0  0  0  0  0  0  0
    3.7935    2.4256    0.0000 O   0  0  0  0  0  0  0  0  0  0  0  0
    3.0791   -0.4620    0.0000 N   0  0  0  0  0  0  0  0  0  0  0  0
    3.7935    0.7755    0.0000 C   0  0  0  0  0  0  0  0  0  0  0  0
    3.7935   -0.0495    0.0000 C   0  0  0  0  0  0  0  0  0  0  0  0
    3.0791    1.1880    0.0000 C   0  0  0  0  0  0  0  0  0  0  0  0
    3.0791   -1.2870    0.0000 C   0  0  0  0  0  0  0  0  0  0  0  0
    4.5080    1.1880    0.0000 C   0  0  0  0  0  0  0  0  0  0  0  0
    4.5080   -0.4620    0.0000 C   0  0  0  0  0  0  0  0  0  0  0  0
    5.2224    0.7755    0.0000 C   0  0  0  0  0  0  0  0  0  0  0  0
    5.2224   -0.0495    0.0000 C   0  0  0  0  0  0  0  0  0  0  0  0
    3.7935   -1.6995    0.0000 C   0  0  0  0  0  0  0  0  0  0  0  0
    2.3645   -1.6995    0.0000 C   0  0  0  0  0  0  0  0  0  0  0  0
    3.0791    2.0130    0.0000 C   0  0  0  0  0  0  0  0  0  0  0  0
    3.7935   -2.5246    0.0000 C   0  0  0  0  0  0  0  0  0  0  0  0
    2.3645   -2.5246    0.0000 C   0  0  0  0  0  0  0  0  0  0  0  0
    3.0791   -2.9371    0.0000 C   0  0  0  0  0  0  0  0  0  0  0  0
    2.3645    3.3626    0.0000 H   0  0  0  0  0  0  0  0  0  0  0  0
    2.2265    0.0302    0.0000 H   0  0  0  0  0  0  0  0  0  0  0  0
    2.1524    0.6530    0.0000 H   0  0  0  0  0  0  0  0  0  0  0  0
    2.1525    1.7230    0.0000 H   0  0  0  0  0  0  0  0  0  0  0  0
    4.5080    2.2200    0.0000 H   0  0  0  0  0  0  0  0  0  0  0  0
    4.5080   -1.4940    0.0000 H   0  0  0  0  0  0  0  0  0  0  0  0
    6.1161    1.2915    0.0000 H   0  0  0  0  0  0  0  0  0  0  0  0
    6.1161   -0.5655    0.0000 H   0  0  0  0  0  0  0  0  0  0  0  0
    4.6872   -3.0406    0.0000 H   0  0  0  0  0  0  0  0  0  0  0  0
    1.4708   -3.0406    0.0000 H   0  0  0  0  0  0  0  0  0  0  0  0
    3.0792   -3.9691    0.0000 H   0  0  0  0  0  0  0  0  0  0  0  0
  1 14  1  0  0  0  0
  2 15  1  0  0  0  0
  3 16  1  0  0  0  0
  3 20  1  0  0  0  0
  4 16  2  0  0  0  0
  5  7  1  0  0  0  0
  5  9  1  0  0  0  0
  5 21  1  0  0  0  0
  6  7  1  0  0  0  0
  6  8  1  0  0  0  0
  6 10  2  0  0  0  0
  7 11  2  0  0  0  0
  8 16  1  0  0  0  0
  8 22  1  0  0  0  0
  8 23  1  0  0  0  0
  9 14  2  0  0  0  0
  9 15  1  0  0  0  0
 10 12  1  0  0  0  0
 10 24  1  0  0  0  0
 11 13  1  0  0  0  0
 11 25  1  0  0  0  0
 12 13  2  0  0  0  0
 12 26  1  0  0  0  0
 13 27  1  0  0  0  0
 14 17  1  0  0  0  0
 15 18  2  0  0  0  0
 17 19  2  0  0  0  0
 17 28  1  0  0  0  0
 18 19  1  0  0  0  0
 18 29  1  0  0  0  0
 19 30  1  0  0  0  0
M  END
>  <DRUGBANK_ID>
DB00586

>  <SECONDARY_ACCESSION_NUMBERS>
APRD00527

>  <COMMON_NAME>
Diclofenac

>  <CAS_NUMBER>
15307-86-5

>  <UNII>
144O8QL0L1

>  <SYNONYMS>
[2-(2,6-dichloroanilino)phenyl]acetic acid; 2-((2,6-dichlorophenyl)amino)benzeneacetic acid; Diclofenac; Diclofenac acid; Diclofenaco; Diclofenacum

$$$$
