
 OpenBabel10282417072D

 50 53  0  0  0  0  0  0  0  0999 V2000
    3.4851    1.8899    0.0000 N   0  0  0  0  0  0  0  0  0  0  0  0
   -2.1123   -0.4737    0.0000 N   0  0  0  0  0  0  0  0  0  0  0  0
   -2.9050   -0.3866    0.0000 C   0  0  0  0  0  0  0  0  0  0  0  0
    2.6730    1.9044    0.0000 C   0  0  0  0  0  0  0  0  0  0  0  0
    3.7364    1.1503    0.0000 C   0  0  0  0  0  0  0  0  0  0  0  0
   -3.2434   -1.1262    0.0000 O   0  0  0  0  0  0  0  0  0  0  0  0
   -1.9334   -1.2567    0.0000 C   0  0  0  0  0  0  0  0  0  0  0  0
    2.4313    1.1213    0.0000 S   0  0  0  0  0  0  0  0  0  0  0  0
   -2.6294   -1.6772    0.0000 C   0  0  0  0  0  0  0  0  0  0  0  0
    3.0983    0.6718    0.0000 C   0  0  3  0  0  0  0  0  0  0  0  0
    0.1933   -1.7449    0.0000 C   0  0  0  0  0  0  0  0  0  0  0  0
    2.1848    2.5570    0.0000 O   0  0  0  0  0  0  0  0  0  0  0  0
   -3.3110    0.3238    0.0000 C   0  0  0  0  0  0  0  0  0  0  0  0
    4.5291    0.9087    0.0000 O   0  0  0  0  0  0  0  0  0  0  0  0
   -1.2664   -1.7014    0.0000 C   0  0  0  0  0  0  0  0  0  0  0  0
    0.9377   -1.4017    0.0000 C   0  0  0  0  0  0  0  0  0  0  0  0
    3.1128   -0.1546    0.0000 C   0  0  0  0  0  0  0  0  0  0  0  0
   -0.5027   -1.2567    0.0000 C   0  0  0  0  0  0  0  0  0  0  0  0
    0.1933   -2.5570    0.0000 O   0  0  0  0  0  0  0  0  0  0  0  0
    0.9377   -0.5752    0.0000 C   0  0  0  0  0  0  0  0  0  0  0  0
    1.7063   -1.8657    0.0000 C   0  0  0  0  0  0  0  0  0  0  0  0
    2.4119   -0.5752    0.0000 C   0  0  0  0  0  0  0  0  0  0  0  0
    2.4119   -1.4452    0.0000 C   0  0  0  0  0  0  0  0  0  0  0  0
    1.6869   -0.1257    0.0000 C   0  0  0  0  0  0  0  0  0  0  0  0
   -2.7165   -2.4748    0.0000 C   0  0  0  0  0  0  0  0  0  0  0  0
   -2.8663    1.0247    0.0000 C   0  0  0  0  0  0  0  0  0  0  0  0
   -4.1231    0.3238    0.0000 C   0  0  0  0  0  0  0  0  0  0  0  0
   -3.2724    1.7498    0.0000 C   0  0  0  0  0  0  0  0  0  0  0  0
   -4.5291    1.0634    0.0000 C   0  0  0  0  0  0  0  0  0  0  0  0
   -4.0844    1.7594    0.0000 C   0  0  0  0  0  0  0  0  0  0  0  0
    4.0656    2.6851    0.0000 H   0  0  0  0  0  0  0  0  0  0  0  0
    4.0595    0.2017    0.0000 H   0  0  0  0  0  0  0  0  0  0  0  0
   -1.2989   -2.7709    0.0000 H   0  0  0  0  0  0  0  0  0  0  0  0
   -0.3470   -2.2487    0.0000 H   0  0  0  0  0  0  0  0  0  0  0  0
    4.0485   -0.6736    0.0000 H   0  0  0  0  0  0  0  0  0  0  0  0
    3.1310   -1.2244    0.0000 H   0  0  0  0  0  0  0  0  0  0  0  0
   -0.4576   -0.1877    0.0000 H   0  0  0  0  0  0  0  0  0  0  0  0
    0.4568   -0.7832    0.0000 H   0  0  0  0  0  0  0  0  0  0  0  0
    0.0397   -0.0667    0.0000 H   0  0  0  0  0  0  0  0  0  0  0  0
    1.7034   -2.8977    0.0000 H   0  0  0  0  0  0  0  0  0  0  0  0
    3.3092   -1.9550    0.0000 H   0  0  0  0  0  0  0  0  0  0  0  0
    1.6944    0.9063    0.0000 H   0  0  0  0  0  0  0  0  0  0  0  0
   -3.6957   -2.9060    0.0000 H   0  0  0  0  0  0  0  0  0  0  0  0
   -1.8534   -3.1072    0.0000 H   0  0  0  0  0  0  0  0  0  0  0  0
   -2.8327   -3.5385    0.0000 H   0  0  0  0  0  0  0  0  0  0  0  0
   -1.8347    0.9964    0.0000 H   0  0  0  0  0  0  0  0  0  0  0  0
   -4.6487   -0.5643    0.0000 H   0  0  0  0  0  0  0  0  0  0  0  0
   -2.7453    2.6370    0.0000 H   0  0  0  0  0  0  0  0  0  0  0  0
   -5.5605    1.0977    0.0000 H   0  0  0  0  0  0  0  0  0  0  0  0
   -4.5748    2.6674    0.0000 H   0  0  0  0  0  0  0  0  0  0  0  0
  1 31  1  0  0  0  0
  2  7  1  0  0  0  0
  3  2  2  0  0  0  0
  3  6  1  0  0  0  0
  4  1  1  0  0  0  0
  5  1  1  0  0  0  0
  6  9  1  0  0  0  0
  7 15  1  0  0  0  0
  8  4  1  0  0  0  0
  9  7  2  0  0  0  0
 10  5  1  0  0  0  0
 10  8  1  0  0  0  0
 10 32  1  0  0  0  0
 11 16  1  0  0  0  0
 12  4  2  0  0  0  0
 13  3  1  0  0  0  0
 14  5  2  0  0  0  0
 15 18  1  0  0  0  0
 15 33  1  0  0  0  0
 15 34  1  0  0  0  0
 16 20  2  0  0  0  0
 16 21  1  0  0  0  0
 17 10  1  0  0  0  0
 17 35  1  0  0  0  0
 17 36  1  0  0  0  0
 18 11  1  0  0  0  0
 18 37  1  0  0  0  0
 18 38  1  0  0  0  0
 19 11  2  0  0  0  0
 20 24  1  0  0  0  0
 20 39  1  0  0  0  0
 21 23  2  0  0  0  0
 21 40  1  0  0  0  0
 22 17  1  0  0  0  0
 23 22  1  0  0  0  0
 23 41  1  0  0  0  0
 24 22  2  0  0  0  0
 24 42  1  0  0  0  0
 25  9  1  0  0  0  0
 25 43  1  0  0  0  0
 25 44  1  0  0  0  0
 25 45  1  0  0  0  0
 26 13  2  0  0  0  0
 26 46  1  0  0  0  0
 27 13  1  0  0  0  0
 27 47  1  0  0  0  0
 28 26  1  0  0  0  0
 28 48  1  0  0  0  0
 29 27  2  0  0  0  0
 29 30  1  0  0  0  0
 29 49  1  0  0  0  0
 30 28  2  0  0  0  0
 30 50  1  0  0  0  0
M  END
>  <DRUGBANK_ID>
DB14034

>  <COMMON_NAME>
Darglitazone

>  <CAS_NUMBER>
141200-24-0

>  <UNII>
AVP9C03Z3K

>  <SYNONYMS>
Darglitazone

$$$$
