
 OpenBabel10282417072D

 46 47  0  0  0  0  0  0  0  0999 V2000
    0.7127   -0.2071    0.0000 C   0  0  0  0  0  0  0  0  0  0  0  0
    0.7139    0.6211    0.0000 C   0  0  0  0  0  0  0  0  0  0  0  0
   -0.0015    1.0344    0.0000 C   0  0  0  0  0  0  0  0  0  0  0  0
   -0.7188    0.6206    0.0000 C   0  0  0  0  0  0  0  0  0  0  0  0
   -0.7159   -0.2107    0.0000 C   0  0  0  0  0  0  0  0  0  0  0  0
    0.0002   -0.6203    0.0000 C   0  0  0  0  0  0  0  0  0  0  0  0
   -1.4284    1.0317    0.0000 C   0  0  0  0  0  0  0  0  0  0  0  0
   -2.1416    0.6187    0.0000 C   0  0  0  0  0  0  0  0  0  0  0  0
   -2.8553    1.0330    0.0000 C   0  0  0  0  0  0  0  0  0  0  0  0
   -3.5683    0.6207    0.0000 N   0  0  0  0  0  0  0  0  0  0  0  0
   -3.5678   -0.2044    0.0000 C   0  0  0  0  0  0  0  0  0  0  0  0
   -2.8484   -0.6153    0.0000 N   0  0  0  0  0  0  0  0  0  0  0  0
   -2.1385   -0.2008    0.0000 C   0  0  0  0  0  0  0  0  0  0  0  0
   -4.2819   -0.6190    0.0000 N   0  0  0  0  0  0  0  0  0  0  0  0
   -2.8548    1.8588    0.0000 N   0  0  0  0  0  0  0  0  0  0  0  0
    0.0023   -1.4459    0.0000 O   0  0  0  0  0  0  0  0  0  0  0  0
   -0.7069   -1.8588    0.0000 C   0  0  0  0  0  0  0  0  0  0  0  0
    1.4288   -0.6200    0.0000 O   0  0  0  0  0  0  0  0  0  0  0  0
    2.1420   -0.2071    0.0000 C   0  0  0  0  0  0  0  0  0  0  0  0
    2.8553   -0.6158    0.0000 C   0  0  0  0  0  0  0  0  0  0  0  0
    3.5687   -0.2030    0.0000 O   0  0  0  0  0  0  0  0  0  0  0  0
    4.2819   -0.6117    0.0000 C   0  0  0  0  0  0  0  0  0  0  0  0
    1.4288    1.0275    0.0000 O   0  0  0  0  0  0  0  0  0  0  0  0
    2.1378    0.6146    0.0000 C   0  0  0  0  0  0  0  0  0  0  0  0
   -0.0012    2.0664    0.0000 H   0  0  0  0  0  0  0  0  0  0  0  0
   -1.6077   -0.7301    0.0000 H   0  0  0  0  0  0  0  0  0  0  0  0
   -1.4283    2.1017    0.0000 H   0  0  0  0  0  0  0  0  0  0  0  0
   -2.3554    1.5661    0.0000 H   0  0  0  0  0  0  0  0  0  0  0  0
   -1.2425   -0.7129    0.0000 H   0  0  0  0  0  0  0  0  0  0  0  0
   -5.1357   -0.1288    0.0000 H   0  0  0  0  0  0  0  0  0  0  0  0
   -4.2795   -1.6035    0.0000 H   0  0  0  0  0  0  0  0  0  0  0  0
   -2.0019    2.3505    0.0000 H   0  0  0  0  0  0  0  0  0  0  0  0
   -3.7071    2.3516    0.0000 H   0  0  0  0  0  0  0  0  0  0  0  0
   -1.6355   -1.3272    0.0000 H   0  0  0  0  0  0  0  0  0  0  0  0
   -0.7030   -2.9288    0.0000 H   0  0  0  0  0  0  0  0  0  0  0  0
   -1.6316   -2.3972    0.0000 H   0  0  0  0  0  0  0  0  0  0  0  0
    2.1396    0.8629    0.0000 H   0  0  0  0  0  0  0  0  0  0  0  0
    3.0672    0.3305    0.0000 H   0  0  0  0  0  0  0  0  0  0  0  0
    2.8576   -1.6858    0.0000 H   0  0  0  0  0  0  0  0  0  0  0  0
    3.7828   -1.1494    0.0000 H   0  0  0  0  0  0  0  0  0  0  0  0
    4.2854   -1.6817    0.0000 H   0  0  0  0  0  0  0  0  0  0  0  0
    5.2068   -0.0737    0.0000 H   0  0  0  0  0  0  0  0  0  0  0  0
    5.2103   -1.1437    0.0000 H   0  0  0  0  0  0  0  0  0  0  0  0
    2.1338   -0.4554    0.0000 H   0  0  0  0  0  0  0  0  0  0  0  0
    3.0665    1.1461    0.0000 H   0  0  0  0  0  0  0  0  0  0  0  0
    3.0624    0.0761    0.0000 H   0  0  0  0  0  0  0  0  0  0  0  0
  1  2  2  0  0  0  0
  1 18  1  0  0  0  0
  2  3  1  0  0  0  0
  2 23  1  0  0  0  0
  3  4  2  0  0  0  0
  3 25  1  0  0  0  0
  4  7  1  0  0  0  0
  4  5  1  0  0  0  0
  5  6  2  0  0  0  0
  5 26  1  0  0  0  0
  6  1  1  0  0  0  0
  6 16  1  0  0  0  0
  7  8  1  0  0  0  0
  7 27  1  0  0  0  0
  7 28  1  0  0  0  0
  8  9  2  0  0  0  0
  9 15  1  0  0  0  0
  9 10  1  0  0  0  0
 10 11  2  0  0  0  0
 11 12  1  0  0  0  0
 11 14  1  0  0  0  0
 12 13  2  0  0  0  0
 13  8  1  0  0  0  0
 13 29  1  0  0  0  0
 14 30  1  0  0  0  0
 14 31  1  0  0  0  0
 15 32  1  0  0  0  0
 15 33  1  0  0  0  0
 16 17  1  0  0  0  0
 17 34  1  0  0  0  0
 17 35  1  0  0  0  0
 17 36  1  0  0  0  0
 18 19  1  0  0  0  0
 19 20  1  0  0  0  0
 19 37  1  0  0  0  0
 19 38  1  0  0  0  0
 20 21  1  0  0  0  0
 20 39  1  0  0  0  0
 20 40  1  0  0  0  0
 21 22  1  0  0  0  0
 22 41  1  0  0  0  0
 22 42  1  0  0  0  0
 22 43  1  0  0  0  0
 23 24  1  0  0  0  0
 24 44  1  0  0  0  0
 24 45  1  0  0  0  0
 24 46  1  0  0  0  0
M  END
>  <DRUGBANK_ID>
DB15976

>  <COMMON_NAME>
Tetroxoprim

>  <CAS_NUMBER>
53808-87-0

>  <UNII>
5R6712AY0K

>  <SYNONYMS>
Tetroxoprim; Tetroxoprima; Tetroxoprime; Tetroxoprimum

$$$$
