
 OpenBabel10282417072D

 27 27  0  0  1  0  0  0  0  0999 V2000
    2.1434   -3.7125    0.0000 C   0  0  0  0  0  0  0  0  0  0  0  0
    2.1434   -2.8875    0.0000 C   0  0  2  0  0  0  0  0  0  0  0  0
    1.4289   -2.4750    0.0000 O   0  0  0  0  0  0  0  0  0  0  0  0
    0.7145   -2.8875    0.0000 C   0  0  0  0  0  0  0  0  0  0  0  0
    0.0000   -2.4750    0.0000 N   0  0  0  0  0  0  0  0  0  0  0  0
    0.7145   -3.7125    0.0000 O   0  0  0  0  0  0  0  0  0  0  0  0
    2.8579   -2.4750    0.0000 C   0  0  1  0  0  0  0  0  0  0  0  0
    2.8579   -1.6500    0.0000 O   0  0  0  0  0  0  0  0  0  0  0  0
    3.5724   -2.8875    0.0000 C   0  0  0  0  0  0  0  0  0  0  0  0
    4.2868   -2.4750    0.0000 C   0  0  0  0  0  0  0  0  0  0  0  0
    5.0013   -2.8875    0.0000 C   0  0  0  0  0  0  0  0  0  0  0  0
    5.0013   -3.7125    0.0000 C   0  0  0  0  0  0  0  0  0  0  0  0
    4.2868   -4.1250    0.0000 C   0  0  0  0  0  0  0  0  0  0  0  0
    3.5724   -3.7125    0.0000 C   0  0  0  0  0  0  0  0  0  0  0  0
    2.8579   -4.1250    0.0000 Cl  0  0  0  0  0  0  0  0  0  0  0  0
    1.2168   -4.2475    0.0000 H   0  0  0  0  0  0  0  0  0  0  0  0
    3.0700   -4.2475    0.0000 H   0  0  0  0  0  0  0  0  0  0  0  0
    2.1434   -4.7825    0.0000 H   0  0  0  0  0  0  0  0  0  0  0  0
    1.2168   -3.4225    0.0000 H   0  0  0  0  0  0  0  0  0  0  0  0
   -0.0000   -1.4905    0.0000 H   0  0  0  0  0  0  0  0  0  0  0  0
   -0.8526   -2.9673    0.0000 H   0  0  0  0  0  0  0  0  0  0  0  0
    1.9313   -1.9400    0.0000 H   0  0  0  0  0  0  0  0  0  0  0  0
    3.6979   -1.1650    0.0000 H   0  0  0  0  0  0  0  0  0  0  0  0
    4.2868   -1.4430    0.0000 H   0  0  0  0  0  0  0  0  0  0  0  0
    5.8950   -2.3715    0.0000 H   0  0  0  0  0  0  0  0  0  0  0  0
    5.8950   -4.2285    0.0000 H   0  0  0  0  0  0  0  0  0  0  0  0
    4.2868   -5.1570    0.0000 H   0  0  0  0  0  0  0  0  0  0  0  0
  1 16  1  0  0  0  0
  1 17  1  0  0  0  0
  1 18  1  0  0  0  0
  2  1  1  0  0  0  0
  2  3  1  0  0  0  0
  2  7  1  0  0  0  0
  2 19  1  1  0  0  0
  3  4  1  0  0  0  0
  4  5  1  0  0  0  0
  4  6  2  0  0  0  0
  5 20  1  0  0  0  0
  5 21  1  0  0  0  0
  7  8  1  0  0  0  0
  7  9  1  0  0  0  0
  7 22  1  6  0  0  0
  8 23  1  0  0  0  0
  9 10  2  0  0  0  0
  9 14  1  0  0  0  0
 10 11  1  0  0  0  0
 10 24  1  0  0  0  0
 11 12  2  0  0  0  0
 11 25  1  0  0  0  0
 12 13  1  0  0  0  0
 12 26  1  0  0  0  0
 13 14  2  0  0  0  0
 13 27  1  0  0  0  0
 14 15  1  0  0  0  0
M  END
>  <DRUGBANK_ID>
DB16034

>  <COMMON_NAME>
JBPOS0101

>  <CAS_NUMBER>
1353949-71-9

>  <UNII>
D7NM51C3GU

$$$$
