
 OpenBabel10282417072D

 39 41  0  0  1  0  0  0  0  0999 V2000
    4.7079   -0.4125    0.0000 C   0  0  0  0  0  0  0  0  0  0  0  0
    3.9934    0.8250    0.0000 C   0  0  0  0  0  0  0  0  0  0  0  0
    3.2789    1.2375    0.0000 C   0  0  0  0  0  0  0  0  0  0  0  0
    3.2789   -0.4125    0.0000 C   0  0  0  0  0  0  0  0  0  0  0  0
   -1.1801    1.8414    0.0000 C   0  0  0  0  0  0  0  0  0  0  0  0
    3.9934    0.0000    0.0000 C   0  0  0  0  0  0  0  0  0  0  0  0
    2.5645    0.8250    0.0000 C   0  0  0  0  0  0  0  0  0  0  0  0
    2.5645    0.0000    0.0000 C   0  0  0  0  0  0  0  0  0  0  0  0
   -0.7676    1.1270    0.0000 C   0  0  2  0  0  0  0  0  0  0  0  0
   -1.1801    0.4125    0.0000 C   0  0  2  0  0  0  0  0  0  0  0  0
   -0.7676   -0.3020    0.0000 C   0  0  1  0  0  0  0  0  0  0  0  0
    0.0574   -0.3020    0.0000 C   0  0  2  0  0  0  0  0  0  0  0  0
    0.4699    0.4125    0.0000 C   0  0  2  0  0  0  0  0  0  0  0  0
    1.2949    0.4125    0.0000 C   0  0  0  0  0  0  0  0  0  0  0  0
    1.7798    1.0799    0.0000 N   0  0  0  0  0  0  0  0  0  0  0  0
    1.7798   -0.2549    0.0000 N   0  0  0  0  0  0  0  0  0  0  0  0
   -2.0051    1.8414    0.0000 O   0  0  0  0  0  0  0  0  0  0  0  0
   -2.0051    0.4125    0.0000 O   0  0  0  0  0  0  0  0  0  0  0  0
   -1.1801   -1.0164    0.0000 O   0  0  0  0  0  0  0  0  0  0  0  0
    0.4699   -1.0164    0.0000 O   0  0  0  0  0  0  0  0  0  0  0  0
    0.0574    1.1270    0.0000 O   0  0  0  0  0  0  0  0  0  0  0  0
   -1.5428    0.8448    0.0000 H   0  0  0  0  0  0  0  0  0  0  0  0
   -1.8121    0.9428    0.0000 H   0  0  0  0  0  0  0  0  0  0  0  0
   -1.5926   -0.3020    0.0000 H   0  0  0  0  0  0  0  0  0  0  0  0
   -0.3551   -1.0164    0.0000 H   0  0  0  0  0  0  0  0  0  0  0  0
    0.8824   -0.3020    0.0000 H   0  0  0  0  0  0  0  0  0  0  0  0
    4.7079   -1.4825    0.0000 H   0  0  0  0  0  0  0  0  0  0  0  0
    5.6345    0.1225    0.0000 H   0  0  0  0  0  0  0  0  0  0  0  0
    5.6346   -0.9475    0.0000 H   0  0  0  0  0  0  0  0  0  0  0  0
    4.8871    1.3410    0.0000 H   0  0  0  0  0  0  0  0  0  0  0  0
    3.2789    2.2695    0.0000 H   0  0  0  0  0  0  0  0  0  0  0  0
    3.2789   -1.4445    0.0000 H   0  0  0  0  0  0  0  0  0  0  0  0
   -0.6451    2.7681    0.0000 H   0  0  0  0  0  0  0  0  0  0  0  0
   -1.7151    2.7680    0.0000 H   0  0  0  0  0  0  0  0  0  0  0  0
    1.4755   -1.1912    0.0000 H   0  0  0  0  0  0  0  0  0  0  0  0
   -2.4901    2.6814    0.0000 H   0  0  0  0  0  0  0  0  0  0  0  0
   -2.4901    1.2525    0.0000 H   0  0  0  0  0  0  0  0  0  0  0  0
   -2.1501   -1.0164    0.0000 H   0  0  0  0  0  0  0  0  0  0  0  0
   -0.0151   -1.8565    0.0000 H   0  0  0  0  0  0  0  0  0  0  0  0
  1 27  1  0  0  0  0
  1 28  1  0  0  0  0
  1 29  1  0  0  0  0
  2 30  1  0  0  0  0
  3  2  2  0  0  0  0
  3 31  1  0  0  0  0
  4 32  1  0  0  0  0
  5 33  1  0  0  0  0
  5 34  1  0  0  0  0
  6  1  1  0  0  0  0
  6  2  1  0  0  0  0
  6  4  2  0  0  0  0
  7  3  1  0  0  0  0
  8  4  1  0  0  0  0
  8  7  2  0  0  0  0
  9  5  1  0  0  0  0
  9 22  1  6  0  0  0
 10  9  1  0  0  0  0
 10 18  1  0  0  0  0
 10 23  1  1  0  0  0
 11 10  1  0  0  0  0
 11 19  1  0  0  0  0
 11 24  1  6  0  0  0
 12 11  1  0  0  0  0
 12 20  1  0  0  0  0
 12 25  1  1  0  0  0
 13 12  1  0  0  0  0
 13 14  1  0  0  0  0
 13 26  1  6  0  0  0
 15  7  1  0  0  0  0
 15 14  2  0  0  0  0
 16  8  1  0  0  0  0
 16 14  1  0  0  0  0
 16 35  1  0  0  0  0
 17  5  1  0  0  0  0
 17 36  1  0  0  0  0
 18 37  1  0  0  0  0
 19 38  1  0  0  0  0
 20 39  1  0  0  0  0
 21  9  1  0  0  0  0
 21 13  1  0  0  0  0
M  END
>  <DRUGBANK_ID>
DB03133

>  <SECONDARY_ACCESSION_NUMBERS>
EXPT01871

>  <COMMON_NAME>
2-(Beta-D-Glucopyranosyl)-5-Methyl-1,2,3-Benzimidazole

$$$$
