
 OpenBabel10282417072D

 68 71  0  0  0  0  0  0  0  0999 V2000
   -2.6874   -4.2616    0.0000 Cl  0  0  0  0  0  0  0  0  0  0  0  0
   -1.4499    0.9607    0.0000 O   0  5  0  0  0  0  0  0  0  0  0  0
   -0.6249   -2.1181    0.0000 O   0  0  0  0  0  0  0  0  0  0  0  0
   -0.8163    1.6752    0.0000 O   0  0  0  0  0  0  0  0  0  0  0  0
   -1.0374    0.2463    0.0000 N   0  3  3  0  0  0  0  0  0  0  0  0
   -0.6322    2.7197    0.0000 N   0  0  0  0  0  0  0  0  0  0  0  0
   -1.0374   -1.4037    0.0000 C   0  0  3  0  0  0  0  0  0  0  0  0
   -0.3229   -0.1661    0.0000 C   0  0  0  0  0  0  0  0  0  0  0  0
   -1.7519   -0.1661    0.0000 C   0  0  0  0  0  0  0  0  0  0  0  0
   -0.3229   -0.9912    0.0000 C   0  0  0  0  0  0  0  0  0  0  0  0
   -1.7519   -0.9912    0.0000 C   0  0  0  0  0  0  0  0  0  0  0  0
   -0.6249    0.9607    0.0000 C   0  0  0  0  0  0  0  0  0  0  0  0
    0.2000    0.9607    0.0000 C   0  0  0  0  0  0  0  0  0  0  0  0
    0.6125    1.6752    0.0000 C   0  0  0  0  0  0  0  0  0  0  0  0
   -1.4499   -2.1181    0.0000 C   0  0  0  0  0  0  0  0  0  0  0  0
    1.0250    2.3897    0.0000 C   0  0  0  0  0  0  0  0  0  0  0  0
    1.3270    1.2627    0.0000 C   0  0  0  0  0  0  0  0  0  0  0  0
   -0.1018    2.0877    0.0000 C   0  0  0  0  0  0  0  0  0  0  0  0
   -2.2749   -2.1181    0.0000 C   0  0  0  0  0  0  0  0  0  0  0  0
   -1.0374   -2.8327    0.0000 C   0  0  0  0  0  0  0  0  0  0  0  0
    1.3270    0.4377    0.0000 C   0  0  0  0  0  0  0  0  0  0  0  0
    1.8501    2.3897    0.0000 C   0  0  0  0  0  0  0  0  0  0  0  0
    2.0415    1.6752    0.0000 C   0  0  0  0  0  0  0  0  0  0  0  0
    0.6125    3.1042    0.0000 C   0  0  0  0  0  0  0  0  0  0  0  0
   -2.6874   -2.8327    0.0000 C   0  0  0  0  0  0  0  0  0  0  0  0
   -1.4499   -3.5472    0.0000 C   0  0  0  0  0  0  0  0  0  0  0  0
   -2.2749   -3.5472    0.0000 C   0  0  0  0  0  0  0  0  0  0  0  0
    2.2626    3.1042    0.0000 C   0  0  0  0  0  0  0  0  0  0  0  0
    2.0415    0.0252    0.0000 C   0  0  0  0  0  0  0  0  0  0  0  0
    1.0250    3.8187    0.0000 C   0  0  0  0  0  0  0  0  0  0  0  0
    2.7560    1.2627    0.0000 C   0  0  0  0  0  0  0  0  0  0  0  0
   -1.4446    2.5764    0.0000 C   0  0  0  0  0  0  0  0  0  0  0  0
   -0.3500    3.4950    0.0000 C   0  0  0  0  0  0  0  0  0  0  0  0
    1.8501    3.8187    0.0000 C   0  0  0  0  0  0  0  0  0  0  0  0
    2.7560    0.4377    0.0000 C   0  0  0  0  0  0  0  0  0  0  0  0
   -1.1099   -2.9582    0.0000 H   0  0  0  0  0  0  0  0  0  0  0  0
    0.6037    0.3690    0.0000 H   0  0  0  0  0  0  0  0  0  0  0  0
    0.6038   -0.7011    0.0000 H   0  0  0  0  0  0  0  0  0  0  0  0
   -2.6785    0.3690    0.0000 H   0  0  0  0  0  0  0  0  0  0  0  0
   -2.6786   -0.7011    0.0000 H   0  0  0  0  0  0  0  0  0  0  0  0
    0.6037   -1.5262    0.0000 H   0  0  0  0  0  0  0  0  0  0  0  0
    0.6037   -0.4562    0.0000 H   0  0  0  0  0  0  0  0  0  0  0  0
   -2.6785   -1.5262    0.0000 H   0  0  0  0  0  0  0  0  0  0  0  0
   -2.6785   -0.4562    0.0000 H   0  0  0  0  0  0  0  0  0  0  0  0
   -1.1599    1.8874    0.0000 H   0  0  0  0  0  0  0  0  0  0  0  0
   -0.0899    1.8873    0.0000 H   0  0  0  0  0  0  0  0  0  0  0  0
    0.7350    0.0341    0.0000 H   0  0  0  0  0  0  0  0  0  0  0  0
    1.2700    0.9607    0.0000 H   0  0  0  0  0  0  0  0  0  0  0  0
   -2.7909   -1.2244    0.0000 H   0  0  0  0  0  0  0  0  0  0  0  0
   -0.0054   -2.8327    0.0000 H   0  0  0  0  0  0  0  0  0  0  0  0
    0.4333   -0.0783    0.0000 H   0  0  0  0  0  0  0  0  0  0  0  0
    2.3661    1.4960    0.0000 H   0  0  0  0  0  0  0  0  0  0  0  0
    2.0415    2.7072    0.0000 H   0  0  0  0  0  0  0  0  0  0  0  0
   -0.4195    3.1042    0.0000 H   0  0  0  0  0  0  0  0  0  0  0  0
   -3.7194   -2.8327    0.0000 H   0  0  0  0  0  0  0  0  0  0  0  0
   -0.9339   -4.4409    0.0000 H   0  0  0  0  0  0  0  0  0  0  0  0
    3.2946    3.1042    0.0000 H   0  0  0  0  0  0  0  0  0  0  0  0
    2.0415   -1.0068    0.0000 H   0  0  0  0  0  0  0  0  0  0  0  0
    0.5090    4.7124    0.0000 H   0  0  0  0  0  0  0  0  0  0  0  0
    3.6497    1.7787    0.0000 H   0  0  0  0  0  0  0  0  0  0  0  0
   -2.1324    3.3960    0.0000 H   0  0  0  0  0  0  0  0  0  0  0  0
   -1.8105    1.5709    0.0000 H   0  0  0  0  0  0  0  0  0  0  0  0
   -2.4983    2.3905    0.0000 H   0  0  0  0  0  0  0  0  0  0  0  0
    0.7037    3.6808    0.0000 H   0  0  0  0  0  0  0  0  0  0  0  0
   -1.0378    4.3147    0.0000 H   0  0  0  0  0  0  0  0  0  0  0  0
    0.0160    4.5005    0.0000 H   0  0  0  0  0  0  0  0  0  0  0  0
    2.3661    4.7124    0.0000 H   0  0  0  0  0  0  0  0  0  0  0  0
    3.6497   -0.0783    0.0000 H   0  0  0  0  0  0  0  0  0  0  0  0
  1 27  1  0  0  0  0
  2  5  1  0  0  0  0
  3  7  1  0  0  0  0
  3 36  1  0  0  0  0
  4 18  2  0  0  0  0
  5  8  1  0  0  0  0
  5  9  1  0  0  0  0
  5 12  1  0  0  0  0
  6 18  1  0  0  0  0
  6 32  1  0  0  0  0
  6 33  1  0  0  0  0
  7 10  1  0  0  0  0
  7 11  1  0  0  0  0
  7 15  1  0  0  0  0
  8 10  1  0  0  0  0
  8 37  1  0  0  0  0
  8 38  1  0  0  0  0
  9 11  1  0  0  0  0
  9 39  1  0  0  0  0
  9 40  1  0  0  0  0
 10 41  1  0  0  0  0
 10 42  1  0  0  0  0
 11 43  1  0  0  0  0
 11 44  1  0  0  0  0
 12 13  1  0  0  0  0
 12 45  1  0  0  0  0
 12 46  1  0  0  0  0
 13 14  1  0  0  0  0
 13 47  1  0  0  0  0
 13 48  1  0  0  0  0
 14 16  1  0  0  0  0
 14 17  1  0  0  0  0
 14 18  1  0  0  0  0
 15 19  2  0  0  0  0
 15 20  1  0  0  0  0
 16 22  2  0  0  0  0
 16 24  1  0  0  0  0
 17 21  2  0  0  0  0
 17 23  1  0  0  0  0
 19 25  1  0  0  0  0
 19 49  1  0  0  0  0
 20 26  2  0  0  0  0
 20 50  1  0  0  0  0
 21 29  1  0  0  0  0
 21 51  1  0  0  0  0
 22 28  1  0  0  0  0
 22 52  1  0  0  0  0
 23 31  2  0  0  0  0
 23 53  1  0  0  0  0
 24 30  2  0  0  0  0
 24 54  1  0  0  0  0
 25 27  2  0  0  0  0
 25 55  1  0  0  0  0
 26 27  1  0  0  0  0
 26 56  1  0  0  0  0
 28 34  2  0  0  0  0
 28 57  1  0  0  0  0
 29 35  2  0  0  0  0
 29 58  1  0  0  0  0
 30 34  1  0  0  0  0
 30 59  1  0  0  0  0
 31 35  1  0  0  0  0
 31 60  1  0  0  0  0
 32 61  1  0  0  0  0
 32 62  1  0  0  0  0
 32 63  1  0  0  0  0
 33 64  1  0  0  0  0
 33 65  1  0  0  0  0
 33 66  1  0  0  0  0
 34 67  1  0  0  0  0
 35 68  1  0  0  0  0
M  CHG  2   2  -1   5   1
M  END
>  <DRUGBANK_ID>
DB14661

>  <SECONDARY_ACCESSION_NUMBERS>
DBSALT001714

>  <COMMON_NAME>
Loperamide oxide

>  <CAS_NUMBER>
106900-12-3

>  <UNII>
NG66S4H2RL

>  <SYNONYMS>
Loperamide oxide; Loperamide oxide anhydrous

$$$$
