
 OpenBabel10282417072D

 53 52  0  0  1  0  0  0  0  0999 V2000
   16.0583  -10.6466    0.0000 O   0  0  0  0  0  0  0  0  0  0  0  0
   10.3425  -15.5966    0.0000 O   0  0  0  0  0  0  0  0  0  0  0  0
    9.6280  -14.3592    0.0000 O   0  0  0  0  0  0  0  0  0  0  0  0
   16.0583   -9.8216    0.0000 C   0  0  1  0  0  0  0  0  0  0  0  0
   16.7727   -9.4092    0.0000 C   0  0  0  0  0  0  0  0  0  0  0  0
   17.4872   -9.8216    0.0000 C   0  0  0  0  0  0  0  0  0  0  0  0
   11.7714  -12.2966    0.0000 C   0  0  0  0  0  0  0  0  0  0  0  0
   11.7714  -13.1216    0.0000 C   0  0  0  0  0  0  0  0  0  0  0  0
   12.4859  -11.8841    0.0000 C   0  0  0  0  0  0  0  0  0  0  0  0
   18.2016   -9.4092    0.0000 C   0  0  0  0  0  0  0  0  0  0  0  0
   11.0571  -13.5342    0.0000 C   0  0  0  0  0  0  0  0  0  0  0  0
   12.4859  -11.0592    0.0000 C   0  0  0  0  0  0  0  0  0  0  0  0
   18.9161   -9.8216    0.0000 C   0  0  0  0  0  0  0  0  0  0  0  0
   11.0571  -14.3592    0.0000 C   0  0  0  0  0  0  0  0  0  0  0  0
   13.2003  -10.6466    0.0000 C   0  0  0  0  0  0  0  0  0  0  0  0
   19.6306   -9.4092    0.0000 C   0  0  0  0  0  0  0  0  0  0  0  0
   10.3425  -14.7716    0.0000 C   0  0  0  0  0  0  0  0  0  0  0  0
   15.3437   -9.4092    0.0000 C   0  0  0  0  0  0  0  0  0  0  0  0
   13.2003   -9.8216    0.0000 C   0  0  0  0  0  0  0  0  0  0  0  0
   14.6293   -9.8216    0.0000 C   0  0  0  0  0  0  0  0  0  0  0  0
   13.9149   -9.4092    0.0000 C   0  0  0  0  0  0  0  0  0  0  0  0
   15.2183  -11.1316    0.0000 H   0  0  0  0  0  0  0  0  0  0  0  0
    9.5310  -16.0651    0.0000 H   0  0  0  0  0  0  0  0  0  0  0  0
   16.9849  -10.3566    0.0000 H   0  0  0  0  0  0  0  0  0  0  0  0
   16.7727   -8.3392    0.0000 H   0  0  0  0  0  0  0  0  0  0  0  0
   17.6993   -8.8741    0.0000 H   0  0  0  0  0  0  0  0  0  0  0  0
   17.4872  -10.8916    0.0000 H   0  0  0  0  0  0  0  0  0  0  0  0
   18.4138  -10.3566    0.0000 H   0  0  0  0  0  0  0  0  0  0  0  0
   10.8448  -11.7616    0.0000 H   0  0  0  0  0  0  0  0  0  0  0  0
   11.7714  -11.2266    0.0000 H   0  0  0  0  0  0  0  0  0  0  0  0
   12.6981  -13.6565    0.0000 H   0  0  0  0  0  0  0  0  0  0  0  0
   11.7716  -14.1916    0.0000 H   0  0  0  0  0  0  0  0  0  0  0  0
   13.4125  -12.4191    0.0000 H   0  0  0  0  0  0  0  0  0  0  0  0
   13.4125  -11.3491    0.0000 H   0  0  0  0  0  0  0  0  0  0  0  0
   18.2016   -8.3392    0.0000 H   0  0  0  0  0  0  0  0  0  0  0  0
   19.1282   -8.8741    0.0000 H   0  0  0  0  0  0  0  0  0  0  0  0
   10.1304  -12.9993    0.0000 H   0  0  0  0  0  0  0  0  0  0  0  0
   10.1305  -14.0692    0.0000 H   0  0  0  0  0  0  0  0  0  0  0  0
   11.5592  -10.5243    0.0000 H   0  0  0  0  0  0  0  0  0  0  0  0
   12.4858   -9.9892    0.0000 H   0  0  0  0  0  0  0  0  0  0  0  0
   18.9161  -10.8916    0.0000 H   0  0  0  0  0  0  0  0  0  0  0  0
   19.8427  -10.3567    0.0000 H   0  0  0  0  0  0  0  0  0  0  0  0
   11.9837  -14.8943    0.0000 H   0  0  0  0  0  0  0  0  0  0  0  0
   11.0570  -15.4292    0.0000 H   0  0  0  0  0  0  0  0  0  0  0  0
   14.1270  -11.1815    0.0000 H   0  0  0  0  0  0  0  0  0  0  0  0
   14.1269  -10.1116    0.0000 H   0  0  0  0  0  0  0  0  0  0  0  0
   20.5572   -9.9443    0.0000 H   0  0  0  0  0  0  0  0  0  0  0  0
   19.6307   -8.3392    0.0000 H   0  0  0  0  0  0  0  0  0  0  0  0
   20.5573   -8.8743    0.0000 H   0  0  0  0  0  0  0  0  0  0  0  0
   15.3436   -8.3772    0.0000 H   0  0  0  0  0  0  0  0  0  0  0  0
   12.3066   -9.3055    0.0000 H   0  0  0  0  0  0  0  0  0  0  0  0
   14.6293  -10.8536    0.0000 H   0  0  0  0  0  0  0  0  0  0  0  0
   13.9150   -8.3772    0.0000 H   0  0  0  0  0  0  0  0  0  0  0  0
  1 22  1  0  0  0  0
  2 17  1  0  0  0  0
  2 23  1  0  0  0  0
  3 17  2  0  0  0  0
  4  1  1  0  0  0  0
  4  5  1  0  0  0  0
  4 18  1  0  0  0  0
  4 24  1  1  0  0  0
  5  6  1  0  0  0  0
  5 25  1  0  0  0  0
  5 26  1  0  0  0  0
  6 10  1  0  0  0  0
  6 27  1  0  0  0  0
  6 28  1  0  0  0  0
  7  8  1  0  0  0  0
  7  9  1  0  0  0  0
  7 29  1  0  0  0  0
  7 30  1  0  0  0  0
  8 11  1  0  0  0  0
  8 31  1  0  0  0  0
  8 32  1  0  0  0  0
  9 12  1  0  0  0  0
  9 33  1  0  0  0  0
  9 34  1  0  0  0  0
 10 13  1  0  0  0  0
 10 35  1  0  0  0  0
 10 36  1  0  0  0  0
 11 14  1  0  0  0  0
 11 37  1  0  0  0  0
 11 38  1  0  0  0  0
 12 15  1  0  0  0  0
 12 39  1  0  0  0  0
 12 40  1  0  0  0  0
 13 16  1  0  0  0  0
 13 41  1  0  0  0  0
 13 42  1  0  0  0  0
 14 17  1  0  0  0  0
 14 43  1  0  0  0  0
 14 44  1  0  0  0  0
 15 19  1  0  0  0  0
 15 45  1  0  0  0  0
 15 46  1  0  0  0  0
 16 47  1  0  0  0  0
 16 48  1  0  0  0  0
 16 49  1  0  0  0  0
 18 20  2  0  0  0  0
 18 50  1  0  0  0  0
 19 21  2  0  0  0  0
 19 51  1  0  0  0  0
 20 21  1  0  0  0  0
 20 52  1  0  0  0  0
 21 53  1  0  0  0  0
M  END
>  <DRUGBANK_ID>
DB06926

>  <COMMON_NAME>
(9Z,11E,13S)-13-hydroxyoctadeca-9,11-dienoic acid

>  <UNII>
53CYY2A5PM

$$$$
