H23
 OpenBabel10282417072D

 49 48  0  0  0  0  0  0  0  0999 V2000
   -3.6870   -0.3703    0.0000 C   0  0  0  0  0  0  0  0  0  0  0  0
   -2.9915    0.0733    0.0000 C   0  0  0  0  0  0  0  0  0  0  0  0
   -2.2596   -0.3073    0.0000 C   0  0  0  0  0  0  0  0  0  0  0  0
   -1.5640    0.1363    0.0000 C   0  0  0  0  0  0  0  0  0  0  0  0
   -0.8320   -0.2443    0.0000 C   0  0  0  0  0  0  0  0  0  0  0  0
   -0.1364    0.1993    0.0000 C   0  0  0  0  0  0  0  0  0  0  0  0
    0.5955   -0.1813    0.0000 C   0  0  0  0  0  0  0  0  0  0  0  0
    1.2911    0.2623    0.0000 C   0  0  0  0  0  0  0  0  0  0  0  0
    2.0230   -0.1183    0.0000 C   0  0  0  0  0  0  0  0  0  0  0  0
    2.7187    0.3253    0.0000 C   0  0  0  0  0  0  0  0  0  0  0  0
    3.4505   -0.0553    0.0000 C   0  0  0  0  0  0  0  0  0  0  0  0
    4.1462    0.3883    0.0000 C   0  0  0  0  0  0  0  0  0  0  0  0
    3.7025    1.0839    0.0000 P   0  0  0  0  0  0  0  0  0  0  0  0
    3.0070    0.6403    0.0000 O   0  0  0  0  0  0  0  0  0  0  0  0
    3.2590    1.7794    0.0000 O   0  0  0  0  0  0  0  0  0  0  0  0
    4.3982    1.5275    0.0000 O   0  0  0  0  0  0  0  0  0  0  0  0
    4.5897   -0.3073    0.0000 P   0  0  0  0  0  0  0  0  0  0  0  0
    3.8942   -0.7509    0.0000 O   0  0  0  0  0  0  0  0  0  0  0  0
    5.2854    0.1363    0.0000 O   0  0  0  0  0  0  0  0  0  0  0  0
    5.0333   -1.0029    0.0000 O   0  0  0  0  0  0  0  0  0  0  0  0
    4.8417    0.8319    0.0000 O   0  0  0  0  0  0  0  0  0  0  0  0
   -4.6364    0.1233    0.0000 H   0  0  0  0  0  0  0  0  0  0  0  0
   -3.6398   -1.4393    0.0000 H   0  0  0  0  0  0  0  0  0  0  0  0
   -4.5891   -0.9457    0.0000 H   0  0  0  0  0  0  0  0  0  0  0  0
   -3.0387    1.1423    0.0000 H   0  0  0  0  0  0  0  0  0  0  0  0
   -2.0893    0.6486    0.0000 H   0  0  0  0  0  0  0  0  0  0  0  0
   -2.2124   -1.3763    0.0000 H   0  0  0  0  0  0  0  0  0  0  0  0
   -1.3103   -0.8009    0.0000 H   0  0  0  0  0  0  0  0  0  0  0  0
   -1.6112    1.2053    0.0000 H   0  0  0  0  0  0  0  0  0  0  0  0
   -0.6618    0.7116    0.0000 H   0  0  0  0  0  0  0  0  0  0  0  0
   -0.7848   -1.3133    0.0000 H   0  0  0  0  0  0  0  0  0  0  0  0
    0.1173   -0.7379    0.0000 H   0  0  0  0  0  0  0  0  0  0  0  0
   -0.1836    1.2683    0.0000 H   0  0  0  0  0  0  0  0  0  0  0  0
    0.7658    0.7746    0.0000 H   0  0  0  0  0  0  0  0  0  0  0  0
    0.6427   -1.2503    0.0000 H   0  0  0  0  0  0  0  0  0  0  0  0
    1.5448   -0.6749    0.0000 H   0  0  0  0  0  0  0  0  0  0  0  0
    1.2439    1.3313    0.0000 H   0  0  0  0  0  0  0  0  0  0  0  0
    2.1933    0.8376    0.0000 H   0  0  0  0  0  0  0  0  0  0  0  0
    2.0701   -1.1873    0.0000 H   0  0  0  0  0  0  0  0  0  0  0  0
    2.9723   -0.6120    0.0000 H   0  0  0  0  0  0  0  0  0  0  0  0
    2.6716    1.3943    0.0000 H   0  0  0  0  0  0  0  0  0  0  0  0
    3.6209    0.9006    0.0000 H   0  0  0  0  0  0  0  0  0  0  0  0
    3.4976   -1.1243    0.0000 H   0  0  0  0  0  0  0  0  0  0  0  0
    4.3998   -0.5490    0.0000 H   0  0  0  0  0  0  0  0  0  0  0  0
    2.1464    1.0877    0.0000 H   0  0  0  0  0  0  0  0  0  0  0  0
    5.2588    1.0799    0.0000 H   0  0  0  0  0  0  0  0  0  0  0  0
    6.1460   -0.3113    0.0000 H   0  0  0  0  0  0  0  0  0  0  0  0
    4.5858   -1.8635    0.0000 H   0  0  0  0  0  0  0  0  0  0  0  0
    5.7023    0.3845    0.0000 H   0  0  0  0  0  0  0  0  0  0  0  0
  1  2  1  0  0  0  0
  1 22  1  0  0  0  0
  1 23  1  0  0  0  0
  1 24  1  0  0  0  0
  2  3  1  0  0  0  0
  2 25  1  0  0  0  0
  2 26  1  0  0  0  0
  3  4  1  0  0  0  0
  3 27  1  0  0  0  0
  3 28  1  0  0  0  0
  4  5  1  0  0  0  0
  4 29  1  0  0  0  0
  4 30  1  0  0  0  0
  5  6  1  0  0  0  0
  5 31  1  0  0  0  0
  5 32  1  0  0  0  0
  6  7  1  0  0  0  0
  6 33  1  0  0  0  0
  6 34  1  0  0  0  0
  7  8  1  0  0  0  0
  7 35  1  0  0  0  0
  7 36  1  0  0  0  0
  8  9  1  0  0  0  0
  8 37  1  0  0  0  0
  8 38  1  0  0  0  0
  9 10  1  0  0  0  0
  9 39  1  0  0  0  0
  9 40  1  0  0  0  0
 10 11  1  0  0  0  0
 10 41  1  0  0  0  0
 10 42  1  0  0  0  0
 11 12  1  0  0  0  0
 11 43  1  0  0  0  0
 11 44  1  0  0  0  0
 12 13  1  0  0  0  0
 12 17  1  0  0  0  0
 12 21  1  0  0  0  0
 13 15  2  0  0  0  0
 13 14  1  0  0  0  0
 13 16  1  0  0  0  0
 14 45  1  0  0  0  0
 16 46  1  0  0  0  0
 17 18  2  0  0  0  0
 17 19  1  0  0  0  0
 17 20  1  0  0  0  0
 19 47  1  0  0  0  0
 20 48  1  0  0  0  0
 21 49  1  0  0  0  0
M  END
>  <DRUGBANK_ID>
DB07873

>  <COMMON_NAME>
Lauryl alcohol diphosphonic acid

>  <CAS_NUMBER>
16610-63-2

>  <UNII>
S888WM4024

$$$$
