QMS
 OpenBabel10282417072D

 25 26  0  0  0  0  0  0  0  0999 V2000
   -2.0062    1.8116    0.0000 O   0  0  0  0  0  0  0  0  0  0  0  0
   -1.2917    1.3991    0.0000 S   0  0  0  0  0  0  0  0  0  0  0  0
   -1.7042    0.6847    0.0000 O   0  0  0  0  0  0  0  0  0  0  0  0
   -0.8792    2.1136    0.0000 C   0  0  0  0  0  0  0  0  0  0  0  0
   -0.5772    0.9866    0.0000 N   0  0  0  0  0  0  0  0  0  0  0  0
   -0.5772    0.1616    0.0000 C   0  0  0  0  0  0  0  0  0  0  0  0
   -1.2917   -0.2509    0.0000 C   0  0  0  0  0  0  0  0  0  0  0  0
    0.1372   -0.2509    0.0000 C   0  0  0  0  0  0  0  0  0  0  0  0
    0.8517    0.1616    0.0000 N   0  0  0  0  0  0  0  0  0  0  0  0
    1.5662   -0.2509    0.0000 C   0  0  0  0  0  0  0  0  0  0  0  0
    1.5662   -1.0759    0.0000 C   0  0  0  0  0  0  0  0  0  0  0  0
    0.8517   -1.4884    0.0000 C   0  0  0  0  0  0  0  0  0  0  0  0
    0.1372   -1.0759    0.0000 C   0  0  0  0  0  0  0  0  0  0  0  0
   -0.5772   -1.4884    0.0000 C   0  0  0  0  0  0  0  0  0  0  0  0
   -1.2917   -1.0759    0.0000 C   0  0  0  0  0  0  0  0  0  0  0  0
    0.1908    2.1136    0.0000 H   0  0  0  0  0  0  0  0  0  0  0  0
   -1.4142    3.0402    0.0000 H   0  0  0  0  0  0  0  0  0  0  0  0
   -0.3442    3.0403    0.0000 H   0  0  0  0  0  0  0  0  0  0  0  0
    0.2754    1.4789    0.0000 H   0  0  0  0  0  0  0  0  0  0  0  0
   -2.1854    0.2651    0.0000 H   0  0  0  0  0  0  0  0  0  0  0  0
    2.4599    0.2651    0.0000 H   0  0  0  0  0  0  0  0  0  0  0  0
    2.4599   -1.5919    0.0000 H   0  0  0  0  0  0  0  0  0  0  0  0
    0.8517   -2.5204    0.0000 H   0  0  0  0  0  0  0  0  0  0  0  0
   -0.5772   -2.5204    0.0000 H   0  0  0  0  0  0  0  0  0  0  0  0
   -2.1854   -1.5919    0.0000 H   0  0  0  0  0  0  0  0  0  0  0  0
  1  2  2  0  0  0  0
  2  3  2  0  0  0  0
  2  4  1  0  0  0  0
  2  5  1  0  0  0  0
  4 16  1  0  0  0  0
  4 17  1  0  0  0  0
  4 18  1  0  0  0  0
  5  6  1  0  0  0  0
  5 19  1  0  0  0  0
  6  7  2  0  0  0  0
  6  8  1  0  0  0  0
  7 15  1  0  0  0  0
  7 20  1  0  0  0  0
  8  9  1  0  0  0  0
  8 13  2  0  0  0  0
  9 10  2  0  0  0  0
 10 11  1  0  0  0  0
 10 21  1  0  0  0  0
 11 12  2  0  0  0  0
 11 22  1  0  0  0  0
 12 13  1  0  0  0  0
 12 23  1  0  0  0  0
 13 14  1  0  0  0  0
 14 15  2  0  0  0  0
 14 24  1  0  0  0  0
 15 25  1  0  0  0  0
M  END
>  <DRUGBANK_ID>
DB08451

>  <COMMON_NAME>
N-(QUINOLIN-8-YL)METHANESULFONAMIDE

$$$$
