
 OpenBabel10282417072D

 44 45  0  0  0  0  0  0  0  0999 V2000
    0.0000    0.0000    0.0000 N   0  0  0  0  0  0  0  0  0  0  0  0
    1.4445   -2.4659    0.0000 C   0  0  0  0  0  0  0  0  0  0  0  0
    2.1564   -2.0489    0.0000 C   0  0  0  0  0  0  0  0  0  0  0  0
    2.1511   -1.2239    0.0000 C   0  0  0  0  0  0  0  0  0  0  0  0
    1.4341   -0.8159    0.0000 C   0  0  0  0  0  0  0  0  0  0  0  0
    0.7222   -1.2329    0.0000 C   0  0  0  0  0  0  0  0  0  0  0  0
    0.7274   -2.0579    0.0000 C   0  0  0  0  0  0  0  0  0  0  0  0
    0.0052   -0.8250    0.0000 C   0  0  0  0  0  0  0  0  0  0  0  0
    0.7118    0.4170    0.0000 C   0  0  0  0  0  0  0  0  0  0  0  0
    1.4289    0.0090    0.0000 C   0  0  0  0  0  0  0  0  0  0  0  0
   -0.7171    0.4080    0.0000 C   0  0  0  0  0  0  0  0  0  0  0  0
   -1.4393    1.6409    0.0000 C   0  0  0  0  0  0  0  0  0  0  0  0
   -2.1511    1.2239    0.0000 C   0  0  0  0  0  0  0  0  0  0  0  0
   -2.1459    0.3989    0.0000 C   0  0  0  0  0  0  0  0  0  0  0  0
    2.1408    0.4260    0.0000 N   0  0  0  0  0  0  0  0  0  0  0  0
    2.1355    1.2510    0.0000 C   0  0  0  0  0  0  0  0  0  0  0  0
    2.8578    0.0181    0.0000 C   0  0  0  0  0  0  0  0  0  0  0  0
    2.8734   -2.4569    0.0000 O   0  0  0  0  0  0  0  0  0  0  0  0
    3.5853   -2.0399    0.0000 C   0  0  0  0  0  0  0  0  0  0  0  0
   -1.4289   -0.0090    0.0000 N   0  0  0  0  0  0  0  0  0  0  0  0
   -0.7222    1.2329    0.0000 C   0  0  0  0  0  0  0  0  0  0  0  0
    1.4510   -3.4979    0.0000 H   0  0  0  0  0  0  0  0  0  0  0  0
    3.0415   -0.7022    0.0000 H   0  0  0  0  0  0  0  0  0  0  0  0
    1.4276    0.2161    0.0000 H   0  0  0  0  0  0  0  0  0  0  0  0
   -0.1631   -2.5795    0.0000 H   0  0  0  0  0  0  0  0  0  0  0  0
   -0.9180   -1.3659    0.0000 H   0  0  0  0  0  0  0  0  0  0  0  0
    0.0120   -1.8950    0.0000 H   0  0  0  0  0  0  0  0  0  0  0  0
    0.7050    1.4870    0.0000 H   0  0  0  0  0  0  0  0  0  0  0  0
    1.6350    0.9578    0.0000 H   0  0  0  0  0  0  0  0  0  0  0  0
    1.4356   -1.0610    0.0000 H   0  0  0  0  0  0  0  0  0  0  0  0
    2.3589   -0.5202    0.0000 H   0  0  0  0  0  0  0  0  0  0  0  0
   -1.4458    2.6729    0.0000 H   0  0  0  0  0  0  0  0  0  0  0  0
   -3.0481    1.7342    0.0000 H   0  0  0  0  0  0  0  0  0  0  0  0
   -3.0364   -0.1227    0.0000 H   0  0  0  0  0  0  0  0  0  0  0  0
    3.0587    1.7919    0.0000 H   0  0  0  0  0  0  0  0  0  0  0  0
    1.2054    1.7800    0.0000 H   0  0  0  0  0  0  0  0  0  0  0  0
    2.1286    2.3210    0.0000 H   0  0  0  0  0  0  0  0  0  0  0  0
    2.8646   -1.0519    0.0000 H   0  0  0  0  0  0  0  0  0  0  0  0
    3.7810    0.5590    0.0000 H   0  0  0  0  0  0  0  0  0  0  0  0
    3.7878   -0.5110    0.0000 H   0  0  0  0  0  0  0  0  0  0  0  0
    4.5153   -2.5691    0.0000 H   0  0  0  0  0  0  0  0  0  0  0  0
    3.5786   -0.9699    0.0000 H   0  0  0  0  0  0  0  0  0  0  0  0
    4.5086   -1.4991    0.0000 H   0  0  0  0  0  0  0  0  0  0  0  0
    0.1683    1.7545    0.0000 H   0  0  0  0  0  0  0  0  0  0  0  0
  1  9  1  0  0  0  0
  1 11  1  0  0  0  0
  2  3  2  0  0  0  0
  2  7  1  0  0  0  0
  2 22  1  0  0  0  0
  3  4  1  0  0  0  0
  3 18  1  0  0  0  0
  4  5  2  0  0  0  0
  4 23  1  0  0  0  0
  5  6  1  0  0  0  0
  5 24  1  0  0  0  0
  6  7  2  0  0  0  0
  6  8  1  0  0  0  0
  7 25  1  0  0  0  0
  8  1  1  0  0  0  0
  8 26  1  0  0  0  0
  8 27  1  0  0  0  0
  9 10  1  0  0  0  0
  9 28  1  0  0  0  0
  9 29  1  0  0  0  0
 10 15  1  0  0  0  0
 10 30  1  0  0  0  0
 10 31  1  0  0  0  0
 11 21  1  0  0  0  0
 11 20  2  0  0  0  0
 12 13  1  0  0  0  0
 12 32  1  0  0  0  0
 13 14  2  0  0  0  0
 13 33  1  0  0  0  0
 14 20  1  0  0  0  0
 14 34  1  0  0  0  0
 15 16  1  0  0  0  0
 15 17  1  0  0  0  0
 16 35  1  0  0  0  0
 16 36  1  0  0  0  0
 16 37  1  0  0  0  0
 17 38  1  0  0  0  0
 17 39  1  0  0  0  0
 17 40  1  0  0  0  0
 18 19  1  0  0  0  0
 19 41  1  0  0  0  0
 19 42  1  0  0  0  0
 19 43  1  0  0  0  0
 21 12  2  0  0  0  0
 21 44  1  0  0  0  0
M  END
>  <DRUGBANK_ID>
DB06691

>  <COMMON_NAME>
Mepyramine

>  <CAS_NUMBER>
91-84-9

>  <UNII>
HPE317O9TL

>  <SYNONYMS>
Mepiramina; Mepyramine; N-(p-methoxybenzyl)-N',N'-dimethyl-N-(Î±-pyridyl)ethylenediamine; N-[(4-methoxyphenyl)methyl]-N',N'-dimethyl-N-2-pyridinyl-1,2-ethanediamine; N',N'-dimethyl-N-(p-methoxybenzyl)-N-(2-pyridyl)ethylenediamine; Pyranisamine; Pyrilamine

$$$$
