
 OpenBabel10282417072D

 68 73  0  0  1  0  0  0  0  0999 V2000
    2.4539    7.0125    0.0000 C   0  0  0  0  0  0  0  0  0  0  0  0
    3.2789    7.0125    0.0000 C   0  0  2  0  0  0  0  0  0  0  0  0
    4.1039    7.0125    0.0000 N   0  0  0  0  0  0  0  0  0  0  0  0
    3.2789    7.8375    0.0000 C   0  0  0  0  0  0  0  0  0  0  0  0
    2.5645    8.2500    0.0000 C   0  0  0  0  0  0  0  0  0  0  0  0
    2.5645    9.0750    0.0000 C   0  0  0  0  0  0  0  0  0  0  0  0
    3.2789    9.4875    0.0000 C   0  0  0  0  0  0  0  0  0  0  0  0
    3.2789   10.3125    0.0000 F   0  0  0  0  0  0  0  0  0  0  0  0
    3.9934    9.0750    0.0000 C   0  0  0  0  0  0  0  0  0  0  0  0
    3.9934    8.2500    0.0000 C   0  0  0  0  0  0  0  0  0  0  0  0
    3.2789    6.1875    0.0000 C   0  0  0  0  0  0  0  0  0  0  0  0
    3.9934    5.7750    0.0000 C   0  0  0  0  0  0  0  0  0  0  0  0
    3.9934    4.9500    0.0000 N   0  0  0  0  0  0  0  0  0  0  0  0
    3.2789    4.5375    0.0000 C   0  0  0  0  0  0  0  0  0  0  0  0
    2.5645    4.9500    0.0000 N   0  0  0  0  0  0  0  0  0  0  0  0
    2.5645    5.7750    0.0000 C   0  0  0  0  0  0  0  0  0  0  0  0
    3.2789    3.7125    0.0000 N   0  0  0  0  0  0  0  0  0  0  0  0
    3.9934    3.3000    0.0000 C   0  0  0  0  0  0  0  0  0  0  0  0
    3.9934    2.4750    0.0000 C   0  0  0  0  0  0  0  0  0  0  0  0
    3.2789    2.0625    0.0000 N   0  0  0  0  0  0  0  0  0  0  0  0
    2.5645    2.4750    0.0000 C   0  0  0  0  0  0  0  0  0  0  0  0
    2.5645    3.3000    0.0000 C   0  0  0  0  0  0  0  0  0  0  0  0
    3.2789    1.2375    0.0000 C   0  0  0  0  0  0  0  0  0  0  0  0
    3.9934    0.8250    0.0000 N   0  0  0  0  0  0  0  0  0  0  0  0
    3.9934    0.0000    0.0000 C   0  0  0  0  0  0  0  0  0  0  0  0
    3.2789   -0.4125    0.0000 N   0  0  0  0  0  0  0  0  0  0  0  0
    2.5645    0.0000    0.0000 N   0  0  0  0  0  0  0  0  0  0  0  0
    1.7798   -0.2549    0.0000 C   0  0  0  0  0  0  0  0  0  0  0  0
    1.2949    0.4125    0.0000 C   0  0  0  0  0  0  0  0  0  0  0  0
    1.7798    1.0799    0.0000 C   0  0  0  0  0  0  0  0  0  0  0  0
    2.5645    0.8250    0.0000 C   0  0  0  0  0  0  0  0  0  0  0  0
    0.4699    0.4125    0.0000 C   0  0  0  0  0  0  0  0  0  0  0  0
   -0.0150   -0.2549    0.0000 C   0  0  0  0  0  0  0  0  0  0  0  0
   -0.7996   -0.0000    0.0000 N   0  0  0  0  0  0  0  0  0  0  0  0
   -0.7996    0.8250    0.0000 N   0  0  0  0  0  0  0  0  0  0  0  0
   -1.4671    1.3099    0.0000 C   0  0  0  0  0  0  0  0  0  0  0  0
   -1.3808    2.1304    0.0000 C   0  0  0  0  0  0  0  0  0  0  0  0
   -2.0483    2.6153    0.0000 O   0  0  0  0  0  0  0  0  0  0  0  0
   -0.0150    1.0799    0.0000 C   0  0  0  0  0  0  0  0  0  0  0  0
    1.9189    7.9391    0.0000 H   0  0  0  0  0  0  0  0  0  0  0  0
    1.9189    6.0859    0.0000 H   0  0  0  0  0  0  0  0  0  0  0  0
    1.3839    7.0125    0.0000 H   0  0  0  0  0  0  0  0  0  0  0  0
    4.6139    6.1292    0.0000 H   0  0  0  0  0  0  0  0  0  0  0  0
    4.6139    7.8958    0.0000 H   0  0  0  0  0  0  0  0  0  0  0  0
    1.6708    7.7340    0.0000 H   0  0  0  0  0  0  0  0  0  0  0  0
    1.6708    9.5910    0.0000 H   0  0  0  0  0  0  0  0  0  0  0  0
    4.8871    9.5910    0.0000 H   0  0  0  0  0  0  0  0  0  0  0  0
    4.8871    7.7340    0.0000 H   0  0  0  0  0  0  0  0  0  0  0  0
    4.8871    6.2910    0.0000 H   0  0  0  0  0  0  0  0  0  0  0  0
    1.6708    6.2910    0.0000 H   0  0  0  0  0  0  0  0  0  0  0  0
    4.9200    3.8350    0.0000 H   0  0  0  0  0  0  0  0  0  0  0  0
    4.9200    2.7650    0.0000 H   0  0  0  0  0  0  0  0  0  0  0  0
    4.9200    1.9400    0.0000 H   0  0  0  0  0  0  0  0  0  0  0  0
    3.9934    1.4050    0.0000 H   0  0  0  0  0  0  0  0  0  0  0  0
    1.6378    1.9400    0.0000 H   0  0  0  0  0  0  0  0  0  0  0  0
    1.6379    3.0100    0.0000 H   0  0  0  0  0  0  0  0  0  0  0  0
    1.6378    3.8350    0.0000 H   0  0  0  0  0  0  0  0  0  0  0  0
    2.5645    4.3700    0.0000 H   0  0  0  0  0  0  0  0  0  0  0  0
    4.8871   -0.5160    0.0000 H   0  0  0  0  0  0  0  0  0  0  0  0
    1.4609   -1.2364    0.0000 H   0  0  0  0  0  0  0  0  0  0  0  0
    1.4609    2.0614    0.0000 H   0  0  0  0  0  0  0  0  0  0  0  0
    0.3039   -1.2364    0.0000 H   0  0  0  0  0  0  0  0  0  0  0  0
   -2.4446    0.8747    0.0000 H   0  0  0  0  0  0  0  0  0  0  0  0
   -2.3327    1.9389    0.0000 H   0  0  0  0  0  0  0  0  0  0  0  0
   -0.4033    2.5656    0.0000 H   0  0  0  0  0  0  0  0  0  0  0  0
   -1.2690    3.1945    0.0000 H   0  0  0  0  0  0  0  0  0  0  0  0
   -1.9470    3.5800    0.0000 H   0  0  0  0  0  0  0  0  0  0  0  0
    0.3039    2.0614    0.0000 H   0  0  0  0  0  0  0  0  0  0  0  0
  1 40  1  0  0  0  0
  1 41  1  0  0  0  0
  1 42  1  0  0  0  0
  2  1  1  1  0  0  0
  2  3  1  0  0  0  0
  2  4  1  0  0  0  0
  2 11  1  0  0  0  0
  3 43  1  0  0  0  0
  3 44  1  0  0  0  0
  4  5  2  0  0  0  0
  4 10  1  0  0  0  0
  5  6  1  0  0  0  0
  5 45  1  0  0  0  0
  6  7  2  0  0  0  0
  6 46  1  0  0  0  0
  7  8  1  0  0  0  0
  7  9  1  0  0  0  0
  9 10  2  0  0  0  0
  9 47  1  0  0  0  0
 10 48  1  0  0  0  0
 11 12  2  0  0  0  0
 11 16  1  0  0  0  0
 12 13  1  0  0  0  0
 12 49  1  0  0  0  0
 13 14  2  0  0  0  0
 14 15  1  0  0  0  0
 14 17  1  0  0  0  0
 15 16  2  0  0  0  0
 16 50  1  0  0  0  0
 17 18  1  0  0  0  0
 17 22  1  0  0  0  0
 18 19  1  0  0  0  0
 18 51  1  0  0  0  0
 18 52  1  0  0  0  0
 19 20  1  0  0  0  0
 19 53  1  0  0  0  0
 19 54  1  0  0  0  0
 20 21  1  0  0  0  0
 20 23  1  0  0  0  0
 21 22  1  0  0  0  0
 21 55  1  0  0  0  0
 21 56  1  0  0  0  0
 22 57  1  0  0  0  0
 22 58  1  0  0  0  0
 23 24  2  0  0  0  0
 23 31  1  0  0  0  0
 24 25  1  0  0  0  0
 25 26  2  0  0  0  0
 25 59  1  0  0  0  0
 26 27  1  0  0  0  0
 27 28  1  0  0  0  0
 27 31  1  0  0  0  0
 28 29  2  0  0  0  0
 28 60  1  0  0  0  0
 29 30  1  0  0  0  0
 29 32  1  0  0  0  0
 30 31  2  0  0  0  0
 30 61  1  0  0  0  0
 32 33  1  0  0  0  0
 32 39  2  0  0  0  0
 33 34  2  0  0  0  0
 33 62  1  0  0  0  0
 34 35  1  0  0  0  0
 35 36  1  0  0  0  0
 35 39  1  0  0  0  0
 36 37  1  0  0  0  0
 36 63  1  0  0  0  0
 36 64  1  0  0  0  0
 37 38  1  0  0  0  0
 37 65  1  0  0  0  0
 37 66  1  0  0  0  0
 38 67  1  0  0  0  0
 39 68  1  0  0  0  0
M  END
>  <DRUGBANK_ID>
DB18489

>  <COMMON_NAME>
Elenestinib

>  <CAS_NUMBER>
2505078-08-8

>  <UNII>
6FBM4CP6RK

>  <SYNONYMS>
(S)-2-(4-(4-(4-(5-(1-amino-1-(4-fluorophenyl)ethyl)pyrimidin-2-yl)piperazin-1-yl)pyrrolo[2,1-f][1,2,4]triazin-6-yl)-1H-pyrazol-1-yl)ethan-1-ol; 1H-Pyrazole-1-ethanol, 4-[4-[4-[5-[(1S)-1-amino-1-(4-fluorophenyl)ethyl]-2-pyrimidinyl]-1-piperazinyl]pyrrolo[2,1-f][1,2,4]triazin-6-yl]-; 2-{4-[4-(4-{5-[(1S)-1-amino-1-(4- fluorophenyl)ethyl]pyrimidin-2-yl}piperazin-1- yl)pyrrolo[2,1-f][1,2,4]triazin-6-yl]-1H-pyrazol-1- yl}ethan-1-ol; 4-[4-[4-[5-[(1S)-1-Amino-1-(4-fluorophenyl)ethyl]-2-pyrimidinyl]-1-piperazinyl]pyrrolo[2,1-f][1,2,4]triazin-6-yl]-1H-pyrazole-1-ethanol

$$$$
