11M
 OpenBabel10282417072D

 53 57  0  0  0  0  0  0  0  0999 V2000
   -3.2179    1.7031    0.0000 C   0  0  0  0  0  0  0  0  0  0  0  0
   -2.8823    2.4568    0.0000 C   0  0  0  0  0  0  0  0  0  0  0  0
   -2.0618    2.5430    0.0000 C   0  0  0  0  0  0  0  0  0  0  0  0
   -2.1900   -0.1838    0.0000 C   0  0  0  0  0  0  0  0  0  0  0  0
   -1.3220   -0.4164    0.0000 C   0  0  0  0  0  0  0  0  0  0  0  0
   -0.2179    0.8098    0.0000 C   0  0  0  0  0  0  0  0  0  0  0  0
   -1.5769    0.3682    0.0000 C   0  0  0  0  0  0  0  0  0  0  0  0
    0.8440   -0.1464    0.0000 C   0  0  0  0  0  0  0  0  0  0  0  0
    1.0989   -2.2659    0.0000 C   0  0  0  0  0  0  0  0  0  0  0  0
    2.5980   -2.4234    0.0000 C   0  0  0  0  0  0  0  0  0  0  0  0
    3.3125   -1.1859    0.0000 C   0  0  0  0  0  0  0  0  0  0  0  0
   -1.5769    1.8756    0.0000 C   0  0  0  0  0  0  0  0  0  0  0  0
   -1.9125    1.1219    0.0000 C   0  0  0  0  0  0  0  0  0  0  0  0
   -2.7330    1.0357    0.0000 C   0  0  0  0  0  0  0  0  0  0  0  0
   -2.9045    0.2287    0.0000 O   0  0  0  0  0  0  0  0  0  0  0  0
   -0.5150   -0.5879    0.0000 C   0  0  0  0  0  0  0  0  0  0  0  0
    0.0370    0.0252    0.0000 N   0  0  0  0  0  0  0  0  0  0  0  0
   -1.0249    0.9813    0.0000 C   0  0  0  0  0  0  0  0  0  0  0  0
    1.3960    0.4667    0.0000 O   0  0  0  0  0  0  0  0  0  0  0  0
   -1.7263    3.2967    0.0000 C   0  0  0  0  0  0  0  0  0  0  0  0
   -2.2112    3.9641    0.0000 N   0  0  0  0  0  0  0  0  0  0  0  0
    1.0989   -0.9310    0.0000 C   0  0  0  0  0  0  0  0  0  0  0  0
    1.8835   -1.1859    0.0000 C   0  0  0  0  0  0  0  0  0  0  0  0
    1.8835   -2.0109    0.0000 C   0  0  0  0  0  0  0  0  0  0  0  0
    0.6140   -1.5984    0.0000 S   0  0  0  0  0  0  0  0  0  0  0  0
    3.3125   -2.0109    0.0000 C   0  0  0  0  0  0  0  0  0  0  0  0
    2.5980   -0.7734    0.0000 C   0  0  0  0  0  0  0  0  0  0  0  0
    0.8440   -3.0505    0.0000 S   0  0  0  0  0  0  0  0  0  0  0  0
    0.0370   -3.2220    0.0000 C   0  0  0  0  0  0  0  0  0  0  0  0
   -4.2442    1.5952    0.0000 H   0  0  0  0  0  0  0  0  0  0  0  0
   -3.4889    3.2917    0.0000 H   0  0  0  0  0  0  0  0  0  0  0  0
   -2.0782   -1.2479    0.0000 H   0  0  0  0  0  0  0  0  0  0  0  0
   -3.0874   -0.7666    0.0000 H   0  0  0  0  0  0  0  0  0  0  0  0
   -2.0380   -1.2116    0.0000 H   0  0  0  0  0  0  0  0  0  0  0  0
   -0.9913   -1.4340    0.0000 H   0  0  0  0  0  0  0  0  0  0  0  0
    0.4981    1.6050    0.0000 H   0  0  0  0  0  0  0  0  0  0  0  0
   -0.5486    1.8274    0.0000 H   0  0  0  0  0  0  0  0  0  0  0  0
    2.5980   -3.4554    0.0000 H   0  0  0  0  0  0  0  0  0  0  0  0
    4.2062   -0.6699    0.0000 H   0  0  0  0  0  0  0  0  0  0  0  0
   -0.5506    1.9835    0.0000 H   0  0  0  0  0  0  0  0  0  0  0  0
   -0.1843   -1.6055    0.0000 H   0  0  0  0  0  0  0  0  0  0  0  0
    0.5316   -0.8103    0.0000 H   0  0  0  0  0  0  0  0  0  0  0  0
   -1.3556    1.9989    0.0000 H   0  0  0  0  0  0  0  0  0  0  0  0
   -2.0715    1.2037    0.0000 H   0  0  0  0  0  0  0  0  0  0  0  0
   -0.6622    3.4086    0.0000 H   0  0  0  0  0  0  0  0  0  0  0  0
   -1.2911    4.2742    0.0000 H   0  0  0  0  0  0  0  0  0  0  0  0
   -1.7963    4.8959    0.0000 H   0  0  0  0  0  0  0  0  0  0  0  0
   -3.2256    3.8575    0.0000 H   0  0  0  0  0  0  0  0  0  0  0  0
    4.2062   -2.5269    0.0000 H   0  0  0  0  0  0  0  0  0  0  0  0
    2.5980    0.2586    0.0000 H   0  0  0  0  0  0  0  0  0  0  0  0
   -0.6789   -2.4268    0.0000 H   0  0  0  0  0  0  0  0  0  0  0  0
   -0.2937   -4.2396    0.0000 H   0  0  0  0  0  0  0  0  0  0  0  0
   -1.0096   -3.4444    0.0000 H   0  0  0  0  0  0  0  0  0  0  0  0
  1  2  2  0  0  0  0
  1 14  1  0  0  0  0
  1 30  1  0  0  0  0
  2  3  1  0  0  0  0
  2 31  1  0  0  0  0
  3 12  2  0  0  0  0
  3 20  1  0  0  0  0
  4  7  1  0  0  0  0
  4 15  1  0  0  0  0
  4 32  1  0  0  0  0
  4 33  1  0  0  0  0
  5  7  1  0  0  0  0
  5 16  1  0  0  0  0
  5 34  1  0  0  0  0
  5 35  1  0  0  0  0
  6 17  1  0  0  0  0
  6 18  1  0  0  0  0
  6 36  1  0  0  0  0
  6 37  1  0  0  0  0
  7 13  1  0  0  0  0
  7 18  1  0  0  0  0
  8 17  1  0  0  0  0
  8 19  2  0  0  0  0
  8 22  1  0  0  0  0
  9 24  2  0  0  0  0
  9 25  1  0  0  0  0
  9 28  1  0  0  0  0
 10 24  1  0  0  0  0
 10 26  2  0  0  0  0
 10 38  1  0  0  0  0
 11 26  1  0  0  0  0
 11 27  2  0  0  0  0
 11 39  1  0  0  0  0
 12 13  1  0  0  0  0
 12 40  1  0  0  0  0
 13 14  2  0  0  0  0
 14 15  1  0  0  0  0
 16 17  1  0  0  0  0
 16 41  1  0  0  0  0
 16 42  1  0  0  0  0
 18 43  1  0  0  0  0
 18 44  1  0  0  0  0
 20 21  1  0  0  0  0
 20 45  1  0  0  0  0
 20 46  1  0  0  0  0
 21 47  1  0  0  0  0
 21 48  1  0  0  0  0
 22 23  2  0  0  0  0
 22 25  1  0  0  0  0
 23 24  1  0  0  0  0
 23 27  1  0  0  0  0
 26 49  1  0  0  0  0
 27 50  1  0  0  0  0
 28 29  1  0  0  0  0
 29 51  1  0  0  0  0
 29 52  1  0  0  0  0
 29 53  1  0  0  0  0
M  END
>  <DRUGBANK_ID>
DB06848

>  <COMMON_NAME>
1-(1'-{[3-(methylsulfanyl)-2-benzothiophen-1-yl]carbonyl}spiro[1-benzofuran-3,4'-piperidin]-5-yl)methanamine

$$$$
