
 OpenBabel10282417072D

 52 55  0  0  0  0  0  0  0  0999 V2000
    1.2751   -1.1393    0.0000 C   0  0  0  0  0  0  0  0  0  0  0  0
    4.3228   -0.9107    0.0000 C   0  0  0  0  0  0  0  0  0  0  0  0
    1.8069   -0.5086    0.0000 C   0  0  0  0  0  0  0  0  0  0  0  0
    1.7781    1.6739    0.0000 C   0  0  0  0  0  0  0  0  0  0  0  0
    2.5902    1.5287    0.0000 C   0  0  0  0  0  0  0  0  0  0  0  0
    4.3340    1.1139    0.0000 C   0  0  0  0  0  0  0  0  0  0  0  0
    5.0168    0.6509    0.0000 C   0  0  0  0  0  0  0  0  0  0  0  0
    2.6190   -0.6539    0.0000 C   0  0  0  0  0  0  0  0  0  0  0  0
    3.4311   -0.7991    0.0000 C   0  0  0  0  0  0  0  0  0  0  0  0
    0.1827   -0.2182    0.0000 C   0  0  0  0  0  0  0  0  0  0  0  0
    0.4342    1.1884    0.0000 C   0  0  0  0  0  0  0  0  0  0  0  0
    0.9948   -0.3634    0.0000 C   0  0  0  0  0  0  0  0  0  0  0  0
    1.2463    1.0432    0.0000 C   0  0  1  0  0  0  0  0  0  0  0  0
   -0.0976    0.5577    0.0000 C   0  0  0  0  0  0  0  0  0  0  0  0
    2.8705    0.7528    0.0000 C   0  0  1  0  0  0  0  0  0  0  0  0
    3.6826    0.6076    0.0000 C   0  0  1  0  0  0  0  0  0  0  0  0
    2.3387    0.1221    0.0000 C   0  0  1  0  0  0  0  0  0  0  0  0
    4.7875   -0.1416    0.0000 C   0  0  1  0  0  0  0  0  0  0  0  0
    3.9629   -0.1684    0.0000 C   0  0  2  0  0  0  0  0  0  0  0  0
    1.5266    0.2673    0.0000 C   0  0  2  0  0  0  0  0  0  0  0  0
   -0.9098    0.7029    0.0000 O   0  0  0  0  0  0  0  0  0  0  0  0
    5.2939   -0.7929    0.0000 O   0  0  0  0  0  0  0  0  0  0  0  0
    0.9660    1.8191    0.0000 H   0  0  0  0  0  0  0  0  0  0  0  0
    3.1546    1.5273    0.0000 H   0  0  0  0  0  0  0  0  0  0  0  0
    3.7709    1.4278    0.0000 H   0  0  0  0  0  0  0  0  0  0  0  0
    2.0547   -0.6525    0.0000 H   0  0  0  0  0  0  0  0  0  0  0  0
    5.5977    0.0139    0.0000 H   0  0  0  0  0  0  0  0  0  0  0  0
    0.5854   -1.9573    0.0000 H   0  0  0  0  0  0  0  0  0  0  0  0
    2.3284   -1.3276    0.0000 H   0  0  0  0  0  0  0  0  0  0  0  0
    1.6387   -2.1456    0.0000 H   0  0  0  0  0  0  0  0  0  0  0  0
    3.7224   -1.7964    0.0000 H   0  0  0  0  0  0  0  0  0  0  0  0
    5.3900   -0.9878    0.0000 H   0  0  0  0  0  0  0  0  0  0  0  0
    4.7896   -1.8735    0.0000 H   0  0  0  0  0  0  0  0  0  0  0  0
    1.1172   -1.3266    0.0000 H   0  0  0  0  0  0  0  0  0  0  0  0
    2.8602   -0.6969    0.0000 H   0  0  0  0  0  0  0  0  0  0  0  0
    2.1705   -1.5149    0.0000 H   0  0  0  0  0  0  0  0  0  0  0  0
    1.4145    2.6802    0.0000 H   0  0  0  0  0  0  0  0  0  0  0  0
    0.7248    1.8622    0.0000 H   0  0  0  0  0  0  0  0  0  0  0  0
    3.2799    2.3467    0.0000 H   0  0  0  0  0  0  0  0  0  0  0  0
    3.6435    1.3404    0.0000 H   0  0  0  0  0  0  0  0  0  0  0  0
    4.2993    2.1833    0.0000 H   0  0  0  0  0  0  0  0  0  0  0  0
    3.3654    1.5685    0.0000 H   0  0  0  0  0  0  0  0  0  0  0  0
    6.0232    1.0144    0.0000 H   0  0  0  0  0  0  0  0  0  0  0  0
    5.7976   -0.0807    0.0000 H   0  0  0  0  0  0  0  0  0  0  0  0
    1.9292   -1.4719    0.0000 H   0  0  0  0  0  0  0  0  0  0  0  0
    1.5657   -0.4655    0.0000 H   0  0  0  0  0  0  0  0  0  0  0  0
    3.7947   -1.8054    0.0000 H   0  0  0  0  0  0  0  0  0  0  0  0
    4.4844   -0.9874    0.0000 H   0  0  0  0  0  0  0  0  0  0  0  0
   -0.4825   -1.0072    0.0000 H   0  0  0  0  0  0  0  0  0  0  0  0
    0.0706    2.1947    0.0000 H   0  0  0  0  0  0  0  0  0  0  0  0
   -0.6191    1.3767    0.0000 H   0  0  0  0  0  0  0  0  0  0  0  0
    4.9284   -1.6914    0.0000 H   0  0  0  0  0  0  0  0  0  0  0  0
  1 28  1  0  0  0  0
  1 29  1  0  0  0  0
  1 30  1  0  0  0  0
  2 31  1  0  0  0  0
  2 32  1  0  0  0  0
  2 33  1  0  0  0  0
  3 34  1  0  0  0  0
  3 35  1  0  0  0  0
  3 36  1  0  0  0  0
  4 37  1  0  0  0  0
  4 38  1  0  0  0  0
  5  4  1  0  0  0  0
  5 39  1  0  0  0  0
  5 40  1  0  0  0  0
  6 41  1  0  0  0  0
  6 42  1  0  0  0  0
  7  6  1  0  0  0  0
  7 43  1  0  0  0  0
  7 44  1  0  0  0  0
  8 45  1  0  0  0  0
  8 46  1  0  0  0  0
  9  8  1  0  0  0  0
  9 47  1  0  0  0  0
  9 48  1  0  0  0  0
 10 49  1  0  0  0  0
 11 50  1  0  0  0  0
 11 51  1  0  0  0  0
 12  1  1  0  0  0  0
 12 10  2  0  0  0  0
 13  4  1  0  0  0  0
 13 11  1  0  0  0  0
 13 23  1  1  0  0  0
 14 10  1  0  0  0  0
 14 11  1  0  0  0  0
 15  5  1  0  0  0  0
 15 24  1  6  0  0  0
 16  6  1  0  0  0  0
 16 15  1  0  0  0  0
 16 25  1  1  0  0  0
 17  8  1  0  0  0  0
 17 15  1  0  0  0  0
 17 26  1  1  0  0  0
 18  7  1  0  0  0  0
 18 22  1  0  0  0  0
 18 27  1  1  0  0  0
 19  2  1  6  0  0  0
 19  9  1  0  0  0  0
 19 16  1  0  0  0  0
 19 18  1  0  0  0  0
 20  3  1  6  0  0  0
 20 12  1  0  0  0  0
 20 13  1  0  0  0  0
 20 17  1  0  0  0  0
 21 14  2  0  0  0  0
 22 52  1  0  0  0  0
M  END
>  <DRUGBANK_ID>
DB13710

>  <COMMON_NAME>
Metenolone

>  <CAS_NUMBER>
153-00-4

>  <UNII>
9062ZT8Q5C

>  <SYNONYMS>
Metenolona; Metenolone; Methenolone

$$$$
