
 OpenBabel10282417072D

 41 41  0  0  0  0  0  0  0  0999 V2000
   -0.3995    0.0962    0.0000 N   0  3  0  0  0  0  0  0  0  0  0  0
    0.3541    0.4318    0.0000 C   0  0  0  0  0  0  0  0  0  0  0  0
   -1.1140    0.5087    0.0000 C   0  0  0  0  0  0  0  0  0  0  0  0
   -0.3132   -0.7242    0.0000 C   0  0  0  0  0  0  0  0  0  0  0  0
    0.9062   -0.1812    0.0000 C   0  0  0  0  0  0  0  0  0  0  0  0
    0.5256    1.2388    0.0000 C   0  0  0  0  0  0  0  0  0  0  0  0
   -1.8285    0.0962    0.0000 C   0  0  0  0  0  0  0  0  0  0  0  0
    0.4936   -0.8959    0.0000 S   0  0  0  0  0  0  0  0  0  0  0  0
    1.7267   -0.0950    0.0000 C   0  0  0  0  0  0  0  0  0  0  0  0
   -1.8285   -0.7287    0.0000 C   0  0  0  0  0  0  0  0  0  0  0  0
   -2.5431    0.5087    0.0000 C   0  0  0  0  0  0  0  0  0  0  0  0
    2.0623    0.6586    0.0000 C   0  0  0  0  0  0  0  0  0  0  0  0
   -2.5431   -1.1414    0.0000 N   0  0  0  0  0  0  0  0  0  0  0  0
   -1.1140   -1.1414    0.0000 N   0  0  0  0  0  0  0  0  0  0  0  0
   -3.2575    0.0962    0.0000 N   0  0  0  0  0  0  0  0  0  0  0  0
    2.8829    0.7448    0.0000 O   0  0  0  0  0  0  0  0  0  0  0  0
   -3.2575   -0.7287    0.0000 C   0  0  0  0  0  0  0  0  0  0  0  0
    3.2184    1.4986    0.0000 P   0  0  0  0  0  0  0  0  0  0  0  0
   -3.9721   -1.1414    0.0000 C   0  0  0  0  0  0  0  0  0  0  0  0
    3.5540    2.2522    0.0000 O   0  0  0  0  0  0  0  0  0  0  0  0
    3.9721    1.1630    0.0000 O   0  0  0  0  0  0  0  0  0  0  0  0
    2.4648    1.8342    0.0000 O   0  0  0  0  0  0  0  0  0  0  0  0
    0.7112   -2.2522    0.0000 Cl  0  5  0  0  0  0  0  0  0  0  0  0
   -1.1140    1.5787    0.0000 H   0  0  0  0  0  0  0  0  0  0  0  0
   -2.0406    1.0437    0.0000 H   0  0  0  0  0  0  0  0  0  0  0  0
   -1.0802   -1.4147    0.0000 H   0  0  0  0  0  0  0  0  0  0  0  0
    1.5432    1.5695    0.0000 H   0  0  0  0  0  0  0  0  0  0  0  0
   -0.2696    1.9547    0.0000 H   0  0  0  0  0  0  0  0  0  0  0  0
    0.7480    2.2854    0.0000 H   0  0  0  0  0  0  0  0  0  0  0  0
    2.3556   -0.9607    0.0000 H   0  0  0  0  0  0  0  0  0  0  0  0
    2.7908    0.0168    0.0000 H   0  0  0  0  0  0  0  0  0  0  0  0
   -2.5432    1.5407    0.0000 H   0  0  0  0  0  0  0  0  0  0  0  0
    1.4334    1.5243    0.0000 H   0  0  0  0  0  0  0  0  0  0  0  0
    2.4976    1.6361    0.0000 H   0  0  0  0  0  0  0  0  0  0  0  0
   -1.1142   -2.1259    0.0000 H   0  0  0  0  0  0  0  0  0  0  0  0
   -0.2613   -0.6493    0.0000 H   0  0  0  0  0  0  0  0  0  0  0  0
   -4.8988   -0.6065    0.0000 H   0  0  0  0  0  0  0  0  0  0  0  0
   -3.9720   -2.2114    0.0000 H   0  0  0  0  0  0  0  0  0  0  0  0
   -4.8987   -1.6765    0.0000 H   0  0  0  0  0  0  0  0  0  0  0  0
    4.5187    2.3535    0.0000 H   0  0  0  0  0  0  0  0  0  0  0  0
    4.0735    0.1983    0.0000 H   0  0  0  0  0  0  0  0  0  0  0  0
  1  2  1  0  0  0  0
  1  3  1  0  0  0  0
  1  4  2  0  0  0  0
  2  5  2  0  0  0  0
  2  6  1  0  0  0  0
  3  7  1  0  0  0  0
  3 24  1  0  0  0  0
  3 25  1  0  0  0  0
  4  8  1  0  0  0  0
  4 26  1  0  0  0  0
  5  9  1  0  0  0  0
  5  8  1  0  0  0  0
  6 27  1  0  0  0  0
  6 28  1  0  0  0  0
  6 29  1  0  0  0  0
  7 10  1  0  0  0  0
  7 11  2  0  0  0  0
  9 12  1  0  0  0  0
  9 30  1  0  0  0  0
  9 31  1  0  0  0  0
 10 13  2  0  0  0  0
 10 14  1  0  0  0  0
 11 15  1  0  0  0  0
 11 32  1  0  0  0  0
 12 16  1  0  0  0  0
 12 33  1  0  0  0  0
 12 34  1  0  0  0  0
 13 17  1  0  0  0  0
 14 35  1  0  0  0  0
 14 36  1  0  0  0  0
 15 17  2  0  0  0  0
 16 18  1  0  0  0  0
 17 19  1  0  0  0  0
 18 20  1  0  0  0  0
 18 21  1  0  0  0  0
 18 22  2  0  0  0  0
 19 37  1  0  0  0  0
 19 38  1  0  0  0  0
 19 39  1  0  0  0  0
 20 40  1  0  0  0  0
 21 41  1  0  0  0  0
M  CHG  2   1   1  23  -1
M  END
>  <DRUGBANK_ID>
DB16023

>  <COMMON_NAME>
Monophosphothiamine

>  <CAS_NUMBER>
532-40-1

>  <UNII>
P712T71Q3T

>  <SYNONYMS>
Monofosfotiamina; Monophosphothiamine; Thiamine monophosphate; Vitamin B1 monophosphate; Vitamin B1 phosphate

$$$$
