
 OpenBabel10282417072D

 57 61  0  0  0  0  0  0  0  0999 V2000
   -2.3505   -0.1399    0.0000 C   0  0  0  0  0  0  0  0  0  0  0  0
   -3.0650   -0.5525    0.0000 C   0  0  0  0  0  0  0  0  0  0  0  0
   -3.7794   -0.1400    0.0000 C   0  0  0  0  0  0  0  0  0  0  0  0
   -4.4939   -0.5524    0.0000 C   0  0  0  0  0  0  0  0  0  0  0  0
   -4.4939   -1.3775    0.0000 C   0  0  0  0  0  0  0  0  0  0  0  0
   -5.2084   -1.7899    0.0000 F   0  0  0  0  0  0  0  0  0  0  0  0
   -3.7794   -1.7899    0.0000 C   0  0  0  0  0  0  0  0  0  0  0  0
   -3.0650   -1.3775    0.0000 C   0  0  0  0  0  0  0  0  0  0  0  0
   -2.3505    0.6850    0.0000 O   0  0  0  0  0  0  0  0  0  0  0  0
   -1.6360   -0.5524    0.0000 C   0  0  0  0  0  0  0  0  0  0  0  0
   -0.9214   -0.1399    0.0000 C   0  0  0  0  0  0  0  0  0  0  0  0
   -0.2070   -0.5524    0.0000 C   0  0  0  0  0  0  0  0  0  0  0  0
    0.5074   -0.1399    0.0000 N   0  0  0  0  0  0  0  0  0  0  0  0
    1.2220   -0.5524    0.0000 C   0  0  0  0  0  0  0  0  0  0  0  0
    1.9364   -0.1399    0.0000 C   0  0  1  0  0  0  0  0  0  0  0  0
    1.9604   -0.9788    0.0000 H   0  0  0  0  0  0  0  0  0  0  0  0
    2.7333   -0.3534    0.0000 C   0  0  0  0  0  0  0  0  0  0  0  0
    3.1457   -1.0679    0.0000 C   0  0  0  0  0  0  0  0  0  0  0  0
    3.9708   -1.0679    0.0000 C   0  0  0  0  0  0  0  0  0  0  0  0
    4.3833   -0.3534    0.0000 C   0  0  0  0  0  0  0  0  0  0  0  0
    3.9709    0.3609    0.0000 C   0  0  0  0  0  0  0  0  0  0  0  0
    3.1457    0.3609    0.0000 C   0  0  0  0  0  0  0  0  0  0  0  0
    2.7333    1.0755    0.0000 N   0  0  0  0  0  0  0  0  0  0  0  0
    1.9364    0.6850    0.0000 C   0  0  1  0  0  0  0  0  0  0  0  0
    1.9644    1.5095    0.0000 H   0  0  0  0  0  0  0  0  0  0  0  0
    1.2220    1.0975    0.0000 C   0  0  0  0  0  0  0  0  0  0  0  0
    0.5074    0.6850    0.0000 C   0  0  0  0  0  0  0  0  0  0  0  0
    3.1457    1.7899    0.0000 C   0  0  0  0  0  0  0  0  0  0  0  0
    3.9708    1.7899    0.0000 C   0  0  0  0  0  0  0  0  0  0  0  0
    4.3834    1.0755    0.0000 N   0  0  0  0  0  0  0  0  0  0  0  0
    5.2084    1.0755    0.0000 C   0  0  0  0  0  0  0  0  0  0  0  0
   -3.7793    0.8920    0.0000 H   0  0  0  0  0  0  0  0  0  0  0  0
   -5.3876   -0.0363    0.0000 H   0  0  0  0  0  0  0  0  0  0  0  0
   -3.7794   -2.8219    0.0000 H   0  0  0  0  0  0  0  0  0  0  0  0
   -2.1713   -1.8935    0.0000 H   0  0  0  0  0  0  0  0  0  0  0  0
   -1.6360   -1.6224    0.0000 H   0  0  0  0  0  0  0  0  0  0  0  0
   -0.7094   -1.0875    0.0000 H   0  0  0  0  0  0  0  0  0  0  0  0
   -0.9213    0.9301    0.0000 H   0  0  0  0  0  0  0  0  0  0  0  0
    0.0053    0.3951    0.0000 H   0  0  0  0  0  0  0  0  0  0  0  0
   -0.2070   -1.6224    0.0000 H   0  0  0  0  0  0  0  0  0  0  0  0
    0.7197   -1.0874    0.0000 H   0  0  0  0  0  0  0  0  0  0  0  0
    1.2221   -1.6224    0.0000 H   0  0  0  0  0  0  0  0  0  0  0  0
    2.1487   -1.0874    0.0000 H   0  0  0  0  0  0  0  0  0  0  0  0
    2.6296   -1.9616    0.0000 H   0  0  0  0  0  0  0  0  0  0  0  0
    4.4868   -1.9616    0.0000 H   0  0  0  0  0  0  0  0  0  0  0  0
    5.4153   -0.3534    0.0000 H   0  0  0  0  0  0  0  0  0  0  0  0
    1.2221    2.1675    0.0000 H   0  0  0  0  0  0  0  0  0  0  0  0
    0.2954    1.6326    0.0000 H   0  0  0  0  0  0  0  0  0  0  0  0
   -0.4192    1.2200    0.0000 H   0  0  0  0  0  0  0  0  0  0  0  0
   -0.4193    0.1500    0.0000 H   0  0  0  0  0  0  0  0  0  0  0  0
    2.6107    2.7165    0.0000 H   0  0  0  0  0  0  0  0  0  0  0  0
    3.6807    2.7166    0.0000 H   0  0  0  0  0  0  0  0  0  0  0  0
    4.5057    2.7166    0.0000 H   0  0  0  0  0  0  0  0  0  0  0  0
    5.0408    1.7900    0.0000 H   0  0  0  0  0  0  0  0  0  0  0  0
    5.7434    0.1489    0.0000 H   0  0  0  0  0  0  0  0  0  0  0  0
    5.7434    2.0021    0.0000 H   0  0  0  0  0  0  0  0  0  0  0  0
    6.2784    1.0755    0.0000 H   0  0  0  0  0  0  0  0  0  0  0  0
  1  2  1  0  0  0  0
  1  9  2  0  0  0  0
  1 10  1  0  0  0  0
  2  3  2  0  0  0  0
  2  8  1  0  0  0  0
  3 32  1  0  0  0  0
  4  3  1  0  0  0  0
  4 33  1  0  0  0  0
  5  4  2  0  0  0  0
  5  6  1  0  0  0  0
  7  5  1  0  0  0  0
  7 34  1  0  0  0  0
  8  7  2  0  0  0  0
  8 35  1  0  0  0  0
 10 11  1  0  0  0  0
 10 36  1  0  0  0  0
 10 37  1  0  0  0  0
 11 12  1  0  0  0  0
 11 38  1  0  0  0  0
 11 39  1  0  0  0  0
 12 13  1  0  0  0  0
 12 40  1  0  0  0  0
 12 41  1  0  0  0  0
 14 13  1  0  0  0  0
 14 15  1  0  0  0  0
 14 42  1  0  0  0  0
 14 43  1  0  0  0  0
 15 16  1  1  0  0  0
 15 17  1  0  0  0  0
 15 24  1  0  0  0  0
 17 18  2  0  0  0  0
 18 19  1  0  0  0  0
 18 44  1  0  0  0  0
 19 20  2  0  0  0  0
 19 45  1  0  0  0  0
 20 21  1  0  0  0  0
 20 46  1  0  0  0  0
 22 21  2  0  0  0  0
 22 17  1  0  0  0  0
 23 22  1  0  0  0  0
 24 23  1  0  0  0  0
 24 25  1  1  0  0  0
 26 24  1  0  0  0  0
 26 27  1  0  0  0  0
 26 47  1  0  0  0  0
 26 48  1  0  0  0  0
 27 13  1  0  0  0  0
 27 49  1  0  0  0  0
 27 50  1  0  0  0  0
 28 23  1  0  0  0  0
 28 51  1  0  0  0  0
 28 52  1  0  0  0  0
 29 28  1  0  0  0  0
 29 53  1  0  0  0  0
 29 54  1  0  0  0  0
 30 29  1  0  0  0  0
 30 31  1  0  0  0  0
 30 21  1  0  0  0  0
 31 55  1  0  0  0  0
 31 56  1  0  0  0  0
 31 57  1  0  0  0  0
M  END
>  <DRUGBANK_ID>
DB06077

>  <COMMON_NAME>
Lumateperone

>  <CAS_NUMBER>
313368-91-1

>  <UNII>
70BSQ12069

>  <SYNONYMS>
Lumateperone

$$$$
