
 OpenBabel10282417072D

 76 83  0  0  0  0  0  0  0  0999 V2000
    6.6469   -4.7756    0.0000 C   0  0  0  0  0  0  0  0  0  0  0  0
    5.6694   -4.7659    0.0000 N   0  0  0  0  0  0  0  0  0  0  0  0
    7.0503   -4.0649    0.0000 C   0  0  0  0  0  0  0  0  0  0  0  0
    6.7693   -3.2601    0.0000 O   0  0  0  0  0  0  0  0  0  0  0  0
    7.8692   -4.0459    0.0000 N   0  0  0  0  0  0  0  0  0  0  0  0
    7.5613   -4.7659    0.0000 C   0  0  0  0  0  0  0  0  0  0  0  0
    7.1554   -5.4861    0.0000 C   0  0  0  0  0  0  0  0  0  0  0  0
    0.8243   -3.3477    0.0000 C   0  0  0  0  0  0  0  0  0  0  0  0
    0.4256   -4.0599    0.0000 C   0  0  0  0  0  0  0  0  0  0  0  0
    1.6619   -3.3432    0.0000 C   0  0  0  0  0  0  0  0  0  0  0  0
    2.0689   -2.6270    0.0000 C   0  0  0  0  0  0  0  0  0  0  0  0
    2.8808   -2.5715    0.0000 C   0  0  1  0  0  0  0  0  0  0  0  0
    3.4827   -2.0294    0.0000 N   0  0  0  0  0  0  0  0  0  0  0  0
    4.1543   -3.3485    0.0000 C   0  0  0  0  0  0  0  0  0  0  0  0
    3.3027   -3.3358    0.0000 C   0  0  2  0  0  0  0  0  0  0  0  0
    3.6706   -3.8606    0.0000 C   0  0  0  0  0  0  0  0  0  0  0  0
    4.0627   -2.6045    0.0000 C   0  0  0  0  0  0  0  0  0  0  0  0
    2.9176   -4.0689    0.0000 C   0  0  2  0  0  0  0  0  0  0  0  0
    3.2722   -4.7908    0.0000 C   0  0  2  0  0  0  0  0  0  0  0  0
    4.1572   -4.7768    0.0000 C   0  0  0  0  0  0  0  0  0  0  0  0
    4.5611   -4.0575    0.0000 C   0  0  0  0  0  0  0  0  0  0  0  0
    5.3602   -4.0601    0.0000 C   0  0  0  0  0  0  0  0  0  0  0  0
    5.7872   -3.3256    0.0000 O   0  0  0  0  0  0  0  0  0  0  0  0
    4.6677   -5.4861    0.0000 O   0  0  0  0  0  0  0  0  0  0  0  0
    3.4827   -5.5646    0.0000 H   0  0  0  0  0  0  0  0  0  0  0  0
    2.0742   -4.0634    0.0000 C   0  0  0  0  0  0  0  0  0  0  0  0
    2.4616   -5.1457    0.0000 O   0  0  0  0  0  0  0  0  0  0  0  0
    1.6645   -4.7758    0.0000 C   0  0  0  0  0  0  0  0  0  0  0  0
    0.8343   -4.7819    0.0000 C   0  0  0  0  0  0  0  0  0  0  0  0
    0.2749   -5.4861    0.0000 O   0  0  0  0  0  0  0  0  0  0  0  0
    7.4500   -2.7758    0.0000 N   0  0  0  0  0  0  0  0  0  0  0  0
    8.1346   -3.2783    0.0000 C   0  0  0  0  0  0  0  0  0  0  0  0
    8.9358   -3.0040    0.0000 C   0  0  0  0  0  0  0  0  0  0  0  0
   10.4940   -2.5289    0.0000 C   0  0  0  0  0  0  0  0  0  0  0  0
    9.8739   -2.0081    0.0000 C   0  0  0  0  0  0  0  0  0  0  0  0
    9.5449   -3.5672    0.0000 C   0  0  0  0  0  0  0  0  0  0  0  0
   10.3251   -3.3033    0.0000 C   0  0  0  0  0  0  0  0  0  0  0  0
    3.4832   -1.2157    0.0000 C   0  0  0  0  0  0  0  0  0  0  0  0
    2.7495   -0.7946    0.0000 C   0  0  0  0  0  0  0  0  0  0  0  0
    1.9723   -0.7967    0.0000 C   0  0  0  0  0  0  0  0  0  0  0  0
    2.3620   -0.0994    0.0000 C   0  0  0  0  0  0  0  0  0  0  0  0
    9.0678   -2.2862    0.0000 C   0  0  0  0  0  0  0  0  0  0  0  0
    2.5794   -1.8461    0.0000 H   0  0  0  0  0  0  0  0  0  0  0  0
    2.4777   -3.3358    0.0000 O   0  0  0  0  0  0  0  0  0  0  0  0
    5.1267   -5.5873    0.0000 H   0  0  0  0  0  0  0  0  0  0  0  0
    8.1061   -5.6868    0.0000 H   0  0  0  0  0  0  0  0  0  0  0  0
    8.0864   -3.8336    0.0000 H   0  0  0  0  0  0  0  0  0  0  0  0
    8.6312   -4.7546    0.0000 H   0  0  0  0  0  0  0  0  0  0  0  0
    6.7132   -6.4605    0.0000 H   0  0  0  0  0  0  0  0  0  0  0  0
    8.2203   -5.3819    0.0000 H   0  0  0  0  0  0  0  0  0  0  0  0
    7.7781   -6.3562    0.0000 H   0  0  0  0  0  0  0  0  0  0  0  0
    0.3000   -2.4588    0.0000 H   0  0  0  0  0  0  0  0  0  0  0  0
   -0.6064   -4.0623    0.0000 H   0  0  0  0  0  0  0  0  0  0  0  0
    1.4995   -1.7211    0.0000 H   0  0  0  0  0  0  0  0  0  0  0  0
    2.5542   -1.6734    0.0000 H   0  0  0  0  0  0  0  0  0  0  0  0
    4.6974   -2.4266    0.0000 H   0  0  0  0  0  0  0  0  0  0  0  0
    5.2243   -3.3546    0.0000 H   0  0  0  0  0  0  0  0  0  0  0  0
    4.4147   -4.6295    0.0000 H   0  0  0  0  0  0  0  0  0  0  0  0
    3.3894   -4.8930    0.0000 H   0  0  0  0  0  0  0  0  0  0  0  0
    5.1011   -2.3465    0.0000 H   0  0  0  0  0  0  0  0  0  0  0  0
    4.3469   -1.5729    0.0000 H   0  0  0  0  0  0  0  0  0  0  0  0
    4.2828   -6.3404    0.0000 H   0  0  0  0  0  0  0  0  0  0  0  0
   -0.6519   -5.3482    0.0000 H   0  0  0  0  0  0  0  0  0  0  0  0
   11.4707   -2.1957    0.0000 H   0  0  0  0  0  0  0  0  0  0  0  0
   10.0619   -0.9934    0.0000 H   0  0  0  0  0  0  0  0  0  0  0  0
    9.3297   -4.5765    0.0000 H   0  0  0  0  0  0  0  0  0  0  0  0
   11.0943   -3.9913    0.0000 H   0  0  0  0  0  0  0  0  0  0  0  0
    4.4093   -0.6798    0.0000 H   0  0  0  0  0  0  0  0  0  0  0  0
    3.4813   -0.1457    0.0000 H   0  0  0  0  0  0  0  0  0  0  0  0
    1.8262   -0.2539    0.0000 H   0  0  0  0  0  0  0  0  0  0  0  0
    1.0501   -1.3394    0.0000 H   0  0  0  0  0  0  0  0  0  0  0  0
    2.2549   -1.8287    0.0000 H   0  0  0  0  0  0  0  0  0  0  0  0
    2.3626    0.9706    0.0000 H   0  0  0  0  0  0  0  0  0  0  0  0
    3.3977    0.1694    0.0000 H   0  0  0  0  0  0  0  0  0  0  0  0
    8.2853   -1.6133    0.0000 H   0  0  0  0  0  0  0  0  0  0  0  0
    1.9927   -2.4958    0.0000 H   0  0  0  0  0  0  0  0  0  0  0  0
  1  2  1  0  0  0  0
  1  3  1  0  0  0  0
  1  6  1  0  0  0  0
  2 22  1  0  0  0  0
  2 45  1  0  0  0  0
  3  5  2  0  0  0  0
  4  3  1  0  0  0  0
  4 31  1  0  0  0  0
  6 46  1  0  0  0  0
  6 47  1  0  0  0  0
  6 48  1  0  0  0  0
  7  1  1  0  0  0  0
  7 49  1  0  0  0  0
  7 50  1  0  0  0  0
  7 51  1  0  0  0  0
  8  9  1  0  0  0  0
  8 10  2  0  0  0  0
  8 52  1  0  0  0  0
  9 29  2  0  0  0  0
  9 53  1  0  0  0  0
 10 11  1  0  0  0  0
 10 26  1  0  0  0  0
 11 12  1  0  0  0  0
 11 54  1  0  0  0  0
 11 55  1  0  0  0  0
 12 13  1  0  0  0  0
 12 43  1  6  0  0  0
 13 38  1  0  0  0  0
 13 17  1  0  0  0  0
 14 15  1  0  0  0  0
 14 56  1  0  0  0  0
 14 57  1  0  0  0  0
 15 12  1  0  0  0  0
 15 44  1  1  0  0  0
 16 17  1  0  0  0  0
 16 58  1  0  0  0  0
 16 59  1  0  0  0  0
 17 60  1  0  0  0  0
 17 61  1  0  0  0  0
 18 16  1  0  0  0  0
 18 19  1  0  0  0  0
 18 15  1  0  0  0  0
 18 26  1  1  0  0  0
 19 20  1  0  0  0  0
 19 25  1  1  0  0  0
 19 27  1  0  0  0  0
 20 21  2  0  0  0  0
 21 14  1  0  0  0  0
 21 22  1  0  0  0  0
 22 23  2  0  0  0  0
 24 20  1  0  0  0  0
 24 62  1  0  0  0  0
 27 28  1  0  0  0  0
 28 26  2  0  0  0  0
 29 28  1  0  0  0  0
 29 30  1  0  0  0  0
 30 63  1  0  0  0  0
 31 32  2  0  0  0  0
 32 33  1  0  0  0  0
 32  5  1  0  0  0  0
 33 36  2  0  0  0  0
 33 42  1  0  0  0  0
 34 35  1  0  0  0  0
 34 64  1  0  0  0  0
 35 65  1  0  0  0  0
 36 37  1  0  0  0  0
 36 66  1  0  0  0  0
 37 34  2  0  0  0  0
 37 67  1  0  0  0  0
 38 39  1  0  0  0  0
 38 68  1  0  0  0  0
 38 69  1  0  0  0  0
 39 70  1  0  0  0  0
 40 41  1  0  0  0  0
 40 39  1  0  0  0  0
 40 71  1  0  0  0  0
 40 72  1  0  0  0  0
 41 39  1  0  0  0  0
 41 73  1  0  0  0  0
 41 74  1  0  0  0  0
 42 35  2  0  0  0  0
 42 75  1  0  0  0  0
 44 76  1  0  0  0  0
M  END
>  <DRUGBANK_ID>
DB11691

>  <COMMON_NAME>
Naldemedine

>  <CAS_NUMBER>
916072-89-4

>  <UNII>
03KSI6WLXH

>  <SYNONYMS>
Naldemedine

$$$$
