UC4
 OpenBabel10282417072D

 41 42  0  0  0  0  0  0  0  0999 V2000
    3.0050    0.3238    0.0000 Cl  0  0  0  0  0  0  0  0  0  0  0  0
    1.5761    0.3238    0.0000 C   0  0  0  0  0  0  0  0  0  0  0  0
    2.2906   -0.0887    0.0000 C   0  0  0  0  0  0  0  0  0  0  0  0
    2.2906   -0.9137    0.0000 C   0  0  0  0  0  0  0  0  0  0  0  0
    1.5761   -1.3262    0.0000 C   0  0  0  0  0  0  0  0  0  0  0  0
    0.8616   -0.9137    0.0000 C   0  0  0  0  0  0  0  0  0  0  0  0
    0.8616   -0.0887    0.0000 C   0  0  0  0  0  0  0  0  0  0  0  0
    0.8616    1.5613    0.0000 O   0  0  0  0  0  0  0  0  0  0  0  0
    1.5761    1.1488    0.0000 C   0  0  0  0  0  0  0  0  0  0  0  0
    2.2906    1.5613    0.0000 O   0  0  0  0  0  0  0  0  0  0  0  0
    2.2906    2.3863    0.0000 C   0  0  0  0  0  0  0  0  0  0  0  0
    3.0050    2.7988    0.0000 C   0  0  0  0  0  0  0  0  0  0  0  0
    1.5761    2.7988    0.0000 C   0  0  0  0  0  0  0  0  0  0  0  0
   -2.7107   -1.3262    0.0000 O   0  0  0  0  0  0  0  0  0  0  0  0
   -1.9963   -0.9137    0.0000 C   0  0  0  0  0  0  0  0  0  0  0  0
   -1.2818   -1.3262    0.0000 C   0  0  0  0  0  0  0  0  0  0  0  0
   -1.2818   -2.1512    0.0000 S   0  0  0  0  0  0  0  0  0  0  0  0
   -1.9963   -2.5637    0.0000 C   0  0  0  0  0  0  0  0  0  0  0  0
   -2.7107   -2.1512    0.0000 C   0  0  0  0  0  0  0  0  0  0  0  0
   -1.9963   -0.0887    0.0000 C   0  0  0  0  0  0  0  0  0  0  0  0
   -0.5673   -0.0887    0.0000 O   0  0  0  0  0  0  0  0  0  0  0  0
   -0.5673   -0.9137    0.0000 C   0  0  0  0  0  0  0  0  0  0  0  0
    0.1471   -1.3262    0.0000 N   0  0  0  0  0  0  0  0  0  0  0  0
    3.1843   -1.4297    0.0000 H   0  0  0  0  0  0  0  0  0  0  0  0
    1.5761   -2.3582    0.0000 H   0  0  0  0  0  0  0  0  0  0  0  0
   -0.0321    0.4273    0.0000 H   0  0  0  0  0  0  0  0  0  0  0  0
    2.2906    3.4563    0.0000 H   0  0  0  0  0  0  0  0  0  0  0  0
    3.9317    2.2638    0.0000 H   0  0  0  0  0  0  0  0  0  0  0  0
    3.0050    3.8688    0.0000 H   0  0  0  0  0  0  0  0  0  0  0  0
    3.9316    3.3338    0.0000 H   0  0  0  0  0  0  0  0  0  0  0  0
    1.5761    3.8688    0.0000 H   0  0  0  0  0  0  0  0  0  0  0  0
    0.6495    2.2638    0.0000 H   0  0  0  0  0  0  0  0  0  0  0  0
    0.6494    3.3338    0.0000 H   0  0  0  0  0  0  0  0  0  0  0  0
   -1.9963   -3.6337    0.0000 H   0  0  0  0  0  0  0  0  0  0  0  0
   -2.9230   -3.0987    0.0000 H   0  0  0  0  0  0  0  0  0  0  0  0
   -3.6374   -2.6862    0.0000 H   0  0  0  0  0  0  0  0  0  0  0  0
   -2.7107   -3.2212    0.0000 H   0  0  0  0  0  0  0  0  0  0  0  0
   -1.0697    0.4463    0.0000 H   0  0  0  0  0  0  0  0  0  0  0  0
   -2.9229    0.4463    0.0000 H   0  0  0  0  0  0  0  0  0  0  0  0
   -1.9963    0.9813    0.0000 H   0  0  0  0  0  0  0  0  0  0  0  0
    0.1471   -2.3107    0.0000 H   0  0  0  0  0  0  0  0  0  0  0  0
  1  3  1  0  0  0  0
  2  3  2  0  0  0  0
  2  7  1  0  0  0  0
  2  9  1  0  0  0  0
  3  4  1  0  0  0  0
  4  5  2  0  0  0  0
  4 24  1  0  0  0  0
  5  6  1  0  0  0  0
  5 25  1  0  0  0  0
  6  7  2  0  0  0  0
  6 23  1  0  0  0  0
  7 26  1  0  0  0  0
  8  9  2  0  0  0  0
  9 10  1  0  0  0  0
 10 11  1  0  0  0  0
 11 12  1  0  0  0  0
 11 13  1  0  0  0  0
 11 27  1  0  0  0  0
 12 28  1  0  0  0  0
 12 29  1  0  0  0  0
 12 30  1  0  0  0  0
 13 31  1  0  0  0  0
 13 32  1  0  0  0  0
 13 33  1  0  0  0  0
 14 15  1  0  0  0  0
 14 19  1  0  0  0  0
 15 16  2  0  0  0  0
 15 20  1  0  0  0  0
 16 17  1  0  0  0  0
 16 22  1  0  0  0  0
 17 18  1  0  0  0  0
 18 19  1  0  0  0  0
 18 34  1  0  0  0  0
 18 35  1  0  0  0  0
 19 36  1  0  0  0  0
 19 37  1  0  0  0  0
 20 38  1  0  0  0  0
 20 39  1  0  0  0  0
 20 40  1  0  0  0  0
 21 22  2  0  0  0  0
 22 23  1  0  0  0  0
 23 41  1  0  0  0  0
M  END
>  <DRUGBANK_ID>
DB08682

>  <COMMON_NAME>
1-METHYL ETHYL 1-CHLORO-5-[[(5,6DIHYDRO-2-METHYL-1,4-OXATHIIN-3-YL)CARBONYL]AMINO]BENZOATE

>  <UNII>
IJ5WR6SKU5

$$$$
