122
 OpenBabel10282417072D

 32 34  0  0  0  0  0  0  0  0999 V2000
    1.9586    0.0413    0.0000 C   0  0  0  0  0  0  0  0  0  0  0  0
    1.9586   -0.7837    0.0000 C   0  0  0  0  0  0  0  0  0  0  0  0
    1.2441   -1.1962    0.0000 C   0  0  0  0  0  0  0  0  0  0  0  0
    0.5297   -0.7837    0.0000 C   0  0  0  0  0  0  0  0  0  0  0  0
    0.5297    0.0413    0.0000 C   0  0  0  0  0  0  0  0  0  0  0  0
    1.2441    0.4538    0.0000 C   0  0  0  0  0  0  0  0  0  0  0  0
    2.6731    0.4538    0.0000 C   0  0  0  0  0  0  0  0  0  0  0  0
    3.3875    0.0413    0.0000 N   0  0  0  0  0  0  0  0  0  0  0  0
    2.6731    1.2788    0.0000 N   0  3  0  0  0  0  0  0  0  0  0  0
   -0.2550   -1.0386    0.0000 N   0  0  0  0  0  0  0  0  0  0  0  0
   -0.2550    0.2963    0.0000 N   0  0  0  0  0  0  0  0  0  0  0  0
   -0.7399   -0.3712    0.0000 C   0  0  0  0  0  0  0  0  0  0  0  0
   -1.5649   -0.3712    0.0000 C   0  0  0  0  0  0  0  0  0  0  0  0
   -1.9774   -1.0856    0.0000 C   0  0  0  0  0  0  0  0  0  0  0  0
   -2.8024   -1.0856    0.0000 C   0  0  0  0  0  0  0  0  0  0  0  0
   -3.2149   -0.3712    0.0000 C   0  0  0  0  0  0  0  0  0  0  0  0
   -2.8024    0.3433    0.0000 C   0  0  0  0  0  0  0  0  0  0  0  0
   -1.9774    0.3433    0.0000 C   0  0  0  0  0  0  0  0  0  0  0  0
   -1.5649    1.0578    0.0000 O   0  0  0  0  0  0  0  0  0  0  0  0
    2.8523   -1.2997    0.0000 H   0  0  0  0  0  0  0  0  0  0  0  0
    1.2441   -2.2282    0.0000 H   0  0  0  0  0  0  0  0  0  0  0  0
    1.2441    1.4858    0.0000 H   0  0  0  0  0  0  0  0  0  0  0  0
    3.3875   -0.9432    0.0000 H   0  0  0  0  0  0  0  0  0  0  0  0
    4.2401    0.5335    0.0000 H   0  0  0  0  0  0  0  0  0  0  0  0
    3.5257    1.7711    0.0000 H   0  0  0  0  0  0  0  0  0  0  0  0
    1.8205    1.7710    0.0000 H   0  0  0  0  0  0  0  0  0  0  0  0
   -0.5592    1.2326    0.0000 H   0  0  0  0  0  0  0  0  0  0  0  0
   -1.4614   -1.9793    0.0000 H   0  0  0  0  0  0  0  0  0  0  0  0
   -3.3184   -1.9793    0.0000 H   0  0  0  0  0  0  0  0  0  0  0  0
   -4.2469   -0.3712    0.0000 H   0  0  0  0  0  0  0  0  0  0  0  0
   -3.3184    1.2370    0.0000 H   0  0  0  0  0  0  0  0  0  0  0  0
   -0.6279    1.0578    0.0000 H   0  0  0  0  0  0  0  0  0  0  0  0
  1  2  1  0  0  0  0
  1  6  2  0  0  0  0
  1  7  1  0  0  0  0
  2  3  2  0  0  0  0
  2 20  1  0  0  0  0
  3  4  1  0  0  0  0
  3 21  1  0  0  0  0
  4  5  2  0  0  0  0
  4 10  1  0  0  0  0
  5  6  1  0  0  0  0
  5 11  1  0  0  0  0
  6 22  1  0  0  0  0
  7  8  1  0  0  0  0
  7  9  2  0  0  0  0
  8 23  1  0  0  0  0
  8 24  1  0  0  0  0
  9 25  1  0  0  0  0
  9 26  1  0  0  0  0
 10 12  2  0  0  0  0
 11 12  1  0  0  0  0
 11 27  1  0  0  0  0
 12 13  1  0  0  0  0
 13 14  2  0  0  0  0
 13 18  1  0  0  0  0
 14 15  1  0  0  0  0
 14 28  1  0  0  0  0
 15 16  2  0  0  0  0
 15 29  1  0  0  0  0
 16 17  1  0  0  0  0
 16 30  1  0  0  0  0
 17 18  2  0  0  0  0
 17 31  1  0  0  0  0
 18 19  1  0  0  0  0
 19 32  1  0  0  0  0
M  CHG  1   9   1
M  END
>  <DRUGBANK_ID>
DB02287

>  <SECONDARY_ACCESSION_NUMBERS>
EXPT00728; EXPT00016; DB02193

>  <COMMON_NAME>
2-(2-hydroxy-phenyl)-3H-benzoimidazole-5-carboxamidine

>  <SYNONYMS>
[2-(2-Hydroxyphenyl)-1H-benzimidazol-5-yl](imino)methanaminium

$$$$
