
 OpenBabel10282417072D

 56 59  0  0  0  0  0  0  0  0999 V2000
    3.2547   -0.1813    0.0000 O   0  0  0  0  0  0  0  0  0  0  0  0
   -3.2546   -1.1710    0.0000 O   0  0  0  0  0  0  0  0  0  0  0  0
    0.8387    2.0389    0.0000 O   0  0  0  0  0  0  0  0  0  0  0  0
    2.2640    2.1420    0.0000 O   0  0  0  0  0  0  0  0  0  0  0  0
    1.6179   -0.2997    0.0000 C   0  0  1  0  0  0  0  0  0  0  0  0
    1.3377   -1.0756    0.0000 C   0  0  2  0  0  0  0  0  0  0  0  0
    2.4426   -0.3265    0.0000 C   0  0  2  0  0  0  0  0  0  0  0  0
    0.5256   -1.2208    0.0000 C   0  0  1  0  0  0  0  0  0  0  0  0
   -0.0062   -0.5901    0.0000 C   0  0  1  0  0  0  0  0  0  0  0  0
   -0.8184   -0.7353    0.0000 C   0  0  2  0  0  0  0  0  0  0  0  0
    1.0862    0.3309    0.0000 C   0  0  0  0  0  0  0  0  0  0  0  0
    1.9890   -1.5820    0.0000 C   0  0  0  0  0  0  0  0  0  0  0  0
    2.6719   -1.1190    0.0000 C   0  0  0  0  0  0  0  0  0  0  0  0
   -1.0986   -1.5112    0.0000 C   0  0  0  0  0  0  0  0  0  0  0  0
    0.2740    0.1857    0.0000 C   0  0  0  0  0  0  0  0  0  0  0  0
    0.2452   -1.9967    0.0000 C   0  0  0  0  0  0  0  0  0  0  0  0
    2.3830    0.4963    0.0000 C   0  0  0  0  0  0  0  0  0  0  0  0
    1.9779    0.4426    0.0000 C   0  0  0  0  0  0  0  0  0  0  0  0
   -0.5668   -2.1420    0.0000 C   0  0  0  0  0  0  0  0  0  0  0  0
   -1.3501   -0.1046    0.0000 C   0  0  0  0  0  0  0  0  0  0  0  0
   -1.9108   -1.6565    0.0000 C   0  0  0  0  0  0  0  0  0  0  0  0
   -0.5380    0.0405    0.0000 C   0  0  0  0  0  0  0  0  0  0  0  0
   -2.4425   -1.0258    0.0000 C   0  0  0  0  0  0  0  0  0  0  0  0
   -2.1622   -0.2498    0.0000 C   0  0  0  0  0  0  0  0  0  0  0  0
    1.6406    0.8561    0.0000 C   0  0  0  0  0  0  0  0  0  0  0  0
    1.5811    1.6790    0.0000 C   0  0  0  0  0  0  0  0  0  0  0  0
   -0.6508    0.1743    0.0000 H   0  0  0  0  0  0  0  0  0  0  0  0
    1.1701   -1.9853    0.0000 H   0  0  0  0  0  0  0  0  0  0  0  0
    1.0981   -2.0465    0.0000 H   0  0  0  0  0  0  0  0  0  0  0  0
    3.8800   -0.9229    0.0000 H   0  0  0  0  0  0  0  0  0  0  0  0
    0.7711    2.9735    0.0000 H   0  0  0  0  0  0  0  0  0  0  0  0
    1.4498    1.3372    0.0000 H   0  0  0  0  0  0  0  0  0  0  0  0
    0.3965    1.1489    0.0000 H   0  0  0  0  0  0  0  0  0  0  0  0
    1.9542   -2.6514    0.0000 H   0  0  0  0  0  0  0  0  0  0  0  0
    2.9261   -2.0985    0.0000 H   0  0  0  0  0  0  0  0  0  0  0  0
    3.6782   -1.4826    0.0000 H   0  0  0  0  0  0  0  0  0  0  0  0
    2.8048   -2.1807    0.0000 H   0  0  0  0  0  0  0  0  0  0  0  0
   -0.4158    1.0037    0.0000 H   0  0  0  0  0  0  0  0  0  0  0  0
    0.6376    1.1920    0.0000 H   0  0  0  0  0  0  0  0  0  0  0  0
    0.9105   -2.7857    0.0000 H   0  0  0  0  0  0  0  0  0  0  0  0
    3.2686    1.0968    0.0000 H   0  0  0  0  0  0  0  0  0  0  0  0
    2.3057    1.5635    0.0000 H   0  0  0  0  0  0  0  0  0  0  0  0
    3.0451    0.5196    0.0000 H   0  0  0  0  0  0  0  0  0  0  0  0
    1.3776    1.3283    0.0000 H   0  0  0  0  0  0  0  0  0  0  0  0
    2.4448    1.4054    0.0000 H   0  0  0  0  0  0  0  0  0  0  0  0
   -0.9174   -3.1126    0.0000 H   0  0  0  0  0  0  0  0  0  0  0  0
   -0.9865    0.9017    0.0000 H   0  0  0  0  0  0  0  0  0  0  0  0
   -2.0398    0.7134    0.0000 H   0  0  0  0  0  0  0  0  0  0  0  0
   -2.2614   -2.6271    0.0000 H   0  0  0  0  0  0  0  0  0  0  0  0
    0.5153    0.2287    0.0000 H   0  0  0  0  0  0  0  0  0  0  0  0
   -1.2276    0.8586    0.0000 H   0  0  0  0  0  0  0  0  0  0  0  0
   -0.1743    1.0468    0.0000 H   0  0  0  0  0  0  0  0  0  0  0  0
   -2.8520    0.5682    0.0000 H   0  0  0  0  0  0  0  0  0  0  0  0
   -3.2155   -0.4382    0.0000 H   0  0  0  0  0  0  0  0  0  0  0  0
    0.7550    0.2556    0.0000 H   0  0  0  0  0  0  0  0  0  0  0  0
    0.6778    1.3228    0.0000 H   0  0  0  0  0  0  0  0  0  0  0  0
  1 30  1  0  0  0  0
  2 23  2  0  0  0  0
  3 26  1  0  0  0  0
  3 31  1  0  0  0  0
  4 26  2  0  0  0  0
  5  6  1  0  0  0  0
  5  7  1  0  0  0  0
  5 11  1  0  0  0  0
  5 18  1  1  0  0  0
  6  8  1  0  0  0  0
  6 12  1  0  0  0  0
  6 29  1  6  0  0  0
  7  1  1  1  0  0  0
  7 13  1  0  0  0  0
  7 17  1  0  0  0  0
  8  9  1  0  0  0  0
  8 16  1  0  0  0  0
  8 28  1  1  0  0  0
  9 10  1  0  0  0  0
  9 15  1  0  0  0  0
  9 27  1  6  0  0  0
 10 14  1  0  0  0  0
 10 20  1  0  0  0  0
 10 22  1  1  0  0  0
 11 15  1  0  0  0  0
 11 32  1  0  0  0  0
 11 33  1  0  0  0  0
 12 13  1  0  0  0  0
 12 34  1  0  0  0  0
 12 35  1  0  0  0  0
 13 36  1  0  0  0  0
 13 37  1  0  0  0  0
 14 19  1  0  0  0  0
 14 21  2  0  0  0  0
 15 38  1  0  0  0  0
 15 39  1  0  0  0  0
 16 19  2  0  0  0  0
 16 40  1  0  0  0  0
 17 25  1  0  0  0  0
 17 41  1  0  0  0  0
 17 42  1  0  0  0  0
 18 43  1  0  0  0  0
 18 44  1  0  0  0  0
 18 45  1  0  0  0  0
 19 46  1  0  0  0  0
 20 24  1  0  0  0  0
 20 47  1  0  0  0  0
 20 48  1  0  0  0  0
 21 23  1  0  0  0  0
 21 49  1  0  0  0  0
 22 50  1  0  0  0  0
 22 51  1  0  0  0  0
 22 52  1  0  0  0  0
 23 24  1  0  0  0  0
 24 53  1  0  0  0  0
 24 54  1  0  0  0  0
 25 26  1  0  0  0  0
 25 55  1  0  0  0  0
 25 56  1  0  0  0  0
M  END
>  <DRUGBANK_ID>
DB09015

>  <COMMON_NAME>
Canrenoic acid

>  <CAS_NUMBER>
4138-96-9

>  <UNII>
87UG89VA9K

>  <SYNONYMS>
Ã¡cido canrenoico; Canrenoate; Canrenoic acid

$$$$
