J07
 OpenBabel10282417072D

 51 54  0  0  0  0  0  0  0  0999 V2000
   -2.6977   -4.0399    0.0000 C   0  0  0  0  0  0  0  0  0  0  0  0
   -1.8908   -3.8683    0.0000 C   0  0  0  0  0  0  0  0  0  0  0  0
   -1.6358   -3.0837    0.0000 N   0  0  0  0  0  0  0  0  0  0  0  0
   -0.8289   -2.9122    0.0000 C   0  0  0  0  0  0  0  0  0  0  0  0
   -0.2768   -3.5253    0.0000 O   0  0  0  0  0  0  0  0  0  0  0  0
   -0.5739   -2.1276    0.0000 N   0  0  0  0  0  0  0  0  0  0  0  0
    0.2331   -1.9560    0.0000 C   0  0  0  0  0  0  0  0  0  0  0  0
    0.4880   -1.1714    0.0000 C   0  0  0  0  0  0  0  0  0  0  0  0
   -0.0640   -0.5583    0.0000 C   0  0  0  0  0  0  0  0  0  0  0  0
   -0.8710   -0.7298    0.0000 C   0  0  0  0  0  0  0  0  0  0  0  0
   -1.1259   -1.5145    0.0000 C   0  0  0  0  0  0  0  0  0  0  0  0
    0.1909    0.2263    0.0000 N   0  0  0  0  0  0  0  0  0  0  0  0
   -0.3611    0.8394    0.0000 C   0  0  0  0  0  0  0  0  0  0  0  0
   -0.1062    1.6240    0.0000 N   0  0  0  0  0  0  0  0  0  0  0  0
   -0.6582    2.2371    0.0000 C   0  0  0  0  0  0  0  0  0  0  0  0
   -1.4652    2.0656    0.0000 C   0  0  0  0  0  0  0  0  0  0  0  0
   -1.7201    1.2810    0.0000 C   0  0  0  0  0  0  0  0  0  0  0  0
   -1.1681    0.6679    0.0000 N   0  0  0  0  0  0  0  0  0  0  0  0
   -2.0172    2.6787    0.0000 Cl  0  0  0  0  0  0  0  0  0  0  0  0
   -0.4033    3.0217    0.0000 C   0  0  0  0  0  0  0  0  0  0  0  0
    0.3813    3.2767    0.0000 C   0  0  0  0  0  0  0  0  0  0  0  0
    1.0958    2.8642    0.0000 C   0  0  0  0  0  0  0  0  0  0  0  0
    1.8103    3.2767    0.0000 C   0  0  0  0  0  0  0  0  0  0  0  0
    1.8103    4.1017    0.0000 C   0  0  0  0  0  0  0  0  0  0  0  0
    1.0958    4.5142    0.0000 C   0  0  0  0  0  0  0  0  0  0  0  0
    0.3813    4.1017    0.0000 C   0  0  0  0  0  0  0  0  0  0  0  0
   -0.4033    4.3566    0.0000 N   0  0  0  0  0  0  0  0  0  0  0  0
   -0.8882    3.6892    0.0000 C   0  0  0  0  0  0  0  0  0  0  0  0
   -3.4138   -3.2448    0.0000 H   0  0  0  0  0  0  0  0  0  0  0  0
   -3.0282   -5.0576    0.0000 H   0  0  0  0  0  0  0  0  0  0  0  0
   -3.7443   -4.2625    0.0000 H   0  0  0  0  0  0  0  0  0  0  0  0
   -1.1748   -4.6635    0.0000 H   0  0  0  0  0  0  0  0  0  0  0  0
   -2.2214   -4.8859    0.0000 H   0  0  0  0  0  0  0  0  0  0  0  0
   -2.2945   -2.3520    0.0000 H   0  0  0  0  0  0  0  0  0  0  0  0
    0.9491   -2.7511    0.0000 H   0  0  0  0  0  0  0  0  0  0  0  0
    1.2797   -1.7335    0.0000 H   0  0  0  0  0  0  0  0  0  0  0  0
    1.5346   -0.9489    0.0000 H   0  0  0  0  0  0  0  0  0  0  0  0
    0.8187   -0.1538    0.0000 H   0  0  0  0  0  0  0  0  0  0  0  0
   -0.7800    0.2369    0.0000 H   0  0  0  0  0  0  0  0  0  0  0  0
   -1.5870    0.0654    0.0000 H   0  0  0  0  0  0  0  0  0  0  0  0
   -1.9176   -0.9523    0.0000 H   0  0  0  0  0  0  0  0  0  0  0  0
   -2.1725   -1.7370    0.0000 H   0  0  0  0  0  0  0  0  0  0  0  0
   -1.8419   -0.7194    0.0000 H   0  0  0  0  0  0  0  0  0  0  0  0
    1.1539    0.4310    0.0000 H   0  0  0  0  0  0  0  0  0  0  0  0
   -2.7295    1.0664    0.0000 H   0  0  0  0  0  0  0  0  0  0  0  0
    1.0958    1.8322    0.0000 H   0  0  0  0  0  0  0  0  0  0  0  0
    2.7040    2.7607    0.0000 H   0  0  0  0  0  0  0  0  0  0  0  0
    2.7040    4.6177    0.0000 H   0  0  0  0  0  0  0  0  0  0  0  0
    1.0958    5.5462    0.0000 H   0  0  0  0  0  0  0  0  0  0  0  0
   -0.7075    5.2929    0.0000 H   0  0  0  0  0  0  0  0  0  0  0  0
   -1.9202    3.6892    0.0000 H   0  0  0  0  0  0  0  0  0  0  0  0
  1 29  1  0  0  0  0
  1 30  1  0  0  0  0
  1 31  1  0  0  0  0
  2  3  1  0  0  0  0
  2  1  1  0  0  0  0
  2 32  1  0  0  0  0
  2 33  1  0  0  0  0
  3 34  1  0  0  0  0
  4  3  1  0  0  0  0
  4  6  1  0  0  0  0
  5  4  2  0  0  0  0
  6 11  1  0  0  0  0
  7  6  1  0  0  0  0
  7  8  1  0  0  0  0
  7 35  1  0  0  0  0
  7 36  1  0  0  0  0
  8  9  1  0  0  0  0
  8 37  1  0  0  0  0
  8 38  1  0  0  0  0
  9 10  1  0  0  0  0
  9 12  1  0  0  0  0
  9 39  1  0  0  0  0
 10 40  1  0  0  0  0
 10 41  1  0  0  0  0
 11 10  1  0  0  0  0
 11 42  1  0  0  0  0
 11 43  1  0  0  0  0
 12 13  1  0  0  0  0
 12 44  1  0  0  0  0
 13 18  1  0  0  0  0
 14 13  2  0  0  0  0
 14 15  1  0  0  0  0
 15 16  2  0  0  0  0
 16 17  1  0  0  0  0
 16 19  1  0  0  0  0
 17 45  1  0  0  0  0
 18 17  2  0  0  0  0
 20 28  2  0  0  0  0
 20 15  1  0  0  0  0
 21 20  1  0  0  0  0
 22 21  2  0  0  0  0
 22 46  1  0  0  0  0
 23 22  1  0  0  0  0
 23 47  1  0  0  0  0
 24 23  2  0  0  0  0
 24 25  1  0  0  0  0
 24 48  1  0  0  0  0
 25 26  2  0  0  0  0
 25 49  1  0  0  0  0
 26 21  1  0  0  0  0
 26 27  1  0  0  0  0
 27 28  1  0  0  0  0
 27 50  1  0  0  0  0
 28 51  1  0  0  0  0
M  END
>  <DRUGBANK_ID>
DB08005

>  <COMMON_NAME>
4-{[5-chloro-4-(1H-indol-3-yl)pyrimidin-2-yl]amino}-N-ethylpiperidine-1-carboxamide

$$$$
