
 OpenBabel10282417072D

  5  0  0  0  0  0  0  0  0  0999 V2000
    0.4125    0.0000    0.0000 O   0  6  0  0  0  0  0  0  0  0  0  0
    3.7125    0.0000    0.0000 O   0  6  0  0  0  0  0  0  0  0  0  0
    0.0000   -1.6500    0.0000 O   0  6  0  0  0  0  0  0  0  0  0  0
   -0.4125    0.0000    0.0000 Al  0  1  0  0  0  0  0  0  0  0  0  0
    2.8875    0.0000    0.0000 Al  0  1  0  0  0  0  0  0  0  0  0  0
M  CHG  5   1  -2   2  -2   3  -2   4   3   5   3
M  END
>  <DRUGBANK_ID>
DB11342

>  <COMMON_NAME>
Aluminum oxide

>  <CAS_NUMBER>
1344-28-1

>  <UNII>
LMI26O6933

>  <SYNONYMS>
Aluminium oxide

$$$$
