6IP
 OpenBabel10282417072D

 33 35  0  0  0  0  0  0  0  0999 V2000
    1.1968   -3.6710    0.0000 N   0  0  0  0  0  0  0  0  0  0  0  0
    1.1968   -2.8460    0.0000 C   0  0  0  0  0  0  0  0  0  0  0  0
    1.9112   -2.4335    0.0000 C   0  0  0  0  0  0  0  0  0  0  0  0
    1.9112   -1.6085    0.0000 C   0  0  0  0  0  0  0  0  0  0  0  0
    1.1968   -1.1960    0.0000 C   0  0  0  0  0  0  0  0  0  0  0  0
    0.4823   -1.6085    0.0000 C   0  0  0  0  0  0  0  0  0  0  0  0
   -0.2322   -1.1960    0.0000 C   0  0  0  0  0  0  0  0  0  0  0  0
   -0.2322   -0.3710    0.0000 C   0  0  0  0  0  0  0  0  0  0  0  0
   -0.9466    0.0415    0.0000 C   0  0  0  0  0  0  0  0  0  0  0  0
   -0.9466    0.8665    0.0000 C   0  0  0  0  0  0  0  0  0  0  0  0
   -1.6611    1.2790    0.0000 C   0  0  0  0  0  0  0  0  0  0  0  0
   -2.3756    0.8665    0.0000 C   0  0  0  0  0  0  0  0  0  0  0  0
   -3.1602    1.1214    0.0000 C   0  0  0  0  0  0  0  0  0  0  0  0
   -3.6451    0.4540    0.0000 C   0  0  0  0  0  0  0  0  0  0  0  0
   -3.1602   -0.2135    0.0000 N   0  0  0  0  0  0  0  0  0  0  0  0
   -2.3756    0.0415    0.0000 C   0  0  0  0  0  0  0  0  0  0  0  0
   -1.6611   -0.3710    0.0000 C   0  0  0  0  0  0  0  0  0  0  0  0
    0.4823   -2.4335    0.0000 N   0  0  0  0  0  0  0  0  0  0  0  0
    0.3442   -4.1632    0.0000 H   0  0  0  0  0  0  0  0  0  0  0  0
    2.0494   -4.1632    0.0000 H   0  0  0  0  0  0  0  0  0  0  0  0
    2.8049   -2.9495    0.0000 H   0  0  0  0  0  0  0  0  0  0  0  0
    2.8049   -1.0925    0.0000 H   0  0  0  0  0  0  0  0  0  0  0  0
    1.1968   -0.1640    0.0000 H   0  0  0  0  0  0  0  0  0  0  0  0
   -1.1588   -1.7310    0.0000 H   0  0  0  0  0  0  0  0  0  0  0  0
   -1.1588   -0.6610    0.0000 H   0  0  0  0  0  0  0  0  0  0  0  0
    0.6945    0.1640    0.0000 H   0  0  0  0  0  0  0  0  0  0  0  0
   -0.2322    0.6990    0.0000 H   0  0  0  0  0  0  0  0  0  0  0  0
   -0.0529    1.3825    0.0000 H   0  0  0  0  0  0  0  0  0  0  0  0
   -1.6611    2.3110    0.0000 H   0  0  0  0  0  0  0  0  0  0  0  0
   -3.4791    2.1029    0.0000 H   0  0  0  0  0  0  0  0  0  0  0  0
   -4.6771    0.4540    0.0000 H   0  0  0  0  0  0  0  0  0  0  0  0
   -3.4644   -1.1498    0.0000 H   0  0  0  0  0  0  0  0  0  0  0  0
   -1.6611   -1.4030    0.0000 H   0  0  0  0  0  0  0  0  0  0  0  0
  1  2  1  0  0  0  0
  1 19  1  0  0  0  0
  1 20  1  0  0  0  0
  2 18  2  0  0  0  0
  2  3  1  0  0  0  0
  3  4  2  0  0  0  0
  3 21  1  0  0  0  0
  4  5  1  0  0  0  0
  4 22  1  0  0  0  0
  5  6  2  0  0  0  0
  5 23  1  0  0  0  0
  6 18  1  0  0  0  0
  6  7  1  0  0  0  0
  7  8  1  0  0  0  0
  7 24  1  0  0  0  0
  7 25  1  0  0  0  0
  8  9  1  0  0  0  0
  8 26  1  0  0  0  0
  8 27  1  0  0  0  0
  9 17  1  0  0  0  0
  9 10  2  0  0  0  0
 10 11  1  0  0  0  0
 10 28  1  0  0  0  0
 11 12  2  0  0  0  0
 11 29  1  0  0  0  0
 12 16  1  0  0  0  0
 12 13  1  0  0  0  0
 13 14  2  0  0  0  0
 13 30  1  0  0  0  0
 14 15  1  0  0  0  0
 14 31  1  0  0  0  0
 15 16  1  0  0  0  0
 15 32  1  0  0  0  0
 16 17  2  0  0  0  0
 17 33  1  0  0  0  0
M  END
>  <DRUGBANK_ID>
DB07206

>  <COMMON_NAME>
6-[2-(1H-INDOL-6-YL)ETHYL]PYRIDIN-2-AMINE

>  <UNII>
K7KY60XF2T

$$$$
