
 OpenBabel10282417072D

 45 47  0  0  1  0  0  0  0  0999 V2000
    2.5600    1.8968    0.0000 C   0  0  0  0  0  0  0  0  0  0  0  0
    1.9469    1.3448    0.0000 C   0  0  0  0  0  0  0  0  0  0  0  0
    1.4620    0.6773    0.0000 C   0  0  1  0  0  0  0  0  0  0  0  0
    0.6773    0.9323    0.0000 N   0  0  0  0  0  0  0  0  0  0  0  0
    0.6773    1.7573    0.0000 C   0  0  2  0  0  0  0  0  0  0  0  0
    1.4620    2.0122    0.0000 S   0  0  0  0  0  0  0  0  0  0  0  0
   -0.1477    1.7573    0.0000 C   0  0  1  0  0  0  0  0  0  0  0  0
   -0.1477    0.9323    0.0000 C   0  0  0  0  0  0  0  0  0  0  0  0
   -0.7310    0.3489    0.0000 O   0  0  0  0  0  0  0  0  0  0  0  0
   -0.7310    2.3406    0.0000 N   0  0  0  0  0  0  0  0  0  0  0  0
   -1.5279    2.1271    0.0000 C   0  0  0  0  0  0  0  0  0  0  0  0
   -1.7414    1.3302    0.0000 O   0  0  0  0  0  0  0  0  0  0  0  0
   -2.1113    2.7105    0.0000 C   0  0  1  0  0  0  0  0  0  0  0  0
   -2.9082    2.4970    0.0000 C   0  0  0  0  0  0  0  0  0  0  0  0
   -3.1217    1.7001    0.0000 C   0  0  0  0  0  0  0  0  0  0  0  0
   -3.9186    1.4865    0.0000 C   0  0  0  0  0  0  0  0  0  0  0  0
   -4.5019    2.0699    0.0000 C   0  0  0  0  0  0  0  0  0  0  0  0
   -4.2884    2.8668    0.0000 C   0  0  0  0  0  0  0  0  0  0  0  0
   -3.4915    3.0803    0.0000 C   0  0  0  0  0  0  0  0  0  0  0  0
   -1.8977    3.5074    0.0000 N   0  0  0  0  0  0  0  0  0  0  0  0
    1.7169   -0.1073    0.0000 C   0  0  0  0  0  0  0  0  0  0  0  0
    2.5239   -0.2788    0.0000 O   0  0  0  0  0  0  0  0  0  0  0  0
    1.1649   -0.7204    0.0000 O   0  0  0  0  0  0  0  0  0  0  0  0
    2.5600    0.7927    0.0000 C   0  0  0  0  0  0  0  0  0  0  0  0
    3.5776    1.5661    0.0000 H   0  0  0  0  0  0  0  0  0  0  0  0
    2.3376    2.9434    0.0000 H   0  0  0  0  0  0  0  0  0  0  0  0
    3.3552    2.6127    0.0000 H   0  0  0  0  0  0  0  0  0  0  0  0
    2.5188    0.5099    0.0000 H   0  0  0  0  0  0  0  0  0  0  0  0
    1.5429    1.1283    0.0000 H   0  0  0  0  0  0  0  0  0  0  0  0
    0.2618    2.7459    0.0000 H   0  0  0  0  0  0  0  0  0  0  0  0
   -0.4762    3.2915    0.0000 H   0  0  0  0  0  0  0  0  0  0  0  0
   -1.0777    2.9874    0.0000 H   0  0  0  0  0  0  0  0  0  0  0  0
   -2.3919    0.9704    0.0000 H   0  0  0  0  0  0  0  0  0  0  0  0
   -4.1955    0.4530    0.0000 H   0  0  0  0  0  0  0  0  0  0  0  0
   -4.9522    1.2096    0.0000 H   0  0  0  0  0  0  0  0  0  0  0  0
   -5.4987    1.8028    0.0000 H   0  0  0  0  0  0  0  0  0  0  0  0
   -5.0181    3.5965    0.0000 H   0  0  0  0  0  0  0  0  0  0  0  0
   -3.2145    4.1138    0.0000 H   0  0  0  0  0  0  0  0  0  0  0  0
   -2.4580    3.3572    0.0000 H   0  0  0  0  0  0  0  0  0  0  0  0
   -0.9124    3.7713    0.0000 H   0  0  0  0  0  0  0  0  0  0  0  0
   -2.6189    4.2287    0.0000 H   0  0  0  0  0  0  0  0  0  0  0  0
    0.2484   -0.5256    0.0000 H   0  0  0  0  0  0  0  0  0  0  0  0
    2.3375   -0.2539    0.0000 H   0  0  0  0  0  0  0  0  0  0  0  0
    3.5776    1.1233    0.0000 H   0  0  0  0  0  0  0  0  0  0  0  0
    3.3551    0.0767    0.0000 H   0  0  0  0  0  0  0  0  0  0  0  0
  1  2  1  0  0  0  0
  1 25  1  0  0  0  0
  1 26  1  0  0  0  0
  1 27  1  0  0  0  0
  2  3  1  0  0  0  0
  2  6  1  0  0  0  0
  2 24  1  0  0  0  0
  3  4  1  0  0  0  0
  3 21  1  0  0  0  0
  3 28  1  1  0  0  0
  4  8  1  0  0  0  0
  5  4  1  0  0  0  0
  5  6  1  0  0  0  0
  5  7  1  0  0  0  0
  5 29  1  6  0  0  0
  7  8  1  0  0  0  0
  7 10  1  0  0  0  0
  7 30  1  6  0  0  0
  8  9  2  0  0  0  0
 10 11  1  0  0  0  0
 10 31  1  0  0  0  0
 11 12  2  0  0  0  0
 11 13  1  0  0  0  0
 13 14  1  0  0  0  0
 13 20  1  0  0  0  0
 13 32  1  6  0  0  0
 14 15  2  0  0  0  0
 14 19  1  0  0  0  0
 15 16  1  0  0  0  0
 15 33  1  0  0  0  0
 16 17  1  0  0  0  0
 16 34  1  0  0  0  0
 16 35  1  0  0  0  0
 17 18  2  0  0  0  0
 17 36  1  0  0  0  0
 18 19  1  0  0  0  0
 18 37  1  0  0  0  0
 19 38  1  0  0  0  0
 19 39  1  0  0  0  0
 20 40  1  0  0  0  0
 20 41  1  0  0  0  0
 21 22  2  0  0  0  0
 21 23  1  0  0  0  0
 23 42  1  0  0  0  0
 24 43  1  0  0  0  0
 24 44  1  0  0  0  0
 24 45  1  0  0  0  0
M  END
>  <DRUGBANK_ID>
DB13300

>  <COMMON_NAME>
Epicillin

>  <CAS_NUMBER>
26774-90-3

>  <UNII>
3LU1L73C8Y

>  <SYNONYMS>
Epicillin

$$$$
