U1K
 OpenBabel10282417072D

 32 32  0  0  0  0  0  0  0  0999 V2000
    1.4699    2.6628    0.0000 O   0  0  0  0  0  0  0  0  0  0  0  0
    1.2984    1.8558    0.0000 C   0  0  0  0  0  0  0  0  0  0  0  0
    1.9115    1.3037    0.0000 O   0  0  0  0  0  0  0  0  0  0  0  0
    0.5138    1.6008    0.0000 C   0  0  2  0  0  0  0  0  0  0  0  0
    0.3423    0.7939    0.0000 C   0  0  0  0  0  0  0  0  0  0  0  0
   -0.4424    0.5389    0.0000 C   0  0  0  0  0  0  0  0  0  0  0  0
   -0.6973   -0.2457    0.0000 C   0  0  0  0  0  0  0  0  0  0  0  0
   -1.5223   -0.2457    0.0000 S   0  0  0  0  0  0  0  0  0  0  0  0
   -1.7772    0.5389    0.0000 N   0  0  0  0  0  0  0  0  0  0  0  0
   -1.1098    1.0239    0.0000 C   0  0  0  0  0  0  0  0  0  0  0  0
   -1.1098    1.8489    0.0000 O   0  5  0  0  0  0  0  0  0  0  0  0
   -0.2124   -0.9131    0.0000 C   0  0  0  0  0  0  0  0  0  0  0  0
    0.2725   -1.5806    0.0000 C   0  0  0  0  0  0  0  0  0  0  0  0
   -0.8798   -1.3981    0.0000 C   0  0  0  0  0  0  0  0  0  0  0  0
    0.4551   -0.4282    0.0000 C   0  0  0  0  0  0  0  0  0  0  0  0
   -0.0993    2.1529    0.0000 N   0  3  0  0  0  0  0  0  0  0  0  0
    0.9477    1.2101    0.0000 H   0  0  0  0  0  0  0  0  0  0  0  0
    2.3610    2.9524    0.0000 H   0  0  0  0  0  0  0  0  0  0  0  0
    1.1375    0.0780    0.0000 H   0  0  0  0  0  0  0  0  0  0  0  0
    0.1199   -0.2527    0.0000 H   0  0  0  0  0  0  0  0  0  0  0  0
   -0.1628   -2.5581    0.0000 H   0  0  0  0  0  0  0  0  0  0  0  0
    1.3366   -1.4688    0.0000 H   0  0  0  0  0  0  0  0  0  0  0  0
    0.9014   -2.4463    0.0000 H   0  0  0  0  0  0  0  0  0  0  0  0
   -1.8573   -0.9630    0.0000 H   0  0  0  0  0  0  0  0  0  0  0  0
   -0.7678   -2.4622    0.0000 H   0  0  0  0  0  0  0  0  0  0  0  0
   -1.7454   -2.0271    0.0000 H   0  0  0  0  0  0  0  0  0  0  0  0
    1.4326   -0.8635    0.0000 H   0  0  0  0  0  0  0  0  0  0  0  0
    0.3433    0.6359    0.0000 H   0  0  0  0  0  0  0  0  0  0  0  0
    1.3208    0.2007    0.0000 H   0  0  0  0  0  0  0  0  0  0  0  0
    0.1128    3.1506    0.0000 H   0  0  0  0  0  0  0  0  0  0  0  0
   -1.0694    1.8378    0.0000 H   0  0  0  0  0  0  0  0  0  0  0  0
   -0.8573    2.8355    0.0000 H   0  0  0  0  0  0  0  0  0  0  0  0
  1  2  1  0  0  0  0
  1 18  1  0  0  0  0
  2  3  2  0  0  0  0
  2  4  1  0  0  0  0
  4  5  1  0  0  0  0
  4 16  1  0  0  0  0
  4 17  1  1  0  0  0
  5  6  1  0  0  0  0
  5 19  1  0  0  0  0
  5 20  1  0  0  0  0
  6  7  2  0  0  0  0
  6 10  1  0  0  0  0
  7  8  1  0  0  0  0
  7 12  1  0  0  0  0
  8  9  1  0  0  0  0
  9 10  2  0  0  0  0
 10 11  1  0  0  0  0
 12 13  1  0  0  0  0
 12 14  1  0  0  0  0
 12 15  1  0  0  0  0
 13 21  1  0  0  0  0
 13 22  1  0  0  0  0
 13 23  1  0  0  0  0
 14 24  1  0  0  0  0
 14 25  1  0  0  0  0
 14 26  1  0  0  0  0
 15 27  1  0  0  0  0
 15 28  1  0  0  0  0
 15 29  1  0  0  0  0
 16 30  1  0  0  0  0
 16 31  1  0  0  0  0
 16 32  1  0  0  0  0
M  CHG  2  11  -1  16   1
M  END
>  <DRUGBANK_ID>
DB04798

>  <COMMON_NAME>
THIO-ATPA

$$$$
