
 OpenBabel10282417072D

 37 38  0  0  1  0  0  0  0  0999 V2000
    3.5955   -1.4675    0.0000 C   0  0  0  0  0  0  0  0  0  0  0  0
    2.7376   -4.7681    0.0000 C   0  0  0  0  0  0  0  0  0  0  0  0
    2.4020   -4.0144    0.0000 C   0  0  2  0  0  0  0  0  0  0  0  0
    2.8109   -1.7224    0.0000 C   0  0  1  0  0  0  0  0  0  0  0  0
    2.1434   -1.2375    0.0000 C   0  0  1  0  0  0  0  0  0  0  0  0
    1.4760   -1.7224    0.0000 C   0  0  2  0  0  0  0  0  0  0  0  0
    1.0966   -4.5956    0.0000 C   0  0  2  0  0  0  0  0  0  0  0  0
    1.5815   -3.9282    0.0000 C   0  0  1  0  0  0  0  0  0  0  0  0
    1.4322   -5.3493    0.0000 C   0  0  2  0  0  0  0  0  0  0  0  0
    1.7309   -2.5070    0.0000 C   0  0  1  0  0  0  0  0  0  0  0  0
    3.7670   -0.6605    0.0000 O   0  0  0  0  0  0  0  0  0  0  0  0
    2.8870   -3.3470    0.0000 O   0  0  0  0  0  0  0  0  0  0  0  0
    2.1434   -0.4125    0.0000 O   0  0  0  0  0  0  0  0  0  0  0  0
    0.6914   -1.4675    0.0000 O   0  0  0  0  0  0  0  0  0  0  0  0
    0.2761   -4.5094    0.0000 O   0  0  0  0  0  0  0  0  0  0  0  0
    0.9473   -6.0167    0.0000 O   0  0  0  0  0  0  0  0  0  0  0  0
    2.2527   -5.4355    0.0000 O   0  0  0  0  0  0  0  0  0  0  0  0
    2.5559   -2.5070    0.0000 O   0  0  0  0  0  0  0  0  0  0  0  0
    1.2460   -3.1745    0.0000 O   0  0  0  0  0  0  0  0  0  0  0  0
    3.2225   -4.1006    0.0000 H   0  0  0  0  0  0  0  0  0  0  0  0
    2.6534   -0.9126    0.0000 H   0  0  0  0  0  0  0  0  0  0  0  0
    2.7061   -0.6341    0.0000 H   0  0  0  0  0  0  0  0  0  0  0  0
    1.3469   -0.9076    0.0000 H   0  0  0  0  0  0  0  0  0  0  0  0
    0.7611   -3.8419    0.0000 H   0  0  0  0  0  0  0  0  0  0  0  0
    2.0665   -3.2607    0.0000 H   0  0  0  0  0  0  0  0  0  0  0  0
    0.6117   -5.2630    0.0000 H   0  0  0  0  0  0  0  0  0  0  0  0
    0.9161   -2.3780    0.0000 H   0  0  0  0  0  0  0  0  0  0  0  0
    4.3907   -2.1835    0.0000 H   0  0  0  0  0  0  0  0  0  0  0  0
    4.6131   -1.1368    0.0000 H   0  0  0  0  0  0  0  0  0  0  0  0
    3.8017   -4.8799    0.0000 H   0  0  0  0  0  0  0  0  0  0  0  0
    3.1728   -5.7456    0.0000 H   0  0  0  0  0  0  0  0  0  0  0  0
    4.6895   -0.3607    0.0000 H   0  0  0  0  0  0  0  0  0  0  0  0
    3.8517   -3.4485    0.0000 H   0  0  0  0  0  0  0  0  0  0  0  0
    2.9834    0.0725    0.0000 H   0  0  0  0  0  0  0  0  0  0  0  0
    0.4897   -0.5187    0.0000 H   0  0  0  0  0  0  0  0  0  0  0  0
   -0.1185   -3.6233    0.0000 H   0  0  0  0  0  0  0  0  0  0  0  0
   -0.0174   -5.9153    0.0000 H   0  0  0  0  0  0  0  0  0  0  0  0
  1 28  1  0  0  0  0
  1 29  1  0  0  0  0
  2 30  1  0  0  0  0
  2 31  1  0  0  0  0
  3  2  1  0  0  0  0
  3 12  1  0  0  0  0
  3 20  1  1  0  0  0
  4  1  1  0  0  0  0
  4 21  1  1  0  0  0
  5  4  1  0  0  0  0
  5 13  1  0  0  0  0
  5 22  1  6  0  0  0
  6  5  1  0  0  0  0
  6 14  1  0  0  0  0
  6 23  1  1  0  0  0
  7 15  1  0  0  0  0
  7 24  1  1  0  0  0
  8  3  1  0  0  0  0
  8  7  1  0  0  0  0
  8 19  1  0  0  0  0
  8 25  1  6  0  0  0
  9  7  1  0  0  0  0
  9 16  1  0  0  0  0
  9 26  1  6  0  0  0
 10  6  1  0  0  0  0
 10 19  1  0  0  0  0
 10 27  1  6  0  0  0
 11  1  1  0  0  0  0
 11 32  1  0  0  0  0
 12 33  1  0  0  0  0
 13 34  1  0  0  0  0
 14 35  1  0  0  0  0
 15 36  1  0  0  0  0
 16 37  1  0  0  0  0
 17  2  1  0  0  0  0
 17  9  1  0  0  0  0
 18  4  1  0  0  0  0
 18 10  1  0  0  0  0
M  END
>  <DRUGBANK_ID>
DB03870

>  <SECONDARY_ACCESSION_NUMBERS>
EXPT01971

>  <COMMON_NAME>
Ara-Alpha(1,3)-Xyl

$$$$
