
 OpenBabel10282417072D

 50 52  0  0  0  0  0  0  0  0999 V2000
    4.3618   -5.6354    0.0000 C   0  0  0  0  0  0  0  0  0  0  0  0
    4.3618   -4.8103    0.0000 C   0  0  0  0  0  0  0  0  0  0  0  0
    5.0780   -4.3978    0.0000 C   0  0  0  0  0  0  0  0  0  0  0  0
    5.7899   -4.8103    0.0000 C   0  0  0  0  0  0  0  0  0  0  0  0
    5.7899   -5.6354    0.0000 C   0  0  0  0  0  0  0  0  0  0  0  0
    5.0780   -6.0479    0.0000 C   0  0  0  0  0  0  0  0  0  0  0  0
    3.6476   -6.0482    0.0000 O   0  0  0  0  0  0  0  0  0  0  0  0
    6.5047   -4.3983    0.0000 C   0  0  0  0  0  0  0  0  0  0  0  0
    7.2190   -4.8114    0.0000 C   0  0  1  0  0  0  0  0  0  0  0  0
    7.9338   -4.3994    0.0000 C   0  0  0  0  0  0  0  0  0  0  0  0
    8.6479   -4.8124    0.0000 N   0  0  0  0  0  0  0  0  0  0  0  0
    7.9343   -3.5744    0.0000 O   0  0  0  0  0  0  0  0  0  0  0  0
    9.3627   -4.4005    0.0000 C   0  0  0  0  0  0  0  0  0  0  0  0
    9.3624   -3.5771    0.0000 C   0  0  0  0  0  0  0  0  0  0  0  0
   10.0771   -3.1651    0.0000 C   0  0  0  0  0  0  0  0  0  0  0  0
   10.7913   -3.5782    0.0000 C   0  0  0  0  0  0  0  0  0  0  0  0
   10.7907   -4.4032    0.0000 C   0  0  0  0  0  0  0  0  0  0  0  0
   10.0759   -4.8151    0.0000 C   0  0  0  0  0  0  0  0  0  0  0  0
   11.5061   -3.1662    0.0000 C   0  0  0  0  0  0  0  0  0  0  0  0
   11.5067   -2.3412    0.0000 O   0  0  0  0  0  0  0  0  0  0  0  0
   12.2202   -3.5792    0.0000 O   0  0  0  0  0  0  0  0  0  0  0  0
    7.2183   -5.6364    0.0000 N   0  0  0  0  0  0  0  0  0  0  0  0
    7.9325   -6.0494    0.0000 C   0  0  0  0  0  0  0  0  0  0  0  0
    7.9319   -6.8744    0.0000 C   0  0  0  0  0  0  0  0  0  0  0  0
    8.6472   -5.6374    0.0000 O   0  0  0  0  0  0  0  0  0  0  0  0
    8.6455   -7.2828    0.0000 C   0  0  0  0  0  0  0  0  0  0  0  0
    8.6449   -8.1078    0.0000 C   0  0  0  0  0  0  0  0  0  0  0  0
    7.9300   -8.5197    0.0000 C   0  0  0  0  0  0  0  0  0  0  0  0
    7.2160   -8.1068    0.0000 C   0  0  0  0  0  0  0  0  0  0  0  0
    7.2166   -7.2818    0.0000 C   0  0  0  0  0  0  0  0  0  0  0  0
    3.4683   -4.2938    0.0000 H   0  0  0  0  0  0  0  0  0  0  0  0
    5.0793   -3.3658    0.0000 H   0  0  0  0  0  0  0  0  0  0  0  0
    6.6840   -6.1507    0.0000 H   0  0  0  0  0  0  0  0  0  0  0  0
    5.0793   -7.0799    0.0000 H   0  0  0  0  0  0  0  0  0  0  0  0
    2.8359   -5.5801    0.0000 H   0  0  0  0  0  0  0  0  0  0  0  0
    6.5055   -3.3283    0.0000 H   0  0  0  0  0  0  0  0  0  0  0  0
    7.4317   -3.8640    0.0000 H   0  0  0  0  0  0  0  0  0  0  0  0
    6.2919   -5.3457    0.0000 H   0  0  0  0  0  0  0  0  0  0  0  0
    8.6471   -5.7969    0.0000 H   0  0  0  0  0  0  0  0  0  0  0  0
    8.4687   -3.0610    0.0000 H   0  0  0  0  0  0  0  0  0  0  0  0
   10.0779   -2.1331    0.0000 H   0  0  0  0  0  0  0  0  0  0  0  0
   11.6840   -4.9199    0.0000 H   0  0  0  0  0  0  0  0  0  0  0  0
   10.0739   -5.8471    0.0000 H   0  0  0  0  0  0  0  0  0  0  0  0
   12.2195   -4.5162    0.0000 H   0  0  0  0  0  0  0  0  0  0  0  0
    6.3653   -6.1280    0.0000 H   0  0  0  0  0  0  0  0  0  0  0  0
    9.5384   -6.7654    0.0000 H   0  0  0  0  0  0  0  0  0  0  0  0
    9.5382   -8.6245    0.0000 H   0  0  0  0  0  0  0  0  0  0  0  0
    7.9292   -9.5517    0.0000 H   0  0  0  0  0  0  0  0  0  0  0  0
    6.3219   -8.6222    0.0000 H   0  0  0  0  0  0  0  0  0  0  0  0
    6.3246   -6.7629    0.0000 H   0  0  0  0  0  0  0  0  0  0  0  0
  1  7  1  0  0  0  0
  1  2  2  0  0  0  0
  2  3  1  0  0  0  0
  2 31  1  0  0  0  0
  3  4  2  0  0  0  0
  3 32  1  0  0  0  0
  4  8  1  0  0  0  0
  4  5  1  0  0  0  0
  5  6  2  0  0  0  0
  5 33  1  0  0  0  0
  6  1  1  0  0  0  0
  6 34  1  0  0  0  0
  7 35  1  0  0  0  0
  8  9  1  0  0  0  0
  8 36  1  0  0  0  0
  8 37  1  0  0  0  0
  9 10  1  0  0  0  0
  9 22  1  0  0  0  0
  9 38  1  6  0  0  0
 10 11  1  0  0  0  0
 10 12  2  0  0  0  0
 11 13  1  0  0  0  0
 11 39  1  0  0  0  0
 13 14  2  0  0  0  0
 14 15  1  0  0  0  0
 14 40  1  0  0  0  0
 15 16  2  0  0  0  0
 15 41  1  0  0  0  0
 16 17  1  0  0  0  0
 16 19  1  0  0  0  0
 17 18  2  0  0  0  0
 17 42  1  0  0  0  0
 18 13  1  0  0  0  0
 18 43  1  0  0  0  0
 19 20  2  0  0  0  0
 19 21  1  0  0  0  0
 21 44  1  0  0  0  0
 22 23  1  0  0  0  0
 22 45  1  0  0  0  0
 23 24  1  0  0  0  0
 23 25  2  0  0  0  0
 24 26  2  0  0  0  0
 26 27  1  0  0  0  0
 26 46  1  0  0  0  0
 27 28  2  0  0  0  0
 27 47  1  0  0  0  0
 28 29  1  0  0  0  0
 28 48  1  0  0  0  0
 29 30  2  0  0  0  0
 29 49  1  0  0  0  0
 30 24  1  0  0  0  0
 30 50  1  0  0  0  0
M  END
>  <DRUGBANK_ID>
DB00522

>  <SECONDARY_ACCESSION_NUMBERS>
APRD00818

>  <COMMON_NAME>
Bentiromide

>  <CAS_NUMBER>
37106-97-1

>  <UNII>
239IF5W61J

>  <SYNONYMS>
Bentiromide; Bentiromido; Bentiromidum; BTPABA; PFT

$$$$
