
 OpenBabel10282417072D

 66 68  0  0  1  0  0  0  0  0999 V2000
    8.1333   -0.2842    0.0000 F   0  0  0  0  0  0  0  0  0  0  0  0
    7.8357    0.8440    0.0000 F   0  0  0  0  0  0  0  0  0  0  0  0
    7.0051   -0.5818    0.0000 F   0  0  0  0  0  0  0  0  0  0  0  0
    1.9520   -2.8471    0.0000 F   0  0  0  0  0  0  0  0  0  0  0  0
    2.7770   -4.2761    0.0000 F   0  0  0  0  0  0  0  0  0  0  0  0
    1.6500   -3.9741    0.0000 F   0  0  0  0  0  0  0  0  0  0  0  0
    5.6350   -2.8471    0.0000 F   0  0  0  0  0  0  0  0  0  0  0  0
    4.8099   -4.2761    0.0000 F   0  0  0  0  0  0  0  0  0  0  0  0
    5.9370   -3.9741    0.0000 F   0  0  0  0  0  0  0  0  0  0  0  0
    3.7935    3.0385    0.0000 O   0  0  0  0  0  0  0  0  0  0  0  0
    5.2224   -1.9116    0.0000 O   0  0  0  0  0  0  0  0  0  0  0  0
    5.2224    3.0385    0.0000 O   0  0  0  0  0  0  0  0  0  0  0  0
    5.9370   -0.6740    0.0000 O   0  0  0  0  0  0  0  0  0  0  0  0
    4.5080    1.8010    0.0000 N   0  0  0  0  0  0  0  0  0  0  0  0
    4.5080   -0.6740    0.0000 N   0  0  0  0  0  0  0  0  0  0  0  0
    3.7935    1.3885    0.0000 C   0  0  1  0  0  0  0  0  0  0  0  0
    4.5080    0.1510    0.0000 C   0  0  1  0  0  0  0  0  0  0  0  0
    3.7935    0.5635    0.0000 C   0  0  0  0  0  0  0  0  0  0  0  0
    5.2224    0.5635    0.0000 C   0  0  0  0  0  0  0  0  0  0  0  0
    5.2224    1.3885    0.0000 C   0  0  0  0  0  0  0  0  0  0  0  0
    3.0791    1.8010    0.0000 C   0  0  0  0  0  0  0  0  0  0  0  0
    5.9600    0.1224    0.0000 C   0  0  0  0  0  0  0  0  0  0  0  0
    3.7935   -1.0865    0.0000 C   0  0  0  0  0  0  0  0  0  0  0  0
    5.9600    1.8296    0.0000 C   0  0  0  0  0  0  0  0  0  0  0  0
    2.3645    1.3885    0.0000 C   0  0  0  0  0  0  0  0  0  0  0  0
    4.5080    2.6260    0.0000 C   0  0  0  0  0  0  0  0  0  0  0  0
    6.7075    0.5463    0.0000 C   0  0  0  0  0  0  0  0  0  0  0  0
    6.7075    1.4057    0.0000 C   0  0  0  0  0  0  0  0  0  0  0  0
    5.2224   -1.0865    0.0000 C   0  0  0  0  0  0  0  0  0  0  0  0
    3.7935   -1.9116    0.0000 C   0  0  0  0  0  0  0  0  0  0  0  0
    7.4204    0.1311    0.0000 C   0  0  0  0  0  0  0  0  0  0  0  0
    4.5080   -2.3241    0.0000 C   0  0  0  0  0  0  0  0  0  0  0  0
    3.0791   -2.3241    0.0000 C   0  0  0  0  0  0  0  0  0  0  0  0
    4.5080   -3.1491    0.0000 C   0  0  0  0  0  0  0  0  0  0  0  0
    3.0791   -3.1491    0.0000 C   0  0  0  0  0  0  0  0  0  0  0  0
    3.7935    3.8636    0.0000 C   0  0  0  0  0  0  0  0  0  0  0  0
    3.7935   -3.5616    0.0000 C   0  0  0  0  0  0  0  0  0  0  0  0
    5.9370   -2.3241    0.0000 C   0  0  0  0  0  0  0  0  0  0  0  0
    2.3645   -3.5616    0.0000 C   0  0  0  0  0  0  0  0  0  0  0  0
    5.2224   -3.5616    0.0000 C   0  0  0  0  0  0  0  0  0  0  0  0
    3.0791    4.2761    0.0000 C   0  0  0  0  0  0  0  0  0  0  0  0
    3.7935    2.4585    0.0000 H   0  0  0  0  0  0  0  0  0  0  0  0
    3.5814   -0.3840    0.0000 H   0  0  0  0  0  0  0  0  0  0  0  0
    2.8669    0.0285    0.0000 H   0  0  0  0  0  0  0  0  0  0  0  0
    3.7935   -0.5065    0.0000 H   0  0  0  0  0  0  0  0  0  0  0  0
    3.0792    2.8710    0.0000 H   0  0  0  0  0  0  0  0  0  0  0  0
    2.1525    2.3361    0.0000 H   0  0  0  0  0  0  0  0  0  0  0  0
    5.9481   -0.9095    0.0000 H   0  0  0  0  0  0  0  0  0  0  0  0
    2.8669   -0.5515    0.0000 H   0  0  0  0  0  0  0  0  0  0  0  0
    2.8669   -1.6215    0.0000 H   0  0  0  0  0  0  0  0  0  0  0  0
    5.9481    2.8615    0.0000 H   0  0  0  0  0  0  0  0  0  0  0  0
    1.4379    1.9236    0.0000 H   0  0  0  0  0  0  0  0  0  0  0  0
    2.3644    0.3185    0.0000 H   0  0  0  0  0  0  0  0  0  0  0  0
    1.4378    0.8536    0.0000 H   0  0  0  0  0  0  0  0  0  0  0  0
    7.5992    1.9252    0.0000 H   0  0  0  0  0  0  0  0  0  0  0  0
    5.4017   -1.8081    0.0000 H   0  0  0  0  0  0  0  0  0  0  0  0
    2.1854   -1.8081    0.0000 H   0  0  0  0  0  0  0  0  0  0  0  0
    4.7202    4.3986    0.0000 H   0  0  0  0  0  0  0  0  0  0  0  0
    3.7935    4.9336    0.0000 H   0  0  0  0  0  0  0  0  0  0  0  0
    3.7935   -4.5936    0.0000 H   0  0  0  0  0  0  0  0  0  0  0  0
    5.9371   -3.3941    0.0000 H   0  0  0  0  0  0  0  0  0  0  0  0
    6.8636   -1.7890    0.0000 H   0  0  0  0  0  0  0  0  0  0  0  0
    6.8637   -2.8590    0.0000 H   0  0  0  0  0  0  0  0  0  0  0  0
    3.0791    5.3461    0.0000 H   0  0  0  0  0  0  0  0  0  0  0  0
    2.1524    3.7411    0.0000 H   0  0  0  0  0  0  0  0  0  0  0  0
    2.1525    4.8111    0.0000 H   0  0  0  0  0  0  0  0  0  0  0  0
  1 31  1  0  0  0  0
  2 31  1  0  0  0  0
  3 31  1  0  0  0  0
  4 39  1  0  0  0  0
  5 39  1  0  0  0  0
  6 39  1  0  0  0  0
  7 40  1  0  0  0  0
  8 40  1  0  0  0  0
  9 40  1  0  0  0  0
 10 26  1  0  0  0  0
 10 36  1  0  0  0  0
 11 29  1  0  0  0  0
 11 38  1  0  0  0  0
 12 26  2  0  0  0  0
 13 29  2  0  0  0  0
 14 16  1  0  0  0  0
 14 20  1  0  0  0  0
 14 26  1  0  0  0  0
 15 23  1  0  0  0  0
 15 29  1  0  0  0  0
 16 18  1  0  0  0  0
 16 21  1  0  0  0  0
 16 42  1  6  0  0  0
 17 15  1  0  0  0  0
 17 18  1  0  0  0  0
 17 19  1  0  0  0  0
 17 43  1  6  0  0  0
 18 44  1  0  0  0  0
 18 45  1  0  0  0  0
 19 20  2  0  0  0  0
 19 22  1  0  0  0  0
 20 24  1  0  0  0  0
 21 25  1  0  0  0  0
 21 46  1  0  0  0  0
 21 47  1  0  0  0  0
 22 27  2  0  0  0  0
 22 48  1  0  0  0  0
 23 30  1  0  0  0  0
 23 49  1  0  0  0  0
 23 50  1  0  0  0  0
 24 28  2  0  0  0  0
 24 51  1  0  0  0  0
 25 52  1  0  0  0  0
 25 53  1  0  0  0  0
 25 54  1  0  0  0  0
 27 28  1  0  0  0  0
 27 31  1  0  0  0  0
 28 55  1  0  0  0  0
 30 32  2  0  0  0  0
 30 33  1  0  0  0  0
 32 34  1  0  0  0  0
 32 56  1  0  0  0  0
 33 35  2  0  0  0  0
 33 57  1  0  0  0  0
 34 37  2  0  0  0  0
 34 40  1  0  0  0  0
 35 37  1  0  0  0  0
 35 39  1  0  0  0  0
 36 41  1  0  0  0  0
 36 58  1  0  0  0  0
 36 59  1  0  0  0  0
 37 60  1  0  0  0  0
 38 61  1  0  0  0  0
 38 62  1  0  0  0  0
 38 63  1  0  0  0  0
 41 64  1  0  0  0  0
 41 65  1  0  0  0  0
 41 66  1  0  0  0  0
M  END
>  <DRUGBANK_ID>
DB06281

>  <COMMON_NAME>
Torcetrapib

>  <CAS_NUMBER>
262352-17-0

>  <UNII>
4N4457MV2U

>  <SYNONYMS>
Torcetrapib

$$$$
