
 OpenBabel10282417072D

 52 54  0  0  0  0  0  0  0  0999 V2000
   -0.0000    8.0036    0.0000 C   0  0  0  0  0  0  0  0  0  0  0  0
   -0.7145    8.4161    0.0000 O   0  0  0  0  0  0  0  0  0  0  0  0
   -1.4289    8.0036    0.0000 N   0  0  0  0  0  0  0  0  0  0  0  0
   -2.1434    8.4161    0.0000 C   0  0  0  0  0  0  0  0  0  0  0  0
   -2.1434    9.2411    0.0000 O   0  0  0  0  0  0  0  0  0  0  0  0
   -2.8579    8.0036    0.0000 C   0  0  0  0  0  0  0  0  0  0  0  0
   -3.5724    8.4161    0.0000 C   0  0  0  0  0  0  0  0  0  0  0  0
   -4.2868    8.0036    0.0000 C   0  0  0  0  0  0  0  0  0  0  0  0
   -4.2868    7.1786    0.0000 C   0  0  0  0  0  0  0  0  0  0  0  0
   -3.5724    6.7661    0.0000 C   0  0  0  0  0  0  0  0  0  0  0  0
   -2.8579    7.1786    0.0000 C   0  0  0  0  0  0  0  0  0  0  0  0
   -2.1434    6.7661    0.0000 N   0  0  0  0  0  0  0  0  0  0  0  0
   -2.1434    5.9411    0.0000 C   0  0  0  0  0  0  0  0  0  0  0  0
   -1.4289    5.5286    0.0000 C   0  0  0  0  0  0  0  0  0  0  0  0
   -1.4289    4.7036    0.0000 C   0  0  0  0  0  0  0  0  0  0  0  0
   -0.7145    4.2911    0.0000 N   0  0  0  0  0  0  0  0  0  0  0  0
   -0.7145    3.4661    0.0000 C   0  0  0  0  0  0  0  0  0  0  0  0
   -1.3819    2.9812    0.0000 C   0  0  0  0  0  0  0  0  0  0  0  0
   -1.1270    2.1965    0.0000 C   0  0  0  0  0  0  0  0  0  0  0  0
   -1.6119    1.5291    0.0000 C   0  0  0  0  0  0  0  0  0  0  0  0
   -0.3020    2.1965    0.0000 N   0  0  0  0  0  0  0  0  0  0  0  0
   -0.0470    2.9812    0.0000 N   0  0  0  0  0  0  0  0  0  0  0  0
    0.7376    3.2361    0.0000 C   0  0  0  0  0  0  0  0  0  0  0  0
    1.3507    2.6841    0.0000 C   0  0  0  0  0  0  0  0  0  0  0  0
    0.9091    4.0431    0.0000 C   0  0  0  0  0  0  0  0  0  0  0  0
   -2.1434    4.2911    0.0000 N   0  0  0  0  0  0  0  0  0  0  0  0
   -2.8579    4.7036    0.0000 C   0  0  0  0  0  0  0  0  0  0  0  0
   -2.8579    5.5286    0.0000 C   0  0  0  0  0  0  0  0  0  0  0  0
   -3.5724    5.9411    0.0000 Cl  0  0  0  0  0  0  0  0  0  0  0  0
    0.0000    6.9336    0.0000 H   0  0  0  0  0  0  0  0  0  0  0  0
    0.9266    8.5386    0.0000 H   0  0  0  0  0  0  0  0  0  0  0  0
    0.9267    7.4686    0.0000 H   0  0  0  0  0  0  0  0  0  0  0  0
   -1.4289    7.0191    0.0000 H   0  0  0  0  0  0  0  0  0  0  0  0
   -3.5724    9.4481    0.0000 H   0  0  0  0  0  0  0  0  0  0  0  0
   -5.1805    8.5196    0.0000 H   0  0  0  0  0  0  0  0  0  0  0  0
   -5.1805    6.6626    0.0000 H   0  0  0  0  0  0  0  0  0  0  0  0
   -3.5724    5.7341    0.0000 H   0  0  0  0  0  0  0  0  0  0  0  0
   -1.2908    7.2584    0.0000 H   0  0  0  0  0  0  0  0  0  0  0  0
   -0.5352    6.0446    0.0000 H   0  0  0  0  0  0  0  0  0  0  0  0
    0.1381    4.7833    0.0000 H   0  0  0  0  0  0  0  0  0  0  0  0
   -2.3634    3.3001    0.0000 H   0  0  0  0  0  0  0  0  0  0  0  0
   -2.6760    1.6410    0.0000 H   0  0  0  0  0  0  0  0  0  0  0  0
   -1.1767    0.5516    0.0000 H   0  0  0  0  0  0  0  0  0  0  0  0
   -2.2408    0.6635    0.0000 H   0  0  0  0  0  0  0  0  0  0  0  0
    1.7552    3.5668    0.0000 H   0  0  0  0  0  0  0  0  0  0  0  0
    1.1283    1.6375    0.0000 H   0  0  0  0  0  0  0  0  0  0  0  0
    2.3683    3.0148    0.0000 H   0  0  0  0  0  0  0  0  0  0  0  0
    2.1459    1.9682    0.0000 H   0  0  0  0  0  0  0  0  0  0  0  0
    1.9267    4.3738    0.0000 H   0  0  0  0  0  0  0  0  0  0  0  0
    0.1139    4.7590    0.0000 H   0  0  0  0  0  0  0  0  0  0  0  0
    1.1315    5.0897    0.0000 H   0  0  0  0  0  0  0  0  0  0  0  0
   -3.7516    4.1876    0.0000 H   0  0  0  0  0  0  0  0  0  0  0  0
  1  2  1  0  0  0  0
  1 30  1  0  0  0  0
  1 31  1  0  0  0  0
  1 32  1  0  0  0  0
  2  3  1  0  0  0  0
  3  4  1  0  0  0  0
  3 33  1  0  0  0  0
  4  5  2  0  0  0  0
  4  6  1  0  0  0  0
  6  7  2  0  0  0  0
  6 11  1  0  0  0  0
  7  8  1  0  0  0  0
  7 34  1  0  0  0  0
  8  9  2  0  0  0  0
  8 35  1  0  0  0  0
  9 10  1  0  0  0  0
  9 36  1  0  0  0  0
 10 11  2  0  0  0  0
 10 37  1  0  0  0  0
 11 12  1  0  0  0  0
 12 13  1  0  0  0  0
 12 38  1  0  0  0  0
 13 14  2  0  0  0  0
 13 28  1  0  0  0  0
 14 15  1  0  0  0  0
 14 39  1  0  0  0  0
 15 16  1  0  0  0  0
 15 26  2  0  0  0  0
 16 17  1  0  0  0  0
 16 40  1  0  0  0  0
 17 18  2  0  0  0  0
 17 22  1  0  0  0  0
 18 19  1  0  0  0  0
 18 41  1  0  0  0  0
 19 20  1  0  0  0  0
 19 21  2  0  0  0  0
 20 42  1  0  0  0  0
 20 43  1  0  0  0  0
 20 44  1  0  0  0  0
 21 22  1  0  0  0  0
 22 23  1  0  0  0  0
 23 24  1  0  0  0  0
 23 25  1  0  0  0  0
 23 45  1  0  0  0  0
 24 46  1  0  0  0  0
 24 47  1  0  0  0  0
 24 48  1  0  0  0  0
 25 49  1  0  0  0  0
 25 50  1  0  0  0  0
 25 51  1  0  0  0  0
 26 27  1  0  0  0  0
 27 28  2  0  0  0  0
 27 52  1  0  0  0  0
 28 29  1  0  0  0  0
M  END
>  <DRUGBANK_ID>
DB16106

>  <COMMON_NAME>
GSK2256098

>  <CAS_NUMBER>
1224887-10-8

>  <UNII>
R7O0O4110G

$$$$
