
 OpenBabel10282417072D

 61 63  0  0  0  0  0  0  0  0999 V2000
   -2.3571    1.4438    0.0000 C   0  0  0  0  0  0  0  0  0  0  0  0
   -3.0716    1.0313    0.0000 C   0  0  0  0  0  0  0  0  0  0  0  0
   -3.0716    0.2062    0.0000 C   0  0  0  0  0  0  0  0  0  0  0  0
   -2.3571   -0.2063    0.0000 C   0  0  0  0  0  0  0  0  0  0  0  0
   -1.6427    0.2062    0.0000 C   0  0  1  0  0  0  0  0  0  0  0  0
   -1.6427    1.0313    0.0000 C   0  0  1  0  0  0  0  0  0  0  0  0
   -0.8581    1.2862    0.0000 C   0  0  2  0  0  0  0  0  0  0  0  0
   -0.8581   -0.0486    0.0000 C   0  0  0  0  0  0  0  0  0  0  0  0
   -0.3732    0.6188    0.0000 C   0  0  0  0  0  0  0  0  0  0  0  0
   -2.3571   -1.0313    0.0000 C   0  0  0  0  0  0  0  0  0  0  0  0
   -3.0570   -1.6795    0.0000 C   0  0  0  0  0  0  0  0  0  0  0  0
   -3.0570   -2.5045    0.0000 C   0  0  0  0  0  0  0  0  0  0  0  0
   -3.7714   -2.9170    0.0000 C   0  0  0  0  0  0  0  0  0  0  0  0
   -3.7714   -3.7420    0.0000 C   0  0  2  0  0  0  0  0  0  0  0  0
   -3.0570   -4.1545    0.0000 C   0  0  0  0  0  0  0  0  0  0  0  0
   -2.3425   -3.7420    0.0000 C   0  0  1  0  0  0  0  0  0  0  0  0
   -2.3425   -2.9170    0.0000 C   0  0  0  0  0  0  0  0  0  0  0  0
   -3.0570   -4.9795    0.0000 C   0  0  0  0  0  0  0  0  0  0  0  0
   -1.5175   -3.7420    0.0000 O   0  0  0  0  0  0  0  0  0  0  0  0
   -4.3548   -4.3254    0.0000 H   0  0  0  0  0  0  0  0  0  0  0  0
   -1.9300   -4.4565    0.0000 H   0  0  0  0  0  0  0  0  0  0  0  0
   -4.5964   -3.7420    0.0000 O   0  0  0  0  0  0  0  0  0  0  0  0
   -1.6427   -0.6188    0.0000 H   0  0  0  0  0  0  0  0  0  0  0  0
   -0.0331    1.2862    0.0000 H   0  0  0  0  0  0  0  0  0  0  0  0
   -0.6445    2.0831    0.0000 C   0  0  2  0  0  0  0  0  0  0  0  0
    0.1524    2.2966    0.0000 C   0  0  0  0  0  0  0  0  0  0  0  0
    0.7357    1.7133    0.0000 C   0  0  0  0  0  0  0  0  0  0  0  0
   -1.2279    2.6665    0.0000 C   0  0  0  0  0  0  0  0  0  0  0  0
   -1.6427    1.8563    0.0000 C   0  0  0  0  0  0  0  0  0  0  0  0
   -0.4310    2.8800    0.0000 H   0  0  0  0  0  0  0  0  0  0  0  0
   -2.3571    2.5138    0.0000 H   0  0  0  0  0  0  0  0  0  0  0  0
   -1.4304    1.9788    0.0000 H   0  0  0  0  0  0  0  0  0  0  0  0
   -3.9982    1.5663    0.0000 H   0  0  0  0  0  0  0  0  0  0  0  0
   -3.9982    0.4963    0.0000 H   0  0  0  0  0  0  0  0  0  0  0  0
   -3.9982   -0.3288    0.0000 H   0  0  0  0  0  0  0  0  0  0  0  0
   -3.0716   -0.8638    0.0000 H   0  0  0  0  0  0  0  0  0  0  0  0
   -0.5274   -1.0662    0.0000 H   0  0  0  0  0  0  0  0  0  0  0  0
    0.1987   -0.2159    0.0000 H   0  0  0  0  0  0  0  0  0  0  0  0
    0.6968    0.6188    0.0000 H   0  0  0  0  0  0  0  0  0  0  0  0
    0.1126   -0.3346    0.0000 H   0  0  0  0  0  0  0  0  0  0  0  0
   -1.4114   -1.4444    0.0000 H   0  0  0  0  0  0  0  0  0  0  0  0
   -4.0027   -1.2664    0.0000 H   0  0  0  0  0  0  0  0  0  0  0  0
   -4.6981   -2.3820    0.0000 H   0  0  0  0  0  0  0  0  0  0  0  0
   -4.6980   -3.4520    0.0000 H   0  0  0  0  0  0  0  0  0  0  0  0
   -1.4159   -2.3820    0.0000 H   0  0  0  0  0  0  0  0  0  0  0  0
   -1.4159   -3.4520    0.0000 H   0  0  0  0  0  0  0  0  0  0  0  0
   -3.9507   -5.4955    0.0000 H   0  0  0  0  0  0  0  0  0  0  0  0
   -2.1633   -5.4955    0.0000 H   0  0  0  0  0  0  0  0  0  0  0  0
   -1.0325   -4.5820    0.0000 H   0  0  0  0  0  0  0  0  0  0  0  0
   -5.0814   -2.9020    0.0000 H   0  0  0  0  0  0  0  0  0  0  0  0
    0.4294    3.3301    0.0000 H   0  0  0  0  0  0  0  0  0  0  0  0
    1.1859    2.5735    0.0000 H   0  0  0  0  0  0  0  0  0  0  0  0
    0.4588    0.6798    0.0000 H   0  0  0  0  0  0  0  0  0  0  0  0
    1.7692    1.9902    0.0000 H   0  0  0  0  0  0  0  0  0  0  0  0
    1.4923    0.9567    0.0000 H   0  0  0  0  0  0  0  0  0  0  0  0
   -0.9510    3.7000    0.0000 H   0  0  0  0  0  0  0  0  0  0  0  0
   -2.2614    2.3896    0.0000 H   0  0  0  0  0  0  0  0  0  0  0  0
   -1.9845    3.4231    0.0000 H   0  0  0  0  0  0  0  0  0  0  0  0
   -0.7161    2.3913    0.0000 H   0  0  0  0  0  0  0  0  0  0  0  0
   -2.5693    2.3913    0.0000 H   0  0  0  0  0  0  0  0  0  0  0  0
   -1.6427    2.9263    0.0000 H   0  0  0  0  0  0  0  0  0  0  0  0
  1  2  1  0  0  0  0
  1  6  1  0  0  0  0
  1 31  1  0  0  0  0
  1 32  1  0  0  0  0
  2  3  1  0  0  0  0
  2 33  1  0  0  0  0
  2 34  1  0  0  0  0
  3  4  1  0  0  0  0
  3 35  1  0  0  0  0
  3 36  1  0  0  0  0
  4  5  1  0  0  0  0
  4 10  2  0  0  0  0
  5  8  1  0  0  0  0
  5 23  1  6  0  0  0
  6  5  1  0  0  0  0
  6 29  1  1  0  0  0
  7  6  1  0  0  0  0
  7  9  1  0  0  0  0
  7 24  1  6  0  0  0
  7 25  1  0  0  0  0
  8  9  1  0  0  0  0
  8 37  1  0  0  0  0
  8 38  1  0  0  0  0
  9 39  1  0  0  0  0
  9 40  1  0  0  0  0
 10 11  1  0  0  0  0
 10 41  1  0  0  0  0
 11 12  2  0  0  0  0
 11 42  1  0  0  0  0
 12 13  1  0  0  0  0
 12 17  1  0  0  0  0
 13 14  1  0  0  0  0
 13 43  1  0  0  0  0
 13 44  1  0  0  0  0
 14 15  1  0  0  0  0
 14 20  1  1  0  0  0
 14 22  1  0  0  0  0
 15 16  1  0  0  0  0
 15 18  2  0  0  0  0
 16 17  1  0  0  0  0
 16 19  1  0  0  0  0
 16 21  1  6  0  0  0
 17 45  1  0  0  0  0
 17 46  1  0  0  0  0
 18 47  1  0  0  0  0
 18 48  1  0  0  0  0
 19 49  1  0  0  0  0
 22 50  1  0  0  0  0
 25 26  1  0  0  0  0
 25 28  1  0  0  0  0
 25 30  1  6  0  0  0
 26 27  1  0  0  0  0
 26 51  1  0  0  0  0
 26 52  1  0  0  0  0
 27 53  1  0  0  0  0
 27 54  1  0  0  0  0
 27 55  1  0  0  0  0
 28 56  1  0  0  0  0
 28 57  1  0  0  0  0
 28 58  1  0  0  0  0
 29 59  1  0  0  0  0
 29 60  1  0  0  0  0
 29 61  1  0  0  0  0
M  END
>  <DRUGBANK_ID>
DB04891

>  <COMMON_NAME>
Becocalcidiol

>  <CAS_NUMBER>
524067-21-8

>  <UNII>
N75R59YD0F

>  <SYNONYMS>
Becocalcidiol

$$$$
