
 OpenBabel10282417072D

222234  0  0  0  0  0  0  0  0999 V2000
   -0.2999    0.8309    0.0000 C   0  0  0  0  0  0  0  0  0  0  0  0
    0.4145    0.4184    0.0000 C   0  0  0  0  0  0  0  0  0  0  0  0
   -1.0144    0.4184    0.0000 C   0  0  0  0  0  0  0  0  0  0  0  0
   -0.2999   -0.8190    0.0000 C   0  0  0  0  0  0  0  0  0  0  0  0
   -1.0144   -0.4065    0.0000 C   0  0  0  0  0  0  0  0  0  0  0  0
    0.4145   -0.4065    0.0000 C   0  0  0  0  0  0  0  0  0  0  0  0
    1.1290    0.8309    0.0000 O   0  0  0  0  0  0  0  0  0  0  0  0
   -1.7288    0.8309    0.0000 O   0  0  0  0  0  0  0  0  0  0  0  0
   -4.5866   -0.8189    0.0000 C   0  0  2  0  0  0  0  0  0  0  0  0
    3.9867   -0.8190    0.0000 C   0  0  1  0  0  0  0  0  0  0  0  0
   -3.8722   -0.4064    0.0000 C   0  0  0  0  0  0  0  0  0  0  0  0
    3.2723   -0.4065    0.0000 C   0  0  0  0  0  0  0  0  0  0  0  0
   -2.4432    0.4185    0.0000 C   0  0  0  0  0  0  0  0  0  0  0  0
    1.8433    0.4184    0.0000 C   0  0  0  0  0  0  0  0  0  0  0  0
   -2.4433   -0.4064    0.0000 C   0  0  0  0  0  0  0  0  0  0  0  0
    2.5578    0.8308    0.0000 C   0  0  0  0  0  0  0  0  0  0  0  0
    3.2723    0.4183    0.0000 C   0  0  0  0  0  0  0  0  0  0  0  0
    2.5578   -0.8190    0.0000 C   0  0  0  0  0  0  0  0  0  0  0  0
   -3.8722    0.4185    0.0000 C   0  0  0  0  0  0  0  0  0  0  0  0
   -3.1577    0.8310    0.0000 C   0  0  0  0  0  0  0  0  0  0  0  0
    1.8433   -0.4065    0.0000 C   0  0  0  0  0  0  0  0  0  0  0  0
    2.5578    1.6558    0.0000 Cl  0  0  0  0  0  0  0  0  0  0  0  0
   -1.7288   -0.8189    0.0000 Cl  0  0  0  0  0  0  0  0  0  0  0  0
    4.7011   -0.4066    0.0000 O   0  0  0  0  0  0  0  0  0  0  0  0
   -1.0142    2.8933    0.0000 C   0  0  1  0  0  0  0  0  0  0  0  0
   -1.0143    2.0684    0.0000 C   0  0  1  0  0  0  0  0  0  0  0  0
   -1.7287    3.3058    0.0000 C   0  0  2  0  0  0  0  0  0  0  0  0
   -1.7287    1.6559    0.0000 O   0  0  0  0  0  0  0  0  0  0  0  0
    0.4146    5.3682    0.0000 C   0  0  2  0  0  0  0  0  0  0  0  0
   -2.4432    2.8934    0.0000 C   0  0  1  0  0  0  0  0  0  0  0  0
   -0.2998    4.1308    0.0000 C   0  0  1  0  0  0  0  0  0  0  0  0
   -2.4432    2.0684    0.0000 C   0  0  1  0  0  0  0  0  0  0  0  0
    0.4145    4.5433    0.0000 C   0  0  0  0  0  0  0  0  0  0  0  0
   -1.0142    4.5433    0.0000 O   0  0  0  0  0  0  0  0  0  0  0  0
   -0.2998    5.7807    0.0000 C   0  0  2  0  0  0  0  0  0  0  0  0
   -0.2999    3.3058    0.0000 O   0  0  0  0  0  0  0  0  0  0  0  0
   -1.0142    5.3683    0.0000 C   0  0  2  0  0  0  0  0  0  0  0  0
   -1.7287    4.1308    0.0000 O   0  0  0  0  0  0  0  0  0  0  0  0
   -3.1577    3.3059    0.0000 O   0  0  0  0  0  0  0  0  0  0  0  0
   -0.2998    6.6057    0.0000 O   0  0  0  0  0  0  0  0  0  0  0  0
    0.8271    6.0827    0.0000 C   0  0  0  0  0  0  0  0  0  0  0  0
   -1.7287    5.7808    0.0000 C   0  0  0  0  0  0  0  0  0  0  0  0
   -0.2999    1.6559    0.0000 O   0  0  0  0  0  0  0  0  0  0  0  0
   -3.1577    1.6559    0.0000 C   0  0  0  0  0  0  0  0  0  0  0  0
   -3.8722    2.0684    0.0000 O   0  0  0  0  0  0  0  0  0  0  0  0
   -3.1577   -0.8189    0.0000 C   0  0  0  0  0  0  0  0  0  0  0  0
    3.9867   -2.4690    0.0000 C   0  0  2  0  0  0  0  0  0  0  0  0
    0.4144   -2.8814    0.0000 N   0  0  0  0  0  0  0  0  0  0  0  0
    3.2722   -2.8814    0.0000 C   0  0  0  0  0  0  0  0  0  0  0  0
   -1.0143   -2.8814    0.0000 C   0  0  0  0  0  0  0  0  0  0  0  0
    2.5578   -2.4689    0.0000 N   0  0  0  0  0  0  0  0  0  0  0  0
   -0.3000   -2.4689    0.0000 C   0  0  1  0  0  0  0  0  0  0  0  0
    1.1289   -2.4689    0.0000 C   0  0  0  0  0  0  0  0  0  0  0  0
    1.8433   -2.8814    0.0000 C   0  0  2  0  0  0  0  0  0  0  0  0
    3.2722   -3.7064    0.0000 O   0  0  0  0  0  0  0  0  0  0  0  0
   -1.0144   -3.7063    0.0000 O   0  0  0  0  0  0  0  0  0  0  0  0
    1.1289   -1.6439    0.0000 O   0  0  0  0  0  0  0  0  0  0  0  0
    1.8433   -3.7064    0.0000 C   0  0  0  0  0  0  0  0  0  0  0  0
    1.1289   -4.1189    0.0000 C   0  0  0  0  0  0  0  0  0  0  0  0
    0.4144   -3.7064    0.0000 N   0  0  0  0  0  0  0  0  0  0  0  0
    1.1289   -4.9438    0.0000 O   0  0  0  0  0  0  0  0  0  0  0  0
    4.7011   -2.8815    0.0000 N   0  0  0  0  0  0  0  0  0  0  0  0
    5.4157   -2.4690    0.0000 C   0  0  0  0  0  0  0  0  0  0  0  0
    6.1301   -2.8815    0.0000 C   0  0  1  0  0  0  0  0  0  0  0  0
    5.4157   -1.6440    0.0000 O   0  0  0  0  0  0  0  0  0  0  0  0
    6.8445   -2.4690    0.0000 C   0  0  0  0  0  0  0  0  0  0  0  0
    6.1301   -3.7065    0.0000 N   0  0  0  0  0  0  0  0  0  0  0  0
    7.5590   -2.8815    0.0000 C   0  0  0  0  0  0  0  0  0  0  0  0
    6.8445   -4.1190    0.0000 C   0  0  0  0  0  0  0  0  0  0  0  0
    7.5590   -3.7065    0.0000 C   0  0  0  0  0  0  0  0  0  0  0  0
    8.2735   -2.4691    0.0000 C   0  0  0  0  0  0  0  0  0  0  0  0
   -4.5866   -2.4688    0.0000 C   0  0  2  0  0  0  0  0  0  0  0  0
   -1.7288   -2.4689    0.0000 N   0  0  0  0  0  0  0  0  0  0  0  0
   -2.4433   -2.8813    0.0000 C   0  0  1  0  0  0  0  0  0  0  0  0
   -6.0156   -2.4688    0.0000 O   0  0  0  0  0  0  0  0  0  0  0  0
   -3.8722   -2.8813    0.0000 N   0  0  0  0  0  0  0  0  0  0  0  0
   -3.1578   -2.4688    0.0000 C   0  0  0  0  0  0  0  0  0  0  0  0
   -3.1578   -1.6439    0.0000 O   0  0  0  0  0  0  0  0  0  0  0  0
   -6.7301   -3.7063    0.0000 C   0  0  0  0  0  0  0  0  0  0  0  0
   -6.7301   -2.8813    0.0000 O   0  0  0  0  0  0  0  0  0  0  0  0
   -7.4446   -4.1189    0.0000 O   0  0  0  0  0  0  0  0  0  0  0  0
   -6.0156   -4.1188    0.0000 C   0  0  1  0  0  0  0  0  0  0  0  0
   -5.3012   -3.7063    0.0000 N   0  0  0  0  0  0  0  0  0  0  0  0
   -5.3012   -2.8813    0.0000 C   0  0  0  0  0  0  0  0  0  0  0  0
   -3.1691   -5.3681    0.0000 C   0  0  0  0  0  0  0  0  0  0  0  0
   -2.4547   -5.7806    0.0000 C   0  0  0  0  0  0  0  0  0  0  0  0
   -2.4547   -4.1307    0.0000 C   0  0  0  0  0  0  0  0  0  0  0  0
   -3.1691   -4.5432    0.0000 C   0  0  0  0  0  0  0  0  0  0  0  0
   -1.7402   -5.3682    0.0000 C   0  0  0  0  0  0  0  0  0  0  0  0
   -1.7402   -4.5432    0.0000 C   0  0  0  0  0  0  0  0  0  0  0  0
   -2.4547   -6.6057    0.0000 O   0  0  0  0  0  0  0  0  0  0  0  0
   -6.0156   -4.9438    0.0000 C   0  0  0  0  0  0  0  0  0  0  0  0
   -6.7301   -5.3563    0.0000 C   0  0  0  0  0  0  0  0  0  0  0  0
   -6.0156   -6.5938    0.0000 C   0  0  0  0  0  0  0  0  0  0  0  0
   -5.3012   -5.3563    0.0000 C   0  0  0  0  0  0  0  0  0  0  0  0
   -6.7301   -6.1813    0.0000 C   0  0  0  0  0  0  0  0  0  0  0  0
   -7.4446   -6.5938    0.0000 O   0  0  0  0  0  0  0  0  0  0  0  0
   -5.3012   -6.1813    0.0000 C   0  0  0  0  0  0  0  0  0  0  0  0
   -4.5866   -6.5938    0.0000 O   0  0  0  0  0  0  0  0  0  0  0  0
    1.1131    4.9301    0.0000 N   0  0  0  0  0  0  0  0  0  0  0  0
    1.8422    5.3162    0.0000 C   0  0  0  0  0  0  0  0  0  0  0  0
    2.5411    4.8778    0.0000 C   0  0  0  0  0  0  0  0  0  0  0  0
    3.2701    5.2639    0.0000 C   0  0  0  0  0  0  0  0  0  0  0  0
    2.5109    4.0533    0.0000 C   0  0  0  0  0  0  0  0  0  0  0  0
    3.9691    4.8254    0.0000 C   0  0  0  0  0  0  0  0  0  0  0  0
    3.2098    3.6149    0.0000 C   0  0  0  0  0  0  0  0  0  0  0  0
    3.9387    4.0010    0.0000 C   0  0  0  0  0  0  0  0  0  0  0  0
    4.6377    3.5626    0.0000 C   0  0  0  0  0  0  0  0  0  0  0  0
    5.3667    3.9487    0.0000 C   0  0  0  0  0  0  0  0  0  0  0  0
    4.6075    2.7381    0.0000 C   0  0  0  0  0  0  0  0  0  0  0  0
    6.0657    3.5102    0.0000 C   0  0  0  0  0  0  0  0  0  0  0  0
    5.3064    2.2997    0.0000 C   0  0  0  0  0  0  0  0  0  0  0  0
    6.0355    2.6858    0.0000 C   0  0  0  0  0  0  0  0  0  0  0  0
    6.7344    2.2474    0.0000 Cl  0  0  0  0  0  0  0  0  0  0  0  0
   -5.3012   -0.4064    0.0000 O   0  0  0  0  0  0  0  0  0  0  0  0
   -6.0217    0.0095    0.0000 C   0  0  2  0  0  0  0  0  0  0  0  0
   -6.0217    0.8414    0.0000 O   0  0  0  0  0  0  0  0  0  0  0  0
   -6.7421    1.2574    0.0000 C   0  0  2  0  0  0  0  0  0  0  0  0
   -7.4626    0.8414    0.0000 C   0  0  1  0  0  0  0  0  0  0  0  0
   -7.4627    0.0094    0.0000 C   0  0  1  0  0  0  0  0  0  0  0  0
   -6.7421   -0.4064    0.0000 C   0  0  0  0  0  0  0  0  0  0  0  0
   -6.7422    2.0893    0.0000 C   0  0  0  0  0  0  0  0  0  0  0  0
   -8.1831    1.2574    0.0000 O   0  0  0  0  0  0  0  0  0  0  0  0
   -7.4788   -0.8288    0.0000 C   0  0  0  0  0  0  0  0  0  0  0  0
   -8.2735   -0.1989    0.0000 N   0  0  0  0  0  0  0  0  0  0  0  0
   -1.9081   -0.9225    0.0000 H   0  0  0  0  0  0  0  0  0  0  0  0
    1.3082   -0.9225    0.0000 H   0  0  0  0  0  0  0  0  0  0  0  0
   -4.5867    0.2511    0.0000 H   0  0  0  0  0  0  0  0  0  0  0  0
    3.9868    0.2510    0.0000 H   0  0  0  0  0  0  0  0  0  0  0  0
    4.1660    0.9343    0.0000 H   0  0  0  0  0  0  0  0  0  0  0  0
    2.5578   -1.8510    0.0000 H   0  0  0  0  0  0  0  0  0  0  0  0
   -4.7659    0.9345    0.0000 H   0  0  0  0  0  0  0  0  0  0  0  0
   -3.1577    1.8630    0.0000 H   0  0  0  0  0  0  0  0  0  0  0  0
    0.9496   -0.9225    0.0000 H   0  0  0  0  0  0  0  0  0  0  0  0
    5.5411   -0.8917    0.0000 H   0  0  0  0  0  0  0  0  0  0  0  0
   -0.0876    2.3583    0.0000 H   0  0  0  0  0  0  0  0  0  0  0  0
   -0.0876    2.6033    0.0000 H   0  0  0  0  0  0  0  0  0  0  0  0
   -0.8021    3.8408    0.0000 H   0  0  0  0  0  0  0  0  0  0  0  0
   -2.4431    3.9634    0.0000 H   0  0  0  0  0  0  0  0  0  0  0  0
    0.6268    3.5958    0.0000 H   0  0  0  0  0  0  0  0  0  0  0  0
   -2.4432    0.9984    0.0000 H   0  0  0  0  0  0  0  0  0  0  0  0
    1.3411    4.0083    0.0000 H   0  0  0  0  0  0  0  0  0  0  0  0
    0.4146    3.4733    0.0000 H   0  0  0  0  0  0  0  0  0  0  0  0
    0.6269    6.3157    0.0000 H   0  0  0  0  0  0  0  0  0  0  0  0
   -1.9408    4.8333    0.0000 H   0  0  0  0  0  0  0  0  0  0  0  0
   -0.8887    4.6158    0.0000 H   0  0  0  0  0  0  0  0  0  0  0  0
   -3.1577    4.2759    0.0000 H   0  0  0  0  0  0  0  0  0  0  0  0
    0.5402    7.0907    0.0000 H   0  0  0  0  0  0  0  0  0  0  0  0
    1.8971    6.0827    0.0000 H   0  0  0  0  0  0  0  0  0  0  0  0
    0.2921    7.0093    0.0000 H   0  0  0  0  0  0  0  0  0  0  0  0
    1.3621    7.0094    0.0000 H   0  0  0  0  0  0  0  0  0  0  0  0
   -1.7287    6.8508    0.0000 H   0  0  0  0  0  0  0  0  0  0  0  0
   -2.6553    5.2458    0.0000 H   0  0  0  0  0  0  0  0  0  0  0  0
   -2.6554    6.3158    0.0000 H   0  0  0  0  0  0  0  0  0  0  0  0
   -3.1577    0.5859    0.0000 H   0  0  0  0  0  0  0  0  0  0  0  0
   -4.0843    1.1209    0.0000 H   0  0  0  0  0  0  0  0  0  0  0  0
   -3.8722    3.0384    0.0000 H   0  0  0  0  0  0  0  0  0  0  0  0
   -3.1577   -1.8509    0.0000 H   0  0  0  0  0  0  0  0  0  0  0  0
    4.9134   -1.9340    0.0000 H   0  0  0  0  0  0  0  0  0  0  0  0
    0.4144   -3.8659    0.0000 H   0  0  0  0  0  0  0  0  0  0  0  0
    2.5578   -1.4844    0.0000 H   0  0  0  0  0  0  0  0  0  0  0  0
    0.6267   -1.9339    0.0000 H   0  0  0  0  0  0  0  0  0  0  0  0
    2.7699   -3.4164    0.0000 H   0  0  0  0  0  0  0  0  0  0  0  0
    2.7700   -4.2414    0.0000 H   0  0  0  0  0  0  0  0  0  0  0  0
    1.8433   -4.7764    0.0000 H   0  0  0  0  0  0  0  0  0  0  0  0
    0.4144   -2.7219    0.0000 H   0  0  0  0  0  0  0  0  0  0  0  0
   -0.4382   -4.1987    0.0000 H   0  0  0  0  0  0  0  0  0  0  0  0
    4.7010   -3.8660    0.0000 H   0  0  0  0  0  0  0  0  0  0  0  0
    5.2034   -3.4165    0.0000 H   0  0  0  0  0  0  0  0  0  0  0  0
    6.8445   -1.3990    0.0000 H   0  0  0  0  0  0  0  0  0  0  0  0
    7.7711   -1.9340    0.0000 H   0  0  0  0  0  0  0  0  0  0  0  0
    5.2467   -4.2165    0.0000 H   0  0  0  0  0  0  0  0  0  0  0  0
    8.4856   -3.4166    0.0000 H   0  0  0  0  0  0  0  0  0  0  0  0
    6.8445   -5.1890    0.0000 H   0  0  0  0  0  0  0  0  0  0  0  0
    7.7712   -3.5840    0.0000 H   0  0  0  0  0  0  0  0  0  0  0  0
    7.7711   -4.6540    0.0000 H   0  0  0  0  0  0  0  0  0  0  0  0
    6.6324   -4.2415    0.0000 H   0  0  0  0  0  0  0  0  0  0  0  0
    8.4856   -4.2415    0.0000 H   0  0  0  0  0  0  0  0  0  0  0  0
    7.5590   -4.7765    0.0000 H   0  0  0  0  0  0  0  0  0  0  0  0
    9.2001   -3.0042    0.0000 H   0  0  0  0  0  0  0  0  0  0  0  0
    8.2736   -1.3991    0.0000 H   0  0  0  0  0  0  0  0  0  0  0  0
    9.2002   -1.9342    0.0000 H   0  0  0  0  0  0  0  0  0  0  0  0
   -3.6599   -1.9338    0.0000 H   0  0  0  0  0  0  0  0  0  0  0  0
   -1.7287   -1.4844    0.0000 H   0  0  0  0  0  0  0  0  0  0  0  0
   -3.3724   -3.4121    0.0000 H   0  0  0  0  0  0  0  0  0  0  0  0
   -3.8722   -3.8658    0.0000 H   0  0  0  0  0  0  0  0  0  0  0  0
   -8.2561   -3.6505    0.0000 H   0  0  0  0  0  0  0  0  0  0  0  0
   -6.9422   -4.6538    0.0000 H   0  0  0  0  0  0  0  0  0  0  0  0
   -4.4486   -4.1985    0.0000 H   0  0  0  0  0  0  0  0  0  0  0  0
   -4.0628   -4.0272    0.0000 H   0  0  0  0  0  0  0  0  0  0  0  0
   -0.8465   -5.8843    0.0000 H   0  0  0  0  0  0  0  0  0  0  0  0
   -0.8465   -4.0272    0.0000 H   0  0  0  0  0  0  0  0  0  0  0  0
   -3.2662   -7.0742    0.0000 H   0  0  0  0  0  0  0  0  0  0  0  0
   -7.6238   -4.8403    0.0000 H   0  0  0  0  0  0  0  0  0  0  0  0
   -6.0156   -7.6258    0.0000 H   0  0  0  0  0  0  0  0  0  0  0  0
   -8.2561   -6.1253    0.0000 H   0  0  0  0  0  0  0  0  0  0  0  0
   -4.5865   -7.5308    0.0000 H   0  0  0  0  0  0  0  0  0  0  0  0
    1.0758    3.9108    0.0000 H   0  0  0  0  0  0  0  0  0  0  0  0
    1.8814    6.3855    0.0000 H   0  0  0  0  0  0  0  0  0  0  0  0
    2.7878    5.8169    0.0000 H   0  0  0  0  0  0  0  0  0  0  0  0
    3.3079    6.2952    0.0000 H   0  0  0  0  0  0  0  0  0  0  0  0
    1.5989    3.5704    0.0000 H   0  0  0  0  0  0  0  0  0  0  0  0
    4.8812    5.3082    0.0000 H   0  0  0  0  0  0  0  0  0  0  0  0
    3.1721    2.5836    0.0000 H   0  0  0  0  0  0  0  0  0  0  0  0
    5.4045    4.9800    0.0000 H   0  0  0  0  0  0  0  0  0  0  0  0
    3.6955    2.2552    0.0000 H   0  0  0  0  0  0  0  0  0  0  0  0
    6.9777    3.9931    0.0000 H   0  0  0  0  0  0  0  0  0  0  0  0
    5.2686    1.2684    0.0000 H   0  0  0  0  0  0  0  0  0  0  0  0
   -5.0951    0.5445    0.0000 H   0  0  0  0  0  0  0  0  0  0  0  0
   -5.8155    1.7924    0.0000 H   0  0  0  0  0  0  0  0  0  0  0  0
   -7.4626    1.9114    0.0000 H   0  0  0  0  0  0  0  0  0  0  0  0
   -6.7420   -1.4764    0.0000 H   0  0  0  0  0  0  0  0  0  0  0  0
   -5.8154   -0.9414    0.0000 H   0  0  0  0  0  0  0  0  0  0  0  0
   -5.8156    2.6244    0.0000 H   0  0  0  0  0  0  0  0  0  0  0  0
   -7.6689    2.6242    0.0000 H   0  0  0  0  0  0  0  0  0  0  0  0
   -6.7423    3.1593    0.0000 H   0  0  0  0  0  0  0  0  0  0  0  0
   -8.1831    2.2274    0.0000 H   0  0  0  0  0  0  0  0  0  0  0  0
   -8.4156   -1.3459    0.0000 H   0  0  0  0  0  0  0  0  0  0  0  0
   -6.5626   -1.3815    0.0000 H   0  0  0  0  0  0  0  0  0  0  0  0
   -7.4993   -1.8986    0.0000 H   0  0  0  0  0  0  0  0  0  0  0  0
   -8.9873    0.5298    0.0000 H   0  0  0  0  0  0  0  0  0  0  0  0
   -8.5477   -1.1814    0.0000 H   0  0  0  0  0  0  0  0  0  0  0  0
  2  1  2  0  0  0  0
  3  1  1  0  0  0  0
  4 52  1  0  0  0  0
  5  4  1  0  0  0  0
  5  3  2  0  0  0  0
  5126  1  0  0  0  0
  6  2  1  0  0  0  0
  6  4  2  0  0  0  0
  6127  1  0  0  0  0
  7  2  1  0  0  0  0
  8  3  1  0  0  0  0
  9115  1  0  0  0  0
  9 72  1  0  0  0  0
  9128  1  1  0  0  0
 10 24  1  0  0  0  0
 10 47  1  0  0  0  0
 10129  1  6  0  0  0
 11  9  1  0  0  0  0
 12 10  1  0  0  0  0
 13  8  1  0  0  0  0
 14  7  1  0  0  0  0
 15 13  2  0  0  0  0
 16 14  1  0  0  0  0
 17 12  1  0  0  0  0
 17 16  2  0  0  0  0
 17130  1  0  0  0  0
 18 12  2  0  0  0  0
 18131  1  0  0  0  0
 19 11  1  0  0  0  0
 19132  1  0  0  0  0
 20 13  1  0  0  0  0
 20 19  2  0  0  0  0
 20133  1  0  0  0  0
 21 14  2  0  0  0  0
 21 18  1  0  0  0  0
 21134  1  0  0  0  0
 22 16  1  0  0  0  0
 23 15  1  0  0  0  0
 24135  1  0  0  0  0
 25 36  1  0  0  0  0
 25136  1  6  0  0  0
 26 25  1  0  0  0  0
 26 43  1  0  0  0  0
 26137  1  1  0  0  0
 27 25  1  0  0  0  0
 27 38  1  0  0  0  0
 27138  1  1  0  0  0
 28 26  1  0  0  0  0
 29 41  1  6  0  0  0
 29100  1  0  0  0  0
 30 27  1  0  0  0  0
 30 39  1  0  0  0  0
 30139  1  6  0  0  0
 31 36  1  0  0  0  0
 31140  1  1  0  0  0
 32 28  1  0  0  0  0
 32 30  1  0  0  0  0
 32 44  1  0  0  0  0
 32141  1  1  0  0  0
 33 29  1  0  0  0  0
 33 31  1  0  0  0  0
 33142  1  0  0  0  0
 33143  1  0  0  0  0
 34 31  1  0  0  0  0
 35 29  1  0  0  0  0
 35 40  1  0  0  0  0
 35144  1  1  0  0  0
 37 34  1  0  0  0  0
 37 35  1  0  0  0  0
 37 42  1  0  0  0  0
 37145  1  6  0  0  0
 38146  1  0  0  0  0
 39147  1  0  0  0  0
 40148  1  0  0  0  0
 41149  1  0  0  0  0
 41150  1  0  0  0  0
 41151  1  0  0  0  0
 42152  1  0  0  0  0
 42153  1  0  0  0  0
 42154  1  0  0  0  0
 43  1  1  0  0  0  0
 44 45  1  0  0  0  0
 44155  1  0  0  0  0
 44156  1  0  0  0  0
 45157  1  0  0  0  0
 46 11  2  0  0  0  0
 46 15  1  0  0  0  0
 46158  1  0  0  0  0
 47 62  1  0  0  0  0
 47159  1  6  0  0  0
 48160  1  0  0  0  0
 49 47  1  0  0  0  0
 50 73  1  0  0  0  0
 51 49  1  0  0  0  0
 51161  1  0  0  0  0
 52 48  1  0  0  0  0
 52 50  1  0  0  0  0
 52162  1  6  0  0  0
 53 48  1  0  0  0  0
 54 51  1  0  0  0  0
 54 53  1  0  0  0  0
 54 58  1  0  0  0  0
 54163  1  6  0  0  0
 55 49  2  0  0  0  0
 56 50  2  0  0  0  0
 57 53  2  0  0  0  0
 58 59  1  0  0  0  0
 58164  1  0  0  0  0
 58165  1  0  0  0  0
 59 61  2  0  0  0  0
 59 60  1  0  0  0  0
 60166  1  0  0  0  0
 60167  1  0  0  0  0
 62168  1  0  0  0  0
 63 62  1  0  0  0  0
 64 63  1  0  0  0  0
 64 67  1  0  0  0  0
 64169  1  6  0  0  0
 65 63  2  0  0  0  0
 66 64  1  0  0  0  0
 66170  1  0  0  0  0
 66171  1  0  0  0  0
 67172  1  0  0  0  0
 68 66  1  0  0  0  0
 68173  1  0  0  0  0
 69 67  1  0  0  0  0
 69174  1  0  0  0  0
 69175  1  0  0  0  0
 69176  1  0  0  0  0
 70 68  1  0  0  0  0
 70177  1  0  0  0  0
 70178  1  0  0  0  0
 70179  1  0  0  0  0
 71 68  1  0  0  0  0
 71180  1  0  0  0  0
 71181  1  0  0  0  0
 71182  1  0  0  0  0
 72 76  1  0  0  0  0
 72183  1  1  0  0  0
 73184  1  0  0  0  0
 74 87  1  0  0  0  0
 74 73  1  0  0  0  0
 74 77  1  0  0  0  0
 74185  1  1  0  0  0
 75 84  2  0  0  0  0
 76186  1  0  0  0  0
 77 76  1  0  0  0  0
 77 78  2  0  0  0  0
 79 80  2  0  0  0  0
 79 81  1  0  0  0  0
 81187  1  0  0  0  0
 82 79  1  0  0  0  0
 82 92  1  0  0  0  0
 82 83  1  0  0  0  0
 82188  1  6  0  0  0
 83189  1  0  0  0  0
 84 72  1  0  0  0  0
 84 83  1  0  0  0  0
 86 85  2  0  0  0  0
 87 88  2  0  0  0  0
 88 85  1  0  0  0  0
 88190  1  0  0  0  0
 89 90  2  0  0  0  0
 89 86  1  0  0  0  0
 89191  1  0  0  0  0
 90 87  1  0  0  0  0
 90192  1  0  0  0  0
 91 86  1  0  0  0  0
 91193  1  0  0  0  0
 92 93  2  0  0  0  0
 92 95  1  0  0  0  0
 93 96  1  0  0  0  0
 93194  1  0  0  0  0
 94 98  1  0  0  0  0
 94195  1  0  0  0  0
 95 85  1  0  0  0  0
 96 94  2  0  0  0  0
 96 97  1  0  0  0  0
 97196  1  0  0  0  0
 98 95  2  0  0  0  0
 98 99  1  0  0  0  0
 99197  1  0  0  0  0
100101  1  0  0  0  0
100198  1  0  0  0  0
101102  1  0  0  0  0
101199  1  0  0  0  0
101200  1  0  0  0  0
103102  1  0  0  0  0
103201  1  0  0  0  0
104102  2  0  0  0  0
104202  1  0  0  0  0
105103  2  0  0  0  0
105203  1  0  0  0  0
106104  1  0  0  0  0
106204  1  0  0  0  0
107105  1  0  0  0  0
107106  2  0  0  0  0
107108  1  0  0  0  0
109108  1  0  0  0  0
109205  1  0  0  0  0
110108  2  0  0  0  0
110206  1  0  0  0  0
111109  2  0  0  0  0
111207  1  0  0  0  0
112110  1  0  0  0  0
112208  1  0  0  0  0
113111  1  0  0  0  0
113112  2  0  0  0  0
113114  1  0  0  0  0
116115  1  0  0  0  0
116117  1  0  0  0  0
116209  1  6  0  0  0
117118  1  0  0  0  0
118119  1  0  0  0  0
118122  1  0  0  0  0
118210  1  1  0  0  0
119120  1  0  0  0  0
119123  1  0  0  0  0
119211  1  6  0  0  0
120121  1  0  0  0  0
120124  1  1  0  0  0
120125  1  0  0  0  0
121116  1  0  0  0  0
121212  1  0  0  0  0
121213  1  0  0  0  0
122214  1  0  0  0  0
122215  1  0  0  0  0
122216  1  0  0  0  0
123217  1  0  0  0  0
124218  1  0  0  0  0
124219  1  0  0  0  0
124220  1  0  0  0  0
125221  1  0  0  0  0
125222  1  0  0  0  0
M  END
>  <DRUGBANK_ID>
DB04911

>  <COMMON_NAME>
Oritavancin

>  <CAS_NUMBER>
171099-57-3

>  <UNII>
PUG62FRZ2E

>  <SYNONYMS>
Chlorobiphenyl-chloroeremomycin; Oritavancin

$$$$
