
 OpenBabel10282417072D

 12 12  0  0  0  0  0  0  0  0999 V2000
    0.0202   -0.3010    0.0000 C   0  0  0  0  0  0  0  0  0  0  0  0
    0.2751    0.4836    0.0000 N   0  0  0  0  0  0  0  0  0  0  0  0
   -0.8048   -0.3010    0.0000 C   0  0  0  0  0  0  0  0  0  0  0  0
    0.5052   -0.9685    0.0000 O   0  0  0  0  0  0  0  0  0  0  0  0
   -0.3922    0.9685    0.0000 S   0  0  0  0  0  0  0  0  0  0  0  0
    1.0598    0.7386    0.0000 C   0  0  0  0  0  0  0  0  0  0  0  0
   -1.0598    0.4836    0.0000 C   0  0  0  0  0  0  0  0  0  0  0  0
   -1.4114   -1.1359    0.0000 H   0  0  0  0  0  0  0  0  0  0  0  0
    1.8550    0.0227    0.0000 H   0  0  0  0  0  0  0  0  0  0  0  0
    1.2822    1.7852    0.0000 H   0  0  0  0  0  0  0  0  0  0  0  0
    2.0774    1.0693    0.0000 H   0  0  0  0  0  0  0  0  0  0  0  0
   -2.0413    0.8025    0.0000 H   0  0  0  0  0  0  0  0  0  0  0  0
  1  2  1  0  0  0  0
  1  3  1  0  0  0  0
  1  4  2  0  0  0  0
  2  5  1  0  0  0  0
  2  6  1  0  0  0  0
  3  7  2  0  0  0  0
  3  8  1  0  0  0  0
  5  7  1  0  0  0  0
  6  9  1  0  0  0  0
  6 10  1  0  0  0  0
  6 11  1  0  0  0  0
  7 12  1  0  0  0  0
M  END
>  <DRUGBANK_ID>
DB15884

>  <COMMON_NAME>
Methylisothiazolinone

>  <CAS_NUMBER>
2682-20-4

>  <UNII>
229D0E1QFA

>  <SYNONYMS>
2-Methyl-3-isothiazolone; 2-Methyl-3(2H)-isothiazolone; 2-Methyl-4-isothiazolin-3-one; 2-Methyl-4-isothiazoline-3-ketone; 2-Methyl-4-isothiazoline-3-one; N-Methylisothiazolin-3-one

$$$$
