
 OpenBabel10282417072D

122121  0  0  1  0  0  0  0  0999 V2000
   21.6848   -7.0934    0.0000 C   0  0  0  0  0  0  0  0  0  0  0  0
    0.2507    1.9816    0.0000 C   0  0  0  0  0  0  0  0  0  0  0  0
   20.9703   -6.6809    0.0000 C   0  0  0  0  0  0  0  0  0  0  0  0
    0.9651    1.5691    0.0000 C   0  0  0  0  0  0  0  0  0  0  0  0
   20.9703   -5.8559    0.0000 C   0  0  0  0  0  0  0  0  0  0  0  0
    0.9651    0.7441    0.0000 C   0  0  0  0  0  0  0  0  0  0  0  0
   20.2559   -5.4434    0.0000 C   0  0  0  0  0  0  0  0  0  0  0  0
    1.6796    0.3316    0.0000 C   0  0  0  0  0  0  0  0  0  0  0  0
   20.2559   -4.6184    0.0000 C   0  0  0  0  0  0  0  0  0  0  0  0
    1.6796   -0.4934    0.0000 C   0  0  0  0  0  0  0  0  0  0  0  0
   19.5414   -4.2059    0.0000 C   0  0  0  0  0  0  0  0  0  0  0  0
    2.3941   -0.9059    0.0000 C   0  0  0  0  0  0  0  0  0  0  0  0
   19.5414   -3.3809    0.0000 C   0  0  0  0  0  0  0  0  0  0  0  0
    2.3941   -1.7309    0.0000 C   0  0  0  0  0  0  0  0  0  0  0  0
   18.8269   -2.9684    0.0000 C   0  0  0  0  0  0  0  0  0  0  0  0
    3.1086   -2.1434    0.0000 C   0  0  0  0  0  0  0  0  0  0  0  0
   18.8269   -2.1434    0.0000 C   0  0  0  0  0  0  0  0  0  0  0  0
   18.1124   -1.7309    0.0000 C   0  0  0  0  0  0  0  0  0  0  0  0
    3.8230   -1.7309    0.0000 C   0  0  0  0  0  0  0  0  0  0  0  0
   17.3980   -2.1434    0.0000 C   0  0  0  0  0  0  0  0  0  0  0  0
   16.6835   -1.7309    0.0000 C   0  0  0  0  0  0  0  0  0  0  0  0
    4.5375   -2.1434    0.0000 C   0  0  0  0  0  0  0  0  0  0  0  0
   15.9690   -2.1434    0.0000 C   0  0  0  0  0  0  0  0  0  0  0  0
    5.2520   -1.7309    0.0000 C   0  0  0  0  0  0  0  0  0  0  0  0
   15.2546   -1.7309    0.0000 C   0  0  0  0  0  0  0  0  0  0  0  0
    5.9664   -2.1434    0.0000 C   0  0  0  0  0  0  0  0  0  0  0  0
   14.5401   -2.1434    0.0000 C   0  0  0  0  0  0  0  0  0  0  0  0
    6.6809   -1.7309    0.0000 C   0  0  0  0  0  0  0  0  0  0  0  0
   13.8256   -1.7309    0.0000 C   0  0  0  0  0  0  0  0  0  0  0  0
    7.3954   -2.1434    0.0000 C   0  0  0  0  0  0  0  0  0  0  0  0
   13.1112   -2.1434    0.0000 C   0  0  0  0  0  0  0  0  0  0  0  0
    8.1099   -1.7309    0.0000 C   0  0  0  0  0  0  0  0  0  0  0  0
   11.6013   -4.9204    0.0000 C   0  0  0  0  0  0  0  0  0  0  0  0
   10.7763   -4.9204    0.0000 C   0  0  0  0  0  0  0  0  0  0  0  0
   10.9677   -1.7309    0.0000 C   0  0  0  0  0  0  0  0  0  0  0  0
   10.2533   -2.9684    0.0000 C   0  0  0  0  0  0  0  0  0  0  0  0
   10.2533   -2.1434    0.0000 C   0  0  1  0  0  0  0  0  0  0  0  0
   12.3967   -1.7309    0.0000 C   0  0  0  0  0  0  0  0  0  0  0  0
    8.8243   -2.1434    0.0000 C   0  0  0  0  0  0  0  0  0  0  0  0
   12.0138   -5.6349    0.0000 O   0  0  0  0  0  0  0  0  0  0  0  0
   12.3967   -0.9059    0.0000 O   0  0  0  0  0  0  0  0  0  0  0  0
    8.8243   -2.9684    0.0000 O   0  0  0  0  0  0  0  0  0  0  0  0
    8.7138   -4.2059    0.0000 O   0  0  0  0  0  0  0  0  0  0  0  0
    9.5388   -5.0309    0.0000 O   0  0  0  0  0  0  0  0  0  0  0  0
   11.6822   -2.1434    0.0000 O   0  0  0  0  0  0  0  0  0  0  0  0
   10.3638   -4.2059    0.0000 O   0  0  0  0  0  0  0  0  0  0  0  0
    9.5388   -3.3809    0.0000 O   0  0  0  0  0  0  0  0  0  0  0  0
    9.5388   -1.7309    0.0000 O   0  0  0  0  0  0  0  0  0  0  0  0
    9.5388   -4.2059    0.0000 P   0  0  3  0  0  0  0  0  0  0  0  0
    1.6796   -2.1434    0.0000 H   0  0  0  0  0  0  0  0  0  0  0  0
    3.1086   -2.9684    0.0000 H   0  0  0  0  0  0  0  0  0  0  0  0
   19.5414   -1.7309    0.0000 H   0  0  0  0  0  0  0  0  0  0  0  0
   18.1124   -0.9059    0.0000 H   0  0  0  0  0  0  0  0  0  0  0  0
   10.9677   -2.5559    0.0000 H   0  0  0  0  0  0  0  0  0  0  0  0
   21.6848   -8.1634    0.0000 H   0  0  0  0  0  0  0  0  0  0  0  0
   22.6114   -6.5584    0.0000 H   0  0  0  0  0  0  0  0  0  0  0  0
   22.6115   -7.6284    0.0000 H   0  0  0  0  0  0  0  0  0  0  0  0
    0.2507    3.0516    0.0000 H   0  0  0  0  0  0  0  0  0  0  0  0
   -0.6760    1.4466    0.0000 H   0  0  0  0  0  0  0  0  0  0  0  0
   -0.6759    2.5166    0.0000 H   0  0  0  0  0  0  0  0  0  0  0  0
   20.0437   -7.2159    0.0000 H   0  0  0  0  0  0  0  0  0  0  0  0
   20.0437   -6.1459    0.0000 H   0  0  0  0  0  0  0  0  0  0  0  0
    1.8918    2.1041    0.0000 H   0  0  0  0  0  0  0  0  0  0  0  0
    1.8917    1.0341    0.0000 H   0  0  0  0  0  0  0  0  0  0  0  0
   21.8970   -5.3209    0.0000 H   0  0  0  0  0  0  0  0  0  0  0  0
   20.9703   -4.7859    0.0000 H   0  0  0  0  0  0  0  0  0  0  0  0
    0.0385    0.2091    0.0000 H   0  0  0  0  0  0  0  0  0  0  0  0
    0.9651   -0.3259    0.0000 H   0  0  0  0  0  0  0  0  0  0  0  0
   19.3292   -5.9784    0.0000 H   0  0  0  0  0  0  0  0  0  0  0  0
   19.3293   -4.9084    0.0000 H   0  0  0  0  0  0  0  0  0  0  0  0
    2.6062    0.8666    0.0000 H   0  0  0  0  0  0  0  0  0  0  0  0
    2.6062   -0.2034    0.0000 H   0  0  0  0  0  0  0  0  0  0  0  0
   21.1825   -4.0834    0.0000 H   0  0  0  0  0  0  0  0  0  0  0  0
   20.2559   -3.5484    0.0000 H   0  0  0  0  0  0  0  0  0  0  0  0
    0.7530   -1.0284    0.0000 H   0  0  0  0  0  0  0  0  0  0  0  0
    1.6796   -1.5634    0.0000 H   0  0  0  0  0  0  0  0  0  0  0  0
   18.6148   -4.7409    0.0000 H   0  0  0  0  0  0  0  0  0  0  0  0
   18.6148   -3.6709    0.0000 H   0  0  0  0  0  0  0  0  0  0  0  0
    3.3207   -0.3709    0.0000 H   0  0  0  0  0  0  0  0  0  0  0  0
    3.3207   -1.4409    0.0000 H   0  0  0  0  0  0  0  0  0  0  0  0
   20.4680   -2.8459    0.0000 H   0  0  0  0  0  0  0  0  0  0  0  0
   19.5414   -2.3109    0.0000 H   0  0  0  0  0  0  0  0  0  0  0  0
   17.9003   -3.5034    0.0000 H   0  0  0  0  0  0  0  0  0  0  0  0
   17.9003   -2.4334    0.0000 H   0  0  0  0  0  0  0  0  0  0  0  0
    3.8230   -0.6609    0.0000 H   0  0  0  0  0  0  0  0  0  0  0  0
    4.7496   -1.1959    0.0000 H   0  0  0  0  0  0  0  0  0  0  0  0
   17.3980   -3.2134    0.0000 H   0  0  0  0  0  0  0  0  0  0  0  0
   16.4714   -2.6784    0.0000 H   0  0  0  0  0  0  0  0  0  0  0  0
   16.6835   -0.6609    0.0000 H   0  0  0  0  0  0  0  0  0  0  0  0
   15.7569   -1.1959    0.0000 H   0  0  0  0  0  0  0  0  0  0  0  0
    4.5375   -3.2134    0.0000 H   0  0  0  0  0  0  0  0  0  0  0  0
    5.4641   -2.6784    0.0000 H   0  0  0  0  0  0  0  0  0  0  0  0
   15.9690   -3.2134    0.0000 H   0  0  0  0  0  0  0  0  0  0  0  0
   15.0423   -2.6784    0.0000 H   0  0  0  0  0  0  0  0  0  0  0  0
    5.2520   -0.6609    0.0000 H   0  0  0  0  0  0  0  0  0  0  0  0
    6.1787   -1.1959    0.0000 H   0  0  0  0  0  0  0  0  0  0  0  0
   15.2546   -0.6609    0.0000 H   0  0  0  0  0  0  0  0  0  0  0  0
   14.3280   -1.1959    0.0000 H   0  0  0  0  0  0  0  0  0  0  0  0
    5.9664   -3.2134    0.0000 H   0  0  0  0  0  0  0  0  0  0  0  0
    6.8930   -2.6784    0.0000 H   0  0  0  0  0  0  0  0  0  0  0  0
   14.5401   -3.2134    0.0000 H   0  0  0  0  0  0  0  0  0  0  0  0
   13.6135   -2.6784    0.0000 H   0  0  0  0  0  0  0  0  0  0  0  0
    6.6809   -0.6609    0.0000 H   0  0  0  0  0  0  0  0  0  0  0  0
    7.6075   -1.1959    0.0000 H   0  0  0  0  0  0  0  0  0  0  0  0
   13.8256   -0.6609    0.0000 H   0  0  0  0  0  0  0  0  0  0  0  0
   12.8989   -1.1959    0.0000 H   0  0  0  0  0  0  0  0  0  0  0  0
    7.3954   -3.2134    0.0000 H   0  0  0  0  0  0  0  0  0  0  0  0
    8.3220   -2.6784    0.0000 H   0  0  0  0  0  0  0  0  0  0  0  0
   13.1112   -3.2134    0.0000 H   0  0  0  0  0  0  0  0  0  0  0  0
   12.1846   -2.6784    0.0000 H   0  0  0  0  0  0  0  0  0  0  0  0
    8.1099   -0.6609    0.0000 H   0  0  0  0  0  0  0  0  0  0  0  0
    9.0366   -1.1959    0.0000 H   0  0  0  0  0  0  0  0  0  0  0  0
   12.1363   -3.9938    0.0000 H   0  0  0  0  0  0  0  0  0  0  0  0
   12.6713   -4.9204    0.0000 H   0  0  0  0  0  0  0  0  0  0  0  0
   10.2413   -5.8470    0.0000 H   0  0  0  0  0  0  0  0  0  0  0  0
    9.7063   -4.9204    0.0000 H   0  0  0  0  0  0  0  0  0  0  0  0
   10.9677   -0.6609    0.0000 H   0  0  0  0  0  0  0  0  0  0  0  0
   11.8943   -1.1959    0.0000 H   0  0  0  0  0  0  0  0  0  0  0  0
   11.1799   -3.5034    0.0000 H   0  0  0  0  0  0  0  0  0  0  0  0
   10.2533   -4.0384    0.0000 H   0  0  0  0  0  0  0  0  0  0  0  0
   11.5288   -6.4749    0.0000 H   0  0  0  0  0  0  0  0  0  0  0  0
    8.2288   -3.3659    0.0000 H   0  0  0  0  0  0  0  0  0  0  0  0
  1 55  1  0  0  0  0
  1 56  1  0  0  0  0
  1 57  1  0  0  0  0
  2 58  1  0  0  0  0
  2 59  1  0  0  0  0
  2 60  1  0  0  0  0
  3  1  1  0  0  0  0
  3 61  1  0  0  0  0
  3 62  1  0  0  0  0
  4  2  1  0  0  0  0
  4 63  1  0  0  0  0
  4 64  1  0  0  0  0
  5  3  1  0  0  0  0
  5 65  1  0  0  0  0
  5 66  1  0  0  0  0
  6  4  1  0  0  0  0
  6 67  1  0  0  0  0
  6 68  1  0  0  0  0
  7  5  1  0  0  0  0
  7 69  1  0  0  0  0
  7 70  1  0  0  0  0
  8  6  1  0  0  0  0
  8 71  1  0  0  0  0
  8 72  1  0  0  0  0
  9  7  1  0  0  0  0
  9 73  1  0  0  0  0
  9 74  1  0  0  0  0
 10  8  1  0  0  0  0
 10 75  1  0  0  0  0
 10 76  1  0  0  0  0
 11  9  1  0  0  0  0
 11 77  1  0  0  0  0
 11 78  1  0  0  0  0
 12 10  1  0  0  0  0
 12 79  1  0  0  0  0
 12 80  1  0  0  0  0
 13 11  1  0  0  0  0
 13 81  1  0  0  0  0
 13 82  1  0  0  0  0
 14 12  1  0  0  0  0
 15 13  1  0  0  0  0
 15 83  1  0  0  0  0
 15 84  1  0  0  0  0
 16 14  2  0  0  0  0
 17 15  1  0  0  0  0
 18 17  2  0  0  0  0
 19 16  1  0  0  0  0
 19 85  1  0  0  0  0
 19 86  1  0  0  0  0
 20 18  1  0  0  0  0
 20 87  1  0  0  0  0
 20 88  1  0  0  0  0
 21 20  1  0  0  0  0
 21 89  1  0  0  0  0
 21 90  1  0  0  0  0
 22 19  1  0  0  0  0
 22 91  1  0  0  0  0
 22 92  1  0  0  0  0
 23 21  1  0  0  0  0
 23 93  1  0  0  0  0
 23 94  1  0  0  0  0
 24 22  1  0  0  0  0
 24 95  1  0  0  0  0
 24 96  1  0  0  0  0
 25 23  1  0  0  0  0
 25 97  1  0  0  0  0
 25 98  1  0  0  0  0
 26 24  1  0  0  0  0
 26 99  1  0  0  0  0
 26100  1  0  0  0  0
 27 25  1  0  0  0  0
 27101  1  0  0  0  0
 27102  1  0  0  0  0
 28 26  1  0  0  0  0
 28103  1  0  0  0  0
 28104  1  0  0  0  0
 29 27  1  0  0  0  0
 29105  1  0  0  0  0
 29106  1  0  0  0  0
 30 28  1  0  0  0  0
 30107  1  0  0  0  0
 30108  1  0  0  0  0
 31 29  1  0  0  0  0
 31109  1  0  0  0  0
 31110  1  0  0  0  0
 32 30  1  0  0  0  0
 32111  1  0  0  0  0
 32112  1  0  0  0  0
 33113  1  0  0  0  0
 33114  1  0  0  0  0
 34 33  1  0  0  0  0
 34115  1  0  0  0  0
 34116  1  0  0  0  0
 35117  1  0  0  0  0
 35118  1  0  0  0  0
 36119  1  0  0  0  0
 36120  1  0  0  0  0
 37 35  1  0  0  0  0
 37 36  1  0  0  0  0
 37 48  1  0  0  0  0
 37 54  1  6  0  0  0
 38 31  1  0  0  0  0
 39 32  1  0  0  0  0
 40 33  1  0  0  0  0
 40121  1  0  0  0  0
 41 38  2  0  0  0  0
 42 39  2  0  0  0  0
 43122  1  0  0  0  0
 45 35  1  0  0  0  0
 45 38  1  0  0  0  0
 46 34  1  0  0  0  0
 47 36  1  0  0  0  0
 48 39  1  0  0  0  0
 49 43  1  0  0  0  0
 49 44  2  0  0  0  0
 49 46  1  0  0  0  0
 49 47  1  0  0  0  0
 50 14  1  0  0  0  0
 51 16  1  0  0  0  0
 52 17  1  0  0  0  0
 53 18  1  0  0  0  0
M  END
>  <DRUGBANK_ID>
DB04752

>  <COMMON_NAME>
Phosphatidyl ethanol

>  <SYNONYMS>
PEth

$$$$
