
 OpenBabel10282417072D

 21 22  0  0  0  0  0  0  0  0999 V2000
   -1.4241    0.4084    0.0000 C   0  0  0  0  0  0  0  0  0  0  0  0
   -1.4241   -0.4166    0.0000 N   0  0  0  0  0  0  0  0  0  0  0  0
   -0.7121   -0.8249    0.0000 C   0  0  0  0  0  0  0  0  0  0  0  0
   -0.7121    0.8250    0.0000 C   0  0  0  0  0  0  0  0  0  0  0  0
   -0.0001    0.4084    0.0000 N   0  0  0  0  0  0  0  0  0  0  0  0
   -0.0036   -0.4166    0.0000 C   0  0  1  0  0  0  0  0  0  0  0  0
    1.4206   -0.4227    0.0000 C   0  0  0  0  0  0  0  0  0  0  0  0
    1.4241    0.4023    0.0000 C   0  0  0  0  0  0  0  0  0  0  0  0
    0.7115    0.8223    0.0000 C   0  0  0  0  0  0  0  0  0  0  0  0
   -0.7121    1.6500    0.0000 O   0  0  0  0  0  0  0  0  0  0  0  0
   -0.7112   -1.6500    0.0000 O   0  0  0  0  0  0  0  0  0  0  0  0
   -0.0178   -1.1857    0.0000 H   0  0  0  0  0  0  0  0  0  0  0  0
   -2.3523    0.9407    0.0000 H   0  0  0  0  0  0  0  0  0  0  0  0
   -1.4288    1.4784    0.0000 H   0  0  0  0  0  0  0  0  0  0  0  0
   -2.2760   -0.9101    0.0000 H   0  0  0  0  0  0  0  0  0  0  0  0
    2.1740   -1.1825    0.0000 H   0  0  0  0  0  0  0  0  0  0  0  0
    1.0069   -1.4095    0.0000 H   0  0  0  0  0  0  0  0  0  0  0  0
    2.3543    0.9312    0.0000 H   0  0  0  0  0  0  0  0  0  0  0  0
    1.4324    1.4723    0.0000 H   0  0  0  0  0  0  0  0  0  0  0  0
    0.7146    1.8923    0.0000 H   0  0  0  0  0  0  0  0  0  0  0  0
   -0.2152    1.3571    0.0000 H   0  0  0  0  0  0  0  0  0  0  0  0
  1  2  1  0  0  0  0
  1  4  1  0  0  0  0
  1 13  1  0  0  0  0
  1 14  1  0  0  0  0
  2  3  1  0  0  0  0
  2 15  1  0  0  0  0
  3  6  1  0  0  0  0
  3 11  2  0  0  0  0
  4 10  2  0  0  0  0
  5  4  1  0  0  0  0
  5  6  1  0  0  0  0
  6  7  1  0  0  0  0
  6 12  1  6  0  0  0
  7  8  1  0  0  0  0
  7 16  1  0  0  0  0
  7 17  1  0  0  0  0
  8  9  1  0  0  0  0
  8 18  1  0  0  0  0
  8 19  1  0  0  0  0
  9  5  1  0  0  0  0
  9 20  1  0  0  0  0
  9 21  1  0  0  0  0
M  END
>  <DRUGBANK_ID>
DB04541

>  <SECONDARY_ACCESSION_NUMBERS>
EXPT01592

>  <COMMON_NAME>
Cyclo(prolylglycyl)

>  <CAS_NUMBER>
97011-16-0

>  <UNII>
W7O69J5F2B

>  <SYNONYMS>
(S)-Hexahydropyrrolo(1,2-a)pyrazine-1,4-dione-4-17O; Cyclo(pro-gly); Cyclo(pro-O-gly)

$$$$
