
 OpenBabel10282417072D

 43 45  0  0  1  0  0  0  0  0999 V2000
    4.7812   -0.5396    0.0000 C   0  0  0  0  0  0  0  0  0  0  0  0
    4.0668   -0.1271    0.0000 O   0  0  0  0  0  0  0  0  0  0  0  0
    4.0668    0.6979    0.0000 C   0  0  0  0  0  0  0  0  0  0  0  0
    4.7812    1.1104    0.0000 C   0  0  0  0  0  0  0  0  0  0  0  0
    4.7812    1.9354    0.0000 C   0  0  0  0  0  0  0  0  0  0  0  0
    4.0668    2.3479    0.0000 C   0  0  0  0  0  0  0  0  0  0  0  0
    3.3523    1.9354    0.0000 C   0  0  0  0  0  0  0  0  0  0  0  0
    3.3523    1.1104    0.0000 C   0  0  0  0  0  0  0  0  0  0  0  0
    2.6378    0.6979    0.0000 N   0  3  0  0  0  0  0  0  0  0  0  0
    2.6378   -0.1271    0.0000 C   0  0  0  0  0  0  0  0  0  0  0  0
    1.9233    1.1104    0.0000 C   0  0  0  0  0  0  0  0  0  0  0  0
    1.1387    0.8555    0.0000 O   0  0  0  0  0  0  0  0  0  0  0  0
    0.6538    1.5229    0.0000 C   0  0  2  0  0  0  0  0  0  0  0  0
    1.1387    2.1904    0.0000 C   0  0  0  0  0  0  0  0  0  0  0  0
    1.9233    1.9354    0.0000 C   0  0  0  0  0  0  0  0  0  0  0  0
    2.6378    2.3479    0.0000 C   0  0  0  0  0  0  0  0  0  0  0  0
    2.6378    3.1729    0.0000 O   0  0  0  0  0  0  0  0  0  0  0  0
    3.3523    3.5854    0.0000 C   0  0  0  0  0  0  0  0  0  0  0  0
   -0.1712    1.5229    0.0000 C   0  0  0  0  0  0  0  0  0  0  0  0
   -0.5837    0.8085    0.0000 C   0  0  0  0  0  0  0  0  0  0  0  0
   -0.5837    2.2374    0.0000 C   0  0  0  0  0  0  0  0  0  0  0  0
    4.7812   -1.6096    0.0000 H   0  0  0  0  0  0  0  0  0  0  0  0
    5.7079   -0.0046    0.0000 H   0  0  0  0  0  0  0  0  0  0  0  0
    5.7078   -1.0746    0.0000 H   0  0  0  0  0  0  0  0  0  0  0  0
    5.6749    0.5944    0.0000 H   0  0  0  0  0  0  0  0  0  0  0  0
    5.6749    2.4514    0.0000 H   0  0  0  0  0  0  0  0  0  0  0  0
    4.0668    3.3799    0.0000 H   0  0  0  0  0  0  0  0  0  0  0  0
    1.7112   -0.6621    0.0000 H   0  0  0  0  0  0  0  0  0  0  0  0
    3.5644   -0.6621    0.0000 H   0  0  0  0  0  0  0  0  0  0  0  0
    2.6378   -1.1971    0.0000 H   0  0  0  0  0  0  0  0  0  0  0  0
    0.1680    0.5695    0.0000 H   0  0  0  0  0  0  0  0  0  0  0  0
    0.8081    3.2080    0.0000 H   0  0  0  0  0  0  0  0  0  0  0  0
    1.8953    2.9470    0.0000 H   0  0  0  0  0  0  0  0  0  0  0  0
    4.2789    3.0504    0.0000 H   0  0  0  0  0  0  0  0  0  0  0  0
    3.3523    4.6554    0.0000 H   0  0  0  0  0  0  0  0  0  0  0  0
    4.2790    4.1204    0.0000 H   0  0  0  0  0  0  0  0  0  0  0  0
   -1.2412    1.5229    0.0000 H   0  0  0  0  0  0  0  0  0  0  0  0
   -1.6537    0.8085    0.0000 H   0  0  0  0  0  0  0  0  0  0  0  0
   -0.0487   -0.1182    0.0000 H   0  0  0  0  0  0  0  0  0  0  0  0
   -1.1187   -0.1181    0.0000 H   0  0  0  0  0  0  0  0  0  0  0  0
   -0.0487    3.1640    0.0000 H   0  0  0  0  0  0  0  0  0  0  0  0
   -1.6537    2.2374    0.0000 H   0  0  0  0  0  0  0  0  0  0  0  0
   -1.1187    3.1641    0.0000 H   0  0  0  0  0  0  0  0  0  0  0  0
  1  2  1  0  0  0  0
  1 22  1  0  0  0  0
  1 23  1  0  0  0  0
  1 24  1  0  0  0  0
  2  3  1  0  0  0  0
  3  4  2  0  0  0  0
  3  8  1  0  0  0  0
  4  5  1  0  0  0  0
  4 25  1  0  0  0  0
  5  6  2  0  0  0  0
  5 26  1  0  0  0  0
  6  7  1  0  0  0  0
  6 27  1  0  0  0  0
  7  8  2  0  0  0  0
  7 16  1  0  0  0  0
  8  9  1  0  0  0  0
  9 10  1  0  0  0  0
  9 11  2  0  0  0  0
 10 28  1  0  0  0  0
 10 29  1  0  0  0  0
 10 30  1  0  0  0  0
 11 12  1  0  0  0  0
 11 15  1  0  0  0  0
 13 12  1  0  0  0  0
 13 14  1  0  0  0  0
 13 19  1  0  0  0  0
 13 31  1  6  0  0  0
 14 15  1  0  0  0  0
 14 32  1  0  0  0  0
 14 33  1  0  0  0  0
 15 16  2  0  0  0  0
 16 17  1  0  0  0  0
 17 18  1  0  0  0  0
 18 34  1  0  0  0  0
 18 35  1  0  0  0  0
 18 36  1  0  0  0  0
 19 20  1  0  0  0  0
 19 21  1  0  0  0  0
 19 37  1  0  0  0  0
 20 38  1  0  0  0  0
 20 39  1  0  0  0  0
 20 40  1  0  0  0  0
 21 41  1  0  0  0  0
 21 42  1  0  0  0  0
 21 43  1  0  0  0  0
M  CHG  1   9   1
M  END
>  <DRUGBANK_ID>
DB16223

>  <COMMON_NAME>
Lunasine

>  <CAS_NUMBER>
6901-22-0

>  <UNII>
80R70AS7M1

>  <SYNONYMS>
(-)-lunasine; Lunasin; Lunasine, (-)-

$$$$
