
 OpenBabel10282417072D

 48 48  0  0  0  0  0  0  0  0999 V2000
    1.4289   -4.9500    0.0000 C   0  0  0  0  0  0  0  0  0  0  0  0
    2.1434   -5.3625    0.0000 C   0  0  0  0  0  0  0  0  0  0  0  0
    2.8579   -4.9500    0.0000 C   0  0  0  0  0  0  0  0  0  0  0  0
    3.5724   -5.3625    0.0000 C   0  0  0  0  0  0  0  0  0  0  0  0
    4.2868   -4.9500    0.0000 C   0  0  0  0  0  0  0  0  0  0  0  0
    5.0013   -5.3625    0.0000 C   0  0  0  0  0  0  0  0  0  0  0  0
    5.7158   -4.9500    0.0000 C   0  0  0  0  0  0  0  0  0  0  0  0
    6.4302   -5.3625    0.0000 C   0  0  0  0  0  0  0  0  0  0  0  0
    7.1447   -4.9500    0.0000 C   0  0  0  0  0  0  0  0  0  0  0  0
    7.8592   -5.3625    0.0000 C   0  0  0  0  0  0  0  0  0  0  0  0
    8.5737   -4.9500    0.0000 C   0  0  0  0  0  0  0  0  0  0  0  0
    8.5737   -4.1250    0.0000 C   0  0  0  0  0  0  0  0  0  0  0  0
    9.2881   -5.3625    0.0000 C   0  0  0  0  0  0  0  0  0  0  0  0
   10.0026   -4.9500    0.0000 O   0  0  0  0  0  0  0  0  0  0  0  0
    9.2881   -6.1875    0.0000 C   0  0  0  0  0  0  0  0  0  0  0  0
   10.0026   -6.6000    0.0000 C   0  0  0  0  0  0  0  0  0  0  0  0
    8.5737   -6.6000    0.0000 C   0  0  0  0  0  0  0  0  0  0  0  0
    8.5737   -7.4250    0.0000 C   0  0  0  0  0  0  0  0  0  0  0  0
    7.8592   -6.1875    0.0000 C   0  0  0  0  0  0  0  0  0  0  0  0
    7.1447   -6.6000    0.0000 O   0  0  0  0  0  0  0  0  0  0  0  0
    1.4289   -3.8800    0.0000 H   0  0  0  0  0  0  0  0  0  0  0  0
    0.5023   -5.4850    0.0000 H   0  0  0  0  0  0  0  0  0  0  0  0
    0.5022   -4.4150    0.0000 H   0  0  0  0  0  0  0  0  0  0  0  0
    2.1434   -6.4325    0.0000 H   0  0  0  0  0  0  0  0  0  0  0  0
    3.0700   -5.8975    0.0000 H   0  0  0  0  0  0  0  0  0  0  0  0
    2.8579   -3.8800    0.0000 H   0  0  0  0  0  0  0  0  0  0  0  0
    3.7845   -4.4150    0.0000 H   0  0  0  0  0  0  0  0  0  0  0  0
    3.5724   -6.4325    0.0000 H   0  0  0  0  0  0  0  0  0  0  0  0
    4.4991   -5.8975    0.0000 H   0  0  0  0  0  0  0  0  0  0  0  0
    4.2868   -3.8800    0.0000 H   0  0  0  0  0  0  0  0  0  0  0  0
    5.2134   -4.4150    0.0000 H   0  0  0  0  0  0  0  0  0  0  0  0
    5.0013   -6.4325    0.0000 H   0  0  0  0  0  0  0  0  0  0  0  0
    5.9279   -5.8975    0.0000 H   0  0  0  0  0  0  0  0  0  0  0  0
    5.7158   -3.8800    0.0000 H   0  0  0  0  0  0  0  0  0  0  0  0
    6.6425   -4.4150    0.0000 H   0  0  0  0  0  0  0  0  0  0  0  0
    6.4302   -6.4325    0.0000 H   0  0  0  0  0  0  0  0  0  0  0  0
    7.3568   -5.8975    0.0000 H   0  0  0  0  0  0  0  0  0  0  0  0
    7.1447   -3.8800    0.0000 H   0  0  0  0  0  0  0  0  0  0  0  0
    8.0713   -4.4150    0.0000 H   0  0  0  0  0  0  0  0  0  0  0  0
    9.5003   -3.5900    0.0000 H   0  0  0  0  0  0  0  0  0  0  0  0
    7.6471   -3.5900    0.0000 H   0  0  0  0  0  0  0  0  0  0  0  0
    8.5737   -3.0550    0.0000 H   0  0  0  0  0  0  0  0  0  0  0  0
   10.0026   -7.6700    0.0000 H   0  0  0  0  0  0  0  0  0  0  0  0
   10.9292   -6.0650    0.0000 H   0  0  0  0  0  0  0  0  0  0  0  0
   10.9293   -7.1350    0.0000 H   0  0  0  0  0  0  0  0  0  0  0  0
    7.6471   -7.9600    0.0000 H   0  0  0  0  0  0  0  0  0  0  0  0
    9.5003   -7.9600    0.0000 H   0  0  0  0  0  0  0  0  0  0  0  0
    8.5737   -8.4950    0.0000 H   0  0  0  0  0  0  0  0  0  0  0  0
  1  2  1  0  0  0  0
  1 21  1  0  0  0  0
  1 22  1  0  0  0  0
  1 23  1  0  0  0  0
  2  3  1  0  0  0  0
  2 24  1  0  0  0  0
  2 25  1  0  0  0  0
  3  4  1  0  0  0  0
  3 26  1  0  0  0  0
  3 27  1  0  0  0  0
  4  5  1  0  0  0  0
  4 28  1  0  0  0  0
  4 29  1  0  0  0  0
  5  6  1  0  0  0  0
  5 30  1  0  0  0  0
  5 31  1  0  0  0  0
  6  7  1  0  0  0  0
  6 32  1  0  0  0  0
  6 33  1  0  0  0  0
  7  8  1  0  0  0  0
  7 34  1  0  0  0  0
  7 35  1  0  0  0  0
  8  9  1  0  0  0  0
  8 36  1  0  0  0  0
  8 37  1  0  0  0  0
  9 10  1  0  0  0  0
  9 38  1  0  0  0  0
  9 39  1  0  0  0  0
 10 11  2  0  0  0  0
 10 19  1  0  0  0  0
 11 12  1  0  0  0  0
 11 13  1  0  0  0  0
 12 40  1  0  0  0  0
 12 41  1  0  0  0  0
 12 42  1  0  0  0  0
 13 14  2  0  0  0  0
 13 15  1  0  0  0  0
 15 16  1  0  0  0  0
 15 17  2  0  0  0  0
 16 43  1  0  0  0  0
 16 44  1  0  0  0  0
 16 45  1  0  0  0  0
 17 18  1  0  0  0  0
 17 19  1  0  0  0  0
 18 46  1  0  0  0  0
 18 47  1  0  0  0  0
 18 48  1  0  0  0  0
 19 20  2  0  0  0  0
M  END
>  <DRUGBANK_ID>
DB18154

>  <COMMON_NAME>
Utreloxastat

>  <CAS_NUMBER>
1213269-96-5

>  <UNII>
WW8KZK2PZT

>  <SYNONYMS>
2,5-cyclohexadiene-1,4-dione, 2,3,5-trimethyl-6-nonyl-

$$$$
