
 OpenBabel10282417072D

 39 42  0  0  0  0  0  0  0  0999 V2000
    2.4453   -0.9755    0.0000 C   0  0  2  0  0  0  0  0  0  0  0  0
    1.7856   -0.8531    0.0000 C   0  0  0  0  0  0  0  0  0  0  0  0
    0.4188   -0.6852    0.0000 N   0  0  0  0  0  0  0  0  0  0  0  0
    1.9261   -0.3294    0.0000 C   0  0  0  0  0  0  0  0  0  0  0  0
    0.8307   -2.2023    0.0000 C   0  0  0  0  0  0  0  0  0  0  0  0
    1.1885   -1.5708    0.0000 C   0  0  0  0  0  0  0  0  0  0  0  0
   -0.2955   -0.2727    0.0000 C   0  0  0  0  0  0  0  0  0  0  0  0
   -1.0101   -0.6852    0.0000 C   0  0  0  0  0  0  0  0  0  0  0  0
   -1.7246   -0.2727    0.0000 C   0  0  0  0  0  0  0  0  0  0  0  0
   -1.7246    0.5522    0.0000 C   0  0  0  0  0  0  0  0  0  0  0  0
   -2.4390    0.9648    0.0000 C   0  0  0  0  0  0  0  0  0  0  0  0
   -3.1534    1.3772    0.0000 N   0  0  0  0  0  0  0  0  0  0  0  0
    3.1534   -1.3989    0.0000 O   0  0  0  0  0  0  0  0  0  0  0  0
   -0.2955    0.5522    0.0000 C   0  0  0  0  0  0  0  0  0  0  0  0
   -1.0101    0.9648    0.0000 C   0  0  0  0  0  0  0  0  0  0  0  0
   -1.0101    1.7898    0.0000 C   0  0  0  0  0  0  0  0  0  0  0  0
   -0.2955    2.2023    0.0000 C   0  0  0  0  0  0  0  0  0  0  0  0
    0.4188    1.7898    0.0000 C   0  0  0  0  0  0  0  0  0  0  0  0
    0.4188    0.9648    0.0000 C   0  0  0  0  0  0  0  0  0  0  0  0
    1.1228   -0.7959    0.0000 C   0  0  1  0  0  0  0  0  0  0  0  0
    0.5654   -0.1876    0.0000 H   0  0  0  0  0  0  0  0  0  0  0  0
    0.9373   -1.3269    0.0000 C   0  0  1  0  0  0  0  0  0  0  0  0
    0.1364   -1.1290    0.0000 H   0  0  0  0  0  0  0  0  0  0  0  0
    3.1479   -0.1685    0.0000 H   0  0  0  0  0  0  0  0  0  0  0  0
    1.6120    0.2027    0.0000 H   0  0  0  0  0  0  0  0  0  0  0  0
    0.8218   -0.3884    0.0000 H   0  0  0  0  0  0  0  0  0  0  0  0
    2.1217    0.7226    0.0000 H   0  0  0  0  0  0  0  0  0  0  0  0
    2.9637   -0.0683    0.0000 H   0  0  0  0  0  0  0  0  0  0  0  0
    0.4958   -3.2185    0.0000 H   0  0  0  0  0  0  0  0  0  0  0  0
    1.8090   -2.6356    0.0000 H   0  0  0  0  0  0  0  0  0  0  0  0
    2.2338   -1.7996    0.0000 H   0  0  0  0  0  0  0  0  0  0  0  0
    1.6247   -2.5478    0.0000 H   0  0  0  0  0  0  0  0  0  0  0  0
   -1.0101   -1.7172    0.0000 H   0  0  0  0  0  0  0  0  0  0  0  0
   -2.6183   -0.7887    0.0000 H   0  0  0  0  0  0  0  0  0  0  0  0
    3.1386   -2.3688    0.0000 H   0  0  0  0  0  0  0  0  0  0  0  0
   -1.9038    2.3058    0.0000 H   0  0  0  0  0  0  0  0  0  0  0  0
   -0.2954    3.2343    0.0000 H   0  0  0  0  0  0  0  0  0  0  0  0
    1.3126    2.3058    0.0000 H   0  0  0  0  0  0  0  0  0  0  0  0
    1.3126    0.4489    0.0000 H   0  0  0  0  0  0  0  0  0  0  0  0
  1 13  1  0  0  0  0
  1  2  1  0  0  0  0
  1 24  1  1  0  0  0
  2 22  1  0  0  0  0
  2 25  1  0  0  0  0
  2 26  1  0  0  0  0
  3 20  1  0  0  0  0
  3  7  1  0  0  0  0
  4  1  1  0  0  0  0
  4 27  1  0  0  0  0
  4 28  1  0  0  0  0
  5  6  1  0  0  0  0
  5 29  1  0  0  0  0
  5 30  1  0  0  0  0
  6 31  1  0  0  0  0
  6 32  1  0  0  0  0
  7  8  2  0  0  0  0
  8  9  1  0  0  0  0
  8 33  1  0  0  0  0
  9 10  2  0  0  0  0
  9 34  1  0  0  0  0
 10 15  1  0  0  0  0
 10 11  1  0  0  0  0
 11 12  3  0  0  0  0
 13 35  1  0  0  0  0
 14  7  1  0  0  0  0
 14 15  1  0  0  0  0
 15 16  2  0  0  0  0
 16 17  1  0  0  0  0
 16 36  1  0  0  0  0
 17 18  2  0  0  0  0
 17 37  1  0  0  0  0
 18 19  1  0  0  0  0
 18 38  1  0  0  0  0
 19 14  2  0  0  0  0
 19 39  1  0  0  0  0
 20  4  1  0  0  0  0
 20  6  1  0  0  0  0
 20 21  1  6  0  0  0
 22  3  1  0  0  0  0
 22  5  1  0  0  0  0
 22 23  1  1  0  0  0
M  END
>  <DRUGBANK_ID>
DB13935

>  <COMMON_NAME>
AC-262536

>  <CAS_NUMBER>
870888-46-3

>  <UNII>
U8VS41J5O6

$$$$
