1446
 OpenBabel10282417072D

 27 28  0  0  1  0  0  0  0  0999 V2000
    3.8597   -1.4804    0.0000 N   0  0  0  0  0  0  0  0  0  0  0  0
    5.1795    1.5859    0.0000 N   0  0  0  0  0  0  0  0  0  0  0  0
    4.1159    0.6316    0.0000 C   0  0  0  0  0  0  0  0  0  0  0  0
    3.8597   -0.1526    0.0000 C   0  0  0  0  0  0  0  0  0  0  0  0
    4.9232    0.8018    0.0000 C   0  0  3  0  0  0  0  0  0  0  0  0
    3.0791   -0.4040    0.0000 C   0  0  0  0  0  0  0  0  0  0  0  0
    3.0791   -1.2290    0.0000 C   0  0  0  0  0  0  0  0  0  0  0  0
    4.3412   -0.8165    0.0000 C   0  0  0  0  0  0  0  0  0  0  0  0
    5.4742    0.1877    0.0000 C   0  0  0  0  0  0  0  0  0  0  0  0
    2.3645    0.0085    0.0000 C   0  0  0  0  0  0  0  0  0  0  0  0
    2.3645   -1.6415    0.0000 C   0  0  0  0  0  0  0  0  0  0  0  0
    1.6500   -0.4040    0.0000 C   0  0  0  0  0  0  0  0  0  0  0  0
    1.6500   -1.2290    0.0000 C   0  0  0  0  0  0  0  0  0  0  0  0
    4.1655   -2.4162    0.0000 H   0  0  0  0  0  0  0  0  0  0  0  0
    6.1776    1.7962    0.0000 H   0  0  0  0  0  0  0  0  0  0  0  0
    4.4983    2.3451    0.0000 H   0  0  0  0  0  0  0  0  0  0  0  0
    3.4012    1.4279    0.0000 H   0  0  0  0  0  0  0  0  0  0  0  0
    4.4482    1.6487    0.0000 H   0  0  0  0  0  0  0  0  0  0  0  0
    4.2086    1.5982    0.0000 H   0  0  0  0  0  0  0  0  0  0  0  0
    5.3732   -0.8165    0.0000 H   0  0  0  0  0  0  0  0  0  0  0  0
    5.1418   -0.8294    0.0000 H   0  0  0  0  0  0  0  0  0  0  0  0
    6.5212    0.4083    0.0000 H   0  0  0  0  0  0  0  0  0  0  0  0
    6.1888   -0.6087    0.0000 H   0  0  0  0  0  0  0  0  0  0  0  0
    2.3645    1.0405    0.0000 H   0  0  0  0  0  0  0  0  0  0  0  0
    2.3645   -2.6735    0.0000 H   0  0  0  0  0  0  0  0  0  0  0  0
    0.7563    0.1120    0.0000 H   0  0  0  0  0  0  0  0  0  0  0  0
    0.7563   -1.7450    0.0000 H   0  0  0  0  0  0  0  0  0  0  0  0
  1  7  1  0  0  0  0
  1  8  1  0  0  0  0
  1 14  1  0  0  0  0
  2  5  1  0  0  0  0
  2 15  1  0  0  0  0
  2 16  1  0  0  0  0
  3  4  1  0  0  0  0
  3  5  1  0  0  0  0
  3 17  1  0  0  0  0
  3 18  1  0  0  0  0
  4  6  1  0  0  0  0
  4  8  2  0  0  0  0
  5  9  1  0  0  0  0
  5 19  1  0  0  0  0
  6  7  1  0  0  0  0
  6 10  2  0  0  0  0
  7 11  2  0  0  0  0
  8 20  1  0  0  0  0
  9 21  1  0  0  0  0
  9 22  1  0  0  0  0
  9 23  1  0  0  0  0
 10 12  1  0  0  0  0
 10 24  1  0  0  0  0
 11 13  1  0  0  0  0
 11 25  1  0  0  0  0
 12 13  2  0  0  0  0
 12 26  1  0  0  0  0
 13 27  1  0  0  0  0
M  END
>  <DRUGBANK_ID>
DB01446

>  <COMMON_NAME>
Indopan

>  <CAS_NUMBER>
299-26-3

>  <UNII>
BIK35ACJ0Q

>  <SYNONYMS>
1-(1H-Indol-3-yl)-2-propanamine; 3-(2-Aminopropyl)indole; alpha-Methyl-1H-indole-3-ethanamine; alpha-Methyl-beta-indoleethylamine; alpha-methyltryptamine; AMT; DL-3-(2-Aminopropyl)indole; Indopan; α-Methyl-3-indoleethanamine; α-methyltryptamine; αMT

$$$$
