
 OpenBabel10282417072D

 79 82  0  0  0  0  0  0  0  0999 V2000
    0.0000    0.0000    0.0000 Zn  0  2  0  0  0  0  0  0  0  0  0  0
    2.3571   -1.6891    0.0000 C   0  0  0  0  0  0  0  0  0  0  0  0
    2.8843   -2.3237    0.0000 C   0  0  0  0  0  0  0  0  0  0  0  0
    3.6975   -2.1845    0.0000 C   0  0  0  0  0  0  0  0  0  0  0  0
    4.2586   -2.7359    0.0000 C   0  0  0  0  0  0  0  0  0  0  0  0
    4.1459   -3.5532    0.0000 C   0  0  0  0  0  0  0  0  0  0  0  0
    5.0162   -2.3194    0.0000 C   0  0  0  0  0  0  0  0  0  0  0  0
    5.7517   -2.7229    0.0000 C   0  0  0  0  0  0  0  0  0  0  0  0
    6.4511   -2.3362    0.0000 C   0  0  0  0  0  0  0  0  0  0  0  0
    6.5906   -1.5444    0.0000 N   0  5  0  0  0  0  0  0  0  0  0  0
    7.4088   -1.3616    0.0000 C   0  0  0  0  0  0  0  0  0  0  0  0
    7.7832   -0.6556    0.0000 C   0  0  0  0  0  0  0  0  0  0  0  0
    7.3670    0.0727    0.0000 C   0  0  0  0  0  0  0  0  0  0  0  0
    6.6048    0.1832    0.0000 N   0  0  0  0  0  0  0  0  0  0  0  0
    6.4512    1.0017    0.0000 C   0  0  0  0  0  0  0  0  0  0  0  0
    5.7452    1.3761    0.0000 C   0  0  0  0  0  0  0  0  0  0  0  0
    5.0166    0.9892    0.0000 C   0  0  0  0  0  0  0  0  0  0  0  0
    4.8479    0.1971    0.0000 N   0  5  0  0  0  0  0  0  0  0  0  0
    4.0587    0.0439    0.0000 C   0  0  0  0  0  0  0  0  0  0  0  0
    3.6847   -0.7207    0.0000 C   0  0  0  0  0  0  0  0  0  0  0  0
    4.0715   -1.4200    0.0000 C   0  0  0  0  0  0  0  0  0  0  0  0
    4.8925   -1.5592    0.0000 N   0  0  0  0  0  0  0  0  0  0  0  0
    3.7012    0.7434    0.0000 C   0  0  0  0  0  0  0  0  0  0  0  0
    2.8857    0.8684    0.0000 C   0  0  0  0  0  0  0  0  0  0  0  0
    4.2817    1.3341    0.0000 C   0  0  0  0  0  0  0  0  0  0  0  0
    4.1359    2.1461    0.0000 C   0  0  0  0  0  0  0  0  0  0  0  0
    4.7662    2.6784    0.0000 C   0  0  0  0  0  0  0  0  0  0  0  0
    4.6204    3.4904    0.0000 C   0  0  0  0  0  0  0  0  0  0  0  0
    5.2507    4.0227    0.0000 O   0  0  0  0  0  0  0  0  0  0  0  0
    3.8443    3.7701    0.0000 O   0  0  0  0  0  0  0  0  0  0  0  0
    7.2091    1.3889    0.0000 C   0  0  0  0  0  0  0  0  0  0  0  0
    7.3341    2.2043    0.0000 C   0  0  0  0  0  0  0  0  0  0  0  0
    8.1029    2.5038    0.0000 C   0  0  0  0  0  0  0  0  0  0  0  0
    8.2279    3.3192    0.0000 C   0  0  0  0  0  0  0  0  0  0  0  0
    7.5843    3.8353    0.0000 O   0  0  0  0  0  0  0  0  0  0  0  0
    8.9967    3.6187    0.0000 O   0  0  0  0  0  0  0  0  0  0  0  0
    7.7702    0.8375    0.0000 C   0  0  0  0  0  0  0  0  0  0  0  0
    8.5853    0.9644    0.0000 C   0  0  0  0  0  0  0  0  0  0  0  0
    7.7963   -2.1487    0.0000 C   0  0  0  0  0  0  0  0  0  0  0  0
    8.6108   -2.2798    0.0000 C   0  0  0  0  0  0  0  0  0  0  0  0
    7.2449   -2.7099    0.0000 C   0  0  0  0  0  0  0  0  0  0  0  0
    7.3902   -3.5220    0.0000 C   0  0  0  0  0  0  0  0  0  0  0  0
    8.1662   -3.8022    0.0000 C   0  0  0  0  0  0  0  0  0  0  0  0
    2.7280   -0.6854    0.0000 H   0  0  0  0  0  0  0  0  0  0  0  0
    1.3025   -1.8697    0.0000 H   0  0  0  0  0  0  0  0  0  0  0  0
    1.6734   -0.8661    0.0000 H   0  0  0  0  0  0  0  0  0  0  0  0
    2.5134   -3.3273    0.0000 H   0  0  0  0  0  0  0  0  0  0  0  0
    3.5680   -3.1468    0.0000 H   0  0  0  0  0  0  0  0  0  0  0  0
    3.1549   -3.9566    0.0000 H   0  0  0  0  0  0  0  0  0  0  0  0
    4.9908   -4.2098    0.0000 H   0  0  0  0  0  0  0  0  0  0  0  0
    3.9997   -4.6132    0.0000 H   0  0  0  0  0  0  0  0  0  0  0  0
    5.7534   -3.7549    0.0000 H   0  0  0  0  0  0  0  0  0  0  0  0
    8.8151   -0.6393    0.0000 H   0  0  0  0  0  0  0  0  0  0  0  0
    5.7449    2.4081    0.0000 H   0  0  0  0  0  0  0  0  0  0  0  0
    2.6530   -0.7467    0.0000 H   0  0  0  0  0  0  0  0  0  0  0  0
    2.4973    1.8654    0.0000 H   0  0  0  0  0  0  0  0  0  0  0  0
    2.2165    0.0335    0.0000 H   0  0  0  0  0  0  0  0  0  0  0  0
    1.8281    1.0305    0.0000 H   0  0  0  0  0  0  0  0  0  0  0  0
    3.1293    2.5089    0.0000 H   0  0  0  0  0  0  0  0  0  0  0  0
    3.9468    3.1993    0.0000 H   0  0  0  0  0  0  0  0  0  0  0  0
    5.7728    2.3156    0.0000 H   0  0  0  0  0  0  0  0  0  0  0  0
    5.5837    3.3688    0.0000 H   0  0  0  0  0  0  0  0  0  0  0  0
    6.1322    3.7050    0.0000 H   0  0  0  0  0  0  0  0  0  0  0  0
    6.4992    2.8735    0.0000 H   0  0  0  0  0  0  0  0  0  0  0  0
    7.4962    3.2619    0.0000 H   0  0  0  0  0  0  0  0  0  0  0  0
    8.9378    1.8346    0.0000 H   0  0  0  0  0  0  0  0  0  0  0  0
    9.0999    2.8922    0.0000 H   0  0  0  0  0  0  0  0  0  0  0  0
    7.7265    4.7615    0.0000 H   0  0  0  0  0  0  0  0  0  0  0  0
    9.2565    0.1311    0.0000 H   0  0  0  0  0  0  0  0  0  0  0  0
    8.9714    1.9623    0.0000 H   0  0  0  0  0  0  0  0  0  0  0  0
    9.6426    1.1290    0.0000 H   0  0  0  0  0  0  0  0  0  0  0  0
    8.9917   -3.2797    0.0000 H   0  0  0  0  0  0  0  0  0  0  0  0
    9.2863   -1.4499    0.0000 H   0  0  0  0  0  0  0  0  0  0  0  0
    9.6672   -2.4498    0.0000 H   0  0  0  0  0  0  0  0  0  0  0  0
    6.5723   -4.2119    0.0000 H   0  0  0  0  0  0  0  0  0  0  0  0
    7.5787   -4.5753    0.0000 H   0  0  0  0  0  0  0  0  0  0  0  0
    8.3547   -4.8555    0.0000 H   0  0  0  0  0  0  0  0  0  0  0  0
    8.9841   -3.1123    0.0000 H   0  0  0  0  0  0  0  0  0  0  0  0
    9.1726   -4.1656    0.0000 H   0  0  0  0  0  0  0  0  0  0  0  0
  2  3  1  0  0  0  0
  2 44  1  0  0  0  0
  2 45  1  0  0  0  0
  2 46  1  0  0  0  0
  3  4  1  0  0  0  0
  3 47  1  0  0  0  0
  3 48  1  0  0  0  0
  4  5  2  0  0  0  0
  4 21  1  0  0  0  0
  5  6  1  0  0  0  0
  5  7  1  0  0  0  0
  6 49  1  0  0  0  0
  6 50  1  0  0  0  0
  6 51  1  0  0  0  0
  7  8  1  0  0  0  0
  7 22  2  0  0  0  0
  8  9  2  0  0  0  0
  8 52  1  0  0  0  0
  9 10  1  0  0  0  0
  9 41  1  0  0  0  0
 10 11  1  0  0  0  0
 11 12  2  0  0  0  0
 11 39  1  0  0  0  0
 12 13  1  0  0  0  0
 12 53  1  0  0  0  0
 13 14  2  0  0  0  0
 13 37  1  0  0  0  0
 14 15  1  0  0  0  0
 15 16  2  0  0  0  0
 15 31  1  0  0  0  0
 16 17  1  0  0  0  0
 16 54  1  0  0  0  0
 17 18  1  0  0  0  0
 17 25  2  0  0  0  0
 18 19  1  0  0  0  0
 19 20  1  0  0  0  0
 19 23  2  0  0  0  0
 20 21  2  0  0  0  0
 20 55  1  0  0  0  0
 21 22  1  0  0  0  0
 23 24  1  0  0  0  0
 23 25  1  0  0  0  0
 24 56  1  0  0  0  0
 24 57  1  0  0  0  0
 24 58  1  0  0  0  0
 25 26  1  0  0  0  0
 26 27  1  0  0  0  0
 26 59  1  0  0  0  0
 26 60  1  0  0  0  0
 27 28  1  0  0  0  0
 27 61  1  0  0  0  0
 27 62  1  0  0  0  0
 28 29  1  0  0  0  0
 28 30  2  0  0  0  0
 29 63  1  0  0  0  0
 31 32  1  0  0  0  0
 31 37  2  0  0  0  0
 32 33  1  0  0  0  0
 32 64  1  0  0  0  0
 32 65  1  0  0  0  0
 33 34  1  0  0  0  0
 33 66  1  0  0  0  0
 33 67  1  0  0  0  0
 34 35  1  0  0  0  0
 34 36  2  0  0  0  0
 35 68  1  0  0  0  0
 37 38  1  0  0  0  0
 38 69  1  0  0  0  0
 38 70  1  0  0  0  0
 38 71  1  0  0  0  0
 39 40  1  0  0  0  0
 39 41  2  0  0  0  0
 40 72  1  0  0  0  0
 40 73  1  0  0  0  0
 40 74  1  0  0  0  0
 41 42  1  0  0  0  0
 42 43  1  0  0  0  0
 42 75  1  0  0  0  0
 42 76  1  0  0  0  0
 43 77  1  0  0  0  0
 43 78  1  0  0  0  0
 43 79  1  0  0  0  0
M  CHG  3   1   2  10  -1  18  -1
M  END
>  <DRUGBANK_ID>
DB17694

>  <COMMON_NAME>
Zinc mesoporphyrin

>  <CAS_NUMBER>
14354-67-7

>  <UNII>
99LY10G7K9

>  <SYNONYMS>
21h,23h-porphine-2,18-dipropanoic acid, 7,12-diethyl-3,8,13,17-tetramethyl-, zinc complex; Zinc (II) mesoporphyrin IX; Zinc mesoporphyrin; Zinc mesoporphyrin ix; Zincate(2-), (7,12-diethyl-3,8,13,17-tetramethyl-21h,23h-porphine-2,18-dipropanoato(4-)-.kappa.n21,.kappa.n22,.kappa.n23,.kappa.n24)-, hydrogen (1:2), (sp-4-2)-; Zn(II) mesoporphyrin IX

$$$$
