
 OpenBabel10282417072D

 84 89  0  0  0  0  0  0  0  0999 V2000
   -6.5215    3.7934    0.0000 C   0  0  0  0  0  0  0  0  0  0  0  0
   -5.6965    3.7934    0.0000 C   0  0  0  0  0  0  0  0  0  0  0  0
   -5.2840    4.5079    0.0000 C   0  0  0  0  0  0  0  0  0  0  0  0
   -4.4590    4.5079    0.0000 C   0  0  0  0  0  0  0  0  0  0  0  0
   -4.0465    3.7934    0.0000 C   0  0  0  0  0  0  0  0  0  0  0  0
   -4.4590    3.0789    0.0000 C   0  0  0  0  0  0  0  0  0  0  0  0
   -5.2840    3.0789    0.0000 C   0  0  0  0  0  0  0  0  0  0  0  0
   -4.0465    2.3645    0.0000 N   0  0  0  0  0  0  0  0  0  0  0  0
   -3.2215    2.3645    0.0000 C   0  0  0  0  0  0  0  0  0  0  0  0
   -2.8090    3.0789    0.0000 O   0  0  0  0  0  0  0  0  0  0  0  0
   -2.8090    1.6500    0.0000 N   0  0  0  0  0  0  0  0  0  0  0  0
   -1.9840    1.6500    0.0000 C   0  0  0  0  0  0  0  0  0  0  0  0
   -1.4991    2.3174    0.0000 N   0  0  0  0  0  0  0  0  0  0  0  0
   -0.7145    2.0625    0.0000 C   0  0  0  0  0  0  0  0  0  0  0  0
    0.0000    2.4750    0.0000 C   0  0  0  0  0  0  0  0  0  0  0  0
    0.7145    2.0625    0.0000 C   0  0  0  0  0  0  0  0  0  0  0  0
    0.7145    1.2375    0.0000 C   0  0  0  0  0  0  0  0  0  0  0  0
    0.0000    0.8250    0.0000 C   0  0  0  0  0  0  0  0  0  0  0  0
   -0.7145    1.2375    0.0000 C   0  0  0  0  0  0  0  0  0  0  0  0
   -1.4991    0.9826    0.0000 S   0  0  0  0  0  0  0  0  0  0  0  0
    1.4289    0.8250    0.0000 N   0  0  0  0  0  0  0  0  0  0  0  0
    1.4289    0.0000    0.0000 C   0  0  0  0  0  0  0  0  0  0  0  0
    2.1434   -0.4125    0.0000 C   0  0  0  0  0  0  0  0  0  0  0  0
    2.8579    0.0000    0.0000 C   0  0  0  0  0  0  0  0  0  0  0  0
    3.5724   -0.4125    0.0000 C   0  0  0  0  0  0  0  0  0  0  0  0
    3.5724   -1.2375    0.0000 C   0  0  0  0  0  0  0  0  0  0  0  0
    2.8579   -1.6500    0.0000 C   0  0  0  0  0  0  0  0  0  0  0  0
    2.1434   -1.2375    0.0000 C   0  0  0  0  0  0  0  0  0  0  0  0
    1.4289   -1.6500    0.0000 N   0  0  0  0  0  0  0  0  0  0  0  0
    0.7145   -1.2375    0.0000 C   0  0  0  0  0  0  0  0  0  0  0  0
    0.7145   -0.4125    0.0000 N   0  0  0  0  0  0  0  0  0  0  0  0
    4.2868   -1.6500    0.0000 O   0  0  0  0  0  0  0  0  0  0  0  0
    5.0013   -1.2375    0.0000 C   0  0  0  0  0  0  0  0  0  0  0  0
    5.7158   -1.6500    0.0000 C   0  0  0  0  0  0  0  0  0  0  0  0
    6.4302   -1.2375    0.0000 C   0  0  0  0  0  0  0  0  0  0  0  0
    7.1447   -1.6500    0.0000 N   0  0  0  0  0  0  0  0  0  0  0  0
    7.8592   -1.2375    0.0000 C   0  0  0  0  0  0  0  0  0  0  0  0
    8.5737   -1.6500    0.0000 C   0  0  0  0  0  0  0  0  0  0  0  0
    8.5737   -2.4750    0.0000 N   0  0  0  0  0  0  0  0  0  0  0  0
    7.8592   -2.8875    0.0000 C   0  0  0  0  0  0  0  0  0  0  0  0
    7.1447   -2.4750    0.0000 C   0  0  0  0  0  0  0  0  0  0  0  0
    9.2881   -2.8875    0.0000 C   0  0  0  0  0  0  0  0  0  0  0  0
    4.2868   -0.0000    0.0000 O   0  0  0  0  0  0  0  0  0  0  0  0
    5.0013   -0.4125    0.0000 C   0  0  0  0  0  0  0  0  0  0  0  0
   -3.2215    3.7934    0.0000 O   0  0  0  0  0  0  0  0  0  0  0  0
   -2.8090    4.5079    0.0000 C   0  0  0  0  0  0  0  0  0  0  0  0
   -7.0565    4.7200    0.0000 H   0  0  0  0  0  0  0  0  0  0  0  0
   -7.0565    2.8668    0.0000 H   0  0  0  0  0  0  0  0  0  0  0  0
   -7.5915    3.7934    0.0000 H   0  0  0  0  0  0  0  0  0  0  0  0
   -5.8000    5.4016    0.0000 H   0  0  0  0  0  0  0  0  0  0  0  0
   -3.9430    5.4016    0.0000 H   0  0  0  0  0  0  0  0  0  0  0  0
   -5.8000    2.1852    0.0000 H   0  0  0  0  0  0  0  0  0  0  0  0
   -4.5387    1.5119    0.0000 H   0  0  0  0  0  0  0  0  0  0  0  0
   -3.3013    0.7974    0.0000 H   0  0  0  0  0  0  0  0  0  0  0  0
    0.0000    3.5070    0.0000 H   0  0  0  0  0  0  0  0  0  0  0  0
    1.6082    2.5785    0.0000 H   0  0  0  0  0  0  0  0  0  0  0  0
    0.0000   -0.2070    0.0000 H   0  0  0  0  0  0  0  0  0  0  0  0
    2.2815    1.3172    0.0000 H   0  0  0  0  0  0  0  0  0  0  0  0
    2.8579    1.0320    0.0000 H   0  0  0  0  0  0  0  0  0  0  0  0
    2.8579   -2.6820    0.0000 H   0  0  0  0  0  0  0  0  0  0  0  0
   -0.1792   -1.7535    0.0000 H   0  0  0  0  0  0  0  0  0  0  0  0
    5.0013   -0.1675    0.0000 H   0  0  0  0  0  0  0  0  0  0  0  0
    5.9279   -0.7025    0.0000 H   0  0  0  0  0  0  0  0  0  0  0  0
    5.7158   -2.7200    0.0000 H   0  0  0  0  0  0  0  0  0  0  0  0
    6.6425   -2.1850    0.0000 H   0  0  0  0  0  0  0  0  0  0  0  0
    6.4302   -0.1675    0.0000 H   0  0  0  0  0  0  0  0  0  0  0  0
    7.3568   -0.7025    0.0000 H   0  0  0  0  0  0  0  0  0  0  0  0
    7.8592   -0.1675    0.0000 H   0  0  0  0  0  0  0  0  0  0  0  0
    8.7858   -0.7025    0.0000 H   0  0  0  0  0  0  0  0  0  0  0  0
    9.5003   -1.1150    0.0000 H   0  0  0  0  0  0  0  0  0  0  0  0
    9.5003   -2.1850    0.0000 H   0  0  0  0  0  0  0  0  0  0  0  0
    7.8592   -3.9575    0.0000 H   0  0  0  0  0  0  0  0  0  0  0  0
    6.9326   -3.4225    0.0000 H   0  0  0  0  0  0  0  0  0  0  0  0
    6.2181   -3.0100    0.0000 H   0  0  0  0  0  0  0  0  0  0  0  0
    6.2181   -1.9400    0.0000 H   0  0  0  0  0  0  0  0  0  0  0  0
    9.2881   -3.9575    0.0000 H   0  0  0  0  0  0  0  0  0  0  0  0
   10.2148   -2.3525    0.0000 H   0  0  0  0  0  0  0  0  0  0  0  0
   10.2147   -3.4225    0.0000 H   0  0  0  0  0  0  0  0  0  0  0  0
    5.0013   -1.4825    0.0000 H   0  0  0  0  0  0  0  0  0  0  0  0
    5.9279    0.1225    0.0000 H   0  0  0  0  0  0  0  0  0  0  0  0
    5.9280   -0.9475    0.0000 H   0  0  0  0  0  0  0  0  0  0  0  0
   -1.7390    4.5079    0.0000 H   0  0  0  0  0  0  0  0  0  0  0  0
   -3.3440    5.4345    0.0000 H   0  0  0  0  0  0  0  0  0  0  0  0
   -2.2740    5.4346    0.0000 H   0  0  0  0  0  0  0  0  0  0  0  0
  1  2  1  0  0  0  0
  1 47  1  0  0  0  0
  1 48  1  0  0  0  0
  1 49  1  0  0  0  0
  2  3  2  0  0  0  0
  2  7  1  0  0  0  0
  3  4  1  0  0  0  0
  3 50  1  0  0  0  0
  4  5  2  0  0  0  0
  4 51  1  0  0  0  0
  5  6  1  0  0  0  0
  5 45  1  0  0  0  0
  6  7  2  0  0  0  0
  6  8  1  0  0  0  0
  7 52  1  0  0  0  0
  8  9  1  0  0  0  0
  8 53  1  0  0  0  0
  9 10  2  0  0  0  0
  9 11  1  0  0  0  0
 11 12  1  0  0  0  0
 11 54  1  0  0  0  0
 12 13  2  0  0  0  0
 12 20  1  0  0  0  0
 13 14  1  0  0  0  0
 14 15  2  0  0  0  0
 14 19  1  0  0  0  0
 15 16  1  0  0  0  0
 15 55  1  0  0  0  0
 16 17  2  0  0  0  0
 16 56  1  0  0  0  0
 17 18  1  0  0  0  0
 17 21  1  0  0  0  0
 18 19  2  0  0  0  0
 18 57  1  0  0  0  0
 19 20  1  0  0  0  0
 21 22  1  0  0  0  0
 21 58  1  0  0  0  0
 22 23  1  0  0  0  0
 22 31  2  0  0  0  0
 23 24  2  0  0  0  0
 23 28  1  0  0  0  0
 24 25  1  0  0  0  0
 24 59  1  0  0  0  0
 25 26  2  0  0  0  0
 25 43  1  0  0  0  0
 26 27  1  0  0  0  0
 26 32  1  0  0  0  0
 27 28  2  0  0  0  0
 27 60  1  0  0  0  0
 28 29  1  0  0  0  0
 29 30  2  0  0  0  0
 30 31  1  0  0  0  0
 30 61  1  0  0  0  0
 32 33  1  0  0  0  0
 33 34  1  0  0  0  0
 33 62  1  0  0  0  0
 33 63  1  0  0  0  0
 34 35  1  0  0  0  0
 34 64  1  0  0  0  0
 34 65  1  0  0  0  0
 35 36  1  0  0  0  0
 35 66  1  0  0  0  0
 35 67  1  0  0  0  0
 36 37  1  0  0  0  0
 36 41  1  0  0  0  0
 37 38  1  0  0  0  0
 37 68  1  0  0  0  0
 37 69  1  0  0  0  0
 38 39  1  0  0  0  0
 38 70  1  0  0  0  0
 38 71  1  0  0  0  0
 39 40  1  0  0  0  0
 39 42  1  0  0  0  0
 40 41  1  0  0  0  0
 40 72  1  0  0  0  0
 40 73  1  0  0  0  0
 41 74  1  0  0  0  0
 41 75  1  0  0  0  0
 42 76  1  0  0  0  0
 42 77  1  0  0  0  0
 42 78  1  0  0  0  0
 43 44  1  0  0  0  0
 44 79  1  0  0  0  0
 44 80  1  0  0  0  0
 44 81  1  0  0  0  0
 45 46  1  0  0  0  0
 46 82  1  0  0  0  0
 46 83  1  0  0  0  0
 46 84  1  0  0  0  0
M  END
>  <DRUGBANK_ID>
DB12669

>  <COMMON_NAME>
4SC-203

>  <CAS_NUMBER>
895533-09-2

>  <UNII>
RFG3GJ6251

$$$$
