SA1
 OpenBabel10282417072D

 41 43  0  0  0  0  0  0  0  0999 V2000
   -1.1494    0.9778    0.0000 C   0  0  0  0  0  0  0  0  0  0  0  0
   -0.6645    0.3104    0.0000 O   0  0  0  0  0  0  0  0  0  0  0  0
    0.1201    0.5653    0.0000 C   0  0  1  0  0  0  0  0  0  0  0  0
    0.1201   -0.2597    0.0000 C   0  0  0  0  0  0  0  0  0  0  0  0
    0.1201    1.3903    0.0000 C   0  0  2  0  0  0  0  0  0  0  0  0
    0.9048    1.6453    0.0000 C   0  0  0  0  0  0  0  0  0  0  0  0
    1.1597    2.4299    0.0000 O   0  0  0  0  0  0  0  0  0  0  0  0
    1.3897    0.9778    0.0000 N   0  0  0  0  0  0  0  0  0  0  0  0
    0.9048    0.3104    0.0000 C   0  0  2  0  0  0  0  0  0  0  0  0
    0.7417   -0.4983    0.0000 C   0  0  2  0  0  0  0  0  0  0  0  0
   -0.0402   -0.7615    0.0000 C   0  0  2  0  0  0  0  0  0  0  0  0
   -0.2033   -1.5702    0.0000 C   0  0  0  0  0  0  0  0  0  0  0  0
   -0.9852   -1.8334    0.0000 C   0  0  0  0  0  0  0  0  0  0  0  0
   -1.6040   -1.2878    0.0000 C   0  0  0  0  0  0  0  0  0  0  0  0
   -1.4410   -0.4790    0.0000 C   0  0  0  0  0  0  0  0  0  0  0  0
   -0.6591   -0.2159    0.0000 C   0  0  0  0  0  0  0  0  0  0  0  0
    1.3605   -1.0439    0.0000 O   0  0  0  0  0  0  0  0  0  0  0  0
    1.5120   -0.2480    0.0000 C   0  0  0  0  0  0  0  0  0  0  0  0
    2.2993   -0.0013    0.0000 O   0  0  0  0  0  0  0  0  0  0  0  0
   -0.6645    1.6453    0.0000 C   0  0  0  0  0  0  0  0  0  0  0  0
    0.1201    1.9742    0.0000 H   0  0  0  0  0  0  0  0  0  0  0  0
    0.1579   -0.4841    0.0000 H   0  0  0  0  0  0  0  0  0  0  0  0
    0.3978   -1.1476    0.0000 H   0  0  0  0  0  0  0  0  0  0  0  0
   -2.2194    0.9778    0.0000 H   0  0  0  0  0  0  0  0  0  0  0  0
   -1.6352    1.9312    0.0000 H   0  0  0  0  0  0  0  0  0  0  0  0
   -0.8065   -0.7947    0.0000 H   0  0  0  0  0  0  0  0  0  0  0  0
    1.0467   -0.7947    0.0000 H   0  0  0  0  0  0  0  0  0  0  0  0
    0.1201   -1.3297    0.0000 H   0  0  0  0  0  0  0  0  0  0  0  0
    2.3742    0.9778    0.0000 H   0  0  0  0  0  0  0  0  0  0  0  0
    0.5708   -2.2527    0.0000 H   0  0  0  0  0  0  0  0  0  0  0  0
   -1.1892   -2.8450    0.0000 H   0  0  0  0  0  0  0  0  0  0  0  0
   -2.6181   -1.6291    0.0000 H   0  0  0  0  0  0  0  0  0  0  0  0
   -2.4067   -0.5802    0.0000 H   0  0  0  0  0  0  0  0  0  0  0  0
   -2.2436    0.2286    0.0000 H   0  0  0  0  0  0  0  0  0  0  0  0
   -1.2295    0.5699    0.0000 H   0  0  0  0  0  0  0  0  0  0  0  0
   -0.4476    0.8330    0.0000 H   0  0  0  0  0  0  0  0  0  0  0  0
   -1.4617    0.4917    0.0000 H   0  0  0  0  0  0  0  0  0  0  0  0
    1.1687   -1.9948    0.0000 H   0  0  0  0  0  0  0  0  0  0  0  0
    1.2868   -1.2551    0.0000 H   0  0  0  0  0  0  0  0  0  0  0  0
   -0.9951    2.6629    0.0000 H   0  0  0  0  0  0  0  0  0  0  0  0
    0.0921    2.4019    0.0000 H   0  0  0  0  0  0  0  0  0  0  0  0
  1  2  1  0  0  0  0
  1 20  1  0  0  0  0
  1 24  1  0  0  0  0
  1 25  1  0  0  0  0
  2  3  1  0  0  0  0
  3  4  1  6  0  0  0
  3  5  1  0  0  0  0
  3  9  1  0  0  0  0
  4 26  1  0  0  0  0
  4 27  1  0  0  0  0
  4 28  1  0  0  0  0
  5  6  1  0  0  0  0
  5 20  1  0  0  0  0
  5 21  1  6  0  0  0
  6  7  2  0  0  0  0
  6  8  1  0  0  0  0
  8  9  1  0  0  0  0
  8 29  1  0  0  0  0
  9 10  1  0  0  0  0
  9 18  1  1  0  0  0
 10 17  1  0  0  0  0
 10 22  1  6  0  0  0
 11 10  1  0  0  0  0
 11 12  1  0  0  0  0
 11 16  1  0  0  0  0
 11 23  1  1  0  0  0
 12 13  2  0  0  0  0
 12 30  1  0  0  0  0
 13 14  1  0  0  0  0
 13 31  1  0  0  0  0
 14 15  1  0  0  0  0
 14 32  1  0  0  0  0
 14 33  1  0  0  0  0
 15 16  1  0  0  0  0
 15 34  1  0  0  0  0
 15 35  1  0  0  0  0
 16 36  1  0  0  0  0
 16 37  1  0  0  0  0
 17 38  1  0  0  0  0
 18 19  2  0  0  0  0
 18 39  1  0  0  0  0
 20 40  1  0  0  0  0
 20 41  1  0  0  0  0
M  END
>  <DRUGBANK_ID>
DB08515

>  <COMMON_NAME>
(3AR,6R,6AS)-6-((S)-((S)-CYCLOHEX-2-ENYL)(HYDROXY)METHYL)-6A-METHYL-4-OXO-HEXAHYDRO-2H-FURO[3,2-C]PYRROLE-6-CARBALDEHYDE

$$$$
