161
 OpenBabel10282417072D

 52 53  0  0  0  0  0  0  0  0999 V2000
   -2.1586    2.7221    0.0000 C   0  0  0  0  0  0  0  0  0  0  0  0
   -2.8731    2.3096    0.0000 C   0  0  0  0  0  0  0  0  0  0  0  0
   -3.5876    2.7221    0.0000 O   0  0  0  0  0  0  0  0  0  0  0  0
   -2.8731    1.4846    0.0000 C   0  0  2  0  0  0  0  0  0  0  0  0
   -3.5876    1.0721    0.0000 C   0  0  0  0  0  0  0  0  0  0  0  0
   -4.3020    1.4846    0.0000 C   0  0  0  0  0  0  0  0  0  0  0  0
   -5.0165    1.0721    0.0000 O   0  0  0  0  0  0  0  0  0  0  0  0
   -4.3020    2.3096    0.0000 O   0  0  0  0  0  0  0  0  0  0  0  0
   -2.1586    1.0721    0.0000 N   0  0  0  0  0  0  0  0  0  0  0  0
   -1.4441    1.4846    0.0000 C   0  0  0  0  0  0  0  0  0  0  0  0
   -1.4441    2.3096    0.0000 O   0  0  0  0  0  0  0  0  0  0  0  0
   -0.7297    1.0721    0.0000 C   0  0  0  0  0  0  0  0  0  0  0  0
   -0.0152    1.4846    0.0000 C   0  0  0  0  0  0  0  0  0  0  0  0
    0.6993    1.0721    0.0000 C   0  0  0  0  0  0  0  0  0  0  0  0
   -0.7297    0.2471    0.0000 C   0  0  0  0  0  0  0  0  0  0  0  0
   -0.0152   -0.1654    0.0000 C   0  0  0  0  0  0  0  0  0  0  0  0
    0.6993    0.2471    0.0000 C   0  0  0  0  0  0  0  0  0  0  0  0
    1.4137   -0.1654    0.0000 C   0  0  0  0  0  0  0  0  0  0  0  0
    1.4137   -0.9904    0.0000 N   0  0  0  0  0  0  0  0  0  0  0  0
    2.1282   -1.4029    0.0000 S   0  0  0  0  0  0  0  0  0  0  0  0
    1.7157   -2.1173    0.0000 O   0  0  0  0  0  0  0  0  0  0  0  0
    2.5407   -0.6884    0.0000 O   0  0  0  0  0  0  0  0  0  0  0  0
    2.8427   -1.8154    0.0000 C   0  0  0  0  0  0  0  0  0  0  0  0
    3.5572   -1.4029    0.0000 C   0  0  0  0  0  0  0  0  0  0  0  0
    2.8427   -2.6404    0.0000 C   0  0  0  0  0  0  0  0  0  0  0  0
    3.5572   -3.0529    0.0000 C   0  0  0  0  0  0  0  0  0  0  0  0
    4.2716   -2.6404    0.0000 C   0  0  0  0  0  0  0  0  0  0  0  0
    4.9861   -3.0529    0.0000 O   0  0  0  0  0  0  0  0  0  0  0  0
    4.2716   -1.8154    0.0000 C   0  0  0  0  0  0  0  0  0  0  0  0
    4.9861   -1.4029    0.0000 C   0  0  0  0  0  0  0  0  0  0  0  0
    5.7006   -1.8154    0.0000 O   0  0  0  0  0  0  0  0  0  0  0  0
    4.9861   -0.5779    0.0000 O   0  0  0  0  0  0  0  0  0  0  0  0
   -3.3788    1.7766    0.0000 H   0  0  0  0  0  0  0  0  0  0  0  0
   -1.2320    2.1871    0.0000 H   0  0  0  0  0  0  0  0  0  0  0  0
   -2.1586    3.7921    0.0000 H   0  0  0  0  0  0  0  0  0  0  0  0
   -1.2319    3.2571    0.0000 H   0  0  0  0  0  0  0  0  0  0  0  0
   -3.5876    0.0021    0.0000 H   0  0  0  0  0  0  0  0  0  0  0  0
   -4.5143    0.5371    0.0000 H   0  0  0  0  0  0  0  0  0  0  0  0
   -5.8280    1.5406    0.0000 H   0  0  0  0  0  0  0  0  0  0  0  0
   -2.1586    0.0876    0.0000 H   0  0  0  0  0  0  0  0  0  0  0  0
   -0.0152    2.5166    0.0000 H   0  0  0  0  0  0  0  0  0  0  0  0
    1.5930    1.5881    0.0000 H   0  0  0  0  0  0  0  0  0  0  0  0
   -1.6234   -0.2689    0.0000 H   0  0  0  0  0  0  0  0  0  0  0  0
   -0.0152   -1.1974    0.0000 H   0  0  0  0  0  0  0  0  0  0  0  0
    2.3404    0.3696    0.0000 H   0  0  0  0  0  0  0  0  0  0  0  0
    2.3403   -0.7004    0.0000 H   0  0  0  0  0  0  0  0  0  0  0  0
    0.5304   -1.5004    0.0000 H   0  0  0  0  0  0  0  0  0  0  0  0
    3.5572   -0.3709    0.0000 H   0  0  0  0  0  0  0  0  0  0  0  0
    1.9490   -3.1564    0.0000 H   0  0  0  0  0  0  0  0  0  0  0  0
    3.5572   -4.0849    0.0000 H   0  0  0  0  0  0  0  0  0  0  0  0
    4.9861   -3.9899    0.0000 H   0  0  0  0  0  0  0  0  0  0  0  0
    5.7006   -2.7524    0.0000 H   0  0  0  0  0  0  0  0  0  0  0  0
  1  2  1  0  0  0  0
  1 34  1  0  0  0  0
  1 35  1  0  0  0  0
  1 36  1  0  0  0  0
  2  3  2  0  0  0  0
  2  4  1  0  0  0  0
  4  5  1  0  0  0  0
  4  9  1  0  0  0  0
  4 33  1  6  0  0  0
  5  6  1  0  0  0  0
  5 37  1  0  0  0  0
  5 38  1  0  0  0  0
  6  7  1  0  0  0  0
  6  8  2  0  0  0  0
  7 39  1  0  0  0  0
  9 10  1  0  0  0  0
  9 40  1  0  0  0  0
 10 11  2  0  0  0  0
 10 12  1  0  0  0  0
 12 13  2  0  0  0  0
 12 15  1  0  0  0  0
 13 14  1  0  0  0  0
 13 41  1  0  0  0  0
 14 17  2  0  0  0  0
 14 42  1  0  0  0  0
 15 16  2  0  0  0  0
 15 43  1  0  0  0  0
 16 17  1  0  0  0  0
 16 44  1  0  0  0  0
 17 18  1  0  0  0  0
 18 19  1  0  0  0  0
 18 45  1  0  0  0  0
 18 46  1  0  0  0  0
 19 20  1  0  0  0  0
 19 47  1  0  0  0  0
 20 21  2  0  0  0  0
 20 22  2  0  0  0  0
 20 23  1  0  0  0  0
 23 24  2  0  0  0  0
 23 25  1  0  0  0  0
 24 29  1  0  0  0  0
 24 48  1  0  0  0  0
 25 26  2  0  0  0  0
 25 49  1  0  0  0  0
 26 27  1  0  0  0  0
 26 50  1  0  0  0  0
 27 28  1  0  0  0  0
 27 29  2  0  0  0  0
 28 51  1  0  0  0  0
 29 30  1  0  0  0  0
 30 31  1  0  0  0  0
 30 32  2  0  0  0  0
 31 52  1  0  0  0  0
M  END
>  <DRUGBANK_ID>
DB03124

>  <SECONDARY_ACCESSION_NUMBERS>
EXPT00045

>  <COMMON_NAME>
5-[4-(1-Carboxymethyl-2-Oxo-Propylcarbamoyl)-Benzylsulfamoyl]-2-Hydroxy-Benzoic Acid

$$$$
