
 OpenBabel10282417072D

 29 29  0  0  0  0  0  0  0  0999 V2000
   -0.7145    0.4125    0.0000 C   0  0  0  0  0  0  0  0  0  0  0  0
   -1.4290    0.0000    0.0000 C   0  0  0  0  0  0  0  0  0  0  0  0
    0.0000    0.0000    0.0000 C   0  0  0  0  0  0  0  0  0  0  0  0
   -1.4290   -0.8250    0.0000 C   0  0  0  0  0  0  0  0  0  0  0  0
    0.0000   -0.8250    0.0000 C   0  0  0  0  0  0  0  0  0  0  0  0
   -0.7145   -1.2374    0.0000 C   0  0  0  0  0  0  0  0  0  0  0  0
    0.7144    0.4125    0.0000 C   0  0  0  0  0  0  0  0  0  0  0  0
    1.4289    0.0000    0.0000 C   0  0  0  0  0  0  0  0  0  0  0  0
    2.1433    0.4124    0.0000 C   0  0  0  0  0  0  0  0  0  0  0  0
    2.8579    0.0000    0.0000 O   0  0  0  0  0  0  0  0  0  0  0  0
    2.1433    1.2374    0.0000 O   0  0  0  0  0  0  0  0  0  0  0  0
   -2.1435    0.4125    0.0000 O   0  0  0  0  0  0  0  0  0  0  0  0
   -2.1434   -1.2374    0.0000 O   0  0  0  0  0  0  0  0  0  0  0  0
   -2.1435    1.2375    0.0000 C   0  0  0  0  0  0  0  0  0  0  0  0
   -2.8579   -0.8250    0.0000 C   0  0  0  0  0  0  0  0  0  0  0  0
   -0.7145    1.4445    0.0000 H   0  0  0  0  0  0  0  0  0  0  0  0
    0.8937   -1.3411    0.0000 H   0  0  0  0  0  0  0  0  0  0  0  0
   -0.7145   -2.2694    0.0000 H   0  0  0  0  0  0  0  0  0  0  0  0
    0.7144    1.4825    0.0000 H   0  0  0  0  0  0  0  0  0  0  0  0
    1.6410    0.9475    0.0000 H   0  0  0  0  0  0  0  0  0  0  0  0
    1.4289   -1.0700    0.0000 H   0  0  0  0  0  0  0  0  0  0  0  0
    2.3555   -0.5350    0.0000 H   0  0  0  0  0  0  0  0  0  0  0  0
    2.8581   -0.9370    0.0000 H   0  0  0  0  0  0  0  0  0  0  0  0
   -1.2169    1.7725    0.0000 H   0  0  0  0  0  0  0  0  0  0  0  0
   -3.0701    1.7725    0.0000 H   0  0  0  0  0  0  0  0  0  0  0  0
   -2.1435    2.3075    0.0000 H   0  0  0  0  0  0  0  0  0  0  0  0
   -2.8580    0.2450    0.0000 H   0  0  0  0  0  0  0  0  0  0  0  0
   -3.7845   -1.3601    0.0000 H   0  0  0  0  0  0  0  0  0  0  0  0
   -3.7846   -0.2901    0.0000 H   0  0  0  0  0  0  0  0  0  0  0  0
  1 16  1  0  0  0  0
  2  1  1  0  0  0  0
  2 12  1  0  0  0  0
  3  1  2  0  0  0  0
  3  7  1  0  0  0  0
  4  2  2  0  0  0  0
  4 13  1  0  0  0  0
  5  3  1  0  0  0  0
  5 17  1  0  0  0  0
  6  4  1  0  0  0  0
  6  5  2  0  0  0  0
  6 18  1  0  0  0  0
  7  8  1  0  0  0  0
  7 19  1  0  0  0  0
  7 20  1  0  0  0  0
  8  9  1  0  0  0  0
  8 21  1  0  0  0  0
  8 22  1  0  0  0  0
  9 10  1  0  0  0  0
  9 11  2  0  0  0  0
 10 23  1  0  0  0  0
 12 14  1  0  0  0  0
 13 15  1  0  0  0  0
 14 24  1  0  0  0  0
 14 25  1  0  0  0  0
 14 26  1  0  0  0  0
 15 27  1  0  0  0  0
 15 28  1  0  0  0  0
 15 29  1  0  0  0  0
M  END
>  <DRUGBANK_ID>
DB04208

>  <SECONDARY_ACCESSION_NUMBERS>
EXPT02225

>  <COMMON_NAME>
3-(3,4-dimethoxyphenyl)propanoic acid

>  <CAS_NUMBER>
2107-70-2

>  <UNII>
6XO32ZSP1D

>  <SYNONYMS>
3-(3,4-dimethoxyphenyl)propionic acid; 3,4-dimethoxy-α-β-dihydrocinnamic acid

$$$$
