
 OpenBabel10282417072D

 62 64  0  0  1  0  0  0  0  0999 V2000
   -4.1706    3.0872    0.0000 C   0  0  0  0  0  0  0  0  0  0  0  0
   -3.7581    2.3727    0.0000 C   0  0  0  0  0  0  0  0  0  0  0  0
   -4.4726    1.9602    0.0000 C   0  0  0  0  0  0  0  0  0  0  0  0
   -3.0436    2.7852    0.0000 C   0  0  0  0  0  0  0  0  0  0  0  0
   -3.3456    1.6583    0.0000 O   0  0  0  0  0  0  0  0  0  0  0  0
   -2.5206    1.6583    0.0000 C   0  0  0  0  0  0  0  0  0  0  0  0
   -2.1081    2.3727    0.0000 O   0  0  0  0  0  0  0  0  0  0  0  0
   -2.1081    0.9438    0.0000 N   0  0  0  0  0  0  0  0  0  0  0  0
   -1.2831    0.9438    0.0000 C   0  0  0  0  0  0  0  0  0  0  0  0
   -0.8706    0.2293    0.0000 C   0  0  0  0  0  0  0  0  0  0  0  0
   -0.0456    0.2293    0.0000 N   0  0  0  0  0  0  0  0  0  0  0  0
    0.2701   -0.5329    0.0000 C   0  0  0  0  0  0  0  0  0  0  0  0
    1.0323   -0.8486    0.0000 C   0  0  2  0  0  0  0  0  0  0  0  0
    1.7945   -0.5329    0.0000 C   0  0  0  0  0  0  0  0  0  0  0  0
    2.1102    0.2293    0.0000 N   0  0  0  0  0  0  0  0  0  0  0  0
    1.7945    0.9915    0.0000 C   0  0  0  0  0  0  0  0  0  0  0  0
    1.0323    1.3072    0.0000 C   0  0  2  0  0  0  0  0  0  0  0  0
    0.2701    0.9915    0.0000 C   0  0  0  0  0  0  0  0  0  0  0  0
    0.7628    0.2293    0.0000 O   0  0  0  0  0  0  0  0  0  0  0  0
    2.9352    0.2293    0.0000 C   0  0  0  0  0  0  0  0  0  0  0  0
    3.3477   -0.4851    0.0000 C   0  0  0  0  0  0  0  0  0  0  0  0
    4.1727   -0.4851    0.0000 O   0  0  0  0  0  0  0  0  0  0  0  0
    4.5852   -1.1996    0.0000 C   0  0  0  0  0  0  0  0  0  0  0  0
    5.4102   -1.1996    0.0000 C   0  0  0  0  0  0  0  0  0  0  0  0
    5.8227   -1.9141    0.0000 C   0  0  0  0  0  0  0  0  0  0  0  0
    5.4102   -2.6285    0.0000 C   0  0  0  0  0  0  0  0  0  0  0  0
    4.5852   -2.6285    0.0000 C   0  0  0  0  0  0  0  0  0  0  0  0
    4.1727   -1.9141    0.0000 C   0  0  0  0  0  0  0  0  0  0  0  0
    3.3477   -1.9141    0.0000 F   0  0  0  0  0  0  0  0  0  0  0  0
    5.8227   -3.3430    0.0000 C   0  0  0  0  0  0  0  0  0  0  0  0
    6.2352   -4.0575    0.0000 N   0  0  0  0  0  0  0  0  0  0  0  0
   -3.6356    4.0138    0.0000 H   0  0  0  0  0  0  0  0  0  0  0  0
   -5.2406    3.0872    0.0000 H   0  0  0  0  0  0  0  0  0  0  0  0
   -4.7056    4.0139    0.0000 H   0  0  0  0  0  0  0  0  0  0  0  0
   -5.3992    2.4952    0.0000 H   0  0  0  0  0  0  0  0  0  0  0  0
   -4.4726    0.8902    0.0000 H   0  0  0  0  0  0  0  0  0  0  0  0
   -5.3993    1.4252    0.0000 H   0  0  0  0  0  0  0  0  0  0  0  0
   -2.1170    2.2502    0.0000 H   0  0  0  0  0  0  0  0  0  0  0  0
   -3.0436    3.8552    0.0000 H   0  0  0  0  0  0  0  0  0  0  0  0
   -2.1169    3.3202    0.0000 H   0  0  0  0  0  0  0  0  0  0  0  0
   -2.6004    0.0912    0.0000 H   0  0  0  0  0  0  0  0  0  0  0  0
   -0.7481    1.8704    0.0000 H   0  0  0  0  0  0  0  0  0  0  0  0
   -0.2131    0.9438    0.0000 H   0  0  0  0  0  0  0  0  0  0  0  0
   -1.4056   -0.6973    0.0000 H   0  0  0  0  0  0  0  0  0  0  0  0
   -0.3356   -0.6973    0.0000 H   0  0  0  0  0  0  0  0  0  0  0  0
   -0.4865   -1.2895    0.0000 H   0  0  0  0  0  0  0  0  0  0  0  0
    0.4789   -1.5823    0.0000 H   0  0  0  0  0  0  0  0  0  0  0  0
    0.3336   -0.0382    0.0000 H   0  0  0  0  0  0  0  0  0  0  0  0
    2.5511   -1.2895    0.0000 H   0  0  0  0  0  0  0  0  0  0  0  0
    2.8439   -0.3241    0.0000 H   0  0  0  0  0  0  0  0  0  0  0  0
    2.5511    1.7481    0.0000 H   0  0  0  0  0  0  0  0  0  0  0  0
    1.5857    2.0409    0.0000 H   0  0  0  0  0  0  0  0  0  0  0  0
    1.5136    0.3516    0.0000 H   0  0  0  0  0  0  0  0  0  0  0  0
   -0.4865    1.7481    0.0000 H   0  0  0  0  0  0  0  0  0  0  0  0
   -0.7793    0.7827    0.0000 H   0  0  0  0  0  0  0  0  0  0  0  0
    3.4702    1.1560    0.0000 H   0  0  0  0  0  0  0  0  0  0  0  0
    4.0052    0.2293    0.0000 H   0  0  0  0  0  0  0  0  0  0  0  0
    2.8127   -1.4118    0.0000 H   0  0  0  0  0  0  0  0  0  0  0  0
    3.8827   -1.4117    0.0000 H   0  0  0  0  0  0  0  0  0  0  0  0
    5.9262   -0.3059    0.0000 H   0  0  0  0  0  0  0  0  0  0  0  0
    6.8547   -1.9141    0.0000 H   0  0  0  0  0  0  0  0  0  0  0  0
    4.0692   -3.5222    0.0000 H   0  0  0  0  0  0  0  0  0  0  0  0
  1  2  1  0  0  0  0
  1 32  1  0  0  0  0
  1 33  1  0  0  0  0
  1 34  1  0  0  0  0
  2  3  1  0  0  0  0
  2  4  1  0  0  0  0
  2  5  1  0  0  0  0
  3 35  1  0  0  0  0
  3 36  1  0  0  0  0
  3 37  1  0  0  0  0
  4 38  1  0  0  0  0
  4 39  1  0  0  0  0
  4 40  1  0  0  0  0
  5  6  1  0  0  0  0
  6  7  2  0  0  0  0
  6  8  1  0  0  0  0
  8  9  1  0  0  0  0
  8 41  1  0  0  0  0
  9 10  1  0  0  0  0
  9 42  1  0  0  0  0
  9 43  1  0  0  0  0
 10 11  1  0  0  0  0
 10 44  1  0  0  0  0
 10 45  1  0  0  0  0
 11 12  1  0  0  0  0
 11 18  1  0  0  0  0
 12 13  1  0  0  0  0
 12 46  1  0  0  0  0
 12 47  1  0  0  0  0
 13 14  1  0  0  0  0
 13 19  1  0  0  0  0
 13 48  1  6  0  0  0
 14 15  1  0  0  0  0
 14 49  1  0  0  0  0
 14 50  1  0  0  0  0
 15 16  1  0  0  0  0
 15 20  1  0  0  0  0
 16 17  1  0  0  0  0
 16 51  1  0  0  0  0
 16 52  1  0  0  0  0
 17 18  1  0  0  0  0
 17 19  1  0  0  0  0
 17 53  1  6  0  0  0
 18 54  1  0  0  0  0
 18 55  1  0  0  0  0
 20 21  1  0  0  0  0
 20 56  1  0  0  0  0
 20 57  1  0  0  0  0
 21 22  1  0  0  0  0
 21 58  1  0  0  0  0
 21 59  1  0  0  0  0
 22 23  1  0  0  0  0
 23 24  2  0  0  0  0
 23 28  1  0  0  0  0
 24 25  1  0  0  0  0
 24 60  1  0  0  0  0
 25 26  2  0  0  0  0
 25 61  1  0  0  0  0
 26 27  1  0  0  0  0
 26 30  1  0  0  0  0
 27 28  2  0  0  0  0
 27 62  1  0  0  0  0
 28 29  1  0  0  0  0
 30 31  3  0  0  0  0
M  END
>  <DRUGBANK_ID>
DB11766

>  <COMMON_NAME>
AZD-1305

>  <CAS_NUMBER>
872045-91-5

>  <UNII>
CZO834LXQM

$$$$
