208
 OpenBabel10282417072D

 54 57  0  0  0  0  0  0  0  0999 V2000
    5.0861    1.5059    0.0000 C   0  0  0  0  0  0  0  0  0  0  0  0
    4.3716    1.0934    0.0000 C   0  0  0  0  0  0  0  0  0  0  0  0
    3.6572    1.5059    0.0000 O   0  0  0  0  0  0  0  0  0  0  0  0
    2.9427    1.0934    0.0000 C   0  0  2  0  0  0  0  0  0  0  0  0
    2.9427    0.2684    0.0000 C   0  0  0  0  0  0  0  0  0  0  0  0
    2.2282   -0.1441    0.0000 O   0  0  0  0  0  0  0  0  0  0  0  0
    3.6572   -0.1441    0.0000 O   0  0  0  0  0  0  0  0  0  0  0  0
    2.2282    1.5059    0.0000 C   0  0  0  0  0  0  0  0  0  0  0  0
    1.5138    1.0934    0.0000 C   0  0  0  0  0  0  0  0  0  0  0  0
    1.5138    0.2684    0.0000 C   0  0  0  0  0  0  0  0  0  0  0  0
    0.7993    1.5059    0.0000 C   0  0  0  0  0  0  0  0  0  0  0  0
    0.0848    1.0934    0.0000 C   0  0  0  0  0  0  0  0  0  0  0  0
   -0.6998    1.3483    0.0000 C   0  0  0  0  0  0  0  0  0  0  0  0
   -1.1847    0.6809    0.0000 C   0  0  0  0  0  0  0  0  0  0  0  0
    0.0848    0.2684    0.0000 C   0  0  0  0  0  0  0  0  0  0  0  0
    0.7993   -0.1441    0.0000 C   0  0  0  0  0  0  0  0  0  0  0  0
   -0.6998    0.0135    0.0000 N   0  0  0  0  0  0  0  0  0  0  0  0
   -0.9548   -0.7712    0.0000 C   0  0  0  0  0  0  0  0  0  0  0  0
   -1.7617   -0.9427    0.0000 C   0  0  0  0  0  0  0  0  0  0  0  0
   -2.0973   -1.6964    0.0000 C   0  0  0  0  0  0  0  0  0  0  0  0
   -1.6848   -2.4108    0.0000 C   0  0  0  0  0  0  0  0  0  0  0  0
   -2.9178   -1.6101    0.0000 O   0  0  0  0  0  0  0  0  0  0  0  0
   -2.3748   -0.3907    0.0000 N   0  0  0  0  0  0  0  0  0  0  0  0
   -3.0893   -0.8032    0.0000 C   0  0  0  0  0  0  0  0  0  0  0  0
   -3.8430   -0.4676    0.0000 C   0  0  0  0  0  0  0  0  0  0  0  0
   -4.5104   -0.9525    0.0000 C   0  0  0  0  0  0  0  0  0  0  0  0
   -4.4242   -1.7730    0.0000 Cl  0  0  0  0  0  0  0  0  0  0  0  0
   -5.2641   -0.6170    0.0000 C   0  0  0  0  0  0  0  0  0  0  0  0
   -5.3503    0.2035    0.0000 C   0  0  0  0  0  0  0  0  0  0  0  0
   -4.6829    0.6884    0.0000 C   0  0  0  0  0  0  0  0  0  0  0  0
   -3.9292    0.3529    0.0000 C   0  0  0  0  0  0  0  0  0  0  0  0
    3.4484    0.8014    0.0000 H   0  0  0  0  0  0  0  0  0  0  0  0
    6.0127    0.9709    0.0000 H   0  0  0  0  0  0  0  0  0  0  0  0
    5.0861    2.5759    0.0000 H   0  0  0  0  0  0  0  0  0  0  0  0
    6.0128    2.0409    0.0000 H   0  0  0  0  0  0  0  0  0  0  0  0
    4.3716    0.0234    0.0000 H   0  0  0  0  0  0  0  0  0  0  0  0
    3.4449    0.5584    0.0000 H   0  0  0  0  0  0  0  0  0  0  0  0
    1.4167    0.3244    0.0000 H   0  0  0  0  0  0  0  0  0  0  0  0
    2.2282    2.5759    0.0000 H   0  0  0  0  0  0  0  0  0  0  0  0
    1.3015    2.0409    0.0000 H   0  0  0  0  0  0  0  0  0  0  0  0
    2.4075   -0.2476    0.0000 H   0  0  0  0  0  0  0  0  0  0  0  0
    0.7993    2.5379    0.0000 H   0  0  0  0  0  0  0  0  0  0  0  0
   -1.0187    2.3298    0.0000 H   0  0  0  0  0  0  0  0  0  0  0  0
   -2.2167    0.6809    0.0000 H   0  0  0  0  0  0  0  0  0  0  0  0
    0.7993   -1.1761    0.0000 H   0  0  0  0  0  0  0  0  0  0  0  0
   -0.2389   -1.5664    0.0000 H   0  0  0  0  0  0  0  0  0  0  0  0
   -1.2855   -1.7888    0.0000 H   0  0  0  0  0  0  0  0  0  0  0  0
   -2.2198   -3.3375    0.0000 H   0  0  0  0  0  0  0  0  0  0  0  0
   -0.6148   -2.4108    0.0000 H   0  0  0  0  0  0  0  0  0  0  0  0
   -1.1498   -3.3374    0.0000 H   0  0  0  0  0  0  0  0  0  0  0  0
   -6.0990   -1.2236    0.0000 H   0  0  0  0  0  0  0  0  0  0  0  0
   -6.2931    0.6233    0.0000 H   0  0  0  0  0  0  0  0  0  0  0  0
   -4.7908    1.7147    0.0000 H   0  0  0  0  0  0  0  0  0  0  0  0
   -3.0943    0.9595    0.0000 H   0  0  0  0  0  0  0  0  0  0  0  0
  1  2  1  0  0  0  0
  1 33  1  0  0  0  0
  1 34  1  0  0  0  0
  1 35  1  0  0  0  0
  2  3  1  0  0  0  0
  2 36  1  0  0  0  0
  2 37  1  0  0  0  0
  4  3  1  0  0  0  0
  4  5  1  0  0  0  0
  4  8  1  0  0  0  0
  4 32  1  1  0  0  0
  5  6  1  0  0  0  0
  5  7  2  0  0  0  0
  6 38  1  0  0  0  0
  8  9  1  0  0  0  0
  8 39  1  0  0  0  0
  8 40  1  0  0  0  0
  9 10  1  0  0  0  0
  9 11  2  0  0  0  0
 10 16  2  0  0  0  0
 10 41  1  0  0  0  0
 11 12  1  0  0  0  0
 11 42  1  0  0  0  0
 12 13  1  0  0  0  0
 12 15  2  0  0  0  0
 13 14  2  0  0  0  0
 13 43  1  0  0  0  0
 14 17  1  0  0  0  0
 14 44  1  0  0  0  0
 15 16  1  0  0  0  0
 15 17  1  0  0  0  0
 16 45  1  0  0  0  0
 17 18  1  0  0  0  0
 18 19  1  0  0  0  0
 18 46  1  0  0  0  0
 18 47  1  0  0  0  0
 19 20  2  0  0  0  0
 19 23  1  0  0  0  0
 20 21  1  0  0  0  0
 20 22  1  0  0  0  0
 21 48  1  0  0  0  0
 21 49  1  0  0  0  0
 21 50  1  0  0  0  0
 22 24  1  0  0  0  0
 23 24  2  0  0  0  0
 24 25  1  0  0  0  0
 25 26  2  0  0  0  0
 25 31  1  0  0  0  0
 26 27  1  0  0  0  0
 26 28  1  0  0  0  0
 28 29  2  0  0  0  0
 28 51  1  0  0  0  0
 29 30  1  0  0  0  0
 29 52  1  0  0  0  0
 30 31  2  0  0  0  0
 30 53  1  0  0  0  0
 31 54  1  0  0  0  0
M  END
>  <DRUGBANK_ID>
DB06908

>  <COMMON_NAME>
(2S)-3-(1-{[2-(2-CHLOROPHENYL)-5-METHYL-1,3-OXAZOL-4-YL]METHYL}-1H-INDOL-5-YL)-2-ETHOXYPROPANOIC ACID

$$$$
