
 OpenBabel10282417072D

 31 32  0  0  0  0  0  0  0  0999 V2000
    2.0367    3.6509    0.0000 C   0  0  0  0  0  0  0  0  0  0  0  0
    2.3387   -1.3312    0.0000 C   0  0  0  0  0  0  0  0  0  0  0  0
    3.1637   -1.3312    0.0000 C   0  0  0  0  0  0  0  0  0  0  0  0
    2.0367    2.0009    0.0000 C   0  0  0  0  0  0  0  0  0  0  0  0
    2.0367    1.1759    0.0000 C   0  0  0  0  0  0  0  0  0  0  0  0
    2.0837   -0.5465    0.0000 C   0  0  0  0  0  0  0  0  0  0  0  0
    3.4186   -0.5465    0.0000 C   0  0  0  0  0  0  0  0  0  0  0  0
    3.4656    2.0009    0.0000 C   0  0  0  0  0  0  0  0  0  0  0  0
    2.7512    3.2384    0.0000 C   0  0  3  0  0  0  0  0  0  0  0  0
    2.7512    2.4134    0.0000 C   0  0  0  0  0  0  0  0  0  0  0  0
    3.4656    1.1759    0.0000 C   0  0  0  0  0  0  0  0  0  0  0  0
    2.7512    0.7634    0.0000 C   0  0  0  0  0  0  0  0  0  0  0  0
    3.4656    3.6509    0.0000 C   0  0  0  0  0  0  0  0  0  0  0  0
    4.1801    0.7634    0.0000 Cl  0  0  0  0  0  0  0  0  0  0  0  0
    2.7512   -0.0616    0.0000 N   0  0  0  0  0  0  0  0  0  0  0  0
    3.4656    4.4759    0.0000 O   0  0  0  0  0  0  0  0  0  0  0  0
    4.1801    3.2384    0.0000 O   0  0  0  0  0  0  0  0  0  0  0  0
    2.0367    4.7209    0.0000 H   0  0  0  0  0  0  0  0  0  0  0  0
    1.1101    3.1159    0.0000 H   0  0  0  0  0  0  0  0  0  0  0  0
    1.1100    4.1859    0.0000 H   0  0  0  0  0  0  0  0  0  0  0  0
    1.7321   -2.1661    0.0000 H   0  0  0  0  0  0  0  0  0  0  0  0
    3.7703   -2.1661    0.0000 H   0  0  0  0  0  0  0  0  0  0  0  0
    1.1430    2.5169    0.0000 H   0  0  0  0  0  0  0  0  0  0  0  0
    1.1430    0.6599    0.0000 H   0  0  0  0  0  0  0  0  0  0  0  0
    1.0661   -0.2158    0.0000 H   0  0  0  0  0  0  0  0  0  0  0  0
    1.9164    0.5103    0.0000 H   0  0  0  0  0  0  0  0  0  0  0  0
    4.4362   -0.2158    0.0000 H   0  0  0  0  0  0  0  0  0  0  0  0
    3.5860    0.5103    0.0000 H   0  0  0  0  0  0  0  0  0  0  0  0
    4.3593    2.5169    0.0000 H   0  0  0  0  0  0  0  0  0  0  0  0
    1.8246    2.7034    0.0000 H   0  0  0  0  0  0  0  0  0  0  0  0
    4.1801    2.3014    0.0000 H   0  0  0  0  0  0  0  0  0  0  0  0
  1 18  1  0  0  0  0
  1 19  1  0  0  0  0
  1 20  1  0  0  0  0
  2 21  1  0  0  0  0
  3  2  2  0  0  0  0
  3 22  1  0  0  0  0
  4 23  1  0  0  0  0
  5  4  2  0  0  0  0
  5 24  1  0  0  0  0
  6  2  1  0  0  0  0
  6 25  1  0  0  0  0
  6 26  1  0  0  0  0
  7  3  1  0  0  0  0
  7 27  1  0  0  0  0
  7 28  1  0  0  0  0
  8 29  1  0  0  0  0
  9  1  1  0  0  0  0
  9 30  1  0  0  0  0
 10  4  1  0  0  0  0
 10  8  2  0  0  0  0
 10  9  1  0  0  0  0
 11  8  1  0  0  0  0
 12  5  1  0  0  0  0
 12 11  2  0  0  0  0
 13  9  1  0  0  0  0
 14 11  1  0  0  0  0
 15  6  1  0  0  0  0
 15  7  1  0  0  0  0
 15 12  1  0  0  0  0
 16 13  2  0  0  0  0
 17 13  1  0  0  0  0
 17 31  1  0  0  0  0
M  END
>  <DRUGBANK_ID>
DB13722

>  <COMMON_NAME>
Pirprofen

>  <CAS_NUMBER>
31793-07-4

>  <UNII>
T7KN291890

>  <SYNONYMS>
Pirprofen

$$$$
