
 OpenBabel10282417072D

 53 56  0  0  0  0  0  0  0  0999 V2000
   -0.9083    2.3234    0.0000 C   0  0  0  0  0  0  0  0  0  0  0  0
   -1.4604    1.7103    0.0000 C   0  0  0  0  0  0  0  0  0  0  0  0
   -1.2054    0.9256    0.0000 C   0  0  0  0  0  0  0  0  0  0  0  0
   -1.7575    0.3126    0.0000 C   0  0  0  0  0  0  0  0  0  0  0  0
   -2.5644    0.4841    0.0000 C   0  0  0  0  0  0  0  0  0  0  0  0
   -2.8194    1.2687    0.0000 C   0  0  0  0  0  0  0  0  0  0  0  0
   -2.2673    1.8818    0.0000 C   0  0  0  0  0  0  0  0  0  0  0  0
   -2.5223    2.6664    0.0000 C   0  0  0  0  0  0  0  0  0  0  0  0
   -2.7772    3.4510    0.0000 F   0  0  0  0  0  0  0  0  0  0  0  0
   -3.3069    2.4115    0.0000 F   0  0  0  0  0  0  0  0  0  0  0  0
   -1.7376    2.9214    0.0000 F   0  0  0  0  0  0  0  0  0  0  0  0
   -0.3984    0.7541    0.0000 C   0  0  0  0  0  0  0  0  0  0  0  0
   -0.1435   -0.0305    0.0000 N   0  0  0  0  0  0  0  0  0  0  0  0
   -0.6284   -0.6979    0.0000 C   0  0  0  0  0  0  0  0  0  0  0  0
   -0.1435   -1.3654    0.0000 N   0  0  0  0  0  0  0  0  0  0  0  0
    0.6411   -1.1104    0.0000 C   0  0  0  0  0  0  0  0  0  0  0  0
    0.6411   -0.2854    0.0000 C   0  0  0  0  0  0  0  0  0  0  0  0
    1.3556    0.1271    0.0000 C   0  0  0  0  0  0  0  0  0  0  0  0
    2.0701   -0.2854    0.0000 C   0  0  0  0  0  0  0  0  0  0  0  0
    2.0701   -1.1104    0.0000 C   0  0  0  0  0  0  0  0  0  0  0  0
    1.3556   -1.5229    0.0000 C   0  0  0  0  0  0  0  0  0  0  0  0
    1.3556   -2.3479    0.0000 C   0  0  0  0  0  0  0  0  0  0  0  0
    0.6411   -2.7604    0.0000 O   0  0  0  0  0  0  0  0  0  0  0  0
    2.0701   -2.7604    0.0000 O   0  0  0  0  0  0  0  0  0  0  0  0
    2.7845    0.1271    0.0000 N   0  0  0  0  0  0  0  0  0  0  0  0
    2.7845    0.9521    0.0000 C   0  0  0  0  0  0  0  0  0  0  0  0
    3.4990    1.3646    0.0000 C   0  0  0  0  0  0  0  0  0  0  0  0
    4.2135    0.9521    0.0000 O   0  0  0  0  0  0  0  0  0  0  0  0
    4.2135    0.1271    0.0000 C   0  0  0  0  0  0  0  0  0  0  0  0
    3.4990   -0.2854    0.0000 C   0  0  0  0  0  0  0  0  0  0  0  0
   -1.4534   -0.6979    0.0000 C   0  0  0  0  0  0  0  0  0  0  0  0
    0.1383    2.1009    0.0000 H   0  0  0  0  0  0  0  0  0  0  0  0
   -1.2389    3.3410    0.0000 H   0  0  0  0  0  0  0  0  0  0  0  0
   -0.1923    3.1185    0.0000 H   0  0  0  0  0  0  0  0  0  0  0  0
   -1.4387   -0.6689    0.0000 H   0  0  0  0  0  0  0  0  0  0  0  0
   -3.2549   -0.2829    0.0000 H   0  0  0  0  0  0  0  0  0  0  0  0
   -3.8289    1.4833    0.0000 H   0  0  0  0  0  0  0  0  0  0  0  0
    0.3176    1.5493    0.0000 H   0  0  0  0  0  0  0  0  0  0  0  0
    0.6482    0.5316    0.0000 H   0  0  0  0  0  0  0  0  0  0  0  0
    1.3556    1.1591    0.0000 H   0  0  0  0  0  0  0  0  0  0  0  0
    2.9638   -1.6264    0.0000 H   0  0  0  0  0  0  0  0  0  0  0  0
    2.0701   -3.6974    0.0000 H   0  0  0  0  0  0  0  0  0  0  0  0
    1.8579    1.4871    0.0000 H   0  0  0  0  0  0  0  0  0  0  0  0
    2.7845    2.0221    0.0000 H   0  0  0  0  0  0  0  0  0  0  0  0
    3.4990    2.4346    0.0000 H   0  0  0  0  0  0  0  0  0  0  0  0
    4.4256    1.8996    0.0000 H   0  0  0  0  0  0  0  0  0  0  0  0
    5.1401   -0.4079    0.0000 H   0  0  0  0  0  0  0  0  0  0  0  0
    4.2135   -0.9429    0.0000 H   0  0  0  0  0  0  0  0  0  0  0  0
    3.4990   -1.3554    0.0000 H   0  0  0  0  0  0  0  0  0  0  0  0
    2.5724   -0.8204    0.0000 H   0  0  0  0  0  0  0  0  0  0  0  0
   -1.9884    0.2287    0.0000 H   0  0  0  0  0  0  0  0  0  0  0  0
   -1.9884   -1.6245    0.0000 H   0  0  0  0  0  0  0  0  0  0  0  0
   -2.5234   -0.6979    0.0000 H   0  0  0  0  0  0  0  0  0  0  0  0
  1  2  1  0  0  0  0
  1 32  1  0  0  0  0
  1 33  1  0  0  0  0
  1 34  1  0  0  0  0
  2  3  2  0  0  0  0
  2  7  1  0  0  0  0
  3  4  1  0  0  0  0
  3 12  1  0  0  0  0
  4  5  2  0  0  0  0
  4 35  1  0  0  0  0
  5  6  1  0  0  0  0
  5 36  1  0  0  0  0
  6  7  2  0  0  0  0
  6 37  1  0  0  0  0
  7  8  1  0  0  0  0
  8  9  1  0  0  0  0
  8 10  1  0  0  0  0
  8 11  1  0  0  0  0
 12 13  1  0  0  0  0
 12 38  1  0  0  0  0
 12 39  1  0  0  0  0
 13 14  1  0  0  0  0
 13 17  1  0  0  0  0
 14 15  2  0  0  0  0
 14 31  1  0  0  0  0
 15 16  1  0  0  0  0
 16 17  1  0  0  0  0
 16 21  2  0  0  0  0
 17 18  2  0  0  0  0
 18 19  1  0  0  0  0
 18 40  1  0  0  0  0
 19 20  2  0  0  0  0
 19 25  1  0  0  0  0
 20 21  1  0  0  0  0
 20 41  1  0  0  0  0
 21 22  1  0  0  0  0
 22 23  2  0  0  0  0
 22 24  1  0  0  0  0
 24 42  1  0  0  0  0
 25 26  1  0  0  0  0
 25 30  1  0  0  0  0
 26 27  1  0  0  0  0
 26 43  1  0  0  0  0
 26 44  1  0  0  0  0
 27 28  1  0  0  0  0
 27 45  1  0  0  0  0
 27 46  1  0  0  0  0
 28 29  1  0  0  0  0
 29 30  1  0  0  0  0
 29 47  1  0  0  0  0
 29 48  1  0  0  0  0
 30 49  1  0  0  0  0
 30 50  1  0  0  0  0
 31 51  1  0  0  0  0
 31 52  1  0  0  0  0
 31 53  1  0  0  0  0
M  END
>  <DRUGBANK_ID>
DB11795

>  <COMMON_NAME>
GSK-2636771

>  <CAS_NUMBER>
1372540-25-4

>  <UNII>
DW94IAT0LS

$$$$
