
 OpenBabel10282417072D

 71 73  0  0  0  0  0  0  0  0999 V2000
   -3.2150    1.4351    0.0000 C   0  0  0  0  0  0  0  0  0  0  0  0
   -3.2161    2.2605    0.0000 N   0  0  0  0  0  0  0  0  0  0  0  0
   -1.7834    1.4389    0.0000 C   0  0  0  0  0  0  0  0  0  0  0  0
   -1.0676    1.0251    0.0000 C   0  0  0  0  0  0  0  0  0  0  0  0
   -0.3529    1.4408    0.0000 C   0  0  0  0  0  0  0  0  0  0  0  0
    0.3587    1.0270    0.0000 C   0  0  1  0  0  0  0  0  0  0  0  0
    1.0734    1.4426    0.0000 C   0  0  0  0  0  0  0  0  0  0  0  0
    1.7892    1.0289    0.0000 N   0  0  0  0  0  0  0  0  0  0  0  0
    1.0723    2.2679    0.0000 O   0  0  0  0  0  0  0  0  0  0  0  0
    1.7846    0.2056    0.0000 C   0  0  0  0  0  0  0  0  0  0  0  0
    2.4962   -0.2038    0.0000 C   0  0  0  0  0  0  0  0  0  0  0  0
    3.2133    0.2041    0.0000 C   0  0  2  0  0  0  0  0  0  0  0  0
    3.2142    1.0303    0.0000 C   0  0  0  0  0  0  0  0  0  0  0  0
    2.4979    1.4485    0.0000 C   0  0  2  0  0  0  0  0  0  0  0  0
    2.4955    2.2738    0.0000 C   0  0  0  0  0  0  0  0  0  0  0  0
    3.2095    2.6864    0.0000 O   0  0  0  0  0  0  0  0  0  0  0  0
    3.9276   -0.2082    0.0000 C   0  0  0  0  0  0  0  0  0  0  0  0
   -0.3505   -0.2141    0.0000 S   0  0  0  0  0  0  0  0  0  0  0  0
   -0.3494   -1.0392    0.0000 C   0  0  0  0  0  0  0  0  0  0  0  0
   -0.7727    0.5047    0.0000 O   0  0  0  0  0  0  0  0  0  0  0  0
   -1.1792   -0.2086    0.0000 O   0  0  0  0  0  0  0  0  0  0  0  0
   -1.0654   -1.4522    0.0000 C   0  0  0  0  0  0  0  0  0  0  0  0
   -1.0647   -2.2766    0.0000 C   0  0  0  0  0  0  0  0  0  0  0  0
   -0.3484   -2.6869    0.0000 C   0  0  0  0  0  0  0  0  0  0  0  0
    0.3603   -1.4479    0.0000 C   0  0  0  0  0  0  0  0  0  0  0  0
    0.3633   -2.2694    0.0000 C   0  0  0  0  0  0  0  0  0  0  0  0
    1.0731   -2.6732    0.0000 C   0  0  0  0  0  0  0  0  0  0  0  0
    1.7841   -2.2640    0.0000 C   0  0  3  0  0  0  0  0  0  0  0  0
    1.7809   -1.4424    0.0000 C   0  0  0  0  0  0  0  0  0  0  0  0
    2.5003   -2.6728    0.0000 C   0  0  0  0  0  0  0  0  0  0  0  0
   -2.4981    1.0268    0.0000 N   0  0  0  0  0  0  0  0  0  0  0  0
   -3.9276    1.0242    0.0000 N   0  0  0  0  0  0  0  0  0  0  0  0
    1.7812    2.6869    0.0000 O   0  0  0  0  0  0  0  0  0  0  0  0
    0.3619    0.2019    0.0000 N   0  0  0  0  0  0  0  0  0  0  0  0
    1.0689   -1.0255    0.0000 N   0  0  0  0  0  0  0  0  0  0  0  0
   -2.3642    2.7539    0.0000 H   0  0  0  0  0  0  0  0  0  0  0  0
   -1.7828    2.5089    0.0000 H   0  0  0  0  0  0  0  0  0  0  0  0
   -2.7097    1.9744    0.0000 H   0  0  0  0  0  0  0  0  0  0  0  0
   -1.0662   -0.0449    0.0000 H   0  0  0  0  0  0  0  0  0  0  0  0
   -0.1397    0.4922    0.0000 H   0  0  0  0  0  0  0  0  0  0  0  0
   -0.3530    2.5108    0.0000 H   0  0  0  0  0  0  0  0  0  0  0  0
    0.5746    1.9744    0.0000 H   0  0  0  0  0  0  0  0  0  0  0  0
    0.3587    2.0970    0.0000 H   0  0  0  0  0  0  0  0  0  0  0  0
    0.8569   -0.3275    0.0000 H   0  0  0  0  0  0  0  0  0  0  0  0
    1.7843   -0.8644    0.0000 H   0  0  0  0  0  0  0  0  0  0  0  0
    2.4936   -1.2738    0.0000 H   0  0  0  0  0  0  0  0  0  0  0  0
    3.4205   -0.7429    0.0000 H   0  0  0  0  0  0  0  0  0  0  0  0
    3.2099   -0.8659    0.0000 H   0  0  0  0  0  0  0  0  0  0  0  0
    4.1424    1.5625    0.0000 H   0  0  0  0  0  0  0  0  0  0  0  0
    3.2184    2.1003    0.0000 H   0  0  0  0  0  0  0  0  0  0  0  0
    1.5676    1.9771    0.0000 H   0  0  0  0  0  0  0  0  0  0  0  0
    3.9277   -1.2782    0.0000 H   0  0  0  0  0  0  0  0  0  0  0  0
    4.8542    0.3269    0.0000 H   0  0  0  0  0  0  0  0  0  0  0  0
    4.8543   -0.7431    0.0000 H   0  0  0  0  0  0  0  0  0  0  0  0
   -1.9593   -0.9364    0.0000 H   0  0  0  0  0  0  0  0  0  0  0  0
   -1.9573   -2.7945    0.0000 H   0  0  0  0  0  0  0  0  0  0  0  0
   -0.3431   -3.7189    0.0000 H   0  0  0  0  0  0  0  0  0  0  0  0
    1.0758   -3.7432    0.0000 H   0  0  0  0  0  0  0  0  0  0  0  0
    2.0000   -3.2077    0.0000 H   0  0  0  0  0  0  0  0  0  0  0  0
    0.8568   -1.7302    0.0000 H   0  0  0  0  0  0  0  0  0  0  0  0
    2.7081   -0.9084    0.0000 H   0  0  0  0  0  0  0  0  0  0  0  0
    1.7848   -0.3724    0.0000 H   0  0  0  0  0  0  0  0  0  0  0  0
    2.5056   -3.7428    0.0000 H   0  0  0  0  0  0  0  0  0  0  0  0
    3.4243   -2.1332    0.0000 H   0  0  0  0  0  0  0  0  0  0  0  0
    3.4296   -3.2032    0.0000 H   0  0  0  0  0  0  0  0  0  0  0  0
   -2.4955    0.0423    0.0000 H   0  0  0  0  0  0  0  0  0  0  0  0
   -4.7799    1.5169    0.0000 H   0  0  0  0  0  0  0  0  0  0  0  0
   -3.9281    0.0397    0.0000 H   0  0  0  0  0  0  0  0  0  0  0  0
    1.7819    3.6239    0.0000 H   0  0  0  0  0  0  0  0  0  0  0  0
    1.2475   -0.3042    0.0000 H   0  0  0  0  0  0  0  0  0  0  0  0
    1.0650   -0.0410    0.0000 H   0  0  0  0  0  0  0  0  0  0  0  0
  1  2  2  0  0  0  0
  1 32  1  0  0  0  0
  2 36  1  0  0  0  0
  3  4  1  0  0  0  0
  3 37  1  0  0  0  0
  3 38  1  0  0  0  0
  4  5  1  0  0  0  0
  4 39  1  0  0  0  0
  4 40  1  0  0  0  0
  5 41  1  0  0  0  0
  5 42  1  0  0  0  0
  6  5  1  0  0  0  0
  6  7  1  0  0  0  0
  6 34  1  0  0  0  0
  6 43  1  6  0  0  0
  7  8  1  0  0  0  0
  7  9  2  0  0  0  0
  8 10  1  0  0  0  0
  8 14  1  0  0  0  0
 10 11  1  0  0  0  0
 10 44  1  0  0  0  0
 10 45  1  0  0  0  0
 11 12  1  0  0  0  0
 11 46  1  0  0  0  0
 11 47  1  0  0  0  0
 12 13  1  0  0  0  0
 12 17  1  0  0  0  0
 12 48  1  1  0  0  0
 13 14  1  0  0  0  0
 13 49  1  0  0  0  0
 13 50  1  0  0  0  0
 14 15  1  0  0  0  0
 14 51  1  6  0  0  0
 15 16  2  0  0  0  0
 15 33  1  0  0  0  0
 17 52  1  0  0  0  0
 17 53  1  0  0  0  0
 17 54  1  0  0  0  0
 18 19  1  0  0  0  0
 18 20  2  0  0  0  0
 18 21  2  0  0  0  0
 19 22  2  0  0  0  0
 22 23  1  0  0  0  0
 22 55  1  0  0  0  0
 23 24  2  0  0  0  0
 23 56  1  0  0  0  0
 24 26  1  0  0  0  0
 24 57  1  0  0  0  0
 25 19  1  0  0  0  0
 25 26  2  0  0  0  0
 25 35  1  0  0  0  0
 26 27  1  0  0  0  0
 27 28  1  0  0  0  0
 27 58  1  0  0  0  0
 27 59  1  0  0  0  0
 28 29  1  0  0  0  0
 28 30  1  0  0  0  0
 28 60  1  0  0  0  0
 29 35  1  0  0  0  0
 29 61  1  0  0  0  0
 29 62  1  0  0  0  0
 30 63  1  0  0  0  0
 30 64  1  0  0  0  0
 30 65  1  0  0  0  0
 31  1  1  0  0  0  0
 31  3  1  0  0  0  0
 31 66  1  0  0  0  0
 32 67  1  0  0  0  0
 32 68  1  0  0  0  0
 33 69  1  0  0  0  0
 34 18  1  0  0  0  0
 34 70  1  0  0  0  0
 35 71  1  0  0  0  0
M  END
>  <DRUGBANK_ID>
DB00278

>  <SECONDARY_ACCESSION_NUMBERS>
APRD00105

>  <COMMON_NAME>
Argatroban

>  <CAS_NUMBER>
74863-84-6

>  <UNII>
OCY3U280Y3

>  <SYNONYMS>
Argatroban; Argatroban anhydrous

$$$$
