
 OpenBabel10282417072D

 47 52  0  0  0  0  0  0  0  0999 V2000
    4.2478   -5.5737    0.0000 C   0  0  0  0  0  0  0  0  0  0  0  0
    4.0762   -4.7668    0.0000 N   0  0  0  0  0  0  0  0  0  0  0  0
    3.3226   -4.4312    0.0000 C   0  0  0  0  0  0  0  0  0  0  0  0
    3.4088   -3.6107    0.0000 C   0  0  0  0  0  0  0  0  0  0  0  0
    2.7414   -3.1258    0.0000 C   0  0  0  0  0  0  0  0  0  0  0  0
    1.9877   -3.4614    0.0000 C   0  0  0  0  0  0  0  0  0  0  0  0
    1.9015   -4.2819    0.0000 C   0  0  0  0  0  0  0  0  0  0  0  0
    2.5689   -4.7668    0.0000 C   0  0  0  0  0  0  0  0  0  0  0  0
    4.2158   -3.4392    0.0000 C   0  0  0  0  0  0  0  0  0  0  0  0
    4.6283   -4.1537    0.0000 C   0  0  0  0  0  0  0  0  0  0  0  0
    5.4533   -4.1537    0.0000 C   0  0  0  0  0  0  0  0  0  0  0  0
    5.8658   -3.4392    0.0000 C   0  0  0  0  0  0  0  0  0  0  0  0
    6.6727   -3.6107    0.0000 C   0  0  0  0  0  0  0  0  0  0  0  0
    7.3402   -3.1258    0.0000 C   0  0  0  0  0  0  0  0  0  0  0  0
    8.0939   -3.4614    0.0000 C   0  0  0  0  0  0  0  0  0  0  0  0
    8.1801   -4.2819    0.0000 C   0  0  0  0  0  0  0  0  0  0  0  0
    7.5127   -4.7668    0.0000 C   0  0  0  0  0  0  0  0  0  0  0  0
    6.7590   -4.4312    0.0000 C   0  0  0  0  0  0  0  0  0  0  0  0
    6.0053   -4.7668    0.0000 N   0  0  0  0  0  0  0  0  0  0  0  0
    5.8338   -5.5737    0.0000 C   0  0  0  0  0  0  0  0  0  0  0  0
    5.0492   -5.8287    0.0000 C   0  0  0  0  0  0  0  0  0  0  0  0
    4.8776   -6.6357    0.0000 C   0  0  0  0  0  0  0  0  0  0  0  0
    4.7061   -7.4426    0.0000 N   0  0  0  0  0  0  0  0  0  0  0  0
    5.4533   -2.7247    0.0000 C   0  0  0  0  0  0  0  0  0  0  0  0
    4.6283   -2.7247    0.0000 C   0  0  0  0  0  0  0  0  0  0  0  0
    4.3733   -1.9401    0.0000 C   0  0  0  0  0  0  0  0  0  0  0  0
    3.5887   -1.6852    0.0000 O   0  0  0  0  0  0  0  0  0  0  0  0
    5.0408   -1.4552    0.0000 N   0  0  0  0  0  0  0  0  0  0  0  0
    5.7082   -1.9401    0.0000 C   0  0  0  0  0  0  0  0  0  0  0  0
    3.4527   -6.2898    0.0000 H   0  0  0  0  0  0  0  0  0  0  0  0
    5.2655   -5.9042    0.0000 H   0  0  0  0  0  0  0  0  0  0  0  0
    4.4704   -6.6203    0.0000 H   0  0  0  0  0  0  0  0  0  0  0  0
    2.8493   -2.0995    0.0000 H   0  0  0  0  0  0  0  0  0  0  0  0
    1.1528   -2.8548    0.0000 H   0  0  0  0  0  0  0  0  0  0  0  0
    0.9587   -4.7017    0.0000 H   0  0  0  0  0  0  0  0  0  0  0  0
    2.4610   -5.7931    0.0000 H   0  0  0  0  0  0  0  0  0  0  0  0
    7.2324   -2.0994    0.0000 H   0  0  0  0  0  0  0  0  0  0  0  0
    8.9288   -2.8548    0.0000 H   0  0  0  0  0  0  0  0  0  0  0  0
    9.1229   -4.7017    0.0000 H   0  0  0  0  0  0  0  0  0  0  0  0
    7.6206   -5.7931    0.0000 H   0  0  0  0  0  0  0  0  0  0  0  0
    6.6290   -6.2896    0.0000 H   0  0  0  0  0  0  0  0  0  0  0  0
    5.6114   -6.6203    0.0000 H   0  0  0  0  0  0  0  0  0  0  0  0
    4.2540   -5.1127    0.0000 H   0  0  0  0  0  0  0  0  0  0  0  0
    4.0316   -6.1593    0.0000 H   0  0  0  0  0  0  0  0  0  0  0  0
    5.0408   -0.4707    0.0000 H   0  0  0  0  0  0  0  0  0  0  0  0
    6.7258   -1.6094    0.0000 H   0  0  0  0  0  0  0  0  0  0  0  0
    6.4648   -2.6967    0.0000 H   0  0  0  0  0  0  0  0  0  0  0  0
  1  2  1  0  0  0  0
  1 30  1  0  0  0  0
  1 31  1  0  0  0  0
  1 32  1  0  0  0  0
  2  3  1  0  0  0  0
  2 10  1  0  0  0  0
  3  4  2  0  0  0  0
  3  8  1  0  0  0  0
  4  5  1  0  0  0  0
  4  9  1  0  0  0  0
  5  6  2  0  0  0  0
  5 33  1  0  0  0  0
  6  7  1  0  0  0  0
  6 34  1  0  0  0  0
  7  8  2  0  0  0  0
  7 35  1  0  0  0  0
  8 36  1  0  0  0  0
  9 10  2  0  0  0  0
  9 25  1  0  0  0  0
 10 11  1  0  0  0  0
 11 12  2  0  0  0  0
 11 19  1  0  0  0  0
 12 13  1  0  0  0  0
 12 24  1  0  0  0  0
 13 14  2  0  0  0  0
 13 18  1  0  0  0  0
 14 15  1  0  0  0  0
 14 37  1  0  0  0  0
 15 16  2  0  0  0  0
 15 38  1  0  0  0  0
 16 17  1  0  0  0  0
 16 39  1  0  0  0  0
 17 18  2  0  0  0  0
 17 40  1  0  0  0  0
 18 19  1  0  0  0  0
 19 20  1  0  0  0  0
 20 21  1  0  0  0  0
 20 41  1  0  0  0  0
 20 42  1  0  0  0  0
 21 22  1  0  0  0  0
 21 43  1  0  0  0  0
 21 44  1  0  0  0  0
 22 23  3  0  0  0  0
 24 25  2  0  0  0  0
 24 29  1  0  0  0  0
 25 26  1  0  0  0  0
 26 27  2  0  0  0  0
 26 28  1  0  0  0  0
 28 29  1  0  0  0  0
 28 45  1  0  0  0  0
 29 46  1  0  0  0  0
 29 47  1  0  0  0  0
M  END
>  <DRUGBANK_ID>
DB17029

>  <COMMON_NAME>
Go-6976

>  <CAS_NUMBER>
136194-77-9

>  <UNII>
B9IQO7JZ16

>  <SYNONYMS>
12h-indolo(2,3-a)pyrrolo(3,4-c)carbazole-12-propanenitrile, 5,6,7,13-tetrahydro-13-methyl-5-oxo-

$$$$
