
 OpenBabel10282417072D

 36 37  0  0  0  0  0  0  0  0999 V2000
   -4.2868    5.5286    0.0000 C   0  0  0  0  0  0  0  0  0  0  0  0
   -0.3020    2.1965    0.0000 C   0  0  0  0  0  0  0  0  0  0  0  0
   -0.0470    2.9812    0.0000 C   0  0  0  0  0  0  0  0  0  0  0  0
   -1.1270    2.1965    0.0000 C   0  0  0  0  0  0  0  0  0  0  0  0
   -1.4289    5.5286    0.0000 C   0  0  0  0  0  0  0  0  0  0  0  0
   -2.1434    4.2911    0.0000 C   0  0  0  0  0  0  0  0  0  0  0  0
   -2.1434    5.9411    0.0000 C   0  0  0  0  0  0  0  0  0  0  0  0
   -2.8579    4.7036    0.0000 C   0  0  0  0  0  0  0  0  0  0  0  0
   -0.7145    4.2911    0.0000 C   0  0  0  0  0  0  0  0  0  0  0  0
   -3.5724    5.9411    0.0000 C   0  0  3  0  0  0  0  0  0  0  0  0
   -1.4289    4.7036    0.0000 C   0  0  0  0  0  0  0  0  0  0  0  0
   -2.8579    5.5286    0.0000 C   0  0  0  0  0  0  0  0  0  0  0  0
   -0.7145    3.4661    0.0000 C   0  0  3  0  0  0  0  0  0  0  0  0
   -1.3819    2.9812    0.0000 C   0  0  0  0  0  0  0  0  0  0  0  0
   -3.5724    6.7661    0.0000 C   0  0  0  0  0  0  0  0  0  0  0  0
   -2.1665    3.2361    0.0000 O   0  0  0  0  0  0  0  0  0  0  0  0
   -4.2868    7.1786    0.0000 O   0  0  0  0  0  0  0  0  0  0  0  0
   -2.8579    7.1786    0.0000 O   0  0  0  0  0  0  0  0  0  0  0  0
   -5.2135    6.0636    0.0000 H   0  0  0  0  0  0  0  0  0  0  0  0
   -4.2868    4.4586    0.0000 H   0  0  0  0  0  0  0  0  0  0  0  0
   -5.2134    4.9936    0.0000 H   0  0  0  0  0  0  0  0  0  0  0  0
    0.3269    1.3308    0.0000 H   0  0  0  0  0  0  0  0  0  0  0  0
   -0.7878    1.2431    0.0000 H   0  0  0  0  0  0  0  0  0  0  0  0
    0.9706    3.3119    0.0000 H   0  0  0  0  0  0  0  0  0  0  0  0
    0.1203    4.0380    0.0000 H   0  0  0  0  0  0  0  0  0  0  0  0
   -1.7560    1.3309    0.0000 H   0  0  0  0  0  0  0  0  0  0  0  0
   -2.1838    2.3639    0.0000 H   0  0  0  0  0  0  0  0  0  0  0  0
   -0.5352    6.0446    0.0000 H   0  0  0  0  0  0  0  0  0  0  0  0
   -2.1434    3.2591    0.0000 H   0  0  0  0  0  0  0  0  0  0  0  0
   -2.1434    6.9731    0.0000 H   0  0  0  0  0  0  0  0  0  0  0  0
   -3.7516    4.1876    0.0000 H   0  0  0  0  0  0  0  0  0  0  0  0
    0.2122    4.8261    0.0000 H   0  0  0  0  0  0  0  0  0  0  0  0
    0.2121    3.7561    0.0000 H   0  0  0  0  0  0  0  0  0  0  0  0
   -3.5724    4.8711    0.0000 H   0  0  0  0  0  0  0  0  0  0  0  0
    0.2389    3.9519    0.0000 H   0  0  0  0  0  0  0  0  0  0  0  0
   -2.0464    6.7101    0.0000 H   0  0  0  0  0  0  0  0  0  0  0  0
  1 19  1  0  0  0  0
  1 20  1  0  0  0  0
  1 21  1  0  0  0  0
  2 22  1  0  0  0  0
  2 23  1  0  0  0  0
  3  2  1  0  0  0  0
  3 24  1  0  0  0  0
  3 25  1  0  0  0  0
  4  2  1  0  0  0  0
  4 26  1  0  0  0  0
  4 27  1  0  0  0  0
  5 28  1  0  0  0  0
  6 29  1  0  0  0  0
  7  5  1  0  0  0  0
  7 30  1  0  0  0  0
  8  6  2  0  0  0  0
  8 31  1  0  0  0  0
  9 32  1  0  0  0  0
  9 33  1  0  0  0  0
 10  1  1  0  0  0  0
 10 34  1  0  0  0  0
 11  5  2  0  0  0  0
 11  6  1  0  0  0  0
 11  9  1  0  0  0  0
 12  7  2  0  0  0  0
 12  8  1  0  0  0  0
 12 10  1  0  0  0  0
 13  3  1  0  0  0  0
 13  9  1  0  0  0  0
 13 35  1  0  0  0  0
 14  4  1  0  0  0  0
 14 13  1  0  0  0  0
 15 10  1  0  0  0  0
 16 14  2  0  0  0  0
 17 15  2  0  0  0  0
 18 15  1  0  0  0  0
 18 36  1  0  0  0  0
M  END
>  <DRUGBANK_ID>
DB09212

>  <COMMON_NAME>
Loxoprofen

>  <CAS_NUMBER>
68767-14-6

>  <UNII>
3583H0GZAP

>  <SYNONYMS>
Loxoprofen; Loxoprofene; Loxoprofeno; Loxoprofenum

$$$$
