OST
 OpenBabel10282417072D

 40 41  0  0  0  0  0  0  0  0999 V2000
   -0.3853    2.0060    0.0000 C   0  0  0  0  0  0  0  0  0  0  0  0
    0.3292    1.5935    0.0000 O   0  0  0  0  0  0  0  0  0  0  0  0
    0.3292    0.7685    0.0000 C   0  0  0  0  0  0  0  0  0  0  0  0
   -0.3853    0.3560    0.0000 O   0  0  0  0  0  0  0  0  0  0  0  0
    1.0436    0.3560    0.0000 C   0  0  0  0  0  0  0  0  0  0  0  0
    1.7581    0.7685    0.0000 C   0  0  0  0  0  0  0  0  0  0  0  0
    2.4726    0.3560    0.0000 O   0  0  0  0  0  0  0  0  0  0  0  0
    3.1871    0.7685    0.0000 C   0  0  0  0  0  0  0  0  0  0  0  0
    1.0436   -0.4690    0.0000 C   0  0  0  0  0  0  0  0  0  0  0  0
    1.7581   -0.8815    0.0000 C   0  0  0  0  0  0  0  0  0  0  0  0
    0.3292   -0.8815    0.0000 C   0  0  0  0  0  0  0  0  0  0  0  0
    0.3292   -1.7065    0.0000 C   0  0  0  0  0  0  0  0  0  0  0  0
    1.0436   -2.1190    0.0000 C   0  0  0  0  0  0  0  0  0  0  0  0
    1.7581   -1.7065    0.0000 C   0  0  0  0  0  0  0  0  0  0  0  0
   -0.3853   -0.4690    0.0000 C   0  0  0  0  0  0  0  0  0  0  0  0
   -1.0998   -0.8815    0.0000 C   0  0  0  0  0  0  0  0  0  0  0  0
   -1.8142   -0.4690    0.0000 C   0  0  0  0  0  0  0  0  0  0  0  0
   -2.5287   -0.8815    0.0000 C   0  0  0  0  0  0  0  0  0  0  0  0
   -3.2432   -0.4690    0.0000 C   0  0  0  0  0  0  0  0  0  0  0  0
   -1.8142    0.3560    0.0000 C   0  0  0  0  0  0  0  0  0  0  0  0
   -2.5287    0.7685    0.0000 C   0  0  0  0  0  0  0  0  0  0  0  0
   -3.2432    0.3560    0.0000 C   0  0  0  0  0  0  0  0  0  0  0  0
   -0.3853    3.0760    0.0000 H   0  0  0  0  0  0  0  0  0  0  0  0
   -1.3119    1.4710    0.0000 H   0  0  0  0  0  0  0  0  0  0  0  0
   -1.3120    2.5410    0.0000 H   0  0  0  0  0  0  0  0  0  0  0  0
    1.7581    1.8005    0.0000 H   0  0  0  0  0  0  0  0  0  0  0  0
    4.1137    0.2335    0.0000 H   0  0  0  0  0  0  0  0  0  0  0  0
    3.1871    1.8385    0.0000 H   0  0  0  0  0  0  0  0  0  0  0  0
    4.1138    1.3035    0.0000 H   0  0  0  0  0  0  0  0  0  0  0  0
    2.6518   -0.3655    0.0000 H   0  0  0  0  0  0  0  0  0  0  0  0
   -0.5645   -2.2225    0.0000 H   0  0  0  0  0  0  0  0  0  0  0  0
    1.0436   -3.1510    0.0000 H   0  0  0  0  0  0  0  0  0  0  0  0
    2.6518   -2.2225    0.0000 H   0  0  0  0  0  0  0  0  0  0  0  0
   -0.3853    0.5630    0.0000 H   0  0  0  0  0  0  0  0  0  0  0  0
   -1.0998   -1.9135    0.0000 H   0  0  0  0  0  0  0  0  0  0  0  0
   -2.5287   -1.9135    0.0000 H   0  0  0  0  0  0  0  0  0  0  0  0
   -4.1369   -0.9850    0.0000 H   0  0  0  0  0  0  0  0  0  0  0  0
   -0.9205    0.8720    0.0000 H   0  0  0  0  0  0  0  0  0  0  0  0
   -2.5287    1.8005    0.0000 H   0  0  0  0  0  0  0  0  0  0  0  0
   -4.1369    0.8720    0.0000 H   0  0  0  0  0  0  0  0  0  0  0  0
  1  2  1  0  0  0  0
  1 23  1  0  0  0  0
  1 24  1  0  0  0  0
  1 25  1  0  0  0  0
  2  3  1  0  0  0  0
  3  4  2  0  0  0  0
  3  5  1  0  0  0  0
  5  6  2  0  0  0  0
  5  9  1  0  0  0  0
  6  7  1  0  0  0  0
  6 26  1  0  0  0  0
  7  8  1  0  0  0  0
  8 27  1  0  0  0  0
  8 28  1  0  0  0  0
  8 29  1  0  0  0  0
  9 10  1  0  0  0  0
  9 11  2  0  0  0  0
 10 14  2  0  0  0  0
 10 30  1  0  0  0  0
 11 12  1  0  0  0  0
 11 15  1  0  0  0  0
 12 13  2  0  0  0  0
 12 31  1  0  0  0  0
 13 14  1  0  0  0  0
 13 32  1  0  0  0  0
 14 33  1  0  0  0  0
 15 16  2  0  0  0  0
 15 34  1  0  0  0  0
 16 17  1  0  0  0  0
 16 35  1  0  0  0  0
 17 18  1  0  0  0  0
 17 20  2  0  0  0  0
 18 19  2  0  0  0  0
 18 36  1  0  0  0  0
 19 22  1  0  0  0  0
 19 37  1  0  0  0  0
 20 21  1  0  0  0  0
 20 38  1  0  0  0  0
 21 22  2  0  0  0  0
 21 39  1  0  0  0  0
 22 40  1  0  0  0  0
M  END
>  <DRUGBANK_ID>
DB08330

>  <COMMON_NAME>
METHYL (2Z)-3-METHOXY-2-{2-[(E)-2-PHENYLVINYL]PHENYL}ACRYLATE

$$$$
