
 OpenBabel10282417072D

 34 34  0  0  0  0  0  0  0  0999 V2000
    0.9753   -3.1744    0.0000 C   0  0  0  0  0  0  0  0  0  0  0  0
    0.5628   -2.4599    0.0000 C   0  0  0  0  0  0  0  0  0  0  0  0
    0.9753   -1.7455    0.0000 C   0  0  0  0  0  0  0  0  0  0  0  0
    0.5628   -1.0310    0.0000 C   0  0  0  0  0  0  0  0  0  0  0  0
    0.9753   -0.3165    0.0000 O   0  0  0  0  0  0  0  0  0  0  0  0
    0.5628    0.3979    0.0000 C   0  0  0  0  0  0  0  0  0  0  0  0
   -0.2341    0.6115    0.0000 C   0  0  0  0  0  0  0  0  0  0  0  0
   -0.9486    0.1990    0.0000 O   0  0  0  0  0  0  0  0  0  0  0  0
   -0.0206    1.4084    0.0000 C   0  0  0  0  0  0  0  0  0  0  0  0
   -0.4331    2.1228    0.0000 O   0  0  0  0  0  0  0  0  0  0  0  0
    0.7763    1.1948    0.0000 C   0  0  0  0  0  0  0  0  0  0  0  0
    1.4908    1.6073    0.0000 O   0  0  0  0  0  0  0  0  0  0  0  0
    2.2053    1.1948    0.0000 C   0  0  0  0  0  0  0  0  0  0  0  0
    2.9197    1.6073    0.0000 C   0  0  0  0  0  0  0  0  0  0  0  0
    3.6342    1.1948    0.0000 C   0  0  0  0  0  0  0  0  0  0  0  0
    4.3487    1.6073    0.0000 C   0  0  0  0  0  0  0  0  0  0  0  0
    0.4403   -4.1010    0.0000 H   0  0  0  0  0  0  0  0  0  0  0  0
    2.0453   -3.1744    0.0000 H   0  0  0  0  0  0  0  0  0  0  0  0
    1.5103   -4.1011    0.0000 H   0  0  0  0  0  0  0  0  0  0  0  0
   -0.5072   -2.4599    0.0000 H   0  0  0  0  0  0  0  0  0  0  0  0
    0.0278   -1.5332    0.0000 H   0  0  0  0  0  0  0  0  0  0  0  0
    2.0453   -1.7455    0.0000 H   0  0  0  0  0  0  0  0  0  0  0  0
    1.5103   -0.8189    0.0000 H   0  0  0  0  0  0  0  0  0  0  0  0
   -0.5072   -1.0310    0.0000 H   0  0  0  0  0  0  0  0  0  0  0  0
    0.0278   -0.1044    0.0000 H   0  0  0  0  0  0  0  0  0  0  0  0
    2.2053    0.1248    0.0000 H   0  0  0  0  0  0  0  0  0  0  0  0
    3.1320    0.6598    0.0000 H   0  0  0  0  0  0  0  0  0  0  0  0
    2.9197    2.6773    0.0000 H   0  0  0  0  0  0  0  0  0  0  0  0
    3.8463    2.1423    0.0000 H   0  0  0  0  0  0  0  0  0  0  0  0
    3.6342    0.1248    0.0000 H   0  0  0  0  0  0  0  0  0  0  0  0
    4.5608    0.6598    0.0000 H   0  0  0  0  0  0  0  0  0  0  0  0
    5.2753    1.0723    0.0000 H   0  0  0  0  0  0  0  0  0  0  0  0
    4.3487    2.6773    0.0000 H   0  0  0  0  0  0  0  0  0  0  0  0
    5.2754    2.1423    0.0000 H   0  0  0  0  0  0  0  0  0  0  0  0
  1  2  1  0  0  0  0
  1 17  1  0  0  0  0
  1 18  1  0  0  0  0
  1 19  1  0  0  0  0
  2  3  1  0  0  0  0
  2 20  1  0  0  0  0
  2 21  1  0  0  0  0
  3  4  1  0  0  0  0
  3 22  1  0  0  0  0
  3 23  1  0  0  0  0
  4  5  1  0  0  0  0
  4 24  1  0  0  0  0
  4 25  1  0  0  0  0
  5  6  1  0  0  0  0
  6  7  1  0  0  0  0
  6 11  2  0  0  0  0
  7  8  2  0  0  0  0
  7  9  1  0  0  0  0
  9 10  2  0  0  0  0
  9 11  1  0  0  0  0
 11 12  1  0  0  0  0
 12 13  1  0  0  0  0
 13 14  1  0  0  0  0
 13 26  1  0  0  0  0
 13 27  1  0  0  0  0
 14 15  1  0  0  0  0
 14 28  1  0  0  0  0
 14 29  1  0  0  0  0
 15 16  1  0  0  0  0
 15 30  1  0  0  0  0
 15 31  1  0  0  0  0
 16 32  1  0  0  0  0
 16 33  1  0  0  0  0
 16 34  1  0  0  0  0
M  END
>  <DRUGBANK_ID>
DB12223

>  <COMMON_NAME>
Squaric acid dibutyl ester

>  <CAS_NUMBER>
2892-62-8

>  <UNII>
4RTO57VG65

>  <SYNONYMS>
Squaric acid dibutyl ester; Squaric acid dibutylester

$$$$
