
 OpenBabel10282417072D

 23 23  0  0  0  0  0  0  0  0999 V2000
   -1.0716    0.4125    0.0000 N   0  0  0  0  0  0  0  0  0  0  0  0
   -1.0716   -1.2374    0.0000 N   0  0  0  0  0  0  0  0  0  0  0  0
   -1.7862   -0.8250    0.0000 C   0  0  0  0  0  0  0  0  0  0  0  0
   -2.5006   -1.2374    0.0000 N   0  0  0  0  0  0  0  0  0  0  0  0
   -0.3572   -0.8250    0.0000 C   0  0  0  0  0  0  0  0  0  0  0  0
    0.3571   -1.2374    0.0000 N   0  0  0  0  0  0  0  0  0  0  0  0
   -1.7862    0.0000    0.0000 C   0  0  0  0  0  0  0  0  0  0  0  0
   -2.5006    0.4125    0.0000 Cl  0  0  0  0  0  0  0  0  0  0  0  0
   -0.3572    0.0000    0.0000 C   0  0  0  0  0  0  0  0  0  0  0  0
    1.0716    0.0000    0.0000 N   0  0  0  0  0  0  0  0  0  0  0  0
    2.5006    0.0000    0.0000 N   0  0  0  0  0  0  0  0  0  0  0  0
    1.7862    0.4125    0.0000 C   0  0  0  0  0  0  0  0  0  0  0  0
    1.7862    1.2374    0.0000 N   0  0  0  0  0  0  0  0  0  0  0  0
    0.3571    0.4125    0.0000 C   0  0  0  0  0  0  0  0  0  0  0  0
    0.3571    1.2374    0.0000 O   0  0  0  0  0  0  0  0  0  0  0  0
   -3.3532   -0.7451    0.0000 H   0  0  0  0  0  0  0  0  0  0  0  0
   -2.5007   -2.2219    0.0000 H   0  0  0  0  0  0  0  0  0  0  0  0
    0.3571   -2.2219    0.0000 H   0  0  0  0  0  0  0  0  0  0  0  0
    1.2097   -0.7451    0.0000 H   0  0  0  0  0  0  0  0  0  0  0  0
    1.0716   -0.9845    0.0000 H   0  0  0  0  0  0  0  0  0  0  0  0
    2.5006   -0.9845    0.0000 H   0  0  0  0  0  0  0  0  0  0  0  0
    3.3532    0.4922    0.0000 H   0  0  0  0  0  0  0  0  0  0  0  0
    2.6388    1.7297    0.0000 H   0  0  0  0  0  0  0  0  0  0  0  0
  1  7  1  0  0  0  0
  1  9  2  0  0  0  0
  2  5  2  0  0  0  0
  3  2  1  0  0  0  0
  3  4  1  0  0  0  0
  4 16  1  0  0  0  0
  4 17  1  0  0  0  0
  5  9  1  0  0  0  0
  5  6  1  0  0  0  0
  6 18  1  0  0  0  0
  6 19  1  0  0  0  0
  7  3  2  0  0  0  0
  7  8  1  0  0  0  0
  9 14  1  0  0  0  0
 10 12  1  0  0  0  0
 10 20  1  0  0  0  0
 11 21  1  0  0  0  0
 11 22  1  0  0  0  0
 12 11  1  0  0  0  0
 12 13  2  0  0  0  0
 13 23  1  0  0  0  0
 14 10  1  0  0  0  0
 14 15  2  0  0  0  0
M  END
>  <DRUGBANK_ID>
DB00594

>  <SECONDARY_ACCESSION_NUMBERS>
APRD00790; EXPT00514

>  <COMMON_NAME>
Amiloride

>  <CAS_NUMBER>
2609-46-3

>  <UNII>
7DZO8EB0Z3

>  <SYNONYMS>
3,5-diamino-N-carbamimidoyl-6-chloropyrazine-2-carboxamide; Amilorid; Amilorida; Amiloride; Amiloridum; Amipramidin; Amipramidine; Amyloride; N-amidino-3,5-diamino-6-chloropyrazinecarboxamide

$$$$
