PIQ
 OpenBabel10282417072D

 29 31  0  0  0  0  0  0  0  0999 V2000
   -2.8024   -0.7118    0.0000 N   0  0  0  0  0  0  0  0  0  0  0  0
   -1.9774   -0.7118    0.0000 C   0  0  0  0  0  0  0  0  0  0  0  0
   -1.4925   -0.0443    0.0000 N   0  0  0  0  0  0  0  0  0  0  0  0
   -0.7079   -0.2993    0.0000 C   0  0  0  0  0  0  0  0  0  0  0  0
    0.0066    0.1132    0.0000 C   0  0  0  0  0  0  0  0  0  0  0  0
    0.7211   -0.2993    0.0000 C   0  0  0  0  0  0  0  0  0  0  0  0
    1.4355    0.1132    0.0000 C   0  0  0  0  0  0  0  0  0  0  0  0
    1.4355    0.9382    0.0000 C   0  0  0  0  0  0  0  0  0  0  0  0
    2.1500    1.3507    0.0000 C   0  0  0  0  0  0  0  0  0  0  0  0
    2.8645    0.9382    0.0000 C   0  0  0  0  0  0  0  0  0  0  0  0
    2.8645    0.1132    0.0000 C   0  0  0  0  0  0  0  0  0  0  0  0
    2.1500   -0.2993    0.0000 C   0  0  0  0  0  0  0  0  0  0  0  0
   -1.4925   -1.3792    0.0000 N   0  0  0  0  0  0  0  0  0  0  0  0
   -1.7474    0.7403    0.0000 C   0  0  0  0  0  0  0  0  0  0  0  0
   -0.7079   -1.1243    0.0000 C   0  0  0  0  0  0  0  0  0  0  0  0
    0.0066   -1.5368    0.0000 N   0  0  0  0  0  0  0  0  0  0  0  0
    0.7211   -1.1243    0.0000 C   0  0  0  0  0  0  0  0  0  0  0  0
   -3.2947    0.1408    0.0000 H   0  0  0  0  0  0  0  0  0  0  0  0
   -3.2946   -1.5644    0.0000 H   0  0  0  0  0  0  0  0  0  0  0  0
    0.0066    1.1452    0.0000 H   0  0  0  0  0  0  0  0  0  0  0  0
    0.5418    1.4542    0.0000 H   0  0  0  0  0  0  0  0  0  0  0  0
    2.1500    2.3827    0.0000 H   0  0  0  0  0  0  0  0  0  0  0  0
    3.7582    1.4542    0.0000 H   0  0  0  0  0  0  0  0  0  0  0  0
    3.7582   -0.4028    0.0000 H   0  0  0  0  0  0  0  0  0  0  0  0
    2.1500   -1.3313    0.0000 H   0  0  0  0  0  0  0  0  0  0  0  0
   -1.0314    1.5354    0.0000 H   0  0  0  0  0  0  0  0  0  0  0  0
   -2.7940    0.9628    0.0000 H   0  0  0  0  0  0  0  0  0  0  0  0
   -2.0780    1.7579    0.0000 H   0  0  0  0  0  0  0  0  0  0  0  0
    1.6148   -1.6403    0.0000 H   0  0  0  0  0  0  0  0  0  0  0  0
  1  2  1  0  0  0  0
  1 18  1  0  0  0  0
  1 19  1  0  0  0  0
  2  3  1  0  0  0  0
  2 13  2  0  0  0  0
  3  4  1  0  0  0  0
  3 14  1  0  0  0  0
  4  5  2  0  0  0  0
  4 15  1  0  0  0  0
  5  6  1  0  0  0  0
  5 20  1  0  0  0  0
  6  7  1  0  0  0  0
  6 17  2  0  0  0  0
  7  8  1  0  0  0  0
  7 12  2  0  0  0  0
  8  9  2  0  0  0  0
  8 21  1  0  0  0  0
  9 10  1  0  0  0  0
  9 22  1  0  0  0  0
 10 11  2  0  0  0  0
 10 23  1  0  0  0  0
 11 12  1  0  0  0  0
 11 24  1  0  0  0  0
 12 25  1  0  0  0  0
 13 15  1  0  0  0  0
 14 26  1  0  0  0  0
 14 27  1  0  0  0  0
 14 28  1  0  0  0  0
 15 16  2  0  0  0  0
 16 17  1  0  0  0  0
 17 29  1  0  0  0  0
M  END
>  <DRUGBANK_ID>
DB08398

>  <SECONDARY_ACCESSION_NUMBERS>
DB12735

>  <COMMON_NAME>
2-Amino-1-methyl-6-phenylimidazo(4,5-b)pyridine

>  <CAS_NUMBER>
105650-23-5

>  <UNII>
909C6UN66T

>  <SYNONYMS>
2-amino-1-methyl-6-phenylimidazo[4,5-b]pyridine; PhIP

$$$$
