87Y
 OpenBabel10282417072D

 42 44  0  0  0  0  0  0  0  0999 V2000
   -3.0702    0.1175    0.0000 N   0  0  0  0  0  0  0  0  0  0  0  0
   -2.3557    0.5300    0.0000 C   0  0  0  0  0  0  0  0  0  0  0  0
   -2.3557    1.3550    0.0000 O   0  0  0  0  0  0  0  0  0  0  0  0
   -1.6412    0.1175    0.0000 C   0  0  0  0  0  0  0  0  0  0  0  0
   -0.9267    0.5300    0.0000 N   0  0  0  0  0  0  0  0  0  0  0  0
   -0.2123    0.1175    0.0000 C   0  0  0  0  0  0  0  0  0  0  0  0
    0.5022    0.5300    0.0000 C   0  0  0  0  0  0  0  0  0  0  0  0
    0.5022    1.3550    0.0000 O   0  0  0  0  0  0  0  0  0  0  0  0
   -0.2123   -0.7075    0.0000 C   0  0  1  0  0  0  0  0  0  0  0  0
    0.6002   -0.5642    0.0000 C   0  0  0  0  0  0  0  0  0  0  0  0
    0.0699   -1.4827    0.0000 C   0  0  0  0  0  0  0  0  0  0  0  0
   -0.9267   -1.1200    0.0000 N   0  0  0  0  0  0  0  0  0  0  0  0
   -1.6412   -0.7075    0.0000 C   0  0  0  0  0  0  0  0  0  0  0  0
   -2.3557   -1.1200    0.0000 N   0  0  0  0  0  0  0  0  0  0  0  0
   -3.0702   -0.7075    0.0000 C   0  0  0  0  0  0  0  0  0  0  0  0
   -3.7846   -1.1200    0.0000 N   0  0  0  0  0  0  0  0  0  0  0  0
    0.8824    0.2110    0.0000 C   0  0  0  0  0  0  0  0  0  0  0  0
    1.6948    0.3543    0.0000 C   0  0  0  0  0  0  0  0  0  0  0  0
    1.9770    1.1295    0.0000 C   0  0  0  0  0  0  0  0  0  0  0  0
    2.7895    1.2728    0.0000 C   0  0  0  0  0  0  0  0  0  0  0  0
    3.3198    0.6408    0.0000 C   0  0  0  0  0  0  0  0  0  0  0  0
    3.0376   -0.1344    0.0000 C   0  0  0  0  0  0  0  0  0  0  0  0
    2.2251   -0.2777    0.0000 C   0  0  0  0  0  0  0  0  0  0  0  0
   -3.9228    0.6098    0.0000 H   0  0  0  0  0  0  0  0  0  0  0  0
    1.4288   -0.0050    0.0000 H   0  0  0  0  0  0  0  0  0  0  0  0
    1.4288    1.0650    0.0000 H   0  0  0  0  0  0  0  0  0  0  0  0
    1.3422    1.8400    0.0000 H   0  0  0  0  0  0  0  0  0  0  0  0
    1.2880   -1.3839    0.0000 H   0  0  0  0  0  0  0  0  0  0  0  0
    1.6540   -0.3784    0.0000 H   0  0  0  0  0  0  0  0  0  0  0  0
   -0.6178   -2.3024    0.0000 H   0  0  0  0  0  0  0  0  0  0  0  0
    1.1237   -1.6684    0.0000 H   0  0  0  0  0  0  0  0  0  0  0  0
    0.4359   -2.4882    0.0000 H   0  0  0  0  0  0  0  0  0  0  0  0
   -0.9267   -2.1045    0.0000 H   0  0  0  0  0  0  0  0  0  0  0  0
   -4.6372   -0.6278    0.0000 H   0  0  0  0  0  0  0  0  0  0  0  0
   -3.7846   -2.1045    0.0000 H   0  0  0  0  0  0  0  0  0  0  0  0
    0.1946    1.0307    0.0000 H   0  0  0  0  0  0  0  0  0  0  0  0
    1.2483    1.2165    0.0000 H   0  0  0  0  0  0  0  0  0  0  0  0
    1.3136    1.9201    0.0000 H   0  0  0  0  0  0  0  0  0  0  0  0
    3.1424    2.2426    0.0000 H   0  0  0  0  0  0  0  0  0  0  0  0
    4.3361    0.8200    0.0000 H   0  0  0  0  0  0  0  0  0  0  0  0
    3.7010   -0.9250    0.0000 H   0  0  0  0  0  0  0  0  0  0  0  0
    1.8722   -1.2475    0.0000 H   0  0  0  0  0  0  0  0  0  0  0  0
  1  2  1  0  0  0  0
  1 15  1  0  0  0  0
  1 24  1  0  0  0  0
  2  3  2  0  0  0  0
  2  4  1  0  0  0  0
  4  5  1  0  0  0  0
  4 13  2  0  0  0  0
  5  6  2  0  0  0  0
  6  7  1  0  0  0  0
  6  9  1  0  0  0  0
  7  8  1  0  0  0  0
  7 25  1  0  0  0  0
  7 26  1  0  0  0  0
  8 27  1  0  0  0  0
  9 10  1  6  0  0  0
  9 11  1  0  0  0  0
  9 12  1  0  0  0  0
 10 17  1  0  0  0  0
 10 28  1  0  0  0  0
 10 29  1  0  0  0  0
 11 30  1  0  0  0  0
 11 31  1  0  0  0  0
 11 32  1  0  0  0  0
 12 13  1  0  0  0  0
 12 33  1  0  0  0  0
 13 14  1  0  0  0  0
 14 15  2  0  0  0  0
 15 16  1  0  0  0  0
 16 34  1  0  0  0  0
 16 35  1  0  0  0  0
 17 18  1  0  0  0  0
 17 36  1  0  0  0  0
 17 37  1  0  0  0  0
 18 19  2  0  0  0  0
 18 23  1  0  0  0  0
 19 20  1  0  0  0  0
 19 38  1  0  0  0  0
 20 21  2  0  0  0  0
 20 39  1  0  0  0  0
 21 22  1  0  0  0  0
 21 40  1  0  0  0  0
 22 23  2  0  0  0  0
 22 41  1  0  0  0  0
 23 42  1  0  0  0  0
M  END
>  <DRUGBANK_ID>
DB04610

>  <COMMON_NAME>
7,8-dihydro-6-hydroxymethyl-7-methyl-7-[2-phenylethyl]-pterin

$$$$
