
 OpenBabel10282417072D

 40 40  0  0  0  0  0  0  0  0999 V2000
    0.7148   -0.4221    0.0000 C   0  0  0  0  0  0  0  0  0  0  0  0
    1.4338   -0.8210    0.0000 N   0  0  0  0  0  0  0  0  0  0  0  0
    2.1501   -0.4221    0.0000 C   0  0  0  0  0  0  0  0  0  0  0  0
    0.7148    0.4105    0.0000 C   0  0  0  0  0  0  0  0  0  0  0  0
    2.1501    0.4105    0.0000 C   0  0  0  0  0  0  0  0  0  0  0  0
    1.4338    0.8210    0.0000 C   0  0  0  0  0  0  0  0  0  0  0  0
   -0.0043   -0.8268    0.0000 C   0  0  0  0  0  0  0  0  0  0  0  0
    2.8721   -0.8210    0.0000 O   0  0  0  0  0  0  0  0  0  0  0  0
    1.4338   -1.6449    0.0000 O   0  0  0  0  0  0  0  0  0  0  0  0
   -2.1646   -0.4221    0.0000 C   0  0  0  0  0  0  0  0  0  0  0  0
   -1.4454   -0.8239    0.0000 C   0  0  0  0  0  0  0  0  0  0  0  0
   -0.7234   -0.4251    0.0000 C   0  0  3  0  0  0  0  0  0  0  0  0
    1.4338    1.6449    0.0000 C   0  0  0  0  0  0  0  0  0  0  0  0
   -0.7234    0.3988    0.0000 C   0  0  0  0  0  0  0  0  0  0  0  0
   -2.7032    0.3549    0.0000 C   0  0  0  0  0  0  0  0  0  0  0  0
   -2.8721   -0.8441    0.0000 C   0  0  0  0  0  0  0  0  0  0  0  0
   -1.8522    0.3752    0.0000 C   0  0  0  0  0  0  0  0  0  0  0  0
   -0.1777    0.9287    0.0000 H   0  0  0  0  0  0  0  0  0  0  0  0
    3.0430    0.9279    0.0000 H   0  0  0  0  0  0  0  0  0  0  0  0
   -0.0026   -1.8968    0.0000 H   0  0  0  0  0  0  0  0  0  0  0  0
   -0.9267   -1.3691    0.0000 H   0  0  0  0  0  0  0  0  0  0  0  0
    0.6223   -2.1134    0.0000 H   0  0  0  0  0  0  0  0  0  0  0  0
   -1.4480   -1.8939    0.0000 H   0  0  0  0  0  0  0  0  0  0  0  0
   -0.5245   -1.3688    0.0000 H   0  0  0  0  0  0  0  0  0  0  0  0
   -0.7260   -1.4951    0.0000 H   0  0  0  0  0  0  0  0  0  0  0  0
    2.3604    2.1799    0.0000 H   0  0  0  0  0  0  0  0  0  0  0  0
    0.5072    2.1799    0.0000 H   0  0  0  0  0  0  0  0  0  0  0  0
    1.4338    2.7149    0.0000 H   0  0  0  0  0  0  0  0  0  0  0  0
    0.2032    0.9338    0.0000 H   0  0  0  0  0  0  0  0  0  0  0  0
   -1.6500    0.9338    0.0000 H   0  0  0  0  0  0  0  0  0  0  0  0
   -0.7234    1.4688    0.0000 H   0  0  0  0  0  0  0  0  0  0  0  0
   -2.2464    1.3225    0.0000 H   0  0  0  0  0  0  0  0  0  0  0  0
   -3.7696    0.2667    0.0000 H   0  0  0  0  0  0  0  0  0  0  0  0
   -3.3128    1.2343    0.0000 H   0  0  0  0  0  0  0  0  0  0  0  0
   -3.8063   -0.3223    0.0000 H   0  0  0  0  0  0  0  0  0  0  0  0
   -2.8569   -1.9140    0.0000 H   0  0  0  0  0  0  0  0  0  0  0  0
   -3.7910   -1.3922    0.0000 H   0  0  0  0  0  0  0  0  0  0  0  0
   -0.7942    0.5353    0.0000 H   0  0  0  0  0  0  0  0  0  0  0  0
   -2.5198    1.2114    0.0000 H   0  0  0  0  0  0  0  0  0  0  0  0
   -1.4618    1.3715    0.0000 H   0  0  0  0  0  0  0  0  0  0  0  0
  2  1  1  0  0  0  0
  3  2  1  0  0  0  0
  4  1  2  0  0  0  0
  4 18  1  0  0  0  0
  5  6  2  0  0  0  0
  5  3  1  0  0  0  0
  5 19  1  0  0  0  0
  6  4  1  0  0  0  0
  7  1  1  0  0  0  0
  7 20  1  0  0  0  0
  7 21  1  0  0  0  0
  8  3  2  0  0  0  0
  9  2  1  0  0  0  0
  9 22  1  0  0  0  0
 10 11  1  0  0  0  0
 10 15  1  0  0  0  0
 10 16  1  0  0  0  0
 10 17  1  0  0  0  0
 11 12  1  0  0  0  0
 11 23  1  0  0  0  0
 11 24  1  0  0  0  0
 12  7  1  0  0  0  0
 12 25  1  0  0  0  0
 13  6  1  0  0  0  0
 13 26  1  0  0  0  0
 13 27  1  0  0  0  0
 13 28  1  0  0  0  0
 14 12  1  0  0  0  0
 14 29  1  0  0  0  0
 14 30  1  0  0  0  0
 14 31  1  0  0  0  0
 15 32  1  0  0  0  0
 15 33  1  0  0  0  0
 15 34  1  0  0  0  0
 16 35  1  0  0  0  0
 16 36  1  0  0  0  0
 16 37  1  0  0  0  0
 17 38  1  0  0  0  0
 17 39  1  0  0  0  0
 17 40  1  0  0  0  0
M  END
>  <DRUGBANK_ID>
DB15946

>  <COMMON_NAME>
Piroctone

>  <CAS_NUMBER>
50650-76-5

>  <UNII>
R49EFA73Q7

>  <SYNONYMS>
Piroctona; Piroctone; Piroctonol; Piroctonum

$$$$
