AXX
 OpenBabel10282417072D

 34 36  0  0  0  0  0  0  0  0999 V2000
   -1.0363    1.5373    0.0000 O   0  0  0  0  0  0  0  0  0  0  0  0
   -1.4488    0.8229    0.0000 C   0  0  0  0  0  0  0  0  0  0  0  0
   -2.2738    0.8229    0.0000 C   0  0  0  0  0  0  0  0  0  0  0  0
   -2.9883    0.4104    0.0000 C   0  0  0  0  0  0  0  0  0  0  0  0
   -2.9883    1.2354    0.0000 C   0  0  0  0  0  0  0  0  0  0  0  0
   -1.0363    0.1084    0.0000 N   0  0  0  0  0  0  0  0  0  0  0  0
   -0.2113    0.1084    0.0000 C   0  0  0  0  0  0  0  0  0  0  0  0
    0.2736    0.7758    0.0000 S   0  0  0  0  0  0  0  0  0  0  0  0
    1.0583    0.5209    0.0000 C   0  0  0  0  0  0  0  0  0  0  0  0
    1.7727    0.9334    0.0000 C   0  0  0  0  0  0  0  0  0  0  0  0
    2.4872    0.5209    0.0000 C   0  0  0  0  0  0  0  0  0  0  0  0
    2.4872   -0.3041    0.0000 C   0  0  0  0  0  0  0  0  0  0  0  0
    1.7727   -0.7166    0.0000 C   0  0  0  0  0  0  0  0  0  0  0  0
    1.0583   -0.3041    0.0000 C   0  0  0  0  0  0  0  0  0  0  0  0
    0.2736   -0.5590    0.0000 C   0  0  0  0  0  0  0  0  0  0  0  0
    0.0187   -1.3437    0.0000 C   0  0  0  0  0  0  0  0  0  0  0  0
   -0.7883   -1.5152    0.0000 O   0  0  0  0  0  0  0  0  0  0  0  0
    0.5707   -1.9568    0.0000 N   0  0  0  0  0  0  0  0  0  0  0  0
   -3.3438    0.8229    0.0000 H   0  0  0  0  0  0  0  0  0  0  0  0
   -3.5233   -0.5162    0.0000 H   0  0  0  0  0  0  0  0  0  0  0  0
   -4.0218    0.6873    0.0000 H   0  0  0  0  0  0  0  0  0  0  0  0
   -3.5233    2.1620    0.0000 H   0  0  0  0  0  0  0  0  0  0  0  0
   -4.0218    0.9585    0.0000 H   0  0  0  0  0  0  0  0  0  0  0  0
   -1.5286   -0.7442    0.0000 H   0  0  0  0  0  0  0  0  0  0  0  0
    1.7727    2.0034    0.0000 H   0  0  0  0  0  0  0  0  0  0  0  0
    2.6993    1.4684    0.0000 H   0  0  0  0  0  0  0  0  0  0  0  0
    3.4138    1.0559    0.0000 H   0  0  0  0  0  0  0  0  0  0  0  0
    3.4138   -0.0141    0.0000 H   0  0  0  0  0  0  0  0  0  0  0  0
    3.4138   -0.8391    0.0000 H   0  0  0  0  0  0  0  0  0  0  0  0
    2.4872   -1.3741    0.0000 H   0  0  0  0  0  0  0  0  0  0  0  0
    1.7727   -1.7866    0.0000 H   0  0  0  0  0  0  0  0  0  0  0  0
    0.8460   -1.2516    0.0000 H   0  0  0  0  0  0  0  0  0  0  0  0
    0.2664   -2.8931    0.0000 H   0  0  0  0  0  0  0  0  0  0  0  0
    1.5337   -1.7521    0.0000 H   0  0  0  0  0  0  0  0  0  0  0  0
  1  2  2  0  0  0  0
  2  6  1  0  0  0  0
  2  3  1  0  0  0  0
  3  4  1  0  0  0  0
  3  5  1  0  0  0  0
  3 19  1  0  0  0  0
  4  5  1  0  0  0  0
  4 20  1  0  0  0  0
  4 21  1  0  0  0  0
  5 22  1  0  0  0  0
  5 23  1  0  0  0  0
  6  7  1  0  0  0  0
  6 24  1  0  0  0  0
  7  8  1  0  0  0  0
  7 15  2  0  0  0  0
  8  9  1  0  0  0  0
  9 10  1  0  0  0  0
  9 14  2  0  0  0  0
 10 11  1  0  0  0  0
 10 25  1  0  0  0  0
 10 26  1  0  0  0  0
 11 12  1  0  0  0  0
 11 27  1  0  0  0  0
 11 28  1  0  0  0  0
 12 13  1  0  0  0  0
 12 29  1  0  0  0  0
 12 30  1  0  0  0  0
 13 14  1  0  0  0  0
 13 31  1  0  0  0  0
 13 32  1  0  0  0  0
 14 15  1  0  0  0  0
 15 16  1  0  0  0  0
 16 18  1  0  0  0  0
 16 17  2  0  0  0  0
 18 33  1  0  0  0  0
 18 34  1  0  0  0  0
M  END
>  <DRUGBANK_ID>
DB07398

>  <COMMON_NAME>
2-[(CYCLOPROPYLCARBONYL)AMINO]-4,5,6,7-TETRAHYDRO-1-BENZOTHIOPHENE-3-CARBOXAMIDE

$$$$
