PU8
 OpenBabel10282417072D

 52 54  0  0  0  0  0  0  0  0999 V2000
   -1.1004    3.2323    0.0000 C   0  0  0  0  0  0  0  0  0  0  0  0
   -0.6879    2.5178    0.0000 O   0  0  0  0  0  0  0  0  0  0  0  0
   -1.1004    1.8033    0.0000 C   0  0  0  0  0  0  0  0  0  0  0  0
   -0.6879    1.0888    0.0000 C   0  0  0  0  0  0  0  0  0  0  0  0
   -1.9254    1.8033    0.0000 C   0  0  0  0  0  0  0  0  0  0  0  0
   -2.3379    2.5178    0.0000 O   0  0  0  0  0  0  0  0  0  0  0  0
   -3.1629    2.5178    0.0000 C   0  0  0  0  0  0  0  0  0  0  0  0
   -2.3379    1.0888    0.0000 C   0  0  0  0  0  0  0  0  0  0  0  0
   -3.1629    1.0888    0.0000 O   0  0  0  0  0  0  0  0  0  0  0  0
   -3.5754    0.3744    0.0000 C   0  0  0  0  0  0  0  0  0  0  0  0
   -1.9254    0.3744    0.0000 C   0  0  0  0  0  0  0  0  0  0  0  0
   -1.1004    0.3744    0.0000 C   0  0  0  0  0  0  0  0  0  0  0  0
   -0.6879   -0.3401    0.0000 C   0  0  0  0  0  0  0  0  0  0  0  0
    0.1371   -0.3401    0.0000 C   0  0  0  0  0  0  0  0  0  0  0  0
    0.6220    0.3273    0.0000 N   0  0  0  0  0  0  0  0  0  0  0  0
    1.4067    0.0724    0.0000 C   0  0  0  0  0  0  0  0  0  0  0  0
    2.1211    0.4849    0.0000 C   0  0  0  0  0  0  0  0  0  0  0  0
    2.1211    1.3099    0.0000 N   0  0  0  0  0  0  0  0  0  0  0  0
    1.4067   -0.7526    0.0000 C   0  0  0  0  0  0  0  0  0  0  0  0
    2.1211   -1.1651    0.0000 N   0  0  0  0  0  0  0  0  0  0  0  0
    2.8356   -0.7526    0.0000 C   0  0  0  0  0  0  0  0  0  0  0  0
    2.8356    0.0724    0.0000 N   0  0  0  0  0  0  0  0  0  0  0  0
    0.6220   -1.0075    0.0000 N   0  0  0  0  0  0  0  0  0  0  0  0
    0.3671   -1.7922    0.0000 C   0  0  0  0  0  0  0  0  0  0  0  0
    0.9191   -2.4053    0.0000 C   0  0  0  0  0  0  0  0  0  0  0  0
    0.6642   -3.1899    0.0000 C   0  0  0  0  0  0  0  0  0  0  0  0
    1.2162   -3.8030    0.0000 C   0  0  0  0  0  0  0  0  0  0  0  0
    0.1371    1.0888    0.0000 Cl  0  0  0  0  0  0  0  0  0  0  0  0
   -0.5654    4.1589    0.0000 H   0  0  0  0  0  0  0  0  0  0  0  0
   -2.1704    3.2323    0.0000 H   0  0  0  0  0  0  0  0  0  0  0  0
   -1.6354    4.1590    0.0000 H   0  0  0  0  0  0  0  0  0  0  0  0
   -3.6979    3.4444    0.0000 H   0  0  0  0  0  0  0  0  0  0  0  0
   -3.6979    1.5912    0.0000 H   0  0  0  0  0  0  0  0  0  0  0  0
   -4.2329    2.5178    0.0000 H   0  0  0  0  0  0  0  0  0  0  0  0
   -4.6454    0.3744    0.0000 H   0  0  0  0  0  0  0  0  0  0  0  0
   -3.0404   -0.5523    0.0000 H   0  0  0  0  0  0  0  0  0  0  0  0
   -4.1104   -0.5522    0.0000 H   0  0  0  0  0  0  0  0  0  0  0  0
   -2.4414   -0.5193    0.0000 H   0  0  0  0  0  0  0  0  0  0  0  0
   -1.2229   -1.2667    0.0000 H   0  0  0  0  0  0  0  0  0  0  0  0
   -0.1529   -1.2667    0.0000 H   0  0  0  0  0  0  0  0  0  0  0  0
    2.9737    1.8022    0.0000 H   0  0  0  0  0  0  0  0  0  0  0  0
    1.2685    1.8021    0.0000 H   0  0  0  0  0  0  0  0  0  0  0  0
    3.7293   -1.2686    0.0000 H   0  0  0  0  0  0  0  0  0  0  0  0
   -0.6795   -2.0147    0.0000 H   0  0  0  0  0  0  0  0  0  0  0  0
    0.0364   -2.8098    0.0000 H   0  0  0  0  0  0  0  0  0  0  0  0
    1.9657   -2.1828    0.0000 H   0  0  0  0  0  0  0  0  0  0  0  0
    1.6351   -3.2005    0.0000 H   0  0  0  0  0  0  0  0  0  0  0  0
   -0.3824   -3.4124    0.0000 H   0  0  0  0  0  0  0  0  0  0  0  0
    0.3335   -4.2075    0.0000 H   0  0  0  0  0  0  0  0  0  0  0  0
    0.8855   -4.8206    0.0000 H   0  0  0  0  0  0  0  0  0  0  0  0
    2.2628   -3.5806    0.0000 H   0  0  0  0  0  0  0  0  0  0  0  0
    1.9321   -4.5982    0.0000 H   0  0  0  0  0  0  0  0  0  0  0  0
  1  2  1  0  0  0  0
  1 29  1  0  0  0  0
  1 30  1  0  0  0  0
  1 31  1  0  0  0  0
  2  3  1  0  0  0  0
  3  4  2  0  0  0  0
  3  5  1  0  0  0  0
  4 12  1  0  0  0  0
  4 28  1  0  0  0  0
  5  6  1  0  0  0  0
  5  8  2  0  0  0  0
  6  7  1  0  0  0  0
  7 32  1  0  0  0  0
  7 33  1  0  0  0  0
  7 34  1  0  0  0  0
  8  9  1  0  0  0  0
  8 11  1  0  0  0  0
  9 10  1  0  0  0  0
 10 35  1  0  0  0  0
 10 36  1  0  0  0  0
 10 37  1  0  0  0  0
 11 12  2  0  0  0  0
 11 38  1  0  0  0  0
 12 13  1  0  0  0  0
 13 14  1  0  0  0  0
 13 39  1  0  0  0  0
 13 40  1  0  0  0  0
 14 15  2  0  0  0  0
 14 23  1  0  0  0  0
 15 16  1  0  0  0  0
 16 17  2  0  0  0  0
 16 19  1  0  0  0  0
 17 18  1  0  0  0  0
 17 22  1  0  0  0  0
 18 41  1  0  0  0  0
 18 42  1  0  0  0  0
 19 20  2  0  0  0  0
 19 23  1  0  0  0  0
 20 21  1  0  0  0  0
 21 22  2  0  0  0  0
 21 43  1  0  0  0  0
 23 24  1  0  0  0  0
 24 25  1  0  0  0  0
 24 44  1  0  0  0  0
 24 45  1  0  0  0  0
 25 26  1  0  0  0  0
 25 46  1  0  0  0  0
 25 47  1  0  0  0  0
 26 27  1  0  0  0  0
 26 48  1  0  0  0  0
 26 49  1  0  0  0  0
 27 50  1  0  0  0  0
 27 51  1  0  0  0  0
 27 52  1  0  0  0  0
M  END
>  <DRUGBANK_ID>
DB03504

>  <SECONDARY_ACCESSION_NUMBERS>
EXPT02698

>  <COMMON_NAME>
9-Butyl-8-(2-Chloro-3,4,5-Trimethoxy-Benzyl)-9h-Purin-6-Ylamine

$$$$
