
 OpenBabel10282417072D

 52 54  0  0  1  0  0  0  0  0999 V2000
    4.5080   -4.8717    0.0000 Cl  0  0  0  0  0  0  0  0  0  0  0  0
    3.7935   -1.1592    0.0000 O   0  0  0  0  0  0  0  0  0  0  0  0
    2.3645    4.6160    0.0000 O   0  0  0  0  0  0  0  0  0  0  0  0
    1.6500    3.3784    0.0000 O   0  0  0  0  0  0  0  0  0  0  0  0
    3.7935    1.3159    0.0000 N   0  0  0  0  0  0  0  0  0  0  0  0
    5.2224   -0.3341    0.0000 N   0  0  0  0  0  0  0  0  0  0  0  0
    3.7935   -0.3341    0.0000 C   0  0  0  0  0  0  0  0  0  0  0  0
    3.0791    0.0784    0.0000 C   0  0  0  0  0  0  0  0  0  0  0  0
    4.5080    0.0784    0.0000 C   0  0  0  0  0  0  0  0  0  0  0  0
    3.0791    0.9034    0.0000 C   0  0  0  0  0  0  0  0  0  0  0  0
    4.5080    0.9034    0.0000 C   0  0  0  0  0  0  0  0  0  0  0  0
    3.7935    2.1409    0.0000 C   0  0  0  0  0  0  0  0  0  0  0  0
    3.0791    2.5534    0.0000 C   0  0  0  0  0  0  0  0  0  0  0  0
    4.5080   -1.5717    0.0000 C   0  0  3  0  0  0  0  0  0  0  0  0
    3.0791    3.3784    0.0000 C   0  0  0  0  0  0  0  0  0  0  0  0
    4.5080   -2.3967    0.0000 C   0  0  0  0  0  0  0  0  0  0  0  0
    5.2224   -1.1592    0.0000 C   0  0  0  0  0  0  0  0  0  0  0  0
    5.2224   -2.8092    0.0000 C   0  0  0  0  0  0  0  0  0  0  0  0
    3.7935   -2.8092    0.0000 C   0  0  0  0  0  0  0  0  0  0  0  0
    2.3645    3.7910    0.0000 C   0  0  0  0  0  0  0  0  0  0  0  0
    5.9370   -1.5717    0.0000 C   0  0  0  0  0  0  0  0  0  0  0  0
    5.2224   -3.6342    0.0000 C   0  0  0  0  0  0  0  0  0  0  0  0
    3.7935   -3.6342    0.0000 C   0  0  0  0  0  0  0  0  0  0  0  0
    6.6515   -1.1592    0.0000 C   0  0  0  0  0  0  0  0  0  0  0  0
    4.5080   -4.0467    0.0000 C   0  0  0  0  0  0  0  0  0  0  0  0
    5.9370    0.0784    0.0000 C   0  0  0  0  0  0  0  0  0  0  0  0
    6.6515   -0.3341    0.0000 C   0  0  0  0  0  0  0  0  0  0  0  0
    3.1760    5.0845    0.0000 H   0  0  0  0  0  0  0  0  0  0  0  0
    3.7935    0.7359    0.0000 H   0  0  0  0  0  0  0  0  0  0  0  0
    2.1524   -0.4566    0.0000 H   0  0  0  0  0  0  0  0  0  0  0  0
    2.1525    0.6134    0.0000 H   0  0  0  0  0  0  0  0  0  0  0  0
    5.4346   -0.4566    0.0000 H   0  0  0  0  0  0  0  0  0  0  0  0
    5.4346    0.6134    0.0000 H   0  0  0  0  0  0  0  0  0  0  0  0
    2.1524    1.4384    0.0000 H   0  0  0  0  0  0  0  0  0  0  0  0
    2.1525    0.3684    0.0000 H   0  0  0  0  0  0  0  0  0  0  0  0
    5.4346    1.4384    0.0000 H   0  0  0  0  0  0  0  0  0  0  0  0
    5.4346    0.3684    0.0000 H   0  0  0  0  0  0  0  0  0  0  0  0
    4.7202    2.6759    0.0000 H   0  0  0  0  0  0  0  0  0  0  0  0
    3.7935    3.2109    0.0000 H   0  0  0  0  0  0  0  0  0  0  0  0
    2.1524    2.0184    0.0000 H   0  0  0  0  0  0  0  0  0  0  0  0
    2.1525    3.0884    0.0000 H   0  0  0  0  0  0  0  0  0  0  0  0
    3.5814   -2.1067    0.0000 H   0  0  0  0  0  0  0  0  0  0  0  0
    4.0058    3.9134    0.0000 H   0  0  0  0  0  0  0  0  0  0  0  0
    3.0791    4.4484    0.0000 H   0  0  0  0  0  0  0  0  0  0  0  0
    6.1161   -2.2932    0.0000 H   0  0  0  0  0  0  0  0  0  0  0  0
    2.8998   -2.2932    0.0000 H   0  0  0  0  0  0  0  0  0  0  0  0
    5.9370   -2.6037    0.0000 H   0  0  0  0  0  0  0  0  0  0  0  0
    6.1161   -4.1502    0.0000 H   0  0  0  0  0  0  0  0  0  0  0  0
    2.8998   -4.1502    0.0000 H   0  0  0  0  0  0  0  0  0  0  0  0
    7.5452   -1.6752    0.0000 H   0  0  0  0  0  0  0  0  0  0  0  0
    5.9370    1.1104    0.0000 H   0  0  0  0  0  0  0  0  0  0  0  0
    7.5452    0.1819    0.0000 H   0  0  0  0  0  0  0  0  0  0  0  0
  1 25  1  0  0  0  0
  2  7  1  0  0  0  0
  2 14  1  0  0  0  0
  3 20  1  0  0  0  0
  3 28  1  0  0  0  0
  4 20  2  0  0  0  0
  5 10  1  0  0  0  0
  5 11  1  0  0  0  0
  5 12  1  0  0  0  0
  6 17  1  0  0  0  0
  6 26  2  0  0  0  0
  7  8  1  0  0  0  0
  7  9  1  0  0  0  0
  7 29  1  0  0  0  0
  8 10  1  0  0  0  0
  8 30  1  0  0  0  0
  8 31  1  0  0  0  0
  9 11  1  0  0  0  0
  9 32  1  0  0  0  0
  9 33  1  0  0  0  0
 10 34  1  0  0  0  0
 10 35  1  0  0  0  0
 11 36  1  0  0  0  0
 11 37  1  0  0  0  0
 12 13  1  0  0  0  0
 12 38  1  0  0  0  0
 12 39  1  0  0  0  0
 13 15  1  0  0  0  0
 13 40  1  0  0  0  0
 13 41  1  0  0  0  0
 14 16  1  0  0  0  0
 14 17  1  0  0  0  0
 14 42  1  0  0  0  0
 15 20  1  0  0  0  0
 15 43  1  0  0  0  0
 15 44  1  0  0  0  0
 16 18  2  0  0  0  0
 16 19  1  0  0  0  0
 17 21  2  0  0  0  0
 18 22  1  0  0  0  0
 18 45  1  0  0  0  0
 19 23  2  0  0  0  0
 19 46  1  0  0  0  0
 21 24  1  0  0  0  0
 21 47  1  0  0  0  0
 22 25  2  0  0  0  0
 22 48  1  0  0  0  0
 23 25  1  0  0  0  0
 23 49  1  0  0  0  0
 24 27  2  0  0  0  0
 24 50  1  0  0  0  0
 26 27  1  0  0  0  0
 26 51  1  0  0  0  0
 27 52  1  0  0  0  0
M  END
>  <DRUGBANK_ID>
DB04890

>  <COMMON_NAME>
Bepotastine

>  <CAS_NUMBER>
125602-71-3

>  <UNII>
HYD2U48IAS

>  <SYNONYMS>
bepotastina; Bepotastine

$$$$
