
 OpenBabel10282417072D

 70 72  0  0  1  0  0  0  0  0999 V2000
   -0.0000    3.3000    0.0000 C   0  0  0  0  0  0  0  0  0  0  0  0
   -0.7145    6.1875    0.0000 C   0  0  0  0  0  0  0  0  0  0  0  0
   -3.5724    1.2375    0.0000 C   0  0  0  0  0  0  0  0  0  0  0  0
   -0.7145    3.7125    0.0000 C   0  0  1  0  0  0  0  0  0  0  0  0
   -0.0000    2.4750    0.0000 C   0  0  2  0  0  0  0  0  0  0  0  0
   -1.4289    5.7750    0.0000 C   0  0  2  0  0  0  0  0  0  0  0  0
   -2.8579    0.8250    0.0000 C   0  0  2  0  0  0  0  0  0  0  0  0
   -2.1434   -0.4125    0.0000 C   0  0  1  0  0  0  0  0  0  0  0  0
   -2.8579    4.9500    0.0000 C   0  0  2  0  0  0  0  0  0  0  0  0
   -2.8579    0.0000    0.0000 C   0  0  2  0  0  0  0  0  0  0  0  0
   -2.1434    6.1875    0.0000 C   0  0  2  0  0  0  0  0  0  0  0  0
   -2.8579    5.7750    0.0000 C   0  0  2  0  0  0  0  0  0  0  0  0
   -1.4289   -0.0000    0.0000 C   0  0  2  0  0  0  0  0  0  0  0  0
   -1.4289    2.4750    0.0000 C   0  0  1  0  0  0  0  0  0  0  0  0
   -1.4289    3.3000    0.0000 C   0  0  2  0  0  0  0  0  0  0  0  0
   -0.7145    2.0625    0.0000 C   0  0  1  0  0  0  0  0  0  0  0  0
   -2.1434    4.5375    0.0000 C   0  0  2  0  0  0  0  0  0  0  0  0
   -1.4289    0.8250    0.0000 C   0  0  2  0  0  0  0  0  0  0  0  0
   -0.7145    7.0125    0.0000 N   0  0  0  0  0  0  0  0  0  0  0  0
   -0.7145    4.5375    0.0000 N   0  0  0  0  0  0  0  0  0  0  0  0
    0.7145    2.0625    0.0000 N   0  0  0  0  0  0  0  0  0  0  0  0
   -2.1434   -1.2375    0.0000 N   0  0  0  0  0  0  0  0  0  0  0  0
   -3.5724    4.5375    0.0000 N   0  0  0  0  0  0  0  0  0  0  0  0
   -3.5724    2.0625    0.0000 O   0  0  0  0  0  0  0  0  0  0  0  0
   -3.5724   -0.4125    0.0000 O   0  0  0  0  0  0  0  0  0  0  0  0
   -2.1434    7.0125    0.0000 O   0  0  0  0  0  0  0  0  0  0  0  0
   -3.5724    6.1875    0.0000 O   0  0  0  0  0  0  0  0  0  0  0  0
   -0.7145   -0.4125    0.0000 O   0  0  0  0  0  0  0  0  0  0  0  0
   -2.1434    2.0625    0.0000 O   0  0  0  0  0  0  0  0  0  0  0  0
   -1.4289    4.9500    0.0000 O   0  0  0  0  0  0  0  0  0  0  0  0
   -2.1434    1.2375    0.0000 O   0  0  0  0  0  0  0  0  0  0  0  0
   -2.1434    3.7125    0.0000 O   0  0  0  0  0  0  0  0  0  0  0  0
   -0.7145    1.2375    0.0000 O   0  0  0  0  0  0  0  0  0  0  0  0
   -0.0000    4.1250    0.0000 H   0  0  0  0  0  0  0  0  0  0  0  0
    0.7145    2.8875    0.0000 H   0  0  0  0  0  0  0  0  0  0  0  0
   -1.7111    6.5502    0.0000 H   0  0  0  0  0  0  0  0  0  0  0  0
   -3.3882    0.1930    0.0000 H   0  0  0  0  0  0  0  0  0  0  0  0
   -2.8579   -0.8250    0.0000 H   0  0  0  0  0  0  0  0  0  0  0  0
   -3.6704    5.0933    0.0000 H   0  0  0  0  0  0  0  0  0  0  0  0
   -3.6704    0.1433    0.0000 H   0  0  0  0  0  0  0  0  0  0  0  0
   -1.6131    6.8195    0.0000 H   0  0  0  0  0  0  0  0  0  0  0  0
   -3.6704    5.6317    0.0000 H   0  0  0  0  0  0  0  0  0  0  0  0
   -1.4289   -0.8250    0.0000 H   0  0  0  0  0  0  0  0  0  0  0  0
   -2.1434    2.8875    0.0000 H   0  0  0  0  0  0  0  0  0  0  0  0
   -1.4289    4.1250    0.0000 H   0  0  0  0  0  0  0  0  0  0  0  0
   -0.0000    1.6500    0.0000 H   0  0  0  0  0  0  0  0  0  0  0  0
   -2.8579    4.1250    0.0000 H   0  0  0  0  0  0  0  0  0  0  0  0
   -0.7145    0.4125    0.0000 H   0  0  0  0  0  0  0  0  0  0  0  0
    0.9266    3.8350    0.0000 H   0  0  0  0  0  0  0  0  0  0  0  0
    0.9266    2.7650    0.0000 H   0  0  0  0  0  0  0  0  0  0  0  0
    0.2122    5.6525    0.0000 H   0  0  0  0  0  0  0  0  0  0  0  0
    0.2121    6.7225    0.0000 H   0  0  0  0  0  0  0  0  0  0  0  0
   -4.4990    0.7025    0.0000 H   0  0  0  0  0  0  0  0  0  0  0  0
   -4.4990    1.7725    0.0000 H   0  0  0  0  0  0  0  0  0  0  0  0
    0.1688    7.5225    0.0000 H   0  0  0  0  0  0  0  0  0  0  0  0
   -1.5978    7.5225    0.0000 H   0  0  0  0  0  0  0  0  0  0  0  0
    0.1688    5.0475    0.0000 H   0  0  0  0  0  0  0  0  0  0  0  0
   -1.5978    5.0475    0.0000 H   0  0  0  0  0  0  0  0  0  0  0  0
    0.7145    1.0425    0.0000 H   0  0  0  0  0  0  0  0  0  0  0  0
    1.5978    2.5725    0.0000 H   0  0  0  0  0  0  0  0  0  0  0  0
   -3.0267   -1.7475    0.0000 H   0  0  0  0  0  0  0  0  0  0  0  0
   -1.2601   -1.7475    0.0000 H   0  0  0  0  0  0  0  0  0  0  0  0
   -4.4557    5.0475    0.0000 H   0  0  0  0  0  0  0  0  0  0  0  0
   -3.5724    3.5175    0.0000 H   0  0  0  0  0  0  0  0  0  0  0  0
   -2.7324    2.5475    0.0000 H   0  0  0  0  0  0  0  0  0  0  0  0
   -4.4124    0.0725    0.0000 H   0  0  0  0  0  0  0  0  0  0  0  0
   -1.3034    7.4975    0.0000 H   0  0  0  0  0  0  0  0  0  0  0  0
   -3.5724    7.1575    0.0000 H   0  0  0  0  0  0  0  0  0  0  0  0
   -0.7145   -1.3825    0.0000 H   0  0  0  0  0  0  0  0  0  0  0  0
   -2.9834    2.5475    0.0000 H   0  0  0  0  0  0  0  0  0  0  0  0
  1 49  1  0  0  0  0
  1 50  1  0  0  0  0
  2 51  1  0  0  0  0
  2 52  1  0  0  0  0
  3 53  1  0  0  0  0
  3 54  1  0  0  0  0
  4  1  1  0  0  0  0
  4 20  1  0  0  0  0
  4 34  1  6  0  0  0
  5  1  1  0  0  0  0
  5 21  1  0  0  0  0
  5 35  1  6  0  0  0
  6  2  1  0  0  0  0
  6 36  1  6  0  0  0
  7  3  1  0  0  0  0
  7 37  1  6  0  0  0
  8 22  1  0  0  0  0
  8 38  1  6  0  0  0
  9 23  1  0  0  0  0
  9 39  1  1  0  0  0
 10  7  1  0  0  0  0
 10  8  1  0  0  0  0
 10 25  1  0  0  0  0
 10 40  1  1  0  0  0
 11  6  1  0  0  0  0
 11 26  1  0  0  0  0
 11 41  1  1  0  0  0
 12  9  1  0  0  0  0
 12 11  1  0  0  0  0
 12 27  1  0  0  0  0
 12 42  1  6  0  0  0
 13  8  1  0  0  0  0
 13 28  1  0  0  0  0
 13 43  1  1  0  0  0
 14 29  1  0  0  0  0
 14 44  1  6  0  0  0
 15  4  1  0  0  0  0
 15 14  1  0  0  0  0
 15 32  1  0  0  0  0
 15 45  1  1  0  0  0
 16  5  1  0  0  0  0
 16 14  1  0  0  0  0
 16 33  1  0  0  0  0
 16 46  1  1  0  0  0
 17  9  1  0  0  0  0
 17 32  1  0  0  0  0
 17 47  1  1  0  0  0
 18 13  1  0  0  0  0
 18 33  1  0  0  0  0
 18 48  1  1  0  0  0
 19  2  1  0  0  0  0
 19 55  1  0  0  0  0
 19 56  1  0  0  0  0
 20 57  1  0  0  0  0
 20 58  1  0  0  0  0
 21 59  1  0  0  0  0
 21 60  1  0  0  0  0
 22 61  1  0  0  0  0
 22 62  1  0  0  0  0
 23 63  1  0  0  0  0
 23 64  1  0  0  0  0
 24  3  1  0  0  0  0
 24 65  1  0  0  0  0
 25 66  1  0  0  0  0
 26 67  1  0  0  0  0
 27 68  1  0  0  0  0
 28 69  1  0  0  0  0
 29 70  1  0  0  0  0
 30  6  1  0  0  0  0
 30 17  1  0  0  0  0
 31  7  1  0  0  0  0
 31 18  1  0  0  0  0
M  END
>  <DRUGBANK_ID>
DB13673

>  <COMMON_NAME>
Bekanamycin

>  <CAS_NUMBER>
4696-76-8

>  <UNII>
15JT14C3GI

>  <SYNONYMS>
Bekanamycin

$$$$
