
 OpenBabel10282417072D

 75 74  0  0  0  0  0  0  0  0999 V2000
    8.4711    5.7158    0.0000 C   0  0  0  0  0  0  0  0  0  0  0  0
    9.1855    6.1283    0.0000 O   0  0  0  0  0  0  0  0  0  0  0  0
    9.9000    5.7158    0.0000 C   0  0  0  0  0  0  0  0  0  0  0  0
   10.6145    6.1283    0.0000 C   0  0  0  0  0  0  0  0  0  0  0  0
   11.3289    5.7158    0.0000 O   0  0  0  0  0  0  0  0  0  0  0  0
   12.0434    6.1283    0.0000 C   0  0  0  0  0  0  0  0  0  0  0  0
   12.0434    6.9533    0.0000 O   0  0  0  0  0  0  0  0  0  0  0  0
   12.7579    5.7158    0.0000 N   0  0  0  0  0  0  0  0  0  0  0  0
   13.4724    6.1283    0.0000 C   0  0  0  0  0  0  0  0  0  0  0  0
   14.1868    5.7158    0.0000 C   0  0  0  0  0  0  0  0  0  0  0  0
   14.9013    6.1283    0.0000 C   0  0  0  0  0  0  0  0  0  0  0  0
   15.6158    5.7158    0.0000 C   0  0  0  0  0  0  0  0  0  0  0  0
   16.3302    6.1283    0.0000 C   0  0  3  0  0  0  0  0  0  0  0  0
   17.0447    5.7158    0.0000 C   0  0  0  0  0  0  0  0  0  0  0  0
   17.0447    4.8908    0.0000 O   0  0  0  0  0  0  0  0  0  0  0  0
   17.7592    6.1283    0.0000 N   0  0  0  0  0  0  0  0  0  0  0  0
   18.4737    5.7158    0.0000 C   0  0  0  0  0  0  0  0  0  0  0  0
   19.1881    6.1283    0.0000 C   0  0  0  0  0  0  0  0  0  0  0  0
   19.9026    5.7158    0.0000 C   0  0  0  0  0  0  0  0  0  0  0  0
   20.6171    6.1283    0.0000 C   0  0  0  0  0  0  0  0  0  0  0  0
   21.3315    5.7158    0.0000 C   0  0  0  0  0  0  0  0  0  0  0  0
   22.0460    6.1283    0.0000 C   0  0  0  0  0  0  0  0  0  0  0  0
   22.7605    5.7158    0.0000 O   0  0  0  0  0  0  0  0  0  0  0  0
   23.4749    6.1283    0.0000 P   0  0  0  0  0  0  0  0  0  0  0  0
   24.1894    6.5408    0.0000 O   0  0  0  0  0  0  0  0  0  0  0  0
   23.8874    5.4138    0.0000 O   0  0  0  0  0  0  0  0  0  0  0  0
   23.0624    6.8427    0.0000 O   0  0  0  0  0  0  0  0  0  0  0  0
   16.3302    6.9533    0.0000 N   0  0  0  0  0  0  0  0  0  0  0  0
   15.6158    7.3658    0.0000 C   0  0  0  0  0  0  0  0  0  0  0  0
   14.9013    6.9533    0.0000 O   0  0  0  0  0  0  0  0  0  0  0  0
   15.6158    8.1908    0.0000 O   0  0  0  0  0  0  0  0  0  0  0  0
   14.9013    8.6033    0.0000 C   0  0  0  0  0  0  0  0  0  0  0  0
   14.9013    9.4283    0.0000 C   0  0  0  0  0  0  0  0  0  0  0  0
   14.1868    9.8408    0.0000 O   0  0  0  0  0  0  0  0  0  0  0  0
   14.1868   10.6658    0.0000 C   0  0  0  0  0  0  0  0  0  0  0  0
    7.5444    6.2508    0.0000 H   0  0  0  0  0  0  0  0  0  0  0  0
    8.4711    4.6458    0.0000 H   0  0  0  0  0  0  0  0  0  0  0  0
    7.5445    5.1808    0.0000 H   0  0  0  0  0  0  0  0  0  0  0  0
    9.9000    4.6458    0.0000 H   0  0  0  0  0  0  0  0  0  0  0  0
   10.8266    5.1808    0.0000 H   0  0  0  0  0  0  0  0  0  0  0  0
   10.6145    7.1983    0.0000 H   0  0  0  0  0  0  0  0  0  0  0  0
   11.5412    6.6633    0.0000 H   0  0  0  0  0  0  0  0  0  0  0  0
   12.7579    4.7313    0.0000 H   0  0  0  0  0  0  0  0  0  0  0  0
   13.4724    7.1983    0.0000 H   0  0  0  0  0  0  0  0  0  0  0  0
   14.3991    6.6633    0.0000 H   0  0  0  0  0  0  0  0  0  0  0  0
   14.1868    4.6458    0.0000 H   0  0  0  0  0  0  0  0  0  0  0  0
   15.1134    5.1808    0.0000 H   0  0  0  0  0  0  0  0  0  0  0  0
   14.9013    7.1983    0.0000 H   0  0  0  0  0  0  0  0  0  0  0  0
   15.8279    6.6633    0.0000 H   0  0  0  0  0  0  0  0  0  0  0  0
   15.6158    4.6458    0.0000 H   0  0  0  0  0  0  0  0  0  0  0  0
   16.5425    5.1808    0.0000 H   0  0  0  0  0  0  0  0  0  0  0  0
   16.3302    5.0583    0.0000 H   0  0  0  0  0  0  0  0  0  0  0  0
   17.7592    7.1128    0.0000 H   0  0  0  0  0  0  0  0  0  0  0  0
   18.4737    4.6458    0.0000 H   0  0  0  0  0  0  0  0  0  0  0  0
   19.4004    5.1808    0.0000 H   0  0  0  0  0  0  0  0  0  0  0  0
   19.1881    7.1983    0.0000 H   0  0  0  0  0  0  0  0  0  0  0  0
   20.1147    6.6633    0.0000 H   0  0  0  0  0  0  0  0  0  0  0  0
   19.9026    4.6458    0.0000 H   0  0  0  0  0  0  0  0  0  0  0  0
   20.8292    5.1808    0.0000 H   0  0  0  0  0  0  0  0  0  0  0  0
   20.6171    7.1983    0.0000 H   0  0  0  0  0  0  0  0  0  0  0  0
   21.5438    6.6633    0.0000 H   0  0  0  0  0  0  0  0  0  0  0  0
   21.3315    4.6458    0.0000 H   0  0  0  0  0  0  0  0  0  0  0  0
   22.2581    5.1808    0.0000 H   0  0  0  0  0  0  0  0  0  0  0  0
   22.0460    7.1983    0.0000 H   0  0  0  0  0  0  0  0  0  0  0  0
   22.9726    6.6633    0.0000 H   0  0  0  0  0  0  0  0  0  0  0  0
   23.4024    4.5738    0.0000 H   0  0  0  0  0  0  0  0  0  0  0  0
   23.5474    7.6828    0.0000 H   0  0  0  0  0  0  0  0  0  0  0  0
   17.1828    7.4455    0.0000 H   0  0  0  0  0  0  0  0  0  0  0  0
   13.9747    8.0683    0.0000 H   0  0  0  0  0  0  0  0  0  0  0  0
   13.9747    9.1383    0.0000 H   0  0  0  0  0  0  0  0  0  0  0  0
   15.8279    9.9633    0.0000 H   0  0  0  0  0  0  0  0  0  0  0  0
   14.9013   10.4983    0.0000 H   0  0  0  0  0  0  0  0  0  0  0  0
   15.1134   11.2008    0.0000 H   0  0  0  0  0  0  0  0  0  0  0  0
   13.2602   11.2008    0.0000 H   0  0  0  0  0  0  0  0  0  0  0  0
   14.1868   11.7358    0.0000 H   0  0  0  0  0  0  0  0  0  0  0  0
  1  2  1  0  0  0  0
  1 36  1  0  0  0  0
  1 37  1  0  0  0  0
  1 38  1  0  0  0  0
  2  3  1  0  0  0  0
  3  4  1  0  0  0  0
  3 39  1  0  0  0  0
  3 40  1  0  0  0  0
  4  5  1  0  0  0  0
  4 41  1  0  0  0  0
  4 42  1  0  0  0  0
  5  6  1  0  0  0  0
  6  7  2  0  0  0  0
  6  8  1  0  0  0  0
  8  9  1  0  0  0  0
  8 43  1  0  0  0  0
  9 10  1  0  0  0  0
  9 44  1  0  0  0  0
  9 45  1  0  0  0  0
 10 11  1  0  0  0  0
 10 46  1  0  0  0  0
 10 47  1  0  0  0  0
 11 12  1  0  0  0  0
 11 48  1  0  0  0  0
 11 49  1  0  0  0  0
 12 13  1  0  0  0  0
 12 50  1  0  0  0  0
 12 51  1  0  0  0  0
 13 14  1  0  0  0  0
 13 28  1  0  0  0  0
 13 52  1  0  0  0  0
 14 15  2  0  0  0  0
 14 16  1  0  0  0  0
 16 17  1  0  0  0  0
 16 53  1  0  0  0  0
 17 18  1  0  0  0  0
 17 54  1  0  0  0  0
 17 55  1  0  0  0  0
 18 19  1  0  0  0  0
 18 56  1  0  0  0  0
 18 57  1  0  0  0  0
 19 20  1  0  0  0  0
 19 58  1  0  0  0  0
 19 59  1  0  0  0  0
 20 21  1  0  0  0  0
 20 60  1  0  0  0  0
 20 61  1  0  0  0  0
 21 22  1  0  0  0  0
 21 62  1  0  0  0  0
 21 63  1  0  0  0  0
 22 23  1  0  0  0  0
 22 64  1  0  0  0  0
 22 65  1  0  0  0  0
 23 24  1  0  0  0  0
 24 25  2  0  0  0  0
 24 26  1  0  0  0  0
 24 27  1  0  0  0  0
 26 66  1  0  0  0  0
 27 67  1  0  0  0  0
 28 29  1  0  0  0  0
 28 68  1  0  0  0  0
 29 30  2  0  0  0  0
 29 31  1  0  0  0  0
 31 32  1  0  0  0  0
 32 33  1  0  0  0  0
 32 69  1  0  0  0  0
 32 70  1  0  0  0  0
 33 34  1  0  0  0  0
 33 71  1  0  0  0  0
 33 72  1  0  0  0  0
 34 35  1  0  0  0  0
 35 73  1  0  0  0  0
 35 74  1  0  0  0  0
 35 75  1  0  0  0  0
M  END
>  <DRUGBANK_ID>
DB06293

>  <COMMON_NAME>
Pegnivacogin

>  <CAS_NUMBER>
959716-28-0

>  <UNII>
AYC3D1NPYB

>  <SYNONYMS>
Pegnivacogin

$$$$
