
 OpenBabel10282417072D

 91 92  0  0  1  0  0  0  0  0999 V2000
  -18.6050   -5.0662    0.0000 C   0  0  0  0  0  0  0  0  0  0  0  0
  -17.8906   -5.4787    0.0000 C   0  0  0  0  0  0  0  0  0  0  0  0
  -17.1761   -5.0662    0.0000 C   0  0  0  0  0  0  0  0  0  0  0  0
  -16.4616   -5.4787    0.0000 C   0  0  0  0  0  0  0  0  0  0  0  0
  -15.7471   -5.0662    0.0000 C   0  0  0  0  0  0  0  0  0  0  0  0
  -15.0327   -5.4787    0.0000 C   0  0  0  0  0  0  0  0  0  0  0  0
  -14.3182   -5.0662    0.0000 C   0  0  0  0  0  0  0  0  0  0  0  0
  -13.6037   -5.4787    0.0000 C   0  0  0  0  0  0  0  0  0  0  0  0
  -12.8893   -5.0662    0.0000 C   0  0  0  0  0  0  0  0  0  0  0  0
  -12.1748   -5.4787    0.0000 C   0  0  0  0  0  0  0  0  0  0  0  0
  -11.4603   -5.0662    0.0000 C   0  0  0  0  0  0  0  0  0  0  0  0
  -10.7458   -5.4787    0.0000 C   0  0  0  0  0  0  0  0  0  0  0  0
  -10.0314   -5.0662    0.0000 C   0  0  0  0  0  0  0  0  0  0  0  0
   -9.3169   -5.4787    0.0000 C   0  0  0  0  0  0  0  0  0  0  0  0
   -8.6024   -5.0662    0.0000 C   0  0  0  0  0  0  0  0  0  0  0  0
   -7.8880   -5.4787    0.0000 C   0  0  0  0  0  0  0  0  0  0  0  0
   -7.1735   -5.0662    0.0000 O   0  0  0  0  0  0  0  0  0  0  0  0
   -6.4590   -5.4787    0.0000 C   0  0  0  0  0  0  0  0  0  0  0  0
   -5.7446   -5.0662    0.0000 C   0  0  0  0  0  0  0  0  0  0  0  0
   -5.0301   -5.4787    0.0000 C   0  0  0  0  0  0  0  0  0  0  0  0
   -4.3156   -5.0662    0.0000 O   0  0  0  0  0  0  0  0  0  0  0  0
   -3.6011   -5.4787    0.0000 P   0  0  3  0  0  0  0  0  0  0  0  0
   -4.0136   -6.1932    0.0000 O   0  0  0  0  0  0  0  0  0  0  0  0
   -3.1886   -4.7642    0.0000 O   0  0  0  0  0  0  0  0  0  0  0  0
   -2.8867   -5.8912    0.0000 C   0  0  0  0  0  0  0  0  0  0  0  0
   -2.1722   -5.4787    0.0000 O   0  0  0  0  0  0  0  0  0  0  0  0
   -1.4577   -5.8912    0.0000 C   0  0  2  0  0  0  0  0  0  0  0  0
   -1.4577   -6.7162    0.0000 C   0  0  0  0  0  0  0  0  0  0  0  0
   -0.7433   -5.4787    0.0000 C   0  0  0  0  0  0  0  0  0  0  0  0
   -0.0288   -5.8912    0.0000 N   0  0  0  0  0  0  0  0  0  0  0  0
    0.0575   -6.7117    0.0000 C   0  0  0  0  0  0  0  0  0  0  0  0
    0.8644   -6.8832    0.0000 N   0  0  0  0  0  0  0  0  0  0  0  0
    1.2769   -6.1688    0.0000 C   0  0  0  0  0  0  0  0  0  0  0  0
    0.7249   -5.5557    0.0000 C   0  0  0  0  0  0  0  0  0  0  0  0
    0.9798   -4.7710    0.0000 N   0  0  0  0  0  0  0  0  0  0  0  0
    1.7868   -4.5995    0.0000 C   0  0  0  0  0  0  0  0  0  0  0  0
    2.3388   -5.2126    0.0000 N   0  0  0  0  0  0  0  0  0  0  0  0
    2.0839   -5.9972    0.0000 C   0  0  0  0  0  0  0  0  0  0  0  0
    2.6359   -6.6103    0.0000 N   0  0  0  0  0  0  0  0  0  0  0  0
  -18.6050   -3.9962    0.0000 H   0  0  0  0  0  0  0  0  0  0  0  0
  -19.5317   -5.6012    0.0000 H   0  0  0  0  0  0  0  0  0  0  0  0
  -19.5316   -4.5312    0.0000 H   0  0  0  0  0  0  0  0  0  0  0  0
  -17.8906   -6.5487    0.0000 H   0  0  0  0  0  0  0  0  0  0  0  0
  -16.9640   -6.0137    0.0000 H   0  0  0  0  0  0  0  0  0  0  0  0
  -17.1761   -3.9962    0.0000 H   0  0  0  0  0  0  0  0  0  0  0  0
  -16.2495   -4.5312    0.0000 H   0  0  0  0  0  0  0  0  0  0  0  0
  -16.4616   -6.5487    0.0000 H   0  0  0  0  0  0  0  0  0  0  0  0
  -15.5350   -6.0137    0.0000 H   0  0  0  0  0  0  0  0  0  0  0  0
  -15.7471   -3.9962    0.0000 H   0  0  0  0  0  0  0  0  0  0  0  0
  -14.8204   -4.5312    0.0000 H   0  0  0  0  0  0  0  0  0  0  0  0
  -15.0327   -6.5487    0.0000 H   0  0  0  0  0  0  0  0  0  0  0  0
  -14.1061   -6.0137    0.0000 H   0  0  0  0  0  0  0  0  0  0  0  0
  -14.3182   -3.9962    0.0000 H   0  0  0  0  0  0  0  0  0  0  0  0
  -13.3916   -4.5312    0.0000 H   0  0  0  0  0  0  0  0  0  0  0  0
  -13.6037   -6.5487    0.0000 H   0  0  0  0  0  0  0  0  0  0  0  0
  -12.6770   -6.0137    0.0000 H   0  0  0  0  0  0  0  0  0  0  0  0
  -12.8893   -3.9962    0.0000 H   0  0  0  0  0  0  0  0  0  0  0  0
  -11.9627   -4.5312    0.0000 H   0  0  0  0  0  0  0  0  0  0  0  0
  -12.1748   -6.5487    0.0000 H   0  0  0  0  0  0  0  0  0  0  0  0
  -11.2482   -6.0137    0.0000 H   0  0  0  0  0  0  0  0  0  0  0  0
  -11.4603   -3.9962    0.0000 H   0  0  0  0  0  0  0  0  0  0  0  0
  -10.5337   -4.5312    0.0000 H   0  0  0  0  0  0  0  0  0  0  0  0
  -10.7458   -6.5487    0.0000 H   0  0  0  0  0  0  0  0  0  0  0  0
   -9.8191   -6.0137    0.0000 H   0  0  0  0  0  0  0  0  0  0  0  0
  -10.0314   -3.9962    0.0000 H   0  0  0  0  0  0  0  0  0  0  0  0
   -9.1048   -4.5312    0.0000 H   0  0  0  0  0  0  0  0  0  0  0  0
   -9.3169   -6.5487    0.0000 H   0  0  0  0  0  0  0  0  0  0  0  0
   -8.3903   -6.0137    0.0000 H   0  0  0  0  0  0  0  0  0  0  0  0
   -8.6024   -3.9962    0.0000 H   0  0  0  0  0  0  0  0  0  0  0  0
   -7.6757   -4.5312    0.0000 H   0  0  0  0  0  0  0  0  0  0  0  0
   -7.8880   -6.5487    0.0000 H   0  0  0  0  0  0  0  0  0  0  0  0
   -6.9614   -6.0137    0.0000 H   0  0  0  0  0  0  0  0  0  0  0  0
   -6.4590   -6.5487    0.0000 H   0  0  0  0  0  0  0  0  0  0  0  0
   -5.5323   -6.0137    0.0000 H   0  0  0  0  0  0  0  0  0  0  0  0
   -5.7446   -3.9962    0.0000 H   0  0  0  0  0  0  0  0  0  0  0  0
   -4.8180   -4.5312    0.0000 H   0  0  0  0  0  0  0  0  0  0  0  0
   -5.0301   -6.5487    0.0000 H   0  0  0  0  0  0  0  0  0  0  0  0
   -4.1035   -6.0137    0.0000 H   0  0  0  0  0  0  0  0  0  0  0  0
   -4.9836   -6.1932    0.0000 H   0  0  0  0  0  0  0  0  0  0  0  0
   -2.8867   -6.9612    0.0000 H   0  0  0  0  0  0  0  0  0  0  0  0
   -1.9601   -6.4262    0.0000 H   0  0  0  0  0  0  0  0  0  0  0  0
   -2.3843   -6.4262    0.0000 H   0  0  0  0  0  0  0  0  0  0  0  0
   -2.3843   -7.2512    0.0000 H   0  0  0  0  0  0  0  0  0  0  0  0
   -0.5311   -7.2512    0.0000 H   0  0  0  0  0  0  0  0  0  0  0  0
   -1.4577   -7.7862    0.0000 H   0  0  0  0  0  0  0  0  0  0  0  0
   -0.7433   -4.4087    0.0000 H   0  0  0  0  0  0  0  0  0  0  0  0
    0.1833   -4.9437    0.0000 H   0  0  0  0  0  0  0  0  0  0  0  0
   -0.7094   -7.4023    0.0000 H   0  0  0  0  0  0  0  0  0  0  0  0
    2.1057   -3.6180    0.0000 H   0  0  0  0  0  0  0  0  0  0  0  0
    2.3316   -7.5466    0.0000 H   0  0  0  0  0  0  0  0  0  0  0  0
    3.5989   -6.4056    0.0000 H   0  0  0  0  0  0  0  0  0  0  0  0
  1  2  1  0  0  0  0
  1 40  1  0  0  0  0
  1 41  1  0  0  0  0
  1 42  1  0  0  0  0
  2  3  1  0  0  0  0
  2 43  1  0  0  0  0
  2 44  1  0  0  0  0
  3  4  1  0  0  0  0
  3 45  1  0  0  0  0
  3 46  1  0  0  0  0
  4  5  1  0  0  0  0
  4 47  1  0  0  0  0
  4 48  1  0  0  0  0
  5  6  1  0  0  0  0
  5 49  1  0  0  0  0
  5 50  1  0  0  0  0
  6  7  1  0  0  0  0
  6 51  1  0  0  0  0
  6 52  1  0  0  0  0
  7  8  1  0  0  0  0
  7 53  1  0  0  0  0
  7 54  1  0  0  0  0
  8  9  1  0  0  0  0
  8 55  1  0  0  0  0
  8 56  1  0  0  0  0
  9 10  1  0  0  0  0
  9 57  1  0  0  0  0
  9 58  1  0  0  0  0
 10 11  1  0  0  0  0
 10 59  1  0  0  0  0
 10 60  1  0  0  0  0
 11 12  1  0  0  0  0
 11 61  1  0  0  0  0
 11 62  1  0  0  0  0
 12 13  1  0  0  0  0
 12 63  1  0  0  0  0
 12 64  1  0  0  0  0
 13 14  1  0  0  0  0
 13 65  1  0  0  0  0
 13 66  1  0  0  0  0
 14 15  1  0  0  0  0
 14 67  1  0  0  0  0
 14 68  1  0  0  0  0
 15 16  1  0  0  0  0
 15 69  1  0  0  0  0
 15 70  1  0  0  0  0
 16 17  1  0  0  0  0
 16 71  1  0  0  0  0
 16 72  1  0  0  0  0
 17 18  1  0  0  0  0
 18 19  1  0  0  0  0
 18 73  1  0  0  0  0
 18 74  1  0  0  0  0
 19 20  1  0  0  0  0
 19 75  1  0  0  0  0
 19 76  1  0  0  0  0
 20 21  1  0  0  0  0
 20 77  1  0  0  0  0
 20 78  1  0  0  0  0
 21 22  1  0  0  0  0
 22 23  1  0  0  0  0
 22 24  2  0  0  0  0
 22 25  1  0  0  0  0
 23 79  1  0  0  0  0
 25 26  1  0  0  0  0
 25 80  1  0  0  0  0
 25 81  1  0  0  0  0
 27 26  1  0  0  0  0
 27 28  1  0  0  0  0
 27 29  1  0  0  0  0
 27 82  1  6  0  0  0
 28 83  1  0  0  0  0
 28 84  1  0  0  0  0
 28 85  1  0  0  0  0
 29 30  1  0  0  0  0
 29 86  1  0  0  0  0
 29 87  1  0  0  0  0
 30 31  1  0  0  0  0
 30 34  1  0  0  0  0
 31 32  2  0  0  0  0
 31 88  1  0  0  0  0
 32 33  1  0  0  0  0
 33 34  2  0  0  0  0
 33 38  1  0  0  0  0
 34 35  1  0  0  0  0
 35 36  2  0  0  0  0
 36 37  1  0  0  0  0
 36 89  1  0  0  0  0
 37 38  2  0  0  0  0
 38 39  1  0  0  0  0
 39 90  1  0  0  0  0
 39 91  1  0  0  0  0
M  END
>  <DRUGBANK_ID>
DB14925

>  <COMMON_NAME>
Tenofovir exalidex

>  <CAS_NUMBER>
911208-73-6

>  <UNII>
K7J545MEMA

>  <SYNONYMS>
Tenofovir exalidex

$$$$
