
 OpenBabel10282417072D

 52 52  0  0  0  0  0  0  0  0999 V2000
    3.2151   -2.8874    0.0000 N   0  0  0  0  0  0  0  0  0  0  0  0
    3.2151   -2.0624    0.0000 C   0  0  1  0  0  0  0  0  0  0  0  0
    2.5006   -1.6499    0.0000 C   0  0  0  0  0  0  0  0  0  0  0  0
    1.7861   -2.0624    0.0000 C   0  0  0  0  0  0  0  0  0  0  0  0
    1.0717   -1.6499    0.0000 C   0  0  0  0  0  0  0  0  0  0  0  0
    1.0717   -0.8249    0.0000 O   0  0  0  0  0  0  0  0  0  0  0  0
    0.3572   -2.0624    0.0000 N   0  0  0  0  0  0  0  0  0  0  0  0
   -0.3573   -1.6499    0.0000 C   0  0  1  0  0  0  0  0  0  0  0  0
   -0.3573   -0.8249    0.0000 C   0  0  0  0  0  0  0  0  0  0  0  0
   -1.0716   -0.4124    0.0000 S   0  0  0  0  0  0  0  0  0  0  0  0
   -1.0716   -2.0626    0.0000 C   0  0  0  0  0  0  0  0  0  0  0  0
   -1.0716   -2.8876    0.0000 O   0  0  0  0  0  0  0  0  0  0  0  0
   -1.7862   -1.6501    0.0000 N   0  0  0  0  0  0  0  0  0  0  0  0
   -2.5006   -2.0626    0.0000 C   0  0  0  0  0  0  0  0  0  0  0  0
   -3.2151   -1.6501    0.0000 C   0  0  0  0  0  0  0  0  0  0  0  0
   -3.2151   -0.8251    0.0000 O   0  0  0  0  0  0  0  0  0  0  0  0
   -3.9295   -2.0626    0.0000 O   0  0  0  0  0  0  0  0  0  0  0  0
    3.9296   -1.6501    0.0000 C   0  0  0  0  0  0  0  0  0  0  0  0
    3.9296   -0.8249    0.0000 O   0  0  0  0  0  0  0  0  0  0  0  0
    4.6440   -2.0626    0.0000 O   0  0  0  0  0  0  0  0  0  0  0  0
   -1.0715    0.4125    0.0000 C   0  0  0  0  0  0  0  0  0  0  0  0
   -1.7860    0.8251    0.0000 C   0  0  0  0  0  0  0  0  0  0  0  0
   -2.5005    0.4126    0.0000 C   0  0  0  0  0  0  0  0  0  0  0  0
   -3.2150    0.8251    0.0000 C   0  0  0  0  0  0  0  0  0  0  0  0
   -3.2150    1.6501    0.0000 C   0  0  0  0  0  0  0  0  0  0  0  0
   -2.5005    2.0626    0.0000 C   0  0  0  0  0  0  0  0  0  0  0  0
   -1.7860    1.6500    0.0000 C   0  0  0  0  0  0  0  0  0  0  0  0
   -3.9294    2.0626    0.0000 N   0  3  0  0  0  0  0  0  0  0  0  0
   -3.9294    2.8876    0.0000 O   0  0  0  0  0  0  0  0  0  0  0  0
   -4.6440    1.6501    0.0000 O   0  5  0  0  0  0  0  0  0  0  0  0
    2.3318   -3.3974    0.0000 H   0  0  0  0  0  0  0  0  0  0  0  0
    4.0984   -3.3974    0.0000 H   0  0  0  0  0  0  0  0  0  0  0  0
    2.2885   -2.5974    0.0000 H   0  0  0  0  0  0  0  0  0  0  0  0
    2.5006   -0.5799    0.0000 H   0  0  0  0  0  0  0  0  0  0  0  0
    1.5740   -1.1149    0.0000 H   0  0  0  0  0  0  0  0  0  0  0  0
    1.7861   -3.1324    0.0000 H   0  0  0  0  0  0  0  0  0  0  0  0
    0.8594   -2.5974    0.0000 H   0  0  0  0  0  0  0  0  0  0  0  0
    0.3572   -3.0469    0.0000 H   0  0  0  0  0  0  0  0  0  0  0  0
    0.5693   -1.1149    0.0000 H   0  0  0  0  0  0  0  0  0  0  0  0
    0.5694   -0.2899    0.0000 H   0  0  0  0  0  0  0  0  0  0  0  0
   -0.3572    0.2451    0.0000 H   0  0  0  0  0  0  0  0  0  0  0  0
   -1.7863   -0.6656    0.0000 H   0  0  0  0  0  0  0  0  0  0  0  0
   -2.5006   -3.1326    0.0000 H   0  0  0  0  0  0  0  0  0  0  0  0
   -3.4272   -2.5976    0.0000 H   0  0  0  0  0  0  0  0  0  0  0  0
   -4.7410   -1.5941    0.0000 H   0  0  0  0  0  0  0  0  0  0  0  0
    4.6440   -2.9996    0.0000 H   0  0  0  0  0  0  0  0  0  0  0  0
   -0.1448    0.9474    0.0000 H   0  0  0  0  0  0  0  0  0  0  0  0
   -1.0714    1.4825    0.0000 H   0  0  0  0  0  0  0  0  0  0  0  0
   -2.5005   -0.6194    0.0000 H   0  0  0  0  0  0  0  0  0  0  0  0
   -4.1087    0.3091    0.0000 H   0  0  0  0  0  0  0  0  0  0  0  0
   -2.5004    3.0946    0.0000 H   0  0  0  0  0  0  0  0  0  0  0  0
   -0.8922    2.1660    0.0000 H   0  0  0  0  0  0  0  0  0  0  0  0
  1 31  1  0  0  0  0
  1 32  1  0  0  0  0
  2  1  1  0  0  0  0
  2  3  1  0  0  0  0
  2 18  1  0  0  0  0
  2 33  1  6  0  0  0
  3  4  1  0  0  0  0
  3 34  1  0  0  0  0
  3 35  1  0  0  0  0
  4  5  1  0  0  0  0
  4 36  1  0  0  0  0
  4 37  1  0  0  0  0
  5  6  2  0  0  0  0
  5  7  1  0  0  0  0
  7  8  1  0  0  0  0
  7 38  1  0  0  0  0
  8  9  1  0  0  0  0
  8 11  1  0  0  0  0
  8 39  1  1  0  0  0
  9 10  1  0  0  0  0
  9 40  1  0  0  0  0
  9 41  1  0  0  0  0
 10 21  1  0  0  0  0
 11 12  2  0  0  0  0
 11 13  1  0  0  0  0
 13 14  1  0  0  0  0
 13 42  1  0  0  0  0
 14 15  1  0  0  0  0
 14 43  1  0  0  0  0
 14 44  1  0  0  0  0
 15 16  2  0  0  0  0
 15 17  1  0  0  0  0
 17 45  1  0  0  0  0
 18 19  2  0  0  0  0
 18 20  1  0  0  0  0
 20 46  1  0  0  0  0
 21 22  1  0  0  0  0
 21 47  1  0  0  0  0
 21 48  1  0  0  0  0
 22 23  1  0  0  0  0
 23 24  2  0  0  0  0
 23 49  1  0  0  0  0
 24 25  1  0  0  0  0
 24 50  1  0  0  0  0
 25 26  2  0  0  0  0
 25 28  1  0  0  0  0
 26 27  1  0  0  0  0
 26 51  1  0  0  0  0
 27 22  2  0  0  0  0
 27 52  1  0  0  0  0
 28 29  2  0  0  0  0
 28 30  1  0  0  0  0
M  CHG  2  28   1  30  -1
M  END
>  <DRUGBANK_ID>
DB03686

>  <SECONDARY_ACCESSION_NUMBERS>
EXPT01653

>  <COMMON_NAME>
S-(4-nitrobenzyl)glutathione

>  <CAS_NUMBER>
6803-19-6

>  <SYNONYMS>
S-(p-nitrobenzyl)glutathione

$$$$
