
 OpenBabel10282417072D

 77 79  0  0  0  0  0  0  0  0999 V2000
    1.7847    1.2355    0.0000 C   0  0  0  0  0  0  0  0  0  0  0  0
    1.0699    0.8237    0.0000 N   0  0  0  0  0  0  0  0  0  0  0  0
    0.3596    1.2355    0.0000 C   0  0  0  0  0  0  0  0  0  0  0  0
   -0.3550    0.8237    0.0000 C   0  0  0  0  0  0  0  0  0  0  0  0
   -1.0700    1.2355    0.0000 O   0  0  0  0  0  0  0  0  0  0  0  0
   -1.7848    0.8237    0.0000 C   0  0  2  0  0  0  0  0  0  0  0  0
   -1.7848    0.0000    0.0000 C   0  0  1  0  0  0  0  0  0  0  0  0
   -1.0700   -0.4118    0.0000 C   0  0  0  0  0  0  0  0  0  0  0  0
   -1.0700   -1.2356    0.0000 N   0  0  0  0  0  0  0  0  0  0  0  0
   -1.7848   -1.6474    0.0000 C   0  0  0  0  0  0  0  0  0  0  0  0
   -2.4996   -1.2356    0.0000 C   0  0  0  0  0  0  0  0  0  0  0  0
   -2.4996   -0.4118    0.0000 C   0  0  0  0  0  0  0  0  0  0  0  0
   -0.3550   -1.6474    0.0000 C   0  0  0  0  0  0  0  0  0  0  0  0
   -0.3550   -2.4758    0.0000 O   0  0  0  0  0  0  0  0  0  0  0  0
    0.3596   -1.2356    0.0000 N   0  0  0  0  0  0  0  0  0  0  0  0
    1.0699   -1.6474    0.0000 C   0  0  0  0  0  0  0  0  0  0  0  0
    1.7847   -1.2356    0.0000 C   0  0  2  0  0  0  0  0  0  0  0  0
    2.4996   -1.6474    0.0000 C   0  0  0  0  0  0  0  0  0  0  0  0
    3.2145   -1.2356    0.0000 C   0  0  2  0  0  0  0  0  0  0  0  0
    3.2145   -0.4118    0.0000 C   0  0  0  0  0  0  0  0  0  0  0  0
    3.9293    0.0000    0.0000 O   0  0  0  0  0  0  0  0  0  0  0  0
    4.6443   -0.4118    0.0000 C   0  0  0  0  0  0  0  0  0  0  0  0
    4.6443   -1.2356    0.0000 C   0  0  0  0  0  0  0  0  0  0  0  0
    3.9293   -1.6474    0.0000 C   0  0  0  0  0  0  0  0  0  0  0  0
    1.7847   -0.4118    0.0000 N   0  0  0  0  0  0  0  0  0  0  0  0
    2.4996    0.0000    0.0000 C   0  0  0  0  0  0  0  0  0  0  0  0
   -0.8996    0.2700    0.0000 H   0  0  0  0  0  0  0  0  0  0  0  0
   -2.4996    1.2355    0.0000 C   0  0  0  0  0  0  0  0  0  0  0  0
   -3.2146    0.8237    0.0000 C   0  0  0  0  0  0  0  0  0  0  0  0
   -3.9295    1.2355    0.0000 C   0  0  0  0  0  0  0  0  0  0  0  0
   -3.9295    2.0640    0.0000 C   0  0  0  0  0  0  0  0  0  0  0  0
   -3.2146    2.4758    0.0000 C   0  0  0  0  0  0  0  0  0  0  0  0
   -2.4996    2.0640    0.0000 C   0  0  0  0  0  0  0  0  0  0  0  0
   -4.6443    0.8237    0.0000 Cl  0  0  0  0  0  0  0  0  0  0  0  0
    1.7847    2.0640    0.0000 O   0  0  0  0  0  0  0  0  0  0  0  0
    2.4996    0.8237    0.0000 O   0  0  0  0  0  0  0  0  0  0  0  0
    3.2145    1.2355    0.0000 C   0  0  0  0  0  0  0  0  0  0  0  0
    1.0686   -0.1608    0.0000 H   0  0  0  0  0  0  0  0  0  0  0  0
    0.3610    2.3055    0.0000 H   0  0  0  0  0  0  0  0  0  0  0  0
   -0.5665    1.7715    0.0000 H   0  0  0  0  0  0  0  0  0  0  0  0
   -0.3549   -0.2463    0.0000 H   0  0  0  0  0  0  0  0  0  0  0  0
   -1.2813    0.2882    0.0000 H   0  0  0  0  0  0  0  0  0  0  0  0
   -0.8584    0.2883    0.0000 H   0  0  0  0  0  0  0  0  0  0  0  0
   -0.1436    0.1236    0.0000 H   0  0  0  0  0  0  0  0  0  0  0  0
   -0.1432   -0.9466    0.0000 H   0  0  0  0  0  0  0  0  0  0  0  0
   -1.7848   -2.7174    0.0000 H   0  0  0  0  0  0  0  0  0  0  0  0
   -2.7112   -2.1828    0.0000 H   0  0  0  0  0  0  0  0  0  0  0  0
   -3.4260   -1.7710    0.0000 H   0  0  0  0  0  0  0  0  0  0  0  0
   -3.4264   -0.7008    0.0000 H   0  0  0  0  0  0  0  0  0  0  0  0
   -3.4260    0.1236    0.0000 H   0  0  0  0  0  0  0  0  0  0  0  0
   -2.4989    0.6582    0.0000 H   0  0  0  0  0  0  0  0  0  0  0  0
    0.3609   -0.2511    0.0000 H   0  0  0  0  0  0  0  0  0  0  0  0
    1.0684   -2.7174    0.0000 H   0  0  0  0  0  0  0  0  0  0  0  0
    1.9959   -2.1835    0.0000 H   0  0  0  0  0  0  0  0  0  0  0  0
    0.8583   -0.7002    0.0000 H   0  0  0  0  0  0  0  0  0  0  0  0
    2.4996   -2.7174    0.0000 H   0  0  0  0  0  0  0  0  0  0  0  0
    3.4260   -2.1829    0.0000 H   0  0  0  0  0  0  0  0  0  0  0  0
    2.2881   -0.7001    0.0000 H   0  0  0  0  0  0  0  0  0  0  0  0
    2.2881    0.1236    0.0000 H   0  0  0  0  0  0  0  0  0  0  0  0
    3.2152    0.6582    0.0000 H   0  0  0  0  0  0  0  0  0  0  0  0
    5.5707    0.1237    0.0000 H   0  0  0  0  0  0  0  0  0  0  0  0
    5.5711   -0.9466    0.0000 H   0  0  0  0  0  0  0  0  0  0  0  0
    5.5707   -1.7711    0.0000 H   0  0  0  0  0  0  0  0  0  0  0  0
    4.6435   -2.3056    0.0000 H   0  0  0  0  0  0  0  0  0  0  0  0
    3.9292   -2.7174    0.0000 H   0  0  0  0  0  0  0  0  0  0  0  0
    3.0029   -2.1828    0.0000 H   0  0  0  0  0  0  0  0  0  0  0  0
    0.9016    0.0986    0.0000 H   0  0  0  0  0  0  0  0  0  0  0  0
    3.4257   -0.5359    0.0000 H   0  0  0  0  0  0  0  0  0  0  0  0
    2.5007    1.0700    0.0000 H   0  0  0  0  0  0  0  0  0  0  0  0
    3.4268    0.5341    0.0000 H   0  0  0  0  0  0  0  0  0  0  0  0
   -3.2146   -0.2083    0.0000 H   0  0  0  0  0  0  0  0  0  0  0  0
   -4.8230    2.5804    0.0000 H   0  0  0  0  0  0  0  0  0  0  0  0
   -3.2146    3.5078    0.0000 H   0  0  0  0  0  0  0  0  0  0  0  0
   -1.6061    2.5805    0.0000 H   0  0  0  0  0  0  0  0  0  0  0  0
    4.1406    0.6996    0.0000 H   0  0  0  0  0  0  0  0  0  0  0  0
    3.2156    2.3055    0.0000 H   0  0  0  0  0  0  0  0  0  0  0  0
    4.1417    1.7696    0.0000 H   0  0  0  0  0  0  0  0  0  0  0  0
  1  2  1  0  0  0  0
  1 35  2  0  0  0  0
  1 36  1  0  0  0  0
  2  3  1  0  0  0  0
  2 38  1  0  0  0  0
  3  4  1  0  0  0  0
  3 39  1  0  0  0  0
  3 40  1  0  0  0  0
  4  5  1  0  0  0  0
  4 41  1  0  0  0  0
  4 42  1  0  0  0  0
  6  5  1  0  0  0  0
  6  7  1  0  0  0  0
  6 28  1  0  0  0  0
  6 43  1  1  0  0  0
  7  8  1  0  0  0  0
  7 12  1  0  0  0  0
  7 27  1  6  0  0  0
  8 44  1  0  0  0  0
  8 45  1  0  0  0  0
  9  8  1  0  0  0  0
  9 10  1  0  0  0  0
  9 13  1  0  0  0  0
 10 46  1  0  0  0  0
 10 47  1  0  0  0  0
 11 10  1  0  0  0  0
 11 48  1  0  0  0  0
 11 49  1  0  0  0  0
 12 11  1  0  0  0  0
 12 50  1  0  0  0  0
 12 51  1  0  0  0  0
 13 14  2  0  0  0  0
 13 15  1  0  0  0  0
 15 16  1  0  0  0  0
 15 52  1  0  0  0  0
 16 17  1  0  0  0  0
 16 53  1  0  0  0  0
 16 54  1  0  0  0  0
 17 18  1  0  0  0  0
 17 25  1  0  0  0  0
 17 55  1  6  0  0  0
 18 56  1  0  0  0  0
 18 57  1  0  0  0  0
 19 18  1  0  0  0  0
 19 24  1  0  0  0  0
 19 58  1  1  0  0  0
 20 19  1  0  0  0  0
 20 21  1  0  0  0  0
 20 59  1  0  0  0  0
 20 60  1  0  0  0  0
 22 21  1  0  0  0  0
 22 61  1  0  0  0  0
 22 62  1  0  0  0  0
 23 22  1  0  0  0  0
 23 63  1  0  0  0  0
 23 64  1  0  0  0  0
 24 23  1  0  0  0  0
 24 65  1  0  0  0  0
 24 66  1  0  0  0  0
 25 26  1  0  0  0  0
 25 67  1  0  0  0  0
 26 68  1  0  0  0  0
 26 69  1  0  0  0  0
 26 70  1  0  0  0  0
 28 29  1  0  0  0  0
 28 33  2  0  0  0  0
 29 30  2  0  0  0  0
 29 71  1  0  0  0  0
 30 31  1  0  0  0  0
 30 34  1  0  0  0  0
 31 32  2  0  0  0  0
 31 72  1  0  0  0  0
 32 33  1  0  0  0  0
 32 73  1  0  0  0  0
 33 74  1  0  0  0  0
 36 37  1  0  0  0  0
 37 75  1  0  0  0  0
 37 76  1  0  0  0  0
 37 77  1  0  0  0  0
M  END
>  <DRUGBANK_ID>
DB12416

>  <COMMON_NAME>
VTP-27999

>  <CAS_NUMBER>
942142-51-0

>  <UNII>
254XY8NV84

$$$$
