C90
 OpenBabel10282417072D

 59 61  0  0  0  0  0  0  0  0999 V2000
   -3.9747    2.2498    0.0000 C   0  0  0  0  0  0  0  0  0  0  0  0
   -3.2602    1.8373    0.0000 C   0  0  0  0  0  0  0  0  0  0  0  0
   -1.8313    1.0123    0.0000 C   0  0  0  0  0  0  0  0  0  0  0  0
   -1.1168    0.5998    0.0000 C   0  0  0  0  0  0  0  0  0  0  0  0
   -6.1181    1.0123    0.0000 O   0  0  0  0  0  0  0  0  0  0  0  0
   -0.4023    0.1873    0.0000 C   0  0  0  0  0  0  0  0  0  0  0  0
    0.3121   -0.2252    0.0000 C   0  0  0  0  0  0  0  0  0  0  0  0
    3.8845   -2.2877    0.0000 C   0  0  1  0  0  0  0  0  0  0  0  0
    1.7411   -1.0502    0.0000 C   0  0  0  0  0  0  0  0  0  0  0  0
    2.4555   -1.4627    0.0000 C   0  0  0  0  0  0  0  0  0  0  0  0
    3.8845   -1.4627    0.0000 C   0  0  1  0  0  0  0  0  0  0  0  0
    4.5990   -2.7002    0.0000 C   0  0  0  0  0  0  0  0  0  0  0  0
    4.5990   -1.0502    0.0000 C   0  0  0  0  0  0  0  0  0  0  0  0
   -6.1181    1.8373    0.0000 C   0  0  0  0  0  0  0  0  0  0  0  0
   -5.4036    0.5998    0.0000 C   0  0  0  0  0  0  0  0  0  0  0  0
   -5.4036    2.2498    0.0000 C   0  0  0  0  0  0  0  0  0  0  0  0
   -4.6892    1.0123    0.0000 C   0  0  0  0  0  0  0  0  0  0  0  0
   -4.6892    1.8373    0.0000 N   0  0  0  0  0  0  0  0  0  0  0  0
   -2.5458    2.2498    0.0000 C   0  0  0  0  0  0  0  0  0  0  0  0
   -3.2602    1.0123    0.0000 C   0  0  0  0  0  0  0  0  0  0  0  0
   -1.8313    1.8373    0.0000 C   0  0  0  0  0  0  0  0  0  0  0  0
   -2.5458    0.5998    0.0000 C   0  0  0  0  0  0  0  0  0  0  0  0
    0.3121   -1.0502    0.0000 C   0  0  0  0  0  0  0  0  0  0  0  0
    1.0266    0.1873    0.0000 C   0  0  0  0  0  0  0  0  0  0  0  0
    1.0266   -1.4627    0.0000 C   0  0  0  0  0  0  0  0  0  0  0  0
    1.7411   -0.2252    0.0000 C   0  0  0  0  0  0  0  0  0  0  0  0
    2.4555   -2.2877    0.0000 O   0  0  0  0  0  0  0  0  0  0  0  0
    3.1700   -1.0502    0.0000 N   0  0  0  0  0  0  0  0  0  0  0  0
    3.1700   -2.7002    0.0000 O   0  0  0  0  0  0  0  0  0  0  0  0
    5.3134   -1.4627    0.0000 N   0  0  0  0  0  0  0  0  0  0  0  0
    4.5990   -0.2252    0.0000 O   0  0  0  0  0  0  0  0  0  0  0  0
    6.0279   -1.0502    0.0000 O   0  0  0  0  0  0  0  0  0  0  0  0
    3.3788   -1.9957    0.0000 H   0  0  0  0  0  0  0  0  0  0  0  0
    4.3902   -1.7546    0.0000 H   0  0  0  0  0  0  0  0  0  0  0  0
   -3.9747    3.3198    0.0000 H   0  0  0  0  0  0  0  0  0  0  0  0
   -3.0481    2.7848    0.0000 H   0  0  0  0  0  0  0  0  0  0  0  0
    4.5990   -3.7702    0.0000 H   0  0  0  0  0  0  0  0  0  0  0  0
    5.5256   -2.1652    0.0000 H   0  0  0  0  0  0  0  0  0  0  0  0
    5.5257   -3.2352    0.0000 H   0  0  0  0  0  0  0  0  0  0  0  0
   -7.0447    2.3723    0.0000 H   0  0  0  0  0  0  0  0  0  0  0  0
   -6.1181    2.9073    0.0000 H   0  0  0  0  0  0  0  0  0  0  0  0
   -5.4036   -0.4702    0.0000 H   0  0  0  0  0  0  0  0  0  0  0  0
   -4.4769    0.0648    0.0000 H   0  0  0  0  0  0  0  0  0  0  0  0
   -5.4036    3.3198    0.0000 H   0  0  0  0  0  0  0  0  0  0  0  0
   -4.4769    2.7848    0.0000 H   0  0  0  0  0  0  0  0  0  0  0  0
   -3.7625    0.4773    0.0000 H   0  0  0  0  0  0  0  0  0  0  0  0
   -3.7626    1.5473    0.0000 H   0  0  0  0  0  0  0  0  0  0  0  0
   -2.5458    3.2818    0.0000 H   0  0  0  0  0  0  0  0  0  0  0  0
   -4.1539    0.4963    0.0000 H   0  0  0  0  0  0  0  0  0  0  0  0
   -0.9376    2.3533    0.0000 H   0  0  0  0  0  0  0  0  0  0  0  0
   -2.5458   -0.4322    0.0000 H   0  0  0  0  0  0  0  0  0  0  0  0
   -0.5816   -1.5662    0.0000 H   0  0  0  0  0  0  0  0  0  0  0  0
    1.0266    1.2193    0.0000 H   0  0  0  0  0  0  0  0  0  0  0  0
    1.0266   -2.4947    0.0000 H   0  0  0  0  0  0  0  0  0  0  0  0
    2.6348    0.2908    0.0000 H   0  0  0  0  0  0  0  0  0  0  0  0
    3.1700   -0.0657    0.0000 H   0  0  0  0  0  0  0  0  0  0  0  0
    2.3300   -2.2152    0.0000 H   0  0  0  0  0  0  0  0  0  0  0  0
    5.3134   -2.4472    0.0000 H   0  0  0  0  0  0  0  0  0  0  0  0
    6.8679   -1.5352    0.0000 H   0  0  0  0  0  0  0  0  0  0  0  0
  1 18  1  0  0  0  0
  1  2  1  0  0  0  0
  1 35  1  0  0  0  0
  1 36  1  0  0  0  0
  2 19  2  0  0  0  0
  3  4  1  0  0  0  0
  3 21  2  0  0  0  0
  4  6  3  0  0  0  0
  5 14  1  0  0  0  0
  6  7  1  0  0  0  0
  7 24  2  0  0  0  0
  8 29  1  0  0  0  0
  8 33  1  6  0  0  0
  9 10  1  0  0  0  0
  9 26  2  0  0  0  0
 10 27  2  0  0  0  0
 11  8  1  0  0  0  0
 11 34  1  1  0  0  0
 11 28  1  0  0  0  0
 12  8  1  0  0  0  0
 12 37  1  0  0  0  0
 12 38  1  0  0  0  0
 12 39  1  0  0  0  0
 13 30  1  0  0  0  0
 13 11  1  0  0  0  0
 14 40  1  0  0  0  0
 14 41  1  0  0  0  0
 15  5  1  0  0  0  0
 15 42  1  0  0  0  0
 15 43  1  0  0  0  0
 16 14  1  0  0  0  0
 16 44  1  0  0  0  0
 16 45  1  0  0  0  0
 17 15  1  0  0  0  0
 17 18  1  0  0  0  0
 17 46  1  0  0  0  0
 17 47  1  0  0  0  0
 18 16  1  0  0  0  0
 19 21  1  0  0  0  0
 19 48  1  0  0  0  0
 20 22  2  0  0  0  0
 20  2  1  0  0  0  0
 20 49  1  0  0  0  0
 21 50  1  0  0  0  0
 22  3  1  0  0  0  0
 22 51  1  0  0  0  0
 23 25  2  0  0  0  0
 23  7  1  0  0  0  0
 23 52  1  0  0  0  0
 24 26  1  0  0  0  0
 24 53  1  0  0  0  0
 25  9  1  0  0  0  0
 25 54  1  0  0  0  0
 26 55  1  0  0  0  0
 28 10  1  0  0  0  0
 28 56  1  0  0  0  0
 29 57  1  0  0  0  0
 30 58  1  0  0  0  0
 31 13  2  0  0  0  0
 32 30  1  0  0  0  0
 32 59  1  0  0  0  0
M  END
>  <DRUGBANK_ID>
DB07536

>  <COMMON_NAME>
N-{(1S,2R)-2-hydroxy-1-[(hydroxyamino)carbonyl]propyl}-4-{[4-(morpholin-4-ylmethyl)phenyl]ethynyl}benzamide

$$$$
