1149
 OpenBabel10282417072D

 65 68  0  0  0  0  0  0  0  0999 V2000
    1.6500   -5.0560    0.0000 Cl  0  0  0  0  0  0  0  0  0  0  0  0
    3.9811    2.9167    0.0000 O   0  0  0  0  0  0  0  0  0  0  0  0
    6.8929    4.1298    0.0000 O   0  0  0  0  0  0  0  0  0  0  0  0
    3.0791   -0.9309    0.0000 N   0  0  0  0  0  0  0  0  0  0  0  0
    3.0791   -2.5809    0.0000 N   0  0  0  0  0  0  0  0  0  0  0  0
    4.5080    1.5442    0.0000 N   0  0  0  0  0  0  0  0  0  0  0  0
    5.4012    2.5362    0.0000 N   0  0  0  0  0  0  0  0  0  0  0  0
    5.2616    1.2086    0.0000 N   0  0  0  0  0  0  0  0  0  0  0  0
    2.3645   -1.3434    0.0000 C   0  0  0  0  0  0  0  0  0  0  0  0
    3.7935   -1.3434    0.0000 C   0  0  0  0  0  0  0  0  0  0  0  0
    2.3645   -2.1684    0.0000 C   0  0  0  0  0  0  0  0  0  0  0  0
    3.7935   -2.1684    0.0000 C   0  0  0  0  0  0  0  0  0  0  0  0
    3.0791   -0.1058    0.0000 C   0  0  0  0  0  0  0  0  0  0  0  0
    3.7935    0.3067    0.0000 C   0  0  0  0  0  0  0  0  0  0  0  0
    3.7935    1.1317    0.0000 C   0  0  0  0  0  0  0  0  0  0  0  0
    3.0791   -3.4059    0.0000 C   0  0  0  0  0  0  0  0  0  0  0  0
    4.5942    2.3647    0.0000 C   0  0  0  0  0  0  0  0  0  0  0  0
    5.8137    1.8217    0.0000 C   0  0  0  0  0  0  0  0  0  0  0  0
    2.3645   -3.8184    0.0000 C   0  0  0  0  0  0  0  0  0  0  0  0
    3.7935   -3.8184    0.0000 C   0  0  0  0  0  0  0  0  0  0  0  0
    5.7368    3.2899    0.0000 C   0  0  0  0  0  0  0  0  0  0  0  0
    6.6342    1.7355    0.0000 C   0  0  0  0  0  0  0  0  0  0  0  0
    2.3645   -4.6434    0.0000 C   0  0  0  0  0  0  0  0  0  0  0  0
    3.7935   -4.6434    0.0000 C   0  0  0  0  0  0  0  0  0  0  0  0
    6.5572    3.3761    0.0000 C   0  0  0  0  0  0  0  0  0  0  0  0
    3.0791   -5.0560    0.0000 C   0  0  0  0  0  0  0  0  0  0  0  0
    6.9698    0.9818    0.0000 C   0  0  0  0  0  0  0  0  0  0  0  0
    7.7133    4.2161    0.0000 C   0  0  0  0  0  0  0  0  0  0  0  0
    8.0489    4.9697    0.0000 C   0  0  0  0  0  0  0  0  0  0  0  0
    8.1983    3.5486    0.0000 C   0  0  0  0  0  0  0  0  0  0  0  0
    8.8694    5.0560    0.0000 C   0  0  0  0  0  0  0  0  0  0  0  0
    9.0188    3.6349    0.0000 C   0  0  0  0  0  0  0  0  0  0  0  0
    9.3543    4.3885    0.0000 C   0  0  0  0  0  0  0  0  0  0  0  0
    1.4379   -0.8084    0.0000 H   0  0  0  0  0  0  0  0  0  0  0  0
    1.4378   -1.8784    0.0000 H   0  0  0  0  0  0  0  0  0  0  0  0
    4.7202   -0.8084    0.0000 H   0  0  0  0  0  0  0  0  0  0  0  0
    4.7201   -1.8784    0.0000 H   0  0  0  0  0  0  0  0  0  0  0  0
    1.4379   -2.7034    0.0000 H   0  0  0  0  0  0  0  0  0  0  0  0
    1.4378   -1.6334    0.0000 H   0  0  0  0  0  0  0  0  0  0  0  0
    4.7202   -2.7034    0.0000 H   0  0  0  0  0  0  0  0  0  0  0  0
    4.7201   -1.6334    0.0000 H   0  0  0  0  0  0  0  0  0  0  0  0
    2.1524    0.4292    0.0000 H   0  0  0  0  0  0  0  0  0  0  0  0
    3.0791    0.9642    0.0000 H   0  0  0  0  0  0  0  0  0  0  0  0
    4.7202   -0.2283    0.0000 H   0  0  0  0  0  0  0  0  0  0  0  0
    4.7201    0.8417    0.0000 H   0  0  0  0  0  0  0  0  0  0  0  0
    2.8669    1.6667    0.0000 H   0  0  0  0  0  0  0  0  0  0  0  0
    2.8669    0.5967    0.0000 H   0  0  0  0  0  0  0  0  0  0  0  0
    1.4708   -3.3024    0.0000 H   0  0  0  0  0  0  0  0  0  0  0  0
    4.6872   -3.3024    0.0000 H   0  0  0  0  0  0  0  0  0  0  0  0
    5.1079    4.1556    0.0000 H   0  0  0  0  0  0  0  0  0  0  0  0
    6.1720    4.2674    0.0000 H   0  0  0  0  0  0  0  0  0  0  0  0
    7.2631    2.6012    0.0000 H   0  0  0  0  0  0  0  0  0  0  0  0
    7.6983    1.6237    0.0000 H   0  0  0  0  0  0  0  0  0  0  0  0
    4.6873   -5.1593    0.0000 H   0  0  0  0  0  0  0  0  0  0  0  0
    7.1861    2.5104    0.0000 H   0  0  0  0  0  0  0  0  0  0  0  0
    6.1219    2.3986    0.0000 H   0  0  0  0  0  0  0  0  0  0  0  0
    3.0792   -6.0880    0.0000 H   0  0  0  0  0  0  0  0  0  0  0  0
    6.3409    0.1161    0.0000 H   0  0  0  0  0  0  0  0  0  0  0  0
    8.0339    0.8700    0.0000 H   0  0  0  0  0  0  0  0  0  0  0  0
    7.4050    0.0043    0.0000 H   0  0  0  0  0  0  0  0  0  0  0  0
    7.4423    5.8046    0.0000 H   0  0  0  0  0  0  0  0  0  0  0  0
    7.7786    2.6058    0.0000 H   0  0  0  0  0  0  0  0  0  0  0  0
    9.2891    5.9988    0.0000 H   0  0  0  0  0  0  0  0  0  0  0  0
    9.6254    2.8000    0.0000 H   0  0  0  0  0  0  0  0  0  0  0  0
   10.3806    4.4964    0.0000 H   0  0  0  0  0  0  0  0  0  0  0  0
  1 23  1  0  0  0  0
  2 17  2  0  0  0  0
  3 25  1  0  0  0  0
  3 28  1  0  0  0  0
  4  9  1  0  0  0  0
  4 10  1  0  0  0  0
  4 13  1  0  0  0  0
  5 11  1  0  0  0  0
  5 12  1  0  0  0  0
  5 16  1  0  0  0  0
  6  8  1  0  0  0  0
  6 15  1  0  0  0  0
  6 17  1  0  0  0  0
  7 17  1  0  0  0  0
  7 18  1  0  0  0  0
  7 21  1  0  0  0  0
  8 18  2  0  0  0  0
  9 11  1  0  0  0  0
  9 34  1  0  0  0  0
  9 35  1  0  0  0  0
 10 12  1  0  0  0  0
 10 36  1  0  0  0  0
 10 37  1  0  0  0  0
 11 38  1  0  0  0  0
 11 39  1  0  0  0  0
 12 40  1  0  0  0  0
 12 41  1  0  0  0  0
 13 14  1  0  0  0  0
 13 42  1  0  0  0  0
 13 43  1  0  0  0  0
 14 15  1  0  0  0  0
 14 44  1  0  0  0  0
 14 45  1  0  0  0  0
 15 46  1  0  0  0  0
 15 47  1  0  0  0  0
 16 19  2  0  0  0  0
 16 20  1  0  0  0  0
 18 22  1  0  0  0  0
 19 23  1  0  0  0  0
 19 48  1  0  0  0  0
 20 24  2  0  0  0  0
 20 49  1  0  0  0  0
 21 25  1  0  0  0  0
 21 50  1  0  0  0  0
 21 51  1  0  0  0  0
 22 27  1  0  0  0  0
 22 52  1  0  0  0  0
 22 53  1  0  0  0  0
 23 26  2  0  0  0  0
 24 26  1  0  0  0  0
 24 54  1  0  0  0  0
 25 55  1  0  0  0  0
 25 56  1  0  0  0  0
 26 57  1  0  0  0  0
 27 58  1  0  0  0  0
 27 59  1  0  0  0  0
 27 60  1  0  0  0  0
 28 29  2  0  0  0  0
 28 30  1  0  0  0  0
 29 31  1  0  0  0  0
 29 61  1  0  0  0  0
 30 32  2  0  0  0  0
 30 62  1  0  0  0  0
 31 33  2  0  0  0  0
 31 63  1  0  0  0  0
 32 33  1  0  0  0  0
 32 64  1  0  0  0  0
 33 65  1  0  0  0  0
M  END
>  <DRUGBANK_ID>
DB01149

>  <SECONDARY_ACCESSION_NUMBERS>
APRD00402

>  <COMMON_NAME>
Nefazodone

>  <CAS_NUMBER>
83366-66-9

>  <UNII>
59H4FCV1TF

>  <SYNONYMS>
1-(3-(4-(m-Chlorophenyl)-1-piperazinyl)propyl)-3-ethyl-4-(2-phenoxyethyl)-delta2-1,2,4-triazolin-5-one; Nefazodona; Nefazodone; Nefazodonum

$$$$
