
 OpenBabel10282417072D

 19 18  0  0  1  0  0  0  0  0999 V2000
    2.8073   -0.9817    0.0000 S   0  0  0  0  0  0  0  0  0  0  0  0
    2.0928    0.2558    0.0000 O   0  0  0  0  0  0  0  0  0  0  0  0
    2.8073    1.4932    0.0000 O   0  0  0  0  0  0  0  0  0  0  0  0
    4.9505   -0.5693    0.0000 O   0  0  0  0  0  0  0  0  0  0  0  0
    4.2362    0.6682    0.0000 N   0  0  0  0  0  0  0  0  0  0  0  0
    3.5217    0.2558    0.0000 C   0  0  1  0  0  0  0  0  0  0  0  0
    3.5217   -0.5693    0.0000 C   0  0  0  0  0  0  0  0  0  0  0  0
    2.8073    0.6682    0.0000 C   0  0  0  0  0  0  0  0  0  0  0  0
    4.9505    0.2558    0.0000 C   0  0  0  0  0  0  0  0  0  0  0  0
    5.6651    0.6682    0.0000 C   0  0  0  0  0  0  0  0  0  0  0  0
    1.6295   -0.3016    0.0000 H   0  0  0  0  0  0  0  0  0  0  0  0
    1.2814    0.7244    0.0000 H   0  0  0  0  0  0  0  0  0  0  0  0
    4.2363    1.6527    0.0000 H   0  0  0  0  0  0  0  0  0  0  0  0
    4.4483   -0.2793    0.0000 H   0  0  0  0  0  0  0  0  0  0  0  0
    4.4483   -1.1043    0.0000 H   0  0  0  0  0  0  0  0  0  0  0  0
    4.4484   -0.0343    0.0000 H   0  0  0  0  0  0  0  0  0  0  0  0
    6.5916    0.1330    0.0000 H   0  0  0  0  0  0  0  0  0  0  0  0
    5.6653    1.7382    0.0000 H   0  0  0  0  0  0  0  0  0  0  0  0
    6.5918    1.2030    0.0000 H   0  0  0  0  0  0  0  0  0  0  0  0
  1  7  1  0  0  0  0
  1 11  1  0  0  0  0
  2  8  1  0  0  0  0
  2 12  1  0  0  0  0
  3  8  2  0  0  0  0
  4  9  2  0  0  0  0
  5  9  1  0  0  0  0
  5 13  1  0  0  0  0
  6  5  1  0  0  0  0
  6  7  1  0  0  0  0
  6  8  1  0  0  0  0
  6 14  1  6  0  0  0
  7 15  1  0  0  0  0
  7 16  1  0  0  0  0
  9 10  1  0  0  0  0
 10 17  1  0  0  0  0
 10 18  1  0  0  0  0
 10 19  1  0  0  0  0
M  END
>  <DRUGBANK_ID>
DB06151

>  <SECONDARY_ACCESSION_NUMBERS>
DB05436

>  <COMMON_NAME>
Acetylcysteine

>  <CAS_NUMBER>
616-91-1

>  <UNII>
WYQ7N0BPYC

>  <SYNONYMS>
(2R)-2-acetylamino-3-sulfanylpropanoic acid; (R)-2-acetylamino-3-mercaptopropanoic acid; (R)-mercapturic acid; Acetilcisteina; Acetylcysteine; Acetylcysteinum; L-acetylcysteine; L-α-acetamido-β-mercaptopropionic acid; Mercapturic acid; N-acetyl-L-(+)-cysteine; N-acetyl-L-cysteine; N-acetylcysteine; NAC

$$$$
