
 OpenBabel10282417072D

161178  0  0  1  0  0  0  0  0999 V2000
   10.3945    4.5921    0.0000 H   0  0  0  0  0  0  0  0  0  0  0  0
   10.7186    3.8334    0.0000 C   0  0  1  0  0  0  0  0  0  0  0  0
   11.0427    3.0747    0.0000 C   0  0  1  0  0  0  0  0  0  0  0  0
   10.5477    2.4147    0.0000 O   0  0  0  0  0  0  0  0  0  0  0  0
   11.8618    2.9761    0.0000 C   0  0  0  0  0  0  0  0  0  0  0  0
   12.3567    3.6361    0.0000 C   0  0  0  0  0  0  0  0  0  0  0  0
   13.1758    3.5375    0.0000 C   0  0  0  0  0  0  0  0  0  0  0  0
   13.6708    4.1975    0.0000 C   0  0  0  0  0  0  0  0  0  0  0  0
   13.3467    4.9562    0.0000 C   0  0  0  0  0  0  0  0  0  0  0  0
   13.9680    5.4989    0.0000 O   0  0  0  0  0  0  0  0  0  0  0  0
   14.6762    5.0756    0.0000 C   0  0  0  0  0  0  0  0  0  0  0  0
   14.4925    4.2714    0.0000 O   0  0  0  0  0  0  0  0  0  0  0  0
   12.5276    5.0548    0.0000 C   0  0  0  0  0  0  0  0  0  0  0  0
   12.0326    4.3948    0.0000 C   0  0  0  0  0  0  0  0  0  0  0  0
   11.2135    4.4934    0.0000 C   0  0  1  0  0  0  0  0  0  0  0  0
   11.7085    5.1535    0.0000 H   0  0  0  0  0  0  0  0  0  0  0  0
   10.8894    5.2521    0.0000 N   0  3  3  0  0  0  0  0  0  0  0  0
   10.7837    6.0012    0.0000 C   0  0  0  0  0  0  0  0  0  0  0  0
   10.4968    6.0963    0.0000 C   0  0  0  0  0  0  0  0  0  0  0  0
   10.4745    6.9662    0.0000 C   0  0  0  0  0  0  0  0  0  0  0  0
   10.6069    7.7849    0.0000 N   0  0  0  0  0  0  0  0  0  0  0  0
   11.3979    8.1622    0.0000 P   0  0  3  0  0  0  0  0  0  0  0  0
   11.9762    8.3834    0.0000 S   0  0  0  0  0  0  0  0  0  0  0  0
   12.3020    8.1776    0.0000 N   0  0  0  0  0  0  0  0  0  0  0  0
   13.1373    7.9135    0.0000 C   0  0  0  0  0  0  0  0  0  0  0  0
   13.6422    7.1848    0.0000 C   0  0  0  0  0  0  0  0  0  0  0  0
   14.3888    6.6830    0.0000 N   0  3  3  0  0  0  0  0  0  0  0  0
   14.7347    7.4101    0.0000 C   0  0  0  0  0  0  0  0  0  0  0  0
   13.8938    6.0230    0.0000 C   0  0  0  0  0  0  0  0  0  0  0  0
   14.2179    5.2643    0.0000 C   0  0  0  0  0  0  0  0  0  0  0  0
   15.0370    5.1657    0.0000 C   0  0  0  0  0  0  0  0  0  0  0  0
   15.3612    4.4070    0.0000 C   0  0  0  0  0  0  0  0  0  0  0  0
   14.8662    3.7470    0.0000 C   0  0  0  0  0  0  0  0  0  0  0  0
   14.0471    3.8456    0.0000 C   0  0  0  0  0  0  0  0  0  0  0  0
   13.7230    4.6043    0.0000 C   0  0  0  0  0  0  0  0  0  0  0  0
   12.9013    4.5305    0.0000 O   0  0  0  0  0  0  0  0  0  0  0  0
   12.7176    3.7262    0.0000 C   0  0  0  0  0  0  0  0  0  0  0  0
   13.4257    3.3029    0.0000 O   0  0  0  0  0  0  0  0  0  0  0  0
   15.5320    5.8257    0.0000 C   0  0  1  0  0  0  0  0  0  0  0  0
   16.0269    6.4858    0.0000 H   0  0  0  0  0  0  0  0  0  0  0  0
   16.3511    5.7271    0.0000 C   0  0  1  0  0  0  0  0  0  0  0  0
   16.6752    4.9684    0.0000 O   0  0  0  0  0  0  0  0  0  0  0  0
   16.8460    6.3871    0.0000 C   0  0  0  0  0  0  0  0  0  0  0  0
   16.5219    7.1458    0.0000 C   0  0  0  0  0  0  0  0  0  0  0  0
   17.0169    7.8058    0.0000 C   0  0  0  0  0  0  0  0  0  0  0  0
   16.6927    8.5645    0.0000 C   0  0  0  0  0  0  0  0  0  0  0  0
   15.8736    8.6631    0.0000 C   0  0  0  0  0  0  0  0  0  0  0  0
   15.7759    9.5717    0.0000 O   0  0  0  0  0  0  0  0  0  0  0  0
   16.4350    9.8742    0.0000 C   0  0  0  0  0  0  0  0  0  0  0  0
   17.0396    9.3130    0.0000 O   0  0  0  0  0  0  0  0  0  0  0  0
   15.3787    8.0031    0.0000 C   0  0  0  0  0  0  0  0  0  0  0  0
   15.7028    7.2444    0.0000 C   0  0  0  0  0  0  0  0  0  0  0  0
   15.2079    6.5844    0.0000 C   0  0  1  0  0  0  0  0  0  0  0  0
   14.7129    5.9244    0.0000 H   0  0  0  0  0  0  0  0  0  0  0  0
   10.7035    8.7211    0.0000 N   0  0  0  0  0  0  0  0  0  0  0  0
   11.3052    9.2714    0.0000 C   0  0  0  0  0  0  0  0  0  0  0  0
   11.3633   10.1091    0.0000 C   0  0  0  0  0  0  0  0  0  0  0  0
   12.0247   10.6551    0.0000 N   0  3  3  0  0  0  0  0  0  0  0  0
   12.7644   10.2338    0.0000 C   0  0  0  0  0  0  0  0  0  0  0  0
   11.2352   10.8945    0.0000 C   0  0  0  0  0  0  0  0  0  0  0  0
   11.0477   11.6979    0.0000 C   0  0  0  0  0  0  0  0  0  0  0  0
   11.6498   12.2619    0.0000 C   0  0  0  0  0  0  0  0  0  0  0  0
   11.4623   13.0654    0.0000 C   0  0  0  0  0  0  0  0  0  0  0  0
   10.6728   13.3047    0.0000 C   0  0  0  0  0  0  0  0  0  0  0  0
   10.0707   12.7407    0.0000 C   0  0  0  0  0  0  0  0  0  0  0  0
   10.2582   11.9373    0.0000 C   0  0  0  0  0  0  0  0  0  0  0  0
    9.5520   11.5107    0.0000 O   0  0  0  0  0  0  0  0  0  0  0  0
    8.9281   12.0505    0.0000 C   0  0  0  0  0  0  0  0  0  0  0  0
    9.2487   12.8107    0.0000 O   0  0  0  0  0  0  0  0  0  0  0  0
   12.4393   12.0226    0.0000 C   0  0  1  0  0  0  0  0  0  0  0  0
   13.2288   11.7832    0.0000 H   0  0  0  0  0  0  0  0  0  0  0  0
   13.0413   12.5866    0.0000 C   0  0  1  0  0  0  0  0  0  0  0  0
   13.1950   13.4533    0.0000 O   0  0  0  0  0  0  0  0  0  0  0  0
   13.8308   12.3473    0.0000 C   0  0  0  0  0  0  0  0  0  0  0  0
   14.0183   11.5439    0.0000 C   0  0  0  0  0  0  0  0  0  0  0  0
   14.8078   11.3045    0.0000 C   0  0  0  0  0  0  0  0  0  0  0  0
   14.9953   10.5011    0.0000 C   0  0  0  0  0  0  0  0  0  0  0  0
   14.3932    9.9370    0.0000 C   0  0  0  0  0  0  0  0  0  0  0  0
   14.7436    9.1901    0.0000 O   0  0  0  0  0  0  0  0  0  0  0  0
   15.5622    9.2926    0.0000 C   0  0  0  0  0  0  0  0  0  0  0  0
   15.7178   10.1028    0.0000 O   0  0  0  0  0  0  0  0  0  0  0  0
   13.6037   10.1764    0.0000 C   0  0  0  0  0  0  0  0  0  0  0  0
   13.4162   10.9798    0.0000 C   0  0  0  0  0  0  0  0  0  0  0  0
   12.6267   11.2192    0.0000 C   0  0  1  0  0  0  0  0  0  0  0  0
   12.8142   10.4157    0.0000 H   0  0  0  0  0  0  0  0  0  0  0  0
   10.0703    5.3507    0.0000 C   0  0  0  0  0  0  0  0  0  0  0  0
    9.5754    4.6907    0.0000 C   0  0  0  0  0  0  0  0  0  0  0  0
    9.8995    3.9320    0.0000 C   0  0  0  0  0  0  0  0  0  0  0  0
    9.4045    3.2720    0.0000 C   0  0  0  0  0  0  0  0  0  0  0  0
    8.5855    3.3706    0.0000 C   0  0  0  0  0  0  0  0  0  0  0  0
    8.2613    4.1293    0.0000 C   0  0  0  0  0  0  0  0  0  0  0  0
    8.7563    4.7893    0.0000 C   0  0  0  0  0  0  0  0  0  0  0  0
    8.2815    5.4640    0.0000 O   0  0  0  0  0  0  0  0  0  0  0  0
    7.4931    5.2210    0.0000 C   0  0  0  0  0  0  0  0  0  0  0  0
    7.4807    4.3961    0.0000 O   0  0  0  0  0  0  0  0  0  0  0  0
    9.9804    3.2027    0.0000 H   0  0  0  0  0  0  0  0  0  0  0  0
    9.5847    2.5307    0.0000 H   0  0  0  0  0  0  0  0  0  0  0  0
   12.2822    1.9922    0.0000 H   0  0  0  0  0  0  0  0  0  0  0  0
   12.9241    2.8482    0.0000 H   0  0  0  0  0  0  0  0  0  0  0  0
   13.5812    2.5885    0.0000 H   0  0  0  0  0  0  0  0  0  0  0  0
   15.6602    5.4960    0.0000 H   0  0  0  0  0  0  0  0  0  0  0  0
   15.4975    4.3897    0.0000 H   0  0  0  0  0  0  0  0  0  0  0  0
   12.1222    6.0038    0.0000 H   0  0  0  0  0  0  0  0  0  0  0  0
   11.6265    6.6604    0.0000 H   0  0  0  0  0  0  0  0  0  0  0  0
    9.7914    6.4015    0.0000 H   0  0  0  0  0  0  0  0  0  0  0  0
   10.6342    7.0607    0.0000 H   0  0  0  0  0  0  0  0  0  0  0  0
    9.4551    5.8519    0.0000 H   0  0  0  0  0  0  0  0  0  0  0  0
    9.6498    6.7501    0.0000 H   0  0  0  0  0  0  0  0  0  0  0  0
    9.4069    7.0382    0.0000 H   0  0  0  0  0  0  0  0  0  0  0  0
    9.8087    7.8039    0.0000 H   0  0  0  0  0  0  0  0  0  0  0  0
    9.7906    8.3965    0.0000 H   0  0  0  0  0  0  0  0  0  0  0  0
   12.4490    9.1870    0.0000 H   0  0  0  0  0  0  0  0  0  0  0  0
   13.7725    8.7746    0.0000 H   0  0  0  0  0  0  0  0  0  0  0  0
   14.2072    7.8977    0.0000 H   0  0  0  0  0  0  0  0  0  0  0  0
   12.8910    6.4229    0.0000 H   0  0  0  0  0  0  0  0  0  0  0  0
   13.7494    6.1202    0.0000 H   0  0  0  0  0  0  0  0  0  0  0  0
   15.8013    7.4951    0.0000 H   0  0  0  0  0  0  0  0  0  0  0  0
   14.1277    8.2913    0.0000 H   0  0  0  0  0  0  0  0  0  0  0  0
   15.1944    8.3763    0.0000 H   0  0  0  0  0  0  0  0  0  0  0  0
   12.8315    6.1510    0.0000 H   0  0  0  0  0  0  0  0  0  0  0  0
   13.2518    5.1670    0.0000 H   0  0  0  0  0  0  0  0  0  0  0  0
   16.3858    4.2836    0.0000 H   0  0  0  0  0  0  0  0  0  0  0  0
   15.2716    2.7980    0.0000 H   0  0  0  0  0  0  0  0  0  0  0  0
   11.7336    3.3059    0.0000 H   0  0  0  0  0  0  0  0  0  0  0  0
   12.6454    2.6586    0.0000 H   0  0  0  0  0  0  0  0  0  0  0  0
   15.7092    4.8711    0.0000 H   0  0  0  0  0  0  0  0  0  0  0  0
   16.0932    4.1924    0.0000 H   0  0  0  0  0  0  0  0  0  0  0  0
   17.9083    6.2592    0.0000 H   0  0  0  0  0  0  0  0  0  0  0  0
   17.4880    7.2431    0.0000 H   0  0  0  0  0  0  0  0  0  0  0  0
   18.0415    7.6824    0.0000 H   0  0  0  0  0  0  0  0  0  0  0  0
   16.6044   10.9307    0.0000 H   0  0  0  0  0  0  0  0  0  0  0  0
   17.4466   10.2228    0.0000 H   0  0  0  0  0  0  0  0  0  0  0  0
   14.3541    8.1265    0.0000 H   0  0  0  0  0  0  0  0  0  0  0  0
    9.6840    8.6889    0.0000 H   0  0  0  0  0  0  0  0  0  0  0  0
   12.2689    8.8064    0.0000 H   0  0  0  0  0  0  0  0  0  0  0  0
   12.2306    9.8086    0.0000 H   0  0  0  0  0  0  0  0  0  0  0  0
   10.4117   10.5984    0.0000 H   0  0  0  0  0  0  0  0  0  0  0  0
   11.2484   11.1729    0.0000 H   0  0  0  0  0  0  0  0  0  0  0  0
   12.7707    9.1638    0.0000 H   0  0  0  0  0  0  0  0  0  0  0  0
   13.6879   10.7742    0.0000 H   0  0  0  0  0  0  0  0  0  0  0  0
   13.6942    9.7042    0.0000 H   0  0  0  0  0  0  0  0  0  0  0  0
   10.4544   10.1629    0.0000 H   0  0  0  0  0  0  0  0  0  0  0  0
   10.2112   11.2049    0.0000 H   0  0  0  0  0  0  0  0  0  0  0  0
   12.2154   13.7710    0.0000 H   0  0  0  0  0  0  0  0  0  0  0  0
   10.4383   14.3097    0.0000 H   0  0  0  0  0  0  0  0  0  0  0  0
    7.8861   11.8074    0.0000 H   0  0  0  0  0  0  0  0  0  0  0  0
    8.2384   12.8686    0.0000 H   0  0  0  0  0  0  0  0  0  0  0  0
   12.1006   13.0965    0.0000 H   0  0  0  0  0  0  0  0  0  0  0  0
   14.1068   13.7842    0.0000 H   0  0  0  0  0  0  0  0  0  0  0  0
   14.6116   13.0789    0.0000 H   0  0  0  0  0  0  0  0  0  0  0  0
   14.8548   12.0369    0.0000 H   0  0  0  0  0  0  0  0  0  0  0  0
   15.5609   12.0101    0.0000 H   0  0  0  0  0  0  0  0  0  0  0  0
   16.2938    8.5117    0.0000 H   0  0  0  0  0  0  0  0  0  0  0  0
   16.5901    9.5899    0.0000 H   0  0  0  0  0  0  0  0  0  0  0  0
   12.8506    9.4708    0.0000 H   0  0  0  0  0  0  0  0  0  0  0  0
    9.6499    6.3346    0.0000 H   0  0  0  0  0  0  0  0  0  0  0  0
    9.0080    5.4786    0.0000 H   0  0  0  0  0  0  0  0  0  0  0  0
    9.8099    2.3230    0.0000 H   0  0  0  0  0  0  0  0  0  0  0  0
    7.9664    2.5449    0.0000 H   0  0  0  0  0  0  0  0  0  0  0  0
    6.6371    5.8629    0.0000 H   0  0  0  0  0  0  0  0  0  0  0  0
    6.5325    4.7497    0.0000 H   0  0  0  0  0  0  0  0  0  0  0  0
  2  1  1  1  0  0  0
  2  3  1  0  0  0  0
  2 15  1  0  0  0  0
  2 88  1  0  0  0  0
  3  4  1  0  0  0  0
  3  5  1  0  0  0  0
  3 96  1  1  0  0  0
  4 97  1  0  0  0  0
  5  6  1  0  0  0  0
  5 98  1  0  0  0  0
  5 99  1  0  0  0  0
  6  7  2  0  0  0  0
  6 14  1  0  0  0  0
  7  8  1  0  0  0  0
  7100  1  0  0  0  0
  8  9  2  0  0  0  0
  8 12  1  0  0  0  0
  9 10  1  0  0  0  0
  9 13  1  0  0  0  0
 10 11  1  0  0  0  0
 11 12  1  0  0  0  0
 11101  1  0  0  0  0
 11102  1  0  0  0  0
 13 14  2  0  0  0  0
 13103  1  0  0  0  0
 15 14  1  0  0  0  0
 15 16  1  1  0  0  0
 15 17  1  0  0  0  0
 17 18  1  0  0  0  0
 17 19  1  0  0  0  0
 17 86  1  0  0  0  0
 18104  1  0  0  0  0
 18105  1  0  0  0  0
 18106  1  0  0  0  0
 19 20  1  0  0  0  0
 19107  1  0  0  0  0
 19108  1  0  0  0  0
 20 21  1  0  0  0  0
 20109  1  0  0  0  0
 20110  1  0  0  0  0
 21 22  1  0  0  0  0
 21111  1  0  0  0  0
 22 23  2  0  0  0  0
 22 24  1  0  0  0  0
 22 55  1  0  0  0  0
 24 25  1  0  0  0  0
 24112  1  0  0  0  0
 25 26  1  0  0  0  0
 25113  1  0  0  0  0
 25114  1  0  0  0  0
 26 27  1  0  0  0  0
 26115  1  0  0  0  0
 26116  1  0  0  0  0
 27 28  1  0  0  0  0
 27 29  1  0  0  0  0
 28117  1  0  0  0  0
 28118  1  0  0  0  0
 28119  1  0  0  0  0
 29 30  1  0  0  0  0
 29120  1  0  0  0  0
 29121  1  0  0  0  0
 30 31  2  0  0  0  0
 30 35  1  0  0  0  0
 31 32  1  0  0  0  0
 32 33  2  0  0  0  0
 32122  1  0  0  0  0
 33 34  1  0  0  0  0
 33123  1  0  0  0  0
 34 35  2  0  0  0  0
 34 38  1  0  0  0  0
 35 36  1  0  0  0  0
 36 37  1  0  0  0  0
 37 38  1  0  0  0  0
 37124  1  0  0  0  0
 37125  1  0  0  0  0
 39 31  1  0  0  0  0
 39 40  1  1  0  0  0
 39 41  1  0  0  0  0
 39 53  1  0  0  0  0
 41 42  1  0  0  0  0
 41 43  1  0  0  0  0
 41126  1  1  0  0  0
 42127  1  0  0  0  0
 43 44  1  0  0  0  0
 43128  1  0  0  0  0
 43129  1  0  0  0  0
 44 45  2  0  0  0  0
 44 52  1  0  0  0  0
 45 46  1  0  0  0  0
 45130  1  0  0  0  0
 46 47  2  0  0  0  0
 46 50  1  0  0  0  0
 47 48  1  0  0  0  0
 47 51  1  0  0  0  0
 48 49  1  0  0  0  0
 49 50  1  0  0  0  0
 49131  1  0  0  0  0
 49132  1  0  0  0  0
 51 52  2  0  0  0  0
 51133  1  0  0  0  0
 53 52  1  0  0  0  0
 53 27  1  0  0  0  0
 53 54  1  1  0  0  0
 55 56  1  0  0  0  0
 55134  1  0  0  0  0
 56 57  1  0  0  0  0
 56135  1  0  0  0  0
 56136  1  0  0  0  0
 57 58  1  0  0  0  0
 57137  1  0  0  0  0
 57138  1  0  0  0  0
 58 59  1  0  0  0  0
 58 60  1  0  0  0  0
 59139  1  0  0  0  0
 59140  1  0  0  0  0
 59141  1  0  0  0  0
 60 61  1  0  0  0  0
 60142  1  0  0  0  0
 60143  1  0  0  0  0
 61 62  2  0  0  0  0
 61 66  1  0  0  0  0
 62 63  1  0  0  0  0
 63 64  2  0  0  0  0
 63144  1  0  0  0  0
 64 65  1  0  0  0  0
 64145  1  0  0  0  0
 65 66  2  0  0  0  0
 65 69  1  0  0  0  0
 66 67  1  0  0  0  0
 67 68  1  0  0  0  0
 68 69  1  0  0  0  0
 68146  1  0  0  0  0
 68147  1  0  0  0  0
 70 62  1  0  0  0  0
 70 71  1  6  0  0  0
 70 72  1  0  0  0  0
 70 84  1  0  0  0  0
 72 73  1  0  0  0  0
 72 74  1  0  0  0  0
 72148  1  6  0  0  0
 73149  1  0  0  0  0
 74 75  1  0  0  0  0
 74150  1  0  0  0  0
 74151  1  0  0  0  0
 75 76  2  0  0  0  0
 75 83  1  0  0  0  0
 76 77  1  0  0  0  0
 76152  1  0  0  0  0
 77 78  2  0  0  0  0
 77 81  1  0  0  0  0
 78 79  1  0  0  0  0
 78 82  1  0  0  0  0
 79 80  1  0  0  0  0
 80 81  1  0  0  0  0
 80153  1  0  0  0  0
 80154  1  0  0  0  0
 82 83  2  0  0  0  0
 82155  1  0  0  0  0
 84 83  1  0  0  0  0
 84 58  1  0  0  0  0
 84 85  1  6  0  0  0
 86 87  1  0  0  0  0
 86156  1  0  0  0  0
 86157  1  0  0  0  0
 87 88  2  0  0  0  0
 87 92  1  0  0  0  0
 88 89  1  0  0  0  0
 89 90  2  0  0  0  0
 89158  1  0  0  0  0
 90 91  1  0  0  0  0
 90159  1  0  0  0  0
 91 92  2  0  0  0  0
 91 95  1  0  0  0  0
 92 93  1  0  0  0  0
 93 94  1  0  0  0  0
 94 95  1  0  0  0  0
 94160  1  0  0  0  0
 94161  1  0  0  0  0
M  CHG  3  17   1  27   1  58   1
M  END
>  <DRUGBANK_ID>
DB17150

>  <COMMON_NAME>
Ukrain cation

>  <CAS_NUMBER>
732958-87-1

>  <UNII>
53F09PQ5P5

>  <SYNONYMS>
(1,3)benzodioxolo(5,6-c)-1,3-dioxolo(4,5-i)phenanthridinium, 13,13',13''-(phosphinothioylidynetris(imino-2,1-ethanediyl))tris(5b,6,7,12b,13,14-hexahydro-6-hydroxy-13-methyl-, (5br,5'br,5''br,6s,6's,6''s,12bs,12'bs,12''bs)-; Chelidoninium, 5,5',5''-(phosphinothioylidynetris(imino-2,1-ethanediyl))tris(5-methyl-

$$$$
