
 OpenBabel10282417072D

 59 60  0  0  0  0  0  0  0  0999 V2000
    1.0717   -1.0312    0.0000 O   0  0  0  0  0  0  0  0  0  0  0  0
   -1.0717    2.6812    0.0000 O   0  0  0  0  0  0  0  0  0  0  0  0
    0.3572    2.6812    0.0000 O   0  0  0  0  0  0  0  0  0  0  0  0
    3.9295   -0.2062    0.0000 O   0  0  0  0  0  0  0  0  0  0  0  0
    3.2151   -2.2687    0.0000 O   0  0  0  0  0  0  0  0  0  0  0  0
    3.9295   -1.0312    0.0000 O   0  0  0  0  0  0  0  0  0  0  0  0
    0.3572    1.0312    0.0000 N   0  0  0  0  0  0  0  0  0  0  0  0
    1.7861    0.2062    0.0000 N   0  0  0  0  0  0  0  0  0  0  0  0
    3.2151    1.0312    0.0000 N   0  0  0  0  0  0  0  0  0  0  0  0
    0.3572    0.2062    0.0000 C   0  0  1  0  0  0  0  0  0  0  0  0
   -0.3572    1.4437    0.0000 C   0  0  1  0  0  0  0  0  0  0  0  0
   -1.0717    1.0312    0.0000 C   0  0  0  0  0  0  0  0  0  0  0  0
   -0.3572   -0.2062    0.0000 C   0  0  0  0  0  0  0  0  0  0  0  0
   -1.7861    1.4437    0.0000 C   0  0  0  0  0  0  0  0  0  0  0  0
    1.0717   -0.2062    0.0000 C   0  0  0  0  0  0  0  0  0  0  0  0
   -0.3572   -1.0312    0.0000 C   0  0  0  0  0  0  0  0  0  0  0  0
   -0.3572    2.2687    0.0000 C   0  0  0  0  0  0  0  0  0  0  0  0
    2.5006   -0.2062    0.0000 C   0  0  1  0  0  0  0  0  0  0  0  0
   -2.5006    1.0312    0.0000 C   0  0  0  0  0  0  0  0  0  0  0  0
    2.5006   -1.0312    0.0000 C   0  0  0  0  0  0  0  0  0  0  0  0
    0.3572   -1.4437    0.0000 C   0  0  0  0  0  0  0  0  0  0  0  0
   -1.0717   -1.4437    0.0000 C   0  0  0  0  0  0  0  0  0  0  0  0
   -2.5006    0.2062    0.0000 C   0  0  0  0  0  0  0  0  0  0  0  0
   -3.2151    1.4437    0.0000 C   0  0  0  0  0  0  0  0  0  0  0  0
    3.2151    0.2062    0.0000 C   0  0  0  0  0  0  0  0  0  0  0  0
    0.3572   -2.2687    0.0000 C   0  0  0  0  0  0  0  0  0  0  0  0
   -1.0717   -2.2687    0.0000 C   0  0  0  0  0  0  0  0  0  0  0  0
   -0.3572   -2.6812    0.0000 C   0  0  0  0  0  0  0  0  0  0  0  0
   -3.2151   -0.2062    0.0000 C   0  0  0  0  0  0  0  0  0  0  0  0
   -3.9295    1.0312    0.0000 C   0  0  0  0  0  0  0  0  0  0  0  0
    3.2151   -1.4437    0.0000 C   0  0  0  0  0  0  0  0  0  0  0  0
   -3.9295    0.2062    0.0000 C   0  0  0  0  0  0  0  0  0  0  0  0
    0.8002    1.2870    0.0000 H   0  0  0  0  0  0  0  0  0  0  0  0
    1.7861    0.7177    0.0000 H   0  0  0  0  0  0  0  0  0  0  0  0
    2.7721    1.2870    0.0000 H   0  0  0  0  0  0  0  0  0  0  0  0
    3.6580    1.2870    0.0000 H   0  0  0  0  0  0  0  0  0  0  0  0
   -1.0717    3.6182    0.0000 H   0  0  0  0  0  0  0  0  0  0  0  0
    2.4036   -2.7372    0.0000 H   0  0  0  0  0  0  0  0  0  0  0  0
   -0.5694    0.7412    0.0000 H   0  0  0  0  0  0  0  0  0  0  0  0
   -0.3572    0.3737    0.0000 H   0  0  0  0  0  0  0  0  0  0  0  0
   -1.0717   -0.0388    0.0000 H   0  0  0  0  0  0  0  0  0  0  0  0
   -1.9984    0.4962    0.0000 H   0  0  0  0  0  0  0  0  0  0  0  0
   -1.2838    0.3288    0.0000 H   0  0  0  0  0  0  0  0  0  0  0  0
   -1.2839   -0.7412    0.0000 H   0  0  0  0  0  0  0  0  0  0  0  0
   -1.7861    2.5137    0.0000 H   0  0  0  0  0  0  0  0  0  0  0  0
   -2.7127    1.9787    0.0000 H   0  0  0  0  0  0  0  0  0  0  0  0
    1.5740   -0.7413    0.0000 H   0  0  0  0  0  0  0  0  0  0  0  0
    1.5740   -1.5662    0.0000 H   0  0  0  0  0  0  0  0  0  0  0  0
    2.5006   -2.1012    0.0000 H   0  0  0  0  0  0  0  0  0  0  0  0
    1.2509   -0.9277    0.0000 H   0  0  0  0  0  0  0  0  0  0  0  0
   -1.9654   -0.9277    0.0000 H   0  0  0  0  0  0  0  0  0  0  0  0
   -1.6069   -0.3099    0.0000 H   0  0  0  0  0  0  0  0  0  0  0  0
   -3.2151    2.4757    0.0000 H   0  0  0  0  0  0  0  0  0  0  0  0
    1.2509   -2.7847    0.0000 H   0  0  0  0  0  0  0  0  0  0  0  0
   -1.9654   -2.7847    0.0000 H   0  0  0  0  0  0  0  0  0  0  0  0
   -0.3572   -3.7132    0.0000 H   0  0  0  0  0  0  0  0  0  0  0  0
   -3.2151   -1.2382    0.0000 H   0  0  0  0  0  0  0  0  0  0  0  0
   -4.8232    1.5472    0.0000 H   0  0  0  0  0  0  0  0  0  0  0  0
   -4.8232   -0.3098    0.0000 H   0  0  0  0  0  0  0  0  0  0  0  0
  1 15  2  0  0  0  0
  2 17  1  0  0  0  0
  2 37  1  0  0  0  0
  3 17  2  0  0  0  0
  4 25  2  0  0  0  0
  5 31  1  0  0  0  0
  5 38  1  0  0  0  0
  6 31  2  0  0  0  0
  7 33  1  0  0  0  0
  8 15  1  0  0  0  0
  8 34  1  0  0  0  0
  9 25  1  0  0  0  0
  9 35  1  0  0  0  0
  9 36  1  0  0  0  0
 10  7  1  0  0  0  0
 10 13  1  0  0  0  0
 10 15  1  0  0  0  0
 10 39  1  1  0  0  0
 11  7  1  0  0  0  0
 11 12  1  0  0  0  0
 11 17  1  0  0  0  0
 11 40  1  6  0  0  0
 12 14  1  0  0  0  0
 12 41  1  0  0  0  0
 12 42  1  0  0  0  0
 13 16  1  0  0  0  0
 13 43  1  0  0  0  0
 13 44  1  0  0  0  0
 14 19  1  0  0  0  0
 14 45  1  0  0  0  0
 14 46  1  0  0  0  0
 16 21  2  0  0  0  0
 16 22  1  0  0  0  0
 18  8  1  0  0  0  0
 18 20  1  0  0  0  0
 18 25  1  0  0  0  0
 18 47  1  1  0  0  0
 19 23  2  0  0  0  0
 19 24  1  0  0  0  0
 20 31  1  0  0  0  0
 20 48  1  0  0  0  0
 20 49  1  0  0  0  0
 21 26  1  0  0  0  0
 21 50  1  0  0  0  0
 22 27  2  0  0  0  0
 22 51  1  0  0  0  0
 23 29  1  0  0  0  0
 23 52  1  0  0  0  0
 24 30  2  0  0  0  0
 24 53  1  0  0  0  0
 26 28  2  0  0  0  0
 26 54  1  0  0  0  0
 27 28  1  0  0  0  0
 27 55  1  0  0  0  0
 28 56  1  0  0  0  0
 29 32  2  0  0  0  0
 29 57  1  0  0  0  0
 30 32  1  0  0  0  0
 30 58  1  0  0  0  0
 32 59  1  0  0  0  0
M  END
>  <DRUGBANK_ID>
DB02307

>  <SECONDARY_ACCESSION_NUMBERS>
EXPT01770

>  <COMMON_NAME>
N-(1-carboxy-3-phenylpropyl)phenylalanyl-alpha-asparagine

$$$$
