
 OpenBabel10282417072D

 65 64  0  0  0  0  0  0  0  0999 V2000
    4.2868    2.0921    0.0000 C   0  0  0  0  0  0  0  0  0  0  0  0
    4.2868    1.2671    0.0000 C   0  0  0  0  0  0  0  0  0  0  0  0
    3.5724    0.8546    0.0000 C   0  0  0  0  0  0  0  0  0  0  0  0
    3.5724    0.0296    0.0000 C   0  0  0  0  0  0  0  0  0  0  0  0
    4.2868   -0.3829    0.0000 C   0  0  0  0  0  0  0  0  0  0  0  0
    4.2868   -1.2079    0.0000 C   0  0  0  0  0  0  0  0  0  0  0  0
    3.5724   -1.6204    0.0000 C   0  0  0  0  0  0  0  0  0  0  0  0
    2.8579   -1.2079    0.0000 C   0  0  0  0  0  0  0  0  0  0  0  0
    2.8579   -0.3829    0.0000 C   0  0  0  0  0  0  0  0  0  0  0  0
    2.1434    0.0296    0.0000 C   0  0  0  0  0  0  0  0  0  0  0  0
    1.4289   -0.3829    0.0000 C   0  0  0  0  0  0  0  0  0  0  0  0
    0.7145    0.0296    0.0000 C   0  0  0  0  0  0  0  0  0  0  0  0
    0.0000   -0.3829    0.0000 C   0  0  0  0  0  0  0  0  0  0  0  0
   -0.0000   -1.2079    0.0000 C   0  0  0  0  0  0  0  0  0  0  0  0
   -0.7145   -1.6204    0.0000 C   0  0  0  0  0  0  0  0  0  0  0  0
   -0.7145   -2.4454    0.0000 C   0  0  0  0  0  0  0  0  0  0  0  0
   -0.0000   -2.8579    0.0000 C   0  0  0  0  0  0  0  0  0  0  0  0
   -0.0000   -3.6829    0.0000 C   0  0  0  0  0  0  0  0  0  0  0  0
    0.7145   -4.0954    0.0000 C   0  0  0  0  0  0  0  0  0  0  0  0
    1.4289   -3.6829    0.0000 C   0  0  0  0  0  0  0  0  0  0  0  0
    2.1434   -4.0954    0.0000 O   0  0  0  0  0  0  0  0  0  0  0  0
    2.8579   -3.6829    0.0000 C   0  0  3  0  0  0  0  0  0  0  0  0
    3.5724   -4.0954    0.0000 C   0  0  0  0  0  0  0  0  0  0  0  0
    4.2868   -3.6829    0.0000 C   0  0  0  0  0  0  0  0  0  0  0  0
    2.8579   -2.8579    0.0000 C   0  0  0  0  0  0  0  0  0  0  0  0
    2.1434   -2.4454    0.0000 O   0  0  0  0  0  0  0  0  0  0  0  0
    3.5724   -2.4454    0.0000 O   0  0  0  0  0  0  0  0  0  0  0  0
    5.2134    2.6271    0.0000 H   0  0  0  0  0  0  0  0  0  0  0  0
    3.3602    2.6271    0.0000 H   0  0  0  0  0  0  0  0  0  0  0  0
    4.2868    3.1621    0.0000 H   0  0  0  0  0  0  0  0  0  0  0  0
    5.2135    0.7321    0.0000 H   0  0  0  0  0  0  0  0  0  0  0  0
    4.2868    0.1971    0.0000 H   0  0  0  0  0  0  0  0  0  0  0  0
    2.6787    1.3706    0.0000 H   0  0  0  0  0  0  0  0  0  0  0  0
    2.6787   -0.4864    0.0000 H   0  0  0  0  0  0  0  0  0  0  0  0
    5.2135    0.1521    0.0000 H   0  0  0  0  0  0  0  0  0  0  0  0
    5.2134   -0.9179    0.0000 H   0  0  0  0  0  0  0  0  0  0  0  0
    5.1805   -1.7239    0.0000 H   0  0  0  0  0  0  0  0  0  0  0  0
    3.5724   -2.6524    0.0000 H   0  0  0  0  0  0  0  0  0  0  0  0
    1.9313   -1.7429    0.0000 H   0  0  0  0  0  0  0  0  0  0  0  0
    1.9313   -0.6729    0.0000 H   0  0  0  0  0  0  0  0  0  0  0  0
    3.7516    0.1331    0.0000 H   0  0  0  0  0  0  0  0  0  0  0  0
    2.1434    1.0616    0.0000 H   0  0  0  0  0  0  0  0  0  0  0  0
    1.4289   -1.4529    0.0000 H   0  0  0  0  0  0  0  0  0  0  0  0
    0.5022   -0.9179    0.0000 H   0  0  0  0  0  0  0  0  0  0  0  0
    0.7145    1.0616    0.0000 H   0  0  0  0  0  0  0  0  0  0  0  0
   -0.8937    0.1331    0.0000 H   0  0  0  0  0  0  0  0  0  0  0  0
    0.9266   -1.7429    0.0000 H   0  0  0  0  0  0  0  0  0  0  0  0
   -0.0000   -2.2779    0.0000 H   0  0  0  0  0  0  0  0  0  0  0  0
   -1.6082   -1.1044    0.0000 H   0  0  0  0  0  0  0  0  0  0  0  0
   -1.6082   -2.9614    0.0000 H   0  0  0  0  0  0  0  0  0  0  0  0
    0.9266   -2.3229    0.0000 H   0  0  0  0  0  0  0  0  0  0  0  0
    0.9266   -3.3929    0.0000 H   0  0  0  0  0  0  0  0  0  0  0  0
   -0.9266   -4.2179    0.0000 H   0  0  0  0  0  0  0  0  0  0  0  0
    0.0000   -4.7529    0.0000 H   0  0  0  0  0  0  0  0  0  0  0  0
    0.7145   -5.1654    0.0000 H   0  0  0  0  0  0  0  0  0  0  0  0
    1.6412   -4.6304    0.0000 H   0  0  0  0  0  0  0  0  0  0  0  0
    1.4289   -2.6129    0.0000 H   0  0  0  0  0  0  0  0  0  0  0  0
    2.3555   -3.1479    0.0000 H   0  0  0  0  0  0  0  0  0  0  0  0
    2.8579   -4.7529    0.0000 H   0  0  0  0  0  0  0  0  0  0  0  0
    3.5724   -5.1654    0.0000 H   0  0  0  0  0  0  0  0  0  0  0  0
    4.4991   -4.6304    0.0000 H   0  0  0  0  0  0  0  0  0  0  0  0
    5.2135   -4.2179    0.0000 H   0  0  0  0  0  0  0  0  0  0  0  0
    4.2868   -2.6129    0.0000 H   0  0  0  0  0  0  0  0  0  0  0  0
    5.2134   -3.1479    0.0000 H   0  0  0  0  0  0  0  0  0  0  0  0
    4.3839   -2.9139    0.0000 H   0  0  0  0  0  0  0  0  0  0  0  0
  1  2  1  0  0  0  0
  1 28  1  0  0  0  0
  1 29  1  0  0  0  0
  1 30  1  0  0  0  0
  2  3  1  0  0  0  0
  2 31  1  0  0  0  0
  2 32  1  0  0  0  0
  3  4  2  0  0  0  0
  3 33  1  0  0  0  0
  4  5  1  0  0  0  0
  4 34  1  0  0  0  0
  5  6  1  0  0  0  0
  5 35  1  0  0  0  0
  5 36  1  0  0  0  0
  6  7  2  0  0  0  0
  6 37  1  0  0  0  0
  7  8  1  0  0  0  0
  7 38  1  0  0  0  0
  8  9  1  0  0  0  0
  8 39  1  0  0  0  0
  8 40  1  0  0  0  0
  9 10  2  0  0  0  0
  9 41  1  0  0  0  0
 10 11  1  0  0  0  0
 10 42  1  0  0  0  0
 11 12  1  0  0  0  0
 11 43  1  0  0  0  0
 11 44  1  0  0  0  0
 12 13  2  0  0  0  0
 12 45  1  0  0  0  0
 13 14  1  0  0  0  0
 13 46  1  0  0  0  0
 14 15  1  0  0  0  0
 14 47  1  0  0  0  0
 14 48  1  0  0  0  0
 15 16  2  0  0  0  0
 15 49  1  0  0  0  0
 16 17  1  0  0  0  0
 16 50  1  0  0  0  0
 17 18  1  0  0  0  0
 17 51  1  0  0  0  0
 17 52  1  0  0  0  0
 18 19  1  0  0  0  0
 18 53  1  0  0  0  0
 18 54  1  0  0  0  0
 19 20  1  0  0  0  0
 19 55  1  0  0  0  0
 19 56  1  0  0  0  0
 20 21  1  0  0  0  0
 20 57  1  0  0  0  0
 20 58  1  0  0  0  0
 21 22  1  0  0  0  0
 22 23  1  0  0  0  0
 22 25  1  0  0  0  0
 22 59  1  0  0  0  0
 23 24  1  0  0  0  0
 23 60  1  0  0  0  0
 23 61  1  0  0  0  0
 24 62  1  0  0  0  0
 24 63  1  0  0  0  0
 24 64  1  0  0  0  0
 25 26  2  0  0  0  0
 25 27  1  0  0  0  0
 27 65  1  0  0  0  0
M  END
>  <DRUGBANK_ID>
DB12990

>  <COMMON_NAME>
Icosabutate

>  <CAS_NUMBER>
1253909-57-7

>  <UNII>
562599X5JL

>  <SYNONYMS>
Icosabutate

$$$$
