NFT
 OpenBabel10282417072D

 62 63  0  0  0  0  0  0  0  0999 V2000
   -1.3767    0.1309    0.0000 C   0  0  0  0  0  0  0  0  0  0  0  0
    0.0523    0.1309    0.0000 C   0  0  0  0  0  0  0  0  0  0  0  0
   -0.6622   -0.2816    0.0000 C   0  0  0  0  0  0  0  0  0  0  0  0
   -0.6622   -1.1066    0.0000 C   0  0  0  0  0  0  0  0  0  0  0  0
    0.0523   -1.5191    0.0000 C   0  0  0  0  0  0  0  0  0  0  0  0
    0.7667   -0.2816    0.0000 C   0  0  0  0  0  0  0  0  0  0  0  0
    0.7667   -1.1066    0.0000 C   0  0  0  0  0  0  0  0  0  0  0  0
    1.4812   -1.5191    0.0000 C   0  0  1  0  0  0  0  0  0  0  0  0
    1.4812   -2.3441    0.0000 C   0  0  0  0  0  0  0  0  0  0  0  0
    0.6562   -2.3441    0.0000 F   0  0  0  0  0  0  0  0  0  0  0  0
    1.4812   -3.1691    0.0000 F   0  0  0  0  0  0  0  0  0  0  0  0
    2.3062   -2.3441    0.0000 F   0  0  0  0  0  0  0  0  0  0  0  0
    4.3391   -1.5191    0.0000 N   0  0  0  0  0  0  0  0  0  0  0  0
    5.0536   -1.1066    0.0000 C   0  0  0  0  0  0  0  0  0  0  0  0
    2.1957   -1.1066    0.0000 N   0  0  0  0  0  0  0  0  0  0  0  0
    2.9102   -1.5191    0.0000 C   0  0  1  0  0  0  0  0  0  0  0  0
    2.9102   -2.3441    0.0000 C   0  0  0  0  0  0  0  0  0  0  0  0
    3.6246   -2.7566    0.0000 C   0  0  0  0  0  0  0  0  0  0  0  0
    4.3391   -2.3441    0.0000 C   0  0  0  0  0  0  0  0  0  0  0  0
    3.6246   -3.5816    0.0000 C   0  0  0  0  0  0  0  0  0  0  0  0
    3.6246   -1.1066    0.0000 C   0  0  0  0  0  0  0  0  0  0  0  0
    3.6246   -0.2816    0.0000 O   0  0  0  0  0  0  0  0  0  0  0  0
   -2.0911   -0.2816    0.0000 C   0  0  0  0  0  0  0  0  0  0  0  0
   -2.8056    0.1309    0.0000 C   0  0  0  0  0  0  0  0  0  0  0  0
   -2.8056    0.9559    0.0000 C   0  0  0  0  0  0  0  0  0  0  0  0
   -2.0911    1.3684    0.0000 C   0  0  0  0  0  0  0  0  0  0  0  0
   -1.3767    0.9559    0.0000 C   0  0  0  0  0  0  0  0  0  0  0  0
   -3.5201    1.3684    0.0000 S   0  0  0  0  0  0  0  0  0  0  0  0
   -4.2345    1.7809    0.0000 N   0  0  0  0  0  0  0  0  0  0  0  0
   -3.1076    2.0828    0.0000 O   0  0  0  0  0  0  0  0  0  0  0  0
   -3.9326    0.6539    0.0000 O   0  0  0  0  0  0  0  0  0  0  0  0
    5.7680   -1.5191    0.0000 C   0  0  0  0  0  0  0  0  0  0  0  0
    6.4825   -1.1066    0.0000 N   0  0  0  0  0  0  0  0  0  0  0  0
    0.9755   -1.8111    0.0000 H   0  0  0  0  0  0  0  0  0  0  0  0
    2.9102   -0.9352    0.0000 H   0  0  0  0  0  0  0  0  0  0  0  0
    0.0523    1.1629    0.0000 H   0  0  0  0  0  0  0  0  0  0  0  0
   -1.5559   -1.6226    0.0000 H   0  0  0  0  0  0  0  0  0  0  0  0
    0.0523   -2.5511    0.0000 H   0  0  0  0  0  0  0  0  0  0  0  0
    1.6604    0.2344    0.0000 H   0  0  0  0  0  0  0  0  0  0  0  0
    4.3391   -2.5036    0.0000 H   0  0  0  0  0  0  0  0  0  0  0  0
    5.0536   -0.0366    0.0000 H   0  0  0  0  0  0  0  0  0  0  0  0
    5.9803   -0.5716    0.0000 H   0  0  0  0  0  0  0  0  0  0  0  0
    2.1957   -0.0866    0.0000 H   0  0  0  0  0  0  0  0  0  0  0  0
    1.9835   -2.8791    0.0000 H   0  0  0  0  0  0  0  0  0  0  0  0
    2.9102   -3.4141    0.0000 H   0  0  0  0  0  0  0  0  0  0  0  0
    4.5512   -3.2916    0.0000 H   0  0  0  0  0  0  0  0  0  0  0  0
    5.2657   -2.8791    0.0000 H   0  0  0  0  0  0  0  0  0  0  0  0
    4.3391   -1.2741    0.0000 H   0  0  0  0  0  0  0  0  0  0  0  0
    5.2658   -1.8091    0.0000 H   0  0  0  0  0  0  0  0  0  0  0  0
    2.6980   -4.1166    0.0000 H   0  0  0  0  0  0  0  0  0  0  0  0
    4.5512   -4.1166    0.0000 H   0  0  0  0  0  0  0  0  0  0  0  0
    3.6246   -4.6516    0.0000 H   0  0  0  0  0  0  0  0  0  0  0  0
   -2.0911   -1.3136    0.0000 H   0  0  0  0  0  0  0  0  0  0  0  0
   -3.6993   -0.3851    0.0000 H   0  0  0  0  0  0  0  0  0  0  0  0
   -2.0911    2.4004    0.0000 H   0  0  0  0  0  0  0  0  0  0  0  0
   -0.4830    1.4719    0.0000 H   0  0  0  0  0  0  0  0  0  0  0  0
   -4.2345    2.8009    0.0000 H   0  0  0  0  0  0  0  0  0  0  0  0
   -5.1179    1.2709    0.0000 H   0  0  0  0  0  0  0  0  0  0  0  0
    5.7680   -2.5891    0.0000 H   0  0  0  0  0  0  0  0  0  0  0  0
    6.6946   -2.0541    0.0000 H   0  0  0  0  0  0  0  0  0  0  0  0
    7.3658   -1.6166    0.0000 H   0  0  0  0  0  0  0  0  0  0  0  0
    6.4825   -0.0866    0.0000 H   0  0  0  0  0  0  0  0  0  0  0  0
  1  3  1  0  0  0  0
  1 23  2  0  0  0  0
  1 27  1  0  0  0  0
  2  6  2  0  0  0  0
  2  3  1  0  0  0  0
  2 36  1  0  0  0  0
  3  4  2  0  0  0  0
  4  5  1  0  0  0  0
  4 37  1  0  0  0  0
  5  7  2  0  0  0  0
  5 38  1  0  0  0  0
  6  7  1  0  0  0  0
  6 39  1  0  0  0  0
  7  8  1  0  0  0  0
  8  9  1  0  0  0  0
  8 15  1  0  0  0  0
  8 34  1  1  0  0  0
  9 10  1  0  0  0  0
  9 12  1  0  0  0  0
  9 11  1  0  0  0  0
 13 14  1  0  0  0  0
 13 21  1  0  0  0  0
 13 40  1  0  0  0  0
 14 32  1  0  0  0  0
 14 41  1  0  0  0  0
 14 42  1  0  0  0  0
 15 43  1  0  0  0  0
 16 15  1  0  0  0  0
 16 21  1  0  0  0  0
 16 17  1  0  0  0  0
 16 35  1  1  0  0  0
 17 18  1  0  0  0  0
 17 44  1  0  0  0  0
 17 45  1  0  0  0  0
 18 19  1  0  0  0  0
 18 20  1  0  0  0  0
 18 46  1  0  0  0  0
 19 47  1  0  0  0  0
 19 48  1  0  0  0  0
 19 49  1  0  0  0  0
 20 50  1  0  0  0  0
 20 51  1  0  0  0  0
 20 52  1  0  0  0  0
 21 22  2  0  0  0  0
 23 24  1  0  0  0  0
 23 53  1  0  0  0  0
 24 25  2  0  0  0  0
 24 54  1  0  0  0  0
 25 26  1  0  0  0  0
 25 28  1  0  0  0  0
 26 27  2  0  0  0  0
 26 55  1  0  0  0  0
 27 56  1  0  0  0  0
 28 31  2  0  0  0  0
 28 30  2  0  0  0  0
 28 29  1  0  0  0  0
 29 57  1  0  0  0  0
 29 58  1  0  0  0  0
 32 33  1  0  0  0  0
 32 59  1  0  0  0  0
 32 60  1  0  0  0  0
 33 61  1  0  0  0  0
 33 62  1  0  0  0  0
M  END
>  <DRUGBANK_ID>
DB08270

>  <COMMON_NAME>
N-(2-AMINOETHYL)-N~2~-{(1S)-1-[4'-(AMINOSULFONYL)BIPHENYL-4-YL]-2,2,2-TRIFLUOROETHYL}-L-LEUCINAMIDE

$$$$
