
 OpenBabel10282417072D

 74 76  0  0  1  0  0  0  0  0999 V2000
   -1.4201   -1.2055    0.0000 C   0  0  0  0  0  0  0  0  0  0  0  0
   -1.4201   -0.3805    0.0000 C   0  0  2  0  0  0  0  0  0  0  0  0
   -0.7056    0.0320    0.0000 C   0  0  0  0  0  0  0  0  0  0  0  0
    0.0089   -0.3805    0.0000 C   0  0  0  0  0  0  0  0  0  0  0  0
    0.7233    0.0320    0.0000 C   0  0  2  0  0  0  0  0  0  0  0  0
    1.4378   -0.3805    0.0000 C   0  0  0  0  0  0  0  0  0  0  0  0
    2.1523    0.0320    0.0000 C   0  0  0  0  0  0  0  0  0  0  0  0
    1.4378   -1.2055    0.0000 C   0  0  0  0  0  0  0  0  0  0  0  0
    0.7233    0.8570    0.0000 O   0  0  0  0  0  0  0  0  0  0  0  0
   -2.1345    0.0320    0.0000 C   0  0  1  0  0  0  0  0  0  0  0  0
   -2.2208    0.8525    0.0000 C   0  0  0  0  0  0  0  0  0  0  0  0
   -3.0277    1.0240    0.0000 C   0  0  0  0  0  0  0  0  0  0  0  0
   -3.4402    0.3095    0.0000 C   0  0  2  0  0  0  0  0  0  0  0  0
   -2.8882   -0.3036    0.0000 C   0  0  2  0  0  0  0  0  0  0  0  0
   -3.1432   -1.0882    0.0000 C   0  0  0  0  0  0  0  0  0  0  0  0
   -3.9501   -1.2597    0.0000 C   0  0  0  0  0  0  0  0  0  0  0  0
   -4.5022   -0.6466    0.0000 C   0  0  0  0  0  0  0  0  0  0  0  0
   -4.2472    0.1380    0.0000 C   0  0  0  0  0  0  0  0  0  0  0  0
   -4.7992    0.7511    0.0000 C   0  0  0  0  0  0  0  0  0  0  0  0
   -5.6062    0.5796    0.0000 C   0  0  0  0  0  0  0  0  0  0  0  0
   -6.1583    1.1927    0.0000 C   0  0  0  0  0  0  0  0  0  0  0  0
   -6.9652    1.0211    0.0000 C   0  0  0  0  0  0  0  0  0  0  0  0
   -7.5173    1.6342    0.0000 C   0  0  2  0  0  0  0  0  0  0  0  0
   -7.2623    2.4189    0.0000 C   0  0  0  0  0  0  0  0  0  0  0  0
   -6.4553    2.5904    0.0000 C   0  0  1  0  0  0  0  0  0  0  0  0
   -5.9033    1.9773    0.0000 C   0  0  0  0  0  0  0  0  0  0  0  0
   -5.0963    2.1488    0.0000 C   0  0  0  0  0  0  0  0  0  0  0  0
   -6.2004    3.3750    0.0000 O   0  0  0  0  0  0  0  0  0  0  0  0
   -8.3242    1.4627    0.0000 O   0  0  0  0  0  0  0  0  0  0  0  0
   -2.2751   -0.8556    0.0000 C   0  0  0  0  0  0  0  0  0  0  0  0
   -2.3467   -1.7405    0.0000 H   0  0  0  0  0  0  0  0  0  0  0  0
   -0.4935   -1.7405    0.0000 H   0  0  0  0  0  0  0  0  0  0  0  0
   -1.4201   -2.2755    0.0000 H   0  0  0  0  0  0  0  0  0  0  0  0
   -1.4201    0.6895    0.0000 H   0  0  0  0  0  0  0  0  0  0  0  0
   -0.7056    1.1020    0.0000 H   0  0  0  0  0  0  0  0  0  0  0  0
    0.2210    0.5670    0.0000 H   0  0  0  0  0  0  0  0  0  0  0  0
    0.0089   -1.4505    0.0000 H   0  0  0  0  0  0  0  0  0  0  0  0
    0.9356   -0.9155    0.0000 H   0  0  0  0  0  0  0  0  0  0  0  0
   -0.2034    0.5670    0.0000 H   0  0  0  0  0  0  0  0  0  0  0  0
    2.3644   -0.9155    0.0000 H   0  0  0  0  0  0  0  0  0  0  0  0
    3.0789   -0.5030    0.0000 H   0  0  0  0  0  0  0  0  0  0  0  0
    2.1523    1.1020    0.0000 H   0  0  0  0  0  0  0  0  0  0  0  0
    3.0790    0.5670    0.0000 H   0  0  0  0  0  0  0  0  0  0  0  0
    0.5112   -1.7405    0.0000 H   0  0  0  0  0  0  0  0  0  0  0  0
    2.3644   -1.7405    0.0000 H   0  0  0  0  0  0  0  0  0  0  0  0
    1.4378   -2.2755    0.0000 H   0  0  0  0  0  0  0  0  0  0  0  0
    1.5633    1.3420    0.0000 H   0  0  0  0  0  0  0  0  0  0  0  0
   -1.2371    0.6148    0.0000 H   0  0  0  0  0  0  0  0  0  0  0  0
   -1.4257    1.5685    0.0000 H   0  0  0  0  0  0  0  0  0  0  0  0
   -2.4978    1.8860    0.0000 H   0  0  0  0  0  0  0  0  0  0  0  0
   -3.4629    2.0015    0.0000 H   0  0  0  0  0  0  0  0  0  0  0  0
   -4.0962    1.0800    0.0000 H   0  0  0  0  0  0  0  0  0  0  0  0
   -2.3761    0.4213    0.0000 H   0  0  0  0  0  0  0  0  0  0  0  0
   -2.4273   -1.8834    0.0000 H   0  0  0  0  0  0  0  0  0  0  0  0
   -3.4739   -2.1058    0.0000 H   0  0  0  0  0  0  0  0  0  0  0  0
   -4.2807   -2.2773    0.0000 H   0  0  0  0  0  0  0  0  0  0  0  0
   -4.9967   -1.4822    0.0000 H   0  0  0  0  0  0  0  0  0  0  0  0
   -5.5488   -0.8691    0.0000 H   0  0  0  0  0  0  0  0  0  0  0  0
   -5.2181    0.1486    0.0000 H   0  0  0  0  0  0  0  0  0  0  0  0
   -4.4803    1.7326    0.0000 H   0  0  0  0  0  0  0  0  0  0  0  0
   -5.9251   -0.4019    0.0000 H   0  0  0  0  0  0  0  0  0  0  0  0
   -7.2958    0.0034    0.0000 H   0  0  0  0  0  0  0  0  0  0  0  0
   -8.0118    0.7986    0.0000 H   0  0  0  0  0  0  0  0  0  0  0  0
   -7.8479    0.6166    0.0000 H   0  0  0  0  0  0  0  0  0  0  0  0
   -7.9782    3.2141    0.0000 H   0  0  0  0  0  0  0  0  0  0  0  0
   -6.9316    3.4365    0.0000 H   0  0  0  0  0  0  0  0  0  0  0  0
   -7.1713    3.3856    0.0000 H   0  0  0  0  0  0  0  0  0  0  0  0
   -4.4058    1.3818    0.0000 H   0  0  0  0  0  0  0  0  0  0  0  0
   -4.7774    3.1303    0.0000 H   0  0  0  0  0  0  0  0  0  0  0  0
   -5.2516    3.5767    0.0000 H   0  0  0  0  0  0  0  0  0  0  0  0
   -8.9732    2.1836    0.0000 H   0  0  0  0  0  0  0  0  0  0  0  0
   -2.4975   -1.9022    0.0000 H   0  0  0  0  0  0  0  0  0  0  0  0
   -1.2575   -0.5249    0.0000 H   0  0  0  0  0  0  0  0  0  0  0  0
   -1.4799   -1.5715    0.0000 H   0  0  0  0  0  0  0  0  0  0  0  0
  1 31  1  0  0  0  0
  1 32  1  0  0  0  0
  1 33  1  0  0  0  0
  2  1  1  0  0  0  0
  2  3  1  0  0  0  0
  2 34  1  6  0  0  0
  3  4  1  0  0  0  0
  3 35  1  0  0  0  0
  3 36  1  0  0  0  0
  4  5  1  0  0  0  0
  4 37  1  0  0  0  0
  4 38  1  0  0  0  0
  5  6  1  0  0  0  0
  5  9  1  0  0  0  0
  5 39  1  6  0  0  0
  6  7  1  0  0  0  0
  6  8  1  0  0  0  0
  6 40  1  0  0  0  0
  7 41  1  0  0  0  0
  7 42  1  0  0  0  0
  7 43  1  0  0  0  0
  8 44  1  0  0  0  0
  8 45  1  0  0  0  0
  8 46  1  0  0  0  0
  9 47  1  0  0  0  0
 10  2  1  0  0  0  0
 10 11  1  0  0  0  0
 10 14  1  0  0  0  0
 10 48  1  1  0  0  0
 11 12  1  0  0  0  0
 11 49  1  0  0  0  0
 11 50  1  0  0  0  0
 12 51  1  0  0  0  0
 12 52  1  0  0  0  0
 13 12  1  0  0  0  0
 13 14  1  0  0  0  0
 13 18  1  0  0  0  0
 13 53  1  1  0  0  0
 14 15  1  0  0  0  0
 14 30  1  6  0  0  0
 15 16  1  0  0  0  0
 15 54  1  0  0  0  0
 15 55  1  0  0  0  0
 16 17  1  0  0  0  0
 16 56  1  0  0  0  0
 16 57  1  0  0  0  0
 17 18  1  0  0  0  0
 17 58  1  0  0  0  0
 17 59  1  0  0  0  0
 18 19  2  0  0  0  0
 19 20  1  0  0  0  0
 19 60  1  0  0  0  0
 20 21  2  0  0  0  0
 20 61  1  0  0  0  0
 21 22  1  0  0  0  0
 21 26  1  0  0  0  0
 22 23  1  0  0  0  0
 22 62  1  0  0  0  0
 22 63  1  0  0  0  0
 23 24  1  0  0  0  0
 23 29  1  0  0  0  0
 23 64  1  6  0  0  0
 24 25  1  0  0  0  0
 24 65  1  0  0  0  0
 24 66  1  0  0  0  0
 25 26  1  0  0  0  0
 25 28  1  0  0  0  0
 25 67  1  1  0  0  0
 26 27  2  0  0  0  0
 27 68  1  0  0  0  0
 27 69  1  0  0  0  0
 28 70  1  0  0  0  0
 29 71  1  0  0  0  0
 30 72  1  0  0  0  0
 30 73  1  0  0  0  0
 30 74  1  0  0  0  0
M  END
>  <DRUGBANK_ID>
DB13689

>  <COMMON_NAME>
Tacalcitol

>  <CAS_NUMBER>
57333-96-7

>  <UNII>
C2W72OJ5ZU

>  <SYNONYMS>
Tacalcitol

$$$$
