
 OpenBabel10282417072D

 11 10  0  0  0  0  0  0  0  0999 V2000
    0.8250    1.4289    0.0000 N   0  0  0  0  0  0  0  0  0  0  0  0
    1.2375    0.7145    0.0000 C   0  0  0  0  0  0  0  0  0  0  0  0
    2.0625    0.7145    0.0000 C   0  0  0  0  0  0  0  0  0  0  0  0
    0.8250    0.0000    0.0000 C   0  0  0  0  0  0  0  0  0  0  0  0
    1.2375   -0.7145    0.0000 O   0  0  0  0  0  0  0  0  0  0  0  0
    0.0000    0.0000    0.0000 O   0  0  0  0  0  0  0  0  0  0  0  0
    1.3172    2.2815    0.0000 H   0  0  0  0  0  0  0  0  0  0  0  0
   -0.1595    1.4289    0.0000 H   0  0  0  0  0  0  0  0  0  0  0  0
    2.5785   -0.1792    0.0000 H   0  0  0  0  0  0  0  0  0  0  0  0
    2.5785    1.6082    0.0000 H   0  0  0  0  0  0  0  0  0  0  0  0
    0.7690   -1.5260    0.0000 H   0  0  0  0  0  0  0  0  0  0  0  0
  1  2  1  0  0  0  0
  1  7  1  0  0  0  0
  1  8  1  0  0  0  0
  2  3  2  0  0  0  0
  2  4  1  0  0  0  0
  3  9  1  0  0  0  0
  3 10  1  0  0  0  0
  4  5  1  0  0  0  0
  4  6  2  0  0  0  0
  5 11  1  0  0  0  0
M  END
>  <DRUGBANK_ID>
DB02688

>  <SECONDARY_ACCESSION_NUMBERS>
EXPT01186

>  <COMMON_NAME>
2,3-Didehydroalanine

>  <CAS_NUMBER>
1948-56-7

>  <UNII>
98RA387EKY

$$$$
