
 OpenBabel10282417072D

 79 83  0  0  1  0  0  0  0  0999 V2000
    2.0630   -1.4167    0.0000 C   0  0  0  0  0  0  0  0  0  0  0  0
    2.8390   -1.6970    0.0000 C   0  0  2  0  0  0  0  0  0  0  0  0
    3.5218   -1.2340    0.0000 C   0  0  0  0  0  0  0  0  0  0  0  0
    4.1731   -1.7404    0.0000 C   0  0  1  0  0  0  0  0  0  0  0  0
    4.9853   -1.5952    0.0000 C   0  0  2  0  0  0  0  0  0  0  0  0
    5.2655   -0.8192    0.0000 C   0  0  0  0  0  0  0  0  0  0  0  0
    6.0777   -0.6740    0.0000 C   0  0  1  0  0  0  0  0  0  0  0  0
    6.6095   -1.3047    0.0000 C   0  0  0  0  0  0  0  0  0  0  0  0
    7.4216   -1.1595    0.0000 C   0  0  0  0  0  0  0  0  0  0  0  0
    7.9534   -1.7902    0.0000 C   0  0  0  0  0  0  0  0  0  0  0  0
    8.7655   -1.6450    0.0000 O   0  0  0  0  0  0  0  0  0  0  0  0
    7.6731   -2.5662    0.0000 C   0  0  0  0  0  0  0  0  0  0  0  0
    6.8610   -2.7114    0.0000 C   0  0  0  0  0  0  0  0  0  0  0  0
    6.3292   -2.0807    0.0000 C   0  0  2  0  0  0  0  0  0  0  0  0
    5.5171   -2.2259    0.0000 C   0  0  1  0  0  0  0  0  0  0  0  0
    5.2368   -3.0018    0.0000 C   0  0  2  0  0  0  0  0  0  0  0  0
    4.4247   -3.1470    0.0000 C   0  0  0  0  0  0  0  0  0  0  0  0
    3.8928   -2.5163    0.0000 C   0  0  2  0  0  0  0  0  0  0  0  0
    3.0683   -2.4895    0.0000 C   0  0  1  0  0  0  0  0  0  0  0  0
    2.3074   -2.8084    0.0000 C   0  0  0  0  0  0  0  0  0  0  0  0
    1.6508   -2.3089    0.0000 O   0  0  0  0  0  0  0  0  0  0  0  0
    2.2031   -3.6268    0.0000 O   0  0  0  0  0  0  0  0  0  0  0  0
    1.4422   -3.9456    0.0000 C   0  0  0  0  0  0  0  0  0  0  0  0
    1.3379   -4.7640    0.0000 C   0  0  0  0  0  0  0  0  0  0  0  0
    1.2336   -5.5824    0.0000 N   0  0  0  0  0  0  0  0  0  0  0  0
    2.9469   -3.3055    0.0000 O   0  0  0  0  0  0  0  0  0  0  0  0
    3.5929   -3.8187    0.0000 C   0  0  0  0  0  0  0  0  0  0  0  0
    4.3603   -3.5158    0.0000 O   0  0  0  0  0  0  0  0  0  0  0  0
    3.4715   -4.6347    0.0000 C   0  0  0  0  0  0  0  0  0  0  0  0
    3.7743   -5.4021    0.0000 C   0  0  0  0  0  0  0  0  0  0  0  0
    2.9583   -5.2807    0.0000 C   0  0  0  0  0  0  0  0  0  0  0  0
    2.5034   -5.9689    0.0000 C   0  0  0  0  0  0  0  0  0  0  0  0
    2.1560   -5.0886    0.0000 C   0  0  0  0  0  0  0  0  0  0  0  0
    4.5978   -5.4519    0.0000 C   0  0  0  0  0  0  0  0  0  0  0  0
    4.0092   -6.1929    0.0000 C   0  0  0  0  0  0  0  0  0  0  0  0
    3.5330   -3.2587    0.0000 C   0  0  0  0  0  0  0  0  0  0  0  0
    5.7686   -3.6325    0.0000 O   0  0  0  0  0  0  0  0  0  0  0  0
    6.0489   -2.8566    0.0000 F   0  0  0  0  0  0  0  0  0  0  0  0
    6.5585   -2.8731    0.0000 C   0  0  0  0  0  0  0  0  0  0  0  0
    6.3580    0.1019    0.0000 F   0  0  0  0  0  0  0  0  0  0  0  0
    1.8746   -0.3634    0.0000 H   0  0  0  0  0  0  0  0  0  0  0  0
    1.2450   -2.1065    0.0000 H   0  0  0  0  0  0  0  0  0  0  0  0
    1.0566   -1.0532    0.0000 H   0  0  0  0  0  0  0  0  0  0  0  0
    2.7060   -0.6353    0.0000 H   0  0  0  0  0  0  0  0  0  0  0  0
    3.5566   -0.1646    0.0000 H   0  0  0  0  0  0  0  0  0  0  0  0
    4.4905   -0.7795    0.0000 H   0  0  0  0  0  0  0  0  0  0  0  0
    4.4295   -0.7016    0.0000 H   0  0  0  0  0  0  0  0  0  0  0  0
    4.2955   -0.7772    0.0000 H   0  0  0  0  0  0  0  0  0  0  0  0
    4.5757   -0.0012    0.0000 H   0  0  0  0  0  0  0  0  0  0  0  0
    5.6290    0.1872    0.0000 H   0  0  0  0  0  0  0  0  0  0  0  0
    5.3880    0.1440    0.0000 H   0  0  0  0  0  0  0  0  0  0  0  0
    7.7722   -0.1889    0.0000 H   0  0  0  0  0  0  0  0  0  0  0  0
    8.3384   -3.3552    0.0000 H   0  0  0  0  0  0  0  0  0  0  0  0
    6.5104   -3.6820    0.0000 H   0  0  0  0  0  0  0  0  0  0  0  0
    6.2901   -2.8135    0.0000 H   0  0  0  0  0  0  0  0  0  0  0  0
    4.0612   -4.1534    0.0000 H   0  0  0  0  0  0  0  0  0  0  0  0
    3.3714   -3.3354    0.0000 H   0  0  0  0  0  0  0  0  0  0  0  0
    0.5906   -3.2977    0.0000 H   0  0  0  0  0  0  0  0  0  0  0  0
    0.4553   -4.3591    0.0000 H   0  0  0  0  0  0  0  0  0  0  0  0
    3.3140   -5.6930    0.0000 H   0  0  0  0  0  0  0  0  0  0  0  0
    1.4354   -5.9042    0.0000 H   0  0  0  0  0  0  0  0  0  0  0  0
    2.9814   -6.9262    0.0000 H   0  0  0  0  0  0  0  0  0  0  0  0
    1.9134   -6.8615    0.0000 H   0  0  0  0  0  0  0  0  0  0  0  0
    1.8515   -4.0628    0.0000 H   0  0  0  0  0  0  0  0  0  0  0  0
    1.4199   -5.8652    0.0000 H   0  0  0  0  0  0  0  0  0  0  0  0
    1.1154   -4.8394    0.0000 H   0  0  0  0  0  0  0  0  0  0  0  0
    5.0759   -6.4092    0.0000 H   0  0  0  0  0  0  0  0  0  0  0  0
    5.1878   -4.5592    0.0000 H   0  0  0  0  0  0  0  0  0  0  0  0
    5.6658   -5.5165    0.0000 H   0  0  0  0  0  0  0  0  0  0  0  0
    3.2733   -6.9696    0.0000 H   0  0  0  0  0  0  0  0  0  0  0  0
    5.0498   -6.4419    0.0000 H   0  0  0  0  0  0  0  0  0  0  0  0
    4.3139   -7.2186    0.0000 H   0  0  0  0  0  0  0  0  0  0  0  0
    2.4658   -3.3360    0.0000 H   0  0  0  0  0  0  0  0  0  0  0  0
    4.1336   -4.1443    0.0000 H   0  0  0  0  0  0  0  0  0  0  0  0
    3.0663   -4.2216    0.0000 H   0  0  0  0  0  0  0  0  0  0  0  0
    5.4390   -4.5448    0.0000 H   0  0  0  0  0  0  0  0  0  0  0  0
    5.8171   -3.6446    0.0000 H   0  0  0  0  0  0  0  0  0  0  0  0
    7.5973   -3.1294    0.0000 H   0  0  0  0  0  0  0  0  0  0  0  0
    6.8559   -3.9009    0.0000 H   0  0  0  0  0  0  0  0  0  0  0  0
  1 41  1  0  0  0  0
  1 42  1  0  0  0  0
  1 43  1  0  0  0  0
  2  1  1  0  0  0  0
  2  3  1  0  0  0  0
  2 19  1  0  0  0  0
  2 44  1  1  0  0  0
  3 45  1  0  0  0  0
  3 46  1  0  0  0  0
  4  3  1  0  0  0  0
  4  5  1  0  0  0  0
  4 18  1  0  0  0  0
  4 47  1  6  0  0  0
  5  6  1  0  0  0  0
  5 15  1  0  0  0  0
  5 48  1  1  0  0  0
  6  7  1  0  0  0  0
  6 49  1  0  0  0  0
  6 50  1  0  0  0  0
  7  8  1  0  0  0  0
  7 40  1  0  0  0  0
  7 51  1  1  0  0  0
  8  9  2  0  0  0  0
  8 14  1  0  0  0  0
  9 10  1  0  0  0  0
  9 52  1  0  0  0  0
 10 11  2  0  0  0  0
 10 12  1  0  0  0  0
 12 13  2  0  0  0  0
 12 53  1  0  0  0  0
 13 14  1  0  0  0  0
 13 54  1  0  0  0  0
 14 15  1  0  0  0  0
 14 39  1  1  0  0  0
 15 16  1  0  0  0  0
 15 38  1  6  0  0  0
 16 17  1  0  0  0  0
 16 37  1  0  0  0  0
 16 55  1  6  0  0  0
 17 18  1  0  0  0  0
 17 56  1  0  0  0  0
 17 57  1  0  0  0  0
 18 19  1  0  0  0  0
 18 36  1  1  0  0  0
 19 20  1  1  0  0  0
 19 26  1  0  0  0  0
 20 21  2  0  0  0  0
 20 22  1  0  0  0  0
 22 23  1  0  0  0  0
 23 24  1  0  0  0  0
 23 58  1  0  0  0  0
 23 59  1  0  0  0  0
 24 25  3  0  0  0  0
 26 27  1  0  0  0  0
 27 28  2  0  0  0  0
 27 29  1  0  0  0  0
 29 30  1  0  0  0  0
 29 31  1  0  0  0  0
 29 60  1  0  0  0  0
 30 31  1  0  0  0  0
 30 34  1  0  0  0  0
 30 35  1  0  0  0  0
 31 32  1  0  0  0  0
 31 33  1  0  0  0  0
 32 61  1  0  0  0  0
 32 62  1  0  0  0  0
 32 63  1  0  0  0  0
 33 64  1  0  0  0  0
 33 65  1  0  0  0  0
 33 66  1  0  0  0  0
 34 67  1  0  0  0  0
 34 68  1  0  0  0  0
 34 69  1  0  0  0  0
 35 70  1  0  0  0  0
 35 71  1  0  0  0  0
 35 72  1  0  0  0  0
 36 73  1  0  0  0  0
 36 74  1  0  0  0  0
 36 75  1  0  0  0  0
 37 76  1  0  0  0  0
 39 77  1  0  0  0  0
 39 78  1  0  0  0  0
 39 79  1  0  0  0  0
M  END
>  <DRUGBANK_ID>
DB12322

>  <COMMON_NAME>
GW-870086

>  <CAS_NUMBER>
827319-43-7

>  <UNII>
O891A2A3ZU

$$$$
