900
 OpenBabel10282417072D

 29 31  0  0  1  0  0  0  0  0999 V2000
    3.6321    0.6079    0.0000 O   0  0  0  0  0  0  0  0  0  0  0  0
    4.4177    2.6717    0.0000 O   0  0  0  0  0  0  0  0  0  0  0  0
    2.3645   -3.1584    0.0000 O   0  0  0  0  0  0  0  0  0  0  0  0
    3.8596   -0.8446    0.0000 N   0  0  0  0  0  0  0  0  0  0  0  0
    2.3645   -0.6834    0.0000 N   0  0  0  0  0  0  0  0  0  0  0  0
    3.8596   -2.1724    0.0000 N   0  0  0  0  0  0  0  0  0  0  0  0
    1.6500   -1.9209    0.0000 N   0  0  0  0  0  0  0  0  0  0  0  0
    4.1158   -0.0604    0.0000 C   0  0  1  0  0  0  0  0  0  0  0  0
    4.9009    0.1932    0.0000 C   0  0  0  0  0  0  0  0  0  0  0  0
    4.9024    1.0182    0.0000 C   0  0  0  0  0  0  0  0  0  0  0  0
    4.1182    1.2745    0.0000 C   0  0  1  0  0  0  0  0  0  0  0  0
    3.8646    2.0596    0.0000 C   0  0  0  0  0  0  0  0  0  0  0  0
    3.0790   -1.0959    0.0000 C   0  0  0  0  0  0  0  0  0  0  0  0
    4.3411   -1.5084    0.0000 C   0  0  0  0  0  0  0  0  0  0  0  0
    3.0790   -1.9209    0.0000 C   0  0  0  0  0  0  0  0  0  0  0  0
    2.3645   -2.3334    0.0000 C   0  0  0  0  0  0  0  0  0  0  0  0
    1.6500   -1.0959    0.0000 C   0  0  0  0  0  0  0  0  0  0  0  0
    5.3661    2.4683    0.0000 H   0  0  0  0  0  0  0  0  0  0  0  0
    2.3645    0.3011    0.0000 H   0  0  0  0  0  0  0  0  0  0  0  0
    3.0587   -0.2260    0.0000 H   0  0  0  0  0  0  0  0  0  0  0  0
    5.7654   -0.4373    0.0000 H   0  0  0  0  0  0  0  0  0  0  0  0
    5.8551    0.6773    0.0000 H   0  0  0  0  0  0  0  0  0  0  0  0
    5.7692    1.6456    0.0000 H   0  0  0  0  0  0  0  0  0  0  0  0
    4.7369    2.0753    0.0000 H   0  0  0  0  0  0  0  0  0  0  0  0
    3.0617    1.4437    0.0000 H   0  0  0  0  0  0  0  0  0  0  0  0
    2.8184    2.2839    0.0000 H   0  0  0  0  0  0  0  0  0  0  0  0
    3.1473    1.2657    0.0000 H   0  0  0  0  0  0  0  0  0  0  0  0
    5.3731   -1.5083    0.0000 H   0  0  0  0  0  0  0  0  0  0  0  0
    0.7563   -0.5799    0.0000 H   0  0  0  0  0  0  0  0  0  0  0  0
  1  8  1  0  0  0  0
  1 11  1  0  0  0  0
  2 12  1  0  0  0  0
  2 18  1  0  0  0  0
  3 16  2  0  0  0  0
  4 13  1  0  0  0  0
  4 14  1  0  0  0  0
  5 13  1  0  0  0  0
  5 17  1  0  0  0  0
  5 19  1  0  0  0  0
  6 14  2  0  0  0  0
  6 15  1  0  0  0  0
  7 16  1  0  0  0  0
  7 17  2  0  0  0  0
  8  4  1  0  0  0  0
  8  9  1  0  0  0  0
  8 20  1  1  0  0  0
  9 10  1  0  0  0  0
  9 21  1  0  0  0  0
  9 22  1  0  0  0  0
 10 11  1  0  0  0  0
 10 23  1  0  0  0  0
 10 24  1  0  0  0  0
 11 12  1  0  0  0  0
 11 25  1  1  0  0  0
 12 26  1  0  0  0  0
 12 27  1  0  0  0  0
 13 15  2  0  0  0  0
 14 28  1  0  0  0  0
 15 16  1  0  0  0  0
 17 29  1  0  0  0  0
M  END
>  <DRUGBANK_ID>
DB00900

>  <SECONDARY_ACCESSION_NUMBERS>
APRD00240; DB02392

>  <COMMON_NAME>
Didanosine

>  <CAS_NUMBER>
69655-05-6

>  <UNII>
K3GDH6OH08

>  <SYNONYMS>
2,3-Dideoxyinosine; 9-((2R,5S)-5-(hydroxymethyl)-tetrahydrofuran-2-yl)-1H-purin-6(9H)-one; 9-((2R,5S)-5-Hydroxymethyl-tetrahydro-furan-2-yl)-1,9-dihydro-purin-6-one; 9-((2S,5R)-5-Hydroxymethyl-tetrahydro-furan-2-yl)-9H-purin-6-ol; 9-[(2R,5S)-5-(hydroxymethyl)tetrahydrofuran-2-yl]-1,9-dihydro-6H-purin-6-one; ddI; ddIno; Didanosina; Didanosine; Didanosinum; Dideoxyinosine

$$$$
