
 OpenBabel10282417072D

 51 54  0  0  0  0  0  0  0  0999 V2000
    1.4761    0.2726    0.0000 C   0  0  2  0  0  0  0  0  0  0  0  0
    0.0496   -0.5535    0.0000 C   0  0  0  0  0  0  0  0  0  0  0  0
   -0.6610   -0.9584    0.0000 C   0  0  0  0  0  0  0  0  0  0  0  0
    2.1729    0.7105    0.0000 C   0  0  2  0  0  0  0  0  0  0  0  0
    1.4624   -0.5672    0.0000 C   0  0  2  0  0  0  0  0  0  0  0  0
   -0.6610   -1.8012    0.0000 C   0  0  0  0  0  0  0  0  0  0  0  0
    0.7655   -0.9584    0.0000 C   0  0  2  0  0  0  0  0  0  0  0  0
   -1.3577   -2.2143    0.0000 C   0  0  0  0  0  0  0  0  0  0  0  0
    0.7436    0.6940    0.0000 C   0  0  0  0  0  0  0  0  0  0  0  0
    0.0496    0.2726    0.0000 C   0  0  0  0  0  0  0  0  0  0  0  0
    2.8173    0.2396    0.0000 C   0  0  0  0  0  0  0  0  0  0  0  0
    2.8173   -0.5672    0.0000 C   0  0  0  0  0  0  0  0  0  0  0  0
   -1.3797   -0.5535    0.0000 C   0  0  0  0  0  0  0  0  0  0  0  0
    0.7655   -1.8012    0.0000 C   0  0  0  0  0  0  0  0  0  0  0  0
    1.8231    1.4707    0.0000 C   0  0  0  0  0  0  0  0  0  0  0  0
    0.0661   -2.2143    0.0000 C   0  0  0  0  0  0  0  0  0  0  0  0
   -2.0986   -1.8012    0.0000 C   0  0  0  0  0  0  0  0  0  0  0  0
    2.2969    2.2143    0.0000 O   0  0  0  0  0  0  0  0  0  0  0  0
   -2.8173   -2.2143    0.0000 O   0  0  0  0  0  0  0  0  0  0  0  0
   -2.0986   -0.9584    0.0000 C   0  0  0  0  0  0  0  0  0  0  0  0
    1.4761    1.0933    0.0000 C   0  0  0  0  0  0  0  0  0  0  0  0
    2.4786    1.4954    0.0000 C   0  0  0  0  0  0  0  0  0  0  0  0
    1.0299    1.6029    0.0000 C   0  0  0  0  0  0  0  0  0  0  0  0
    1.4761   -1.3604    0.0000 H   0  0  0  0  0  0  0  0  0  0  0  0
    0.7655   -0.1983    0.0000 H   0  0  0  0  0  0  0  0  0  0  0  0
   -1.3440   -3.2462    0.0000 H   0  0  0  0  0  0  0  0  0  0  0  0
    0.7309    1.7639    0.0000 H   0  0  0  0  0  0  0  0  0  0  0  0
   -0.1920    1.2132    0.0000 H   0  0  0  0  0  0  0  0  0  0  0  0
   -0.8829    0.7973    0.0000 H   0  0  0  0  0  0  0  0  0  0  0  0
    0.0319    1.3425    0.0000 H   0  0  0  0  0  0  0  0  0  0  0  0
    3.7713    0.7241    0.0000 H   0  0  0  0  0  0  0  0  0  0  0  0
    3.7292   -0.3201    0.0000 H   0  0  0  0  0  0  0  0  0  0  0  0
    3.5739   -1.3238    0.0000 H   0  0  0  0  0  0  0  0  0  0  0  0
    3.8059   -0.1577    0.0000 H   0  0  0  0  0  0  0  0  0  0  0  0
   -1.3796    0.5165    0.0000 H   0  0  0  0  0  0  0  0  0  0  0  0
   -2.3035   -0.0135    0.0000 H   0  0  0  0  0  0  0  0  0  0  0  0
    1.6948   -2.3316    0.0000 H   0  0  0  0  0  0  0  0  0  0  0  0
    0.7735   -2.8712    0.0000 H   0  0  0  0  0  0  0  0  0  0  0  0
    0.0751   -3.2843    0.0000 H   0  0  0  0  0  0  0  0  0  0  0  0
   -0.8564   -2.7564    0.0000 H   0  0  0  0  0  0  0  0  0  0  0  0
   -3.0224   -0.4185    0.0000 H   0  0  0  0  0  0  0  0  0  0  0  0
   -2.0900    0.1116    0.0000 H   0  0  0  0  0  0  0  0  0  0  0  0
    2.4027    1.6283    0.0000 H   0  0  0  0  0  0  0  0  0  0  0  0
    0.5495    1.6283    0.0000 H   0  0  0  0  0  0  0  0  0  0  0  0
    1.4761    2.1633    0.0000 H   0  0  0  0  0  0  0  0  0  0  0  0
    3.5362    1.6576    0.0000 H   0  0  0  0  0  0  0  0  0  0  0  0
    1.8093    2.3302    0.0000 H   0  0  0  0  0  0  0  0  0  0  0  0
    2.8669    2.4924    0.0000 H   0  0  0  0  0  0  0  0  0  0  0  0
    0.6545    2.6049    0.0000 H   0  0  0  0  0  0  0  0  0  0  0  0
    0.3498    0.7768    0.0000 H   0  0  0  0  0  0  0  0  0  0  0  0
   -0.0255    1.7788    0.0000 H   0  0  0  0  0  0  0  0  0  0  0  0
  1 21  1  1  0  0  0
  2 10  1  0  0  0  0
  3  2  2  0  0  0  0
  4  1  1  0  0  0  0
  4 15  1  1  0  0  0
  4 22  1  0  0  0  0
  5  1  1  0  0  0  0
  5 24  1  6  0  0  0
  6  3  1  0  0  0  0
  7  5  1  0  0  0  0
  7 25  1  1  0  0  0
  7  2  1  0  0  0  0
  8  6  2  0  0  0  0
  8 17  1  0  0  0  0
  8 26  1  0  0  0  0
  9  1  1  0  0  0  0
  9 27  1  0  0  0  0
  9 28  1  0  0  0  0
 10  9  1  0  0  0  0
 10 29  1  0  0  0  0
 10 30  1  0  0  0  0
 11  4  1  0  0  0  0
 11 31  1  0  0  0  0
 11 32  1  0  0  0  0
 12  5  1  0  0  0  0
 12 11  1  0  0  0  0
 12 33  1  0  0  0  0
 12 34  1  0  0  0  0
 13  3  1  0  0  0  0
 13 35  1  0  0  0  0
 13 36  1  0  0  0  0
 14  7  1  0  0  0  0
 14 37  1  0  0  0  0
 14 38  1  0  0  0  0
 16 14  1  0  0  0  0
 16  6  1  0  0  0  0
 16 39  1  0  0  0  0
 16 40  1  0  0  0  0
 17 20  1  0  0  0  0
 18 15  2  0  0  0  0
 19 17  2  0  0  0  0
 20 13  1  0  0  0  0
 20 41  1  0  0  0  0
 20 42  1  0  0  0  0
 21 43  1  0  0  0  0
 21 44  1  0  0  0  0
 21 45  1  0  0  0  0
 22 46  1  0  0  0  0
 22 47  1  0  0  0  0
 22 48  1  0  0  0  0
 23 15  1  0  0  0  0
 23 49  1  0  0  0  0
 23 50  1  0  0  0  0
 23 51  1  0  0  0  0
M  END
>  <DRUGBANK_ID>
DB13857

>  <COMMON_NAME>
Demegestone

>  <CAS_NUMBER>
10116-22-0

>  <UNII>
6E89AM91SZ

>  <SYNONYMS>
Demegestone

$$$$
