
 OpenBabel10282417072D

 30 31  0  0  0  0  0  0  0  0999 V2000
   -1.4297    0.0000    0.0000 C   0  0  0  0  0  0  0  0  0  0  0  0
   -0.7160    0.4138    0.0000 C   0  0  3  0  0  0  0  0  0  0  0  0
   -2.1450    0.4111    0.0000 C   0  0  0  0  0  0  0  0  0  0  0  0
   -1.4282   -0.8250    0.0000 C   0  0  0  0  0  0  0  0  0  0  0  0
   -0.0007    0.0026    0.0000 C   0  0  0  0  0  0  0  0  0  0  0  0
   -0.7176    1.2388    0.0000 O   0  0  0  0  0  0  0  0  0  0  0  0
   -2.8587   -0.0026    0.0000 C   0  0  0  0  0  0  0  0  0  0  0  0
   -2.1420   -1.2388    0.0000 C   0  0  0  0  0  0  0  0  0  0  0  0
    0.7129    0.4164    0.0000 N   0  0  0  0  0  0  0  0  0  0  0  0
   -2.8572   -0.8277    0.0000 C   0  0  0  0  0  0  0  0  0  0  0  0
    1.4282    0.0052    0.0000 C   0  0  0  0  0  0  0  0  0  0  0  0
    1.4297   -0.8197    0.0000 C   0  0  0  0  0  0  0  0  0  0  0  0
    2.1420    0.4190    0.0000 N   0  0  0  0  0  0  0  0  0  0  0  0
    2.1450   -1.2309    0.0000 C   0  0  0  0  0  0  0  0  0  0  0  0
    2.8572    0.0079    0.0000 C   0  0  0  0  0  0  0  0  0  0  0  0
    2.8587   -0.8171    0.0000 C   0  0  0  0  0  0  0  0  0  0  0  0
   -0.7140   -0.6562    0.0000 H   0  0  0  0  0  0  0  0  0  0  0  0
   -2.1469    1.4431    0.0000 H   0  0  0  0  0  0  0  0  0  0  0  0
   -0.5335   -1.3394    0.0000 H   0  0  0  0  0  0  0  0  0  0  0  0
    0.0013   -1.0674    0.0000 H   0  0  0  0  0  0  0  0  0  0  0  0
    0.9270   -0.5307    0.0000 H   0  0  0  0  0  0  0  0  0  0  0  0
    0.1215    1.7254    0.0000 H   0  0  0  0  0  0  0  0  0  0  0  0
   -3.7534    0.5118    0.0000 H   0  0  0  0  0  0  0  0  0  0  0  0
   -2.1401   -2.2708    0.0000 H   0  0  0  0  0  0  0  0  0  0  0  0
    0.7110    1.4009    0.0000 H   0  0  0  0  0  0  0  0  0  0  0  0
   -3.7500   -1.3454    0.0000 H   0  0  0  0  0  0  0  0  0  0  0  0
    0.5369   -1.3373    0.0000 H   0  0  0  0  0  0  0  0  0  0  0  0
    2.1469   -2.2629    0.0000 H   0  0  0  0  0  0  0  0  0  0  0  0
    3.7500    0.5256    0.0000 H   0  0  0  0  0  0  0  0  0  0  0  0
    3.7534   -1.3315    0.0000 H   0  0  0  0  0  0  0  0  0  0  0  0
  1  2  1  0  0  0  0
  1  3  2  0  0  0  0
  1  4  1  0  0  0  0
  2  5  1  0  0  0  0
  2  6  1  0  0  0  0
  2 17  1  0  0  0  0
  3  7  1  0  0  0  0
  3 18  1  0  0  0  0
  4  8  2  0  0  0  0
  4 19  1  0  0  0  0
  5  9  1  0  0  0  0
  5 20  1  0  0  0  0
  5 21  1  0  0  0  0
  6 22  1  0  0  0  0
  7 10  2  0  0  0  0
  7 23  1  0  0  0  0
  8 10  1  0  0  0  0
  8 24  1  0  0  0  0
  9 11  1  0  0  0  0
  9 25  1  0  0  0  0
 10 26  1  0  0  0  0
 11 12  1  0  0  0  0
 11 13  2  0  0  0  0
 12 14  2  0  0  0  0
 12 27  1  0  0  0  0
 13 15  1  0  0  0  0
 14 16  1  0  0  0  0
 14 28  1  0  0  0  0
 15 16  2  0  0  0  0
 15 29  1  0  0  0  0
 16 30  1  0  0  0  0
M  END
>  <DRUGBANK_ID>
DB13414

>  <COMMON_NAME>
Fenyramidol

>  <CAS_NUMBER>
553-69-5

>  <UNII>
R3V02WL7O3

>  <SYNONYMS>
Feniramidol; Fenyramidol; Fenyramidolum; Phenyramidol

$$$$
