
 OpenBabel10282417072D

 26 28  0  0  0  0  0  0  0  0999 V2000
   -0.0320    0.0000    0.0000 C   0  0  3  0  0  0  0  0  0  0  0  0
   -0.8571    0.0000    0.0000 C   0  0  0  0  0  0  0  0  0  0  0  0
    0.4528   -0.6674    0.0000 C   0  0  0  0  0  0  0  0  0  0  0  0
    0.4528    0.6674    0.0000 N   0  0  0  0  0  0  0  0  0  0  0  0
   -1.2696    0.7145    0.0000 C   0  0  0  0  0  0  0  0  0  0  0  0
   -1.2696   -0.7145    0.0000 C   0  0  0  0  0  0  0  0  0  0  0  0
    1.2375   -0.4124    0.0000 N   0  0  0  0  0  0  0  0  0  0  0  0
    1.2375    0.4125    0.0000 C   0  0  0  0  0  0  0  0  0  0  0  0
   -2.0947    0.7145    0.0000 C   0  0  0  0  0  0  0  0  0  0  0  0
   -2.0947   -0.7145    0.0000 C   0  0  0  0  0  0  0  0  0  0  0  0
    2.0222   -0.6674    0.0000 C   0  0  0  0  0  0  0  0  0  0  0  0
    2.0222    0.6674    0.0000 S   0  0  0  0  0  0  0  0  0  0  0  0
   -2.5072    0.0000    0.0000 C   0  0  0  0  0  0  0  0  0  0  0  0
    2.5072    0.0000    0.0000 C   0  0  0  0  0  0  0  0  0  0  0  0
   -0.5178   -0.9534    0.0000 H   0  0  0  0  0  0  0  0  0  0  0  0
    0.1221   -1.6850    0.0000 H   0  0  0  0  0  0  0  0  0  0  0  0
    1.2094   -1.4240    0.0000 H   0  0  0  0  0  0  0  0  0  0  0  0
   -0.7536    1.6082    0.0000 H   0  0  0  0  0  0  0  0  0  0  0  0
   -0.7536   -1.6082    0.0000 H   0  0  0  0  0  0  0  0  0  0  0  0
   -2.6107    1.6082    0.0000 H   0  0  0  0  0  0  0  0  0  0  0  0
   -2.6107   -1.6082    0.0000 H   0  0  0  0  0  0  0  0  0  0  0  0
    2.3528   -1.6851    0.0000 H   0  0  0  0  0  0  0  0  0  0  0  0
    3.0790   -0.8349    0.0000 H   0  0  0  0  0  0  0  0  0  0  0  0
   -3.5392    0.0000    0.0000 H   0  0  0  0  0  0  0  0  0  0  0  0
    3.5772    0.0000    0.0000 H   0  0  0  0  0  0  0  0  0  0  0  0
    2.9929    0.9534    0.0000 H   0  0  0  0  0  0  0  0  0  0  0  0
  1  2  1  0  0  0  0
  1  3  1  0  0  0  0
  1  4  1  0  0  0  0
  1 15  1  0  0  0  0
  2  5  2  0  0  0  0
  2  6  1  0  0  0  0
  3  7  1  0  0  0  0
  3 16  1  0  0  0  0
  3 17  1  0  0  0  0
  4  8  2  0  0  0  0
  5  9  1  0  0  0  0
  5 18  1  0  0  0  0
  6 10  2  0  0  0  0
  6 19  1  0  0  0  0
  7 11  1  0  0  0  0
  7  8  1  0  0  0  0
  8 12  1  0  0  0  0
  9 13  2  0  0  0  0
  9 20  1  0  0  0  0
 10 13  1  0  0  0  0
 10 21  1  0  0  0  0
 11 14  1  0  0  0  0
 11 22  1  0  0  0  0
 11 23  1  0  0  0  0
 12 14  1  0  0  0  0
 13 24  1  0  0  0  0
 14 25  1  0  0  0  0
 14 26  1  0  0  0  0
M  END
>  <DRUGBANK_ID>
DB16561

>  <COMMON_NAME>
Tetramisole

>  <CAS_NUMBER>
5036-02-2

>  <UNII>
C8M7RFE4NO

>  <SYNONYMS>
Levamisole DL-form; Tetramisol; Tetramisole; Tetramisolum

$$$$
