1207
 OpenBabel10282417072D

 43 44  0  0  0  0  0  0  0  0999 V2000
    6.7925   -2.4198    0.0000 F   0  0  0  0  0  0  0  0  0  0  0  0
    5.6655   -2.1178    0.0000 F   0  0  0  0  0  0  0  0  0  0  0  0
    5.9674   -0.9908    0.0000 F   0  0  0  0  0  0  0  0  0  0  0  0
    6.3799    0.7697    0.0000 O   0  0  0  0  0  0  0  0  0  0  0  0
    2.0930    0.7697    0.0000 O   0  0  0  0  0  0  0  0  0  0  0  0
    2.8075    2.0073    0.0000 O   0  0  0  0  0  0  0  0  0  0  0  0
    7.0944    1.1823    0.0000 N   0  0  0  0  0  0  0  0  0  0  0  0
    9.9524    1.1823    0.0000 N   0  0  0  0  0  0  0  0  0  0  0  0
    4.9509    0.7697    0.0000 C   0  0  0  0  0  0  0  0  0  0  0  0
    4.2365    1.1823    0.0000 C   0  0  0  0  0  0  0  0  0  0  0  0
    5.6655    1.1823    0.0000 C   0  0  0  0  0  0  0  0  0  0  0  0
    3.5220    0.7697    0.0000 C   0  0  0  0  0  0  0  0  0  0  0  0
    7.8089   -0.0553    0.0000 C   0  0  0  0  0  0  0  0  0  0  0  0
    7.8089    0.7697    0.0000 C   0  0  0  0  0  0  0  0  0  0  0  0
    7.0944   -0.4678    0.0000 C   0  0  0  0  0  0  0  0  0  0  0  0
    7.0944   -1.2928    0.0000 C   0  0  0  0  0  0  0  0  0  0  0  0
    8.5234    1.1823    0.0000 C   0  0  0  0  0  0  0  0  0  0  0  0
    8.5234   -0.4678    0.0000 C   0  0  0  0  0  0  0  0  0  0  0  0
    2.8075    1.1823    0.0000 C   0  0  0  0  0  0  0  0  0  0  0  0
    7.8089   -1.7053    0.0000 C   0  0  0  0  0  0  0  0  0  0  0  0
    8.5234   -1.2928    0.0000 C   0  0  0  0  0  0  0  0  0  0  0  0
    6.3799   -1.7053    0.0000 C   0  0  0  0  0  0  0  0  0  0  0  0
    8.5234    2.0073    0.0000 C   0  0  0  0  0  0  0  0  0  0  0  0
    9.2379    0.7697    0.0000 C   0  0  0  0  0  0  0  0  0  0  0  0
    9.2379    2.4198    0.0000 C   0  0  0  0  0  0  0  0  0  0  0  0
    9.9524    2.0073    0.0000 C   0  0  0  0  0  0  0  0  0  0  0  0
    1.2815    1.2381    0.0000 H   0  0  0  0  0  0  0  0  0  0  0  0
    4.9508   -0.3003    0.0000 H   0  0  0  0  0  0  0  0  0  0  0  0
    5.8775    0.2347    0.0000 H   0  0  0  0  0  0  0  0  0  0  0  0
    4.2365    2.2523    0.0000 H   0  0  0  0  0  0  0  0  0  0  0  0
    3.3098    1.7173    0.0000 H   0  0  0  0  0  0  0  0  0  0  0  0
    5.6656    2.2523    0.0000 H   0  0  0  0  0  0  0  0  0  0  0  0
    4.7389    1.7173    0.0000 H   0  0  0  0  0  0  0  0  0  0  0  0
    3.5220   -0.3003    0.0000 H   0  0  0  0  0  0  0  0  0  0  0  0
    2.5953    0.2347    0.0000 H   0  0  0  0  0  0  0  0  0  0  0  0
    6.2007    0.0482    0.0000 H   0  0  0  0  0  0  0  0  0  0  0  0
    9.4171    0.0482    0.0000 H   0  0  0  0  0  0  0  0  0  0  0  0
    7.8089   -2.7373    0.0000 H   0  0  0  0  0  0  0  0  0  0  0  0
    9.4171   -1.8088    0.0000 H   0  0  0  0  0  0  0  0  0  0  0  0
    7.6297    2.5233    0.0000 H   0  0  0  0  0  0  0  0  0  0  0  0
    9.2379   -0.2623    0.0000 H   0  0  0  0  0  0  0  0  0  0  0  0
    9.2379    3.4518    0.0000 H   0  0  0  0  0  0  0  0  0  0  0  0
   10.8461    2.5233    0.0000 H   0  0  0  0  0  0  0  0  0  0  0  0
  1 22  1  0  0  0  0
  2 22  1  0  0  0  0
  3 22  1  0  0  0  0
  4  7  1  0  0  0  0
  4 11  1  0  0  0  0
  5 19  1  0  0  0  0
  5 27  1  0  0  0  0
  6 19  2  0  0  0  0
  7 14  2  0  0  0  0
  8 24  1  0  0  0  0
  8 26  2  0  0  0  0
  9 10  1  0  0  0  0
  9 11  1  0  0  0  0
  9 28  1  0  0  0  0
  9 29  1  0  0  0  0
 10 12  1  0  0  0  0
 10 30  1  0  0  0  0
 10 31  1  0  0  0  0
 11 32  1  0  0  0  0
 11 33  1  0  0  0  0
 12 19  1  0  0  0  0
 12 34  1  0  0  0  0
 12 35  1  0  0  0  0
 13 14  1  0  0  0  0
 13 15  2  0  0  0  0
 13 18  1  0  0  0  0
 14 17  1  0  0  0  0
 15 16  1  0  0  0  0
 15 36  1  0  0  0  0
 16 20  2  0  0  0  0
 16 22  1  0  0  0  0
 17 23  1  0  0  0  0
 17 24  2  0  0  0  0
 18 21  2  0  0  0  0
 18 37  1  0  0  0  0
 20 21  1  0  0  0  0
 20 38  1  0  0  0  0
 21 39  1  0  0  0  0
 23 25  2  0  0  0  0
 23 40  1  0  0  0  0
 24 41  1  0  0  0  0
 25 26  1  0  0  0  0
 25 42  1  0  0  0  0
 26 43  1  0  0  0  0
M  END
>  <DRUGBANK_ID>
DB01207

>  <SECONDARY_ACCESSION_NUMBERS>
APRD00271

>  <COMMON_NAME>
Ridogrel

>  <CAS_NUMBER>
110140-89-1

>  <UNII>
QTS5QOO42O

>  <SYNONYMS>
Ridogrel; Ridogrelum

$$$$
