722
 OpenBabel10282417072D

 60 61  0  0  1  0  0  0  0  0999 V2000
    5.6655    0.7755    0.0000 O   0  0  0  0  0  0  0  0  0  0  0  0
    7.0162    2.7951    0.0000 O   0  0  0  0  0  0  0  0  0  0  0  0
    6.5746    1.4360    0.0000 O   0  0  0  0  0  0  0  0  0  0  0  0
    2.8075    0.7755    0.0000 O   0  0  0  0  0  0  0  0  0  0  0  0
    2.0930   -0.4620    0.0000 O   0  0  0  0  0  0  0  0  0  0  0  0
    4.9509    2.0130    0.0000 N   0  0  0  0  0  0  0  0  0  0  0  0
    4.2365   -0.0495    0.0000 N   0  0  0  0  0  0  0  0  0  0  0  0
    2.0930    3.6631    0.0000 N   0  0  0  0  0  0  0  0  0  0  0  0
    5.6185    2.4980    0.0000 C   0  0  1  0  0  0  0  0  0  0  0  0
    5.3634    3.2826    0.0000 C   0  0  0  0  0  0  0  0  0  0  0  0
    4.2835    2.4980    0.0000 C   0  0  0  0  0  0  0  0  0  0  0  0
    4.5384    3.2826    0.0000 C   0  0  0  0  0  0  0  0  0  0  0  0
    4.2365    0.7755    0.0000 C   0  0  2  0  0  0  0  0  0  0  0  0
    4.9509    1.1880    0.0000 C   0  0  0  0  0  0  0  0  0  0  0  0
    3.5220    1.1880    0.0000 C   0  0  0  0  0  0  0  0  0  0  0  0
    3.5220   -0.4620    0.0000 C   0  0  1  0  0  0  0  0  0  0  0  0
    3.5220    2.0130    0.0000 C   0  0  0  0  0  0  0  0  0  0  0  0
    6.4030    2.2431    0.0000 C   0  0  0  0  0  0  0  0  0  0  0  0
    3.5220   -1.2870    0.0000 C   0  0  0  0  0  0  0  0  0  0  0  0
    2.8075    2.4256    0.0000 C   0  0  0  0  0  0  0  0  0  0  0  0
    2.8075   -1.6995    0.0000 C   0  0  0  0  0  0  0  0  0  0  0  0
    2.8075   -0.0495    0.0000 C   0  0  0  0  0  0  0  0  0  0  0  0
    2.8075    3.2506    0.0000 C   0  0  0  0  0  0  0  0  0  0  0  0
    2.8075   -2.5246    0.0000 C   0  0  0  0  0  0  0  0  0  0  0  0
    3.5220   -2.9371    0.0000 C   0  0  0  0  0  0  0  0  0  0  0  0
    2.0930   -2.9371    0.0000 C   0  0  0  0  0  0  0  0  0  0  0  0
    3.5220   -3.7621    0.0000 C   0  0  0  0  0  0  0  0  0  0  0  0
    2.0930   -3.7621    0.0000 C   0  0  0  0  0  0  0  0  0  0  0  0
    2.8075   -4.1746    0.0000 C   0  0  0  0  0  0  0  0  0  0  0  0
    7.9073    2.5054    0.0000 H   0  0  0  0  0  0  0  0  0  0  0  0
    3.6190    1.2440    0.0000 H   0  0  0  0  0  0  0  0  0  0  0  0
    5.1198   -0.5595    0.0000 H   0  0  0  0  0  0  0  0  0  0  0  0
    2.0930    4.6831    0.0000 H   0  0  0  0  0  0  0  0  0  0  0  0
    1.2097    3.1531    0.0000 H   0  0  0  0  0  0  0  0  0  0  0  0
    5.7859    1.4412    0.0000 H   0  0  0  0  0  0  0  0  0  0  0  0
    5.9922    4.1483    0.0000 H   0  0  0  0  0  0  0  0  0  0  0  0
    4.8776    4.2360    0.0000 H   0  0  0  0  0  0  0  0  0  0  0  0
    3.2659    2.1674    0.0000 H   0  0  0  0  0  0  0  0  0  0  0  0
    3.5269    3.2546    0.0000 H   0  0  0  0  0  0  0  0  0  0  0  0
    3.9095    4.1482    0.0000 H   0  0  0  0  0  0  0  0  0  0  0  0
    3.4816    3.1152    0.0000 H   0  0  0  0  0  0  0  0  0  0  0  0
    5.1632    0.2405    0.0000 H   0  0  0  0  0  0  0  0  0  0  0  0
    2.5954    0.6530    0.0000 H   0  0  0  0  0  0  0  0  0  0  0  0
    2.5954    1.7230    0.0000 H   0  0  0  0  0  0  0  0  0  0  0  0
    4.4486   -0.9970    0.0000 H   0  0  0  0  0  0  0  0  0  0  0  0
    4.4487    2.5480    0.0000 H   0  0  0  0  0  0  0  0  0  0  0  0
    3.5221    3.0830    0.0000 H   0  0  0  0  0  0  0  0  0  0  0  0
    4.4486   -1.8220    0.0000 H   0  0  0  0  0  0  0  0  0  0  0  0
    3.5220   -2.3570    0.0000 H   0  0  0  0  0  0  0  0  0  0  0  0
    1.8808    1.8906    0.0000 H   0  0  0  0  0  0  0  0  0  0  0  0
    1.8809    2.9606    0.0000 H   0  0  0  0  0  0  0  0  0  0  0  0
    1.8809   -1.1645    0.0000 H   0  0  0  0  0  0  0  0  0  0  0  0
    1.8809   -2.2345    0.0000 H   0  0  0  0  0  0  0  0  0  0  0  0
    3.7341    3.7856    0.0000 H   0  0  0  0  0  0  0  0  0  0  0  0
    3.7341    2.7156    0.0000 H   0  0  0  0  0  0  0  0  0  0  0  0
    4.4157   -2.4211    0.0000 H   0  0  0  0  0  0  0  0  0  0  0  0
    1.1993   -2.4211    0.0000 H   0  0  0  0  0  0  0  0  0  0  0  0
    4.4157   -4.2781    0.0000 H   0  0  0  0  0  0  0  0  0  0  0  0
    1.1993   -4.2781    0.0000 H   0  0  0  0  0  0  0  0  0  0  0  0
    2.8075   -5.2066    0.0000 H   0  0  0  0  0  0  0  0  0  0  0  0
  1 14  2  0  0  0  0
  2 18  1  0  0  0  0
  2 30  1  0  0  0  0
  3 18  2  0  0  0  0
  4 22  1  0  0  0  0
  4 31  1  0  0  0  0
  5 22  2  0  0  0  0
  6  9  1  0  0  0  0
  6 11  1  0  0  0  0
  6 14  1  0  0  0  0
  7 32  1  0  0  0  0
  8 23  1  0  0  0  0
  8 33  1  0  0  0  0
  8 34  1  0  0  0  0
  9 10  1  0  0  0  0
  9 18  1  0  0  0  0
  9 35  1  6  0  0  0
 10 12  1  0  0  0  0
 10 36  1  0  0  0  0
 10 37  1  0  0  0  0
 11 12  1  0  0  0  0
 11 38  1  0  0  0  0
 11 39  1  0  0  0  0
 12 40  1  0  0  0  0
 12 41  1  0  0  0  0
 13  7  1  0  0  0  0
 13 14  1  0  0  0  0
 13 15  1  0  0  0  0
 13 42  1  6  0  0  0
 15 17  1  0  0  0  0
 15 43  1  0  0  0  0
 15 44  1  0  0  0  0
 16  7  1  0  0  0  0
 16 19  1  0  0  0  0
 16 22  1  0  0  0  0
 16 45  1  6  0  0  0
 17 20  1  0  0  0  0
 17 46  1  0  0  0  0
 17 47  1  0  0  0  0
 19 21  1  0  0  0  0
 19 48  1  0  0  0  0
 19 49  1  0  0  0  0
 20 23  1  0  0  0  0
 20 50  1  0  0  0  0
 20 51  1  0  0  0  0
 21 24  1  0  0  0  0
 21 52  1  0  0  0  0
 21 53  1  0  0  0  0
 23 54  1  0  0  0  0
 23 55  1  0  0  0  0
 24 25  2  0  0  0  0
 24 26  1  0  0  0  0
 25 27  1  0  0  0  0
 25 56  1  0  0  0  0
 26 28  2  0  0  0  0
 26 57  1  0  0  0  0
 27 29  2  0  0  0  0
 27 58  1  0  0  0  0
 28 29  1  0  0  0  0
 28 59  1  0  0  0  0
 29 60  1  0  0  0  0
M  END
>  <DRUGBANK_ID>
DB00722

>  <SECONDARY_ACCESSION_NUMBERS>
APRD00560

>  <COMMON_NAME>
Lisinopril

>  <CAS_NUMBER>
76547-98-3

>  <UNII>
7Q3P4BS2FD

>  <SYNONYMS>
(S)-1-(N(2)-(1-Carboxy-3-phenylpropyl)-L-lysyl)-L-proline; [N2-[(S)-1-carboxy-3-phenylpropyl]-L-lysyl-L-proline; Lisinopril; Lisinopril anhydrous; Lisinoprilum

$$$$
