
 OpenBabel10282417072D

 42 44  0  0  0  0  0  0  0  0999 V2000
   -1.0564   -2.7508    0.0000 N   0  0  0  0  0  0  0  0  0  0  0  0
   -1.5413   -2.0834    0.0000 C   0  0  0  0  0  0  0  0  0  0  0  0
   -1.0564   -1.4159    0.0000 C   0  0  0  0  0  0  0  0  0  0  0  0
   -0.2717   -1.6708    0.0000 C   0  0  0  0  0  0  0  0  0  0  0  0
    0.4426   -1.2583    0.0000 C   0  0  0  0  0  0  0  0  0  0  0  0
    1.1571   -1.6708    0.0000 C   0  0  0  0  0  0  0  0  0  0  0  0
    1.1571   -2.4958    0.0000 C   0  0  0  0  0  0  0  0  0  0  0  0
    0.4427   -2.9083    0.0000 C   0  0  0  0  0  0  0  0  0  0  0  0
   -0.2717   -2.4959    0.0000 C   0  0  0  0  0  0  0  0  0  0  0  0
    0.4426   -0.4333    0.0000 O   0  0  0  0  0  0  0  0  0  0  0  0
    0.4427   -3.7333    0.0000 O   0  0  0  0  0  0  0  0  0  0  0  0
   -1.3113   -0.6313    0.0000 C   0  0  0  0  0  0  0  0  0  0  0  0
   -0.7593   -0.0182    0.0000 O   0  0  0  0  0  0  0  0  0  0  0  0
   -1.0142    0.7663    0.0000 C   0  0  0  0  0  0  0  0  0  0  0  0
   -1.8212    0.9379    0.0000 C   0  0  0  0  0  0  0  0  0  0  0  0
   -2.0762    1.7225    0.0000 C   0  0  0  0  0  0  0  0  0  0  0  0
   -1.5241    2.3356    0.0000 C   0  0  0  0  0  0  0  0  0  0  0  0
   -0.7172    2.1641    0.0000 C   0  0  0  0  0  0  0  0  0  0  0  0
   -0.4622    1.3795    0.0000 C   0  0  0  0  0  0  0  0  0  0  0  0
   -1.7791    3.1202    0.0000 N   0  3  0  0  0  0  0  0  0  0  0  0
   -1.2271    3.7333    0.0000 O   0  0  0  0  0  0  0  0  0  0  0  0
   -2.5861    3.2917    0.0000 O   0  5  0  0  0  0  0  0  0  0  0  0
   -2.3663   -2.0834    0.0000 C   0  0  0  0  0  0  0  0  0  0  0  0
   -1.3113   -3.5354    0.0000 C   0  0  0  0  0  0  0  0  0  0  0  0
    1.8716   -1.2583    0.0000 O   0  0  0  0  0  0  0  0  0  0  0  0
    2.5861   -1.6708    0.0000 C   0  0  0  0  0  0  0  0  0  0  0  0
    2.0508   -3.0118    0.0000 H   0  0  0  0  0  0  0  0  0  0  0  0
   -2.3579   -0.4088    0.0000 H   0  0  0  0  0  0  0  0  0  0  0  0
   -2.0273   -1.4265    0.0000 H   0  0  0  0  0  0  0  0  0  0  0  0
   -2.5117    0.1710    0.0000 H   0  0  0  0  0  0  0  0  0  0  0  0
   -3.0857    1.9371    0.0000 H   0  0  0  0  0  0  0  0  0  0  0  0
   -0.0267    2.9311    0.0000 H   0  0  0  0  0  0  0  0  0  0  0  0
    0.5473    1.1650    0.0000 H   0  0  0  0  0  0  0  0  0  0  0  0
   -2.9013   -1.1568    0.0000 H   0  0  0  0  0  0  0  0  0  0  0  0
   -2.9013   -3.0100    0.0000 H   0  0  0  0  0  0  0  0  0  0  0  0
   -3.4363   -2.0834    0.0000 H   0  0  0  0  0  0  0  0  0  0  0  0
   -2.3579   -3.7579    0.0000 H   0  0  0  0  0  0  0  0  0  0  0  0
   -0.5953   -4.3305    0.0000 H   0  0  0  0  0  0  0  0  0  0  0  0
   -1.6419   -4.5530    0.0000 H   0  0  0  0  0  0  0  0  0  0  0  0
    2.5861   -2.7408    0.0000 H   0  0  0  0  0  0  0  0  0  0  0  0
    3.5127   -1.1358    0.0000 H   0  0  0  0  0  0  0  0  0  0  0  0
    3.5128   -2.2058    0.0000 H   0  0  0  0  0  0  0  0  0  0  0  0
  1  2  1  0  0  0  0
  1  9  1  0  0  0  0
  1 24  1  0  0  0  0
  2  3  2  0  0  0  0
  2 23  1  0  0  0  0
  3  4  1  0  0  0  0
  3 12  1  0  0  0  0
  4  5  1  0  0  0  0
  4  9  2  0  0  0  0
  5  6  1  0  0  0  0
  5 10  2  0  0  0  0
  6  7  2  0  0  0  0
  6 25  1  0  0  0  0
  7  8  1  0  0  0  0
  7 27  1  0  0  0  0
  8  9  1  0  0  0  0
  8 11  2  0  0  0  0
 12 13  1  0  0  0  0
 12 28  1  0  0  0  0
 12 29  1  0  0  0  0
 13 14  1  0  0  0  0
 14 15  1  0  0  0  0
 14 19  2  0  0  0  0
 15 16  2  0  0  0  0
 15 30  1  0  0  0  0
 16 17  1  0  0  0  0
 16 31  1  0  0  0  0
 17 18  2  0  0  0  0
 17 20  1  0  0  0  0
 18 19  1  0  0  0  0
 18 32  1  0  0  0  0
 19 33  1  0  0  0  0
 20 21  2  0  0  0  0
 20 22  1  0  0  0  0
 23 34  1  0  0  0  0
 23 35  1  0  0  0  0
 23 36  1  0  0  0  0
 24 37  1  0  0  0  0
 24 38  1  0  0  0  0
 24 39  1  0  0  0  0
 25 26  1  0  0  0  0
 26 40  1  0  0  0  0
 26 41  1  0  0  0  0
 26 42  1  0  0  0  0
M  CHG  2  20   1  22  -1
M  END
>  <DRUGBANK_ID>
DB02400

>  <SECONDARY_ACCESSION_NUMBERS>
EXPT00341

>  <COMMON_NAME>
ES-936

>  <CAS_NUMBER>
192820-78-3

>  <UNII>
1XI90I177M

$$$$
