
 OpenBabel10282417072D

 24 24  0  0  1  0  0  0  0  0999 V2000
    0.0059   -1.5764    0.0000 O   0  0  0  0  0  0  0  0  0  0  0  0
   -0.3297   -0.8227    0.0000 C   0  0  0  0  0  0  0  0  0  0  0  0
    0.1553   -0.1553    0.0000 C   0  0  2  0  0  0  0  0  0  0  0  0
   -0.0997    0.6294    0.0000 O   0  0  0  0  0  0  0  0  0  0  0  0
    0.5678    1.1143    0.0000 C   0  0  1  0  0  0  0  0  0  0  0  0
    0.0157    1.7274    0.0000 O   0  0  0  0  0  0  0  0  0  0  0  0
    1.1198    1.7274    0.0000 C   0  0  0  0  0  0  0  0  0  0  0  0
    0.8649    2.5120    0.0000 O   0  0  0  0  0  0  0  0  0  0  0  0
    1.2352    0.6294    0.0000 C   0  0  2  0  0  0  0  0  0  0  0  0
    2.0198    0.8843    0.0000 O   0  0  0  0  0  0  0  0  0  0  0  0
    0.9803   -0.1553    0.0000 C   0  0  1  0  0  0  0  0  0  0  0  0
    1.4652   -0.8227    0.0000 O   0  0  0  0  0  0  0  0  0  0  0  0
   -0.5642   -2.3612    0.0000 H   0  0  0  0  0  0  0  0  0  0  0  0
   -1.3938   -0.7108    0.0000 H   0  0  0  0  0  0  0  0  0  0  0  0
   -0.7648    0.1548    0.0000 H   0  0  0  0  0  0  0  0  0  0  0  0
   -0.9015    0.0121    0.0000 H   0  0  0  0  0  0  0  0  0  0  0  0
    0.3154    2.6499    0.0000 H   0  0  0  0  0  0  0  0  0  0  0  0
    2.1664    1.5049    0.0000 H   0  0  0  0  0  0  0  0  0  0  0  0
    1.8358    2.5226    0.0000 H   0  0  0  0  0  0  0  0  0  0  0  0
    1.5140    3.2328    0.0000 H   0  0  0  0  0  0  0  0  0  0  0  0
    1.4026    1.6862    0.0000 H   0  0  0  0  0  0  0  0  0  0  0  0
    2.7406    0.2352    0.0000 H   0  0  0  0  0  0  0  0  0  0  0  0
    2.0371    0.0121    0.0000 H   0  0  0  0  0  0  0  0  0  0  0  0
    1.0707   -1.7088    0.0000 H   0  0  0  0  0  0  0  0  0  0  0  0
  1  2  1  0  0  0  0
  1 13  1  0  0  0  0
  2 14  1  0  0  0  0
  2 15  1  0  0  0  0
  3  2  1  0  0  0  0
  3  4  1  0  0  0  0
  3 11  1  0  0  0  0
  3 16  1  1  0  0  0
  4  5  1  0  0  0  0
  5  6  1  6  0  0  0
  5  7  1  0  0  0  0
  5  9  1  0  0  0  0
  6 17  1  0  0  0  0
  7  8  1  0  0  0  0
  7 18  1  0  0  0  0
  7 19  1  0  0  0  0
  8 20  1  0  0  0  0
  9 10  1  0  0  0  0
  9 11  1  0  0  0  0
  9 21  1  1  0  0  0
 10 22  1  0  0  0  0
 11 12  1  0  0  0  0
 11 23  1  6  0  0  0
 12 24  1  0  0  0  0
M  END
>  <DRUGBANK_ID>
DB04173

>  <SECONDARY_ACCESSION_NUMBERS>
EXPT01495

>  <COMMON_NAME>
Fructose

>  <UNII>
WR469VI1J3

$$$$
