
 OpenBabel10282417072D

 45 47  0  0  0  0  0  0  0  0999 V2000
   -2.1189    0.2977    0.0000 O   0  0  0  0  0  0  0  0  0  0  0  0
   -1.4012   -0.1172    0.0000 C   0  0  0  0  0  0  0  0  0  0  0  0
   -1.4012   -0.9423    0.0000 N   0  0  0  0  0  0  0  0  0  0  0  0
   -0.6883    0.2977    0.0000 C   0  0  0  0  0  0  0  0  0  0  0  0
   -1.0985    1.0106    0.0000 C   0  0  0  0  0  0  0  0  0  0  0  0
   -0.6883    1.7283    0.0000 C   0  0  0  0  0  0  0  0  0  0  0  0
   -1.0985    2.4410    0.0000 C   0  0  0  0  0  0  0  0  0  0  0  0
   -1.9235    2.4410    0.0000 C   0  0  0  0  0  0  0  0  0  0  0  0
   -2.3385    1.7283    0.0000 C   0  0  0  0  0  0  0  0  0  0  0  0
   -1.9235    1.0106    0.0000 C   0  0  0  0  0  0  0  0  0  0  0  0
    0.0292    0.7079    0.0000 C   0  0  0  0  0  0  0  0  0  0  0  0
    0.7421    0.2977    0.0000 C   0  0  0  0  0  0  0  0  0  0  0  0
    1.4598    0.7079    0.0000 C   0  0  0  0  0  0  0  0  0  0  0  0
    1.4598    1.5329    0.0000 C   0  0  0  0  0  0  0  0  0  0  0  0
    0.7421    1.9479    0.0000 C   0  0  0  0  0  0  0  0  0  0  0  0
    0.0292    1.5329    0.0000 C   0  0  0  0  0  0  0  0  0  0  0  0
   -0.2733   -0.4198    0.0000 C   0  0  0  0  0  0  0  0  0  0  0  0
    0.5517   -0.4198    0.0000 C   0  0  0  0  0  0  0  0  0  0  0  0
    0.9666   -1.1327    0.0000 N   0  0  0  0  0  0  0  0  0  0  0  0
    0.6298   -1.8894    0.0000 C   0  0  0  0  0  0  0  0  0  0  0  0
    1.2400   -2.4410    0.0000 C   0  0  0  0  0  0  0  0  0  0  0  0
    1.9578   -2.0260    0.0000 N   0  0  0  0  0  0  0  0  0  0  0  0
    1.7869   -1.2205    0.0000 C   0  0  0  0  0  0  0  0  0  0  0  0
    2.3385   -0.6053    0.0000 C   0  0  0  0  0  0  0  0  0  0  0  0
   -2.2538   -1.4346    0.0000 H   0  0  0  0  0  0  0  0  0  0  0  0
   -0.5486   -1.4345    0.0000 H   0  0  0  0  0  0  0  0  0  0  0  0
    0.3437    1.7299    0.0000 H   0  0  0  0  0  0  0  0  0  0  0  0
   -0.5819    3.3344    0.0000 H   0  0  0  0  0  0  0  0  0  0  0  0
   -2.4378    3.3357    0.0000 H   0  0  0  0  0  0  0  0  0  0  0  0
   -3.3705    1.7299    0.0000 H   0  0  0  0  0  0  0  0  0  0  0  0
   -2.4392    0.1167    0.0000 H   0  0  0  0  0  0  0  0  0  0  0  0
    0.7406   -0.7343    0.0000 H   0  0  0  0  0  0  0  0  0  0  0  0
    2.3524    0.1900    0.0000 H   0  0  0  0  0  0  0  0  0  0  0  0
    2.3537    2.0486    0.0000 H   0  0  0  0  0  0  0  0  0  0  0  0
    0.7406    2.9799    0.0000 H   0  0  0  0  0  0  0  0  0  0  0  0
   -0.8655    2.0473    0.0000 H   0  0  0  0  0  0  0  0  0  0  0  0
   -0.8079   -1.3467    0.0000 H   0  0  0  0  0  0  0  0  0  0  0  0
    0.2619   -1.3463    0.0000 H   0  0  0  0  0  0  0  0  0  0  0  0
    1.0851    0.5078    0.0000 H   0  0  0  0  0  0  0  0  0  0  0  0
    1.6217   -0.4170    0.0000 H   0  0  0  0  0  0  0  0  0  0  0  0
   -0.3798   -2.1030    0.0000 H   0  0  0  0  0  0  0  0  0  0  0  0
    1.1314   -3.4673    0.0000 H   0  0  0  0  0  0  0  0  0  0  0  0
    3.3856   -0.8256    0.0000 H   0  0  0  0  0  0  0  0  0  0  0  0
    2.0057    0.4116    0.0000 H   0  0  0  0  0  0  0  0  0  0  0  0
    3.0528    0.1914    0.0000 H   0  0  0  0  0  0  0  0  0  0  0  0
  1  2  2  0  0  0  0
  2  3  1  0  0  0  0
  2  4  1  0  0  0  0
  3 25  1  0  0  0  0
  3 26  1  0  0  0  0
  4  5  1  0  0  0  0
  4 11  1  0  0  0  0
  4 17  1  0  0  0  0
  5  6  2  0  0  0  0
  5 10  1  0  0  0  0
  6  7  1  0  0  0  0
  6 27  1  0  0  0  0
  7  8  2  0  0  0  0
  7 28  1  0  0  0  0
  8  9  1  0  0  0  0
  8 29  1  0  0  0  0
  9 10  2  0  0  0  0
  9 30  1  0  0  0  0
 10 31  1  0  0  0  0
 11 12  2  0  0  0  0
 11 16  1  0  0  0  0
 12 13  1  0  0  0  0
 12 32  1  0  0  0  0
 13 14  2  0  0  0  0
 13 33  1  0  0  0  0
 14 15  1  0  0  0  0
 14 34  1  0  0  0  0
 15 16  2  0  0  0  0
 15 35  1  0  0  0  0
 16 36  1  0  0  0  0
 17 18  1  0  0  0  0
 17 37  1  0  0  0  0
 17 38  1  0  0  0  0
 18 19  1  0  0  0  0
 18 39  1  0  0  0  0
 18 40  1  0  0  0  0
 19 20  1  0  0  0  0
 19 23  1  0  0  0  0
 20 21  2  0  0  0  0
 20 41  1  0  0  0  0
 21 22  1  0  0  0  0
 21 42  1  0  0  0  0
 22 23  2  0  0  0  0
 23 24  1  0  0  0  0
 24 43  1  0  0  0  0
 24 44  1  0  0  0  0
 24 45  1  0  0  0  0
M  END
>  <DRUGBANK_ID>
DB09262

>  <COMMON_NAME>
Imidafenacin

>  <CAS_NUMBER>
170105-16-5

>  <UNII>
XJR8Y07LJO

>  <SYNONYMS>
Imidafenacin

$$$$
