
 OpenBabel10282417072D

 73 76  0  0  0  0  0  0  0  0999 V2000
    3.4894   -0.3182    0.0000 Cl  0  0  0  0  0  0  0  0  0  0  0  0
    2.5773   -0.6576    0.0000 C   0  0  2  0  0  0  0  0  0  0  0  0
    3.1289   -1.2728    0.0000 C   0  0  2  0  0  0  0  0  0  0  0  0
    2.8319    0.1272    0.0000 C   0  0  1  0  0  0  0  0  0  0  0  0
    1.7712   -0.8272    0.0000 C   0  0  2  0  0  0  0  0  0  0  0  0
    2.8743   -2.0576    0.0000 C   0  0  0  0  0  0  0  0  0  0  0  0
    3.9350   -1.1030    0.0000 C   0  0  0  0  0  0  0  0  0  0  0  0
    3.4258   -0.6363    0.0000 C   0  0  0  0  0  0  0  0  0  0  0  0
    3.6380    0.2969    0.0000 O   0  0  0  0  0  0  0  0  0  0  0  0
    2.2804    0.7424    0.0000 C   0  0  0  0  0  0  0  0  0  0  0  0
    1.2197   -0.2121    0.0000 C   0  0  1  0  0  0  0  0  0  0  0  0
    1.5166   -1.6122    0.0000 C   0  0  0  0  0  0  0  0  0  0  0  0
    3.4258   -2.6727    0.0000 C   0  0  0  0  0  0  0  0  0  0  0  0
    2.0682   -2.2273    0.0000 C   0  0  2  0  0  0  0  0  0  0  0  0
    4.4865   -1.7182    0.0000 C   0  0  0  0  0  0  0  0  0  0  0  0
    1.4743    0.5727    0.0000 C   0  0  1  0  0  0  0  0  0  0  0  0
    0.3924   -0.2121    0.0000 C   0  0  0  0  0  0  0  0  0  0  0  0
    4.2319   -2.5031    0.0000 C   0  0  0  0  0  0  0  0  0  0  0  0
    1.8137   -3.0122    0.0000 F   0  0  0  0  0  0  0  0  0  0  0  0
    0.8166    1.0606    0.0000 C   0  0  2  0  0  0  0  0  0  0  0  0
    1.6439    1.3788    0.0000 C   0  0  0  0  0  0  0  0  0  0  0  0
    0.1378    0.5727    0.0000 C   0  0  2  0  0  0  0  0  0  0  0  0
    4.7834   -3.1183    0.0000 O   0  0  0  0  0  0  0  0  0  0  0  0
    0.8166    1.8879    0.0000 C   0  0  0  0  0  0  0  0  0  0  0  0
   -0.6470    0.8272    0.0000 C   0  0  0  0  0  0  0  0  0  0  0  0
    1.5166    2.2910    0.0000 O   0  0  0  0  0  0  0  0  0  0  0  0
    0.1166    2.2910    0.0000 C   0  0  0  0  0  0  0  0  0  0  0  0
   -0.5833    1.8879    0.0000 O   0  0  0  0  0  0  0  0  0  0  0  0
   -1.2833    2.2910    0.0000 C   0  0  0  0  0  0  0  0  0  0  0  0
   -1.2833    3.1183    0.0000 O   0  0  0  0  0  0  0  0  0  0  0  0
   -1.9833    1.8879    0.0000 C   0  0  0  0  0  0  0  0  0  0  0  0
   -2.6834    2.2910    0.0000 C   0  0  0  0  0  0  0  0  0  0  0  0
   -3.3834    1.8879    0.0000 C   0  0  0  0  0  0  0  0  0  0  0  0
   -4.0834    2.2910    0.0000 C   0  0  0  0  0  0  0  0  0  0  0  0
   -4.7834    1.8879    0.0000 C   0  0  0  0  0  0  0  0  0  0  0  0
    3.5473   -0.6685    0.0000 H   0  0  0  0  0  0  0  0  0  0  0  0
    2.4866   -1.6229    0.0000 H   0  0  0  0  0  0  0  0  0  0  0  0
    4.2559   -0.1222    0.0000 H   0  0  0  0  0  0  0  0  0  0  0  0
    4.4917   -0.5432    0.0000 H   0  0  0  0  0  0  0  0  0  0  0  0
    2.8122    0.2403    0.0000 H   0  0  0  0  0  0  0  0  0  0  0  0
    3.8781    0.3334    0.0000 H   0  0  0  0  0  0  0  0  0  0  0  0
    4.2857   -0.4252    0.0000 H   0  0  0  0  0  0  0  0  0  0  0  0
    2.6132    1.7593    0.0000 H   0  0  0  0  0  0  0  0  0  0  0  0
    1.5660    1.5390    0.0000 H   0  0  0  0  0  0  0  0  0  0  0  0
    0.7835   -1.1891    0.0000 H   0  0  0  0  0  0  0  0  0  0  0  0
    0.4698   -1.8339    0.0000 H   0  0  0  0  0  0  0  0  0  0  0  0
    1.1846   -2.6294    0.0000 H   0  0  0  0  0  0  0  0  0  0  0  0
    3.1048   -3.6535    0.0000 H   0  0  0  0  0  0  0  0  0  0  0  0
    2.7836   -3.0229    0.0000 H   0  0  0  0  0  0  0  0  0  0  0  0
    5.4961   -1.5045    0.0000 H   0  0  0  0  0  0  0  0  0  0  0  0
   -0.2367   -1.0776    0.0000 H   0  0  0  0  0  0  0  0  0  0  0  0
   -0.6644   -0.0444    0.0000 H   0  0  0  0  0  0  0  0  0  0  0  0
    1.7724    1.5416    0.0000 H   0  0  0  0  0  0  0  0  0  0  0  0
    2.6608    1.7116    0.0000 H   0  0  0  0  0  0  0  0  0  0  0  0
    0.8473    2.0931    0.0000 H   0  0  0  0  0  0  0  0  0  0  0  0
    1.8642    2.4259    0.0000 H   0  0  0  0  0  0  0  0  0  0  0  0
   -0.6188   -0.1839    0.0000 H   0  0  0  0  0  0  0  0  0  0  0  0
   -0.8701    1.8737    0.0000 H   0  0  0  0  0  0  0  0  0  0  0  0
   -1.4418    0.1108    0.0000 H   0  0  0  0  0  0  0  0  0  0  0  0
   -1.6648    1.1573    0.0000 H   0  0  0  0  0  0  0  0  0  0  0  0
    0.1166    3.3610    0.0000 H   0  0  0  0  0  0  0  0  0  0  0  0
   -0.8098    2.8265    0.0000 H   0  0  0  0  0  0  0  0  0  0  0  0
   -1.9833    0.8179    0.0000 H   0  0  0  0  0  0  0  0  0  0  0  0
   -2.9096    1.3523    0.0000 H   0  0  0  0  0  0  0  0  0  0  0  0
   -2.6834    3.3610    0.0000 H   0  0  0  0  0  0  0  0  0  0  0  0
   -3.6098    2.8265    0.0000 H   0  0  0  0  0  0  0  0  0  0  0  0
   -3.3834    0.8179    0.0000 H   0  0  0  0  0  0  0  0  0  0  0  0
   -4.3097    1.3524    0.0000 H   0  0  0  0  0  0  0  0  0  0  0  0
   -4.0834    3.3610    0.0000 H   0  0  0  0  0  0  0  0  0  0  0  0
   -5.0097    2.8265    0.0000 H   0  0  0  0  0  0  0  0  0  0  0  0
   -5.7094    2.4239    0.0000 H   0  0  0  0  0  0  0  0  0  0  0  0
   -4.7846    0.8179    0.0000 H   0  0  0  0  0  0  0  0  0  0  0  0
   -5.7106    1.3539    0.0000 H   0  0  0  0  0  0  0  0  0  0  0  0
  2  1  1  1  0  0  0
  2  3  1  0  0  0  0
  2  4  1  0  0  0  0
  2  5  1  0  0  0  0
  3  6  1  0  0  0  0
  3  7  1  0  0  0  0
  3  8  1  6  0  0  0
  4  9  1  0  0  0  0
  4 10  1  0  0  0  0
  4 36  1  1  0  0  0
  5 11  1  0  0  0  0
  5 12  1  0  0  0  0
  5 37  1  6  0  0  0
  6 13  2  0  0  0  0
  6 14  1  0  0  0  0
  7 15  2  0  0  0  0
  7 38  1  0  0  0  0
  8 39  1  0  0  0  0
  8 40  1  0  0  0  0
  8 41  1  0  0  0  0
  9 42  1  0  0  0  0
 10 16  1  0  0  0  0
 10 43  1  0  0  0  0
 10 44  1  0  0  0  0
 11 17  1  0  0  0  0
 11 16  1  0  0  0  0
 11 45  1  1  0  0  0
 12 14  1  0  0  0  0
 12 46  1  0  0  0  0
 12 47  1  0  0  0  0
 13 18  1  0  0  0  0
 13 48  1  0  0  0  0
 14 19  1  0  0  0  0
 14 49  1  6  0  0  0
 15 18  1  0  0  0  0
 15 50  1  0  0  0  0
 16 20  1  0  0  0  0
 16 21  1  6  0  0  0
 17 22  1  0  0  0  0
 17 51  1  0  0  0  0
 17 52  1  0  0  0  0
 18 23  2  0  0  0  0
 20 24  1  0  0  0  0
 20 22  1  0  0  0  0
 20 53  1  1  0  0  0
 21 54  1  0  0  0  0
 21 55  1  0  0  0  0
 21 56  1  0  0  0  0
 22 25  1  0  0  0  0
 22 57  1  6  0  0  0
 24 26  2  0  0  0  0
 24 27  1  0  0  0  0
 25 58  1  0  0  0  0
 25 59  1  0  0  0  0
 25 60  1  0  0  0  0
 27 28  1  0  0  0  0
 27 61  1  0  0  0  0
 27 62  1  0  0  0  0
 28 29  1  0  0  0  0
 29 30  2  0  0  0  0
 29 31  1  0  0  0  0
 31 32  1  0  0  0  0
 31 63  1  0  0  0  0
 31 64  1  0  0  0  0
 32 33  1  0  0  0  0
 32 65  1  0  0  0  0
 32 66  1  0  0  0  0
 33 34  1  0  0  0  0
 33 67  1  0  0  0  0
 33 68  1  0  0  0  0
 34 35  1  0  0  0  0
 34 69  1  0  0  0  0
 34 70  1  0  0  0  0
 35 71  1  0  0  0  0
 35 72  1  0  0  0  0
 35 73  1  0  0  0  0
M  END
>  <DRUGBANK_ID>
DB14653

>  <SECONDARY_ACCESSION_NUMBERS>
DBSALT001838

>  <COMMON_NAME>
Clocortolone caproate

>  <CAS_NUMBER>
4891-71-8

>  <UNII>
871M9PSU7T

>  <SYNONYMS>
Clocortolone hexanoate

$$$$
