
 OpenBabel10282417072D

 57 59  0  0  0  0  0  0  0  0999 V2000
   -3.7329    0.0414    0.0000 O   0  0  0  0  0  0  0  0  0  0  0  0
    2.7438    1.3126    0.0000 O   0  0  0  0  0  0  0  0  0  0  0  0
    5.6048    0.4986    0.0000 O   0  0  0  0  0  0  0  0  0  0  0  0
    4.8951   -0.7415    0.0000 O   0  0  0  0  0  0  0  0  0  0  0  0
    5.5952    2.9736    0.0000 O   0  0  0  0  0  0  0  0  0  0  0  0
    4.1663    2.9681    0.0000 O   0  0  0  0  0  0  0  0  0  0  0  0
   -2.2809   -2.4621    0.0000 N   0  0  0  0  0  0  0  0  0  0  0  0
   -3.7329   -2.4335    0.0000 N   0  0  0  0  0  0  0  0  0  0  0  0
   -4.4473   -1.1960    0.0000 N   0  0  0  0  0  0  0  0  0  0  0  0
   -5.1619   -2.4335    0.0000 N   0  0  0  0  0  0  0  0  0  0  0  0
    3.4630    0.0778    0.0000 N   0  0  0  0  0  0  0  0  0  0  0  0
   -1.5334   -1.1789    0.0000 C   0  0  2  0  0  0  0  0  0  0  0  0
   -2.2809   -0.7549    0.0000 C   0  0  0  0  0  0  0  0  0  0  0  0
   -0.8205   -0.7636    0.0000 C   0  0  0  0  0  0  0  0  0  0  0  0
   -1.5334   -2.0382    0.0000 C   0  0  0  0  0  0  0  0  0  0  0  0
   -3.0184   -1.1960    0.0000 C   0  0  0  0  0  0  0  0  0  0  0  0
   -0.1044   -1.1733    0.0000 C   0  0  0  0  0  0  0  0  0  0  0  0
   -3.0184   -2.0210    0.0000 C   0  0  0  0  0  0  0  0  0  0  0  0
    0.6083   -0.7580    0.0000 C   0  0  0  0  0  0  0  0  0  0  0  0
   -3.7329   -0.7835    0.0000 C   0  0  0  0  0  0  0  0  0  0  0  0
   -4.4473   -2.0210    0.0000 C   0  0  0  0  0  0  0  0  0  0  0  0
    0.6051    0.0669    0.0000 C   0  0  0  0  0  0  0  0  0  0  0  0
    1.3244   -1.1678    0.0000 C   0  0  0  0  0  0  0  0  0  0  0  0
    2.0340    0.0723    0.0000 C   0  0  0  0  0  0  0  0  0  0  0  0
    1.3180    0.4821    0.0000 C   0  0  0  0  0  0  0  0  0  0  0  0
    2.0372   -0.7526    0.0000 C   0  0  0  0  0  0  0  0  0  0  0  0
    4.1759    0.4931    0.0000 C   0  0  1  0  0  0  0  0  0  0  0  0
    4.1727    1.3181    0.0000 C   0  0  0  0  0  0  0  0  0  0  0  0
    2.7469    0.4876    0.0000 C   0  0  0  0  0  0  0  0  0  0  0  0
    4.8856    1.7334    0.0000 C   0  0  0  0  0  0  0  0  0  0  0  0
    4.8919    0.0834    0.0000 C   0  0  0  0  0  0  0  0  0  0  0  0
    4.8823    2.5584    0.0000 C   0  0  0  0  0  0  0  0  0  0  0  0
   -2.2868   -2.9736    0.0000 H   0  0  0  0  0  0  0  0  0  0  0  0
   -3.7329   -2.9450    0.0000 H   0  0  0  0  0  0  0  0  0  0  0  0
    3.4650   -0.4336    0.0000 H   0  0  0  0  0  0  0  0  0  0  0  0
   -5.1619   -2.9450    0.0000 H   0  0  0  0  0  0  0  0  0  0  0  0
   -5.6048   -2.1778    0.0000 H   0  0  0  0  0  0  0  0  0  0  0  0
    6.4180    0.0332    0.0000 H   0  0  0  0  0  0  0  0  0  0  0  0
    6.4084    2.5082    0.0000 H   0  0  0  0  0  0  0  0  0  0  0  0
   -1.5396   -0.1089    0.0000 H   0  0  0  0  0  0  0  0  0  0  0  0
   -2.2932    0.3150    0.0000 H   0  0  0  0  0  0  0  0  0  0  0  0
   -3.2147   -0.2324    0.0000 H   0  0  0  0  0  0  0  0  0  0  0  0
   -0.8247    0.3064    0.0000 H   0  0  0  0  0  0  0  0  0  0  0  0
    0.1040   -0.2250    0.0000 H   0  0  0  0  0  0  0  0  0  0  0  0
   -0.6088   -2.5768    0.0000 H   0  0  0  0  0  0  0  0  0  0  0  0
   -0.6057   -1.5050    0.0000 H   0  0  0  0  0  0  0  0  0  0  0  0
   -0.1002   -2.2433    0.0000 H   0  0  0  0  0  0  0  0  0  0  0  0
    0.8244   -1.7046    0.0000 H   0  0  0  0  0  0  0  0  0  0  0  0
   -0.2906    0.5795    0.0000 H   0  0  0  0  0  0  0  0  0  0  0  0
    1.3284   -2.1998    0.0000 H   0  0  0  0  0  0  0  0  0  0  0  0
    1.3141    1.5141    0.0000 H   0  0  0  0  0  0  0  0  0  0  0  0
    2.9329   -1.2651    0.0000 H   0  0  0  0  0  0  0  0  0  0  0  0
    3.2472    1.0245    0.0000 H   0  0  0  0  0  0  0  0  0  0  0  0
    3.2440    1.8495    0.0000 H   0  0  0  0  0  0  0  0  0  0  0  0
    4.1685    2.3881    0.0000 H   0  0  0  0  0  0  0  0  0  0  0  0
    5.8144    1.2021    0.0000 H   0  0  0  0  0  0  0  0  0  0  0  0
    5.8101    2.2721    0.0000 H   0  0  0  0  0  0  0  0  0  0  0  0
  1 20  2  0  0  0  0
  2 29  2  0  0  0  0
  3 31  1  0  0  0  0
  3 38  1  0  0  0  0
  4 31  2  0  0  0  0
  5 32  1  0  0  0  0
  5 39  1  0  0  0  0
  6 32  2  0  0  0  0
  7 15  1  0  0  0  0
  7 18  1  0  0  0  0
  7 33  1  0  0  0  0
  8 18  1  0  0  0  0
  8 21  1  0  0  0  0
  8 34  1  0  0  0  0
  9 20  1  0  0  0  0
  9 21  2  0  0  0  0
 10 21  1  0  0  0  0
 10 36  1  0  0  0  0
 10 37  1  0  0  0  0
 11 29  1  0  0  0  0
 11 35  1  0  0  0  0
 12 13  1  0  0  0  0
 12 14  1  0  0  0  0
 12 15  1  0  0  0  0
 12 40  1  1  0  0  0
 13 16  1  0  0  0  0
 13 41  1  0  0  0  0
 13 42  1  0  0  0  0
 14 17  1  0  0  0  0
 14 43  1  0  0  0  0
 14 44  1  0  0  0  0
 15 45  1  0  0  0  0
 15 46  1  0  0  0  0
 16 18  2  0  0  0  0
 16 20  1  0  0  0  0
 17 19  1  0  0  0  0
 17 47  1  0  0  0  0
 17 48  1  0  0  0  0
 19 22  2  0  0  0  0
 19 23  1  0  0  0  0
 22 25  1  0  0  0  0
 22 49  1  0  0  0  0
 23 26  2  0  0  0  0
 23 50  1  0  0  0  0
 24 25  2  0  0  0  0
 24 26  1  0  0  0  0
 24 29  1  0  0  0  0
 25 51  1  0  0  0  0
 26 52  1  0  0  0  0
 27 11  1  0  0  0  0
 27 28  1  0  0  0  0
 27 31  1  0  0  0  0
 27 53  1  6  0  0  0
 28 30  1  0  0  0  0
 28 54  1  0  0  0  0
 28 55  1  0  0  0  0
 30 32  1  0  0  0  0
 30 56  1  0  0  0  0
 30 57  1  0  0  0  0
M  END
>  <DRUGBANK_ID>
DB04322

>  <SECONDARY_ACCESSION_NUMBERS>
EXPT01990

>  <COMMON_NAME>
LY249543

$$$$
