
 OpenBabel10282417072D

 36 37  0  0  0  0  0  0  0  0999 V2000
    1.8636   -0.3583    0.0000 C   0  0  0  0  0  0  0  0  0  0  0  0
   -1.8519    0.3661    0.0000 C   0  0  0  0  0  0  0  0  0  0  0  0
   -2.6737    0.3738    0.0000 C   0  0  0  0  0  0  0  0  0  0  0  0
   -3.0904   -0.3388    0.0000 C   0  0  0  0  0  0  0  0  0  0  0  0
   -1.4313    1.0749    0.0000 O   0  0  0  0  0  0  0  0  0  0  0  0
    2.2803    0.3622    0.0000 C   0  0  3  0  0  0  0  0  0  0  0  0
    1.8636    1.0749    0.0000 O   0  0  0  0  0  0  0  0  0  0  0  0
    1.0417   -0.3583    0.0000 O   0  0  0  0  0  0  0  0  0  0  0  0
   -1.4429   -0.3505    0.0000 C   0  0  0  0  0  0  0  0  0  0  0  0
   -2.6815   -1.0593    0.0000 C   0  0  0  0  0  0  0  0  0  0  0  0
   -0.6056    1.0749    0.0000 C   0  0  0  0  0  0  0  0  0  0  0  0
    1.0417    1.0749    0.0000 C   0  0  0  0  0  0  0  0  0  0  0  0
   -3.0787    1.0905    0.0000 Cl  0  0  0  0  0  0  0  0  0  0  0  0
    2.2803   -1.0710    0.0000 O   0  0  0  0  0  0  0  0  0  0  0  0
   -1.8519   -1.0593    0.0000 C   0  0  0  0  0  0  0  0  0  0  0  0
   -3.1021   -1.7720    0.0000 Cl  0  0  0  0  0  0  0  0  0  0  0  0
   -0.1967    1.7876    0.0000 C   0  0  0  0  0  0  0  0  0  0  0  0
    0.6250    0.3622    0.0000 C   0  0  0  0  0  0  0  0  0  0  0  0
   -0.1927    0.3622    0.0000 C   0  0  0  0  0  0  0  0  0  0  0  0
    0.6250    1.7876    0.0000 C   0  0  0  0  0  0  0  0  0  0  0  0
    3.1021    0.3622    0.0000 C   0  0  0  0  0  0  0  0  0  0  0  0
    1.8636   -1.7876    0.0000 C   0  0  0  0  0  0  0  0  0  0  0  0
   -4.1224   -0.3321    0.0000 H   0  0  0  0  0  0  0  0  0  0  0  0
    1.2103    0.3597    0.0000 H   0  0  0  0  0  0  0  0  0  0  0  0
   -0.4109   -0.3529    0.0000 H   0  0  0  0  0  0  0  0  0  0  0  0
   -1.3358   -1.9530    0.0000 H   0  0  0  0  0  0  0  0  0  0  0  0
   -0.7139    2.6806    0.0000 H   0  0  0  0  0  0  0  0  0  0  0  0
    1.1385   -0.5329    0.0000 H   0  0  0  0  0  0  0  0  0  0  0  0
   -0.7080   -0.5319    0.0000 H   0  0  0  0  0  0  0  0  0  0  0  0
    1.1385    2.6827    0.0000 H   0  0  0  0  0  0  0  0  0  0  0  0
    3.6371   -0.5644    0.0000 H   0  0  0  0  0  0  0  0  0  0  0  0
    3.6371    1.2888    0.0000 H   0  0  0  0  0  0  0  0  0  0  0  0
    4.1721    0.3622    0.0000 H   0  0  0  0  0  0  0  0  0  0  0  0
    0.7936   -1.7843    0.0000 H   0  0  0  0  0  0  0  0  0  0  0  0
    2.3957   -2.7159    0.0000 H   0  0  0  0  0  0  0  0  0  0  0  0
    1.3257   -2.7126    0.0000 H   0  0  0  0  0  0  0  0  0  0  0  0
  2  5  1  0  0  0  0
  3  2  2  0  0  0  0
  4  3  1  0  0  0  0
  4 10  2  0  0  0  0
  4 23  1  0  0  0  0
  5 11  1  0  0  0  0
  6  1  1  0  0  0  0
  6 24  1  0  0  0  0
  7  6  1  0  0  0  0
  8  1  2  0  0  0  0
  9  2  1  0  0  0  0
  9 25  1  0  0  0  0
 10 15  1  0  0  0  0
 11 17  2  0  0  0  0
 12  7  1  0  0  0  0
 13  3  1  0  0  0  0
 14  1  1  0  0  0  0
 15  9  2  0  0  0  0
 15 26  1  0  0  0  0
 16 10  1  0  0  0  0
 17 20  1  0  0  0  0
 17 27  1  0  0  0  0
 18 12  1  0  0  0  0
 18 28  1  0  0  0  0
 19 18  2  0  0  0  0
 19 11  1  0  0  0  0
 19 29  1  0  0  0  0
 20 12  2  0  0  0  0
 20 30  1  0  0  0  0
 21  6  1  0  0  0  0
 21 31  1  0  0  0  0
 21 32  1  0  0  0  0
 21 33  1  0  0  0  0
 22 14  1  0  0  0  0
 22 34  1  0  0  0  0
 22 35  1  0  0  0  0
 22 36  1  0  0  0  0
M  END
>  <DRUGBANK_ID>
DB13918

>  <COMMON_NAME>
Diclofop-methyl

>  <CAS_NUMBER>
51338-27-3

>  <UNII>
9T8QCB25UO

>  <SYNONYMS>
Dichlorfop-methyl; Diclofop methyl; Diclosan; Hoegrass; Hoelon; Illoxan; Methyldiclofop

$$$$
