
 OpenBabel10282417072D

 42 40  0  0  1  0  0  0  0  0999 V2000
    1.1653    0.6077    0.0000 C   0  0  0  0  0  0  0  0  0  0  0  0
    1.1653   -0.2173    0.0000 C   0  0  0  0  0  0  0  0  0  0  0  0
    0.4508   -0.6298    0.0000 C   0  0  0  0  0  0  0  0  0  0  0  0
   -0.2637   -0.2173    0.0000 C   0  0  0  0  0  0  0  0  0  0  0  0
   -0.2637    0.6077    0.0000 C   0  0  0  0  0  0  0  0  0  0  0  0
    0.4508    1.0202    0.0000 C   0  0  0  0  0  0  0  0  0  0  0  0
    0.4508    1.8452    0.0000 C   0  0  0  0  0  0  0  0  0  0  0  0
   -0.2637    2.2577    0.0000 C   0  0  1  0  0  0  0  0  0  0  0  0
   -0.2637    3.0827    0.0000 C   0  0  0  0  0  0  0  0  0  0  0  0
   -0.9782    3.4952    0.0000 O   0  0  0  0  0  0  0  0  0  0  0  0
    0.4508    3.4952    0.0000 O   0  0  0  0  0  0  0  0  0  0  0  0
   -0.9782    1.8452    0.0000 N   0  0  0  0  0  0  0  0  0  0  0  0
    0.4508   -1.4548    0.0000 N   0  3  0  0  0  0  0  0  0  0  0  0
    0.4508   -2.2798    0.0000 C   0  0  0  0  0  0  0  0  0  0  0  0
   -0.2637   -2.6923    0.0000 C   0  0  0  0  0  0  0  0  0  0  0  0
   -0.2637   -3.5173    0.0000 Cl  0  0  0  0  0  0  0  0  0  0  0  0
   -0.3742   -1.4548    0.0000 C   0  0  0  0  0  0  0  0  0  0  0  0
   -0.7867   -2.1693    0.0000 C   0  0  0  0  0  0  0  0  0  0  0  0
   -1.6117   -2.1693    0.0000 Cl  0  0  0  0  0  0  0  0  0  0  0  0
    1.2758   -1.4548    0.0000 O   0  5  0  0  0  0  0  0  0  0  0  0
    3.2794    0.0000    0.0000 Cl  0  0  0  0  0  0  0  0  0  0  0  0
    0.0000   -5.1673    0.0000 Cl  0  0  0  0  0  0  0  0  0  0  0  0
    2.0590    1.1237    0.0000 H   0  0  0  0  0  0  0  0  0  0  0  0
    2.0590   -0.7333    0.0000 H   0  0  0  0  0  0  0  0  0  0  0  0
   -1.1574   -0.7333    0.0000 H   0  0  0  0  0  0  0  0  0  0  0  0
   -1.1574    1.1237    0.0000 H   0  0  0  0  0  0  0  0  0  0  0  0
    1.3774    2.3802    0.0000 H   0  0  0  0  0  0  0  0  0  0  0  0
    0.4508    2.9152    0.0000 H   0  0  0  0  0  0  0  0  0  0  0  0
   -0.2637    1.1877    0.0000 H   0  0  0  0  0  0  0  0  0  0  0  0
    1.2623    3.0267    0.0000 H   0  0  0  0  0  0  0  0  0  0  0  0
   -1.8615    2.3552    0.0000 H   0  0  0  0  0  0  0  0  0  0  0  0
   -0.9782    0.8252    0.0000 H   0  0  0  0  0  0  0  0  0  0  0  0
    1.3774   -2.8148    0.0000 H   0  0  0  0  0  0  0  0  0  0  0  0
    0.4508   -3.3498    0.0000 H   0  0  0  0  0  0  0  0  0  0  0  0
   -1.1903   -2.1573    0.0000 H   0  0  0  0  0  0  0  0  0  0  0  0
   -1.1903   -3.2273    0.0000 H   0  0  0  0  0  0  0  0  0  0  0  0
   -0.9092   -0.5282    0.0000 H   0  0  0  0  0  0  0  0  0  0  0  0
   -1.4442   -1.4548    0.0000 H   0  0  0  0  0  0  0  0  0  0  0  0
   -0.2517   -3.0959    0.0000 H   0  0  0  0  0  0  0  0  0  0  0  0
   -1.3217   -3.0959    0.0000 H   0  0  0  0  0  0  0  0  0  0  0  0
    4.5074    0.0000    0.0000 H   0  0  0  0  0  0  0  0  0  0  0  0
    1.2280   -5.1673    0.0000 H   0  0  0  0  0  0  0  0  0  0  0  0
  1  2  2  0  0  0  0
  1  6  1  0  0  0  0
  1 23  1  0  0  0  0
  2  3  1  0  0  0  0
  2 24  1  0  0  0  0
  3  4  2  0  0  0  0
  3 13  1  0  0  0  0
  4  5  1  0  0  0  0
  4 25  1  0  0  0  0
  5  6  2  0  0  0  0
  5 26  1  0  0  0  0
  6  7  1  0  0  0  0
  7  8  1  0  0  0  0
  7 27  1  0  0  0  0
  7 28  1  0  0  0  0
  8  9  1  0  0  0  0
  8 12  1  0  0  0  0
  8 29  1  1  0  0  0
  9 10  2  0  0  0  0
  9 11  1  0  0  0  0
 11 30  1  0  0  0  0
 12 31  1  0  0  0  0
 12 32  1  0  0  0  0
 13 14  1  0  0  0  0
 13 17  1  0  0  0  0
 13 20  1  0  0  0  0
 14 15  1  0  0  0  0
 14 33  1  0  0  0  0
 14 34  1  0  0  0  0
 15 16  1  0  0  0  0
 15 35  1  0  0  0  0
 15 36  1  0  0  0  0
 17 18  1  0  0  0  0
 17 37  1  0  0  0  0
 17 38  1  0  0  0  0
 18 19  1  0  0  0  0
 18 39  1  0  0  0  0
 18 40  1  0  0  0  0
 21 41  1  0  0  0  0
 22 42  1  0  0  0  0
M  CHG  2  13   1  20  -1
M  END
>  <DRUGBANK_ID>
DB06082

>  <COMMON_NAME>
PX-478

>  <CAS_NUMBER>
685898-44-6

>  <UNII>
T23U22X160

$$$$
