
 OpenBabel10282417072D

 72 76  0  0  1  0  0  0  0  0999 V2000
    1.5873   -8.9464    0.0000 C   0  0  0  0  0  0  0  0  0  0  0  0
   -0.8336   -9.4610    0.0000 C   0  0  0  0  0  0  0  0  0  0  0  0
   -0.0266   -9.2894    0.0000 C   0  0  0  0  0  0  0  0  0  0  0  0
   -1.3856   -8.8479    0.0000 C   0  0  0  0  0  0  0  0  0  0  0  0
   -0.3237   -7.8917    0.0000 C   0  0  0  0  0  0  0  0  0  0  0  0
   -2.3119   -5.4102    0.0000 C   0  0  0  0  0  0  0  0  0  0  0  0
   -0.5683   -1.4940    0.0000 C   0  0  0  0  0  0  0  0  0  0  0  0
    3.3523    1.1104    0.0000 C   0  0  0  0  0  0  0  0  0  0  0  0
    0.6538    1.5229    0.0000 C   0  0  0  0  0  0  0  0  0  0  0  0
    1.0353   -8.3333    0.0000 C   0  0  0  0  0  0  0  0  0  0  0  0
    0.2283   -8.5048    0.0000 C   0  0  0  0  0  0  0  0  0  0  0  0
   -2.2257   -6.2307    0.0000 C   0  0  2  0  0  0  0  0  0  0  0  0
    0.0992   -1.0091    0.0000 C   0  0  2  0  0  0  0  0  0  0  0  0
    1.9233    1.9354    0.0000 C   0  0  0  0  0  0  0  0  0  0  0  0
   -2.8387   -6.7827    0.0000 C   0  0  2  0  0  0  0  0  0  0  0  0
    0.8838   -1.2640    0.0000 C   0  0  2  0  0  0  0  0  0  0  0  0
   -2.5032   -7.5364    0.0000 C   0  0  2  0  0  0  0  0  0  0  0  0
    1.3687   -0.5966    0.0000 C   0  0  2  0  0  0  0  0  0  0  0  0
    2.6378    2.3479    0.0000 C   0  0  0  0  0  0  0  0  0  0  0  0
    1.9233    1.1104    0.0000 C   0  0  0  0  0  0  0  0  0  0  0  0
   -1.6827   -7.4501    0.0000 C   0  0  2  0  0  0  0  0  0  0  0  0
    0.8838    0.0709    0.0000 C   0  0  2  0  0  0  0  0  0  0  0  0
    2.6378    3.1729    0.0000 N   0  0  0  0  0  0  0  0  0  0  0  0
    3.3523    1.9354    0.0000 N   0  0  0  0  0  0  0  0  0  0  0  0
    2.6378    0.6979    0.0000 N   0  0  0  0  0  0  0  0  0  0  0  0
    1.1387    2.1904    0.0000 N   0  0  0  0  0  0  0  0  0  0  0  0
   -1.1307   -8.0632    0.0000 N   0  3  0  0  0  0  0  0  0  0  0  0
    1.1387    0.8555    0.0000 N   0  0  0  0  0  0  0  0  0  0  0  0
    1.2902   -7.5487    0.0000 O   0  0  0  0  0  0  0  0  0  0  0  0
   -3.6457   -6.6112    0.0000 O   0  0  0  0  0  0  0  0  0  0  0  0
    1.1387   -2.0486    0.0000 O   0  0  0  0  0  0  0  0  0  0  0  0
   -2.9157   -8.2508    0.0000 O   0  0  0  0  0  0  0  0  0  0  0  0
    2.1937   -0.5966    0.0000 O   0  0  0  0  0  0  0  0  0  0  0  0
   -0.9102   -4.0186    0.0000 O   0  0  0  0  0  0  0  0  0  0  0  0
   -2.5512   -4.1910    0.0000 O   0  0  0  0  0  0  0  0  0  0  0  0
   -0.6646   -3.4668    0.0000 O   0  0  0  0  0  0  0  0  0  0  0  0
   -1.6344   -2.1319    0.0000 O   0  5  0  0  0  0  0  0  0  0  0  0
   -1.6444   -4.9253    0.0000 O   0  0  0  0  0  0  0  0  0  0  0  0
   -0.4820   -2.3145    0.0000 O   0  0  0  0  0  0  0  0  0  0  0  0
   -1.5112   -6.6432    0.0000 O   0  0  0  0  0  0  0  0  0  0  0  0
    0.0992   -0.1841    0.0000 O   0  0  0  0  0  0  0  0  0  0  0  0
   -1.8169   -3.2843    0.0000 O   0  0  0  0  0  0  0  0  0  0  0  0
   -1.7307   -4.1048    0.0000 P   0  0  3  0  0  0  0  0  0  0  0  0
   -1.1495   -2.7994    0.0000 P   0  0  3  0  0  0  0  0  0  0  0  0
   -3.0505   -6.2163    0.0000 H   0  0  0  0  0  0  0  0  0  0  0  0
    0.4991   -1.7306    0.0000 H   0  0  0  0  0  0  0  0  0  0  0  0
   -3.3119   -6.1069    0.0000 H   0  0  0  0  0  0  0  0  0  0  0  0
    0.5351   -2.0117    0.0000 H   0  0  0  0  0  0  0  0  0  0  0  0
   -3.3271   -7.4932    0.0000 H   0  0  0  0  0  0  0  0  0  0  0  0
    1.7432   -1.3316    0.0000 H   0  0  0  0  0  0  0  0  0  0  0  0
   -1.9784   -8.2203    0.0000 H   0  0  0  0  0  0  0  0  0  0  0  0
    1.6986    0.1999    0.0000 H   0  0  0  0  0  0  0  0  0  0  0  0
    1.2566   -9.9640    0.0000 H   0  0  0  0  0  0  0  0  0  0  0  0
    2.6339   -8.7240    0.0000 H   0  0  0  0  0  0  0  0  0  0  0  0
    2.3032   -9.7416    0.0000 H   0  0  0  0  0  0  0  0  0  0  0  0
   -1.1525  -10.4425    0.0000 H   0  0  0  0  0  0  0  0  0  0  0  0
    0.6640  -10.0563    0.0000 H   0  0  0  0  0  0  0  0  0  0  0  0
   -2.3950   -9.0625    0.0000 H   0  0  0  0  0  0  0  0  0  0  0  0
   -0.0048   -6.9102    0.0000 H   0  0  0  0  0  0  0  0  0  0  0  0
   -3.2894   -4.9749    0.0000 H   0  0  0  0  0  0  0  0  0  0  0  0
   -2.4237   -4.3461    0.0000 H   0  0  0  0  0  0  0  0  0  0  0  0
   -1.5458   -1.0588    0.0000 H   0  0  0  0  0  0  0  0  0  0  0  0
   -1.4339   -2.1230    0.0000 H   0  0  0  0  0  0  0  0  0  0  0  0
    4.2460    0.5944    0.0000 H   0  0  0  0  0  0  0  0  0  0  0  0
   -0.3782    1.5229    0.0000 H   0  0  0  0  0  0  0  0  0  0  0  0
    3.4904    3.6651    0.0000 H   0  0  0  0  0  0  0  0  0  0  0  0
    1.7852    3.6651    0.0000 H   0  0  0  0  0  0  0  0  0  0  0  0
   -3.9455   -5.6887    0.0000 H   0  0  0  0  0  0  0  0  0  0  0  0
    0.4896   -2.7694    0.0000 H   0  0  0  0  0  0  0  0  0  0  0  0
   -3.8857   -8.2508    0.0000 H   0  0  0  0  0  0  0  0  0  0  0  0
    2.6787   -1.4366    0.0000 H   0  0  0  0  0  0  0  0  0  0  0  0
   -3.1213   -3.4062    0.0000 H   0  0  0  0  0  0  0  0  0  0  0  0
  1 53  1  0  0  0  0
  1 54  1  0  0  0  0
  1 55  1  0  0  0  0
  2 56  1  0  0  0  0
  3  2  2  0  0  0  0
  3 57  1  0  0  0  0
  4  2  1  0  0  0  0
  4 58  1  0  0  0  0
  5 59  1  0  0  0  0
  6 60  1  0  0  0  0
  6 61  1  0  0  0  0
  7 62  1  0  0  0  0
  7 63  1  0  0  0  0
  8 64  1  0  0  0  0
  9 65  1  0  0  0  0
 10  1  1  0  0  0  0
 11  3  1  0  0  0  0
 11  5  2  0  0  0  0
 11 10  1  0  0  0  0
 12  6  1  0  0  0  0
 12 45  1  6  0  0  0
 13  7  1  0  0  0  0
 13 46  1  6  0  0  0
 15 12  1  0  0  0  0
 15 30  1  0  0  0  0
 15 47  1  1  0  0  0
 16 13  1  0  0  0  0
 16 31  1  0  0  0  0
 16 48  1  1  0  0  0
 17 15  1  0  0  0  0
 17 32  1  0  0  0  0
 17 49  1  1  0  0  0
 18 16  1  0  0  0  0
 18 33  1  0  0  0  0
 18 50  1  1  0  0  0
 19 14  2  0  0  0  0
 20 14  1  0  0  0  0
 21 17  1  0  0  0  0
 21 27  1  0  0  0  0
 21 51  1  6  0  0  0
 22 18  1  0  0  0  0
 22 28  1  0  0  0  0
 22 52  1  6  0  0  0
 23 19  1  0  0  0  0
 23 66  1  0  0  0  0
 23 67  1  0  0  0  0
 24  8  2  0  0  0  0
 24 19  1  0  0  0  0
 25  8  1  0  0  0  0
 25 20  2  0  0  0  0
 26  9  2  0  0  0  0
 26 14  1  0  0  0  0
 27  4  2  0  0  0  0
 27  5  1  0  0  0  0
 28  9  1  0  0  0  0
 28 20  1  0  0  0  0
 29 10  2  0  0  0  0
 30 68  1  0  0  0  0
 31 69  1  0  0  0  0
 32 70  1  0  0  0  0
 33 71  1  0  0  0  0
 35 72  1  0  0  0  0
 38  6  1  0  0  0  0
 39  7  1  0  0  0  0
 40 12  1  0  0  0  0
 40 21  1  0  0  0  0
 41 13  1  0  0  0  0
 41 22  1  0  0  0  0
 43 34  2  0  0  0  0
 43 35  1  0  0  0  0
 43 38  1  0  0  0  0
 43 42  1  0  0  0  0
 44 36  2  0  0  0  0
 44 37  1  0  0  0  0
 44 39  1  0  0  0  0
 44 42  1  0  0  0  0
M  CHG  2  27   1  37  -1
M  END
>  <DRUGBANK_ID>
DB03363

>  <SECONDARY_ACCESSION_NUMBERS>
EXPT00368; EXPT02282; DB03969

>  <COMMON_NAME>
3-Acetylpyridine Adenine Dinucleotide

$$$$
