
 OpenBabel10282417072D

 22 21  0  0  0  0  0  0  0  0999 V2000
    1.0717    1.0313    0.0000 O   0  0  0  0  0  0  0  0  0  0  0  0
    1.0717    0.2062    0.0000 C   0  0  0  0  0  0  0  0  0  0  0  0
    1.7863   -0.2062    0.0000 O   0  0  0  0  0  0  0  0  0  0  0  0
    0.3572   -0.2062    0.0000 C   0  0  1  0  0  0  0  0  0  0  0  0
    0.3572   -1.0313    0.0000 N   0  0  0  0  0  0  0  0  0  0  0  0
   -0.3572    0.2062    0.0000 C   0  0  2  0  0  0  0  0  0  0  0  0
   -0.3572    1.0313    0.0000 C   0  0  0  0  0  0  0  0  0  0  0  0
   -1.0718   -0.2062    0.0000 C   0  0  0  0  0  0  0  0  0  0  0  0
   -1.7863    0.2062    0.0000 C   0  0  0  0  0  0  0  0  0  0  0  0
    1.7865   -1.1432    0.0000 H   0  0  0  0  0  0  0  0  0  0  0  0
    1.2838   -0.7413    0.0000 H   0  0  0  0  0  0  0  0  0  0  0  0
   -0.5261   -1.5413    0.0000 H   0  0  0  0  0  0  0  0  0  0  0  0
    1.2405   -1.5413    0.0000 H   0  0  0  0  0  0  0  0  0  0  0  0
    0.5694    0.7412    0.0000 H   0  0  0  0  0  0  0  0  0  0  0  0
    0.5694    1.5663    0.0000 H   0  0  0  0  0  0  0  0  0  0  0  0
   -1.2838    1.5663    0.0000 H   0  0  0  0  0  0  0  0  0  0  0  0
   -0.3572    2.1013    0.0000 H   0  0  0  0  0  0  0  0  0  0  0  0
   -1.0718   -1.2762    0.0000 H   0  0  0  0  0  0  0  0  0  0  0  0
   -1.9984   -0.7412    0.0000 H   0  0  0  0  0  0  0  0  0  0  0  0
   -1.7864    1.2762    0.0000 H   0  0  0  0  0  0  0  0  0  0  0  0
   -2.7129   -0.3289    0.0000 H   0  0  0  0  0  0  0  0  0  0  0  0
   -2.7130    0.7411    0.0000 H   0  0  0  0  0  0  0  0  0  0  0  0
  2  1  2  0  0  0  0
  3  2  1  0  0  0  0
  3 10  1  0  0  0  0
  4  2  1  0  0  0  0
  4  5  1  0  0  0  0
  4 11  1  6  0  0  0
  5 12  1  0  0  0  0
  5 13  1  0  0  0  0
  6  4  1  0  0  0  0
  6  7  1  0  0  0  0
  6 14  1  6  0  0  0
  7 15  1  0  0  0  0
  7 16  1  0  0  0  0
  7 17  1  0  0  0  0
  8  6  1  0  0  0  0
  8 18  1  0  0  0  0
  8 19  1  0  0  0  0
  9  8  1  0  0  0  0
  9 20  1  0  0  0  0
  9 21  1  0  0  0  0
  9 22  1  0  0  0  0
M  END
>  <DRUGBANK_ID>
DB01739

>  <SECONDARY_ACCESSION_NUMBERS>
EXPT01856

>  <COMMON_NAME>
L-alloisoleucine

>  <CAS_NUMBER>
1509-34-8

>  <UNII>
6RNR8XN7S2

>  <SYNONYMS>
(2S,3R)-2-amino-3-methylpentanoic acid; allo-L-isoleucine; Alloisoleucine

$$$$
