
 OpenBabel10282417072D

 65 68  0  0  0  0  0  0  0  0999 V2000
   -2.3639    0.3289    0.0000 N   0  0  0  0  0  0  0  0  0  0  0  0
   -2.6113   -0.4359    0.0000 C   0  0  1  0  0  0  0  0  0  0  0  0
   -1.6414    0.5765    0.0000 C   0  0  0  0  0  0  0  0  0  0  0  0
   -2.8643    1.0412    0.0000 C   0  0  0  0  0  0  0  0  0  0  0  0
   -2.1618   -1.0738    0.0000 C   0  0  1  0  0  0  0  0  0  0  0  0
   -3.4088   -0.6805    0.0000 O   0  0  0  0  0  0  0  0  0  0  0  0
   -1.6471    1.4852    0.0000 C   0  0  0  0  0  0  0  0  0  0  0  0
   -0.9194    0.1512    0.0000 N   0  0  0  0  0  0  0  0  0  0  0  0
   -2.3554    1.7276    0.0000 N   0  0  0  0  0  0  0  0  0  0  0  0
   -2.6408   -1.7334    0.0000 C   0  0  1  0  0  0  0  0  0  0  0  0
   -3.4138   -1.4814    0.0000 C   0  0  1  0  0  0  0  0  0  0  0  0
   -0.9487    1.8927    0.0000 C   0  0  0  0  0  0  0  0  0  0  0  0
   -0.1754    0.5763    0.0000 C   0  0  0  0  0  0  0  0  0  0  0  0
   -4.1137   -1.8784    0.0000 C   0  0  0  0  0  0  0  0  0  0  0  0
   -0.1803    1.4527    0.0000 N   0  0  0  0  0  0  0  0  0  0  0  0
   -0.9552    2.7034    0.0000 N   0  0  0  0  0  0  0  0  0  0  0  0
   -1.3813   -1.0795    0.0000 O   0  0  0  0  0  0  0  0  0  0  0  0
   -2.3863   -2.5183    0.0000 O   0  0  0  0  0  0  0  0  0  0  0  0
   -4.8251   -1.4602    0.0000 N   0  0  0  0  0  0  0  0  0  0  0  0
   -4.1201   -2.7034    0.0000 O   0  0  0  0  0  0  0  0  0  0  0  0
   -5.5428   -1.8673    0.0000 C   0  0  0  0  0  0  0  0  0  0  0  0
   -6.2542   -1.4491    0.0000 C   0  0  0  0  0  0  0  0  0  0  0  0
    0.5394    0.1643    0.0000 C   0  0  0  0  0  0  0  0  0  0  0  0
    1.2505   -0.2472    0.0000 C   0  0  0  0  0  0  0  0  0  0  0  0
    1.9632   -0.6599    0.0000 C   0  0  0  0  0  0  0  0  0  0  0  0
    2.6783   -0.2482    0.0000 C   0  0  1  0  0  0  0  0  0  0  0  0
    3.3900   -0.6657    0.0000 C   0  0  0  0  0  0  0  0  0  0  0  0
    4.1031   -0.2574    0.0000 C   0  0  0  0  0  0  0  0  0  0  0  0
    4.1083    0.5679    0.0000 C   0  0  1  0  0  0  0  0  0  0  0  0
    3.3944    0.9835    0.0000 C   0  0  0  0  0  0  0  0  0  0  0  0
    2.6751    0.5737    0.0000 C   0  0  0  0  0  0  0  0  0  0  0  0
    4.8249    0.9769    0.0000 C   0  0  0  0  0  0  0  0  0  0  0  0
    5.5374    0.5608    0.0000 O   0  0  0  0  0  0  0  0  0  0  0  0
    4.8290    1.8021    0.0000 O   0  0  0  0  0  0  0  0  0  0  0  0
    6.2542    0.9698    0.0000 C   0  0  0  0  0  0  0  0  0  0  0  0
   -1.5534   -0.2755    0.0000 H   0  0  0  0  0  0  0  0  0  0  0  0
   -3.8962    1.0544    0.0000 H   0  0  0  0  0  0  0  0  0  0  0  0
   -1.6657   -0.1258    0.0000 H   0  0  0  0  0  0  0  0  0  0  0  0
   -1.5840   -1.9010    0.0000 H   0  0  0  0  0  0  0  0  0  0  0  0
   -4.3367   -0.9400    0.0000 H   0  0  0  0  0  0  0  0  0  0  0  0
   -0.1066    3.2025    0.0000 H   0  0  0  0  0  0  0  0  0  0  0  0
   -1.8117    3.1888    0.0000 H   0  0  0  0  0  0  0  0  0  0  0  0
   -0.9024   -1.9231    0.0000 H   0  0  0  0  0  0  0  0  0  0  0  0
   -3.0358   -3.2388    0.0000 H   0  0  0  0  0  0  0  0  0  0  0  0
   -4.8175   -0.4757    0.0000 H   0  0  0  0  0  0  0  0  0  0  0  0
   -5.5511   -2.9373    0.0000 H   0  0  0  0  0  0  0  0  0  0  0  0
   -6.4736   -2.3951    0.0000 H   0  0  0  0  0  0  0  0  0  0  0  0
   -6.2458   -0.3791    0.0000 H   0  0  0  0  0  0  0  0  0  0  0  0
   -7.1850   -1.9768    0.0000 H   0  0  0  0  0  0  0  0  0  0  0  0
   -7.1766   -0.9068    0.0000 H   0  0  0  0  0  0  0  0  0  0  0  0
    1.9619   -1.7299    0.0000 H   0  0  0  0  0  0  0  0  0  0  0  0
    2.8892   -1.1960    0.0000 H   0  0  0  0  0  0  0  0  0  0  0  0
    2.6739   -1.3182    0.0000 H   0  0  0  0  0  0  0  0  0  0  0  0
    3.3844   -1.7357    0.0000 H   0  0  0  0  0  0  0  0  0  0  0  0
    4.3143   -1.2048    0.0000 H   0  0  0  0  0  0  0  0  0  0  0  0
    5.0271   -0.7970    0.0000 H   0  0  0  0  0  0  0  0  0  0  0  0
    5.0327    0.2724    0.0000 H   0  0  0  0  0  0  0  0  0  0  0  0
    5.0319    0.0277    0.0000 H   0  0  0  0  0  0  0  0  0  0  0  0
    3.3994    2.0535    0.0000 H   0  0  0  0  0  0  0  0  0  0  0  0
    2.4705    1.5233    0.0000 H   0  0  0  0  0  0  0  0  0  0  0  0
    1.7489    1.1096    0.0000 H   0  0  0  0  0  0  0  0  0  0  0  0
    2.6787    1.6437    0.0000 H   0  0  0  0  0  0  0  0  0  0  0  0
    7.1781    0.4301    0.0000 H   0  0  0  0  0  0  0  0  0  0  0  0
    6.2596    2.0398    0.0000 H   0  0  0  0  0  0  0  0  0  0  0  0
    7.1836    1.5001    0.0000 H   0  0  0  0  0  0  0  0  0  0  0  0
  1  3  1  0  0  0  0
  1  4  1  0  0  0  0
  2  1  1  0  0  0  0
  2  6  1  0  0  0  0
  2 36  1  6  0  0  0
  3  7  2  0  0  0  0
  3  8  1  0  0  0  0
  4  9  2  0  0  0  0
  4 37  1  0  0  0  0
  5 17  1  0  0  0  0
  5  2  1  0  0  0  0
  5 10  1  0  0  0  0
  5 38  1  1  0  0  0
  6 11  1  0  0  0  0
  7 12  1  0  0  0  0
  7  9  1  0  0  0  0
  8 13  2  0  0  0  0
 10 18  1  0  0  0  0
 10 11  1  0  0  0  0
 10 39  1  1  0  0  0
 11 14  1  0  0  0  0
 11 40  1  6  0  0  0
 12 15  2  0  0  0  0
 12 16  1  0  0  0  0
 13 23  1  0  0  0  0
 13 15  1  0  0  0  0
 14 19  1  0  0  0  0
 14 20  2  0  0  0  0
 16 41  1  0  0  0  0
 16 42  1  0  0  0  0
 17 43  1  0  0  0  0
 18 44  1  0  0  0  0
 19 21  1  0  0  0  0
 19 45  1  0  0  0  0
 21 22  1  0  0  0  0
 21 46  1  0  0  0  0
 21 47  1  0  0  0  0
 22 48  1  0  0  0  0
 22 49  1  0  0  0  0
 22 50  1  0  0  0  0
 23 24  3  0  0  0  0
 24 25  1  0  0  0  0
 25 51  1  0  0  0  0
 25 52  1  0  0  0  0
 26 25  1  0  0  0  0
 26 27  1  0  0  0  0
 26 31  1  0  0  0  0
 26 53  1  1  0  0  0
 27 28  1  0  0  0  0
 27 54  1  0  0  0  0
 27 55  1  0  0  0  0
 28 29  1  0  0  0  0
 28 56  1  0  0  0  0
 28 57  1  0  0  0  0
 29 30  1  0  0  0  0
 29 32  1  0  0  0  0
 29 58  1  6  0  0  0
 30 31  1  0  0  0  0
 30 59  1  0  0  0  0
 30 60  1  0  0  0  0
 31 61  1  0  0  0  0
 31 62  1  0  0  0  0
 32 33  1  0  0  0  0
 32 34  2  0  0  0  0
 33 35  1  0  0  0  0
 35 63  1  0  0  0  0
 35 64  1  0  0  0  0
 35 65  1  0  0  0  0
M  END
>  <DRUGBANK_ID>
DB05009

>  <COMMON_NAME>
Apadenoson

>  <CAS_NUMBER>
250386-15-3

>  <UNII>
BTS1Y6777M

>  <SYNONYMS>
Apadenoson

$$$$
