
 OpenBabel10282417072D

107107  0  0  0  0  0  0  0  0999 V2000
    6.2692   -0.2062    0.0000 Fe  0  0  0  0  0  0  0  0  0  0  0  0
   -0.8250   -2.3030    0.0000 O   0  0  0  0  0  0  0  0  0  0  0  0
    1.3184   -0.2405    0.0000 O   0  0  0  0  0  0  0  0  0  0  0  0
   -0.1105   -0.2405    0.0000 O   0  0  0  0  0  0  0  0  0  0  0  0
   -0.7836   -3.3303    0.0000 O   0  0  0  0  0  0  0  0  0  0  0  0
    3.4618    0.1719    0.0000 O   0  0  0  0  0  0  0  0  0  0  0  0
   -4.3973   -1.0655    0.0000 O   0  0  0  0  0  0  0  0  0  0  0  0
    4.1763   -3.5405    0.0000 O   0  0  0  0  0  0  0  0  0  0  0  0
    0.6039    0.9969    0.0000 O   0  0  0  0  0  0  0  0  0  0  0  0
   -0.8250    2.6469    0.0000 O   0  0  0  0  0  0  0  0  0  0  0  0
   -2.9389   -3.6758    0.0000 O   0  0  0  0  0  0  0  0  0  0  0  0
   -5.1117    0.9969    0.0000 O   0  0  0  0  0  0  0  0  0  0  0  0
    2.7473   -5.1905    0.0000 O   0  0  0  0  0  0  0  0  0  0  0  0
    0.6039   -1.4780    0.0000 N   0  0  0  0  0  0  0  0  0  0  0  0
   -1.5394   -1.0655    0.0000 N   0  0  0  0  0  0  0  0  0  0  0  0
    2.7473   -1.0655    0.0000 N   0  0  0  0  0  0  0  0  0  0  0  0
   -0.8250    0.9969    0.0000 N   0  0  0  0  0  0  0  0  0  0  0  0
   -1.5961   -3.1871    0.0000 N   0  0  0  0  0  0  0  0  0  0  0  0
   -4.3973   -0.2405    0.0000 N   0  0  0  0  0  0  0  0  0  0  0  0
    3.4618   -3.9530    0.0000 N   0  0  0  0  0  0  0  0  0  0  0  0
    0.6039    2.6469    0.0000 N   0  0  0  0  0  0  0  0  0  0  0  0
    2.0328    0.9969    0.0000 N   0  0  0  0  0  0  0  0  0  0  0  0
   -0.1105   -1.0655    0.0000 C   0  0  1  0  0  0  0  0  0  0  0  0
   -0.9355   -1.0655    0.0000 C   0  0  0  0  0  0  0  0  0  0  0  0
   -1.5394   -0.2405    0.0000 C   0  0  1  0  0  0  0  0  0  0  0  0
    2.0328   -1.4780    0.0000 C   0  0  1  0  0  0  0  0  0  0  0  0
   -1.3480   -1.7798    0.0000 C   0  0  0  0  0  0  0  0  0  0  0  0
   -2.2539    0.1719    0.0000 C   0  0  0  0  0  0  0  0  0  0  0  0
    2.0328   -2.3030    0.0000 C   0  0  0  0  0  0  0  0  0  0  0  0
   -0.8250   -1.4780    0.0000 C   0  0  0  0  0  0  0  0  0  0  0  0
    1.3184   -1.0655    0.0000 C   0  0  0  0  0  0  0  0  0  0  0  0
   -2.9684   -0.2405    0.0000 C   0  0  0  0  0  0  0  0  0  0  0  0
    2.7473   -2.7155    0.0000 C   0  0  0  0  0  0  0  0  0  0  0  0
   -1.8783   -2.4118    0.0000 C   0  0  0  0  0  0  0  0  0  0  0  0
   -0.8250    0.1719    0.0000 C   0  0  0  0  0  0  0  0  0  0  0  0
   -3.6828    0.1719    0.0000 C   0  0  0  0  0  0  0  0  0  0  0  0
    2.7473   -3.5405    0.0000 C   0  0  0  0  0  0  0  0  0  0  0  0
    2.7473   -0.2405    0.0000 C   0  0  0  0  0  0  0  0  0  0  0  0
    1.3184    2.2344    0.0000 C   0  0  2  0  0  0  0  0  0  0  0  0
   -0.1105    1.4094    0.0000 C   0  0  0  0  0  0  0  0  0  0  0  0
    2.0328    0.1719    0.0000 C   0  0  0  0  0  0  0  0  0  0  0  0
    2.0328    2.6469    0.0000 C   0  0  0  0  0  0  0  0  0  0  0  0
    1.3184    1.4094    0.0000 C   0  0  0  0  0  0  0  0  0  0  0  0
   -0.1105    2.2344    0.0000 C   0  0  0  0  0  0  0  0  0  0  0  0
   -2.1265   -3.8191    0.0000 C   0  0  0  0  0  0  0  0  0  0  0  0
    2.0328    3.4719    0.0000 C   0  0  0  0  0  0  0  0  0  0  0  0
   -5.1117    0.1719    0.0000 C   0  0  0  0  0  0  0  0  0  0  0  0
    3.4618   -4.7780    0.0000 C   0  0  0  0  0  0  0  0  0  0  0  0
   -1.8442   -4.5943    0.0000 C   0  0  0  0  0  0  0  0  0  0  0  0
    2.7473    3.8844    0.0000 C   0  0  0  0  0  0  0  0  0  0  0  0
    1.3184    3.8844    0.0000 C   0  0  0  0  0  0  0  0  0  0  0  0
   -5.8263   -0.2405    0.0000 C   0  0  0  0  0  0  0  0  0  0  0  0
    4.1763   -5.1905    0.0000 C   0  0  0  0  0  0  0  0  0  0  0  0
    2.7473    4.7094    0.0000 C   0  0  0  0  0  0  0  0  0  0  0  0
    1.3184    4.7094    0.0000 C   0  0  0  0  0  0  0  0  0  0  0  0
    2.0328    5.1219    0.0000 C   0  0  0  0  0  0  0  0  0  0  0  0
   -0.4518   -4.2418    0.0000 H   0  0  0  0  0  0  0  0  0  0  0  0
   -5.2373   -1.5505    0.0000 H   0  0  0  0  0  0  0  0  0  0  0  0
    5.0163   -4.0255    0.0000 H   0  0  0  0  0  0  0  0  0  0  0  0
    0.6039   -2.4625    0.0000 H   0  0  0  0  0  0  0  0  0  0  0  0
   -2.3920   -1.5577    0.0000 H   0  0  0  0  0  0  0  0  0  0  0  0
    3.5999   -1.5578    0.0000 H   0  0  0  0  0  0  0  0  0  0  0  0
   -1.6776    1.4892    0.0000 H   0  0  0  0  0  0  0  0  0  0  0  0
    0.6039    3.6314    0.0000 H   0  0  0  0  0  0  0  0  0  0  0  0
    2.8854    1.4891    0.0000 H   0  0  0  0  0  0  0  0  0  0  0  0
   -0.3875   -2.0990    0.0000 H   0  0  0  0  0  0  0  0  0  0  0  0
   -1.4705   -0.1388    0.0000 H   0  0  0  0  0  0  0  0  0  0  0  0
   -2.0055   -1.0654    0.0000 H   0  0  0  0  0  0  0  0  0  0  0  0
   -2.4660   -0.7756    0.0000 H   0  0  0  0  0  0  0  0  0  0  0  0
    2.9594   -2.0130    0.0000 H   0  0  0  0  0  0  0  0  0  0  0  0
   -0.4715   -2.3936    0.0000 H   0  0  0  0  0  0  0  0  0  0  0  0
   -1.2084   -2.8406    0.0000 H   0  0  0  0  0  0  0  0  0  0  0  0
   -2.2539    1.2419    0.0000 H   0  0  0  0  0  0  0  0  0  0  0  0
   -3.1805    0.7070    0.0000 H   0  0  0  0  0  0  0  0  0  0  0  0
    1.1062   -2.8380    0.0000 H   0  0  0  0  0  0  0  0  0  0  0  0
    2.0328   -3.3730    0.0000 H   0  0  0  0  0  0  0  0  0  0  0  0
   -2.9684   -1.3105    0.0000 H   0  0  0  0  0  0  0  0  0  0  0  0
   -3.8950   -0.7755    0.0000 H   0  0  0  0  0  0  0  0  0  0  0  0
    3.6739   -2.1805    0.0000 H   0  0  0  0  0  0  0  0  0  0  0  0
    3.6739   -3.2505    0.0000 H   0  0  0  0  0  0  0  0  0  0  0  0
   -2.9320   -2.2260    0.0000 H   0  0  0  0  0  0  0  0  0  0  0  0
   -2.2443   -1.4063    0.0000 H   0  0  0  0  0  0  0  0  0  0  0  0
   -3.6828    1.2419    0.0000 H   0  0  0  0  0  0  0  0  0  0  0  0
   -2.7562    0.7069    0.0000 H   0  0  0  0  0  0  0  0  0  0  0  0
    1.8207   -4.0755    0.0000 H   0  0  0  0  0  0  0  0  0  0  0  0
    1.8207   -3.0055    0.0000 H   0  0  0  0  0  0  0  0  0  0  0  0
    1.3184    3.3044    0.0000 H   0  0  0  0  0  0  0  0  0  0  0  0
    0.8161    0.8744    0.0000 H   0  0  0  0  0  0  0  0  0  0  0  0
    0.8161    1.9444    0.0000 H   0  0  0  0  0  0  0  0  0  0  0  0
    1.1062   -0.3632    0.0000 H   0  0  0  0  0  0  0  0  0  0  0  0
    2.0329   -0.8981    0.0000 H   0  0  0  0  0  0  0  0  0  0  0  0
    2.9595    2.1119    0.0000 H   0  0  0  0  0  0  0  0  0  0  0  0
    2.9594    3.1819    0.0000 H   0  0  0  0  0  0  0  0  0  0  0  0
   -2.5318   -5.4141    0.0000 H   0  0  0  0  0  0  0  0  0  0  0  0
   -0.7904   -4.7799    0.0000 H   0  0  0  0  0  0  0  0  0  0  0  0
   -1.4781   -5.5997    0.0000 H   0  0  0  0  0  0  0  0  0  0  0  0
    3.6410    3.3684    0.0000 H   0  0  0  0  0  0  0  0  0  0  0  0
    0.4247    3.3684    0.0000 H   0  0  0  0  0  0  0  0  0  0  0  0
   -6.7528    0.2947    0.0000 H   0  0  0  0  0  0  0  0  0  0  0  0
   -5.8265   -1.3105    0.0000 H   0  0  0  0  0  0  0  0  0  0  0  0
   -6.7530   -0.7753    0.0000 H   0  0  0  0  0  0  0  0  0  0  0  0
    4.1763   -6.2605    0.0000 H   0  0  0  0  0  0  0  0  0  0  0  0
    5.1029   -4.6555    0.0000 H   0  0  0  0  0  0  0  0  0  0  0  0
    5.1030   -5.7255    0.0000 H   0  0  0  0  0  0  0  0  0  0  0  0
    3.6410    5.2254    0.0000 H   0  0  0  0  0  0  0  0  0  0  0  0
    0.4247    5.2254    0.0000 H   0  0  0  0  0  0  0  0  0  0  0  0
    2.0328    6.1539    0.0000 H   0  0  0  0  0  0  0  0  0  0  0  0
  2 30  2  0  0  0  0
  3 31  2  0  0  0  0
  4 35  2  0  0  0  0
  5 18  1  0  0  0  0
  5 57  1  0  0  0  0
  6 38  2  0  0  0  0
  7 19  1  0  0  0  0
  7 58  1  0  0  0  0
  8 20  1  0  0  0  0
  8 59  1  0  0  0  0
  9 43  2  0  0  0  0
 10 44  2  0  0  0  0
 11 45  2  0  0  0  0
 12 47  2  0  0  0  0
 13 48  2  0  0  0  0
 14 23  1  0  0  0  0
 14 31  1  0  0  0  0
 14 60  1  0  0  0  0
 15 25  1  0  0  0  0
 15 30  1  0  0  0  0
 15 61  1  0  0  0  0
 16 26  1  0  0  0  0
 16 38  1  0  0  0  0
 16 62  1  0  0  0  0
 17 35  1  0  0  0  0
 17 40  1  0  0  0  0
 17 63  1  0  0  0  0
 18 34  1  0  0  0  0
 18 45  1  0  0  0  0
 19 36  1  0  0  0  0
 19 47  1  0  0  0  0
 20 37  1  0  0  0  0
 20 48  1  0  0  0  0
 21 39  1  0  0  0  0
 21 44  1  0  0  0  0
 21 64  1  0  0  0  0
 22 41  1  0  0  0  0
 22 43  1  0  0  0  0
 22 65  1  0  0  0  0
 23 24  1  0  0  0  0
 23 30  1  0  0  0  0
 23 66  1  1  0  0  0
 24 27  1  0  0  0  0
 24 67  1  0  0  0  0
 24 68  1  0  0  0  0
 25 28  1  0  0  0  0
 25 35  1  0  0  0  0
 25 69  1  6  0  0  0
 26 29  1  0  0  0  0
 26 31  1  0  0  0  0
 26 70  1  6  0  0  0
 27 34  1  0  0  0  0
 27 71  1  0  0  0  0
 27 72  1  0  0  0  0
 28 32  1  0  0  0  0
 28 73  1  0  0  0  0
 28 74  1  0  0  0  0
 29 33  1  0  0  0  0
 29 75  1  0  0  0  0
 29 76  1  0  0  0  0
 32 36  1  0  0  0  0
 32 77  1  0  0  0  0
 32 78  1  0  0  0  0
 33 37  1  0  0  0  0
 33 79  1  0  0  0  0
 33 80  1  0  0  0  0
 34 81  1  0  0  0  0
 34 82  1  0  0  0  0
 36 83  1  0  0  0  0
 36 84  1  0  0  0  0
 37 85  1  0  0  0  0
 37 86  1  0  0  0  0
 38 41  1  0  0  0  0
 39 42  1  0  0  0  0
 39 43  1  0  0  0  0
 39 87  1  1  0  0  0
 40 44  1  0  0  0  0
 40 88  1  0  0  0  0
 40 89  1  0  0  0  0
 41 90  1  0  0  0  0
 41 91  1  0  0  0  0
 42 46  1  0  0  0  0
 42 92  1  0  0  0  0
 42 93  1  0  0  0  0
 45 49  1  0  0  0  0
 46 50  2  0  0  0  0
 46 51  1  0  0  0  0
 47 52  1  0  0  0  0
 48 53  1  0  0  0  0
 49 94  1  0  0  0  0
 49 95  1  0  0  0  0
 49 96  1  0  0  0  0
 50 54  1  0  0  0  0
 50 97  1  0  0  0  0
 51 55  2  0  0  0  0
 51 98  1  0  0  0  0
 52 99  1  0  0  0  0
 52100  1  0  0  0  0
 52101  1  0  0  0  0
 53102  1  0  0  0  0
 53103  1  0  0  0  0
 53104  1  0  0  0  0
 54 56  2  0  0  0  0
 54105  1  0  0  0  0
 55 56  1  0  0  0  0
 55106  1  0  0  0  0
 56107  1  0  0  0  0
M  END
>  <DRUGBANK_ID>
DB02626

>  <SECONDARY_ACCESSION_NUMBERS>
EXPT02556

>  <COMMON_NAME>
Phenylferricrocin-iron

$$$$
