797
 OpenBabel10282417072D

 32 35  0  0  0  0  0  0  0  0999 V2000
   -0.3305    0.2937    0.0000 C   0  0  0  0  0  0  0  0  0  0  0  0
   -1.1375    0.1222    0.0000 C   0  0  0  0  0  0  0  0  0  0  0  0
   -1.3924   -0.6624    0.0000 C   0  0  0  0  0  0  0  0  0  0  0  0
   -0.8404   -1.2755    0.0000 C   0  0  0  0  0  0  0  0  0  0  0  0
   -0.0334   -1.1040    0.0000 C   0  0  0  0  0  0  0  0  0  0  0  0
    0.2215   -0.3194    0.0000 C   0  0  0  0  0  0  0  0  0  0  0  0
   -2.1994   -0.8339    0.0000 C   0  0  0  0  0  0  0  0  0  0  0  0
   -2.4543   -1.6186    0.0000 C   0  0  0  0  0  0  0  0  0  0  0  0
   -1.9023   -2.2316    0.0000 C   0  0  0  0  0  0  0  0  0  0  0  0
   -1.0953   -2.0601    0.0000 C   0  0  0  0  0  0  0  0  0  0  0  0
   -2.1572   -3.0163    0.0000 O   0  0  0  0  0  0  0  0  0  0  0  0
   -0.0756    1.0784    0.0000 C   0  0  0  0  0  0  0  0  0  0  0  0
    0.7091    1.3333    0.0000 C   0  0  0  0  0  0  0  0  0  0  0  0
    0.7091    2.1583    0.0000 C   0  0  0  0  0  0  0  0  0  0  0  0
   -0.0756    2.4132    0.0000 O   0  0  0  0  0  0  0  0  0  0  0  0
   -0.5605    1.7458    0.0000 N   0  0  0  0  0  0  0  0  0  0  0  0
    1.4235    0.9208    0.0000 C   0  0  0  0  0  0  0  0  0  0  0  0
    2.1380    1.3333    0.0000 C   0  0  0  0  0  0  0  0  0  0  0  0
    2.1380    2.1583    0.0000 C   0  0  0  0  0  0  0  0  0  0  0  0
    1.4235    2.5708    0.0000 C   0  0  0  0  0  0  0  0  0  0  0  0
    2.8525    2.5708    0.0000 O   0  0  0  0  0  0  0  0  0  0  0  0
   -1.8280    0.8891    0.0000 H   0  0  0  0  0  0  0  0  0  0  0  0
    0.6571   -1.8709    0.0000 H   0  0  0  0  0  0  0  0  0  0  0  0
    1.2309   -0.1048    0.0000 H   0  0  0  0  0  0  0  0  0  0  0  0
   -2.8900   -0.0670    0.0000 H   0  0  0  0  0  0  0  0  0  0  0  0
   -3.4637   -1.8332    0.0000 H   0  0  0  0  0  0  0  0  0  0  0  0
   -0.4048   -2.8270    0.0000 H   0  0  0  0  0  0  0  0  0  0  0  0
   -3.0737   -3.2112    0.0000 H   0  0  0  0  0  0  0  0  0  0  0  0
    1.4235   -0.1112    0.0000 H   0  0  0  0  0  0  0  0  0  0  0  0
    3.0317    0.8173    0.0000 H   0  0  0  0  0  0  0  0  0  0  0  0
    1.4235    3.6028    0.0000 H   0  0  0  0  0  0  0  0  0  0  0  0
    3.6640    2.1023    0.0000 H   0  0  0  0  0  0  0  0  0  0  0  0
  1  2  2  0  0  0  0
  1  6  1  0  0  0  0
  1 12  1  0  0  0  0
  2  3  1  0  0  0  0
  2 22  1  0  0  0  0
  3  4  2  0  0  0  0
  3  7  1  0  0  0  0
  4  5  1  0  0  0  0
  4 10  1  0  0  0  0
  5  6  2  0  0  0  0
  5 23  1  0  0  0  0
  6 24  1  0  0  0  0
  7  8  2  0  0  0  0
  7 25  1  0  0  0  0
  8  9  1  0  0  0  0
  8 26  1  0  0  0  0
  9 10  2  0  0  0  0
  9 11  1  0  0  0  0
 10 27  1  0  0  0  0
 11 28  1  0  0  0  0
 12 13  1  0  0  0  0
 12 16  2  0  0  0  0
 13 14  2  0  0  0  0
 13 17  1  0  0  0  0
 14 15  1  0  0  0  0
 14 20  1  0  0  0  0
 15 16  1  0  0  0  0
 17 18  2  0  0  0  0
 17 29  1  0  0  0  0
 18 19  1  0  0  0  0
 18 30  1  0  0  0  0
 19 20  2  0  0  0  0
 19 21  1  0  0  0  0
 20 31  1  0  0  0  0
 21 32  1  0  0  0  0
M  END
>  <DRUGBANK_ID>
DB07236

>  <COMMON_NAME>
3-(6-HYDROXY-NAPHTHALEN-2-YL)-BENZO[D]ISOOXAZOL-6-OL

$$$$
