
 OpenBabel10282417072D

 60 65  0  0  0  0  0  0  0  0999 V2000
   -1.1829   -4.0380    0.0000 C   0  0  0  0  0  0  0  0  0  0  0  0
   -0.3759   -3.8665    0.0000 C   0  0  0  0  0  0  0  0  0  0  0  0
   -0.0404   -3.1128    0.0000 C   0  0  0  0  0  0  0  0  0  0  0  0
    0.7801   -3.1991    0.0000 S   0  0  0  0  0  0  0  0  0  0  0  0
    0.9516   -4.0060    0.0000 C   0  0  0  0  0  0  0  0  0  0  0  0
    0.2372   -4.4185    0.0000 N   0  0  0  0  0  0  0  0  0  0  0  0
    1.7053   -4.3416    0.0000 C   0  0  0  0  0  0  0  0  0  0  0  0
    2.3727   -3.8567    0.0000 C   0  0  0  0  0  0  0  0  0  0  0  0
    3.1264   -4.1922    0.0000 C   0  0  0  0  0  0  0  0  0  0  0  0
    3.2127   -5.0127    0.0000 C   0  0  0  0  0  0  0  0  0  0  0  0
    2.5452   -5.4976    0.0000 N   0  0  0  0  0  0  0  0  0  0  0  0
    1.7915   -5.1621    0.0000 C   0  0  0  0  0  0  0  0  0  0  0  0
   -0.4529   -2.3984    0.0000 C   0  0  0  0  0  0  0  0  0  0  0  0
   -1.2779   -2.3984    0.0000 O   0  0  0  0  0  0  0  0  0  0  0  0
   -0.0404   -1.6839    0.0000 N   0  0  0  0  0  0  0  0  0  0  0  0
   -0.4529   -0.9694    0.0000 C   0  0  0  0  0  0  0  0  0  0  0  0
   -1.2779   -0.9694    0.0000 C   0  0  0  0  0  0  0  0  0  0  0  0
   -1.6904   -0.2549    0.0000 C   0  0  0  0  0  0  0  0  0  0  0  0
   -1.2779    0.4595    0.0000 C   0  0  0  0  0  0  0  0  0  0  0  0
   -0.4529    0.4595    0.0000 C   0  0  0  0  0  0  0  0  0  0  0  0
   -0.0404   -0.2549    0.0000 C   0  0  0  0  0  0  0  0  0  0  0  0
    0.7846   -0.2549    0.0000 C   0  0  0  0  0  0  0  0  0  0  0  0
    1.2695    0.4125    0.0000 C   0  0  0  0  0  0  0  0  0  0  0  0
    2.0542    0.1576    0.0000 N   0  0  0  0  0  0  0  0  0  0  0  0
    2.8388    0.4125    0.0000 C   0  0  0  0  0  0  0  0  0  0  0  0
    3.3237   -0.2549    0.0000 C   0  0  0  0  0  0  0  0  0  0  0  0
    2.8388   -0.9224    0.0000 S   0  0  0  0  0  0  0  0  0  0  0  0
    2.0542   -0.6674    0.0000 C   0  0  0  0  0  0  0  0  0  0  0  0
    1.2695   -0.9224    0.0000 N   0  0  0  0  0  0  0  0  0  0  0  0
    3.0937    1.1971    0.0000 C   0  0  0  0  0  0  0  0  0  0  0  0
    3.9007    1.3686    0.0000 N   0  0  0  0  0  0  0  0  0  0  0  0
    4.1556    2.1533    0.0000 C   0  0  0  0  0  0  0  0  0  0  0  0
    4.9626    2.3248    0.0000 C   0  0  0  0  0  0  0  0  0  0  0  0
    5.5146    1.7117    0.0000 O   0  0  0  0  0  0  0  0  0  0  0  0
    5.2597    0.9271    0.0000 C   0  0  0  0  0  0  0  0  0  0  0  0
    4.4527    0.7556    0.0000 C   0  0  0  0  0  0  0  0  0  0  0  0
   -1.8988   -3.2428    0.0000 H   0  0  0  0  0  0  0  0  0  0  0  0
   -1.5136   -5.0556    0.0000 H   0  0  0  0  0  0  0  0  0  0  0  0
   -2.2295   -4.2604    0.0000 H   0  0  0  0  0  0  0  0  0  0  0  0
    2.2648   -2.8304    0.0000 H   0  0  0  0  0  0  0  0  0  0  0  0
    3.9613   -3.5855    0.0000 H   0  0  0  0  0  0  0  0  0  0  0  0
    4.1555   -5.4324    0.0000 H   0  0  0  0  0  0  0  0  0  0  0  0
    0.9566   -5.7687    0.0000 H   0  0  0  0  0  0  0  0  0  0  0  0
    0.9441   -1.6839    0.0000 H   0  0  0  0  0  0  0  0  0  0  0  0
   -1.7939   -1.8631    0.0000 H   0  0  0  0  0  0  0  0  0  0  0  0
   -2.7224   -0.2549    0.0000 H   0  0  0  0  0  0  0  0  0  0  0  0
   -1.7939    1.3532    0.0000 H   0  0  0  0  0  0  0  0  0  0  0  0
    0.0631    1.3532    0.0000 H   0  0  0  0  0  0  0  0  0  0  0  0
    0.9506    1.3940    0.0000 H   0  0  0  0  0  0  0  0  0  0  0  0
    4.3557   -0.2549    0.0000 H   0  0  0  0  0  0  0  0  0  0  0  0
    2.3777    1.9923    0.0000 H   0  0  0  0  0  0  0  0  0  0  0  0
    3.4244    2.2147    0.0000 H   0  0  0  0  0  0  0  0  0  0  0  0
    3.4396    2.9485    0.0000 H   0  0  0  0  0  0  0  0  0  0  0  0
    4.4863    3.1709    0.0000 H   0  0  0  0  0  0  0  0  0  0  0  0
    5.2933    3.3424    0.0000 H   0  0  0  0  0  0  0  0  0  0  0  0
    6.0092    2.5472    0.0000 H   0  0  0  0  0  0  0  0  0  0  0  0
    5.9757    0.1319    0.0000 H   0  0  0  0  0  0  0  0  0  0  0  0
    4.9290   -0.0905    0.0000 H   0  0  0  0  0  0  0  0  0  0  0  0
    4.1221   -0.2620    0.0000 H   0  0  0  0  0  0  0  0  0  0  0  0
    3.4061    0.5331    0.0000 H   0  0  0  0  0  0  0  0  0  0  0  0
  1  2  1  0  0  0  0
  1 37  1  0  0  0  0
  1 38  1  0  0  0  0
  1 39  1  0  0  0  0
  2  3  2  0  0  0  0
  2  6  1  0  0  0  0
  3  4  1  0  0  0  0
  3 13  1  0  0  0  0
  4  5  1  0  0  0  0
  5  6  2  0  0  0  0
  5  7  1  0  0  0  0
  7  8  2  0  0  0  0
  7 12  1  0  0  0  0
  8  9  1  0  0  0  0
  8 40  1  0  0  0  0
  9 10  2  0  0  0  0
  9 41  1  0  0  0  0
 10 11  1  0  0  0  0
 10 42  1  0  0  0  0
 11 12  2  0  0  0  0
 12 43  1  0  0  0  0
 13 14  2  0  0  0  0
 13 15  1  0  0  0  0
 15 16  1  0  0  0  0
 15 44  1  0  0  0  0
 16 17  2  0  0  0  0
 16 21  1  0  0  0  0
 17 18  1  0  0  0  0
 17 45  1  0  0  0  0
 18 19  2  0  0  0  0
 18 46  1  0  0  0  0
 19 20  1  0  0  0  0
 19 47  1  0  0  0  0
 20 21  2  0  0  0  0
 20 48  1  0  0  0  0
 21 22  1  0  0  0  0
 22 23  2  0  0  0  0
 22 29  1  0  0  0  0
 23 24  1  0  0  0  0
 23 49  1  0  0  0  0
 24 25  1  0  0  0  0
 24 28  1  0  0  0  0
 25 26  2  0  0  0  0
 25 30  1  0  0  0  0
 26 27  1  0  0  0  0
 26 50  1  0  0  0  0
 27 28  1  0  0  0  0
 28 29  2  0  0  0  0
 30 31  1  0  0  0  0
 30 51  1  0  0  0  0
 30 52  1  0  0  0  0
 31 32  1  0  0  0  0
 31 36  1  0  0  0  0
 32 33  1  0  0  0  0
 32 53  1  0  0  0  0
 32 54  1  0  0  0  0
 33 34  1  0  0  0  0
 33 55  1  0  0  0  0
 33 56  1  0  0  0  0
 34 35  1  0  0  0  0
 35 36  1  0  0  0  0
 35 57  1  0  0  0  0
 35 58  1  0  0  0  0
 36 59  1  0  0  0  0
 36 60  1  0  0  0  0
M  END
>  <DRUGBANK_ID>
DB12186

>  <COMMON_NAME>
SRT-2104

>  <CAS_NUMBER>
1093403-33-8

>  <UNII>
4521NR0J09

$$$$
