3290
 OpenBabel10282417072D

 46 48  0  0  1  0  0  0  0  0999 V2000
    3.6958   -2.3625    0.0000 S   0  0  0  0  0  0  0  0  0  0  0  0
    4.3818    1.2018    0.0000 N   0  0  0  0  0  0  0  0  0  0  0  0
    3.6958   -0.7783    0.0000 N   0  0  0  0  0  0  0  0  0  0  0  0
    4.3818    0.4098    0.0000 C   0  0  3  0  0  0  0  0  0  0  0  0
    3.6958    0.0137    0.0000 C   0  0  0  0  0  0  0  0  0  0  0  0
    5.0677    0.0137    0.0000 C   0  0  0  0  0  0  0  0  0  0  0  0
    5.0677    1.5979    0.0000 C   0  0  0  0  0  0  0  0  0  0  0  0
    3.6958    1.5979    0.0000 C   0  0  0  0  0  0  0  0  0  0  0  0
    4.3818   -1.1744    0.0000 C   0  0  0  0  0  0  0  0  0  0  0  0
    3.0099   -1.1744    0.0000 C   0  0  0  0  0  0  0  0  0  0  0  0
    4.3818   -1.9664    0.0000 C   0  0  0  0  0  0  0  0  0  0  0  0
    3.0099   -1.9664    0.0000 C   0  0  0  0  0  0  0  0  0  0  0  0
    5.0677    2.3899    0.0000 C   0  0  0  0  0  0  0  0  0  0  0  0
    3.6958    2.3899    0.0000 C   0  0  0  0  0  0  0  0  0  0  0  0
    2.3018   -0.7509    0.0000 C   0  0  0  0  0  0  0  0  0  0  0  0
    5.0899   -0.7509    0.0000 C   0  0  0  0  0  0  0  0  0  0  0  0
    5.0899   -2.3899    0.0000 C   0  0  0  0  0  0  0  0  0  0  0  0
    2.3018   -2.3899    0.0000 C   0  0  0  0  0  0  0  0  0  0  0  0
    1.5841   -1.1580    0.0000 C   0  0  0  0  0  0  0  0  0  0  0  0
    5.8075   -1.1580    0.0000 C   0  0  0  0  0  0  0  0  0  0  0  0
    1.5841   -1.9830    0.0000 C   0  0  0  0  0  0  0  0  0  0  0  0
    5.8075   -1.9830    0.0000 C   0  0  0  0  0  0  0  0  0  0  0  0
    3.4551    0.9448    0.0000 H   0  0  0  0  0  0  0  0  0  0  0  0
    2.7691    0.5487    0.0000 H   0  0  0  0  0  0  0  0  0  0  0  0
    3.6958    1.0837    0.0000 H   0  0  0  0  0  0  0  0  0  0  0  0
    5.0676   -1.0563    0.0000 H   0  0  0  0  0  0  0  0  0  0  0  0
    5.9944    0.5486    0.0000 H   0  0  0  0  0  0  0  0  0  0  0  0
    5.9943   -0.5214    0.0000 H   0  0  0  0  0  0  0  0  0  0  0  0
    5.9944    1.0629    0.0000 H   0  0  0  0  0  0  0  0  0  0  0  0
    5.9943    2.1329    0.0000 H   0  0  0  0  0  0  0  0  0  0  0  0
    2.7691    1.0629    0.0000 H   0  0  0  0  0  0  0  0  0  0  0  0
    2.7692    2.1329    0.0000 H   0  0  0  0  0  0  0  0  0  0  0  0
    5.9943    2.9249    0.0000 H   0  0  0  0  0  0  0  0  0  0  0  0
    4.1411    2.9249    0.0000 H   0  0  0  0  0  0  0  0  0  0  0  0
    5.0677    3.4599    0.0000 H   0  0  0  0  0  0  0  0  0  0  0  0
    4.6224    2.9249    0.0000 H   0  0  0  0  0  0  0  0  0  0  0  0
    2.7692    2.9249    0.0000 H   0  0  0  0  0  0  0  0  0  0  0  0
    3.6958    3.4599    0.0000 H   0  0  0  0  0  0  0  0  0  0  0  0
    2.3137    0.2810    0.0000 H   0  0  0  0  0  0  0  0  0  0  0  0
    5.0780    0.2810    0.0000 H   0  0  0  0  0  0  0  0  0  0  0  0
    5.0779   -3.4218    0.0000 H   0  0  0  0  0  0  0  0  0  0  0  0
    2.3138   -3.4218    0.0000 H   0  0  0  0  0  0  0  0  0  0  0  0
    0.6923   -0.6386    0.0000 H   0  0  0  0  0  0  0  0  0  0  0  0
    6.6993   -0.6386    0.0000 H   0  0  0  0  0  0  0  0  0  0  0  0
    0.6924   -2.5025    0.0000 H   0  0  0  0  0  0  0  0  0  0  0  0
    6.6992   -2.5025    0.0000 H   0  0  0  0  0  0  0  0  0  0  0  0
  1 11  1  0  0  0  0
  1 12  1  0  0  0  0
  2  4  1  0  0  0  0
  2  7  1  0  0  0  0
  2  8  1  0  0  0  0
  3  5  1  0  0  0  0
  3  9  1  0  0  0  0
  3 10  1  0  0  0  0
  4  5  1  0  0  0  0
  4  6  1  0  0  0  0
  4 23  1  0  0  0  0
  5 24  1  0  0  0  0
  5 25  1  0  0  0  0
  6 26  1  0  0  0  0
  6 27  1  0  0  0  0
  6 28  1  0  0  0  0
  7 13  1  0  0  0  0
  7 29  1  0  0  0  0
  7 30  1  0  0  0  0
  8 14  1  0  0  0  0
  8 31  1  0  0  0  0
  8 32  1  0  0  0  0
  9 11  1  0  0  0  0
  9 16  2  0  0  0  0
 10 12  1  0  0  0  0
 10 15  2  0  0  0  0
 11 17  2  0  0  0  0
 12 18  2  0  0  0  0
 13 33  1  0  0  0  0
 13 34  1  0  0  0  0
 13 35  1  0  0  0  0
 14 36  1  0  0  0  0
 14 37  1  0  0  0  0
 14 38  1  0  0  0  0
 15 19  1  0  0  0  0
 15 39  1  0  0  0  0
 16 20  1  0  0  0  0
 16 40  1  0  0  0  0
 17 22  1  0  0  0  0
 17 41  1  0  0  0  0
 18 21  1  0  0  0  0
 18 42  1  0  0  0  0
 19 21  2  0  0  0  0
 19 43  1  0  0  0  0
 20 22  2  0  0  0  0
 20 44  1  0  0  0  0
 21 45  1  0  0  0  0
 22 46  1  0  0  0  0
M  END
>  <DRUGBANK_ID>
DB00392

>  <SECONDARY_ACCESSION_NUMBERS>
APRD00729

>  <COMMON_NAME>
Profenamine

>  <CAS_NUMBER>
522-00-9

>  <UNII>
7WI4P02YN1

>  <SYNONYMS>
10-(2-diethylaminopropyl)phenothiazine; 10-[2-(diethylamino)-1-propyl]phenothiazine; 10-[2-(diethylamino)-2-methylethyl]phenothiazine; 10-[2-(diethylamino)propyl]phenothiazine; 2-diethylamino-1-propyl-N-dibenzoparathiazine; Ethopropazine; N,N-diethyl-1-(10H-phenothiazin-10-yl)-2-propanamine; N,N-diethyl-α-methyl-10H-phenothiazine-10-ethanamine; Profenamina; Profénamine; Profenamine; Profenaminum

$$$$
