
 OpenBabel10282417072D

 53 55  0  0  0  0  0  0  0  0999 V2000
    6.1792  -24.6708    0.0000 C   0  0  2  0  0  0  0  0  0  0  0  0
    6.1792  -25.4958    0.0000 C   0  0  2  0  0  0  0  0  0  0  0  0
    6.8912  -25.9042    0.0000 C   0  0  1  0  0  0  0  0  0  0  0  0
    7.6032  -25.4958    0.0000 C   0  0  2  0  0  0  0  0  0  0  0  0
    7.6032  -24.6708    0.0000 C   0  0  1  0  0  0  0  0  0  0  0  0
    6.8912  -24.2542    0.0000 O   0  0  0  0  0  0  0  0  0  0  0  0
    8.3189  -24.2604    0.0000 C   0  0  0  0  0  0  0  0  0  0  0  0
    5.4635  -24.2604    0.0000 C   0  0  0  0  0  0  0  0  0  0  0  0
    8.3171  -25.9094    0.0000 O   0  0  0  0  0  0  0  0  0  0  0  0
    5.4653  -25.9094    0.0000 O   0  0  0  0  0  0  0  0  0  0  0  0
    6.8912  -26.7291    0.0000 O   0  0  0  0  0  0  0  0  0  0  0  0
    5.4611  -23.4354    0.0000 O   0  0  0  0  0  0  0  0  0  0  0  0
    9.0288  -24.6788    0.0000 C   0  0  0  0  0  0  0  0  0  0  0  0
    9.7439  -24.2691    0.0000 C   0  0  0  0  0  0  0  0  0  0  0  0
    9.7468  -23.4432    0.0000 C   0  0  0  0  0  0  0  0  0  0  0  0
    9.0285  -23.0288    0.0000 C   0  0  0  0  0  0  0  0  0  0  0  0
    8.3163  -23.4409    0.0000 C   0  0  0  0  0  0  0  0  0  0  0  0
   10.4619  -23.0319    0.0000 Cl  0  0  0  0  0  0  0  0  0  0  0  0
   10.4570  -24.6840    0.0000 C   0  0  0  0  0  0  0  0  0  0  0  0
   11.1729  -24.2740    0.0000 C   0  0  0  0  0  0  0  0  0  0  0  0
   11.8817  -24.6920    0.0000 C   0  0  0  0  0  0  0  0  0  0  0  0
   12.5971  -24.2826    0.0000 C   0  0  0  0  0  0  0  0  0  0  0  0
   12.6004  -23.4568    0.0000 C   0  0  0  0  0  0  0  0  0  0  0  0
   11.8823  -23.0420    0.0000 C   0  0  0  0  0  0  0  0  0  0  0  0
   11.1698  -23.4538    0.0000 C   0  0  0  0  0  0  0  0  0  0  0  0
   13.3157  -23.0458    0.0000 O   0  0  0  0  0  0  0  0  0  0  0  0
   14.0293  -23.4598    0.0000 C   0  0  0  0  0  0  0  0  0  0  0  0
   14.7446  -23.0488    0.0000 C   0  0  0  0  0  0  0  0  0  0  0  0
    5.2533  -25.2072    0.0000 H   0  0  0  0  0  0  0  0  0  0  0  0
    5.2522  -24.9615    0.0000 H   0  0  0  0  0  0  0  0  0  0  0  0
    5.9653  -26.4405    0.0000 H   0  0  0  0  0  0  0  0  0  0  0  0
    7.6009  -26.5658    0.0000 H   0  0  0  0  0  0  0  0  0  0  0  0
    8.5291  -25.2072    0.0000 H   0  0  0  0  0  0  0  0  0  0  0  0
    4.5384  -24.7981    0.0000 H   0  0  0  0  0  0  0  0  0  0  0  0
    4.5353  -23.7281    0.0000 H   0  0  0  0  0  0  0  0  0  0  0  0
    8.3156  -26.8794    0.0000 H   0  0  0  0  0  0  0  0  0  0  0  0
    4.6245  -25.4257    0.0000 H   0  0  0  0  0  0  0  0  0  0  0  0
    6.0512  -27.2141    0.0000 H   0  0  0  0  0  0  0  0  0  0  0  0
    6.2997  -22.9480    0.0000 H   0  0  0  0  0  0  0  0  0  0  0  0
    9.0225  -25.7108    0.0000 H   0  0  0  0  0  0  0  0  0  0  0  0
    9.0278  -21.9968    0.0000 H   0  0  0  0  0  0  0  0  0  0  0  0
    7.4215  -22.9267    0.0000 H   0  0  0  0  0  0  0  0  0  0  0  0
   10.4533  -25.7540    0.0000 H   0  0  0  0  0  0  0  0  0  0  0  0
   11.3818  -25.2222    0.0000 H   0  0  0  0  0  0  0  0  0  0  0  0
   11.8750  -25.7240    0.0000 H   0  0  0  0  0  0  0  0  0  0  0  0
   13.4888  -24.8021    0.0000 H   0  0  0  0  0  0  0  0  0  0  0  0
   11.8822  -22.0100    0.0000 H   0  0  0  0  0  0  0  0  0  0  0  0
   10.2750  -22.9397    0.0000 H   0  0  0  0  0  0  0  0  0  0  0  0
   14.0271  -24.5298    0.0000 H   0  0  0  0  0  0  0  0  0  0  0  0
   14.9548  -23.9967    0.0000 H   0  0  0  0  0  0  0  0  0  0  0  0
   15.6701  -23.5857    0.0000 H   0  0  0  0  0  0  0  0  0  0  0  0
   14.7468  -21.9788    0.0000 H   0  0  0  0  0  0  0  0  0  0  0  0
   15.6724  -22.5157    0.0000 H   0  0  0  0  0  0  0  0  0  0  0  0
  1  2  1  0  0  0  0
  1  8  1  0  0  0  0
  1  6  1  0  0  0  0
  1 29  1  6  0  0  0
  2  3  1  0  0  0  0
  2 10  1  0  0  0  0
  2 30  1  1  0  0  0
  3  4  1  0  0  0  0
  3 11  1  0  0  0  0
  3 31  1  6  0  0  0
  4  9  1  0  0  0  0
  4  5  1  0  0  0  0
  4 32  1  1  0  0  0
  5  7  1  0  0  0  0
  5  6  1  0  0  0  0
  5 33  1  6  0  0  0
  7 13  2  0  0  0  0
  8 12  1  0  0  0  0
  8 34  1  0  0  0  0
  8 35  1  0  0  0  0
  9 36  1  0  0  0  0
 10 37  1  0  0  0  0
 11 38  1  0  0  0  0
 12 39  1  0  0  0  0
 13 14  1  0  0  0  0
 13 40  1  0  0  0  0
 14 15  2  0  0  0  0
 14 19  1  0  0  0  0
 15 16  1  0  0  0  0
 15 18  1  0  0  0  0
 16 17  2  0  0  0  0
 16 41  1  0  0  0  0
 17  7  1  0  0  0  0
 17 42  1  0  0  0  0
 19 20  1  0  0  0  0
 19 43  1  0  0  0  0
 19 44  1  0  0  0  0
 20 21  2  0  0  0  0
 21 22  1  0  0  0  0
 21 45  1  0  0  0  0
 22 23  2  0  0  0  0
 22 46  1  0  0  0  0
 23 24  1  0  0  0  0
 23 26  1  0  0  0  0
 24 25  2  0  0  0  0
 24 47  1  0  0  0  0
 25 20  1  0  0  0  0
 25 48  1  0  0  0  0
 26 27  1  0  0  0  0
 27 28  1  0  0  0  0
 27 49  1  0  0  0  0
 27 50  1  0  0  0  0
 28 51  1  0  0  0  0
 28 52  1  0  0  0  0
 28 53  1  0  0  0  0
M  END
>  <DRUGBANK_ID>
DB06292

>  <COMMON_NAME>
Dapagliflozin

>  <CAS_NUMBER>
461432-26-8

>  <UNII>
1ULL0QJ8UC

>  <SYNONYMS>
(2S,3R,4R,5S,6R)-2-(4-Chloro-3-(4-ethoxybenzyl)phenyl)-6- (hydroxymethyl)tetrahydro-2H-pyran-3,4,5-triol; Dapagliflozin; Dapagliflozina

$$$$
