4814
 OpenBabel10282417072D

 38 38  0  0  0  0  0  0  0  0999 V2000
    3.0791    0.5693    0.0000 I   0  0  0  0  0  0  0  0  0  0  0  0
    4.5080   -1.9058    0.0000 I   0  0  0  0  0  0  0  0  0  0  0  0
    5.9370    0.5693    0.0000 I   0  0  0  0  0  0  0  0  0  0  0  0
    3.7935   -2.3183    0.0000 O   0  0  0  0  0  0  0  0  0  0  0  0
    5.9370    3.0443    0.0000 O   0  0  0  0  0  0  0  0  0  0  0  0
    4.5080    3.0443    0.0000 O   0  0  0  0  0  0  0  0  0  0  0  0
    3.0791   -1.0808    0.0000 N   0  0  0  0  0  0  0  0  0  0  0  0
    2.3645   -2.3183    0.0000 C   0  0  0  0  0  0  0  0  0  0  0  0
    3.7935   -0.6683    0.0000 C   0  0  0  0  0  0  0  0  0  0  0  0
    4.5080    0.5693    0.0000 C   0  0  0  0  0  0  0  0  0  0  0  0
    2.3645   -3.1433    0.0000 C   0  0  0  0  0  0  0  0  0  0  0  0
    3.7935    0.1568    0.0000 C   0  0  0  0  0  0  0  0  0  0  0  0
    3.0791   -1.9058    0.0000 C   0  0  0  0  0  0  0  0  0  0  0  0
    4.5080    1.3943    0.0000 C   0  0  0  0  0  0  0  0  0  0  0  0
    5.2224    1.8068    0.0000 C   0  0  0  0  0  0  0  0  0  0  0  0
    4.5080   -1.0808    0.0000 C   0  0  0  0  0  0  0  0  0  0  0  0
    5.2224    0.1568    0.0000 C   0  0  0  0  0  0  0  0  0  0  0  0
    5.9370    1.3943    0.0000 C   0  0  0  0  0  0  0  0  0  0  0  0
    5.2224   -0.6683    0.0000 C   0  0  0  0  0  0  0  0  0  0  0  0
    1.6500   -3.5558    0.0000 C   0  0  0  0  0  0  0  0  0  0  0  0
    6.6515    1.8068    0.0000 C   0  0  0  0  0  0  0  0  0  0  0  0
    5.2224    2.6318    0.0000 C   0  0  0  0  0  0  0  0  0  0  0  0
    6.7484    2.5757    0.0000 H   0  0  0  0  0  0  0  0  0  0  0  0
    2.2265   -0.5886    0.0000 H   0  0  0  0  0  0  0  0  0  0  0  0
    1.4379   -1.7833    0.0000 H   0  0  0  0  0  0  0  0  0  0  0  0
    2.3646   -1.2483    0.0000 H   0  0  0  0  0  0  0  0  0  0  0  0
    3.2911   -3.6783    0.0000 H   0  0  0  0  0  0  0  0  0  0  0  0
    2.3645   -4.2133    0.0000 H   0  0  0  0  0  0  0  0  0  0  0  0
    3.6143    1.9103    0.0000 H   0  0  0  0  0  0  0  0  0  0  0  0
    5.9370    0.3243    0.0000 H   0  0  0  0  0  0  0  0  0  0  0  0
    6.8637    0.8593    0.0000 H   0  0  0  0  0  0  0  0  0  0  0  0
    6.1161   -1.1843    0.0000 H   0  0  0  0  0  0  0  0  0  0  0  0
    0.7234   -3.0208    0.0000 H   0  0  0  0  0  0  0  0  0  0  0  0
    1.6500   -4.6258    0.0000 H   0  0  0  0  0  0  0  0  0  0  0  0
    0.7233   -4.0908    0.0000 H   0  0  0  0  0  0  0  0  0  0  0  0
    7.5781    1.2718    0.0000 H   0  0  0  0  0  0  0  0  0  0  0  0
    6.6515    2.8768    0.0000 H   0  0  0  0  0  0  0  0  0  0  0  0
    7.5782    2.3418    0.0000 H   0  0  0  0  0  0  0  0  0  0  0  0
  1 12  1  0  0  0  0
  2 16  1  0  0  0  0
  3 17  1  0  0  0  0
  4 13  2  0  0  0  0
  5 22  1  0  0  0  0
  5 23  1  0  0  0  0
  6 22  2  0  0  0  0
  7  9  1  0  0  0  0
  7 13  1  0  0  0  0
  7 24  1  0  0  0  0
  8 11  1  0  0  0  0
  8 13  1  0  0  0  0
  8 25  1  0  0  0  0
  8 26  1  0  0  0  0
  9 12  1  0  0  0  0
  9 16  2  0  0  0  0
 10 12  2  0  0  0  0
 10 14  1  0  0  0  0
 10 17  1  0  0  0  0
 11 20  1  0  0  0  0
 11 27  1  0  0  0  0
 11 28  1  0  0  0  0
 14 15  2  0  0  0  0
 14 29  1  0  0  0  0
 15 18  1  0  0  0  0
 15 22  1  0  0  0  0
 16 19  1  0  0  0  0
 17 19  2  0  0  0  0
 18 21  1  0  0  0  0
 18 30  1  0  0  0  0
 18 31  1  0  0  0  0
 19 32  1  0  0  0  0
 20 33  1  0  0  0  0
 20 34  1  0  0  0  0
 20 35  1  0  0  0  0
 21 36  1  0  0  0  0
 21 37  1  0  0  0  0
 21 38  1  0  0  0  0
M  END
>  <DRUGBANK_ID>
DB04814

>  <COMMON_NAME>
Bunamiodyl

>  <CAS_NUMBER>
1233-53-0

>  <UNII>
IX9VVF69JR

>  <SYNONYMS>
2-(3-Butyramido-3,4,6-triiodophenylmethylene)butyric acid; Bunamiodilo; Bunamiodyl; Bunamiodylum

$$$$
