
 OpenBabel10282417072D

 42 45  0  0  1  0  0  0  0  0999 V2000
    1.6288    0.2334    0.0000 C   0  0  0  0  0  0  0  0  0  0  0  0
    1.9486    0.9939    0.0000 C   0  0  0  0  0  0  0  0  0  0  0  0
    2.7519    1.1821    0.0000 N   0  0  0  0  0  0  0  0  0  0  0  0
    2.8210    2.0042    0.0000 O   0  0  0  0  0  0  0  0  0  0  0  0
    2.0605    2.3241    0.0000 C   0  0  0  0  0  0  0  0  0  0  0  0
    1.5214    1.6996    0.0000 C   0  0  0  0  0  0  0  0  0  0  0  0
    0.6970    1.7318    0.0000 C   0  0  0  0  0  0  0  0  0  0  0  0
    0.2082    2.3964    0.0000 C   0  0  0  0  0  0  0  0  0  0  0  0
   -0.6118    2.3054    0.0000 C   0  0  0  0  0  0  0  0  0  0  0  0
   -0.9429    1.5498    0.0000 C   0  0  0  0  0  0  0  0  0  0  0  0
   -0.4541    0.8852    0.0000 C   0  0  0  0  0  0  0  0  0  0  0  0
    0.3659    0.9762    0.0000 C   0  0  0  0  0  0  0  0  0  0  0  0
    0.4230    3.1929    0.0000 C   0  0  0  0  0  0  0  0  0  0  0  0
    1.1797    3.5216    0.0000 N   0  0  0  0  0  0  0  0  0  0  0  0
    1.9085    3.1349    0.0000 C   0  0  1  0  0  0  0  0  0  0  0  0
    2.5731    3.6237    0.0000 C   0  0  0  0  0  0  0  0  0  0  0  0
    2.4821    4.4437    0.0000 C   0  0  0  0  0  0  0  0  0  0  0  0
    1.7264    4.7748    0.0000 N   0  0  0  0  0  0  0  0  0  0  0  0
    3.1467    4.9325    0.0000 O   0  0  0  0  0  0  0  0  0  0  0  0
   -0.2014    3.7321    0.0000 C   0  0  0  0  0  0  0  0  0  0  0  0
   -0.9806    3.4609    0.0000 C   0  0  0  0  0  0  0  0  0  0  0  0
   -1.6050    4.0001    0.0000 C   0  0  0  0  0  0  0  0  0  0  0  0
   -1.4503    4.8104    0.0000 C   0  0  0  0  0  0  0  0  0  0  0  0
   -2.0747    5.3496    0.0000 Cl  0  0  0  0  0  0  0  0  0  0  0  0
   -0.6712    5.0816    0.0000 C   0  0  0  0  0  0  0  0  0  0  0  0
   -0.0467    4.5425    0.0000 C   0  0  0  0  0  0  0  0  0  0  0  0
    0.5672    0.0994    0.0000 H   0  0  0  0  0  0  0  0  0  0  0  0
    2.2756   -0.6190    0.0000 H   0  0  0  0  0  0  0  0  0  0  0  0
    1.2140   -0.7529    0.0000 H   0  0  0  0  0  0  0  0  0  0  0  0
   -1.2233    3.1367    0.0000 H   0  0  0  0  0  0  0  0  0  0  0  0
   -1.9686    1.4359    0.0000 H   0  0  0  0  0  0  0  0  0  0  0  0
   -0.8684   -0.0600    0.0000 H   0  0  0  0  0  0  0  0  0  0  0  0
    0.9774    0.1449    0.0000 H   0  0  0  0  0  0  0  0  0  0  0  0
    1.8303    4.2020    0.0000 H   0  0  0  0  0  0  0  0  0  0  0  0
    3.5531    3.1942    0.0000 H   0  0  0  0  0  0  0  0  0  0  0  0
    3.4351    4.2576    0.0000 H   0  0  0  0  0  0  0  0  0  0  0  0
    1.6177    5.7533    0.0000 H   0  0  0  0  0  0  0  0  0  0  0  0
    0.9334    4.1914    0.0000 H   0  0  0  0  0  0  0  0  0  0  0  0
   -1.1742    2.4472    0.0000 H   0  0  0  0  0  0  0  0  0  0  0  0
   -2.5797    3.6609    0.0000 H   0  0  0  0  0  0  0  0  0  0  0  0
   -0.4777    6.0953    0.0000 H   0  0  0  0  0  0  0  0  0  0  0  0
    0.9279    4.8818    0.0000 H   0  0  0  0  0  0  0  0  0  0  0  0
  1  2  1  0  0  0  0
  1 27  1  0  0  0  0
  1 28  1  0  0  0  0
  1 29  1  0  0  0  0
  2  3  2  0  0  0  0
  2  6  1  0  0  0  0
  3  4  1  0  0  0  0
  4  5  1  0  0  0  0
  5  6  2  0  0  0  0
  6  7  1  0  0  0  0
  7  8  2  0  0  0  0
  7 12  1  0  0  0  0
  8  9  1  0  0  0  0
  8 13  1  0  0  0  0
  9 10  2  0  0  0  0
  9 30  1  0  0  0  0
 10 11  1  0  0  0  0
 10 31  1  0  0  0  0
 11 12  2  0  0  0  0
 11 32  1  0  0  0  0
 12 33  1  0  0  0  0
 13 14  2  0  0  0  0
 13 20  1  0  0  0  0
 15 14  1  0  0  0  0
 15  5  1  0  0  0  0
 15 16  1  0  0  0  0
 15 34  1  6  0  0  0
 16 17  1  0  0  0  0
 16 35  1  0  0  0  0
 16 36  1  0  0  0  0
 17 18  1  0  0  0  0
 17 19  2  0  0  0  0
 18 37  1  0  0  0  0
 18 38  1  0  0  0  0
 20 21  2  0  0  0  0
 20 26  1  0  0  0  0
 21 22  1  0  0  0  0
 21 39  1  0  0  0  0
 22 23  2  0  0  0  0
 22 40  1  0  0  0  0
 23 24  1  0  0  0  0
 23 25  1  0  0  0  0
 25 26  2  0  0  0  0
 25 41  1  0  0  0  0
 26 42  1  0  0  0  0
M  END
>  <DRUGBANK_ID>
DB17129

>  <COMMON_NAME>
Pelabresib anhydrous

>  <CAS_NUMBER>
1380087-89-7

>  <UNII>
U4017GUQ06

>  <SYNONYMS>
2-((4s)-6-(4-chlorophenyl)-1-methyl-4h-isoxazolo(5,4-d)(2)benzazepin-4-yl)acetamide; 4h-isoxazolo(5,4-d)(2)benzazepine-4-acetamide, 6-(4-chlorophenyl)-1-methyl-, (4s); CPI-0610 anhydrous; Pelabresib

$$$$
