
 OpenBabel10282417072D

 20 20  0  0  1  0  0  0  0  0999 V2000
   10.8206   -8.0597    0.0000 C   0  0  0  0  0  0  0  0  0  0  0  0
   11.5362   -8.4703    0.0000 C   0  0  0  0  0  0  0  0  0  0  0  0
   10.1088   -8.4703    0.0000 C   0  0  0  0  0  0  0  0  0  0  0  0
   10.8169   -7.2425    0.0000 C   0  0  0  0  0  0  0  0  0  0  0  0
   11.5362   -9.2988    0.0000 C   0  0  2  0  0  0  0  0  0  0  0  0
   10.1088   -9.2988    0.0000 C   0  0  0  0  0  0  0  0  0  0  0  0
   11.5249   -6.8320    0.0000 O   0  0  0  0  0  0  0  0  0  0  0  0
   10.1050   -6.8357    0.0000 O   0  0  0  0  0  0  0  0  0  0  0  0
   10.8206   -9.7169    0.0000 C   0  0  1  0  0  0  0  0  0  0  0  0
   12.2480   -9.7055    0.0000 O   0  0  0  0  0  0  0  0  0  0  0  0
    9.3969   -9.7055    0.0000 O   0  0  0  0  0  0  0  0  0  0  0  0
   10.8169  -10.5379    0.0000 O   0  0  0  0  0  0  0  0  0  0  0  0
   12.4621   -7.9341    0.0000 H   0  0  0  0  0  0  0  0  0  0  0  0
   12.4632   -9.0047    0.0000 H   0  0  0  0  0  0  0  0  0  0  0  0
    9.2152   -7.9541    0.0000 H   0  0  0  0  0  0  0  0  0  0  0  0
   12.4616   -8.7617    0.0000 H   0  0  0  0  0  0  0  0  0  0  0  0
   12.3372   -7.2990    0.0000 H   0  0  0  0  0  0  0  0  0  0  0  0
   11.7474  -10.2516    0.0000 H   0  0  0  0  0  0  0  0  0  0  0  0
   12.2524  -10.6755    0.0000 H   0  0  0  0  0  0  0  0  0  0  0  0
    9.9747  -11.0191    0.0000 H   0  0  0  0  0  0  0  0  0  0  0  0
  1  2  1  0  0  0  0
  1  3  2  0  0  0  0
  1  4  1  0  0  0  0
  2  5  1  0  0  0  0
  2 13  1  0  0  0  0
  2 14  1  0  0  0  0
  3  6  1  0  0  0  0
  3 15  1  0  0  0  0
  4  7  1  0  0  0  0
  4  8  2  0  0  0  0
  5  9  1  0  0  0  0
  5 10  1  0  0  0  0
  5 16  1  6  0  0  0
  6 11  2  0  0  0  0
  6  9  1  0  0  0  0
  7 17  1  0  0  0  0
  9 12  1  0  0  0  0
  9 18  1  1  0  0  0
 10 19  1  0  0  0  0
 12 20  1  0  0  0  0
M  END
>  <DRUGBANK_ID>
DB04347

>  <SECONDARY_ACCESSION_NUMBERS>
EXPT01191

>  <COMMON_NAME>
3-Dehydroshikimate

$$$$
