
 OpenBabel10282417072D

152152  0  0  0  0  0  0  0  0999 V2000
    1.7862    0.7396    0.0000 C   0  0  0  0  0  0  0  0  0  0  0  0
    1.0717    1.1521    0.0000 C   0  0  0  0  0  0  0  0  0  0  0  0
    2.5006    1.1521    0.0000 C   0  0  2  0  0  0  0  0  0  0  0  0
    0.3572    0.7396    0.0000 C   0  0  0  0  0  0  0  0  0  0  0  0
    3.2151    0.7396    0.0000 C   0  0  2  0  0  0  0  0  0  0  0  0
   -0.3572    1.1521    0.0000 C   0  0  0  0  0  0  0  0  0  0  0  0
    3.9296    1.1521    0.0000 C   0  0  0  0  0  0  0  0  0  0  0  0
   -1.0716    0.7396    0.0000 C   0  0  0  0  0  0  0  0  0  0  0  0
   -1.7861    1.1521    0.0000 C   0  0  0  0  0  0  0  0  0  0  0  0
   -2.5006    0.7396    0.0000 C   0  0  0  0  0  0  0  0  0  0  0  0
   -3.2150    1.1521    0.0000 C   0  0  0  0  0  0  0  0  0  0  0  0
   -3.9295    0.7396    0.0000 C   0  0  0  0  0  0  0  0  0  0  0  0
   -4.6440    1.1521    0.0000 C   0  0  0  0  0  0  0  0  0  0  0  0
   -5.3585    0.7396    0.0000 C   0  0  0  0  0  0  0  0  0  0  0  0
   -6.0729    1.1521    0.0000 C   0  0  0  0  0  0  0  0  0  0  0  0
   -6.7874    0.7396    0.0000 C   0  0  0  0  0  0  0  0  0  0  0  0
   -7.5019    1.1521    0.0000 C   0  0  0  0  0  0  0  0  0  0  0  0
   -8.2163    0.7396    0.0000 C   0  0  0  0  0  0  0  0  0  0  0  0
    2.5006    1.9772    0.0000 O   0  0  0  0  0  0  0  0  0  0  0  0
    3.2152   -0.0853    0.0000 N   0  0  0  0  0  0  0  0  0  0  0  0
    1.7863   -0.0856    0.0000 C   0  0  0  0  0  0  0  0  0  0  0  0
    2.5008   -0.4980    0.0000 C   0  0  0  0  0  0  0  0  0  0  0  0
    2.5010   -1.3230    0.0000 O   0  0  0  0  0  0  0  0  0  0  0  0
    6.0729    2.3896    0.0000 C   0  0  2  0  0  0  0  0  0  0  0  0
    5.3585    1.9772    0.0000 C   0  0  2  0  0  0  0  0  0  0  0  0
    5.3585    1.1521    0.0000 C   0  0  1  0  0  0  0  0  0  0  0  0
    6.0729    0.7396    0.0000 O   0  0  0  0  0  0  0  0  0  0  0  0
    6.7874    1.1521    0.0000 C   0  0  1  0  0  0  0  0  0  0  0  0
    6.7874    1.9772    0.0000 C   0  0  2  0  0  0  0  0  0  0  0  0
    7.5019    0.7396    0.0000 C   0  0  0  0  0  0  0  0  0  0  0  0
    7.5019    2.3896    0.0000 O   0  0  0  0  0  0  0  0  0  0  0  0
    6.0729    3.2146    0.0000 O   0  0  0  0  0  0  0  0  0  0  0  0
    4.6440    2.3896    0.0000 O   0  0  0  0  0  0  0  0  0  0  0  0
    4.6440    0.7396    0.0000 O   0  0  0  0  0  0  0  0  0  0  0  0
    8.2163    1.1521    0.0000 O   0  0  0  0  0  0  0  0  0  0  0  0
    6.7874    3.6271    0.0000 S   0  0  0  0  0  0  0  0  0  0  0  0
    7.5018    3.2146    0.0000 O   0  0  0  0  0  0  0  0  0  0  0  0
    7.3707    4.2105    0.0000 O   0  0  0  0  0  0  0  0  0  0  0  0
    6.2040    4.2105    0.0000 O   0  0  0  0  0  0  0  0  0  0  0  0
    1.0718   -0.4981    0.0000 C   0  0  0  0  0  0  0  0  0  0  0  0
    0.3574   -0.0856    0.0000 C   0  0  0  0  0  0  0  0  0  0  0  0
   -0.3570   -0.4981    0.0000 C   0  0  0  0  0  0  0  0  0  0  0  0
   -1.0715   -0.0856    0.0000 C   0  0  0  0  0  0  0  0  0  0  0  0
   -1.7860   -0.4981    0.0000 C   0  0  0  0  0  0  0  0  0  0  0  0
   -2.5004   -0.0856    0.0000 C   0  0  0  0  0  0  0  0  0  0  0  0
   -3.2149   -0.4981    0.0000 C   0  0  0  0  0  0  0  0  0  0  0  0
   -3.9294   -0.0856    0.0000 C   0  0  0  0  0  0  0  0  0  0  0  0
   -4.6438   -0.4981    0.0000 C   0  0  0  0  0  0  0  0  0  0  0  0
   -5.3583   -0.0856    0.0000 C   0  0  0  0  0  0  0  0  0  0  0  0
   -6.0728   -0.4981    0.0000 C   0  0  0  0  0  0  0  0  0  0  0  0
   -6.0728   -1.3231    0.0000 C   0  0  0  0  0  0  0  0  0  0  0  0
   -5.3583   -1.7356    0.0000 C   0  0  0  0  0  0  0  0  0  0  0  0
   -5.3583   -2.5606    0.0000 C   0  0  0  0  0  0  0  0  0  0  0  0
   -6.0728   -2.9731    0.0000 C   0  0  0  0  0  0  0  0  0  0  0  0
   -6.0728   -3.7981    0.0000 C   0  0  0  0  0  0  0  0  0  0  0  0
   -5.3583   -4.2106    0.0000 C   0  0  0  0  0  0  0  0  0  0  0  0
   -4.6438   -3.7981    0.0000 C   0  0  0  0  0  0  0  0  0  0  0  0
   -3.9294   -4.2106    0.0000 C   0  0  0  0  0  0  0  0  0  0  0  0
   -3.2149   -3.7981    0.0000 C   0  0  0  0  0  0  0  0  0  0  0  0
   -2.5004   -4.2106    0.0000 C   0  0  0  0  0  0  0  0  0  0  0  0
   -1.7860   -3.7981    0.0000 C   0  0  0  0  0  0  0  0  0  0  0  0
    1.7862   -0.2924    0.0000 H   0  0  0  0  0  0  0  0  0  0  0  0
    1.0717    2.1841    0.0000 H   0  0  0  0  0  0  0  0  0  0  0  0
    1.5739    1.6871    0.0000 H   0  0  0  0  0  0  0  0  0  0  0  0
    0.3572   -0.3304    0.0000 H   0  0  0  0  0  0  0  0  0  0  0  0
   -0.5695    0.2046    0.0000 H   0  0  0  0  0  0  0  0  0  0  0  0
    2.2885    0.2045    0.0000 H   0  0  0  0  0  0  0  0  0  0  0  0
   -0.3572    2.2221    0.0000 H   0  0  0  0  0  0  0  0  0  0  0  0
   -1.2839    1.6871    0.0000 H   0  0  0  0  0  0  0  0  0  0  0  0
    3.9296    2.2221    0.0000 H   0  0  0  0  0  0  0  0  0  0  0  0
    4.8563    1.6871    0.0000 H   0  0  0  0  0  0  0  0  0  0  0  0
   -1.0716   -0.3304    0.0000 H   0  0  0  0  0  0  0  0  0  0  0  0
   -1.9982    0.2046    0.0000 H   0  0  0  0  0  0  0  0  0  0  0  0
   -1.7861    2.2221    0.0000 H   0  0  0  0  0  0  0  0  0  0  0  0
   -2.7127    1.6871    0.0000 H   0  0  0  0  0  0  0  0  0  0  0  0
   -2.5006   -0.3304    0.0000 H   0  0  0  0  0  0  0  0  0  0  0  0
   -3.4273    0.2046    0.0000 H   0  0  0  0  0  0  0  0  0  0  0  0
   -3.2150    2.2221    0.0000 H   0  0  0  0  0  0  0  0  0  0  0  0
   -4.1416    1.6871    0.0000 H   0  0  0  0  0  0  0  0  0  0  0  0
   -3.9295   -0.3304    0.0000 H   0  0  0  0  0  0  0  0  0  0  0  0
   -4.8561    0.2046    0.0000 H   0  0  0  0  0  0  0  0  0  0  0  0
   -4.6440    2.2221    0.0000 H   0  0  0  0  0  0  0  0  0  0  0  0
   -5.5706    1.6871    0.0000 H   0  0  0  0  0  0  0  0  0  0  0  0
   -5.3585   -0.3304    0.0000 H   0  0  0  0  0  0  0  0  0  0  0  0
   -6.2852    0.2046    0.0000 H   0  0  0  0  0  0  0  0  0  0  0  0
   -6.0729    2.2221    0.0000 H   0  0  0  0  0  0  0  0  0  0  0  0
   -6.9995    1.6871    0.0000 H   0  0  0  0  0  0  0  0  0  0  0  0
   -6.7874   -0.3304    0.0000 H   0  0  0  0  0  0  0  0  0  0  0  0
   -7.7140    0.2046    0.0000 H   0  0  0  0  0  0  0  0  0  0  0  0
   -7.5019    2.2221    0.0000 H   0  0  0  0  0  0  0  0  0  0  0  0
   -8.4286    1.6871    0.0000 H   0  0  0  0  0  0  0  0  0  0  0  0
   -9.1430    1.2746    0.0000 H   0  0  0  0  0  0  0  0  0  0  0  0
   -8.2163   -0.3304    0.0000 H   0  0  0  0  0  0  0  0  0  0  0  0
   -9.1429    0.2046    0.0000 H   0  0  0  0  0  0  0  0  0  0  0  0
    3.3406    2.4622    0.0000 H   0  0  0  0  0  0  0  0  0  0  0  0
    4.0679   -0.5774    0.0000 H   0  0  0  0  0  0  0  0  0  0  0  0
    1.7862    0.9844    0.0000 H   0  0  0  0  0  0  0  0  0  0  0  0
    0.8596    0.4494    0.0000 H   0  0  0  0  0  0  0  0  0  0  0  0
    5.1463    2.9246    0.0000 H   0  0  0  0  0  0  0  0  0  0  0  0
    5.3585    3.0472    0.0000 H   0  0  0  0  0  0  0  0  0  0  0  0
    4.4319    1.6871    0.0000 H   0  0  0  0  0  0  0  0  0  0  0  0
    6.7874    0.0821    0.0000 H   0  0  0  0  0  0  0  0  0  0  0  0
    7.7140    1.4421    0.0000 H   0  0  0  0  0  0  0  0  0  0  0  0
    7.5019   -0.3304    0.0000 H   0  0  0  0  0  0  0  0  0  0  0  0
    8.4286    0.2046    0.0000 H   0  0  0  0  0  0  0  0  0  0  0  0
    8.3419    1.9045    0.0000 H   0  0  0  0  0  0  0  0  0  0  0  0
    4.6439    3.3596    0.0000 H   0  0  0  0  0  0  0  0  0  0  0  0
    9.0564    0.6671    0.0000 H   0  0  0  0  0  0  0  0  0  0  0  0
    7.5018    2.2446    0.0000 H   0  0  0  0  0  0  0  0  0  0  0  0
    1.0718   -1.5681    0.0000 H   0  0  0  0  0  0  0  0  0  0  0  0
    0.1451   -1.0331    0.0000 H   0  0  0  0  0  0  0  0  0  0  0  0
    0.3574    0.9844    0.0000 H   0  0  0  0  0  0  0  0  0  0  0  0
   -0.5693    0.4494    0.0000 H   0  0  0  0  0  0  0  0  0  0  0  0
   -0.3570   -1.5681    0.0000 H   0  0  0  0  0  0  0  0  0  0  0  0
   -1.2836   -1.0331    0.0000 H   0  0  0  0  0  0  0  0  0  0  0  0
   -1.0715    0.9844    0.0000 H   0  0  0  0  0  0  0  0  0  0  0  0
   -1.9981    0.4494    0.0000 H   0  0  0  0  0  0  0  0  0  0  0  0
   -1.7860   -1.5681    0.0000 H   0  0  0  0  0  0  0  0  0  0  0  0
   -2.7127   -1.0331    0.0000 H   0  0  0  0  0  0  0  0  0  0  0  0
   -2.5004    0.9844    0.0000 H   0  0  0  0  0  0  0  0  0  0  0  0
   -3.4270    0.4494    0.0000 H   0  0  0  0  0  0  0  0  0  0  0  0
   -3.2149   -1.5681    0.0000 H   0  0  0  0  0  0  0  0  0  0  0  0
   -4.1415   -1.0331    0.0000 H   0  0  0  0  0  0  0  0  0  0  0  0
   -3.9294    0.9844    0.0000 H   0  0  0  0  0  0  0  0  0  0  0  0
   -4.8561    0.4494    0.0000 H   0  0  0  0  0  0  0  0  0  0  0  0
   -4.6438   -1.5681    0.0000 H   0  0  0  0  0  0  0  0  0  0  0  0
   -5.5704   -1.0331    0.0000 H   0  0  0  0  0  0  0  0  0  0  0  0
   -5.3583    0.9844    0.0000 H   0  0  0  0  0  0  0  0  0  0  0  0
   -6.2849    0.4494    0.0000 H   0  0  0  0  0  0  0  0  0  0  0  0
   -6.9994    0.0369    0.0000 H   0  0  0  0  0  0  0  0  0  0  0  0
   -6.9994   -1.0331    0.0000 H   0  0  0  0  0  0  0  0  0  0  0  0
   -6.9994   -1.8581    0.0000 H   0  0  0  0  0  0  0  0  0  0  0  0
   -6.0728   -2.3931    0.0000 H   0  0  0  0  0  0  0  0  0  0  0  0
   -4.4646   -1.2196    0.0000 H   0  0  0  0  0  0  0  0  0  0  0  0
   -4.4646   -3.0766    0.0000 H   0  0  0  0  0  0  0  0  0  0  0  0
   -6.9994   -2.4381    0.0000 H   0  0  0  0  0  0  0  0  0  0  0  0
   -6.9994   -3.5081    0.0000 H   0  0  0  0  0  0  0  0  0  0  0  0
   -6.9994   -4.3331    0.0000 H   0  0  0  0  0  0  0  0  0  0  0  0
   -6.0728   -4.8681    0.0000 H   0  0  0  0  0  0  0  0  0  0  0  0
   -5.3583   -5.2806    0.0000 H   0  0  0  0  0  0  0  0  0  0  0  0
   -4.4317   -4.7456    0.0000 H   0  0  0  0  0  0  0  0  0  0  0  0
   -4.6438   -2.7281    0.0000 H   0  0  0  0  0  0  0  0  0  0  0  0
   -3.7171   -3.2631    0.0000 H   0  0  0  0  0  0  0  0  0  0  0  0
   -3.9294   -5.2806    0.0000 H   0  0  0  0  0  0  0  0  0  0  0  0
   -3.0028   -4.7456    0.0000 H   0  0  0  0  0  0  0  0  0  0  0  0
   -3.2149   -2.7281    0.0000 H   0  0  0  0  0  0  0  0  0  0  0  0
   -2.2883   -3.2631    0.0000 H   0  0  0  0  0  0  0  0  0  0  0  0
   -2.5004   -5.2806    0.0000 H   0  0  0  0  0  0  0  0  0  0  0  0
   -1.5737   -4.7456    0.0000 H   0  0  0  0  0  0  0  0  0  0  0  0
   -0.8593   -4.3331    0.0000 H   0  0  0  0  0  0  0  0  0  0  0  0
   -1.7860   -2.7281    0.0000 H   0  0  0  0  0  0  0  0  0  0  0  0
   -0.8594   -3.2631    0.0000 H   0  0  0  0  0  0  0  0  0  0  0  0
  1  2  2  0  0  0  0
  1  3  1  0  0  0  0
  1 62  1  0  0  0  0
  2  4  1  0  0  0  0
  2 63  1  0  0  0  0
  3 19  1  0  0  0  0
  3  5  1  0  0  0  0
  3 64  1  6  0  0  0
  4  6  1  0  0  0  0
  4 65  1  0  0  0  0
  4 66  1  0  0  0  0
  5 20  1  0  0  0  0
  5  7  1  0  0  0  0
  5 67  1  1  0  0  0
  6  8  1  0  0  0  0
  6 68  1  0  0  0  0
  6 69  1  0  0  0  0
  7 34  1  0  0  0  0
  7 70  1  0  0  0  0
  7 71  1  0  0  0  0
  8  9  1  0  0  0  0
  8 72  1  0  0  0  0
  8 73  1  0  0  0  0
  9 10  1  0  0  0  0
  9 74  1  0  0  0  0
  9 75  1  0  0  0  0
 10 11  1  0  0  0  0
 10 76  1  0  0  0  0
 10 77  1  0  0  0  0
 11 12  1  0  0  0  0
 11 78  1  0  0  0  0
 11 79  1  0  0  0  0
 12 13  1  0  0  0  0
 12 80  1  0  0  0  0
 12 81  1  0  0  0  0
 13 14  1  0  0  0  0
 13 82  1  0  0  0  0
 13 83  1  0  0  0  0
 14 15  1  0  0  0  0
 14 84  1  0  0  0  0
 14 85  1  0  0  0  0
 15 16  1  0  0  0  0
 15 86  1  0  0  0  0
 15 87  1  0  0  0  0
 16 17  1  0  0  0  0
 16 88  1  0  0  0  0
 16 89  1  0  0  0  0
 17 18  1  0  0  0  0
 17 90  1  0  0  0  0
 17 91  1  0  0  0  0
 18 92  1  0  0  0  0
 18 93  1  0  0  0  0
 18 94  1  0  0  0  0
 19 95  1  0  0  0  0
 20 22  1  0  0  0  0
 20 96  1  0  0  0  0
 21 40  1  0  0  0  0
 21 97  1  0  0  0  0
 21 98  1  0  0  0  0
 22 21  1  0  0  0  0
 22 23  2  0  0  0  0
 24 25  1  0  0  0  0
 24 29  1  0  0  0  0
 24 32  1  0  0  0  0
 24 99  1  6  0  0  0
 25 26  1  0  0  0  0
 25 33  1  0  0  0  0
 25100  1  1  0  0  0
 26 27  1  0  0  0  0
 26 34  1  0  0  0  0
 26101  1  6  0  0  0
 27 28  1  0  0  0  0
 28 29  1  0  0  0  0
 28 30  1  0  0  0  0
 28102  1  6  0  0  0
 29 31  1  0  0  0  0
 29103  1  6  0  0  0
 30 35  1  0  0  0  0
 30104  1  0  0  0  0
 30105  1  0  0  0  0
 31106  1  0  0  0  0
 32 36  1  0  0  0  0
 33107  1  0  0  0  0
 35108  1  0  0  0  0
 36 37  1  0  0  0  0
 36 38  2  0  0  0  0
 36 39  2  0  0  0  0
 37109  1  0  0  0  0
 40 41  1  0  0  0  0
 40110  1  0  0  0  0
 40111  1  0  0  0  0
 41 42  1  0  0  0  0
 41112  1  0  0  0  0
 41113  1  0  0  0  0
 42 43  1  0  0  0  0
 42114  1  0  0  0  0
 42115  1  0  0  0  0
 43 44  1  0  0  0  0
 43116  1  0  0  0  0
 43117  1  0  0  0  0
 44 45  1  0  0  0  0
 44118  1  0  0  0  0
 44119  1  0  0  0  0
 45 46  1  0  0  0  0
 45120  1  0  0  0  0
 45121  1  0  0  0  0
 46 47  1  0  0  0  0
 46122  1  0  0  0  0
 46123  1  0  0  0  0
 47 48  1  0  0  0  0
 47124  1  0  0  0  0
 47125  1  0  0  0  0
 48 49  1  0  0  0  0
 48126  1  0  0  0  0
 48127  1  0  0  0  0
 49 50  1  0  0  0  0
 49128  1  0  0  0  0
 49129  1  0  0  0  0
 50 51  1  0  0  0  0
 50130  1  0  0  0  0
 50131  1  0  0  0  0
 51 52  1  0  0  0  0
 51132  1  0  0  0  0
 51133  1  0  0  0  0
 52 53  2  0  0  0  0
 52134  1  0  0  0  0
 53 54  1  0  0  0  0
 53135  1  0  0  0  0
 54 55  1  0  0  0  0
 54136  1  0  0  0  0
 54137  1  0  0  0  0
 55 56  1  0  0  0  0
 55138  1  0  0  0  0
 55139  1  0  0  0  0
 56 57  1  0  0  0  0
 56140  1  0  0  0  0
 56141  1  0  0  0  0
 57 58  1  0  0  0  0
 57142  1  0  0  0  0
 57143  1  0  0  0  0
 58 59  1  0  0  0  0
 58144  1  0  0  0  0
 58145  1  0  0  0  0
 59 60  1  0  0  0  0
 59146  1  0  0  0  0
 59147  1  0  0  0  0
 60 61  1  0  0  0  0
 60148  1  0  0  0  0
 60149  1  0  0  0  0
 61150  1  0  0  0  0
 61151  1  0  0  0  0
 61152  1  0  0  0  0
M  END
>  <DRUGBANK_ID>
DB04661

>  <COMMON_NAME>
cis-tetracosenoyl sulfatide

>  <CAS_NUMBER>
151057-28-2

>  <UNII>
LH5A9ZGN2U

>  <SYNONYMS>
1-(3-O-sulfo-beta-D-galactosyl)-N-[(15Z)-tetracos-15-enoyl]sphingosine; C24:1 Sulfatide

$$$$
