SIH
 OpenBabel10282417072D

 65 68  0  0  0  0  0  0  0  0999 V2000
   -1.6133    1.1778    0.0000 C   0  0  0  0  0  0  0  0  0  0  0  0
   -2.3278    1.5903    0.0000 C   0  0  0  0  0  0  0  0  0  0  0  0
   -3.0423    1.1778    0.0000 C   0  0  0  0  0  0  0  0  0  0  0  0
   -3.7568    1.5903    0.0000 O   0  0  0  0  0  0  0  0  0  0  0  0
   -3.0423    0.3528    0.0000 C   0  0  0  0  0  0  0  0  0  0  0  0
   -2.3278   -0.0597    0.0000 C   0  0  0  0  0  0  0  0  0  0  0  0
   -2.3278   -0.8847    0.0000 C   0  0  0  0  0  0  0  0  0  0  0  0
   -1.6133   -1.2972    0.0000 C   0  0  0  0  0  0  0  0  0  0  0  0
   -0.8989   -0.8847    0.0000 C   0  0  2  0  0  0  0  0  0  0  0  0
   -0.8989   -0.0597    0.0000 C   0  0  1  0  0  0  0  0  0  0  0  0
   -1.6133    0.3528    0.0000 C   0  0  1  0  0  0  0  0  0  0  0  0
   -0.1844    0.3528    0.0000 C   0  0  2  0  0  0  0  0  0  0  0  0
   -0.1844    1.1778    0.0000 O   0  0  0  0  0  0  0  0  0  0  0  0
    0.5301   -0.0597    0.0000 C   0  0  0  0  0  0  0  0  0  0  0  0
    0.5301   -0.8847    0.0000 C   0  0  1  0  0  0  0  0  0  0  0  0
   -0.1844   -1.2972    0.0000 C   0  0  1  0  0  0  0  0  0  0  0  0
   -0.0129   -2.1042    0.0000 C   0  0  0  0  0  0  0  0  0  0  0  0
    0.8076   -2.1905    0.0000 C   0  0  0  0  0  0  0  0  0  0  0  0
    1.1432   -1.4368    0.0000 C   0  0  2  0  0  0  0  0  0  0  0  0
    1.2837   -0.5492    0.0000 C   0  0  0  0  0  0  0  0  0  0  0  0
   -0.8989    0.7653    0.0000 C   0  0  0  0  0  0  0  0  0  0  0  0
    1.9501   -1.2653    0.0000 C   0  0  0  0  0  0  0  0  0  0  0  0
    2.5022   -1.8783    0.0000 O   0  0  0  0  0  0  0  0  0  0  0  0
    2.2051   -0.4806    0.0000 C   0  0  0  0  0  0  0  0  0  0  0  0
    0.5301    1.5903    0.0000 C   0  0  0  0  0  0  0  0  0  0  0  0
    0.5301    2.4153    0.0000 O   0  0  0  0  0  0  0  0  0  0  0  0
    1.2445    1.1778    0.0000 C   0  0  0  0  0  0  0  0  0  0  0  0
    1.9590    1.5903    0.0000 C   0  0  0  0  0  0  0  0  0  0  0  0
    2.6735    1.1778    0.0000 C   0  0  0  0  0  0  0  0  0  0  0  0
    2.6735    0.3528    0.0000 O   0  0  0  0  0  0  0  0  0  0  0  0
    3.3880    1.5903    0.0000 O   0  0  0  0  0  0  0  0  0  0  0  0
   -0.8989   -1.4687    0.0000 H   0  0  0  0  0  0  0  0  0  0  0  0
   -1.0986    0.4890    0.0000 H   0  0  0  0  0  0  0  0  0  0  0  0
   -0.5597    0.8001    0.0000 H   0  0  0  0  0  0  0  0  0  0  0  0
   -0.6568   -1.6405    0.0000 H   0  0  0  0  0  0  0  0  0  0  0  0
    1.2943   -0.8727    0.0000 H   0  0  0  0  0  0  0  0  0  0  0  0
   -0.6867    1.7128    0.0000 H   0  0  0  0  0  0  0  0  0  0  0  0
   -0.6867    0.6428    0.0000 H   0  0  0  0  0  0  0  0  0  0  0  0
   -2.3278    2.6603    0.0000 H   0  0  0  0  0  0  0  0  0  0  0  0
   -3.2544    2.1253    0.0000 H   0  0  0  0  0  0  0  0  0  0  0  0
   -3.9360   -0.1632    0.0000 H   0  0  0  0  0  0  0  0  0  0  0  0
   -3.2544   -1.4197    0.0000 H   0  0  0  0  0  0  0  0  0  0  0  0
   -2.3278   -1.9547    0.0000 H   0  0  0  0  0  0  0  0  0  0  0  0
   -1.6133   -2.3672    0.0000 H   0  0  0  0  0  0  0  0  0  0  0  0
   -0.6866   -1.8322    0.0000 H   0  0  0  0  0  0  0  0  0  0  0  0
    1.4567    0.4753    0.0000 H   0  0  0  0  0  0  0  0  0  0  0  0
    1.4567   -0.5947    0.0000 H   0  0  0  0  0  0  0  0  0  0  0  0
   -0.7289   -2.8993    0.0000 H   0  0  0  0  0  0  0  0  0  0  0  0
    0.3705   -3.1032    0.0000 H   0  0  0  0  0  0  0  0  0  0  0  0
    1.3425   -3.1172    0.0000 H   0  0  0  0  0  0  0  0  0  0  0  0
    1.8761   -2.1345    0.0000 H   0  0  0  0  0  0  0  0  0  0  0  0
    2.1493   -1.1782    0.0000 H   0  0  0  0  0  0  0  0  0  0  0  0
    1.3956    0.5149    0.0000 H   0  0  0  0  0  0  0  0  0  0  0  0
    2.2612   -0.1140    0.0000 H   0  0  0  0  0  0  0  0  0  0  0  0
    0.0278    0.2303    0.0000 H   0  0  0  0  0  0  0  0  0  0  0  0
   -0.8989    1.8353    0.0000 H   0  0  0  0  0  0  0  0  0  0  0  0
    0.0277    1.3003    0.0000 H   0  0  0  0  0  0  0  0  0  0  0  0
    3.2517   -0.2582    0.0000 H   0  0  0  0  0  0  0  0  0  0  0  0
    1.4892    0.3146    0.0000 H   0  0  0  0  0  0  0  0  0  0  0  0
    2.5358    0.5370    0.0000 H   0  0  0  0  0  0  0  0  0  0  0  0
    1.2445    0.1078    0.0000 H   0  0  0  0  0  0  0  0  0  0  0  0
    2.1711    0.6428    0.0000 H   0  0  0  0  0  0  0  0  0  0  0  0
    1.9590    2.6603    0.0000 H   0  0  0  0  0  0  0  0  0  0  0  0
    2.8856    2.1253    0.0000 H   0  0  0  0  0  0  0  0  0  0  0  0
    4.1995    1.1218    0.0000 H   0  0  0  0  0  0  0  0  0  0  0  0
  1  2  1  0  0  0  0
  1 11  1  0  0  0  0
  1 37  1  0  0  0  0
  1 38  1  0  0  0  0
  2  3  1  0  0  0  0
  2 39  1  0  0  0  0
  2 40  1  0  0  0  0
  3  4  2  0  0  0  0
  3  5  1  0  0  0  0
  5  6  2  0  0  0  0
  5 41  1  0  0  0  0
  6  7  1  0  0  0  0
  6 11  1  0  0  0  0
  7  8  1  0  0  0  0
  7 42  1  0  0  0  0
  7 43  1  0  0  0  0
  8  9  1  0  0  0  0
  8 44  1  0  0  0  0
  8 45  1  0  0  0  0
  9 10  1  0  0  0  0
  9 16  1  0  0  0  0
  9 32  1  1  0  0  0
 10 11  1  0  0  0  0
 10 12  1  0  0  0  0
 10 33  1  6  0  0  0
 11 21  1  1  0  0  0
 12 13  1  0  0  0  0
 12 14  1  0  0  0  0
 12 34  1  1  0  0  0
 13 25  1  0  0  0  0
 14 15  1  0  0  0  0
 14 46  1  0  0  0  0
 14 47  1  0  0  0  0
 15 16  1  0  0  0  0
 15 19  1  0  0  0  0
 15 20  1  1  0  0  0
 16 17  1  0  0  0  0
 16 35  1  6  0  0  0
 17 18  1  0  0  0  0
 17 48  1  0  0  0  0
 17 49  1  0  0  0  0
 18 19  1  0  0  0  0
 18 50  1  0  0  0  0
 18 51  1  0  0  0  0
 19 22  1  0  0  0  0
 19 36  1  6  0  0  0
 20 52  1  0  0  0  0
 20 53  1  0  0  0  0
 20 54  1  0  0  0  0
 21 55  1  0  0  0  0
 21 56  1  0  0  0  0
 21 57  1  0  0  0  0
 22 23  2  0  0  0  0
 22 24  1  0  0  0  0
 24 58  1  0  0  0  0
 24 59  1  0  0  0  0
 24 60  1  0  0  0  0
 25 26  2  0  0  0  0
 25 27  1  0  0  0  0
 27 28  1  0  0  0  0
 27 61  1  0  0  0  0
 27 62  1  0  0  0  0
 28 29  1  0  0  0  0
 28 63  1  0  0  0  0
 28 64  1  0  0  0  0
 29 30  2  0  0  0  0
 29 31  1  0  0  0  0
 31 65  1  0  0  0  0
M  END
>  <DRUGBANK_ID>
DB08547

>  <COMMON_NAME>
PROGESTERONE-11-ALPHA-OL-HEMISUCCINATE

$$$$
