
 OpenBabel10282417072D

 53 52  0  0  1  0  0  0  0  0999 V2000
    5.3988    0.3152    0.0000 C   0  0  0  0  0  0  0  0  0  0  0  0
    6.7859    0.6584    0.0000 C   0  0  0  0  0  0  0  0  0  0  0  0
    8.1731    1.0016    0.0000 C   0  0  0  0  0  0  0  0  0  0  0  0
    4.2099   -0.8289    0.0000 C   0  0  0  0  0  0  0  0  0  0  0  0
    3.6154   -1.4009    0.0000 C   0  0  0  0  0  0  0  0  0  0  0  0
    5.0025   -1.0577    0.0000 C   0  0  0  0  0  0  0  0  0  0  0  0
    2.8228   -1.1721    0.0000 C   0  0  0  0  0  0  0  0  0  0  0  0
    6.3896   -0.7145    0.0000 C   0  0  0  0  0  0  0  0  0  0  0  0
    7.7767   -0.3713    0.0000 C   0  0  0  0  0  0  0  0  0  0  0  0
    9.1638   -0.0280    0.0000 C   0  0  0  0  0  0  0  0  0  0  0  0
    0.8412   -2.0874    0.0000 C   0  0  0  0  0  0  0  0  0  0  0  0
    1.2375   -0.7145    0.0000 C   0  0  0  0  0  0  0  0  0  0  0  0
    5.5970   -0.4857    0.0000 C   0  0  2  0  0  0  0  0  0  0  0  0
    6.9841   -0.1424    0.0000 C   0  0  0  0  0  0  0  0  0  0  0  0
    8.3712    0.2008    0.0000 C   0  0  0  0  0  0  0  0  0  0  0  0
    1.4357   -1.5153    0.0000 C   0  0  2  0  0  0  0  0  0  0  0  0
    2.2283   -1.7441    0.0000 C   0  0  2  0  0  0  0  0  0  0  0  0
    9.7583    0.5440    0.0000 C   0  0  0  0  0  0  0  0  0  0  0  0
    0.0485   -1.8585    0.0000 O   0  0  0  0  0  0  0  0  0  0  0  0
    1.8320   -0.1424    0.0000 O   0  0  0  0  0  0  0  0  0  0  0  0
    2.4265   -2.5450    0.0000 O   0  0  0  0  0  0  0  0  0  0  0  0
    9.5602    1.3449    0.0000 O   0  0  0  0  0  0  0  0  0  0  0  0
   10.5510    0.3152    0.0000 O   0  0  0  0  0  0  0  0  0  0  0  0
    7.9749   -1.1721    0.0000 H   0  0  0  0  0  0  0  0  0  0  0  0
    9.3620   -0.8289    0.0000 H   0  0  0  0  0  0  0  0  0  0  0  0
    4.8044   -0.2568    0.0000 H   0  0  0  0  0  0  0  0  0  0  0  0
    0.6430   -1.2865    0.0000 H   0  0  0  0  0  0  0  0  0  0  0  0
    2.0301   -0.9433    0.0000 H   0  0  0  0  0  0  0  0  0  0  0  0
    6.1698    1.0571    0.0000 H   0  0  0  0  0  0  0  0  0  0  0  0
    4.3708    0.6119    0.0000 H   0  0  0  0  0  0  0  0  0  0  0  0
    5.1418    1.3539    0.0000 H   0  0  0  0  0  0  0  0  0  0  0  0
    7.5569    1.4004    0.0000 H   0  0  0  0  0  0  0  0  0  0  0  0
    5.7579    0.9551    0.0000 H   0  0  0  0  0  0  0  0  0  0  0  0
    6.5288    1.6971    0.0000 H   0  0  0  0  0  0  0  0  0  0  0  0
    8.9442    1.7435    0.0000 H   0  0  0  0  0  0  0  0  0  0  0  0
    7.1451    1.2984    0.0000 H   0  0  0  0  0  0  0  0  0  0  0  0
    7.9162    2.0403    0.0000 H   0  0  0  0  0  0  0  0  0  0  0  0
    3.9529    0.2098    0.0000 H   0  0  0  0  0  0  0  0  0  0  0  0
    4.9809   -0.0870    0.0000 H   0  0  0  0  0  0  0  0  0  0  0  0
    3.8724   -2.4396    0.0000 H   0  0  0  0  0  0  0  0  0  0  0  0
    2.8444   -2.1428    0.0000 H   0  0  0  0  0  0  0  0  0  0  0  0
    5.2595   -2.0964    0.0000 H   0  0  0  0  0  0  0  0  0  0  0  0
    6.0305   -1.3545    0.0000 H   0  0  0  0  0  0  0  0  0  0  0  0
    2.5658   -0.1334    0.0000 H   0  0  0  0  0  0  0  0  0  0  0  0
    1.7948   -0.8753    0.0000 H   0  0  0  0  0  0  0  0  0  0  0  0
    6.6466   -1.7532    0.0000 H   0  0  0  0  0  0  0  0  0  0  0  0
    7.4176   -1.0112    0.0000 H   0  0  0  0  0  0  0  0  0  0  0  0
    1.0891   -3.0892    0.0000 H   0  0  0  0  0  0  0  0  0  0  0  0
    0.2095   -0.4178    0.0000 H   0  0  0  0  0  0  0  0  0  0  0  0
    0.9804    0.3242    0.0000 H   0  0  0  0  0  0  0  0  0  0  0  0
    2.7640   -0.4114    0.0000 H   0  0  0  0  0  0  0  0  0  0  0  0
    1.7276   -3.2176    0.0000 H   0  0  0  0  0  0  0  0  0  0  0  0
   10.7761   -0.5944    0.0000 H   0  0  0  0  0  0  0  0  0  0  0  0
  1 29  1  0  0  0  0
  1 30  1  0  0  0  0
  1 31  1  0  0  0  0
  2 32  1  0  0  0  0
  2 33  1  0  0  0  0
  2 34  1  0  0  0  0
  3 35  1  0  0  0  0
  3 36  1  0  0  0  0
  3 37  1  0  0  0  0
  4 38  1  0  0  0  0
  4 39  1  0  0  0  0
  5  4  1  0  0  0  0
  5 40  1  0  0  0  0
  5 41  1  0  0  0  0
  6  4  1  0  0  0  0
  6 42  1  0  0  0  0
  6 43  1  0  0  0  0
  7  5  1  0  0  0  0
  7 44  1  0  0  0  0
  7 45  1  0  0  0  0
  8 46  1  0  0  0  0
  8 47  1  0  0  0  0
 11 48  1  0  0  0  0
 12 49  1  0  0  0  0
 12 50  1  0  0  0  0
 13  1  1  0  0  0  0
 13  6  1  0  0  0  0
 13  8  1  0  0  0  0
 13 26  1  6  0  0  0
 14  2  1  0  0  0  0
 14  8  1  0  0  0  0
 14  9  2  0  0  0  0
 15  3  1  0  0  0  0
 15  9  1  0  0  0  0
 15 10  2  3  0  0  0
 16 11  1  0  0  0  0
 16 12  1  0  0  0  0
 16 27  1  1  0  0  0
 17  7  1  0  0  0  0
 17 16  1  0  0  0  0
 17 21  1  0  0  0  0
 17 28  1  6  0  0  0
 18 10  1  0  0  0  0
 19 11  2  0  0  0  0
 20 12  1  0  0  0  0
 20 51  1  0  0  0  0
 21 52  1  0  0  0  0
 22 18  2  0  0  0  0
 23 18  1  0  0  0  0
 23 53  1  0  0  0  0
 24  9  1  0  0  0  0
 25 10  1  0  0  0  0
M  END
>  <DRUGBANK_ID>
DB07740

>  <COMMON_NAME>
(7R,12R,13R)-13-formyl-12,14-dihydroxy-3,5,7-trimethyltetradeca-2,4-dienoic acid

$$$$
