
 OpenBabel10282417072D

 70 71  0  0  1  0  0  0  0  0999 V2000
   -7.4876   -6.4019    0.0000 C   0  0  0  0  0  0  0  0  0  0  0  0
   -7.3161   -5.5949    0.0000 C   0  0  0  0  0  0  0  0  0  0  0  0
   -7.9292   -5.0429    0.0000 C   0  0  0  0  0  0  0  0  0  0  0  0
   -6.5315   -5.3400    0.0000 C   0  0  0  0  0  0  0  0  0  0  0  0
   -5.9184   -5.8920    0.0000 C   0  0  2  0  0  0  0  0  0  0  0  0
   -6.0899   -6.6990    0.0000 N   0  0  0  0  0  0  0  0  0  0  0  0
   -6.8745   -6.9539    0.0000 C   0  0  0  0  0  0  0  0  0  0  0  0
   -7.6950   -6.8677    0.0000 O   0  0  0  0  0  0  0  0  0  0  0  0
   -7.0461   -7.7609    0.0000 C   0  0  0  0  0  0  0  0  0  0  0  0
   -6.4330   -8.3129    0.0000 C   0  0  0  0  0  0  0  0  0  0  0  0
   -6.6045   -9.1199    0.0000 C   0  0  0  0  0  0  0  0  0  0  0  0
   -7.3891   -9.3748    0.0000 C   0  0  0  0  0  0  0  0  0  0  0  0
   -8.0022   -8.8228    0.0000 C   0  0  0  0  0  0  0  0  0  0  0  0
   -7.8307   -8.0158    0.0000 C   0  0  0  0  0  0  0  0  0  0  0  0
   -7.5606  -10.1818    0.0000 N   0  3  0  0  0  0  0  0  0  0  0  0
   -8.3453  -10.4367    0.0000 O   0  5  0  0  0  0  0  0  0  0  0  0
   -6.9476  -10.7338    0.0000 O   0  0  0  0  0  0  0  0  0  0  0  0
   -5.1338   -5.6370    0.0000 C   0  0  0  0  0  0  0  0  0  0  0  0
   -4.5207   -6.1891    0.0000 O   0  0  0  0  0  0  0  0  0  0  0  0
   -4.9622   -4.8301    0.0000 N   0  0  0  0  0  0  0  0  0  0  0  0
   -5.5143   -4.2170    0.0000 C   0  0  0  0  0  0  0  0  0  0  0  0
   -5.1018   -3.5025    0.0000 C   0  0  0  0  0  0  0  0  0  0  0  0
   -4.2948   -3.6740    0.0000 C   0  0  0  0  0  0  0  0  0  0  0  0
   -4.2086   -4.4945    0.0000 C   0  0  1  0  0  0  0  0  0  0  0  0
   -3.4941   -4.9070    0.0000 C   0  0  0  0  0  0  0  0  0  0  0  0
   -3.4941   -5.7320    0.0000 O   0  0  0  0  0  0  0  0  0  0  0  0
   -2.7796   -4.4945    0.0000 N   0  0  0  0  0  0  0  0  0  0  0  0
   -2.0652   -4.9070    0.0000 C   0  0  0  0  0  0  0  0  0  0  0  0
   -1.3507   -4.4945    0.0000 C   0  0  0  0  0  0  0  0  0  0  0  0
   -0.6362   -4.9070    0.0000 C   0  0  0  0  0  0  0  0  0  0  0  0
    0.0783   -4.4945    0.0000 C   0  0  0  0  0  0  0  0  0  0  0  0
    0.7927   -4.9070    0.0000 N   0  0  0  0  0  0  0  0  0  0  0  0
    1.5072   -4.4945    0.0000 C   0  0  0  0  0  0  0  0  0  0  0  0
    1.5072   -3.6695    0.0000 N   0  0  0  0  0  0  0  0  0  0  0  0
    2.2217   -4.9070    0.0000 N   0  0  0  0  0  0  0  0  0  0  0  0
   -8.5052   -6.7326    0.0000 H   0  0  0  0  0  0  0  0  0  0  0  0
   -6.6924   -7.1178    0.0000 H   0  0  0  0  0  0  0  0  0  0  0  0
   -7.7100   -7.4485    0.0000 H   0  0  0  0  0  0  0  0  0  0  0  0
   -7.0936   -4.5483    0.0000 H   0  0  0  0  0  0  0  0  0  0  0  0
   -7.7068   -3.9963    0.0000 H   0  0  0  0  0  0  0  0  0  0  0  0
   -8.9468   -5.3736    0.0000 H   0  0  0  0  0  0  0  0  0  0  0  0
   -8.7244   -4.3270    0.0000 H   0  0  0  0  0  0  0  0  0  0  0  0
   -6.3090   -4.2934    0.0000 H   0  0  0  0  0  0  0  0  0  0  0  0
   -5.5139   -5.0093    0.0000 H   0  0  0  0  0  0  0  0  0  0  0  0
   -6.9360   -6.2227    0.0000 H   0  0  0  0  0  0  0  0  0  0  0  0
   -5.3583   -7.3578    0.0000 H   0  0  0  0  0  0  0  0  0  0  0  0
   -5.4515   -7.9940    0.0000 H   0  0  0  0  0  0  0  0  0  0  0  0
   -5.8376   -9.8104    0.0000 H   0  0  0  0  0  0  0  0  0  0  0  0
   -8.9837   -9.1417    0.0000 H   0  0  0  0  0  0  0  0  0  0  0  0
   -8.5976   -7.3253    0.0000 H   0  0  0  0  0  0  0  0  0  0  0  0
   -6.5784   -4.3289    0.0000 H   0  0  0  0  0  0  0  0  0  0  0  0
   -6.0971   -3.3196    0.0000 H   0  0  0  0  0  0  0  0  0  0  0  0
   -5.5370   -2.5250    0.0000 H   0  0  0  0  0  0  0  0  0  0  0  0
   -4.4285   -2.6709    0.0000 H   0  0  0  0  0  0  0  0  0  0  0  0
   -3.4996   -2.9580    0.0000 H   0  0  0  0  0  0  0  0  0  0  0  0
   -3.2959   -4.0575    0.0000 H   0  0  0  0  0  0  0  0  0  0  0  0
   -3.3112   -3.9117    0.0000 H   0  0  0  0  0  0  0  0  0  0  0  0
   -2.7796   -3.5100    0.0000 H   0  0  0  0  0  0  0  0  0  0  0  0
   -2.0652   -5.9770    0.0000 H   0  0  0  0  0  0  0  0  0  0  0  0
   -1.1386   -5.4420    0.0000 H   0  0  0  0  0  0  0  0  0  0  0  0
   -1.3507   -3.4245    0.0000 H   0  0  0  0  0  0  0  0  0  0  0  0
   -0.4241   -3.9595    0.0000 H   0  0  0  0  0  0  0  0  0  0  0  0
   -0.6362   -5.9770    0.0000 H   0  0  0  0  0  0  0  0  0  0  0  0
    0.2904   -5.4420    0.0000 H   0  0  0  0  0  0  0  0  0  0  0  0
    0.0783   -3.4245    0.0000 H   0  0  0  0  0  0  0  0  0  0  0  0
    1.0050   -3.9595    0.0000 H   0  0  0  0  0  0  0  0  0  0  0  0
    2.3598   -3.1772    0.0000 H   0  0  0  0  0  0  0  0  0  0  0  0
    0.6546   -3.1773    0.0000 H   0  0  0  0  0  0  0  0  0  0  0  0
    2.2217   -5.8915    0.0000 H   0  0  0  0  0  0  0  0  0  0  0  0
    3.0743   -4.4147    0.0000 H   0  0  0  0  0  0  0  0  0  0  0  0
  1  2  1  0  0  0  0
  1 36  1  0  0  0  0
  1 37  1  0  0  0  0
  1 38  1  0  0  0  0
  2  3  1  0  0  0  0
  2  4  1  0  0  0  0
  2 39  1  0  0  0  0
  3 40  1  0  0  0  0
  3 41  1  0  0  0  0
  3 42  1  0  0  0  0
  4  5  1  0  0  0  0
  4 43  1  0  0  0  0
  4 44  1  0  0  0  0
  5  6  1  0  0  0  0
  5 18  1  0  0  0  0
  5 45  1  6  0  0  0
  6  7  1  0  0  0  0
  6 46  1  0  0  0  0
  7  8  2  0  0  0  0
  7  9  1  0  0  0  0
  9 10  2  0  0  0  0
  9 14  1  0  0  0  0
 10 11  1  0  0  0  0
 10 47  1  0  0  0  0
 11 12  2  0  0  0  0
 11 48  1  0  0  0  0
 12 13  1  0  0  0  0
 12 15  1  0  0  0  0
 13 14  2  0  0  0  0
 13 49  1  0  0  0  0
 14 50  1  0  0  0  0
 15 16  1  0  0  0  0
 15 17  2  0  0  0  0
 18 19  2  0  0  0  0
 18 20  1  0  0  0  0
 20 21  1  0  0  0  0
 20 24  1  0  0  0  0
 21 22  1  0  0  0  0
 21 51  1  0  0  0  0
 21 52  1  0  0  0  0
 22 23  1  0  0  0  0
 22 53  1  0  0  0  0
 22 54  1  0  0  0  0
 23 24  1  0  0  0  0
 23 55  1  0  0  0  0
 23 56  1  0  0  0  0
 24 25  1  0  0  0  0
 24 57  1  6  0  0  0
 25 26  2  0  0  0  0
 25 27  1  0  0  0  0
 27 28  1  0  0  0  0
 27 58  1  0  0  0  0
 28 29  1  0  0  0  0
 28 59  1  0  0  0  0
 28 60  1  0  0  0  0
 29 30  1  0  0  0  0
 29 61  1  0  0  0  0
 29 62  1  0  0  0  0
 30 31  1  0  0  0  0
 30 63  1  0  0  0  0
 30 64  1  0  0  0  0
 31 32  1  0  0  0  0
 31 65  1  0  0  0  0
 31 66  1  0  0  0  0
 32 33  2  0  0  0  0
 33 34  1  0  0  0  0
 33 35  1  0  0  0  0
 34 67  1  0  0  0  0
 34 68  1  0  0  0  0
 35 69  1  0  0  0  0
 35 70  1  0  0  0  0
M  CHG  2  15   1  16  -1
M  END
>  <DRUGBANK_ID>
DB04771

>  <COMMON_NAME>
1-GUANIDINO-4-(N-NITRO-BENZOYLAMINO-L-LEUCYL-L-PROLYLAMINO)BUTANE

$$$$
