
 OpenBabel10282417072D

 42 44  0  0  1  0  0  0  0  0999 V2000
    9.7100   -8.7885    0.0000 C   0  0  0  0  0  0  0  0  0  0  0  0
   10.4429   -9.0493    0.0000 N   0  0  0  0  0  0  0  0  0  0  0  0
    9.7100   -8.0119    0.0000 C   0  0  0  0  0  0  0  0  0  0  0  0
    9.0143   -9.1797    0.0000 N   0  0  0  0  0  0  0  0  0  0  0  0
   10.4553   -7.7387    0.0000 N   0  0  0  0  0  0  0  0  0  0  0  0
    8.3310   -8.0119    0.0000 N   0  0  0  0  0  0  0  0  0  0  0  0
    9.0143   -7.6207    0.0000 C   0  0  0  0  0  0  0  0  0  0  0  0
    8.3310   -8.7885    0.0000 C   0  0  0  0  0  0  0  0  0  0  0  0
   10.9274   -8.3909    0.0000 C   0  0  0  0  0  0  0  0  0  0  0  0
    9.0143   -6.8194    0.0000 O   0  0  0  0  0  0  0  0  0  0  0  0
    7.6416   -9.1673    0.0000 N   0  0  0  0  0  0  0  0  0  0  0  0
    9.0951  -10.5959    0.0000 C   0  0  1  0  0  0  0  0  0  0  0  0
    9.7721  -10.0991    0.0000 O   0  0  0  0  0  0  0  0  0  0  0  0
    9.3559  -11.3786    0.0000 C   0  0  2  0  0  0  0  0  0  0  0  0
   10.4429  -10.5959    0.0000 C   0  0  2  0  0  0  0  0  0  0  0  0
   10.1821  -11.3786    0.0000 C   0  0  0  0  0  0  0  0  0  0  0  0
    8.8713  -12.0619    0.0000 O   0  0  0  0  0  0  0  0  0  0  0  0
    8.3061  -10.3351    0.0000 C   0  0  0  0  0  0  0  0  0  0  0  0
    7.5976  -10.7640    0.0000 O   0  0  0  0  0  0  0  0  0  0  0  0
    4.7885  -11.4087    0.0000 O   0  0  0  0  0  0  0  0  0  0  0  0
    5.3948  -10.8298    0.0000 P   0  0  0  0  0  0  0  0  0  0  0  0
    6.1930  -11.0863    0.0000 O   0  0  0  0  0  0  0  0  0  0  0  0
    6.7994  -10.5074    0.0000 P   0  0  3  0  0  0  0  0  0  0  0  0
    5.2101  -10.0246    0.0000 O   0  0  0  0  0  0  0  0  0  0  0  0
    6.6147   -9.7022    0.0000 O   0  0  0  0  0  0  0  0  0  0  0  0
    5.5194  -11.6345    0.0000 O   0  0  0  0  0  0  0  0  0  0  0  0
    6.9441  -11.2817    0.0000 O   0  0  0  0  0  0  0  0  0  0  0  0
    7.4793   -7.5181    0.0000 H   0  0  0  0  0  0  0  0  0  0  0  0
   11.9594   -8.3949    0.0000 H   0  0  0  0  0  0  0  0  0  0  0  0
    6.7996   -8.6571    0.0000 H   0  0  0  0  0  0  0  0  0  0  0  0
    7.6208  -10.1516    0.0000 H   0  0  0  0  0  0  0  0  0  0  0  0
    8.9279   -9.5390    0.0000 H   0  0  0  0  0  0  0  0  0  0  0  0
    8.2975  -11.2212    0.0000 H   0  0  0  0  0  0  0  0  0  0  0  0
    9.9615   -9.6403    0.0000 H   0  0  0  0  0  0  0  0  0  0  0  0
   10.8078  -12.2466    0.0000 H   0  0  0  0  0  0  0  0  0  0  0  0
   11.2398  -11.2171    0.0000 H   0  0  0  0  0  0  0  0  0  0  0  0
    7.9055  -11.9716    0.0000 H   0  0  0  0  0  0  0  0  0  0  0  0
    8.1859   -9.2719    0.0000 H   0  0  0  0  0  0  0  0  0  0  0  0
    7.3459   -9.8630    0.0000 H   0  0  0  0  0  0  0  0  0  0  0  0
    3.8576  -11.1361    0.0000 H   0  0  0  0  0  0  0  0  0  0  0  0
    4.7635  -12.2423    0.0000 H   0  0  0  0  0  0  0  0  0  0  0  0
    6.2074  -11.9128    0.0000 H   0  0  0  0  0  0  0  0  0  0  0  0
  2  1  1  0  0  0  0
  3  1  2  0  0  0  0
  4  1  1  0  0  0  0
  5  3  1  0  0  0  0
  6 28  1  0  0  0  0
  7  3  1  0  0  0  0
  7  6  1  0  0  0  0
  8  4  2  0  0  0  0
  8  6  1  0  0  0  0
  9  2  1  0  0  0  0
  9  5  2  0  0  0  0
  9 29  1  0  0  0  0
 10  7  2  0  0  0  0
 11  8  1  0  0  0  0
 11 30  1  0  0  0  0
 11 31  1  0  0  0  0
 12 18  1  0  0  0  0
 12 32  1  6  0  0  0
 13 12  1  0  0  0  0
 14 12  1  0  0  0  0
 14 17  1  0  0  0  0
 14 33  1  1  0  0  0
 15  2  1  0  0  0  0
 15 13  1  0  0  0  0
 15 34  1  6  0  0  0
 16 14  1  0  0  0  0
 16 15  1  0  0  0  0
 16 35  1  0  0  0  0
 16 36  1  0  0  0  0
 17 37  1  0  0  0  0
 18 38  1  0  0  0  0
 18 39  1  0  0  0  0
 19 18  1  0  0  0  0
 20 40  1  0  0  0  0
 21 20  1  0  0  0  0
 22 21  1  0  0  0  0
 23 19  1  0  0  0  0
 23 22  1  0  0  0  0
 24 21  2  0  0  0  0
 25 23  2  0  0  0  0
 26 21  1  0  0  0  0
 26 41  1  0  0  0  0
 27 23  1  0  0  0  0
 27 42  1  0  0  0  0
M  END
>  <DRUGBANK_ID>
DB03491

>  <SECONDARY_ACCESSION_NUMBERS>
EXPT01179

>  <COMMON_NAME>
2'-Deoxyguanosine-5'-Diphosphate

$$$$
