
 OpenBabel10282417072D

 41 40  0  0  1  0  0  0  0  0999 V2000
   24.6614  -19.3585    0.0000 S   0  0  0  0  0  0  0  0  0  0  0  0
   23.9470  -20.5960    0.0000 O   0  0  0  0  0  0  0  0  0  0  0  0
   20.3745  -17.7085    0.0000 O   0  0  0  0  0  0  0  0  0  0  0  0
   28.9483  -17.7085    0.0000 O   0  0  0  0  0  0  0  0  0  0  0  0
   21.0891  -18.9461    0.0000 O   0  0  0  0  0  0  0  0  0  0  0  0
   28.2338  -18.9461    0.0000 O   0  0  0  0  0  0  0  0  0  0  0  0
   26.0903  -16.8836    0.0000 O   0  0  0  0  0  0  0  0  0  0  0  0
   23.9470  -18.9461    0.0000 O   0  0  0  0  0  0  0  0  0  0  0  0
   24.6614  -17.7085    0.0000 N   0  0  0  0  0  0  0  0  0  0  0  0
   26.8049  -18.1210    0.0000 N   0  0  0  0  0  0  0  0  0  0  0  0
   21.8035  -16.8836    0.0000 N   0  0  0  0  0  0  0  0  0  0  0  0
   21.8035  -17.7085    0.0000 C   0  0  1  0  0  0  0  0  0  0  0  0
   25.3759  -18.1210    0.0000 C   0  0  1  0  0  0  0  0  0  0  0  0
   24.6614  -20.1836    0.0000 C   0  0  0  0  0  0  0  0  0  0  0  0
   25.3759  -18.9461    0.0000 C   0  0  0  0  0  0  0  0  0  0  0  0
   22.5180  -18.1210    0.0000 C   0  0  0  0  0  0  0  0  0  0  0  0
   27.5193  -17.7085    0.0000 C   0  0  0  0  0  0  0  0  0  0  0  0
   23.2324  -17.7085    0.0000 C   0  0  0  0  0  0  0  0  0  0  0  0
   21.0891  -18.1210    0.0000 C   0  0  0  0  0  0  0  0  0  0  0  0
   28.2338  -18.1210    0.0000 C   0  0  0  0  0  0  0  0  0  0  0  0
   26.0903  -17.7085    0.0000 C   0  0  0  0  0  0  0  0  0  0  0  0
   23.9470  -18.1210    0.0000 C   0  0  0  0  0  0  0  0  0  0  0  0
   23.1070  -20.1109    0.0000 H   0  0  0  0  0  0  0  0  0  0  0  0
   20.3744  -16.7715    0.0000 H   0  0  0  0  0  0  0  0  0  0  0  0
   29.7598  -18.1770    0.0000 H   0  0  0  0  0  0  0  0  0  0  0  0
   24.6614  -16.7240    0.0000 H   0  0  0  0  0  0  0  0  0  0  0  0
   26.8050  -19.1055    0.0000 H   0  0  0  0  0  0  0  0  0  0  0  0
   22.6868  -16.3736    0.0000 H   0  0  0  0  0  0  0  0  0  0  0  0
   20.9202  -16.3736    0.0000 H   0  0  0  0  0  0  0  0  0  0  0  0
   22.7301  -17.1735    0.0000 H   0  0  0  0  0  0  0  0  0  0  0  0
   24.4493  -18.6560    0.0000 H   0  0  0  0  0  0  0  0  0  0  0  0
   25.5880  -20.7186    0.0000 H   0  0  0  0  0  0  0  0  0  0  0  0
   24.6614  -21.2536    0.0000 H   0  0  0  0  0  0  0  0  0  0  0  0
   26.3025  -19.4812    0.0000 H   0  0  0  0  0  0  0  0  0  0  0  0
   26.3026  -18.4111    0.0000 H   0  0  0  0  0  0  0  0  0  0  0  0
   22.5180  -19.1910    0.0000 H   0  0  0  0  0  0  0  0  0  0  0  0
   23.4447  -18.6560    0.0000 H   0  0  0  0  0  0  0  0  0  0  0  0
   27.5193  -16.6385    0.0000 H   0  0  0  0  0  0  0  0  0  0  0  0
   28.4459  -17.1735    0.0000 H   0  0  0  0  0  0  0  0  0  0  0  0
   23.2323  -16.6385    0.0000 H   0  0  0  0  0  0  0  0  0  0  0  0
   24.1590  -17.1734    0.0000 H   0  0  0  0  0  0  0  0  0  0  0  0
  1 14  1  0  0  0  0
  1 15  1  0  0  0  0
  2 14  1  0  0  0  0
  2 23  1  0  0  0  0
  3 19  1  0  0  0  0
  3 24  1  0  0  0  0
  4 20  1  0  0  0  0
  4 25  1  0  0  0  0
  5 19  2  0  0  0  0
  6 20  2  0  0  0  0
  7 21  2  0  0  0  0
  8 22  2  0  0  0  0
  9 22  1  0  0  0  0
  9 26  1  0  0  0  0
 10 17  1  0  0  0  0
 10 21  1  0  0  0  0
 10 27  1  0  0  0  0
 11 28  1  0  0  0  0
 11 29  1  0  0  0  0
 12 11  1  0  0  0  0
 12 16  1  0  0  0  0
 12 19  1  0  0  0  0
 12 30  1  6  0  0  0
 13  9  1  0  0  0  0
 13 15  1  0  0  0  0
 13 21  1  0  0  0  0
 13 31  1  1  0  0  0
 14 32  1  0  0  0  0
 14 33  1  0  0  0  0
 15 34  1  0  0  0  0
 15 35  1  0  0  0  0
 16 18  1  0  0  0  0
 16 36  1  0  0  0  0
 16 37  1  0  0  0  0
 17 20  1  0  0  0  0
 17 38  1  0  0  0  0
 17 39  1  0  0  0  0
 18 22  1  0  0  0  0
 18 40  1  0  0  0  0
 18 41  1  0  0  0  0
M  END
>  <DRUGBANK_ID>
DB04153

>  <SECONDARY_ACCESSION_NUMBERS>
EXPT00464

>  <COMMON_NAME>
S-Hydroxymethyl Glutathione

$$$$
