
 OpenBabel10282417072D

 23 22  0  0  1  0  0  0  0  0999 V2000
   19.3189   -4.4276    0.0000 P   0  0  0  0  0  0  0  0  0  0  0  0
   18.6044   -4.0151    0.0000 O   0  0  0  0  0  0  0  0  0  0  0  0
   17.1754   -3.1900    0.0000 O   0  0  0  0  0  0  0  0  0  0  0  0
   15.0319   -4.4276    0.0000 O   0  0  0  0  0  0  0  0  0  0  0  0
   15.7464   -3.1900    0.0000 O   0  0  0  0  0  0  0  0  0  0  0  0
   20.0334   -4.8401    0.0000 O   0  0  0  0  0  0  0  0  0  0  0  0
   19.7314   -3.7131    0.0000 O   0  0  0  0  0  0  0  0  0  0  0  0
   18.9064   -5.1420    0.0000 O   0  0  0  0  0  0  0  0  0  0  0  0
   16.4609   -5.2526    0.0000 N   0  0  0  0  0  0  0  0  0  0  0  0
   17.1754   -4.0151    0.0000 C   0  0  1  0  0  0  0  0  0  0  0  0
   16.4609   -4.4276    0.0000 C   0  0  1  0  0  0  0  0  0  0  0  0
   17.8898   -4.4276    0.0000 C   0  0  0  0  0  0  0  0  0  0  0  0
   15.7464   -4.0151    0.0000 C   0  0  0  0  0  0  0  0  0  0  0  0
   18.0154   -2.7050    0.0000 H   0  0  0  0  0  0  0  0  0  0  0  0
   14.2204   -3.9591    0.0000 H   0  0  0  0  0  0  0  0  0  0  0  0
   20.0334   -5.8101    0.0000 H   0  0  0  0  0  0  0  0  0  0  0  0
   20.7014   -3.7131    0.0000 H   0  0  0  0  0  0  0  0  0  0  0  0
   15.5776   -5.7626    0.0000 H   0  0  0  0  0  0  0  0  0  0  0  0
   17.3442   -5.7626    0.0000 H   0  0  0  0  0  0  0  0  0  0  0  0
   16.2488   -3.4801    0.0000 H   0  0  0  0  0  0  0  0  0  0  0  0
   17.3875   -4.9626    0.0000 H   0  0  0  0  0  0  0  0  0  0  0  0
   17.8897   -5.4976    0.0000 H   0  0  0  0  0  0  0  0  0  0  0  0
   16.9631   -4.9626    0.0000 H   0  0  0  0  0  0  0  0  0  0  0  0
  1  2  1  0  0  0  0
  1  6  1  0  0  0  0
  1  7  1  0  0  0  0
  1  8  2  0  0  0  0
  2 12  1  0  0  0  0
  3 14  1  0  0  0  0
  4 13  1  0  0  0  0
  4 15  1  0  0  0  0
  5 13  2  0  0  0  0
  6 16  1  0  0  0  0
  7 17  1  0  0  0  0
  9 18  1  0  0  0  0
  9 19  1  0  0  0  0
 10  3  1  0  0  0  0
 10 11  1  0  0  0  0
 10 12  1  0  0  0  0
 10 20  1  1  0  0  0
 11  9  1  0  0  0  0
 11 13  1  0  0  0  0
 11 21  1  1  0  0  0
 12 22  1  0  0  0  0
 12 23  1  0  0  0  0
M  END
>  <DRUGBANK_ID>
DB02609

>  <SECONDARY_ACCESSION_NUMBERS>
EXPT00231

>  <COMMON_NAME>
4-Hydroxy-L-Threonine-5-Monophosphate

$$$$
