
 OpenBabel10282417072D

 49 50  0  0  0  0  0  0  0  0999 V2000
   -1.4306    0.9762    0.0000 C   0  0  0  0  0  0  0  0  0  0  0  0
   -1.4333    0.1482    0.0000 C   0  0  0  0  0  0  0  0  0  0  0  0
   -0.7214   -0.2656    0.0000 C   0  0  0  0  0  0  0  0  0  0  0  0
   -0.7248    1.3891    0.0000 C   0  0  0  0  0  0  0  0  0  0  0  0
   -0.0048    0.9829    0.0000 C   0  0  0  0  0  0  0  0  0  0  0  0
   -0.0063    0.1485    0.0000 C   0  0  0  0  0  0  0  0  0  0  0  0
    0.7123   -0.2684    0.0000 C   0  0  0  0  0  0  0  0  0  0  0  0
    1.4304    0.1445    0.0000 N   0  0  0  0  0  0  0  0  0  0  0  0
    1.4335    0.9791    0.0000 C   0  0  1  0  0  0  0  0  0  0  0  0
    0.7108    1.3957    0.0000 C   0  0  0  0  0  0  0  0  0  0  0  0
    2.1472    1.3914    0.0000 C   0  0  0  0  0  0  0  0  0  0  0  0
    2.8621    0.9783    0.0000 N   0  0  0  0  0  0  0  0  0  0  0  0
    3.5753    1.3904    0.0000 C   0  0  0  0  0  0  0  0  0  0  0  0
    2.1472    2.2146    0.0000 O   0  0  0  0  0  0  0  0  0  0  0  0
   -2.1470   -0.2641    0.0000 N   0  0  0  0  0  0  0  0  0  0  0  0
   -2.8615    0.1486    0.0000 S   0  0  0  0  0  0  0  0  0  0  0  0
   -3.5753    0.5610    0.0000 O   0  0  0  0  0  0  0  0  0  0  0  0
   -2.4488    0.8629    0.0000 O   0  0  0  0  0  0  0  0  0  0  0  0
   -3.2734   -0.5647    0.0000 O   0  0  0  0  0  0  0  0  0  0  0  0
    2.1440   -0.2678    0.0000 C   0  0  0  0  0  0  0  0  0  0  0  0
    2.8612    0.1437    0.0000 O   0  0  0  0  0  0  0  0  0  0  0  0
    2.1429   -1.0924    0.0000 O   0  0  0  0  0  0  0  0  0  0  0  0
    2.8565   -1.5056    0.0000 C   0  0  0  0  0  0  0  0  0  0  0  0
    2.4363   -2.2146    0.0000 C   0  0  0  0  0  0  0  0  0  0  0  0
    3.2609   -0.7897    0.0000 C   0  0  0  0  0  0  0  0  0  0  0  0
    3.5631   -1.9168    0.0000 C   0  0  0  0  0  0  0  0  0  0  0  0
   -2.3250    1.4911    0.0000 H   0  0  0  0  0  0  0  0  0  0  0  0
   -0.7222   -1.2976    0.0000 H   0  0  0  0  0  0  0  0  0  0  0  0
   -0.7329    2.4211    0.0000 H   0  0  0  0  0  0  0  0  0  0  0  0
    0.7102   -1.3384    0.0000 H   0  0  0  0  0  0  0  0  0  0  0  0
    1.6380   -0.8051    0.0000 H   0  0  0  0  0  0  0  0  0  0  0  0
    2.3592    0.4425    0.0000 H   0  0  0  0  0  0  0  0  0  0  0  0
    0.7106    2.4657    0.0000 H   0  0  0  0  0  0  0  0  0  0  0  0
    1.6372    1.9311    0.0000 H   0  0  0  0  0  0  0  0  0  0  0  0
    2.8621   -0.0062    0.0000 H   0  0  0  0  0  0  0  0  0  0  0  0
    4.5021    0.8557    0.0000 H   0  0  0  0  0  0  0  0  0  0  0  0
    3.5749    2.4604    0.0000 H   0  0  0  0  0  0  0  0  0  0  0  0
    4.5018    1.9257    0.0000 H   0  0  0  0  0  0  0  0  0  0  0  0
   -2.1470   -1.2486    0.0000 H   0  0  0  0  0  0  0  0  0  0  0  0
   -4.2434   -0.5646    0.0000 H   0  0  0  0  0  0  0  0  0  0  0  0
    1.3664   -2.2024    0.0000 H   0  0  0  0  0  0  0  0  0  0  0  0
    2.9607   -3.1473    0.0000 H   0  0  0  0  0  0  0  0  0  0  0  0
    1.8908   -3.1351    0.0000 H   0  0  0  0  0  0  0  0  0  0  0  0
    4.3309   -0.7796    0.0000 H   0  0  0  0  0  0  0  0  0  0  0  0
    2.7172    0.1319    0.0000 H   0  0  0  0  0  0  0  0  0  0  0  0
    3.7872    0.1419    0.0000 H   0  0  0  0  0  0  0  0  0  0  0  0
    3.5594   -2.9868    0.0000 H   0  0  0  0  0  0  0  0  0  0  0  0
    4.4916   -1.3850    0.0000 H   0  0  0  0  0  0  0  0  0  0  0  0
    4.4879   -2.4550    0.0000 H   0  0  0  0  0  0  0  0  0  0  0  0
  1  2  2  0  0  0  0
  1 27  1  0  0  0  0
  2 15  1  0  0  0  0
  2  3  1  0  0  0  0
  3  6  2  0  0  0  0
  3 28  1  0  0  0  0
  4  1  1  0  0  0  0
  4 29  1  0  0  0  0
  5  6  1  0  0  0  0
  5 10  1  0  0  0  0
  5  4  2  0  0  0  0
  6  7  1  0  0  0  0
  7  8  1  0  0  0  0
  7 30  1  0  0  0  0
  7 31  1  0  0  0  0
  8  9  1  0  0  0  0
  8 20  1  0  0  0  0
  9 10  1  0  0  0  0
  9 11  1  0  0  0  0
  9 32  1  6  0  0  0
 10 33  1  0  0  0  0
 10 34  1  0  0  0  0
 11 12  1  0  0  0  0
 11 14  2  0  0  0  0
 12 13  1  0  0  0  0
 12 35  1  0  0  0  0
 13 36  1  0  0  0  0
 13 37  1  0  0  0  0
 13 38  1  0  0  0  0
 15 16  1  0  0  0  0
 15 39  1  0  0  0  0
 16 17  2  0  0  0  0
 16 18  2  0  0  0  0
 16 19  1  0  0  0  0
 19 40  1  0  0  0  0
 20 21  2  0  0  0  0
 20 22  1  0  0  0  0
 22 23  1  0  0  0  0
 23 24  1  0  0  0  0
 23 25  1  0  0  0  0
 23 26  1  0  0  0  0
 24 41  1  0  0  0  0
 24 42  1  0  0  0  0
 24 43  1  0  0  0  0
 25 44  1  0  0  0  0
 25 45  1  0  0  0  0
 25 46  1  0  0  0  0
 26 47  1  0  0  0  0
 26 48  1  0  0  0  0
 26 49  1  0  0  0  0
M  END
>  <DRUGBANK_ID>
DB06887

>  <COMMON_NAME>
[(3S)-3-(Methylcarbamoyl)-2-{[(2-methyl-2-propanyl)oxy]carbonyl}-1,2,3,4-tetrahydro-7-isoquinolinyl]sulfamic acid

$$$$
