1224
 OpenBabel10282417072D

 52 55  0  0  0  0  0  0  0  0999 V2000
    4.0279   -4.2678    0.0000 S   0  0  0  0  0  0  0  0  0  0  0  0
    2.2907    1.9368    0.0000 O   0  0  0  0  0  0  0  0  0  0  0  0
    2.8621    4.0431    0.0000 O   0  0  0  0  0  0  0  0  0  0  0  0
    2.5418   -0.2312    0.0000 N   0  0  0  0  0  0  0  0  0  0  0  0
    3.2576   -1.7175    0.0000 N   0  0  0  0  0  0  0  0  0  0  0  0
    4.4403   -2.4607    0.0000 N   0  0  0  0  0  0  0  0  0  0  0  0
    2.0772   -0.9126    0.0000 C   0  0  0  0  0  0  0  0  0  0  0  0
    3.3643   -0.2928    0.0000 C   0  0  0  0  0  0  0  0  0  0  0  0
    2.4349   -1.6558    0.0000 C   0  0  0  0  0  0  0  0  0  0  0  0
    3.7223   -1.0360    0.0000 C   0  0  0  0  0  0  0  0  0  0  0  0
    2.1839    0.5120    0.0000 C   0  0  0  0  0  0  0  0  0  0  0  0
    3.6154   -2.4607    0.0000 C   0  0  0  0  0  0  0  0  0  0  0  0
    2.6485    1.1936    0.0000 C   0  0  0  0  0  0  0  0  0  0  0  0
    3.1012   -3.1056    0.0000 C   0  0  0  0  0  0  0  0  0  0  0  0
    3.2847   -3.9098    0.0000 C   0  0  0  0  0  0  0  0  0  0  0  0
    2.2841   -2.8397    0.0000 C   0  0  0  0  0  0  0  0  0  0  0  0
    4.9547   -3.1056    0.0000 C   0  0  0  0  0  0  0  0  0  0  0  0
    4.7711   -3.9099    0.0000 C   0  0  0  0  0  0  0  0  0  0  0  0
    2.6639   -4.5038    0.0000 C   0  0  0  0  0  0  0  0  0  0  0  0
    2.7554    2.6183    0.0000 C   0  0  0  0  0  0  0  0  0  0  0  0
    1.6497   -3.4193    0.0000 C   0  0  0  0  0  0  0  0  0  0  0  0
    1.8410   -4.2570    0.0000 C   0  0  0  0  0  0  0  0  0  0  0  0
    5.7717   -2.8397    0.0000 C   0  0  0  0  0  0  0  0  0  0  0  0
    5.3918   -4.5038    0.0000 C   0  0  0  0  0  0  0  0  0  0  0  0
    2.3974    3.3615    0.0000 C   0  0  0  0  0  0  0  0  0  0  0  0
    6.4060   -3.4193    0.0000 C   0  0  0  0  0  0  0  0  0  0  0  0
    6.2148   -4.2570    0.0000 C   0  0  0  0  0  0  0  0  0  0  0  0
    3.8294    3.9706    0.0000 H   0  0  0  0  0  0  0  0  0  0  0  0
    1.0102   -0.8325    0.0000 H   0  0  0  0  0  0  0  0  0  0  0  0
    1.4743   -1.7966    0.0000 H   0  0  0  0  0  0  0  0  0  0  0  0
    3.9670    0.5913    0.0000 H   0  0  0  0  0  0  0  0  0  0  0  0
    4.4313   -0.3727    0.0000 H   0  0  0  0  0  0  0  0  0  0  0  0
    1.8320   -2.5398    0.0000 H   0  0  0  0  0  0  0  0  0  0  0  0
    1.3679   -1.5756    0.0000 H   0  0  0  0  0  0  0  0  0  0  0  0
    4.7893   -1.1159    0.0000 H   0  0  0  0  0  0  0  0  0  0  0  0
    4.3250   -0.1519    0.0000 H   0  0  0  0  0  0  0  0  0  0  0  0
    1.1169    0.5919    0.0000 H   0  0  0  0  0  0  0  0  0  0  0  0
    1.7196    1.4760    0.0000 H   0  0  0  0  0  0  0  0  0  0  0  0
    3.7155    1.1136    0.0000 H   0  0  0  0  0  0  0  0  0  0  0  0
    3.1128    0.2296    0.0000 H   0  0  0  0  0  0  0  0  0  0  0  0
    2.0661   -1.8310    0.0000 H   0  0  0  0  0  0  0  0  0  0  0  0
    2.9052   -5.5072    0.0000 H   0  0  0  0  0  0  0  0  0  0  0  0
    3.8224    2.5384    0.0000 H   0  0  0  0  0  0  0  0  0  0  0  0
    3.3581    3.5024    0.0000 H   0  0  0  0  0  0  0  0  0  0  0  0
    0.6647   -3.1114    0.0000 H   0  0  0  0  0  0  0  0  0  0  0  0
    1.0873   -4.9619    0.0000 H   0  0  0  0  0  0  0  0  0  0  0  0
    5.9897   -1.8310    0.0000 H   0  0  0  0  0  0  0  0  0  0  0  0
    5.1505   -5.5072    0.0000 H   0  0  0  0  0  0  0  0  0  0  0  0
    1.3304    3.4414    0.0000 H   0  0  0  0  0  0  0  0  0  0  0  0
    1.7947    2.4774    0.0000 H   0  0  0  0  0  0  0  0  0  0  0  0
    7.3910   -3.1114    0.0000 H   0  0  0  0  0  0  0  0  0  0  0  0
    6.9685   -4.9619    0.0000 H   0  0  0  0  0  0  0  0  0  0  0  0
  1 15  1  0  0  0  0
  1 18  1  0  0  0  0
  2 13  1  0  0  0  0
  2 20  1  0  0  0  0
  3 25  1  0  0  0  0
  3 28  1  0  0  0  0
  4  7  1  0  0  0  0
  4  8  1  0  0  0  0
  4 11  1  0  0  0  0
  5  9  1  0  0  0  0
  5 10  1  0  0  0  0
  5 12  1  0  0  0  0
  6 12  2  0  0  0  0
  6 17  1  0  0  0  0
  7  9  1  0  0  0  0
  7 29  1  0  0  0  0
  7 30  1  0  0  0  0
  8 10  1  0  0  0  0
  8 31  1  0  0  0  0
  8 32  1  0  0  0  0
  9 33  1  0  0  0  0
  9 34  1  0  0  0  0
 10 35  1  0  0  0  0
 10 36  1  0  0  0  0
 11 13  1  0  0  0  0
 11 37  1  0  0  0  0
 11 38  1  0  0  0  0
 12 14  1  0  0  0  0
 13 39  1  0  0  0  0
 13 40  1  0  0  0  0
 14 15  1  0  0  0  0
 14 16  2  0  0  0  0
 15 19  2  0  0  0  0
 16 21  1  0  0  0  0
 16 41  1  0  0  0  0
 17 18  1  0  0  0  0
 17 23  2  0  0  0  0
 18 24  2  0  0  0  0
 19 22  1  0  0  0  0
 19 42  1  0  0  0  0
 20 25  1  0  0  0  0
 20 43  1  0  0  0  0
 20 44  1  0  0  0  0
 21 22  2  0  0  0  0
 21 45  1  0  0  0  0
 22 46  1  0  0  0  0
 23 26  1  0  0  0  0
 23 47  1  0  0  0  0
 24 27  1  0  0  0  0
 24 48  1  0  0  0  0
 25 49  1  0  0  0  0
 25 50  1  0  0  0  0
 26 27  2  0  0  0  0
 26 51  1  0  0  0  0
 27 52  1  0  0  0  0
M  END
>  <DRUGBANK_ID>
DB01224

>  <SECONDARY_ACCESSION_NUMBERS>
APRD00675

>  <COMMON_NAME>
Quetiapine

>  <CAS_NUMBER>
111974-69-7

>  <UNII>
BGL0JSY5SI

>  <SYNONYMS>
2-[2-(4-Dibenzo[b,f][1,4]thiazepin-11-yl-1-piperazinyl)ethoxy]ethanol; Quetiapina; Quetiapine; Qu√©tiapine; Quetiapinum

$$$$
