ebastine
 OpenBabel10282417072D

 74 77  0  0  0  0  0  0  0  0999 V2000
   -3.2156   -5.2728    0.0000 C   0  0  0  0  0  0  0  0  0  0  0  0
   -3.2156   -4.4479    0.0000 O   0  0  0  0  0  0  0  0  0  0  0  0
   -2.5013   -5.6861    0.0000 C   0  0  0  0  0  0  0  0  0  0  0  0
   -3.9300   -5.6861    0.0000 C   0  0  0  0  0  0  0  0  0  0  0  0
   -2.5013   -4.0364    0.0000 C   0  0  0  0  0  0  0  0  0  0  0  0
   -2.5013   -6.5111    0.0000 C   0  0  0  0  0  0  0  0  0  0  0  0
   -1.7849   -5.2728    0.0000 C   0  0  0  0  0  0  0  0  0  0  0  0
   -4.6423   -5.2728    0.0000 C   0  0  0  0  0  0  0  0  0  0  0  0
   -3.9300   -6.5111    0.0000 C   0  0  0  0  0  0  0  0  0  0  0  0
   -2.5013   -3.2115    0.0000 C   0  0  0  0  0  0  0  0  0  0  0  0
   -1.7849   -4.4479    0.0000 C   0  0  0  0  0  0  0  0  0  0  0  0
   -1.7849   -6.9226    0.0000 C   0  0  0  0  0  0  0  0  0  0  0  0
   -1.0726   -5.6861    0.0000 C   0  0  0  0  0  0  0  0  0  0  0  0
   -5.3588   -5.6861    0.0000 C   0  0  0  0  0  0  0  0  0  0  0  0
   -4.6423   -6.9226    0.0000 C   0  0  0  0  0  0  0  0  0  0  0  0
   -1.7849   -2.7980    0.0000 C   0  0  0  0  0  0  0  0  0  0  0  0
   -1.0726   -4.0364    0.0000 C   0  0  0  0  0  0  0  0  0  0  0  0
   -1.0726   -6.5111    0.0000 C   0  0  0  0  0  0  0  0  0  0  0  0
   -5.3588   -6.5111    0.0000 C   0  0  0  0  0  0  0  0  0  0  0  0
   -1.0726   -3.2115    0.0000 N   0  0  0  0  0  0  0  0  0  0  0  0
   -0.3581   -2.7980    0.0000 C   0  0  0  0  0  0  0  0  0  0  0  0
    0.3562   -3.2115    0.0000 C   0  0  0  0  0  0  0  0  0  0  0  0
    1.0705   -2.7980    0.0000 C   0  0  0  0  0  0  0  0  0  0  0  0
    1.7849   -3.2115    0.0000 C   0  0  0  0  0  0  0  0  0  0  0  0
    1.7849   -4.0364    0.0000 O   0  0  0  0  0  0  0  0  0  0  0  0
    2.5013   -2.7980    0.0000 C   0  0  0  0  0  0  0  0  0  0  0  0
    2.5013   -1.9732    0.0000 C   0  0  0  0  0  0  0  0  0  0  0  0
    3.2156   -3.2115    0.0000 C   0  0  0  0  0  0  0  0  0  0  0  0
    3.2156   -1.5618    0.0000 C   0  0  0  0  0  0  0  0  0  0  0  0
    3.9300   -2.7980    0.0000 C   0  0  0  0  0  0  0  0  0  0  0  0
    3.9300   -1.9732    0.0000 C   0  0  0  0  0  0  0  0  0  0  0  0
    4.6443   -1.5618    0.0000 C   0  0  0  0  0  0  0  0  0  0  0  0
    5.3583   -1.9751    0.0000 C   0  0  0  0  0  0  0  0  0  0  0  0
    5.0577   -0.8479    0.0000 C   0  0  0  0  0  0  0  0  0  0  0  0
    4.2328   -0.8469    0.0000 C   0  0  0  0  0  0  0  0  0  0  0  0
   -3.2156   -6.3428    0.0000 H   0  0  0  0  0  0  0  0  0  0  0  0
   -1.5752   -3.5004    0.0000 H   0  0  0  0  0  0  0  0  0  0  0  0
   -3.3945   -7.0281    0.0000 H   0  0  0  0  0  0  0  0  0  0  0  0
   -1.7836   -4.2408    0.0000 H   0  0  0  0  0  0  0  0  0  0  0  0
   -4.6410   -4.2408    0.0000 H   0  0  0  0  0  0  0  0  0  0  0  0
   -3.0362   -7.0270    0.0000 H   0  0  0  0  0  0  0  0  0  0  0  0
   -3.4279   -2.6764    0.0000 H   0  0  0  0  0  0  0  0  0  0  0  0
   -2.5012   -2.1415    0.0000 H   0  0  0  0  0  0  0  0  0  0  0  0
   -1.7836   -5.5179    0.0000 H   0  0  0  0  0  0  0  0  0  0  0  0
   -0.8578   -4.9822    0.0000 H   0  0  0  0  0  0  0  0  0  0  0  0
   -1.7836   -7.9546    0.0000 H   0  0  0  0  0  0  0  0  0  0  0  0
   -0.1783   -5.1711    0.0000 H   0  0  0  0  0  0  0  0  0  0  0  0
   -6.2524   -5.1699    0.0000 H   0  0  0  0  0  0  0  0  0  0  0  0
   -4.6410   -7.9546    0.0000 H   0  0  0  0  0  0  0  0  0  0  0  0
   -1.7836   -1.7280    0.0000 H   0  0  0  0  0  0  0  0  0  0  0  0
   -0.8573   -2.2647    0.0000 H   0  0  0  0  0  0  0  0  0  0  0  0
   -0.1459   -4.5713    0.0000 H   0  0  0  0  0  0  0  0  0  0  0  0
   -0.1460   -3.5013    0.0000 H   0  0  0  0  0  0  0  0  0  0  0  0
   -0.1788   -7.0270    0.0000 H   0  0  0  0  0  0  0  0  0  0  0  0
   -6.2520   -7.0281    0.0000 H   0  0  0  0  0  0  0  0  0  0  0  0
   -0.3580   -1.7280    0.0000 H   0  0  0  0  0  0  0  0  0  0  0  0
    0.5689   -2.2636    0.0000 H   0  0  0  0  0  0  0  0  0  0  0  0
    0.3562   -4.2815    0.0000 H   0  0  0  0  0  0  0  0  0  0  0  0
    1.2832   -3.7460    0.0000 H   0  0  0  0  0  0  0  0  0  0  0  0
    1.0705   -1.7280    0.0000 H   0  0  0  0  0  0  0  0  0  0  0  0
    1.9974   -2.2635    0.0000 H   0  0  0  0  0  0  0  0  0  0  0  0
    1.6078   -1.4567    0.0000 H   0  0  0  0  0  0  0  0  0  0  0  0
    3.2156   -4.2435    0.0000 H   0  0  0  0  0  0  0  0  0  0  0  0
    3.2156   -0.5298    0.0000 H   0  0  0  0  0  0  0  0  0  0  0  0
    4.8240   -3.3135    0.0000 H   0  0  0  0  0  0  0  0  0  0  0  0
    5.3571   -3.0451    0.0000 H   0  0  0  0  0  0  0  0  0  0  0  0
    6.2855   -1.4411    0.0000 H   0  0  0  0  0  0  0  0  0  0  0  0
    6.2843   -2.5111    0.0000 H   0  0  0  0  0  0  0  0  0  0  0  0
    6.1277   -0.8493    0.0000 H   0  0  0  0  0  0  0  0  0  0  0  0
    4.5239    0.0794    0.0000 H   0  0  0  0  0  0  0  0  0  0  0  0
    5.5939    0.0781    0.0000 H   0  0  0  0  0  0  0  0  0  0  0  0
    4.7690    0.0790    0.0000 H   0  0  0  0  0  0  0  0  0  0  0  0
    3.1628   -0.8455    0.0000 H   0  0  0  0  0  0  0  0  0  0  0  0
    3.6990    0.0804    0.0000 H   0  0  0  0  0  0  0  0  0  0  0  0
  1  2  1  0  0  0  0
  1  3  1  0  0  0  0
  1  4  1  0  0  0  0
  1 36  1  0  0  0  0
  2  5  1  0  0  0  0
  3  6  2  0  0  0  0
  3  7  1  0  0  0  0
  4  8  2  0  0  0  0
  4  9  1  0  0  0  0
  5 10  1  0  0  0  0
  5 11  1  0  0  0  0
  5 37  1  0  0  0  0
  6 12  1  0  0  0  0
  6 38  1  0  0  0  0
  7 13  2  0  0  0  0
  7 39  1  0  0  0  0
  8 14  1  0  0  0  0
  8 40  1  0  0  0  0
  9 15  2  0  0  0  0
  9 41  1  0  0  0  0
 10 16  1  0  0  0  0
 10 42  1  0  0  0  0
 10 43  1  0  0  0  0
 11 17  1  0  0  0  0
 11 44  1  0  0  0  0
 11 45  1  0  0  0  0
 12 18  2  0  0  0  0
 12 46  1  0  0  0  0
 13 18  1  0  0  0  0
 13 47  1  0  0  0  0
 14 19  2  0  0  0  0
 14 48  1  0  0  0  0
 15 19  1  0  0  0  0
 15 49  1  0  0  0  0
 16 20  1  0  0  0  0
 16 50  1  0  0  0  0
 16 51  1  0  0  0  0
 17 20  1  0  0  0  0
 17 52  1  0  0  0  0
 17 53  1  0  0  0  0
 18 54  1  0  0  0  0
 19 55  1  0  0  0  0
 20 21  1  0  0  0  0
 21 22  1  0  0  0  0
 21 56  1  0  0  0  0
 21 57  1  0  0  0  0
 22 23  1  0  0  0  0
 22 58  1  0  0  0  0
 22 59  1  0  0  0  0
 23 24  1  0  0  0  0
 23 60  1  0  0  0  0
 23 61  1  0  0  0  0
 24 25  2  0  0  0  0
 24 26  1  0  0  0  0
 26 27  2  0  0  0  0
 26 28  1  0  0  0  0
 27 29  1  0  0  0  0
 27 62  1  0  0  0  0
 28 30  2  0  0  0  0
 28 63  1  0  0  0  0
 29 31  2  0  0  0  0
 29 64  1  0  0  0  0
 30 31  1  0  0  0  0
 30 65  1  0  0  0  0
 31 32  1  0  0  0  0
 32 33  1  0  0  0  0
 32 34  1  0  0  0  0
 32 35  1  0  0  0  0
 33 66  1  0  0  0  0
 33 67  1  0  0  0  0
 33 68  1  0  0  0  0
 34 69  1  0  0  0  0
 34 70  1  0  0  0  0
 34 71  1  0  0  0  0
 35 72  1  0  0  0  0
 35 73  1  0  0  0  0
 35 74  1  0  0  0  0
M  END
>  <DRUGBANK_ID>
DB11742

>  <COMMON_NAME>
Ebastine

>  <CAS_NUMBER>
90729-43-4

>  <UNII>
TQD7Q784P1

>  <SYNONYMS>
Ebastina; Ebastine

$$$$
