
 OpenBabel10282417072D

 35 37  0  0  0  0  0  0  0  0999 V2000
   -0.7112   -0.2262    0.0000 C   0  0  0  0  0  0  0  0  0  0  0  0
   -0.7112   -1.0512    0.0000 C   0  0  0  0  0  0  0  0  0  0  0  0
    0.0137    0.1887    0.0000 O   0  0  0  0  0  0  0  0  0  0  0  0
   -1.4236    0.1887    0.0000 C   0  0  0  0  0  0  0  0  0  0  0  0
    0.0137   -1.4611    0.0000 C   0  0  0  0  0  0  0  0  0  0  0  0
   -1.4236   -1.4611    0.0000 C   0  0  0  0  0  0  0  0  0  0  0  0
    0.7237   -0.2012    0.0000 C   0  0  0  0  0  0  0  0  0  0  0  0
   -2.1286   -0.2012    0.0000 C   0  0  0  0  0  0  0  0  0  0  0  0
    0.7237   -1.0512    0.0000 C   0  0  0  0  0  0  0  0  0  0  0  0
    0.0137   -2.2911    0.0000 O   0  0  0  0  0  0  0  0  0  0  0  0
   -2.1286   -1.0512    0.0000 C   0  0  0  0  0  0  0  0  0  0  0  0
   -1.4236   -2.2911    0.0000 O   0  0  0  0  0  0  0  0  0  0  0  0
    1.4586    0.2087    0.0000 C   0  0  0  0  0  0  0  0  0  0  0  0
   -2.8535    0.2336    0.0000 O   0  0  0  0  0  0  0  0  0  0  0  0
    1.4486   -1.4861    0.0000 O   0  0  0  0  0  0  0  0  0  0  0  0
    1.4586    1.0436    0.0000 C   0  0  0  0  0  0  0  0  0  0  0  0
    2.1636   -0.2012    0.0000 C   0  0  0  0  0  0  0  0  0  0  0  0
   -3.5785   -0.1812    0.0000 C   0  0  0  0  0  0  0  0  0  0  0  0
    2.1486    1.4561    0.0000 C   0  0  0  0  0  0  0  0  0  0  0  0
    2.8735    0.2087    0.0000 C   0  0  0  0  0  0  0  0  0  0  0  0
    2.8735    1.0411    0.0000 C   0  0  0  0  0  0  0  0  0  0  0  0
    2.1486    2.2911    0.0000 O   0  0  0  0  0  0  0  0  0  0  0  0
    3.5785    1.4936    0.0000 O   0  0  0  0  0  0  0  0  0  0  0  0
   -1.4121    1.2206    0.0000 H   0  0  0  0  0  0  0  0  0  0  0  0
   -3.0231   -1.5658    0.0000 H   0  0  0  0  0  0  0  0  0  0  0  0
   -2.2351   -2.7596    0.0000 H   0  0  0  0  0  0  0  0  0  0  0  0
    1.4329   -2.4230    0.0000 H   0  0  0  0  0  0  0  0  0  0  0  0
    0.5610    1.5528    0.0000 H   0  0  0  0  0  0  0  0  0  0  0  0
    2.1620   -1.2332    0.0000 H   0  0  0  0  0  0  0  0  0  0  0  0
   -4.5030    0.3574    0.0000 H   0  0  0  0  0  0  0  0  0  0  0  0
   -3.5827   -1.2512    0.0000 H   0  0  0  0  0  0  0  0  0  0  0  0
   -4.5072   -0.7126    0.0000 H   0  0  0  0  0  0  0  0  0  0  0  0
    3.7672   -0.3073    0.0000 H   0  0  0  0  0  0  0  0  0  0  0  0
    2.9601    2.7596    0.0000 H   0  0  0  0  0  0  0  0  0  0  0  0
    4.4111    1.0638    0.0000 H   0  0  0  0  0  0  0  0  0  0  0  0
  1  2  2  0  0  0  0
  1  3  1  0  0  0  0
  1  4  1  0  0  0  0
  2  5  1  0  0  0  0
  2  6  1  0  0  0  0
  3  7  1  0  0  0  0
  4  8  2  0  0  0  0
  4 24  1  0  0  0  0
  5  9  1  0  0  0  0
  5 10  2  0  0  0  0
  6 11  2  0  0  0  0
  6 12  1  0  0  0  0
  7 13  1  0  0  0  0
  7  9  2  0  0  0  0
  8 14  1  0  0  0  0
  8 11  1  0  0  0  0
  9 15  1  0  0  0  0
 11 25  1  0  0  0  0
 12 26  1  0  0  0  0
 13 16  2  0  0  0  0
 13 17  1  0  0  0  0
 14 18  1  0  0  0  0
 15 27  1  0  0  0  0
 16 19  1  0  0  0  0
 16 28  1  0  0  0  0
 17 20  2  0  0  0  0
 17 29  1  0  0  0  0
 18 30  1  0  0  0  0
 18 31  1  0  0  0  0
 18 32  1  0  0  0  0
 19 21  2  0  0  0  0
 19 22  1  0  0  0  0
 20 21  1  0  0  0  0
 20 33  1  0  0  0  0
 21 23  1  0  0  0  0
 22 34  1  0  0  0  0
 23 35  1  0  0  0  0
M  END
>  <DRUGBANK_ID>
DB16772

>  <COMMON_NAME>
Rhamnetin

>  <CAS_NUMBER>
90-19-7

>  <UNII>
71803L5F4S

>  <SYNONYMS>
7-Methoxyquercetin; 7-Methylquercetin; 7-O-Methylquercetin; beta-Rhamnocitrin; Quercetin 7-methyl ether

$$$$
