
 OpenBabel10282417072D

 79 83  0  0  1  0  0  0  0  0999 V2000
    5.4957    0.6979    0.0000 C   0  0  0  0  0  0  0  0  0  0  0  0
    6.2102    1.1104    0.0000 C   0  0  0  0  0  0  0  0  0  0  0  0
    6.9246    0.6979    0.0000 C   0  0  0  0  0  0  0  0  0  0  0  0
    7.6391    1.1104    0.0000 C   0  0  0  0  0  0  0  0  0  0  0  0
    7.6391    1.9354    0.0000 C   0  0  0  0  0  0  0  0  0  0  0  0
    6.9246    2.3479    0.0000 C   0  0  0  0  0  0  0  0  0  0  0  0
    6.2102    1.9354    0.0000 C   0  0  0  0  0  0  0  0  0  0  0  0
    5.4957    2.3479    0.0000 C   0  0  1  0  0  0  0  0  0  0  0  0
    4.7812    1.9354    0.0000 C   0  0  0  0  0  0  0  0  0  0  0  0
    4.0668    2.3479    0.0000 C   0  0  2  0  0  0  0  0  0  0  0  0
    4.0668    3.1729    0.0000 C   0  0  0  0  0  0  0  0  0  0  0  0
    4.7812    3.5854    0.0000 C   0  0  0  0  0  0  0  0  0  0  0  0
    5.4957    3.1729    0.0000 N   0  0  0  0  0  0  0  0  0  0  0  0
    6.2102    3.5854    0.0000 C   0  0  0  0  0  0  0  0  0  0  0  0
    6.9246    3.1729    0.0000 O   0  0  0  0  0  0  0  0  0  0  0  0
    6.2102    4.4104    0.0000 N   0  0  0  0  0  0  0  0  0  0  0  0
    6.9246    4.8229    0.0000 C   0  0  0  0  0  0  0  0  0  0  0  0
    5.4957    4.8229    0.0000 C   0  0  2  0  0  0  0  0  0  0  0  0
    4.7812    4.4104    0.0000 C   0  0  0  0  0  0  0  0  0  0  0  0
    5.4957    5.6479    0.0000 C   0  0  0  0  0  0  0  0  0  0  0  0
    4.7812    6.0604    0.0000 C   0  0  0  0  0  0  0  0  0  0  0  0
    4.7812    6.8854    0.0000 C   0  0  0  0  0  0  0  0  0  0  0  0
    5.4957    7.2979    0.0000 C   0  0  0  0  0  0  0  0  0  0  0  0
    6.2102    6.8854    0.0000 C   0  0  0  0  0  0  0  0  0  0  0  0
    6.2102    6.0604    0.0000 C   0  0  0  0  0  0  0  0  0  0  0  0
    6.9246    7.2979    0.0000 C   0  0  0  0  0  0  0  0  0  0  0  0
    7.6391    7.7104    0.0000 F   0  0  0  0  0  0  0  0  0  0  0  0
    6.5121    8.0124    0.0000 F   0  0  0  0  0  0  0  0  0  0  0  0
    7.3371    6.5835    0.0000 F   0  0  0  0  0  0  0  0  0  0  0  0
    4.0668    7.2979    0.0000 C   0  0  0  0  0  0  0  0  0  0  0  0
    3.3523    7.7104    0.0000 F   0  0  0  0  0  0  0  0  0  0  0  0
    4.4793    8.0124    0.0000 F   0  0  0  0  0  0  0  0  0  0  0  0
    3.6543    6.5835    0.0000 F   0  0  0  0  0  0  0  0  0  0  0  0
    3.3523    1.9354    0.0000 N   0  0  3  0  0  0  0  0  0  0  0  0
    3.3523    1.1104    0.0000 C   0  0  0  0  0  0  0  0  0  0  0  0
    2.6378    0.6979    0.0000 C   0  0  0  0  0  0  0  0  0  0  0  0
    1.9233    1.1104    0.0000 N   0  0  0  0  0  0  0  0  0  0  0  0
    1.9233    1.9354    0.0000 C   0  0  2  0  0  0  0  0  0  0  0  0
    2.6378    2.3479    0.0000 C   0  0  0  0  0  0  0  0  0  0  0  0
    1.1387    2.1904    0.0000 C   0  0  0  0  0  0  0  0  0  0  0  0
    0.6538    1.5229    0.0000 C   0  0  0  0  0  0  0  0  0  0  0  0
    1.1387    0.8555    0.0000 C   0  0  0  0  0  0  0  0  0  0  0  0
    0.8838    0.0709    0.0000 O   0  0  0  0  0  0  0  0  0  0  0  0
    8.3536    0.6979    0.0000 F   0  0  0  0  0  0  0  0  0  0  0  0
    4.5691    1.2329    0.0000 H   0  0  0  0  0  0  0  0  0  0  0  0
    5.4957   -0.3721    0.0000 H   0  0  0  0  0  0  0  0  0  0  0  0
    4.5690    0.1629    0.0000 H   0  0  0  0  0  0  0  0  0  0  0  0
    6.9246   -0.3341    0.0000 H   0  0  0  0  0  0  0  0  0  0  0  0
    8.5328    2.4514    0.0000 H   0  0  0  0  0  0  0  0  0  0  0  0
    6.9246    3.3799    0.0000 H   0  0  0  0  0  0  0  0  0  0  0  0
    5.4957    1.2779    0.0000 H   0  0  0  0  0  0  0  0  0  0  0  0
    4.7812    0.8654    0.0000 H   0  0  0  0  0  0  0  0  0  0  0  0
    3.8545    1.4004    0.0000 H   0  0  0  0  0  0  0  0  0  0  0  0
    4.0668    1.2779    0.0000 H   0  0  0  0  0  0  0  0  0  0  0  0
    3.1401    3.7079    0.0000 H   0  0  0  0  0  0  0  0  0  0  0  0
    4.0668    4.2429    0.0000 H   0  0  0  0  0  0  0  0  0  0  0  0
    4.7812    4.6554    0.0000 H   0  0  0  0  0  0  0  0  0  0  0  0
    5.7078    4.1204    0.0000 H   0  0  0  0  0  0  0  0  0  0  0  0
    7.8513    4.2879    0.0000 H   0  0  0  0  0  0  0  0  0  0  0  0
    6.9246    5.8929    0.0000 H   0  0  0  0  0  0  0  0  0  0  0  0
    7.8512    5.3579    0.0000 H   0  0  0  0  0  0  0  0  0  0  0  0
    5.4957    3.7529    0.0000 H   0  0  0  0  0  0  0  0  0  0  0  0
    3.8546    4.9454    0.0000 H   0  0  0  0  0  0  0  0  0  0  0  0
    4.7812    3.3404    0.0000 H   0  0  0  0  0  0  0  0  0  0  0  0
    3.8545    3.8754    0.0000 H   0  0  0  0  0  0  0  0  0  0  0  0
    3.8875    5.5444    0.0000 H   0  0  0  0  0  0  0  0  0  0  0  0
    5.4957    8.3299    0.0000 H   0  0  0  0  0  0  0  0  0  0  0  0
    7.1039    5.5444    0.0000 H   0  0  0  0  0  0  0  0  0  0  0  0
    4.2789    0.5754    0.0000 H   0  0  0  0  0  0  0  0  0  0  0  0
    3.3523    0.0404    0.0000 H   0  0  0  0  0  0  0  0  0  0  0  0
    2.6378   -0.3721    0.0000 H   0  0  0  0  0  0  0  0  0  0  0  0
    1.7112    0.1629    0.0000 H   0  0  0  0  0  0  0  0  0  0  0  0
    2.8499    1.4004    0.0000 H   0  0  0  0  0  0  0  0  0  0  0  0
    2.6378    3.4179    0.0000 H   0  0  0  0  0  0  0  0  0  0  0  0
    3.5644    2.8829    0.0000 H   0  0  0  0  0  0  0  0  0  0  0  0
    0.8081    3.2080    0.0000 H   0  0  0  0  0  0  0  0  0  0  0  0
    0.0819    2.3578    0.0000 H   0  0  0  0  0  0  0  0  0  0  0  0
   -0.4162    1.5229    0.0000 H   0  0  0  0  0  0  0  0  0  0  0  0
    0.1680    0.5695    0.0000 H   0  0  0  0  0  0  0  0  0  0  0  0
  1  2  1  0  0  0  0
  1 45  1  0  0  0  0
  1 46  1  0  0  0  0
  1 47  1  0  0  0  0
  2  3  2  0  0  0  0
  2  7  1  0  0  0  0
  3  4  1  0  0  0  0
  3 48  1  0  0  0  0
  4  5  2  0  0  0  0
  4 44  1  0  0  0  0
  5  6  1  0  0  0  0
  5 49  1  0  0  0  0
  6  7  2  0  0  0  0
  6 50  1  0  0  0  0
  8  7  1  0  0  0  0
  8  9  1  0  0  0  0
  8 13  1  0  0  0  0
  8 51  1  6  0  0  0
  9 10  1  0  0  0  0
  9 52  1  0  0  0  0
  9 53  1  0  0  0  0
 10 11  1  0  0  0  0
 10 34  1  0  0  0  0
 10 54  1  6  0  0  0
 11 12  1  0  0  0  0
 11 55  1  0  0  0  0
 11 56  1  0  0  0  0
 12 13  1  0  0  0  0
 12 57  1  0  0  0  0
 12 58  1  0  0  0  0
 13 14  1  0  0  0  0
 14 15  2  0  0  0  0
 14 16  1  0  0  0  0
 16 17  1  0  0  0  0
 16 18  1  0  0  0  0
 17 59  1  0  0  0  0
 17 60  1  0  0  0  0
 17 61  1  0  0  0  0
 18 19  1  0  0  0  0
 18 20  1  0  0  0  0
 18 62  1  1  0  0  0
 19 63  1  0  0  0  0
 19 64  1  0  0  0  0
 19 65  1  0  0  0  0
 20 21  2  0  0  0  0
 20 25  1  0  0  0  0
 21 22  1  0  0  0  0
 21 66  1  0  0  0  0
 22 23  2  0  0  0  0
 22 30  1  0  0  0  0
 23 24  1  0  0  0  0
 23 67  1  0  0  0  0
 24 25  2  0  0  0  0
 24 26  1  0  0  0  0
 25 68  1  0  0  0  0
 26 27  1  0  0  0  0
 26 28  1  0  0  0  0
 26 29  1  0  0  0  0
 30 31  1  0  0  0  0
 30 32  1  0  0  0  0
 30 33  1  0  0  0  0
 34 35  1  0  0  0  0
 34 39  1  0  0  0  0
 35 36  1  0  0  0  0
 35 69  1  0  0  0  0
 35 70  1  0  0  0  0
 36 37  1  0  0  0  0
 36 71  1  0  0  0  0
 36 72  1  0  0  0  0
 37 42  1  0  0  0  0
 38 37  1  0  0  0  0
 38 39  1  0  0  0  0
 38 40  1  0  0  0  0
 38 73  1  6  0  0  0
 39 74  1  0  0  0  0
 39 75  1  0  0  0  0
 40 41  1  0  0  0  0
 40 76  1  0  0  0  0
 40 77  1  0  0  0  0
 41 42  1  0  0  0  0
 41 78  1  0  0  0  0
 41 79  1  0  0  0  0
 42 43  2  0  0  0  0
M  END
>  <DRUGBANK_ID>
DB12427

>  <COMMON_NAME>
Orvepitant

>  <CAS_NUMBER>
579475-18-6

>  <UNII>
IIU6V0W3JD

>  <SYNONYMS>
Orvepitant

$$$$
