
 OpenBabel10282417072D

 59 60  0  0  0  0  0  0  0  0999 V2000
   -1.6903   -1.2224    0.0000 P   0  0  2  0  0  0  0  0  0  0  0  0
   -0.3849   -1.8035    0.0000 P   0  0  2  0  0  0  0  0  0  0  0  0
   -3.2257    0.8108    0.0000 O   0  0  0  0  0  0  0  0  0  0  0  0
   -4.7907   -0.6412    0.0000 O   0  0  0  0  0  0  0  0  0  0  0  0
   -5.3453    1.0657    0.0000 O   0  0  0  0  0  0  0  0  0  0  0  0
   -2.1753   -0.5549    0.0000 O   0  0  0  0  0  0  0  0  0  0  0  0
   -5.3221    2.1207    0.0000 O   0  0  0  0  0  0  0  0  0  0  0  0
   -1.2054   -1.8898    0.0000 O   0  0  0  0  0  0  0  0  0  0  0  0
   -1.0230   -0.7375    0.0000 O   0  0  0  0  0  0  0  0  0  0  0  0
    0.4354   -1.7173    0.0000 O   0  0  0  0  0  0  0  0  0  0  0  0
   -2.3578   -1.7073    0.0000 O   0  0  0  0  0  0  0  0  0  0  0  0
   -3.8932    4.5956    0.0000 O   0  0  0  0  0  0  0  0  0  0  0  0
   -0.2987   -2.6241    0.0000 O   0  0  0  0  0  0  0  0  0  0  0  0
   -0.4712   -0.9831    0.0000 O   0  0  0  0  0  0  0  0  0  0  0  0
   -3.8932    2.1207    0.0000 N   0  0  0  0  0  0  0  0  0  0  0  0
   -4.6076    3.3582    0.0000 N   0  0  0  0  0  0  0  0  0  0  0  0
    4.8366   -4.1284    0.0000 N   0  0  0  0  0  0  0  0  0  0  0  0
   -4.3057    0.0262    0.0000 C   0  0  1  0  0  0  0  0  0  0  0  0
   -4.5606    0.8108    0.0000 C   0  0  2  0  0  0  0  0  0  0  0  0
   -3.4807    0.0262    0.0000 C   0  0  1  0  0  0  0  0  0  0  0  0
   -3.8932    1.2957    0.0000 C   0  0  1  0  0  0  0  0  0  0  0  0
   -2.9957   -0.6412    0.0000 C   0  0  0  0  0  0  0  0  0  0  0  0
   -4.6076    2.5332    0.0000 C   0  0  0  0  0  0  0  0  0  0  0  0
   -3.1787    2.5332    0.0000 C   0  0  0  0  0  0  0  0  0  0  0  0
   -3.1787    3.3582    0.0000 C   0  0  0  0  0  0  0  0  0  0  0  0
   -3.8932    3.7707    0.0000 C   0  0  0  0  0  0  0  0  0  0  0  0
    2.2257   -2.9660    0.0000 C   0  0  0  0  0  0  0  0  0  0  0  0
    3.0462   -2.8798    0.0000 C   0  0  0  0  0  0  0  0  0  0  0  0
    1.7408   -2.2986    0.0000 C   0  0  0  0  0  0  0  0  0  0  0  0
    3.5311   -3.5472    0.0000 C   0  0  0  0  0  0  0  0  0  0  0  0
    0.9204   -2.3848    0.0000 C   0  0  0  0  0  0  0  0  0  0  0  0
    4.3516   -3.4610    0.0000 C   0  0  0  0  0  0  0  0  0  0  0  0
   -5.0506    3.6140    0.0000 H   0  0  0  0  0  0  0  0  0  0  0  0
    5.3453   -4.0749    0.0000 H   0  0  0  0  0  0  0  0  0  0  0  0
    4.6285   -4.5956    0.0000 H   0  0  0  0  0  0  0  0  0  0  0  0
   -5.7554   -0.5397    0.0000 H   0  0  0  0  0  0  0  0  0  0  0  0
   -5.5470    2.0145    0.0000 H   0  0  0  0  0  0  0  0  0  0  0  0
   -0.1368   -1.1320    0.0000 H   0  0  0  0  0  0  0  0  0  0  0  0
   -1.0835   -3.1942    0.0000 H   0  0  0  0  0  0  0  0  0  0  0  0
   -5.3625    0.1937    0.0000 H   0  0  0  0  0  0  0  0  0  0  0  0
   -5.3172    0.0542    0.0000 H   0  0  0  0  0  0  0  0  0  0  0  0
   -2.4239    0.1936    0.0000 H   0  0  0  0  0  0  0  0  0  0  0  0
   -2.9398    1.7815    0.0000 H   0  0  0  0  0  0  0  0  0  0  0  0
   -3.4308   -1.6187    0.0000 H   0  0  0  0  0  0  0  0  0  0  0  0
   -4.0598   -0.7532    0.0000 H   0  0  0  0  0  0  0  0  0  0  0  0
   -2.2850    2.0172    0.0000 H   0  0  0  0  0  0  0  0  0  0  0  0
   -2.2850    3.8742    0.0000 H   0  0  0  0  0  0  0  0  0  0  0  0
    1.7905   -3.9435    0.0000 H   0  0  0  0  0  0  0  0  0  0  0  0
    1.1616   -3.0778    0.0000 H   0  0  0  0  0  0  0  0  0  0  0  0
    3.4814   -1.9023    0.0000 H   0  0  0  0  0  0  0  0  0  0  0  0
    4.1103   -2.7680    0.0000 H   0  0  0  0  0  0  0  0  0  0  0  0
    2.1760   -1.3211    0.0000 H   0  0  0  0  0  0  0  0  0  0  0  0
    1.1119   -1.4329    0.0000 H   0  0  0  0  0  0  0  0  0  0  0  0
    3.0959   -4.5247    0.0000 H   0  0  0  0  0  0  0  0  0  0  0  0
    4.1600   -4.4129    0.0000 H   0  0  0  0  0  0  0  0  0  0  0  0
    0.4852   -3.3623    0.0000 H   0  0  0  0  0  0  0  0  0  0  0  0
    1.5493   -3.2505    0.0000 H   0  0  0  0  0  0  0  0  0  0  0  0
    4.7868   -2.4835    0.0000 H   0  0  0  0  0  0  0  0  0  0  0  0
    3.7227   -2.5953    0.0000 H   0  0  0  0  0  0  0  0  0  0  0  0
  1  6  1  0  0  0  0
  1  8  1  0  0  0  0
  1  9  1  0  0  0  0
  1 11  2  6  0  0  0
  2  8  1  0  0  0  0
  2 10  1  0  0  0  0
  2 13  1  0  0  0  0
  2 14  2  1  0  0  0
  3 20  1  0  0  0  0
  3 21  1  0  0  0  0
  4 36  1  0  0  0  0
  5 37  1  0  0  0  0
  6 22  1  0  0  0  0
  7 23  2  0  0  0  0
  9 38  1  0  0  0  0
 10 31  1  0  0  0  0
 12 26  2  0  0  0  0
 13 39  1  0  0  0  0
 15 23  1  0  0  0  0
 15 24  1  0  0  0  0
 16 23  1  0  0  0  0
 16 26  1  0  0  0  0
 16 33  1  0  0  0  0
 17 32  1  0  0  0  0
 17 34  1  0  0  0  0
 17 35  1  0  0  0  0
 18  4  1  0  0  0  0
 18 19  1  0  0  0  0
 18 20  1  0  0  0  0
 18 40  1  6  0  0  0
 19  5  1  0  0  0  0
 19 21  1  0  0  0  0
 19 41  1  6  0  0  0
 20 22  1  0  0  0  0
 20 42  1  1  0  0  0
 21 15  1  0  0  0  0
 21 43  1  1  0  0  0
 22 44  1  0  0  0  0
 22 45  1  0  0  0  0
 24 25  2  0  0  0  0
 24 46  1  0  0  0  0
 25 26  1  0  0  0  0
 25 47  1  0  0  0  0
 27 28  1  0  0  0  0
 27 29  1  0  0  0  0
 27 48  1  0  0  0  0
 27 49  1  0  0  0  0
 28 30  1  0  0  0  0
 28 50  1  0  0  0  0
 28 51  1  0  0  0  0
 29 31  1  0  0  0  0
 29 52  1  0  0  0  0
 29 53  1  0  0  0  0
 30 32  1  0  0  0  0
 30 54  1  0  0  0  0
 30 55  1  0  0  0  0
 31 56  1  0  0  0  0
 31 57  1  0  0  0  0
 32 58  1  0  0  0  0
 32 59  1  0  0  0  0
M  END
>  <DRUGBANK_ID>
DB02696

>  <SECONDARY_ACCESSION_NUMBERS>
EXPT03171

>  <COMMON_NAME>
6-Aminohexyl-uridine-C1,5'-diphosphate

>  <CAS_NUMBER>
40248-31-5

$$$$
