EPN
 OpenBabel10282417072D

 25 25  0  0  0  0  0  0  0  0999 V2000
   -2.2934   -0.2824    0.0000 C   0  0  0  0  0  0  0  0  0  0  0  0
   -3.0078   -0.6949    0.0000 O   0  0  0  0  0  0  0  0  0  0  0  0
   -1.5789   -0.6949    0.0000 C   0  0  0  0  0  0  0  0  0  0  0  0
   -0.8644   -0.2824    0.0000 C   0  0  0  0  0  0  0  0  0  0  0  0
   -0.1500   -0.6949    0.0000 O   0  0  0  0  0  0  0  0  0  0  0  0
    1.2790    0.9551    0.0000 C   0  0  0  0  0  0  0  0  0  0  0  0
    1.9934    0.5426    0.0000 C   0  0  0  0  0  0  0  0  0  0  0  0
    2.7079    0.9551    0.0000 N   0  3  0  0  0  0  0  0  0  0  0  0
    2.7079    1.7801    0.0000 O   0  5  0  0  0  0  0  0  0  0  0  0
    3.4224    0.5426    0.0000 O   0  0  0  0  0  0  0  0  0  0  0  0
    1.9934   -0.2824    0.0000 C   0  0  0  0  0  0  0  0  0  0  0  0
    1.2790   -0.6949    0.0000 C   0  0  0  0  0  0  0  0  0  0  0  0
    0.5645   -0.2824    0.0000 C   0  0  0  0  0  0  0  0  0  0  0  0
    0.5645    0.5426    0.0000 C   0  0  0  0  0  0  0  0  0  0  0  0
   -2.2934    0.7876    0.0000 H   0  0  0  0  0  0  0  0  0  0  0  0
   -1.3668    0.2526    0.0000 H   0  0  0  0  0  0  0  0  0  0  0  0
   -3.8479   -0.2099    0.0000 H   0  0  0  0  0  0  0  0  0  0  0  0
   -1.5789   -1.7649    0.0000 H   0  0  0  0  0  0  0  0  0  0  0  0
   -0.6523   -1.2299    0.0000 H   0  0  0  0  0  0  0  0  0  0  0  0
   -0.8644    0.7876    0.0000 H   0  0  0  0  0  0  0  0  0  0  0  0
    0.0623    0.2526    0.0000 H   0  0  0  0  0  0  0  0  0  0  0  0
    1.2790    1.9871    0.0000 H   0  0  0  0  0  0  0  0  0  0  0  0
    2.8871   -0.7984    0.0000 H   0  0  0  0  0  0  0  0  0  0  0  0
    1.2790   -1.7269    0.0000 H   0  0  0  0  0  0  0  0  0  0  0  0
   -0.3292    1.0586    0.0000 H   0  0  0  0  0  0  0  0  0  0  0  0
  1  2  1  0  0  0  0
  1  3  1  0  0  0  0
  1 15  1  0  0  0  0
  1 16  1  0  0  0  0
  2 17  1  0  0  0  0
  3  4  1  0  0  0  0
  3 18  1  0  0  0  0
  3 19  1  0  0  0  0
  4  5  1  0  0  0  0
  4 20  1  0  0  0  0
  4 21  1  0  0  0  0
  5 13  1  0  0  0  0
  6  7  2  0  0  0  0
  6 14  1  0  0  0  0
  6 22  1  0  0  0  0
  7  8  1  0  0  0  0
  7 11  1  0  0  0  0
  8  9  1  0  0  0  0
  8 10  2  0  0  0  0
 11 12  2  0  0  0  0
 11 23  1  0  0  0  0
 12 13  1  0  0  0  0
 12 24  1  0  0  0  0
 13 14  2  0  0  0  0
 14 25  1  0  0  0  0
M  CHG  2   8   1   9  -1
M  END
>  <DRUGBANK_ID>
DB07722

>  <COMMON_NAME>
3-(4-NITRO-PHENOXY)-PROPAN-1-OL

>  <UNII>
7A445P9WZN

$$$$
