041
 OpenBabel10282417072D

 30 32  0  0  0  0  0  0  0  0999 V2000
    2.4038   -0.1389    0.0000 C   0  0  0  0  0  0  0  0  0  0  0  0
    1.6893   -0.5514    0.0000 C   0  0  0  0  0  0  0  0  0  0  0  0
    0.9749   -0.1389    0.0000 C   0  0  0  0  0  0  0  0  0  0  0  0
    0.9749    0.6861    0.0000 C   0  0  0  0  0  0  0  0  0  0  0  0
    1.6893    1.0986    0.0000 C   0  0  0  0  0  0  0  0  0  0  0  0
    2.4038    0.6861    0.0000 C   0  0  0  0  0  0  0  0  0  0  0  0
    0.1903   -0.3939    0.0000 O   0  0  0  0  0  0  0  0  0  0  0  0
   -0.2947    0.2736    0.0000 C   0  0  0  0  0  0  0  0  0  0  0  0
    0.1903    0.9410    0.0000 N   0  0  0  0  0  0  0  0  0  0  0  0
   -1.1197    0.2736    0.0000 C   0  0  0  0  0  0  0  0  0  0  0  0
   -1.5322   -0.4409    0.0000 C   0  0  0  0  0  0  0  0  0  0  0  0
   -2.3572   -0.4409    0.0000 C   0  0  0  0  0  0  0  0  0  0  0  0
   -2.7697    0.2736    0.0000 C   0  0  0  0  0  0  0  0  0  0  0  0
   -2.3572    0.9880    0.0000 C   0  0  0  0  0  0  0  0  0  0  0  0
   -1.5322    0.9880    0.0000 C   0  0  0  0  0  0  0  0  0  0  0  0
    3.1183    1.0986    0.0000 O   0  0  0  0  0  0  0  0  0  0  0  0
   -2.7697    1.7025    0.0000 F   0  0  0  0  0  0  0  0  0  0  0  0
   -3.5947    0.2736    0.0000 O   0  0  0  0  0  0  0  0  0  0  0  0
    1.6893   -1.3764    0.0000 C   0  0  0  0  0  0  0  0  0  0  0  0
    0.9749   -1.7889    0.0000 C   0  0  0  0  0  0  0  0  0  0  0  0
    3.2975   -0.6549    0.0000 H   0  0  0  0  0  0  0  0  0  0  0  0
    1.6893    2.1306    0.0000 H   0  0  0  0  0  0  0  0  0  0  0  0
   -1.0162   -1.3346    0.0000 H   0  0  0  0  0  0  0  0  0  0  0  0
   -2.8732   -1.3346    0.0000 H   0  0  0  0  0  0  0  0  0  0  0  0
   -1.0162    1.8817    0.0000 H   0  0  0  0  0  0  0  0  0  0  0  0
    3.9298    0.6301    0.0000 H   0  0  0  0  0  0  0  0  0  0  0  0
   -4.0632    1.0851    0.0000 H   0  0  0  0  0  0  0  0  0  0  0  0
    2.5830   -1.8924    0.0000 H   0  0  0  0  0  0  0  0  0  0  0  0
    0.0811   -1.2729    0.0000 H   0  0  0  0  0  0  0  0  0  0  0  0
    0.9749   -2.8209    0.0000 H   0  0  0  0  0  0  0  0  0  0  0  0
  1  2  2  0  0  0  0
  1  6  1  0  0  0  0
  1 21  1  0  0  0  0
  2  3  1  0  0  0  0
  2 19  1  0  0  0  0
  3  4  2  0  0  0  0
  3  7  1  0  0  0  0
  4  5  1  0  0  0  0
  4  9  1  0  0  0  0
  5  6  2  0  0  0  0
  5 22  1  0  0  0  0
  6 16  1  0  0  0  0
  7  8  1  0  0  0  0
  8  9  2  0  0  0  0
  8 10  1  0  0  0  0
 10 11  2  0  0  0  0
 10 15  1  0  0  0  0
 11 12  1  0  0  0  0
 11 23  1  0  0  0  0
 12 13  2  0  0  0  0
 12 24  1  0  0  0  0
 13 14  1  0  0  0  0
 13 18  1  0  0  0  0
 14 15  2  0  0  0  0
 14 17  1  0  0  0  0
 15 25  1  0  0  0  0
 16 26  1  0  0  0  0
 18 27  1  0  0  0  0
 19 20  2  0  0  0  0
 19 28  1  0  0  0  0
 20 29  1  0  0  0  0
 20 30  1  0  0  0  0
M  END
>  <DRUGBANK_ID>
DB06832

>  <COMMON_NAME>
Prinaberel

>  <CAS_NUMBER>
524684-52-4

>  <UNII>
A9C8MNF7CA

>  <SYNONYMS>
Prinaberel

$$$$
