
 OpenBabel10282417072D

 65 62  0  0  0  0  0  0  0  0999 V2000
    0.4375   -1.5638    0.0000 C   0  0  0  0  0  0  0  0  0  0  0  0
    1.1836   -1.9649    0.0000 C   0  0  0  0  0  0  0  0  0  0  0  0
   -0.2636   -1.9649    0.0000 C   0  0  0  0  0  0  0  0  0  0  0  0
    1.9045   -1.5048    0.0000 C   0  0  0  0  0  0  0  0  0  0  0  0
   -0.9845   -1.5638    0.0000 C   0  0  0  0  0  0  0  0  0  0  0  0
    2.6058   -1.9283    0.0000 C   0  0  0  0  0  0  0  0  0  0  0  0
   -1.6773   -2.0097    0.0000 C   0  0  0  0  0  0  0  0  0  0  0  0
    3.3266   -1.5048    0.0000 C   0  0  0  0  0  0  0  0  0  0  0  0
   -2.3954   -1.6142    0.0000 C   0  0  0  0  0  0  0  0  0  0  0  0
    4.0812   -1.8835    0.0000 C   0  0  0  0  0  0  0  0  0  0  0  0
   -2.4262   -0.7643    0.0000 O   0  0  0  0  0  0  0  0  0  0  0  0
   -3.1415   -2.0518    0.0000 O   0  5  0  0  0  0  0  0  0  0  0  0
    4.7909   -1.4655    0.0000 C   0  0  0  0  0  0  0  0  0  0  0  0
    0.3057    1.2524    0.0000 C   0  0  0  0  0  0  0  0  0  0  0  0
    1.0518    0.8512    0.0000 C   0  0  0  0  0  0  0  0  0  0  0  0
   -0.3955    0.8512    0.0000 C   0  0  0  0  0  0  0  0  0  0  0  0
    1.7727    1.3113    0.0000 C   0  0  0  0  0  0  0  0  0  0  0  0
   -1.1164    1.2524    0.0000 C   0  0  0  0  0  0  0  0  0  0  0  0
    2.4739    0.8877    0.0000 C   0  0  0  0  0  0  0  0  0  0  0  0
   -1.8092    0.8064    0.0000 C   0  0  0  0  0  0  0  0  0  0  0  0
    3.1948    1.3113    0.0000 C   0  0  0  0  0  0  0  0  0  0  0  0
   -2.5273    1.2018    0.0000 C   0  0  0  0  0  0  0  0  0  0  0  0
    3.9493    0.9326    0.0000 C   0  0  0  0  0  0  0  0  0  0  0  0
   -2.5581    2.0518    0.0000 O   0  0  0  0  0  0  0  0  0  0  0  0
   -3.2734    0.7643    0.0000 O   0  5  0  0  0  0  0  0  0  0  0  0
    4.6590    1.3505    0.0000 C   0  0  0  0  0  0  0  0  0  0  0  0
   -4.7909   -0.7728    0.0000 Ca  0  2  0  0  0  0  0  0  0  0  0  0
    0.4234   -0.4939    0.0000 H   0  0  0  0  0  0  0  0  0  0  0  0
   -0.4916   -1.0331    0.0000 H   0  0  0  0  0  0  0  0  0  0  0  0
    1.2236   -3.0342    0.0000 H   0  0  0  0  0  0  0  0  0  0  0  0
    2.1314   -2.4615    0.0000 H   0  0  0  0  0  0  0  0  0  0  0  0
   -0.2572   -3.0349    0.0000 H   0  0  0  0  0  0  0  0  0  0  0  0
   -1.1844   -2.5100    0.0000 H   0  0  0  0  0  0  0  0  0  0  0  0
    1.8912   -0.4349    0.0000 H   0  0  0  0  0  0  0  0  0  0  0  0
    2.8331   -0.9732    0.0000 H   0  0  0  0  0  0  0  0  0  0  0  0
   -1.0188   -0.4944    0.0000 H   0  0  0  0  0  0  0  0  0  0  0  0
   -1.9319   -1.0664    0.0000 H   0  0  0  0  0  0  0  0  0  0  0  0
    2.5993   -2.9983    0.0000 H   0  0  0  0  0  0  0  0  0  0  0  0
    3.5329   -2.4626    0.0000 H   0  0  0  0  0  0  0  0  0  0  0  0
   -1.6407   -3.0791    0.0000 H   0  0  0  0  0  0  0  0  0  0  0  0
   -2.5891   -2.5697    0.0000 H   0  0  0  0  0  0  0  0  0  0  0  0
    3.2913   -0.4354    0.0000 H   0  0  0  0  0  0  0  0  0  0  0  0
    4.2278   -0.9280    0.0000 H   0  0  0  0  0  0  0  0  0  0  0  0
    4.1158   -2.9149    0.0000 H   0  0  0  0  0  0  0  0  0  0  0  0
    5.6891   -1.9737    0.0000 H   0  0  0  0  0  0  0  0  0  0  0  0
    4.7819   -0.4335    0.0000 H   0  0  0  0  0  0  0  0  0  0  0  0
    0.2916    2.3223    0.0000 H   0  0  0  0  0  0  0  0  0  0  0  0
   -0.6234    1.7831    0.0000 H   0  0  0  0  0  0  0  0  0  0  0  0
    1.0917   -0.2181    0.0000 H   0  0  0  0  0  0  0  0  0  0  0  0
    1.9995    0.3545    0.0000 H   0  0  0  0  0  0  0  0  0  0  0  0
   -0.3892   -0.2188    0.0000 H   0  0  0  0  0  0  0  0  0  0  0  0
   -1.3163    0.3062    0.0000 H   0  0  0  0  0  0  0  0  0  0  0  0
    1.7595    2.3812    0.0000 H   0  0  0  0  0  0  0  0  0  0  0  0
    2.7014    1.8428    0.0000 H   0  0  0  0  0  0  0  0  0  0  0  0
   -1.1507    2.3218    0.0000 H   0  0  0  0  0  0  0  0  0  0  0  0
   -2.0638    1.7497    0.0000 H   0  0  0  0  0  0  0  0  0  0  0  0
    2.4674   -0.1823    0.0000 H   0  0  0  0  0  0  0  0  0  0  0  0
    3.4010    0.3534    0.0000 H   0  0  0  0  0  0  0  0  0  0  0  0
   -1.7725   -0.2630    0.0000 H   0  0  0  0  0  0  0  0  0  0  0  0
   -2.7209    0.2463    0.0000 H   0  0  0  0  0  0  0  0  0  0  0  0
    3.1595    2.3807    0.0000 H   0  0  0  0  0  0  0  0  0  0  0  0
    4.0960    1.8881    0.0000 H   0  0  0  0  0  0  0  0  0  0  0  0
    3.9839   -0.0988    0.0000 H   0  0  0  0  0  0  0  0  0  0  0  0
    5.5571    0.8422    0.0000 H   0  0  0  0  0  0  0  0  0  0  0  0
    4.6502    2.3825    0.0000 H   0  0  0  0  0  0  0  0  0  0  0  0
  1  2  1  0  0  0  0
  1  3  1  0  0  0  0
  1 28  1  0  0  0  0
  1 29  1  0  0  0  0
  2  4  1  0  0  0  0
  2 30  1  0  0  0  0
  2 31  1  0  0  0  0
  3  5  1  0  0  0  0
  3 32  1  0  0  0  0
  3 33  1  0  0  0  0
  4  6  1  0  0  0  0
  4 34  1  0  0  0  0
  4 35  1  0  0  0  0
  5  7  1  0  0  0  0
  5 36  1  0  0  0  0
  5 37  1  0  0  0  0
  6  8  1  0  0  0  0
  6 38  1  0  0  0  0
  6 39  1  0  0  0  0
  7  9  1  0  0  0  0
  7 40  1  0  0  0  0
  7 41  1  0  0  0  0
  8 10  1  0  0  0  0
  8 42  1  0  0  0  0
  8 43  1  0  0  0  0
  9 12  1  0  0  0  0
  9 11  2  0  0  0  0
 10 13  2  0  0  0  0
 10 44  1  0  0  0  0
 13 45  1  0  0  0  0
 13 46  1  0  0  0  0
 14 15  1  0  0  0  0
 14 16  1  0  0  0  0
 14 47  1  0  0  0  0
 14 48  1  0  0  0  0
 15 17  1  0  0  0  0
 15 49  1  0  0  0  0
 15 50  1  0  0  0  0
 16 18  1  0  0  0  0
 16 51  1  0  0  0  0
 16 52  1  0  0  0  0
 17 19  1  0  0  0  0
 17 53  1  0  0  0  0
 17 54  1  0  0  0  0
 18 20  1  0  0  0  0
 18 55  1  0  0  0  0
 18 56  1  0  0  0  0
 19 21  1  0  0  0  0
 19 57  1  0  0  0  0
 19 58  1  0  0  0  0
 20 22  1  0  0  0  0
 20 59  1  0  0  0  0
 20 60  1  0  0  0  0
 21 23  1  0  0  0  0
 21 61  1  0  0  0  0
 21 62  1  0  0  0  0
 22 24  2  0  0  0  0
 22 25  1  0  0  0  0
 23 26  2  0  0  0  0
 23 63  1  0  0  0  0
 26 64  1  0  0  0  0
 26 65  1  0  0  0  0
M  CHG  3  12  -1  25  -1  27   2
M  END
>  <DRUGBANK_ID>
DB15678

>  <COMMON_NAME>
Calcium undecylenate

>  <CAS_NUMBER>
1322-14-1

>  <UNII>
77YW1RTU8V

>  <SYNONYMS>
Calcium 10-undecenoate; Calcium diundec-10-enoate; Calcium undecylenate

$$$$
