MRX
 OpenBabel10282417072D

 35 37  0  0  0  0  0  0  0  0999 V2000
    2.3804    0.4653    0.0000 Br  0  0  0  0  0  0  0  0  0  0  0  0
    1.6659    0.8778    0.0000 C   0  0  0  0  0  0  0  0  0  0  0  0
    0.9515    0.4653    0.0000 C   0  0  0  0  0  0  0  0  0  0  0  0
    1.6659    1.7028    0.0000 C   0  0  0  0  0  0  0  0  0  0  0  0
    0.9515    2.1153    0.0000 C   0  0  0  0  0  0  0  0  0  0  0  0
    0.2370    1.7028    0.0000 C   0  0  0  0  0  0  0  0  0  0  0  0
   -0.5476    1.9577    0.0000 N   0  0  0  0  0  0  0  0  0  0  0  0
   -1.0326    1.2903    0.0000 C   0  0  0  0  0  0  0  0  0  0  0  0
   -1.8576    1.2903    0.0000 C   0  0  0  0  0  0  0  0  0  0  0  0
   -2.2701    0.5758    0.0000 N   0  0  0  0  0  0  0  0  0  0  0  0
   -2.2701    2.0048    0.0000 O   0  0  0  0  0  0  0  0  0  0  0  0
   -0.5476    0.6228    0.0000 C   0  0  0  0  0  0  0  0  0  0  0  0
    0.2370    0.8778    0.0000 C   0  0  0  0  0  0  0  0  0  0  0  0
   -0.8026   -0.1618    0.0000 S   0  0  0  0  0  0  0  0  0  0  0  0
   -0.0180   -0.4167    0.0000 O   0  0  0  0  0  0  0  0  0  0  0  0
   -1.5872    0.0932    0.0000 O   0  0  0  0  0  0  0  0  0  0  0  0
   -1.0575   -0.9464    0.0000 N   0  0  0  0  0  0  0  0  0  0  0  0
   -0.5726   -1.6138    0.0000 C   0  0  0  0  0  0  0  0  0  0  0  0
   -1.0575   -2.2813    0.0000 C   0  0  0  0  0  0  0  0  0  0  0  0
   -1.8421   -2.0263    0.0000 C   0  0  0  0  0  0  0  0  0  0  0  0
   -1.8421   -1.2013    0.0000 C   0  0  0  0  0  0  0  0  0  0  0  0
    0.9515   -0.5667    0.0000 H   0  0  0  0  0  0  0  0  0  0  0  0
    2.5596    2.2188    0.0000 H   0  0  0  0  0  0  0  0  0  0  0  0
    0.9515    3.1473    0.0000 H   0  0  0  0  0  0  0  0  0  0  0  0
   -0.8518    2.8940    0.0000 H   0  0  0  0  0  0  0  0  0  0  0  0
   -3.2546    0.5758    0.0000 H   0  0  0  0  0  0  0  0  0  0  0  0
   -1.7778   -0.2768    0.0000 H   0  0  0  0  0  0  0  0  0  0  0  0
    0.4974   -1.6138    0.0000 H   0  0  0  0  0  0  0  0  0  0  0  0
   -0.0868   -2.5672    0.0000 H   0  0  0  0  0  0  0  0  0  0  0  0
   -0.7269   -3.2989    0.0000 H   0  0  0  0  0  0  0  0  0  0  0  0
   -1.8141   -3.0379    0.0000 H   0  0  0  0  0  0  0  0  0  0  0  0
   -2.7078   -2.6552    0.0000 H   0  0  0  0  0  0  0  0  0  0  0  0
   -2.7955   -1.5405    0.0000 H   0  0  0  0  0  0  0  0  0  0  0  0
   -2.7077   -0.5724    0.0000 H   0  0  0  0  0  0  0  0  0  0  0  0
   -2.7955   -1.6871    0.0000 H   0  0  0  0  0  0  0  0  0  0  0  0
  2  3  1  0  0  0  0
  2  1  1  0  0  0  0
  3 22  1  0  0  0  0
  4  2  2  0  0  0  0
  4 23  1  0  0  0  0
  5  6  2  0  0  0  0
  5  4  1  0  0  0  0
  5 24  1  0  0  0  0
  6 13  1  0  0  0  0
  7  8  1  0  0  0  0
  7  6  1  0  0  0  0
  7 25  1  0  0  0  0
  8 12  2  0  0  0  0
  9 10  1  0  0  0  0
  9  8  1  0  0  0  0
 10 26  1  0  0  0  0
 10 27  1  0  0  0  0
 11  9  2  0  0  0  0
 12 13  1  0  0  0  0
 12 14  1  0  0  0  0
 13  3  2  0  0  0  0
 14 16  2  0  0  0  0
 14 17  1  0  0  0  0
 15 14  2  0  0  0  0
 17 18  1  0  0  0  0
 17 21  1  0  0  0  0
 18 19  1  0  0  0  0
 18 28  1  0  0  0  0
 18 29  1  0  0  0  0
 19 20  1  0  0  0  0
 19 30  1  0  0  0  0
 19 31  1  0  0  0  0
 20 32  1  0  0  0  0
 20 33  1  0  0  0  0
 21 20  1  0  0  0  0
 21 34  1  0  0  0  0
 21 35  1  0  0  0  0
M  END
>  <DRUGBANK_ID>
DB08211

>  <COMMON_NAME>
5-bromo-3-(pyrrolidin-1-ylsulfonyl)-1H-indole-2-carboxamide

>  <UNII>
2REL8H3PKT

$$$$
