
 OpenBabel10282417072D

 91 95  0  0  0  0  0  0  0  0999 V2000
   -8.7354    2.7742    0.0000 C   0  0  0  0  0  0  0  0  0  0  0  0
    8.8006    0.7206    0.0000 C   0  0  0  0  0  0  0  0  0  0  0  0
   -7.9361   -2.7742    0.0000 C   0  0  0  0  0  0  0  0  0  0  0  0
   -8.8006   -0.4599    0.0000 C   0  0  0  0  0  0  0  0  0  0  0  0
   -8.5371   -1.2447    0.0000 C   0  0  0  0  0  0  0  0  0  0  0  0
   -5.4801    1.5394    0.0000 C   0  0  0  0  0  0  0  0  0  0  0  0
   -6.2223    1.8822    0.0000 C   0  0  0  0  0  0  0  0  0  0  0  0
   -6.7540    1.8003    0.0000 C   0  0  0  0  0  0  0  0  0  0  0  0
   -7.2758    2.5238    0.0000 C   0  0  0  0  0  0  0  0  0  0  0  0
    7.3717    0.7206    0.0000 C   0  0  0  0  0  0  0  0  0  0  0  0
    6.6572    0.3081    0.0000 C   0  0  0  0  0  0  0  0  0  0  0  0
    5.2283    0.3081    0.0000 C   0  0  0  0  0  0  0  0  0  0  0  0
    4.5138    0.7206    0.0000 C   0  0  0  0  0  0  0  0  0  0  0  0
    3.0849    0.7206    0.0000 C   0  0  0  0  0  0  0  0  0  0  0  0
    2.3704    0.3081    0.0000 C   0  0  0  0  0  0  0  0  0  0  0  0
    0.9415    0.3081    0.0000 C   0  0  0  0  0  0  0  0  0  0  0  0
    0.2270    0.7206    0.0000 C   0  0  0  0  0  0  0  0  0  0  0  0
   -1.2018    0.7206    0.0000 C   0  0  0  0  0  0  0  0  0  0  0  0
   -1.9163    0.3081    0.0000 C   0  0  0  0  0  0  0  0  0  0  0  0
   -3.3453    0.3081    0.0000 C   0  0  0  0  0  0  0  0  0  0  0  0
   -4.0597    0.7206    0.0000 C   0  0  0  0  0  0  0  0  0  0  0  0
   -8.5752    0.8820    0.0000 C   0  0  0  0  0  0  0  0  0  0  0  0
   -8.2526    0.1527    0.0000 C   0  0  0  0  0  0  0  0  0  0  0  0
   -7.7110   -1.3631    0.0000 C   0  0  0  0  0  0  0  0  0  0  0  0
   -5.4887    0.7206    0.0000 C   0  0  1  0  0  0  0  0  0  0  0  0
   -8.0190    1.4876    0.0000 C   0  0  2  0  0  0  0  0  0  0  0  0
   -7.4545    0.0553    0.0000 C   0  0  0  0  0  0  0  0  0  0  0  0
   -7.1594   -0.7050    0.0000 C   0  0  0  0  0  0  0  0  0  0  0  0
   -6.2147    0.2913    0.0000 C   0  0  1  0  0  0  0  0  0  0  0  0
   -6.9335    0.7702    0.0000 C   0  0  2  0  0  0  0  0  0  0  0  0
   -7.0336    1.3386    0.0000 C   0  0  1  0  0  0  0  0  0  0  0  0
   -8.0628    2.2964    0.0000 N   0  0  0  0  0  0  0  0  0  0  0  0
   -7.2138    2.1437    0.0000 O   0  0  0  0  0  0  0  0  0  0  0  0
    8.0862    0.3081    0.0000 O   0  0  0  0  0  0  0  0  0  0  0  0
   -7.4162   -2.1337    0.0000 O   0  0  0  0  0  0  0  0  0  0  0  0
    5.9428    0.7206    0.0000 O   0  0  0  0  0  0  0  0  0  0  0  0
    3.7994    0.3081    0.0000 O   0  0  0  0  0  0  0  0  0  0  0  0
    1.6559    0.7206    0.0000 O   0  0  0  0  0  0  0  0  0  0  0  0
   -0.4874    0.3081    0.0000 O   0  0  0  0  0  0  0  0  0  0  0  0
   -2.6308    0.7206    0.0000 O   0  0  0  0  0  0  0  0  0  0  0  0
   -4.7742    0.3081    0.0000 O   0  0  0  0  0  0  0  0  0  0  0  0
   -6.3444   -0.5339    0.0000 O   0  0  0  0  0  0  0  0  0  0  0  0
   -5.4844   -0.1043    0.0000 H   0  0  0  0  0  0  0  0  0  0  0  0
   -8.7955    1.7661    0.0000 H   0  0  0  0  0  0  0  0  0  0  0  0
   -6.1925    1.1160    0.0000 H   0  0  0  0  0  0  0  0  0  0  0  0
   -8.6349    3.8395    0.0000 H   0  0  0  0  0  0  0  0  0  0  0  0
   -9.7082    2.3286    0.0000 H   0  0  0  0  0  0  0  0  0  0  0  0
   -9.6077    3.3939    0.0000 H   0  0  0  0  0  0  0  0  0  0  0  0
    9.7273    0.1856    0.0000 H   0  0  0  0  0  0  0  0  0  0  0  0
    8.8006    1.7906    0.0000 H   0  0  0  0  0  0  0  0  0  0  0  0
    9.7272    1.2556    0.0000 H   0  0  0  0  0  0  0  0  0  0  0  0
   -8.9927   -2.6056    0.0000 H   0  0  0  0  0  0  0  0  0  0  0  0
   -7.5538   -3.7736    0.0000 H   0  0  0  0  0  0  0  0  0  0  0  0
   -8.6104   -3.6050    0.0000 H   0  0  0  0  0  0  0  0  0  0  0  0
   -9.8114   -0.2519    0.0000 H   0  0  0  0  0  0  0  0  0  0  0  0
   -9.1977   -2.0376    0.0000 H   0  0  0  0  0  0  0  0  0  0  0  0
   -4.5757    2.1112    0.0000 H   0  0  0  0  0  0  0  0  0  0  0  0
   -4.5456    1.0182    0.0000 H   0  0  0  0  0  0  0  0  0  0  0  0
   -6.3066    2.9489    0.0000 H   0  0  0  0  0  0  0  0  0  0  0  0
   -7.1854    2.3484    0.0000 H   0  0  0  0  0  0  0  0  0  0  0  0
   -5.7112    2.0402    0.0000 H   0  0  0  0  0  0  0  0  0  0  0  0
   -5.9774    1.0643    0.0000 H   0  0  0  0  0  0  0  0  0  0  0  0
   -6.9267    3.5352    0.0000 H   0  0  0  0  0  0  0  0  0  0  0  0
   -8.0128    3.2995    0.0000 H   0  0  0  0  0  0  0  0  0  0  0  0
    7.3717    1.7906    0.0000 H   0  0  0  0  0  0  0  0  0  0  0  0
    8.2983    1.2556    0.0000 H   0  0  0  0  0  0  0  0  0  0  0  0
    6.6572   -0.7619    0.0000 H   0  0  0  0  0  0  0  0  0  0  0  0
    5.7305   -0.2269    0.0000 H   0  0  0  0  0  0  0  0  0  0  0  0
    5.2283   -0.7619    0.0000 H   0  0  0  0  0  0  0  0  0  0  0  0
    6.1549   -0.2269    0.0000 H   0  0  0  0  0  0  0  0  0  0  0  0
    4.5138    1.7906    0.0000 H   0  0  0  0  0  0  0  0  0  0  0  0
    3.5871    1.2556    0.0000 H   0  0  0  0  0  0  0  0  0  0  0  0
    3.0849    1.7906    0.0000 H   0  0  0  0  0  0  0  0  0  0  0  0
    4.0115    1.2556    0.0000 H   0  0  0  0  0  0  0  0  0  0  0  0
    2.3704   -0.7619    0.0000 H   0  0  0  0  0  0  0  0  0  0  0  0
    1.4438   -0.2269    0.0000 H   0  0  0  0  0  0  0  0  0  0  0  0
    0.9415   -0.7619    0.0000 H   0  0  0  0  0  0  0  0  0  0  0  0
    1.8682   -0.2269    0.0000 H   0  0  0  0  0  0  0  0  0  0  0  0
    0.2270    1.7906    0.0000 H   0  0  0  0  0  0  0  0  0  0  0  0
   -0.6997    1.2556    0.0000 H   0  0  0  0  0  0  0  0  0  0  0  0
   -1.2018    1.7906    0.0000 H   0  0  0  0  0  0  0  0  0  0  0  0
   -0.2751    1.2556    0.0000 H   0  0  0  0  0  0  0  0  0  0  0  0
   -1.9163   -0.7619    0.0000 H   0  0  0  0  0  0  0  0  0  0  0  0
   -2.8429   -0.2269    0.0000 H   0  0  0  0  0  0  0  0  0  0  0  0
   -3.3453   -0.7619    0.0000 H   0  0  0  0  0  0  0  0  0  0  0  0
   -2.4187   -0.2269    0.0000 H   0  0  0  0  0  0  0  0  0  0  0  0
   -4.0597    1.7906    0.0000 H   0  0  0  0  0  0  0  0  0  0  0  0
   -4.9863    1.2556    0.0000 H   0  0  0  0  0  0  0  0  0  0  0  0
   -9.6310    1.0559    0.0000 H   0  0  0  0  0  0  0  0  0  0  0  0
   -8.9243    1.8935    0.0000 H   0  0  0  0  0  0  0  0  0  0  0  0
   -6.5000    2.8005    0.0000 H   0  0  0  0  0  0  0  0  0  0  0  0
  1 46  1  0  0  0  0
  1 47  1  0  0  0  0
  1 48  1  0  0  0  0
  2 49  1  0  0  0  0
  2 50  1  0  0  0  0
  2 51  1  0  0  0  0
  3 52  1  0  0  0  0
  3 53  1  0  0  0  0
  3 54  1  0  0  0  0
  4 55  1  0  0  0  0
  5  4  2  0  0  0  0
  5 56  1  0  0  0  0
  6 57  1  0  0  0  0
  6 58  1  0  0  0  0
  7  6  1  0  0  0  0
  7 59  1  0  0  0  0
  7 60  1  0  0  0  0
  8 61  1  0  0  0  0
  8 62  1  0  0  0  0
  9  8  1  0  0  0  0
  9 63  1  0  0  0  0
  9 64  1  0  0  0  0
 10 65  1  0  0  0  0
 10 66  1  0  0  0  0
 11 10  1  0  0  0  0
 11 67  1  0  0  0  0
 11 68  1  0  0  0  0
 12 69  1  0  0  0  0
 12 70  1  0  0  0  0
 13 12  1  0  0  0  0
 13 71  1  0  0  0  0
 13 72  1  0  0  0  0
 14 73  1  0  0  0  0
 14 74  1  0  0  0  0
 15 14  1  0  0  0  0
 15 75  1  0  0  0  0
 15 76  1  0  0  0  0
 16 77  1  0  0  0  0
 16 78  1  0  0  0  0
 17 16  1  0  0  0  0
 17 79  1  0  0  0  0
 17 80  1  0  0  0  0
 18 81  1  0  0  0  0
 18 82  1  0  0  0  0
 19 18  1  0  0  0  0
 19 83  1  0  0  0  0
 19 84  1  0  0  0  0
 20 85  1  0  0  0  0
 20 86  1  0  0  0  0
 21 20  1  0  0  0  0
 21 87  1  0  0  0  0
 21 88  1  0  0  0  0
 22 89  1  0  0  0  0
 22 90  1  0  0  0  0
 23  4  1  0  0  0  0
 23 22  1  0  0  0  0
 24  5  1  0  0  0  0
 25  6  1  0  0  0  0
 25 41  1  0  0  0  0
 25 43  1  1  0  0  0
 26 22  1  0  0  0  0
 26 32  1  0  0  0  0
 26 44  1  6  0  0  0
 27 23  2  0  0  0  0
 28 24  2  0  0  0  0
 28 27  1  0  0  0  0
 29 25  1  0  0  0  0
 29 30  1  0  0  0  0
 29 42  1  0  0  0  0
 29 45  1  1  0  0  0
 30  8  1  0  0  0  0
 30 27  1  1  0  0  0
 30 31  1  0  0  0  0
 31  7  1  0  0  0  0
 31 26  1  0  0  0  0
 31 33  1  1  0  0  0
 32  1  1  0  0  0  0
 32  9  1  0  0  0  0
 33 91  1  0  0  0  0
 34  2  1  0  0  0  0
 34 10  1  0  0  0  0
 35  3  1  0  0  0  0
 35 24  1  0  0  0  0
 36 11  1  0  0  0  0
 36 12  1  0  0  0  0
 37 13  1  0  0  0  0
 37 14  1  0  0  0  0
 38 15  1  0  0  0  0
 38 16  1  0  0  0  0
 39 17  1  0  0  0  0
 39 18  1  0  0  0  0
 40 19  1  0  0  0  0
 40 20  1  0  0  0  0
 41 21  1  0  0  0  0
 42 28  1  0  0  0  0
M  END
>  <DRUGBANK_ID>
DB14146

>  <COMMON_NAME>
Loxicodegol

>  <CAS_NUMBER>
1211231-76-3

>  <UNII>
J2WIV0JMML

$$$$
