
 OpenBabel10282417072D

 43 46  0  0  0  0  0  0  0  0999 V2000
   -1.0544    2.6663    0.0000 C   0  0  0  0  0  0  0  0  0  0  0  0
   -0.3870    2.1814    0.0000 C   0  0  0  0  0  0  0  0  0  0  0  0
   -0.6419    1.3968    0.0000 C   0  0  0  0  0  0  0  0  0  0  0  0
   -1.4669    1.3968    0.0000 C   0  0  0  0  0  0  0  0  0  0  0  0
   -1.7218    2.1814    0.0000 O   0  0  0  0  0  0  0  0  0  0  0  0
   -1.0544    3.4913    0.0000 C   0  0  0  0  0  0  0  0  0  0  0  0
   -0.3399    3.9038    0.0000 C   0  0  0  0  0  0  0  0  0  0  0  0
   -1.9518    0.7294    0.0000 C   0  0  0  0  0  0  0  0  0  0  0  0
   -1.6163   -0.0242    0.0000 C   0  0  0  0  0  0  0  0  0  0  0  0
   -0.8093   -0.1957    0.0000 S   0  0  0  0  0  0  0  0  0  0  0  0
   -0.7231   -1.0163    0.0000 C   0  0  0  0  0  0  0  0  0  0  0  0
   -1.4767   -1.3518    0.0000 N   0  0  0  0  0  0  0  0  0  0  0  0
   -2.0288   -0.7387    0.0000 C   0  0  0  0  0  0  0  0  0  0  0  0
   -0.0086   -1.4288    0.0000 N   0  0  0  0  0  0  0  0  0  0  0  0
   -0.0086   -2.2537    0.0000 C   0  0  1  0  0  0  0  0  0  0  0  0
    0.7058   -2.6663    0.0000 C   0  0  0  0  0  0  0  0  0  0  0  0
   -0.7231   -2.6663    0.0000 C   0  0  0  0  0  0  0  0  0  0  0  0
   -1.4767   -2.3307    0.0000 N   0  0  0  0  0  0  0  0  0  0  0  0
   -2.0288   -2.9439    0.0000 N   0  0  0  0  0  0  0  0  0  0  0  0
   -1.6163   -3.6583    0.0000 N   0  0  0  0  0  0  0  0  0  0  0  0
   -0.8093   -3.4868    0.0000 N   0  0  0  0  0  0  0  0  0  0  0  0
    0.7058   -3.4913    0.0000 C   0  0  0  0  0  0  0  0  0  0  0  0
    1.4203   -3.9037    0.0000 C   0  0  0  0  0  0  0  0  0  0  0  0
    2.1347   -3.4913    0.0000 C   0  0  0  0  0  0  0  0  0  0  0  0
    2.1347   -2.6663    0.0000 C   0  0  0  0  0  0  0  0  0  0  0  0
    1.4203   -2.2537    0.0000 C   0  0  0  0  0  0  0  0  0  0  0  0
    2.8492   -3.9037    0.0000 F   0  0  0  0  0  0  0  0  0  0  0  0
   -2.8492   -0.8250    0.0000 O   0  0  0  0  0  0  0  0  0  0  0  0
    0.5945    2.5003    0.0000 H   0  0  0  0  0  0  0  0  0  0  0  0
   -0.0353    0.5619    0.0000 H   0  0  0  0  0  0  0  0  0  0  0  0
   -1.9810    4.0263    0.0000 H   0  0  0  0  0  0  0  0  0  0  0  0
   -1.0544    4.5613    0.0000 H   0  0  0  0  0  0  0  0  0  0  0  0
    0.5867    3.3688    0.0000 H   0  0  0  0  0  0  0  0  0  0  0  0
   -0.3399    4.9738    0.0000 H   0  0  0  0  0  0  0  0  0  0  0  0
    0.5868    4.4388    0.0000 H   0  0  0  0  0  0  0  0  0  0  0  0
   -2.9781    0.8373    0.0000 H   0  0  0  0  0  0  0  0  0  0  0  0
    0.8440   -0.9365    0.0000 H   0  0  0  0  0  0  0  0  0  0  0  0
   -0.9353   -1.7187    0.0000 H   0  0  0  0  0  0  0  0  0  0  0  0
   -1.6814   -1.3677    0.0000 H   0  0  0  0  0  0  0  0  0  0  0  0
   -0.1879   -4.0074    0.0000 H   0  0  0  0  0  0  0  0  0  0  0  0
    1.4203   -4.9357    0.0000 H   0  0  0  0  0  0  0  0  0  0  0  0
    3.0285   -2.1504    0.0000 H   0  0  0  0  0  0  0  0  0  0  0  0
    1.4203   -1.2217    0.0000 H   0  0  0  0  0  0  0  0  0  0  0  0
  1  2  2  0  0  0  0
  1  5  1  0  0  0  0
  1  6  1  0  0  0  0
  2  3  1  0  0  0  0
  2 29  1  0  0  0  0
  3  4  2  0  0  0  0
  3 30  1  0  0  0  0
  4  8  1  0  0  0  0
  4  5  1  0  0  0  0
  6  7  1  0  0  0  0
  6 31  1  0  0  0  0
  6 32  1  0  0  0  0
  7 33  1  0  0  0  0
  7 34  1  0  0  0  0
  7 35  1  0  0  0  0
  8  9  2  0  0  0  0
  8 36  1  0  0  0  0
  9 10  1  0  0  0  0
 11 10  1  0  0  0  0
 11 14  1  0  0  0  0
 11 12  2  0  0  0  0
 13  9  1  0  0  0  0
 13 12  1  0  0  0  0
 13 28  2  0  0  0  0
 14 37  1  0  0  0  0
 15 14  1  0  0  0  0
 15 17  1  0  0  0  0
 15 16  1  0  0  0  0
 15 38  1  6  0  0  0
 16 26  2  0  0  0  0
 16 22  1  0  0  0  0
 17 21  2  0  0  0  0
 17 18  1  0  0  0  0
 18 19  1  0  0  0  0
 18 39  1  0  0  0  0
 19 20  2  0  0  0  0
 20 21  1  0  0  0  0
 22 23  2  0  0  0  0
 22 40  1  0  0  0  0
 23 24  1  0  0  0  0
 23 41  1  0  0  0  0
 24 25  2  0  0  0  0
 24 27  1  0  0  0  0
 25 26  1  0  0  0  0
 25 42  1  0  0  0  0
 26 43  1  0  0  0  0
M  END
>  <DRUGBANK_ID>
DB08710

>  <COMMON_NAME>
(5Z)-5-[(5-ethylfuran-2-yl)methylidene]-2-[[(S)-(4-fluorophenyl)-(2H-tetrazol-5-yl)methyl]amino]-1,3-thiazol-4-one

$$$$
