
 OpenBabel10282417072D

 70 72  0  0  1  0  0  0  0  0999 V2000
   -0.1251   -4.0496    0.0000 C   0  0  0  0  0  0  0  0  0  0  0  0
    0.5893   -4.4621    0.0000 C   0  0  0  0  0  0  0  0  0  0  0  0
    0.5893   -5.2871    0.0000 C   0  0  0  0  0  0  0  0  0  0  0  0
    1.3038   -4.0496    0.0000 O   0  0  0  0  0  0  0  0  0  0  0  0
    2.0183   -4.4621    0.0000 C   0  0  0  0  0  0  0  0  0  0  0  0
    2.0183   -5.2871    0.0000 O   0  0  0  0  0  0  0  0  0  0  0  0
    2.7327   -4.0496    0.0000 C   0  0  0  0  0  0  0  0  0  0  0  0
    3.4472   -4.4621    0.0000 C   0  0  0  0  0  0  0  0  0  0  0  0
    4.1617   -4.0496    0.0000 C   0  0  0  0  0  0  0  0  0  0  0  0
    4.8762   -4.4621    0.0000 C   0  0  1  0  0  0  0  0  0  0  0  0
    5.5578   -3.9974    0.0000 C   0  0  0  0  0  0  0  0  0  0  0  0
    6.3462   -4.2405    0.0000 C   0  0  0  0  0  0  0  0  0  0  0  0
    6.6476   -5.0085    0.0000 C   0  0  1  0  0  0  0  0  0  0  0  0
    6.2351   -5.7230    0.0000 C   0  0  2  0  0  0  0  0  0  0  0  0
    6.7871   -6.3361    0.0000 C   0  0  0  0  0  0  0  0  0  0  0  0
    7.5408   -6.0005    0.0000 C   0  0  2  0  0  0  0  0  0  0  0  0
    7.4545   -5.1800    0.0000 C   0  0  2  0  0  0  0  0  0  0  0  0
    8.0676   -4.6280    0.0000 C   0  0  0  0  0  0  0  0  0  0  0  0
    8.8523   -4.8829    0.0000 C   0  0  0  0  0  0  0  0  0  0  0  0
    9.4653   -4.3309    0.0000 C   0  0  2  0  0  0  0  0  0  0  0  0
   10.2500   -4.5859    0.0000 C   0  0  0  0  0  0  0  0  0  0  0  0
   10.8631   -4.0338    0.0000 O   0  0  0  0  0  0  0  0  0  0  0  0
   11.6477   -4.2888    0.0000 C   0  0  0  0  0  0  0  0  0  0  0  0
   12.2608   -3.7367    0.0000 C   0  0  0  0  0  0  0  0  0  0  0  0
   13.0454   -3.9917    0.0000 C   0  0  0  0  0  0  0  0  0  0  0  0
   13.2169   -4.7986    0.0000 C   0  0  0  0  0  0  0  0  0  0  0  0
   12.6038   -5.3507    0.0000 C   0  0  0  0  0  0  0  0  0  0  0  0
   11.8192   -5.0957    0.0000 C   0  0  0  0  0  0  0  0  0  0  0  0
   11.2061   -5.6478    0.0000 F   0  0  0  0  0  0  0  0  0  0  0  0
   13.6585   -3.4396    0.0000 F   0  0  0  0  0  0  0  0  0  0  0  0
    9.2938   -3.5239    0.0000 O   0  0  0  0  0  0  0  0  0  0  0  0
    8.2552   -6.4130    0.0000 O   0  0  0  0  0  0  0  0  0  0  0  0
    5.4193   -5.8459    0.0000 O   0  0  0  0  0  0  0  0  0  0  0  0
    4.8145   -5.2848    0.0000 C   0  0  0  0  0  0  0  0  0  0  0  0
   -0.1251   -2.9796    0.0000 H   0  0  0  0  0  0  0  0  0  0  0  0
   -1.0518   -4.5846    0.0000 H   0  0  0  0  0  0  0  0  0  0  0  0
   -1.0517   -3.5146    0.0000 H   0  0  0  0  0  0  0  0  0  0  0  0
    1.5159   -4.9971    0.0000 H   0  0  0  0  0  0  0  0  0  0  0  0
   -0.3373   -5.8221    0.0000 H   0  0  0  0  0  0  0  0  0  0  0  0
    1.5159   -5.8221    0.0000 H   0  0  0  0  0  0  0  0  0  0  0  0
    0.5893   -6.3571    0.0000 H   0  0  0  0  0  0  0  0  0  0  0  0
    2.7327   -2.9796    0.0000 H   0  0  0  0  0  0  0  0  0  0  0  0
    3.6593   -3.5146    0.0000 H   0  0  0  0  0  0  0  0  0  0  0  0
    3.4472   -5.5321    0.0000 H   0  0  0  0  0  0  0  0  0  0  0  0
    4.3738   -4.9971    0.0000 H   0  0  0  0  0  0  0  0  0  0  0  0
    4.1617   -2.9796    0.0000 H   0  0  0  0  0  0  0  0  0  0  0  0
    5.0883   -3.5146    0.0000 H   0  0  0  0  0  0  0  0  0  0  0  0
    4.8362   -3.3928    0.0000 H   0  0  0  0  0  0  0  0  0  0  0  0
    5.3983   -2.9394    0.0000 H   0  0  0  0  0  0  0  0  0  0  0  0
    6.3688   -3.2994    0.0000 H   0  0  0  0  0  0  0  0  0  0  0  0
    7.0740   -3.4561    0.0000 H   0  0  0  0  0  0  0  0  0  0  0  0
    7.3975   -4.4394    0.0000 H   0  0  0  0  0  0  0  0  0  0  0  0
    5.5806   -4.9285    0.0000 H   0  0  0  0  0  0  0  0  0  0  0  0
    7.2992   -5.6112    0.0000 H   0  0  0  0  0  0  0  0  0  0  0  0
    6.5646   -7.3827    0.0000 H   0  0  0  0  0  0  0  0  0  0  0  0
    7.6187   -7.0095    0.0000 H   0  0  0  0  0  0  0  0  0  0  0  0
    7.4848   -7.0690    0.0000 H   0  0  0  0  0  0  0  0  0  0  0  0
    8.4534   -5.5634    0.0000 H   0  0  0  0  0  0  0  0  0  0  0  0
    7.8530   -3.6186    0.0000 H   0  0  0  0  0  0  0  0  0  0  0  0
    9.0669   -5.8923    0.0000 H   0  0  0  0  0  0  0  0  0  0  0  0
    8.4477   -4.0003    0.0000 H   0  0  0  0  0  0  0  0  0  0  0  0
   10.4725   -5.6325    0.0000 H   0  0  0  0  0  0  0  0  0  0  0  0
   11.2676   -4.9165    0.0000 H   0  0  0  0  0  0  0  0  0  0  0  0
   12.0462   -2.7272    0.0000 H   0  0  0  0  0  0  0  0  0  0  0  0
   14.1984   -5.1175    0.0000 H   0  0  0  0  0  0  0  0  0  0  0  0
   12.8184   -6.3602    0.0000 H   0  0  0  0  0  0  0  0  0  0  0  0
   10.0147   -2.8749    0.0000 H   0  0  0  0  0  0  0  0  0  0  0  0
    8.2552   -7.3830    0.0000 H   0  0  0  0  0  0  0  0  0  0  0  0
    3.8185   -5.6757    0.0000 H   0  0  0  0  0  0  0  0  0  0  0  0
    3.9536   -4.6494    0.0000 H   0  0  0  0  0  0  0  0  0  0  0  0
  1  2  1  0  0  0  0
  1 35  1  0  0  0  0
  1 36  1  0  0  0  0
  1 37  1  0  0  0  0
  2  3  1  0  0  0  0
  2  4  1  0  0  0  0
  2 38  1  0  0  0  0
  3 39  1  0  0  0  0
  3 40  1  0  0  0  0
  3 41  1  0  0  0  0
  4  5  1  0  0  0  0
  5  6  2  0  0  0  0
  5  7  1  0  0  0  0
  7  8  1  0  0  0  0
  7 42  1  0  0  0  0
  7 43  1  0  0  0  0
  8  9  1  0  0  0  0
  8 44  1  0  0  0  0
  8 45  1  0  0  0  0
  9 46  1  0  0  0  0
  9 47  1  0  0  0  0
 10  9  1  0  0  0  0
 10 11  1  0  0  0  0
 10 34  1  0  0  0  0
 10 48  1  6  0  0  0
 11 12  1  0  0  0  0
 11 49  1  0  0  0  0
 11 50  1  0  0  0  0
 12 51  1  0  0  0  0
 12 52  1  0  0  0  0
 13 12  1  0  0  0  0
 13 14  1  0  0  0  0
 13 17  1  0  0  0  0
 13 53  1  1  0  0  0
 14 15  1  0  0  0  0
 14 33  1  0  0  0  0
 14 54  1  1  0  0  0
 15 16  1  0  0  0  0
 15 55  1  0  0  0  0
 15 56  1  0  0  0  0
 16 17  1  0  0  0  0
 16 32  1  0  0  0  0
 16 57  1  1  0  0  0
 17 18  1  0  0  0  0
 17 58  1  6  0  0  0
 18 19  2  0  0  0  0
 18 59  1  0  0  0  0
 19 20  1  0  0  0  0
 19 60  1  0  0  0  0
 20 21  1  0  0  0  0
 20 31  1  0  0  0  0
 20 61  1  6  0  0  0
 21 22  1  0  0  0  0
 21 62  1  0  0  0  0
 21 63  1  0  0  0  0
 22 23  1  0  0  0  0
 23 24  2  0  0  0  0
 23 28  1  0  0  0  0
 24 25  1  0  0  0  0
 24 64  1  0  0  0  0
 25 26  2  0  0  0  0
 25 30  1  0  0  0  0
 26 27  1  0  0  0  0
 26 65  1  0  0  0  0
 27 28  2  0  0  0  0
 27 66  1  0  0  0  0
 28 29  1  0  0  0  0
 31 67  1  0  0  0  0
 32 68  1  0  0  0  0
 33 34  1  0  0  0  0
 34 69  1  0  0  0  0
 34 70  1  0  0  0  0
M  END
>  <DRUGBANK_ID>
DB12043

>  <COMMON_NAME>
Sepetaprost

>  <CAS_NUMBER>
1262873-06-2

>  <UNII>
79O7855J4G

>  <SYNONYMS>
Sepetaprost

$$$$
