
 OpenBabel10282417072D

 49 47  0  0  0  0  0  0  0  0999 V2000
   -5.9382    0.0000    0.0000 Ca  0  2  0  0  0  0  0  0  0  0  0  0
   -2.1496    0.6175    0.0000 O   0  0  0  0  0  0  0  0  0  0  0  0
    2.3396    0.6175    0.0000 O   0  0  0  0  0  0  0  0  0  0  0  0
   -2.1615   -1.8526    0.0000 O   0  5  0  0  0  0  0  0  0  0  0  0
    2.3396   -1.8526    0.0000 O   0  5  0  0  0  0  0  0  0  0  0  0
   -1.4489   -0.6175    0.0000 O   0  0  0  0  0  0  0  0  0  0  0  0
    3.0522   -0.6175    0.0000 O   0  0  0  0  0  0  0  0  0  0  0  0
   -2.8622    1.8526    0.0000 O   0  0  0  0  0  0  0  0  0  0  0  0
    1.6389    1.8526    0.0000 O   0  0  0  0  0  0  0  0  0  0  0  0
    4.7030    0.0000    0.0000 O   0  0  0  0  0  0  0  0  0  0  0  0
    5.9382    0.7125    0.0000 N   0  0  0  0  0  0  0  0  0  0  0  0
    5.9382   -0.7125    0.0000 N   0  0  0  0  0  0  0  0  0  0  0  0
   -2.8622   -0.6175    0.0000 C   0  0  0  0  0  0  0  0  0  0  0  0
    1.6270   -0.6175    0.0000 C   0  0  0  0  0  0  0  0  0  0  0  0
   -2.8622    0.2136    0.0000 C   0  0  0  0  0  0  0  0  0  0  0  0
    1.6270    0.2136    0.0000 C   0  0  0  0  0  0  0  0  0  0  0  0
   -2.1615   -1.0332    0.0000 C   0  0  0  0  0  0  0  0  0  0  0  0
    2.3396   -1.0332    0.0000 C   0  0  0  0  0  0  0  0  0  0  0  0
   -3.5867   -1.0332    0.0000 C   0  0  0  0  0  0  0  0  0  0  0  0
    0.9145   -1.0332    0.0000 C   0  0  0  0  0  0  0  0  0  0  0  0
   -3.5867    0.6294    0.0000 C   0  0  0  0  0  0  0  0  0  0  0  0
    0.9145    0.6294    0.0000 C   0  0  0  0  0  0  0  0  0  0  0  0
   -4.2992   -0.6175    0.0000 C   0  0  0  0  0  0  0  0  0  0  0  0
    0.2018   -0.6175    0.0000 C   0  0  0  0  0  0  0  0  0  0  0  0
   -4.2992    0.2136    0.0000 C   0  0  0  0  0  0  0  0  0  0  0  0
    0.2018    0.2136    0.0000 C   0  0  0  0  0  0  0  0  0  0  0  0
   -2.1496    1.4370    0.0000 C   0  0  0  0  0  0  0  0  0  0  0  0
    2.3514    1.4370    0.0000 C   0  0  0  0  0  0  0  0  0  0  0  0
   -1.4370    1.8526    0.0000 C   0  0  0  0  0  0  0  0  0  0  0  0
    3.0640    1.8526    0.0000 C   0  0  0  0  0  0  0  0  0  0  0  0
    5.5225    0.0000    0.0000 C   0  0  0  0  0  0  0  0  0  0  0  0
    6.9227    0.7080    0.0000 H   0  0  0  0  0  0  0  0  0  0  0  0
    5.4498    1.5673    0.0000 H   0  0  0  0  0  0  0  0  0  0  0  0
    5.4498   -1.5673    0.0000 H   0  0  0  0  0  0  0  0  0  0  0  0
    6.9227   -0.7080    0.0000 H   0  0  0  0  0  0  0  0  0  0  0  0
   -3.5904   -2.0652    0.0000 H   0  0  0  0  0  0  0  0  0  0  0  0
    0.9146   -2.0652    0.0000 H   0  0  0  0  0  0  0  0  0  0  0  0
   -3.5904    1.6614    0.0000 H   0  0  0  0  0  0  0  0  0  0  0  0
    0.9146    1.6614    0.0000 H   0  0  0  0  0  0  0  0  0  0  0  0
   -5.1941   -1.1315    0.0000 H   0  0  0  0  0  0  0  0  0  0  0  0
   -0.6931   -1.1315    0.0000 H   0  0  0  0  0  0  0  0  0  0  0  0
   -5.1941    0.7275    0.0000 H   0  0  0  0  0  0  0  0  0  0  0  0
   -0.6931    0.7276    0.0000 H   0  0  0  0  0  0  0  0  0  0  0  0
   -0.5080    1.3217    0.0000 H   0  0  0  0  0  0  0  0  0  0  0  0
   -1.4417    2.9226    0.0000 H   0  0  0  0  0  0  0  0  0  0  0  0
   -0.5127    2.3917    0.0000 H   0  0  0  0  0  0  0  0  0  0  0  0
    3.9930    1.3217    0.0000 H   0  0  0  0  0  0  0  0  0  0  0  0
    3.0593    2.9226    0.0000 H   0  0  0  0  0  0  0  0  0  0  0  0
    3.9883    2.3917    0.0000 H   0  0  0  0  0  0  0  0  0  0  0  0
  2 15  1  0  0  0  0
  2 27  1  0  0  0  0
  3 16  1  0  0  0  0
  3 28  1  0  0  0  0
  4 17  1  0  0  0  0
  5 18  1  0  0  0  0
  6 17  2  0  0  0  0
  7 18  2  0  0  0  0
  8 27  2  0  0  0  0
  9 28  2  0  0  0  0
 10 31  2  0  0  0  0
 11 31  1  0  0  0  0
 11 32  1  0  0  0  0
 11 33  1  0  0  0  0
 12 31  1  0  0  0  0
 12 34  1  0  0  0  0
 12 35  1  0  0  0  0
 13 15  1  0  0  0  0
 13 17  1  0  0  0  0
 13 19  2  0  0  0  0
 14 16  1  0  0  0  0
 14 18  1  0  0  0  0
 14 20  2  0  0  0  0
 15 21  2  0  0  0  0
 16 22  2  0  0  0  0
 19 23  1  0  0  0  0
 19 36  1  0  0  0  0
 20 24  1  0  0  0  0
 20 37  1  0  0  0  0
 21 25  1  0  0  0  0
 21 38  1  0  0  0  0
 22 26  1  0  0  0  0
 22 39  1  0  0  0  0
 23 25  2  0  0  0  0
 23 40  1  0  0  0  0
 24 26  2  0  0  0  0
 24 41  1  0  0  0  0
 25 42  1  0  0  0  0
 26 43  1  0  0  0  0
 27 29  1  0  0  0  0
 28 30  1  0  0  0  0
 29 44  1  0  0  0  0
 29 45  1  0  0  0  0
 29 46  1  0  0  0  0
 30 47  1  0  0  0  0
 30 48  1  0  0  0  0
 30 49  1  0  0  0  0
M  CHG  3   1   2   4  -1   5  -1
M  END
>  <DRUGBANK_ID>
DB13612

>  <COMMON_NAME>
Carbaspirin calcium

>  <CAS_NUMBER>
5749-67-7

>  <UNII>
N667F17JP1

>  <SYNONYMS>
Carbasalate calcium; Carbasalato calcico; Carbasalatum calcicum; Carbaspirin calcium

$$$$
