
 OpenBabel10282417072D

 64 68  0  0  1  0  0  0  0  0999 V2000
   -0.7676   -1.7309    0.0000 C   0  0  0  0  0  0  0  0  0  0  0  0
   -2.0051   -2.4454    0.0000 C   0  0  0  0  0  0  0  0  0  0  0  0
    3.9934    0.8250    0.0000 C   0  0  0  0  0  0  0  0  0  0  0  0
    3.2789    1.2375    0.0000 C   0  0  0  0  0  0  0  0  0  0  0  0
   -5.3051   -2.4454    0.0000 C   0  0  0  0  0  0  0  0  0  0  0  0
   -4.0676   -3.1599    0.0000 C   0  0  0  0  0  0  0  0  0  0  0  0
   -5.7176   -3.1599    0.0000 C   0  0  0  0  0  0  0  0  0  0  0  0
   -4.4801   -3.8743    0.0000 C   0  0  0  0  0  0  0  0  0  0  0  0
   -0.7676    1.1270    0.0000 C   0  0  0  0  0  0  0  0  0  0  0  0
   -1.5926    1.1270    0.0000 C   0  0  0  0  0  0  0  0  0  0  0  0
   -2.0051   -1.0164    0.0000 C   0  0  0  0  0  0  0  0  0  0  0  0
    3.2789   -0.4125    0.0000 C   0  0  0  0  0  0  0  0  0  0  0  0
    1.7798   -0.2549    0.0000 C   0  0  0  0  0  0  0  0  0  0  0  0
   -4.4801   -1.0164    0.0000 C   0  0  0  0  0  0  0  0  0  0  0  0
   -3.2426   -1.7309    0.0000 C   0  0  0  0  0  0  0  0  0  0  0  0
   -0.7676   -0.3020    0.0000 C   0  0  0  0  0  0  0  0  0  0  0  0
   -1.5926   -1.7309    0.0000 C   0  0  0  0  0  0  0  0  0  0  0  0
   -4.4801   -2.4454    0.0000 C   0  0  0  0  0  0  0  0  0  0  0  0
    2.5645    0.0000    0.0000 C   0  0  0  0  0  0  0  0  0  0  0  0
   -4.0676   -1.7309    0.0000 C   0  0  0  0  0  0  0  0  0  0  0  0
    3.9934    0.0000    0.0000 C   0  0  0  0  0  0  0  0  0  0  0  0
   -1.5926   -0.3020    0.0000 C   0  0  2  0  0  0  0  0  0  0  0  0
    2.5645    0.8250    0.0000 C   0  0  0  0  0  0  0  0  0  0  0  0
    1.2949    0.4125    0.0000 C   0  0  0  0  0  0  0  0  0  0  0  0
   -3.2426   -0.3020    0.0000 C   0  0  0  0  0  0  0  0  0  0  0  0
   -2.8301    0.4125    0.0000 C   0  0  0  0  0  0  0  0  0  0  0  0
    4.7079   -0.4125    0.0000 Cl  0  0  0  0  0  0  0  0  0  0  0  0
   -5.3051   -3.8743    0.0000 N   0  0  0  0  0  0  0  0  0  0  0  0
   -4.0676   -0.3020    0.0000 N   0  0  0  0  0  0  0  0  0  0  0  0
   -2.8301   -1.0164    0.0000 N   0  0  0  0  0  0  0  0  0  0  0  0
    1.7798    1.0799    0.0000 N   0  0  0  0  0  0  0  0  0  0  0  0
   -0.3551    0.4125    0.0000 N   0  0  0  0  0  0  0  0  0  0  0  0
   -2.0051    0.4125    0.0000 N   0  0  0  0  0  0  0  0  0  0  0  0
   -3.2426    1.1270    0.0000 O   0  0  0  0  0  0  0  0  0  0  0  0
    0.4699    1.2375    0.0000 O   0  0  0  0  0  0  0  0  0  0  0  0
    0.4699   -0.4125    0.0000 O   0  0  0  0  0  0  0  0  0  0  0  0
    0.4699    0.4125    0.0000 S   0  0  0  0  0  0  0  0  0  0  0  0
   -1.1801   -1.0164    0.0000 H   0  0  0  0  0  0  0  0  0  0  0  0
   -0.2326   -2.6575    0.0000 H   0  0  0  0  0  0  0  0  0  0  0  0
   -0.2326   -0.8043    0.0000 H   0  0  0  0  0  0  0  0  0  0  0  0
    0.3024   -1.7309    0.0000 H   0  0  0  0  0  0  0  0  0  0  0  0
   -3.0751   -2.4454    0.0000 H   0  0  0  0  0  0  0  0  0  0  0  0
   -1.4701   -3.3720    0.0000 H   0  0  0  0  0  0  0  0  0  0  0  0
   -2.5401   -3.3721    0.0000 H   0  0  0  0  0  0  0  0  0  0  0  0
    4.8871    1.3410    0.0000 H   0  0  0  0  0  0  0  0  0  0  0  0
    3.2789    2.2695    0.0000 H   0  0  0  0  0  0  0  0  0  0  0  0
   -5.8211   -1.5517    0.0000 H   0  0  0  0  0  0  0  0  0  0  0  0
   -3.0356   -3.1599    0.0000 H   0  0  0  0  0  0  0  0  0  0  0  0
   -6.7496   -3.1599    0.0000 H   0  0  0  0  0  0  0  0  0  0  0  0
   -3.9641   -4.7680    0.0000 H   0  0  0  0  0  0  0  0  0  0  0  0
   -0.2326    2.0536    0.0000 H   0  0  0  0  0  0  0  0  0  0  0  0
    0.3024    1.1270    0.0000 H   0  0  0  0  0  0  0  0  0  0  0  0
   -2.1276    2.0536    0.0000 H   0  0  0  0  0  0  0  0  0  0  0  0
   -2.6626    1.1270    0.0000 H   0  0  0  0  0  0  0  0  0  0  0  0
   -3.0751   -1.0164    0.0000 H   0  0  0  0  0  0  0  0  0  0  0  0
   -2.5401   -0.0897    0.0000 H   0  0  0  0  0  0  0  0  0  0  0  0
    3.2789   -1.4445    0.0000 H   0  0  0  0  0  0  0  0  0  0  0  0
    1.4609   -1.2364    0.0000 H   0  0  0  0  0  0  0  0  0  0  0  0
   -5.5121   -1.0164    0.0000 H   0  0  0  0  0  0  0  0  0  0  0  0
   -2.7266   -2.6246    0.0000 H   0  0  0  0  0  0  0  0  0  0  0  0
   -0.2326   -1.2286    0.0000 H   0  0  0  0  0  0  0  0  0  0  0  0
    0.3024   -0.3020    0.0000 H   0  0  0  0  0  0  0  0  0  0  0  0
   -2.6626   -1.7309    0.0000 H   0  0  0  0  0  0  0  0  0  0  0  0
    1.4755    2.0162    0.0000 H   0  0  0  0  0  0  0  0  0  0  0  0
  1 39  1  0  0  0  0
  1 40  1  0  0  0  0
  1 41  1  0  0  0  0
  2 42  1  0  0  0  0
  2 43  1  0  0  0  0
  2 44  1  0  0  0  0
  3 45  1  0  0  0  0
  4  3  1  0  0  0  0
  4 46  1  0  0  0  0
  5 47  1  0  0  0  0
  6 48  1  0  0  0  0
  7  5  1  0  0  0  0
  7 49  1  0  0  0  0
  8  6  2  0  0  0  0
  8 50  1  0  0  0  0
  9 51  1  0  0  0  0
  9 52  1  0  0  0  0
 10  9  1  0  0  0  0
 10 53  1  0  0  0  0
 10 54  1  0  0  0  0
 11 55  1  0  0  0  0
 11 56  1  0  0  0  0
 12 57  1  0  0  0  0
 13 58  1  0  0  0  0
 14 59  1  0  0  0  0
 15 60  1  0  0  0  0
 16 61  1  0  0  0  0
 16 62  1  0  0  0  0
 17  1  1  0  0  0  0
 17  2  1  0  0  0  0
 17 11  1  0  0  0  0
 17 63  1  0  0  0  0
 18  5  2  0  0  0  0
 18  6  1  0  0  0  0
 19 12  2  0  0  0  0
 19 13  1  0  0  0  0
 20 14  2  0  0  0  0
 20 15  1  0  0  0  0
 20 18  1  0  0  0  0
 21  3  2  0  0  0  0
 21 12  1  0  0  0  0
 22 11  1  0  0  0  0
 22 16  1  0  0  0  0
 22 38  1  6  0  0  0
 23  4  2  0  0  0  0
 23 19  1  0  0  0  0
 24 13  2  0  0  0  0
 26 25  1  0  0  0  0
 27 21  1  0  0  0  0
 28  7  2  0  0  0  0
 28  8  1  0  0  0  0
 29 14  1  0  0  0  0
 29 25  2  0  0  0  0
 30 15  2  0  0  0  0
 30 25  1  0  0  0  0
 31 23  1  0  0  0  0
 31 24  1  0  0  0  0
 31 64  1  0  0  0  0
 32  9  1  0  0  0  0
 32 16  1  0  0  0  0
 33 10  1  0  0  0  0
 33 22  1  0  0  0  0
 33 26  1  0  0  0  0
 34 26  2  0  0  0  0
 37 24  1  0  0  0  0
 37 32  1  0  0  0  0
 37 35  2  0  0  0  0
 37 36  2  0  0  0  0
M  END
>  <DRUGBANK_ID>
DB04673

>  <COMMON_NAME>
4-[(5-CHLOROINDOL-2-YL)SULFONYL]-2-(2-METHYLPROPYL)-1-[[5-(PYRIDIN-4-YL)PYRIMIDIN-2-YL]CARBONYL]PIPERAZINE

$$$$
