
 OpenBabel10282417072D

 16 16  0  0  0  0  0  0  0  0999 V2000
    0.0000    0.8251    0.0000 C   0  0  0  0  0  0  0  0  0  0  0  0
   -0.7145    0.4125    0.0000 C   0  0  0  0  0  0  0  0  0  0  0  0
   -0.7145   -0.4125    0.0000 C   0  0  0  0  0  0  0  0  0  0  0  0
    0.0000   -0.8251    0.0000 C   0  0  0  0  0  0  0  0  0  0  0  0
    0.7145   -0.4125    0.0000 C   0  0  0  0  0  0  0  0  0  0  0  0
    0.7145    0.4125    0.0000 C   0  0  0  0  0  0  0  0  0  0  0  0
    0.0000    1.6501    0.0000 N   0  0  0  0  0  0  0  0  0  0  0  0
    0.0000   -1.6501    0.0000 N   0  0  0  0  0  0  0  0  0  0  0  0
   -1.6083    0.9285    0.0000 H   0  0  0  0  0  0  0  0  0  0  0  0
   -1.6083   -0.9285    0.0000 H   0  0  0  0  0  0  0  0  0  0  0  0
    1.6083   -0.9285    0.0000 H   0  0  0  0  0  0  0  0  0  0  0  0
    1.6083    0.9285    0.0000 H   0  0  0  0  0  0  0  0  0  0  0  0
    0.8526    2.1423    0.0000 H   0  0  0  0  0  0  0  0  0  0  0  0
   -0.8526    2.1423    0.0000 H   0  0  0  0  0  0  0  0  0  0  0  0
   -0.8526   -2.1423    0.0000 H   0  0  0  0  0  0  0  0  0  0  0  0
    0.8526   -2.1423    0.0000 H   0  0  0  0  0  0  0  0  0  0  0  0
  1  2  1  0  0  0  0
  1  6  2  0  0  0  0
  1  7  1  0  0  0  0
  2  3  2  0  0  0  0
  2  9  1  0  0  0  0
  3  4  1  0  0  0  0
  3 10  1  0  0  0  0
  4  5  2  0  0  0  0
  4  8  1  0  0  0  0
  5  6  1  0  0  0  0
  5 11  1  0  0  0  0
  6 12  1  0  0  0  0
  7 13  1  0  0  0  0
  7 14  1  0  0  0  0
  8 15  1  0  0  0  0
  8 16  1  0  0  0  0
M  END
>  <DRUGBANK_ID>
DB14141

>  <COMMON_NAME>
p-Phenylenediamine

>  <CAS_NUMBER>
106-50-3

>  <UNII>
U770QIT64J

>  <SYNONYMS>
1,4-Benzenediamine; 1,4-diaminobenzene; 1,4-phenylenediamine; 4-Aminoaniline; 4-phenylenediamine; p-Diaminobenzene; para-phenylenediamine; paraphenylene-diamine; PPD; pPDA

$$$$
