1550
 OpenBabel10282417072D

 30 30  0  0  1  0  0  0  0  0999 V2000
    3.0788    0.8249    0.0000 N   0  0  0  0  0  0  0  0  0  0  0  0
    5.2219    2.8873    0.0000 N   0  0  0  0  0  0  0  0  0  0  0  0
    3.0788    0.0000    0.0000 C   0  0  3  0  0  0  0  0  0  0  0  0
    2.3643   -0.4125    0.0000 C   0  0  0  0  0  0  0  0  0  0  0  0
    2.3643   -1.2374    0.0000 C   0  0  0  0  0  0  0  0  0  0  0  0
    3.7932   -0.4125    0.0000 C   0  0  0  0  0  0  0  0  0  0  0  0
    3.7932    1.2374    0.0000 C   0  0  0  0  0  0  0  0  0  0  0  0
    3.0788   -1.6498    0.0000 C   0  0  0  0  0  0  0  0  0  0  0  0
    1.6498   -1.6498    0.0000 C   0  0  0  0  0  0  0  0  0  0  0  0
    3.7932    2.0623    0.0000 C   0  0  0  0  0  0  0  0  0  0  0  0
    3.0788   -2.4749    0.0000 C   0  0  0  0  0  0  0  0  0  0  0  0
    1.6498   -2.4749    0.0000 C   0  0  0  0  0  0  0  0  0  0  0  0
    2.3643   -2.8873    0.0000 C   0  0  0  0  0  0  0  0  0  0  0  0
    4.5076    2.4749    0.0000 C   0  0  0  0  0  0  0  0  0  0  0  0
    2.1954    1.3349    0.0000 H   0  0  0  0  0  0  0  0  0  0  0  0
    2.1522    0.5350    0.0000 H   0  0  0  0  0  0  0  0  0  0  0  0
    1.4377    0.1225    0.0000 H   0  0  0  0  0  0  0  0  0  0  0  0
    1.4377   -0.9475    0.0000 H   0  0  0  0  0  0  0  0  0  0  0  0
    3.7932   -1.4825    0.0000 H   0  0  0  0  0  0  0  0  0  0  0  0
    4.7199    0.1225    0.0000 H   0  0  0  0  0  0  0  0  0  0  0  0
    4.7198   -0.9475    0.0000 H   0  0  0  0  0  0  0  0  0  0  0  0
    4.7199    0.7024    0.0000 H   0  0  0  0  0  0  0  0  0  0  0  0
    4.7198    1.7724    0.0000 H   0  0  0  0  0  0  0  0  0  0  0  0
    3.9725   -1.1337    0.0000 H   0  0  0  0  0  0  0  0  0  0  0  0
    0.7561   -1.1337    0.0000 H   0  0  0  0  0  0  0  0  0  0  0  0
    2.8665    2.5972    0.0000 H   0  0  0  0  0  0  0  0  0  0  0  0
    3.7931    3.1323    0.0000 H   0  0  0  0  0  0  0  0  0  0  0  0
    3.9725   -2.9910    0.0000 H   0  0  0  0  0  0  0  0  0  0  0  0
    0.7561   -2.9910    0.0000 H   0  0  0  0  0  0  0  0  0  0  0  0
    2.3643   -3.9193    0.0000 H   0  0  0  0  0  0  0  0  0  0  0  0
  1  3  1  0  0  0  0
  1  7  1  0  0  0  0
  1 15  1  0  0  0  0
  2 14  3  0  0  0  0
  3  4  1  0  0  0  0
  3  6  1  0  0  0  0
  3 16  1  0  0  0  0
  4  5  1  0  0  0  0
  4 17  1  0  0  0  0
  4 18  1  0  0  0  0
  5  8  2  0  0  0  0
  5  9  1  0  0  0  0
  6 19  1  0  0  0  0
  6 20  1  0  0  0  0
  6 21  1  0  0  0  0
  7 10  1  0  0  0  0
  7 22  1  0  0  0  0
  7 23  1  0  0  0  0
  8 11  1  0  0  0  0
  8 24  1  0  0  0  0
  9 12  2  0  0  0  0
  9 25  1  0  0  0  0
 10 14  1  0  0  0  0
 10 26  1  0  0  0  0
 10 27  1  0  0  0  0
 11 13  2  0  0  0  0
 11 28  1  0  0  0  0
 12 13  1  0  0  0  0
 12 29  1  0  0  0  0
 13 30  1  0  0  0  0
M  END
>  <DRUGBANK_ID>
DB01550

>  <COMMON_NAME>
Fenproporex

>  <CAS_NUMBER>
16397-28-7

>  <UNII>
W0194S5FOA

>  <SYNONYMS>
Femproporex; Fenproporex; Fenproporexum

$$$$
