
 OpenBabel10282417072D

113119  0  0  1  0  0  0  0  0999 V2000
    0.8458   -1.1897    0.0000 C   0  0  1  0  0  0  0  0  0  0  0  0
    2.5189   -0.7993    0.0000 C   0  0  1  0  0  0  0  0  0  0  0  0
    3.1510    0.3068    0.0000 C   0  0  0  0  0  0  0  0  0  0  0  0
    1.2455    1.2363    0.0000 C   0  0  0  0  0  0  0  0  0  0  0  0
    0.2138    1.2363    0.0000 C   0  0  1  0  0  0  0  0  0  0  0  0
   -0.3625    0.6415    0.0000 C   0  0  0  0  0  0  0  0  0  0  0  0
   -1.0969    0.6415    0.0000 C   0  0  0  0  0  0  0  0  0  0  0  0
   -1.4686    0.0000    0.0000 C   0  0  2  0  0  0  0  0  0  0  0  0
   -1.0969   -0.6413    0.0000 C   0  0  0  0  0  0  0  0  0  0  0  0
   -1.4686    1.2735    0.0000 C   0  0  0  0  0  0  0  0  0  0  0  0
    3.1785   -1.2832    0.0000 C   0  0  0  0  0  0  0  0  0  0  0  0
    2.5138   -1.5603    0.0000 O   0  0  0  0  0  0  0  0  0  0  0  0
    3.1440   -1.9400    0.0000 C   0  0  0  0  0  0  0  0  0  0  0  0
    3.8793   -1.5360    0.0000 C   0  0  0  0  0  0  0  0  0  0  0  0
    3.1440   -2.6511    0.0000 O   0  0  0  0  0  0  0  0  0  0  0  0
    1.4552    1.9708    0.0000 O   0  0  0  0  0  0  0  0  0  0  0  0
    0.8008   -2.0693    0.0000 O   0  0  0  0  0  0  0  0  0  0  0  0
   -0.6281   -3.7193    0.0000 C   0  0  0  0  0  0  0  0  0  0  0  0
   -0.6281   -4.5443    0.0000 C   0  0  0  0  0  0  0  0  0  0  0  0
    0.0863   -4.9568    0.0000 C   0  0  0  0  0  0  0  0  0  0  0  0
    0.8008   -4.5443    0.0000 C   0  0  0  0  0  0  0  0  0  0  0  0
    0.8008   -3.7193    0.0000 C   0  0  0  0  0  0  0  0  0  0  0  0
    0.0863   -3.3068    0.0000 C   0  0  0  0  0  0  0  0  0  0  0  0
    0.0863   -2.4818    0.0000 C   0  0  0  0  0  0  0  0  0  0  0  0
   -0.6281   -2.0693    0.0000 O   0  0  0  0  0  0  0  0  0  0  0  0
   -0.1850    2.1000    0.0000 O   0  0  0  0  0  0  0  0  0  0  0  0
   -0.8995    3.3375    0.0000 O   0  0  0  0  0  0  0  0  0  0  0  0
   -0.1850    2.9250    0.0000 C   0  0  0  0  0  0  0  0  0  0  0  0
    0.5295    3.3375    0.0000 C   0  0  0  0  0  0  0  0  0  0  0  0
    1.8776   -0.4368    0.0000 C   0  0  2  0  0  0  0  0  0  0  0  0
    1.8776   -1.2618    0.0000 H   0  0  0  0  0  0  0  0  0  0  0  0
    1.8776    0.3068    0.0000 C   0  0  2  0  0  0  0  0  0  0  0  0
    1.8776    1.1318    0.0000 C   0  0  0  0  0  0  0  0  0  0  0  0
   -0.3625   -0.6413    0.0000 C   0  0  1  0  0  0  0  0  0  0  0  0
   -0.3625   -1.4663    0.0000 O   0  0  0  0  0  0  0  0  0  0  0  0
    0.7145    0.4125    0.0000 C   0  0  0  0  0  0  0  0  0  0  0  0
    0.7145   -0.4125    0.0000 C   0  0  0  0  0  0  0  0  0  0  0  0
    2.5189    0.6693    0.0000 C   0  0  1  0  0  0  0  0  0  0  0  0
    2.5189    1.4943    0.0000 O   0  0  0  0  0  0  0  0  0  0  0  0
    3.1510   -0.4368    0.0000 C   0  0  1  0  0  0  0  0  0  0  0  0
    3.8655   -0.8493    0.0000 O   0  0  0  0  0  0  0  0  0  0  0  0
    0.0000    0.0000    0.0000 C   0  0  0  0  0  0  0  0  0  0  0  0
   -2.1161   -0.3725    0.0000 O   0  0  0  0  0  0  0  0  0  0  0  0
   -5.7049    0.0235    0.0000 C   0  0  0  0  0  0  0  0  0  0  0  0
   -6.4194   -0.3890    0.0000 C   0  0  0  0  0  0  0  0  0  0  0  0
   -6.4194   -1.2140    0.0000 C   0  0  0  0  0  0  0  0  0  0  0  0
   -5.7049   -1.6265    0.0000 C   0  0  0  0  0  0  0  0  0  0  0  0
   -4.9740   -0.3890    0.0000 C   0  0  0  0  0  0  0  0  0  0  0  0
   -4.9740   -1.2140    0.0000 C   0  0  0  0  0  0  0  0  0  0  0  0
   -3.5450   -0.3725    0.0000 C   0  0  2  0  0  0  0  0  0  0  0  0
   -4.2595    0.0235    0.0000 C   0  0  1  0  0  0  0  0  0  0  0  0
   -2.8306    0.0400    0.0000 C   0  0  0  0  0  0  0  0  0  0  0  0
   -2.8306    0.8650    0.0000 O   0  0  0  0  0  0  0  0  0  0  0  0
   -3.5450   -1.1975    0.0000 O   0  0  0  0  0  0  0  0  0  0  0  0
   -4.2595    0.8485    0.0000 N   0  0  0  0  0  0  0  0  0  0  0  0
   -5.6884    2.4985    0.0000 C   0  0  0  0  0  0  0  0  0  0  0  0
   -5.6884    3.3235    0.0000 C   0  0  0  0  0  0  0  0  0  0  0  0
   -4.9740    3.7360    0.0000 C   0  0  0  0  0  0  0  0  0  0  0  0
   -4.2595    3.3235    0.0000 C   0  0  0  0  0  0  0  0  0  0  0  0
   -4.2595    2.4985    0.0000 C   0  0  0  0  0  0  0  0  0  0  0  0
   -4.9740    2.0860    0.0000 C   0  0  0  0  0  0  0  0  0  0  0  0
   -4.9740    1.2610    0.0000 C   0  0  0  0  0  0  0  0  0  0  0  0
   -5.6884    0.8485    0.0000 O   0  0  0  0  0  0  0  0  0  0  0  0
   -0.0682   -1.7461    0.0000 H   0  0  0  0  0  0  0  0  0  0  0  0
    4.0769    0.8431    0.0000 H   0  0  0  0  0  0  0  0  0  0  0  0
    3.1487    1.3768    0.0000 H   0  0  0  0  0  0  0  0  0  0  0  0
   -0.8410    1.4158    0.0000 H   0  0  0  0  0  0  0  0  0  0  0  0
   -2.2240    0.7578    0.0000 H   0  0  0  0  0  0  0  0  0  0  0  0
   -1.6311   -1.5684    0.0000 H   0  0  0  0  0  0  0  0  0  0  0  0
   -0.5615   -1.5677    0.0000 H   0  0  0  0  0  0  0  0  0  0  0  0
   -0.9411    2.2044    0.0000 H   0  0  0  0  0  0  0  0  0  0  0  0
   -2.5386    1.2649    0.0000 H   0  0  0  0  0  0  0  0  0  0  0  0
   -2.0110    2.1958    0.0000 H   0  0  0  0  0  0  0  0  0  0  0  0
    3.1413   -2.3526    0.0000 H   0  0  0  0  0  0  0  0  0  0  0  0
    4.1065   -1.8159    0.0000 H   0  0  0  0  0  0  0  0  0  0  0  0
    4.7944   -2.0905    0.0000 H   0  0  0  0  0  0  0  0  0  0  0  0
    3.9020   -0.4662    0.0000 H   0  0  0  0  0  0  0  0  0  0  0  0
    4.8171   -1.0208    0.0000 H   0  0  0  0  0  0  0  0  0  0  0  0
   -1.5218   -3.2033    0.0000 H   0  0  0  0  0  0  0  0  0  0  0  0
   -1.5218   -5.0603    0.0000 H   0  0  0  0  0  0  0  0  0  0  0  0
    0.0863   -5.9888    0.0000 H   0  0  0  0  0  0  0  0  0  0  0  0
    1.6945   -5.0603    0.0000 H   0  0  0  0  0  0  0  0  0  0  0  0
    1.6945   -3.2033    0.0000 H   0  0  0  0  0  0  0  0  0  0  0  0
    1.4561    2.8025    0.0000 H   0  0  0  0  0  0  0  0  0  0  0  0
    0.5295    4.4075    0.0000 H   0  0  0  0  0  0  0  0  0  0  0  0
    1.4562    3.8725    0.0000 H   0  0  0  0  0  0  0  0  0  0  0  0
    2.8042    1.6668    0.0000 H   0  0  0  0  0  0  0  0  0  0  0  0
    0.9510    1.6668    0.0000 H   0  0  0  0  0  0  0  0  0  0  0  0
    1.8776    2.2018    0.0000 H   0  0  0  0  0  0  0  0  0  0  0  0
   -1.2025   -1.9513    0.0000 H   0  0  0  0  0  0  0  0  0  0  0  0
    1.6411   -0.1225    0.0000 H   0  0  0  0  0  0  0  0  0  0  0  0
    0.7145    1.4825    0.0000 H   0  0  0  0  0  0  0  0  0  0  0  0
    1.6412    0.9475    0.0000 H   0  0  0  0  0  0  0  0  0  0  0  0
    0.7145   -1.4825    0.0000 H   0  0  0  0  0  0  0  0  0  0  0  0
    1.6411    0.1225    0.0000 H   0  0  0  0  0  0  0  0  0  0  0  0
    1.6412   -0.9475    0.0000 H   0  0  0  0  0  0  0  0  0  0  0  0
    3.4448    1.2056    0.0000 H   0  0  0  0  0  0  0  0  0  0  0  0
    3.3589    1.9793    0.0000 H   0  0  0  0  0  0  0  0  0  0  0  0
    4.0776    0.0982    0.0000 H   0  0  0  0  0  0  0  0  0  0  0  0
   -5.7099    1.0555    0.0000 H   0  0  0  0  0  0  0  0  0  0  0  0
   -7.3131    0.1270    0.0000 H   0  0  0  0  0  0  0  0  0  0  0  0
   -7.3131   -1.7300    0.0000 H   0  0  0  0  0  0  0  0  0  0  0  0
   -5.7099   -2.6585    0.0000 H   0  0  0  0  0  0  0  0  0  0  0  0
   -4.0828   -1.7344    0.0000 H   0  0  0  0  0  0  0  0  0  0  0  0
   -4.4669   -0.9156    0.0000 H   0  0  0  0  0  0  0  0  0  0  0  0
   -5.1861    0.5585    0.0000 H   0  0  0  0  0  0  0  0  0  0  0  0
   -4.3850   -1.6825    0.0000 H   0  0  0  0  0  0  0  0  0  0  0  0
   -3.4069    1.3408    0.0000 H   0  0  0  0  0  0  0  0  0  0  0  0
   -6.5821    1.9825    0.0000 H   0  0  0  0  0  0  0  0  0  0  0  0
   -6.5821    3.8395    0.0000 H   0  0  0  0  0  0  0  0  0  0  0  0
   -4.9740    4.7680    0.0000 H   0  0  0  0  0  0  0  0  0  0  0  0
   -3.3658    3.8395    0.0000 H   0  0  0  0  0  0  0  0  0  0  0  0
   -3.3658    1.9825    0.0000 H   0  0  0  0  0  0  0  0  0  0  0  0
  1 34  1  0  0  0  0
  1 17  1  0  0  0  0
  1 64  1  1  0  0  0
  2 40  1  0  0  0  0
  2 11  1  0  0  0  0
  2 12  1  6  0  0  0
  3 65  1  0  0  0  0
  3 66  1  0  0  0  0
  4 32  1  0  0  0  0
  4  5  1  0  0  0  0
  5  6  1  0  0  0  0
  5 26  1  0  0  0  0
  5 67  1  6  0  0  0
  6  7  2  0  0  0  0
  7 10  1  0  0  0  0
  8  7  1  0  0  0  0
  8 43  1  0  0  0  0
  8 68  1  1  0  0  0
  9  8  1  0  0  0  0
  9 69  1  0  0  0  0
  9 70  1  0  0  0  0
 10 71  1  0  0  0  0
 10 72  1  0  0  0  0
 10 73  1  0  0  0  0
 11 41  1  0  0  0  0
 11 74  1  0  0  0  0
 11 75  1  0  0  0  0
 13 12  1  0  0  0  0
 14 13  1  0  0  0  0
 14 76  1  0  0  0  0
 14 77  1  0  0  0  0
 14 78  1  0  0  0  0
 15 13  2  0  0  0  0
 16  4  2  0  0  0  0
 18 19  1  0  0  0  0
 18 79  1  0  0  0  0
 19 20  2  0  0  0  0
 19 80  1  0  0  0  0
 20 21  1  0  0  0  0
 20 81  1  0  0  0  0
 21 22  2  0  0  0  0
 21 82  1  0  0  0  0
 22 83  1  0  0  0  0
 23 18  2  0  0  0  0
 23 22  1  0  0  0  0
 23 24  1  0  0  0  0
 24 17  1  0  0  0  0
 24 25  2  0  0  0  0
 26 28  1  0  0  0  0
 28 27  2  0  0  0  0
 28 29  1  0  0  0  0
 29 84  1  0  0  0  0
 29 85  1  0  0  0  0
 29 86  1  0  0  0  0
 30  1  1  0  0  0  0
 30  2  1  0  0  0  0
 30 32  1  0  0  0  0
 30 31  1  6  0  0  0
 32 38  1  0  0  0  0
 32 33  1  1  0  0  0
 33 87  1  0  0  0  0
 33 88  1  0  0  0  0
 33 89  1  0  0  0  0
 34 42  1  0  0  0  0
 34  9  1  0  0  0  0
 34 35  1  1  0  0  0
 35 90  1  0  0  0  0
 36 91  1  0  0  0  0
 36 92  1  0  0  0  0
 36 93  1  0  0  0  0
 37 94  1  0  0  0  0
 37 95  1  0  0  0  0
 37 96  1  0  0  0  0
 38  3  1  0  0  0  0
 38 39  1  0  0  0  0
 38 97  1  6  0  0  0
 39 98  1  0  0  0  0
 40  3  1  0  0  0  0
 40 41  1  0  0  0  0
 40 99  1  6  0  0  0
 42  6  1  0  0  0  0
 42 36  1  0  0  0  0
 42 37  1  0  0  0  0
 44 45  2  0  0  0  0
 44 48  1  0  0  0  0
 44100  1  0  0  0  0
 45 46  1  0  0  0  0
 45101  1  0  0  0  0
 46 47  2  0  0  0  0
 46102  1  0  0  0  0
 47 49  1  0  0  0  0
 47103  1  0  0  0  0
 49 48  2  0  0  0  0
 49104  1  0  0  0  0
 50 54  1  0  0  0  0
 50105  1  1  0  0  0
 51 48  1  0  0  0  0
 51 50  1  0  0  0  0
 51 55  1  0  0  0  0
 51106  1  1  0  0  0
 52 43  1  0  0  0  0
 52 50  1  0  0  0  0
 52 53  2  0  0  0  0
 54107  1  0  0  0  0
 55108  1  0  0  0  0
 56 57  1  0  0  0  0
 56109  1  0  0  0  0
 57 58  2  0  0  0  0
 57110  1  0  0  0  0
 58 59  1  0  0  0  0
 58111  1  0  0  0  0
 59 60  2  0  0  0  0
 59112  1  0  0  0  0
 60113  1  0  0  0  0
 61 56  2  0  0  0  0
 61 60  1  0  0  0  0
 61 62  1  0  0  0  0
 62 55  1  0  0  0  0
 62 63  2  0  0  0  0
M  END
>  <DRUGBANK_ID>
DB01229

>  <SECONDARY_ACCESSION_NUMBERS>
APRD00259; DB05261; DB05927; DB05526; DB05281

>  <COMMON_NAME>
Paclitaxel

>  <CAS_NUMBER>
33069-62-4

>  <UNII>
P88XT4IS4D

>  <SYNONYMS>
5beta,20-Epoxy-1,2-alpha,4,7beta,10beta,13alpha-hexahydroxytax-11-en-9-one 4,10-diacetate 2-benzoate 13-ester with (2R,3S)-N-benzoyl-3-phenylisoserine; ABI-007 COMPONENT PACLITAXEL; BENZENEPROPANOIC ACID, .BETA.-(BENZOYLAMINO)-.ALPHA.-HYDROXY-, (2AR,4S,4AS,6R,9S,11S,12S,12AR,12BS)-6,12B-BIS(ACETYLOXY)-12-(BENZOYLOXY)-2A,3,4,4A,5,6,9,10,11,12,12A,12B-DODECAHYDRO-4,11-DIHYDROXY-4A,8,13,13-TETRAMETHYL-5-OXO-7,11-METHANO-1H-CYCLODECA(3,; liposomal encapsulated paclitaxel; NAB-PACLITAXEL COMPONENT PACLITAXEL; Nanoparticulate paclitaxel; Paclitaxel; paclitaxel protein-bound particles; Paclitaxel protein-bound particles for injection suspension; Taxol A

$$$$
