
 OpenBabel10282417072D

 31 33  0  0  0  0  0  0  0  0999 V2000
    2.9992   -0.4125    0.0000 C   0  0  0  0  0  0  0  0  0  0  0  0
    2.9992    0.4125    0.0000 C   0  0  0  0  0  0  0  0  0  0  0  0
    2.2847   -0.8250    0.0000 C   0  0  0  0  0  0  0  0  0  0  0  0
    2.2847    0.8250    0.0000 C   0  0  0  0  0  0  0  0  0  0  0  0
   -0.9367    0.7144    0.0000 C   0  0  0  0  0  0  0  0  0  0  0  0
   -1.7617    0.7144    0.0000 C   0  0  0  0  0  0  0  0  0  0  0  0
    1.5703   -0.4125    0.0000 C   0  0  0  0  0  0  0  0  0  0  0  0
    1.5703    0.4125    0.0000 C   0  0  0  0  0  0  0  0  0  0  0  0
   -0.5242    0.0000    0.0000 C   0  0  3  0  0  0  0  0  0  0  0  0
   -2.1742    0.0000    0.0000 C   0  0  0  0  0  0  0  0  0  0  0  0
   -0.9367   -0.7144    0.0000 C   0  0  0  0  0  0  0  0  0  0  0  0
    0.7856   -0.6674    0.0000 C   0  0  0  0  0  0  0  0  0  0  0  0
    0.7856    0.6674    0.0000 C   0  0  0  0  0  0  0  0  0  0  0  0
   -1.7617   -0.7144    0.0000 N   0  0  0  0  0  0  0  0  0  0  0  0
    0.3007    0.0000    0.0000 N   0  0  0  0  0  0  0  0  0  0  0  0
   -2.9992    0.0000    0.0000 O   0  0  0  0  0  0  0  0  0  0  0  0
   -0.5242   -1.4289    0.0000 O   0  0  0  0  0  0  0  0  0  0  0  0
    0.5307   -1.4520    0.0000 O   0  0  0  0  0  0  0  0  0  0  0  0
    0.5307    1.4520    0.0000 O   0  0  0  0  0  0  0  0  0  0  0  0
    2.2847   -1.6500    0.0000 N   0  0  0  0  0  0  0  0  0  0  0  0
    3.8929   -0.9285    0.0000 H   0  0  0  0  0  0  0  0  0  0  0  0
    3.8929    0.9285    0.0000 H   0  0  0  0  0  0  0  0  0  0  0  0
    2.2847    1.8570    0.0000 H   0  0  0  0  0  0  0  0  0  0  0  0
   -0.4017    1.6411    0.0000 H   0  0  0  0  0  0  0  0  0  0  0  0
    0.1333    0.7144    0.0000 H   0  0  0  0  0  0  0  0  0  0  0  0
   -2.2967    1.6411    0.0000 H   0  0  0  0  0  0  0  0  0  0  0  0
   -2.8317    0.7144    0.0000 H   0  0  0  0  0  0  0  0  0  0  0  0
   -1.5942    0.0000    0.0000 H   0  0  0  0  0  0  0  0  0  0  0  0
   -2.2539   -1.5670    0.0000 H   0  0  0  0  0  0  0  0  0  0  0  0
    1.4321   -2.1423    0.0000 H   0  0  0  0  0  0  0  0  0  0  0  0
    3.1373   -2.1422    0.0000 H   0  0  0  0  0  0  0  0  0  0  0  0
  1 21  1  0  0  0  0
  2  1  2  0  0  0  0
  2 22  1  0  0  0  0
  3  1  1  0  0  0  0
  3 20  1  0  0  0  0
  4  2  1  0  0  0  0
  4 23  1  0  0  0  0
  5 24  1  0  0  0  0
  5 25  1  0  0  0  0
  6  5  1  0  0  0  0
  6 26  1  0  0  0  0
  6 27  1  0  0  0  0
  7  3  2  0  0  0  0
  8  4  2  0  0  0  0
  8  7  1  0  0  0  0
  9  5  1  0  0  0  0
  9 28  1  0  0  0  0
 10  6  1  0  0  0  0
 11  9  1  0  0  0  0
 12  7  1  0  0  0  0
 13  8  1  0  0  0  0
 14 10  1  0  0  0  0
 14 11  1  0  0  0  0
 14 29  1  0  0  0  0
 15  9  1  0  0  0  0
 15 12  1  0  0  0  0
 15 13  1  0  0  0  0
 16 10  2  0  0  0  0
 17 11  2  0  0  0  0
 18 12  2  0  0  0  0
 19 13  2  0  0  0  0
 20 30  1  0  0  0  0
 20 31  1  0  0  0  0
M  END
>  <DRUGBANK_ID>
DB17419

>  <COMMON_NAME>
S-3APG

>  <SYNONYMS>
S-3-[3-amino-phthalimido]-glutarimide

$$$$
