OA3
 OpenBabel10282417072D

 27 28  0  0  0  0  0  0  0  0999 V2000
    0.2839   -1.6553    0.0000 O   0  0  0  0  0  0  0  0  0  0  0  0
    0.2839   -0.8303    0.0000 C   0  0  0  0  0  0  0  0  0  0  0  0
   -0.4306   -0.4178    0.0000 C   0  0  0  0  0  0  0  0  0  0  0  0
   -0.4306    0.4072    0.0000 C   0  0  0  0  0  0  0  0  0  0  0  0
   -1.2431    0.2640    0.0000 C   0  0  0  0  0  0  0  0  0  0  0  0
   -0.7128    1.1825    0.0000 C   0  0  0  0  0  0  0  0  0  0  0  0
    0.2839    0.8197    0.0000 C   0  0  0  0  0  0  0  0  0  0  0  0
    0.9984    0.4072    0.0000 C   0  0  0  0  0  0  0  0  0  0  0  0
    1.7128    0.8197    0.0000 N   0  0  0  0  0  0  0  0  0  0  0  0
    2.4273    0.4072    0.0000 C   0  0  0  0  0  0  0  0  0  0  0  0
    2.4273   -0.4178    0.0000 N   0  0  0  0  0  0  0  0  0  0  0  0
    1.7128   -0.8303    0.0000 C   0  0  0  0  0  0  0  0  0  0  0  0
    0.9984   -0.4178    0.0000 C   0  0  0  0  0  0  0  0  0  0  0  0
    1.7128   -1.6553    0.0000 N   0  0  0  0  0  0  0  0  0  0  0  0
   -1.3572   -0.9528    0.0000 H   0  0  0  0  0  0  0  0  0  0  0  0
   -1.3572    0.1172    0.0000 H   0  0  0  0  0  0  0  0  0  0  0  0
   -1.9308    1.0837    0.0000 H   0  0  0  0  0  0  0  0  0  0  0  0
   -1.6091   -0.7414    0.0000 H   0  0  0  0  0  0  0  0  0  0  0  0
   -2.2969    0.0783    0.0000 H   0  0  0  0  0  0  0  0  0  0  0  0
   -0.0250    2.0022    0.0000 H   0  0  0  0  0  0  0  0  0  0  0  0
   -1.7665    1.3683    0.0000 H   0  0  0  0  0  0  0  0  0  0  0  0
   -1.0788    2.1880    0.0000 H   0  0  0  0  0  0  0  0  0  0  0  0
    0.2839    1.8897    0.0000 H   0  0  0  0  0  0  0  0  0  0  0  0
    1.2105    1.3547    0.0000 H   0  0  0  0  0  0  0  0  0  0  0  0
    3.3210    0.9232    0.0000 H   0  0  0  0  0  0  0  0  0  0  0  0
    0.8602   -2.1476    0.0000 H   0  0  0  0  0  0  0  0  0  0  0  0
    2.5654   -2.1475    0.0000 H   0  0  0  0  0  0  0  0  0  0  0  0
  1  2  2  0  0  0  0
  2  3  1  0  0  0  0
  2 13  1  0  0  0  0
  3  4  1  0  0  0  0
  3 15  1  0  0  0  0
  3 16  1  0  0  0  0
  4  5  1  0  0  0  0
  4  6  1  0  0  0  0
  4  7  1  0  0  0  0
  5 17  1  0  0  0  0
  5 18  1  0  0  0  0
  5 19  1  0  0  0  0
  6 20  1  0  0  0  0
  6 21  1  0  0  0  0
  6 22  1  0  0  0  0
  7  8  1  0  0  0  0
  7 23  1  0  0  0  0
  7 24  1  0  0  0  0
  8  9  2  0  0  0  0
  8 13  1  0  0  0  0
  9 10  1  0  0  0  0
 10 11  2  0  0  0  0
 10 25  1  0  0  0  0
 11 12  1  0  0  0  0
 12 13  2  0  0  0  0
 12 14  1  0  0  0  0
 14 26  1  0  0  0  0
 14 27  1  0  0  0  0
M  END
>  <DRUGBANK_ID>
DB08316

>  <COMMON_NAME>
4-amino-7,7-dimethyl-7,8-dihydroquinazolin-5(6H)-one

>  <UNII>
QZ3DRM9797

$$$$
