1267
 OpenBabel10282417072D

 58 62  0  0  1  0  0  0  0  0999 V2000
    1.6500   -0.6622    0.0000 F   0  0  0  0  0  0  0  0  0  0  0  0
    3.9340   -2.4952    0.0000 O   0  0  0  0  0  0  0  0  0  0  0  0
   11.2647    2.2343    0.0000 O   0  0  0  0  0  0  0  0  0  0  0  0
    9.8223   -1.0943    0.0000 O   0  0  0  0  0  0  0  0  0  0  0  0
    6.9643   -0.2693    0.0000 N   0  0  0  0  0  0  0  0  0  0  0  0
   10.5367    0.1432    0.0000 N   0  0  0  0  0  0  0  0  0  0  0  0
    4.7359   -2.3226    0.0000 N   0  0  0  0  0  0  0  0  0  0  0  0
    9.8223    1.3808    0.0000 N   0  0  0  0  0  0  0  0  0  0  0  0
    5.5353   -1.0943    0.0000 C   0  0  3  0  0  0  0  0  0  0  0  0
    6.2498   -1.5068    0.0000 C   0  0  0  0  0  0  0  0  0  0  0  0
    5.5353   -0.2693    0.0000 C   0  0  0  0  0  0  0  0  0  0  0  0
    6.9643   -1.0943    0.0000 C   0  0  0  0  0  0  0  0  0  0  0  0
    6.2498    0.1432    0.0000 C   0  0  0  0  0  0  0  0  0  0  0  0
    7.6788    0.1432    0.0000 C   0  0  0  0  0  0  0  0  0  0  0  0
    4.8208   -1.5068    0.0000 C   0  0  0  0  0  0  0  0  0  0  0  0
    8.3932   -0.2693    0.0000 C   0  0  0  0  0  0  0  0  0  0  0  0
    9.1078    0.1432    0.0000 C   0  0  0  0  0  0  0  0  0  0  0  0
   11.2742   -0.2979    0.0000 C   0  0  0  0  0  0  0  0  0  0  0  0
   11.2742    1.4093    0.0000 C   0  0  3  0  0  0  0  0  0  0  0  0
   12.0218    0.1261    0.0000 C   0  0  0  0  0  0  0  0  0  0  0  0
   12.0218    0.9854    0.0000 C   0  0  0  0  0  0  0  0  0  0  0  0
   10.5367    0.9682    0.0000 C   0  0  0  0  0  0  0  0  0  0  0  0
    4.0719   -1.1726    0.0000 C   0  0  0  0  0  0  0  0  0  0  0  0
    9.8223   -0.2693    0.0000 C   0  0  0  0  0  0  0  0  0  0  0  0
    9.1078    0.9682    0.0000 C   0  0  0  0  0  0  0  0  0  0  0  0
    3.5209   -1.7867    0.0000 C   0  0  0  0  0  0  0  0  0  0  0  0
    3.8156   -0.3884    0.0000 C   0  0  0  0  0  0  0  0  0  0  0  0
    8.3932    1.3808    0.0000 C   0  0  0  0  0  0  0  0  0  0  0  0
    2.7136   -1.6165    0.0000 C   0  0  0  0  0  0  0  0  0  0  0  0
    3.0083   -0.2183    0.0000 C   0  0  0  0  0  0  0  0  0  0  0  0
    2.4573   -0.8324    0.0000 C   0  0  0  0  0  0  0  0  0  0  0  0
   12.0991    2.7289    0.0000 H   0  0  0  0  0  0  0  0  0  0  0  0
    6.4619   -0.5593    0.0000 H   0  0  0  0  0  0  0  0  0  0  0  0
    6.2498   -2.5768    0.0000 H   0  0  0  0  0  0  0  0  0  0  0  0
    7.1764   -2.0418    0.0000 H   0  0  0  0  0  0  0  0  0  0  0  0
    4.6087    0.2657    0.0000 H   0  0  0  0  0  0  0  0  0  0  0  0
    5.5353    0.8007    0.0000 H   0  0  0  0  0  0  0  0  0  0  0  0
    7.8909   -1.6293    0.0000 H   0  0  0  0  0  0  0  0  0  0  0  0
    6.9643   -2.1643    0.0000 H   0  0  0  0  0  0  0  0  0  0  0  0
    6.2498    1.2132    0.0000 H   0  0  0  0  0  0  0  0  0  0  0  0
    5.3232    0.6782    0.0000 H   0  0  0  0  0  0  0  0  0  0  0  0
    7.6788    1.2132    0.0000 H   0  0  0  0  0  0  0  0  0  0  0  0
    8.6055    0.6782    0.0000 H   0  0  0  0  0  0  0  0  0  0  0  0
    8.3931   -1.3393    0.0000 H   0  0  0  0  0  0  0  0  0  0  0  0
    9.3198   -0.8044    0.0000 H   0  0  0  0  0  0  0  0  0  0  0  0
   11.2618   -1.3678    0.0000 H   0  0  0  0  0  0  0  0  0  0  0  0
   12.1957   -0.8418    0.0000 H   0  0  0  0  0  0  0  0  0  0  0  0
   12.1956    1.9532    0.0000 H   0  0  0  0  0  0  0  0  0  0  0  0
   12.9464   -0.4125    0.0000 H   0  0  0  0  0  0  0  0  0  0  0  0
   12.9495    0.6593    0.0000 H   0  0  0  0  0  0  0  0  0  0  0  0
   12.9464    1.5240    0.0000 H   0  0  0  0  0  0  0  0  0  0  0  0
   12.9495    0.4522    0.0000 H   0  0  0  0  0  0  0  0  0  0  0  0
    4.5048    0.3797    0.0000 H   0  0  0  0  0  0  0  0  0  0  0  0
    8.3932    2.4508    0.0000 H   0  0  0  0  0  0  0  0  0  0  0  0
    7.4665    0.8458    0.0000 H   0  0  0  0  0  0  0  0  0  0  0  0
    7.4666    1.9158    0.0000 H   0  0  0  0  0  0  0  0  0  0  0  0
    2.0244   -2.3846    0.0000 H   0  0  0  0  0  0  0  0  0  0  0  0
    2.6877    0.7626    0.0000 H   0  0  0  0  0  0  0  0  0  0  0  0
  1 31  1  0  0  0  0
  2  7  1  0  0  0  0
  2 26  1  0  0  0  0
  3 19  1  0  0  0  0
  3 32  1  0  0  0  0
  4 24  2  0  0  0  0
  5 12  1  0  0  0  0
  5 13  1  0  0  0  0
  5 14  1  0  0  0  0
  6 18  1  0  0  0  0
  6 22  1  0  0  0  0
  6 24  1  0  0  0  0
  7 15  2  0  0  0  0
  8 22  2  0  0  0  0
  8 25  1  0  0  0  0
  9 10  1  0  0  0  0
  9 11  1  0  0  0  0
  9 15  1  0  0  0  0
  9 33  1  0  0  0  0
 10 12  1  0  0  0  0
 10 34  1  0  0  0  0
 10 35  1  0  0  0  0
 11 13  1  0  0  0  0
 11 36  1  0  0  0  0
 11 37  1  0  0  0  0
 12 38  1  0  0  0  0
 12 39  1  0  0  0  0
 13 40  1  0  0  0  0
 13 41  1  0  0  0  0
 14 16  1  0  0  0  0
 14 42  1  0  0  0  0
 14 43  1  0  0  0  0
 15 23  1  0  0  0  0
 16 17  1  0  0  0  0
 16 44  1  0  0  0  0
 16 45  1  0  0  0  0
 17 24  1  0  0  0  0
 17 25  2  0  0  0  0
 18 20  1  0  0  0  0
 18 46  1  0  0  0  0
 18 47  1  0  0  0  0
 19 21  1  0  0  0  0
 19 22  1  0  0  0  0
 19 48  1  0  0  0  0
 20 21  1  0  0  0  0
 20 49  1  0  0  0  0
 20 50  1  0  0  0  0
 21 51  1  0  0  0  0
 21 52  1  0  0  0  0
 23 26  2  0  0  0  0
 23 27  1  0  0  0  0
 25 28  1  0  0  0  0
 26 29  1  0  0  0  0
 27 30  2  0  0  0  0
 27 53  1  0  0  0  0
 28 54  1  0  0  0  0
 28 55  1  0  0  0  0
 28 56  1  0  0  0  0
 29 31  2  0  0  0  0
 29 57  1  0  0  0  0
 30 31  1  0  0  0  0
 30 58  1  0  0  0  0
M  END
>  <DRUGBANK_ID>
DB01267

>  <COMMON_NAME>
Paliperidone

>  <CAS_NUMBER>
144598-75-4

>  <UNII>
838F01T721

>  <SYNONYMS>
9-hydroxyrisperidone; Paliperidona; Paliperidone

$$$$
