
 OpenBabel10282417072D

105108  0  0  1  0  0  0  0  0999 V2000
    6.1486    0.7192    0.0000 C   0  0  0  0  0  0  0  0  0  0  0  0
    5.8377   -0.0449    0.0000 C   0  0  0  0  0  0  0  0  0  0  0  0
    5.0204   -0.1578    0.0000 N   0  0  0  0  0  0  0  0  0  0  0  0
    4.5141    0.4935    0.0000 C   0  0  0  0  0  0  0  0  0  0  0  0
    3.6968    0.3807    0.0000 C   0  0  0  0  0  0  0  0  0  0  0  0
    4.7095   -0.9220    0.0000 C   0  0  0  0  0  0  0  0  0  0  0  0
    3.8923   -1.0348    0.0000 C   0  0  0  0  0  0  0  0  0  0  0  0
    3.5814   -1.7990    0.0000 C   0  0  0  0  0  0  0  0  0  0  0  0
    2.7642   -1.9119    0.0000 C   0  0  0  0  0  0  0  0  0  0  0  0
    2.2578   -1.2605    0.0000 C   0  0  0  0  0  0  0  0  0  0  0  0
    2.5687   -0.4963    0.0000 C   0  0  0  0  0  0  0  0  0  0  0  0
    3.3859   -0.3835    0.0000 C   0  0  0  0  0  0  0  0  0  0  0  0
    2.0623    0.1550    0.0000 O   0  0  0  0  0  0  0  0  0  0  0  0
    2.3732    0.9192    0.0000 C   0  0  0  0  0  0  0  0  0  0  0  0
    1.4406   -1.3734    0.0000 O   0  0  0  0  0  0  0  0  0  0  0  0
    0.9342   -0.7220    0.0000 C   0  0  0  0  0  0  0  0  0  0  0  0
    0.1170   -0.8349    0.0000 C   0  0  0  0  0  0  0  0  0  0  0  0
   -0.3894   -0.1836    0.0000 C   0  0  1  0  0  0  0  0  0  0  0  0
   -0.1601    0.6089    0.0000 C   0  0  0  0  0  0  0  0  0  0  0  0
   -0.8429    1.0719    0.0000 C   0  0  0  0  0  0  0  0  0  0  0  0
   -1.4943    0.5656    0.0000 C   0  0  2  0  0  0  0  0  0  0  0  0
   -1.2140   -0.2104    0.0000 C   0  0  2  0  0  0  0  0  0  0  0  0
   -1.7458   -0.8411    0.0000 C   0  0  0  0  0  0  0  0  0  0  0  0
   -2.5579   -0.6959    0.0000 C   0  0  0  0  0  0  0  0  0  0  0  0
   -2.8382    0.0801    0.0000 C   0  0  1  0  0  0  0  0  0  0  0  0
   -2.3064    0.7108    0.0000 C   0  0  1  0  0  0  0  0  0  0  0  0
   -2.5867    1.4867    0.0000 C   0  0  1  0  0  0  0  0  0  0  0  0
   -3.3988    1.6319    0.0000 C   0  0  0  0  0  0  0  0  0  0  0  0
   -3.9306    1.0012    0.0000 C   0  0  0  0  0  0  0  0  0  0  0  0
   -3.6503    0.2253    0.0000 C   0  0  0  0  0  0  0  0  0  0  0  0
   -4.1821   -0.4054    0.0000 C   0  0  0  0  0  0  0  0  0  0  0  0
   -4.9943   -0.2602    0.0000 C   0  0  0  0  0  0  0  0  0  0  0  0
   -5.2746    0.5157    0.0000 C   0  0  0  0  0  0  0  0  0  0  0  0
   -4.7427    1.1464    0.0000 C   0  0  0  0  0  0  0  0  0  0  0  0
   -6.0867    0.6609    0.0000 O   0  0  0  0  0  0  0  0  0  0  0  0
   -2.0549    2.1174    0.0000 C   0  0  0  0  0  0  0  0  0  0  0  0
   -0.8541   -0.9527    0.0000 C   0  0  0  0  0  0  0  0  0  0  0  0
    9.4632   -0.8250    0.0000 C   0  0  0  0  0  0  0  0  0  0  0  0
    8.7487   -1.2375    0.0000 C   0  0  0  0  0  0  0  0  0  0  0  0
    8.7487   -2.0625    0.0000 O   0  0  0  0  0  0  0  0  0  0  0  0
    8.0343   -0.8250    0.0000 O   0  0  0  0  0  0  0  0  0  0  0  0
    9.4632   -0.0000    0.0000 C   0  0  0  0  0  0  0  0  0  0  0  0
    9.4632    0.8250    0.0000 C   0  0  0  0  0  0  0  0  0  0  0  0
    8.7487    1.2375    0.0000 C   0  0  0  0  0  0  0  0  0  0  0  0
    8.7487    2.0625    0.0000 O   0  0  0  0  0  0  0  0  0  0  0  0
    8.0343    0.8250    0.0000 O   0  0  0  0  0  0  0  0  0  0  0  0
   10.2882   -0.0000    0.0000 C   0  0  0  0  0  0  0  0  0  0  0  0
   10.7007    0.7145    0.0000 O   0  0  0  0  0  0  0  0  0  0  0  0
   10.7007   -0.7145    0.0000 O   0  0  0  0  0  0  0  0  0  0  0  0
    8.6382   -0.0000    0.0000 O   0  0  0  0  0  0  0  0  0  0  0  0
    7.2085    0.8655    0.0000 H   0  0  0  0  0  0  0  0  0  0  0  0
    5.4919    1.5640    0.0000 H   0  0  0  0  0  0  0  0  0  0  0  0
    6.5519    1.7103    0.0000 H   0  0  0  0  0  0  0  0  0  0  0  0
    6.4944   -0.8897    0.0000 H   0  0  0  0  0  0  0  0  0  0  0  0
    5.4345   -1.0360    0.0000 H   0  0  0  0  0  0  0  0  0  0  0  0
    4.9174    1.4846    0.0000 H   0  0  0  0  0  0  0  0  0  0  0  0
    3.8574    1.3383    0.0000 H   0  0  0  0  0  0  0  0  0  0  0  0
    3.0401    1.2255    0.0000 H   0  0  0  0  0  0  0  0  0  0  0  0
    3.2935   -0.6104    0.0000 H   0  0  0  0  0  0  0  0  0  0  0  0
    2.6368    0.2344    0.0000 H   0  0  0  0  0  0  0  0  0  0  0  0
    5.3662   -1.7668    0.0000 H   0  0  0  0  0  0  0  0  0  0  0  0
    4.3062   -1.9131    0.0000 H   0  0  0  0  0  0  0  0  0  0  0  0
    4.2148   -2.6137    0.0000 H   0  0  0  0  0  0  0  0  0  0  0  0
    2.3753   -2.8678    0.0000 H   0  0  0  0  0  0  0  0  0  0  0  0
    3.7748    0.5724    0.0000 H   0  0  0  0  0  0  0  0  0  0  0  0
    3.4331    1.0656    0.0000 H   0  0  0  0  0  0  0  0  0  0  0  0
    1.7165    1.7640    0.0000 H   0  0  0  0  0  0  0  0  0  0  0  0
    2.7764    1.9103    0.0000 H   0  0  0  0  0  0  0  0  0  0  0  0
    1.3374    0.2691    0.0000 H   0  0  0  0  0  0  0  0  0  0  0  0
    0.2774    0.1227    0.0000 H   0  0  0  0  0  0  0  0  0  0  0  0
   -0.2862   -1.8260    0.0000 H   0  0  0  0  0  0  0  0  0  0  0  0
   -0.9429   -0.9813    0.0000 H   0  0  0  0  0  0  0  0  0  0  0  0
    0.6614    0.0181    0.0000 H   0  0  0  0  0  0  0  0  0  0  0  0
    0.8463    0.9724    0.0000 H   0  0  0  0  0  0  0  0  0  0  0  0
   -0.0271    1.6706    0.0000 H   0  0  0  0  0  0  0  0  0  0  0  0
   -0.8776    2.1413    0.0000 H   0  0  0  0  0  0  0  0  0  0  0  0
   -1.8115    1.5265    0.0000 H   0  0  0  0  0  0  0  0  0  0  0  0
   -2.1841   -0.2524    0.0000 H   0  0  0  0  0  0  0  0  0  0  0  0
   -1.3822   -1.8474    0.0000 H   0  0  0  0  0  0  0  0  0  0  0  0
   -2.4355   -1.6591    0.0000 H   0  0  0  0  0  0  0  0  0  0  0  0
   -3.2477   -1.5139    0.0000 H   0  0  0  0  0  0  0  0  0  0  0  0
   -3.6112   -0.5075    0.0000 H   0  0  0  0  0  0  0  0  0  0  0  0
   -1.7849   -0.1082    0.0000 H   0  0  0  0  0  0  0  0  0  0  0  0
   -1.9428   -0.2955    0.0000 H   0  0  0  0  0  0  0  0  0  0  0  0
   -1.5334    1.2984    0.0000 H   0  0  0  0  0  0  0  0  0  0  0  0
   -3.7624    2.6382    0.0000 H   0  0  0  0  0  0  0  0  0  0  0  0
   -4.4521    1.8202    0.0000 H   0  0  0  0  0  0  0  0  0  0  0  0
   -3.8314   -1.3760    0.0000 H   0  0  0  0  0  0  0  0  0  0  0  0
   -5.6595   -1.0492    0.0000 H   0  0  0  0  0  0  0  0  0  0  0  0
   -5.0933    2.1170    0.0000 H   0  0  0  0  0  0  0  0  0  0  0  0
   -6.4051    1.5422    0.0000 H   0  0  0  0  0  0  0  0  0  0  0  0
   -1.0016    1.9291    0.0000 H   0  0  0  0  0  0  0  0  0  0  0  0
   -2.4185    3.1237    0.0000 H   0  0  0  0  0  0  0  0  0  0  0  0
   -1.3652    2.9354    0.0000 H   0  0  0  0  0  0  0  0  0  0  0  0
   -1.4545   -1.8384    0.0000 H   0  0  0  0  0  0  0  0  0  0  0  0
    0.2131   -1.0298    0.0000 H   0  0  0  0  0  0  0  0  0  0  0  0
   -0.3873   -1.9155    0.0000 H   0  0  0  0  0  0  0  0  0  0  0  0
   10.3898   -1.3600    0.0000 H   0  0  0  0  0  0  0  0  0  0  0  0
   10.3898   -0.2900    0.0000 H   0  0  0  0  0  0  0  0  0  0  0  0
    8.0343    0.1120    0.0000 H   0  0  0  0  0  0  0  0  0  0  0  0
   10.3898    1.3600    0.0000 H   0  0  0  0  0  0  0  0  0  0  0  0
    9.4632    1.8950    0.0000 H   0  0  0  0  0  0  0  0  0  0  0  0
    7.2228    1.2935    0.0000 H   0  0  0  0  0  0  0  0  0  0  0  0
   10.2322   -1.5260    0.0000 H   0  0  0  0  0  0  0  0  0  0  0  0
    8.1532    0.8400    0.0000 H   0  0  0  0  0  0  0  0  0  0  0  0
  1  2  1  0  0  0  0
  1 51  1  0  0  0  0
  1 52  1  0  0  0  0
  1 53  1  0  0  0  0
  2  3  1  0  0  0  0
  2 54  1  0  0  0  0
  2 55  1  0  0  0  0
  3  4  1  0  0  0  0
  3  6  1  0  0  0  0
  4  5  1  0  0  0  0
  4 56  1  0  0  0  0
  4 57  1  0  0  0  0
  5 58  1  0  0  0  0
  5 59  1  0  0  0  0
  5 60  1  0  0  0  0
  6  7  1  0  0  0  0
  6 61  1  0  0  0  0
  6 62  1  0  0  0  0
  7  8  2  0  0  0  0
  7 12  1  0  0  0  0
  8  9  1  0  0  0  0
  8 63  1  0  0  0  0
  9 10  2  0  0  0  0
  9 64  1  0  0  0  0
 10 11  1  0  0  0  0
 10 15  1  0  0  0  0
 11 12  2  0  0  0  0
 11 13  1  0  0  0  0
 12 65  1  0  0  0  0
 13 14  1  0  0  0  0
 14 66  1  0  0  0  0
 14 67  1  0  0  0  0
 14 68  1  0  0  0  0
 15 16  1  0  0  0  0
 16 17  1  0  0  0  0
 16 69  1  0  0  0  0
 16 70  1  0  0  0  0
 17 71  1  0  0  0  0
 17 72  1  0  0  0  0
 18 17  1  0  0  0  0
 18 19  1  0  0  0  0
 18 22  1  0  0  0  0
 18 73  1  1  0  0  0
 19 20  1  0  0  0  0
 19 74  1  0  0  0  0
 19 75  1  0  0  0  0
 20 76  1  0  0  0  0
 20 77  1  0  0  0  0
 21 20  1  0  0  0  0
 21 22  1  0  0  0  0
 21 78  1  1  0  0  0
 22 23  1  0  0  0  0
 22 37  1  6  0  0  0
 23 24  1  0  0  0  0
 23 79  1  0  0  0  0
 23 80  1  0  0  0  0
 24 81  1  0  0  0  0
 24 82  1  0  0  0  0
 25 24  1  0  0  0  0
 25 26  1  0  0  0  0
 25 30  1  0  0  0  0
 25 83  1  1  0  0  0
 26 21  1  0  0  0  0
 26 27  1  0  0  0  0
 26 84  1  6  0  0  0
 27 28  1  0  0  0  0
 27 36  1  0  0  0  0
 27 85  1  6  0  0  0
 28 29  1  0  0  0  0
 28 86  1  0  0  0  0
 28 87  1  0  0  0  0
 29 30  2  0  0  0  0
 29 34  1  0  0  0  0
 30 31  1  0  0  0  0
 31 32  2  0  0  0  0
 31 88  1  0  0  0  0
 32 33  1  0  0  0  0
 32 89  1  0  0  0  0
 33 34  2  0  0  0  0
 33 35  1  0  0  0  0
 34 90  1  0  0  0  0
 35 91  1  0  0  0  0
 36 92  1  0  0  0  0
 36 93  1  0  0  0  0
 36 94  1  0  0  0  0
 37 95  1  0  0  0  0
 37 96  1  0  0  0  0
 37 97  1  0  0  0  0
 38 39  1  0  0  0  0
 38 42  1  0  0  0  0
 38 98  1  0  0  0  0
 38 99  1  0  0  0  0
 39 40  2  0  0  0  0
 39 41  1  0  0  0  0
 41100  1  0  0  0  0
 42 43  1  0  0  0  0
 42 47  1  0  0  0  0
 42 50  1  0  0  0  0
 43 44  1  0  0  0  0
 43101  1  0  0  0  0
 43102  1  0  0  0  0
 44 45  2  0  0  0  0
 44 46  1  0  0  0  0
 46103  1  0  0  0  0
 47 48  2  0  0  0  0
 47 49  1  0  0  0  0
 49104  1  0  0  0  0
 50105  1  0  0  0  0
M  END
>  <DRUGBANK_ID>
DB05966

>  <COMMON_NAME>
TAS-108

>  <CAS_NUMBER>
229634-97-3

>  <UNII>
9B29N23K7E

$$$$
