F83
 OpenBabel10282417072D

 40 42  0  0  0  0  0  0  0  0999 V2000
   -2.7771   -1.6418    0.0000 O   0  0  0  0  0  0  0  0  0  0  0  0
   -2.7771   -0.8168    0.0000 C   0  0  0  0  0  0  0  0  0  0  0  0
   -2.0626   -0.4043    0.0000 C   0  0  2  0  0  0  0  0  0  0  0  0
   -2.0626    0.4207    0.0000 N   0  0  0  0  0  0  0  0  0  0  0  0
   -1.3482    0.8332    0.0000 C   0  0  0  0  0  0  0  0  0  0  0  0
   -0.6337    0.4207    0.0000 C   0  0  0  0  0  0  0  0  0  0  0  0
    0.0808    0.8332    0.0000 C   0  0  0  0  0  0  0  0  0  0  0  0
    0.7952    0.4207    0.0000 C   0  0  0  0  0  0  0  0  0  0  0  0
    0.7952   -0.4043    0.0000 C   0  0  0  0  0  0  0  0  0  0  0  0
    0.0808   -0.8168    0.0000 C   0  0  0  0  0  0  0  0  0  0  0  0
   -0.6337   -0.4043    0.0000 C   0  0  0  0  0  0  0  0  0  0  0  0
   -1.3482   -0.8168    0.0000 C   0  0  0  0  0  0  0  0  0  0  0  0
    1.5097    0.8332    0.0000 S   0  0  0  0  0  0  0  0  0  0  0  0
    1.9222    0.1187    0.0000 O   0  0  0  0  0  0  0  0  0  0  0  0
    1.0972    1.5477    0.0000 O   0  0  0  0  0  0  0  0  0  0  0  0
    2.2242    1.2457    0.0000 N   0  0  0  0  0  0  0  0  0  0  0  0
    2.9386    0.8332    0.0000 C   0  0  0  0  0  0  0  0  0  0  0  0
    3.6531    1.2457    0.0000 C   0  0  0  0  0  0  0  0  0  0  0  0
    4.3676    0.8332    0.0000 C   0  0  0  0  0  0  0  0  0  0  0  0
    4.3676    0.0082    0.0000 C   0  0  0  0  0  0  0  0  0  0  0  0
    3.6531   -0.4043    0.0000 C   0  0  0  0  0  0  0  0  0  0  0  0
    2.9386    0.0082    0.0000 C   0  0  0  0  0  0  0  0  0  0  0  0
    5.0821   -0.4043    0.0000 Cl  0  0  0  0  0  0  0  0  0  0  0  0
   -2.5683   -0.1123    0.0000 H   0  0  0  0  0  0  0  0  0  0  0  0
   -3.6171   -2.1268    0.0000 H   0  0  0  0  0  0  0  0  0  0  0  0
   -3.7037   -0.2818    0.0000 H   0  0  0  0  0  0  0  0  0  0  0  0
   -2.7771    0.2532    0.0000 H   0  0  0  0  0  0  0  0  0  0  0  0
   -2.9460    0.9307    0.0000 H   0  0  0  0  0  0  0  0  0  0  0  0
   -1.3482    1.9032    0.0000 H   0  0  0  0  0  0  0  0  0  0  0  0
   -0.4216    1.3682    0.0000 H   0  0  0  0  0  0  0  0  0  0  0  0
    0.0808    1.8652    0.0000 H   0  0  0  0  0  0  0  0  0  0  0  0
    1.6889   -0.9203    0.0000 H   0  0  0  0  0  0  0  0  0  0  0  0
    0.0808   -1.8488    0.0000 H   0  0  0  0  0  0  0  0  0  0  0  0
   -1.3482   -1.8868    0.0000 H   0  0  0  0  0  0  0  0  0  0  0  0
   -0.4216   -1.3518    0.0000 H   0  0  0  0  0  0  0  0  0  0  0  0
    2.2242    2.2302    0.0000 H   0  0  0  0  0  0  0  0  0  0  0  0
    3.6531    2.2777    0.0000 H   0  0  0  0  0  0  0  0  0  0  0  0
    5.2613    1.3492    0.0000 H   0  0  0  0  0  0  0  0  0  0  0  0
    3.6531   -1.4363    0.0000 H   0  0  0  0  0  0  0  0  0  0  0  0
    2.0449   -0.5078    0.0000 H   0  0  0  0  0  0  0  0  0  0  0  0
  1  2  1  0  0  0  0
  1 25  1  0  0  0  0
  2 26  1  0  0  0  0
  2 27  1  0  0  0  0
  3  2  1  0  0  0  0
  3  4  1  0  0  0  0
  3 12  1  0  0  0  0
  3 24  1  1  0  0  0
  4  5  1  0  0  0  0
  4 28  1  0  0  0  0
  5  6  1  0  0  0  0
  5 29  1  0  0  0  0
  5 30  1  0  0  0  0
  6  7  2  0  0  0  0
  6 11  1  0  0  0  0
  7  8  1  0  0  0  0
  7 31  1  0  0  0  0
  8  9  2  0  0  0  0
  8 13  1  0  0  0  0
  9 10  1  0  0  0  0
  9 32  1  0  0  0  0
 10 11  2  0  0  0  0
 10 33  1  0  0  0  0
 11 12  1  0  0  0  0
 12 34  1  0  0  0  0
 12 35  1  0  0  0  0
 13 14  2  0  0  0  0
 13 15  2  0  0  0  0
 13 16  1  0  0  0  0
 16 17  1  0  0  0  0
 16 36  1  0  0  0  0
 17 18  2  0  0  0  0
 17 22  1  0  0  0  0
 18 19  1  0  0  0  0
 18 37  1  0  0  0  0
 19 20  2  0  0  0  0
 19 38  1  0  0  0  0
 20 21  1  0  0  0  0
 20 23  1  0  0  0  0
 21 22  2  0  0  0  0
 21 39  1  0  0  0  0
 22 40  1  0  0  0  0
M  END
>  <DRUGBANK_ID>
DB07747

>  <COMMON_NAME>
(3R)-N-(4-CHLOROPHENYL)-3-(HYDROXYMETHYL)-1,2,3,4-TETRAHYDROISOQUINOLINE-7-SULFONAMIDE

$$$$
