
 OpenBabel10282417072D

269281  0  0  0  0  0  0  0  0999 V2000
    3.0230   -5.2193    0.0000 C   0  0  2  0  0  0  0  0  0  0  0  0
    2.2859   -5.6605    0.0000 C   0  0  1  0  0  0  0  0  0  0  0  0
    2.2859   -6.4846    0.0000 C   0  0  2  0  0  0  0  0  0  0  0  0
    3.0084   -4.3708    0.0000 C   0  0  0  0  0  0  0  0  0  0  0  0
    3.7017   -5.6169    0.0000 C   0  0  0  0  0  0  0  0  0  0  0  0
    4.4677   -1.9078    0.0000 C   0  0  2  0  0  0  0  0  0  0  0  0
    3.7017   -6.4846    0.0000 C   0  0  0  0  0  0  0  0  0  0  0  0
    1.4908   -6.7708    0.0000 O   0  0  0  0  0  0  0  0  0  0  0  0
    1.4908   -5.4278    0.0000 C   0  0  0  0  0  0  0  0  0  0  0  0
   -3.0132   -1.8206    0.0000 C   0  0  2  0  0  0  0  0  0  0  0  0
    3.0230   -6.8823    0.0000 C   0  0  1  0  0  0  0  0  0  0  0  0
    5.2193   -2.3442    0.0000 O   0  0  0  0  0  0  0  0  0  0  0  0
   -4.5454   -2.2424    0.0000 C   0  0  2  0  0  0  0  0  0  0  0  0
   -1.3600   -1.8206    0.0000 C   0  0  2  0  0  0  0  0  0  0  0  0
    3.7017   -3.9927    0.0000 O   0  0  0  0  0  0  0  0  0  0  0  0
   -1.7721   -1.1079    0.0000 O   0  0  0  0  0  0  0  0  0  0  0  0
   -4.9526   -1.5297    0.0000 O   0  0  0  0  0  0  0  0  0  0  0  0
   -1.7721   -2.5333    0.0000 C   0  0  0  0  0  0  0  0  0  0  0  0
   -4.9526   -2.9551    0.0000 C   0  0  0  0  0  0  0  0  0  0  0  0
   -2.5963   -2.5333    0.0000 C   0  0  2  0  0  0  0  0  0  0  0  0
   -6.1938   -2.2424    0.0000 C   0  0  2  0  0  0  0  0  0  0  0  0
    0.1138   -1.8545    0.0000 C   0  0  1  0  0  0  0  0  0  0  0  0
   -2.5963   -1.1079    0.0000 C   0  0  1  0  0  0  0  0  0  0  0  0
    4.4677   -2.7466    0.0000 C   0  0  0  0  0  0  0  0  0  0  0  0
    3.7258   -1.4956    0.0000 O   0  0  0  0  0  0  0  0  0  0  0  0
   -5.7767   -2.9551    0.0000 C   0  0  1  0  0  0  0  0  0  0  0  0
    5.8544   -1.9273    0.0000 C   0  0  1  0  0  0  0  0  0  0  0  0
    3.7017   -3.1537    0.0000 C   0  0  2  0  0  0  0  0  0  0  0  0
   -5.7767   -1.5297    0.0000 C   0  0  2  0  0  0  0  0  0  0  0  0
    0.8557   -1.4472    0.0000 C   0  0  0  0  0  0  0  0  0  0  0  0
   -3.8326   -1.8255    0.0000 O   0  0  0  0  0  0  0  0  0  0  0  0
   -0.6522   -1.4036    0.0000 O   0  0  0  0  0  0  0  0  0  0  0  0
    1.5731   -1.8545    0.0000 C   0  0  0  0  0  0  0  0  0  0  0  0
    1.0157   -6.0436    0.0000 C   0  0  0  0  0  0  0  0  0  0  0  0
    1.4908   -4.5890    0.0000 C   0  0  0  0  0  0  0  0  0  0  0  0
    2.2859   -3.9490    0.0000 O   0  0  0  0  0  0  0  0  0  0  0  0
    0.9381   -4.1817    0.0000 C   0  0  0  0  0  0  0  0  0  0  0  0
    3.0230   -2.7369    0.0000 C   0  0  0  0  0  0  0  0  0  0  0  0
    3.0230   -1.8691    0.0000 C   0  0  1  0  0  0  0  0  0  0  0  0
    0.1138   -2.7466    0.0000 C   0  0  2  0  0  0  0  0  0  0  0  0
    5.8544   -1.1466    0.0000 C   0  0  2  0  0  0  0  0  0  0  0  0
    0.9381   -3.2847    0.0000 C   0  0  0  0  0  0  0  0  0  0  0  0
    2.3005   -4.8217    0.0000 O   0  0  0  0  0  0  0  0  0  0  0  0
    4.4775   -1.1466    0.0000 C   0  0  0  0  0  0  0  0  0  0  0  0
    5.2193   -0.7297    0.0000 C   0  0  0  0  0  0  0  0  0  0  0  0
    2.3005   -1.4472    0.0000 C   0  0  0  0  0  0  0  0  0  0  0  0
    6.5089   -2.3055    0.0000 C   0  0  0  0  0  0  0  0  0  0  0  0
    3.0374   -7.7064    0.0000 O   0  0  0  0  0  0  0  0  0  0  0  0
   -7.0181   -2.2424    0.0000 O   0  0  0  0  0  0  0  0  0  0  0  0
   -3.0085   -3.2460    0.0000 O   0  0  0  0  0  0  0  0  0  0  0  0
   -6.1889   -3.6677    0.0000 O   0  0  0  0  0  0  0  0  0  0  0  0
    4.3999   -6.9164    0.0000 C   0  0  0  0  0  0  0  0  0  0  0  0
    0.8557   -0.6278    0.0000 C   0  0  0  0  0  0  0  0  0  0  0  0
   -3.0085   -0.3951    0.0000 C   0  0  0  0  0  0  0  0  0  0  0  0
   -6.1889   -0.8120    0.0000 C   0  0  0  0  0  0  0  0  0  0  0  0
   -0.6037   -3.1537    0.0000 C   0  0  0  0  0  0  0  0  0  0  0  0
    6.5526   -0.7152    0.0000 C   0  0  0  0  0  0  0  0  0  0  0  0
    6.5089   -3.0618    0.0000 C   0  0  0  0  0  0  0  0  0  0  0  0
    7.1635   -1.9273    0.0000 C   0  0  0  0  0  0  0  0  0  0  0  0
   -2.5914   -3.9587    0.0000 C   0  0  0  0  0  0  0  0  0  0  0  0
   -5.7767   -4.3805    0.0000 C   0  0  0  0  0  0  0  0  0  0  0  0
    3.0463   -0.7057    0.0000 H   0  0  0  0  0  0  0  0  0  0  0  0
    4.6991   -3.7531    0.0000 H   0  0  0  0  0  0  0  0  0  0  0  0
    5.8875   -3.0904    0.0000 H   0  0  0  0  0  0  0  0  0  0  0  0
    2.1991   -7.6451    0.0000 H   0  0  0  0  0  0  0  0  0  0  0  0
    4.0275   -4.6320    0.0000 H   0  0  0  0  0  0  0  0  0  0  0  0
    2.8775    2.8824    0.0000 C   0  0  2  0  0  0  0  0  0  0  0  0
    2.1404    2.4411    0.0000 C   0  0  1  0  0  0  0  0  0  0  0  0
    2.1404    1.6169    0.0000 C   0  0  2  0  0  0  0  0  0  0  0  0
    2.8629    3.7306    0.0000 C   0  0  0  0  0  0  0  0  0  0  0  0
    3.5562    2.4847    0.0000 C   0  0  0  0  0  0  0  0  0  0  0  0
    4.3222    6.1937    0.0000 C   0  0  2  0  0  0  0  0  0  0  0  0
    3.5562    1.6169    0.0000 C   0  0  0  0  0  0  0  0  0  0  0  0
    1.3454    1.3307    0.0000 O   0  0  0  0  0  0  0  0  0  0  0  0
    1.3454    2.6738    0.0000 C   0  0  0  0  0  0  0  0  0  0  0  0
   -3.1587    6.2810    0.0000 C   0  0  2  0  0  0  0  0  0  0  0  0
    2.8775    1.2193    0.0000 C   0  0  1  0  0  0  0  0  0  0  0  0
    5.0737    5.7574    0.0000 O   0  0  0  0  0  0  0  0  0  0  0  0
   -4.6908    5.8592    0.0000 C   0  0  2  0  0  0  0  0  0  0  0  0
   -1.5053    6.2810    0.0000 C   0  0  2  0  0  0  0  0  0  0  0  0
    3.5562    4.1088    0.0000 O   0  0  0  0  0  0  0  0  0  0  0  0
   -1.9175    6.9937    0.0000 O   0  0  0  0  0  0  0  0  0  0  0  0
   -5.0981    6.5719    0.0000 O   0  0  0  0  0  0  0  0  0  0  0  0
   -1.9175    5.5684    0.0000 C   0  0  0  0  0  0  0  0  0  0  0  0
   -5.0981    5.1465    0.0000 C   0  0  0  0  0  0  0  0  0  0  0  0
   -2.7417    5.5684    0.0000 C   0  0  2  0  0  0  0  0  0  0  0  0
   -6.3393    5.8592    0.0000 C   0  0  2  0  0  0  0  0  0  0  0  0
   -0.0314    6.2470    0.0000 C   0  0  1  0  0  0  0  0  0  0  0  0
   -2.7417    6.9937    0.0000 C   0  0  1  0  0  0  0  0  0  0  0  0
    4.3222    5.3550    0.0000 C   0  0  0  0  0  0  0  0  0  0  0  0
    3.5805    6.6059    0.0000 O   0  0  0  0  0  0  0  0  0  0  0  0
   -5.9223    5.1465    0.0000 C   0  0  1  0  0  0  0  0  0  0  0  0
    5.7089    6.1743    0.0000 C   0  0  1  0  0  0  0  0  0  0  0  0
    3.5562    4.9477    0.0000 C   0  0  2  0  0  0  0  0  0  0  0  0
   -5.9223    6.5719    0.0000 C   0  0  2  0  0  0  0  0  0  0  0  0
    0.7103    6.6543    0.0000 C   0  0  0  0  0  0  0  0  0  0  0  0
   -3.9782    6.2761    0.0000 O   0  0  0  0  0  0  0  0  0  0  0  0
   -0.7975    6.6979    0.0000 O   0  0  0  0  0  0  0  0  0  0  0  0
    1.4278    6.2470    0.0000 C   0  0  0  0  0  0  0  0  0  0  0  0
    0.8702    2.0581    0.0000 C   0  0  0  0  0  0  0  0  0  0  0  0
    1.3454    3.5126    0.0000 C   0  0  0  0  0  0  0  0  0  0  0  0
    2.1404    4.1526    0.0000 O   0  0  0  0  0  0  0  0  0  0  0  0
    0.7927    3.9198    0.0000 C   0  0  0  0  0  0  0  0  0  0  0  0
    2.8775    5.3646    0.0000 C   0  0  0  0  0  0  0  0  0  0  0  0
    2.8775    6.2324    0.0000 C   0  0  1  0  0  0  0  0  0  0  0  0
   -0.0314    5.3550    0.0000 C   0  0  2  0  0  0  0  0  0  0  0  0
    5.7089    6.9550    0.0000 C   0  0  2  0  0  0  0  0  0  0  0  0
    0.7927    4.8168    0.0000 C   0  0  0  0  0  0  0  0  0  0  0  0
    2.1549    3.2798    0.0000 O   0  0  0  0  0  0  0  0  0  0  0  0
    4.3320    6.9550    0.0000 C   0  0  0  0  0  0  0  0  0  0  0  0
    5.0737    7.3719    0.0000 C   0  0  0  0  0  0  0  0  0  0  0  0
    2.1549    6.6543    0.0000 C   0  0  0  0  0  0  0  0  0  0  0  0
    6.3634    5.7962    0.0000 C   0  0  2  0  0  0  0  0  0  0  0  0
    2.8921    0.3951    0.0000 O   0  0  0  0  0  0  0  0  0  0  0  0
   -7.1635    5.8592    0.0000 O   0  0  0  0  0  0  0  0  0  0  0  0
   -3.1538    4.8556    0.0000 O   0  0  0  0  0  0  0  0  0  0  0  0
   -6.3345    4.4337    0.0000 O   0  0  0  0  0  0  0  0  0  0  0  0
    4.2543    1.1853    0.0000 C   0  0  0  0  0  0  0  0  0  0  0  0
    0.7103    7.4737    0.0000 C   0  0  0  0  0  0  0  0  0  0  0  0
   -3.1538    7.7064    0.0000 C   0  0  0  0  0  0  0  0  0  0  0  0
   -6.3345    7.2895    0.0000 C   0  0  0  0  0  0  0  0  0  0  0  0
   -0.7490    4.9477    0.0000 C   0  0  0  0  0  0  0  0  0  0  0  0
    6.4070    7.3864    0.0000 C   0  0  0  0  0  0  0  0  0  0  0  0
    6.3634    5.0398    0.0000 C   0  0  0  0  0  0  0  0  0  0  0  0
    7.0180    6.1743    0.0000 C   0  0  0  0  0  0  0  0  0  0  0  0
   -2.7368    4.1428    0.0000 C   0  0  0  0  0  0  0  0  0  0  0  0
   -5.9223    3.7211    0.0000 C   0  0  0  0  0  0  0  0  0  0  0  0
    7.0180    4.6616    0.0000 C   0  0  0  0  0  0  0  0  0  0  0  0
    2.9008    7.3959    0.0000 H   0  0  0  0  0  0  0  0  0  0  0  0
    4.5537    4.3483    0.0000 H   0  0  0  0  0  0  0  0  0  0  0  0
    5.7421    5.0112    0.0000 H   0  0  0  0  0  0  0  0  0  0  0  0
    2.0536    0.4565    0.0000 H   0  0  0  0  0  0  0  0  0  0  0  0
    3.8820    3.4696    0.0000 H   0  0  0  0  0  0  0  0  0  0  0  0
    4.5971   -5.1037    0.0000 H   0  0  0  0  0  0  0  0  0  0  0  0
   -3.5483   -0.8940    0.0000 H   0  0  0  0  0  0  0  0  0  0  0  0
    3.9560   -7.4062    0.0000 H   0  0  0  0  0  0  0  0  0  0  0  0
   -4.2690   -1.2087    0.0000 H   0  0  0  0  0  0  0  0  0  0  0  0
   -1.0880   -0.7858    0.0000 H   0  0  0  0  0  0  0  0  0  0  0  0
   -1.2374   -3.4601    0.0000 H   0  0  0  0  0  0  0  0  0  0  0  0
   -2.3073   -3.4599    0.0000 H   0  0  0  0  0  0  0  0  0  0  0  0
   -4.4155   -3.8805    0.0000 H   0  0  0  0  0  0  0  0  0  0  0  0
   -5.4866   -3.8824    0.0000 H   0  0  0  0  0  0  0  0  0  0  0  0
   -2.0617   -3.4602    0.0000 H   0  0  0  0  0  0  0  0  0  0  0  0
   -6.7261   -1.3142    0.0000 H   0  0  0  0  0  0  0  0  0  0  0  0
   -0.8151   -2.3856    0.0000 H   0  0  0  0  0  0  0  0  0  0  0  0
   -3.6663   -1.1052    0.0000 H   0  0  0  0  0  0  0  0  0  0  0  0
    5.3848   -3.2978    0.0000 H   0  0  0  0  0  0  0  0  0  0  0  0
    4.4395   -3.8162    0.0000 H   0  0  0  0  0  0  0  0  0  0  0  0
   -5.2421   -3.8820    0.0000 H   0  0  0  0  0  0  0  0  0  0  0  0
   -6.8467   -1.5253    0.0000 H   0  0  0  0  0  0  0  0  0  0  0  0
    1.5700   -2.8865    0.0000 H   0  0  0  0  0  0  0  0  0  0  0  0
   -0.0535   -6.0017    0.0000 H   0  0  0  0  0  0  0  0  0  0  0  0
    0.4881   -6.9745    0.0000 H   0  0  0  0  0  0  0  0  0  0  0  0
    2.4119   -4.1236    0.0000 H   0  0  0  0  0  0  0  0  0  0  0  0
    0.0170   -4.6471    0.0000 H   0  0  0  0  0  0  0  0  0  0  0  0
    2.0892   -3.2593    0.0000 H   0  0  0  0  0  0  0  0  0  0  0  0
    2.1000   -2.1956    0.0000 H   0  0  0  0  0  0  0  0  0  0  0  0
   -0.8108   -2.2081    0.0000 H   0  0  0  0  0  0  0  0  0  0  0  0
    5.8691   -0.0767    0.0000 H   0  0  0  0  0  0  0  0  0  0  0  0
    1.8456   -2.7934    0.0000 H   0  0  0  0  0  0  0  0  0  0  0  0
    3.1489   -4.3514    0.0000 H   0  0  0  0  0  0  0  0  0  0  0  0
    3.5575   -0.6003    0.0000 H   0  0  0  0  0  0  0  0  0  0  0  0
    4.4902   -0.0767    0.0000 H   0  0  0  0  0  0  0  0  0  0  0  0
    5.2561    0.3397    0.0000 H   0  0  0  0  0  0  0  0  0  0  0  0
    4.3052   -0.1735    0.0000 H   0  0  0  0  0  0  0  0  0  0  0  0
    2.3102   -0.3772    0.0000 H   0  0  0  0  0  0  0  0  0  0  0  0
    3.2309   -0.9187    0.0000 H   0  0  0  0  0  0  0  0  0  0  0  0
    7.4356   -2.8404    0.0000 H   0  0  0  0  0  0  0  0  0  0  0  0
    2.2060   -8.2060    0.0000 H   0  0  0  0  0  0  0  0  0  0  0  0
   -7.5031   -1.4024    0.0000 H   0  0  0  0  0  0  0  0  0  0  0  0
    4.3675   -7.9859    0.0000 H   0  0  0  0  0  0  0  0  0  0  0  0
    5.3423   -6.4097    0.0000 H   0  0  0  0  0  0  0  0  0  0  0  0
    5.3099   -7.4792    0.0000 H   0  0  0  0  0  0  0  0  0  0  0  0
    1.7823   -0.0928    0.0000 H   0  0  0  0  0  0  0  0  0  0  0  0
   -0.0709   -0.0928    0.0000 H   0  0  0  0  0  0  0  0  0  0  0  0
    0.8557    0.4422    0.0000 H   0  0  0  0  0  0  0  0  0  0  0  0
   -2.4741    0.5319    0.0000 H   0  0  0  0  0  0  0  0  0  0  0  0
   -4.0785   -0.3958    0.0000 H   0  0  0  0  0  0  0  0  0  0  0  0
   -3.5441    0.5312    0.0000 H   0  0  0  0  0  0  0  0  0  0  0  0
   -5.6518    0.1134    0.0000 H   0  0  0  0  0  0  0  0  0  0  0  0
   -7.2589   -0.8096    0.0000 H   0  0  0  0  0  0  0  0  0  0  0  0
   -6.7218    0.1159    0.0000 H   0  0  0  0  0  0  0  0  0  0  0  0
   -1.5263   -2.6118    0.0000 H   0  0  0  0  0  0  0  0  0  0  0  0
   -0.6117   -4.2237    0.0000 H   0  0  0  0  0  0  0  0  0  0  0  0
   -1.5343   -3.6817    0.0000 H   0  0  0  0  0  0  0  0  0  0  0  0
    7.4948   -1.2223    0.0000 H   0  0  0  0  0  0  0  0  0  0  0  0
    6.5207    0.3543    0.0000 H   0  0  0  0  0  0  0  0  0  0  0  0
    7.4629   -0.1528    0.0000 H   0  0  0  0  0  0  0  0  0  0  0  0
    5.5823   -3.5968    0.0000 H   0  0  0  0  0  0  0  0  0  0  0  0
    7.4355   -3.5968    0.0000 H   0  0  0  0  0  0  0  0  0  0  0  0
    6.5089   -4.1318    0.0000 H   0  0  0  0  0  0  0  0  0  0  0  0
    8.0903   -2.4620    0.0000 H   0  0  0  0  0  0  0  0  0  0  0  0
    7.1632   -0.8573    0.0000 H   0  0  0  0  0  0  0  0  0  0  0  0
    8.0900   -1.3920    0.0000 H   0  0  0  0  0  0  0  0  0  0  0  0
   -3.1209   -4.8885    0.0000 H   0  0  0  0  0  0  0  0  0  0  0  0
   -1.5214   -3.9524    0.0000 H   0  0  0  0  0  0  0  0  0  0  0  0
   -2.0509   -4.8822    0.0000 H   0  0  0  0  0  0  0  0  0  0  0  0
   -6.3111   -5.3075    0.0000 H   0  0  0  0  0  0  0  0  0  0  0  0
   -4.7067   -4.3798    0.0000 H   0  0  0  0  0  0  0  0  0  0  0  0
   -5.2411   -5.3068    0.0000 H   0  0  0  0  0  0  0  0  0  0  0  0
    4.4516    2.9978    0.0000 H   0  0  0  0  0  0  0  0  0  0  0  0
   -3.6938    7.2076    0.0000 H   0  0  0  0  0  0  0  0  0  0  0  0
    3.8105    0.6955    0.0000 H   0  0  0  0  0  0  0  0  0  0  0  0
   -4.4146    6.8929    0.0000 H   0  0  0  0  0  0  0  0  0  0  0  0
   -1.2333    7.3158    0.0000 H   0  0  0  0  0  0  0  0  0  0  0  0
   -1.3829    4.6415    0.0000 H   0  0  0  0  0  0  0  0  0  0  0  0
   -2.4527    4.6419    0.0000 H   0  0  0  0  0  0  0  0  0  0  0  0
   -4.5611    4.2210    0.0000 H   0  0  0  0  0  0  0  0  0  0  0  0
   -5.6321    4.2193    0.0000 H   0  0  0  0  0  0  0  0  0  0  0  0
   -2.2070    4.6416    0.0000 H   0  0  0  0  0  0  0  0  0  0  0  0
   -6.8716    6.7874    0.0000 H   0  0  0  0  0  0  0  0  0  0  0  0
   -0.9603    5.7159    0.0000 H   0  0  0  0  0  0  0  0  0  0  0  0
   -3.8117    6.9964    0.0000 H   0  0  0  0  0  0  0  0  0  0  0  0
    5.2394    4.8039    0.0000 H   0  0  0  0  0  0  0  0  0  0  0  0
    4.2942    4.2854    0.0000 H   0  0  0  0  0  0  0  0  0  0  0  0
   -5.3876    4.2197    0.0000 H   0  0  0  0  0  0  0  0  0  0  0  0
   -6.9923    6.5762    0.0000 H   0  0  0  0  0  0  0  0  0  0  0  0
    1.4249    5.2150    0.0000 H   0  0  0  0  0  0  0  0  0  0  0  0
   -0.1990    2.1002    0.0000 H   0  0  0  0  0  0  0  0  0  0  0  0
    0.3425    1.1273    0.0000 H   0  0  0  0  0  0  0  0  0  0  0  0
    2.2665    3.9781    0.0000 H   0  0  0  0  0  0  0  0  0  0  0  0
   -0.1284    3.4543    0.0000 H   0  0  0  0  0  0  0  0  0  0  0  0
    1.9437    4.8423    0.0000 H   0  0  0  0  0  0  0  0  0  0  0  0
    1.9545    5.9059    0.0000 H   0  0  0  0  0  0  0  0  0  0  0  0
   -0.9561    5.8934    0.0000 H   0  0  0  0  0  0  0  0  0  0  0  0
    6.6434    6.4339    0.0000 H   0  0  0  0  0  0  0  0  0  0  0  0
    1.7003    5.3081    0.0000 H   0  0  0  0  0  0  0  0  0  0  0  0
    3.0032    3.7502    0.0000 H   0  0  0  0  0  0  0  0  0  0  0  0
    3.4119    7.5013    0.0000 H   0  0  0  0  0  0  0  0  0  0  0  0
    4.3447    8.0249    0.0000 H   0  0  0  0  0  0  0  0  0  0  0  0
    5.1105    8.4413    0.0000 H   0  0  0  0  0  0  0  0  0  0  0  0
    6.0239    7.8639    0.0000 H   0  0  0  0  0  0  0  0  0  0  0  0
    2.1645    7.7243    0.0000 H   0  0  0  0  0  0  0  0  0  0  0  0
    3.0852    7.1829    0.0000 H   0  0  0  0  0  0  0  0  0  0  0  0
    6.3634    6.8662    0.0000 H   0  0  0  0  0  0  0  0  0  0  0  0
    2.0608   -0.1047    0.0000 H   0  0  0  0  0  0  0  0  0  0  0  0
   -7.6485    6.6992    0.0000 H   0  0  0  0  0  0  0  0  0  0  0  0
    4.2221    0.1158    0.0000 H   0  0  0  0  0  0  0  0  0  0  0  0
    5.1966    1.6921    0.0000 H   0  0  0  0  0  0  0  0  0  0  0  0
    5.1644    0.6226    0.0000 H   0  0  0  0  0  0  0  0  0  0  0  0
    1.6369    8.0087    0.0000 H   0  0  0  0  0  0  0  0  0  0  0  0
   -0.2163    8.0087    0.0000 H   0  0  0  0  0  0  0  0  0  0  0  0
    0.7103    8.5437    0.0000 H   0  0  0  0  0  0  0  0  0  0  0  0
   -2.6194    8.6334    0.0000 H   0  0  0  0  0  0  0  0  0  0  0  0
   -4.2238    7.7057    0.0000 H   0  0  0  0  0  0  0  0  0  0  0  0
   -3.6894    8.6327    0.0000 H   0  0  0  0  0  0  0  0  0  0  0  0
   -5.7975    8.2150    0.0000 H   0  0  0  0  0  0  0  0  0  0  0  0
   -7.4045    7.2919    0.0000 H   0  0  0  0  0  0  0  0  0  0  0  0
   -6.8675    8.2173    0.0000 H   0  0  0  0  0  0  0  0  0  0  0  0
   -1.6717    5.4895    0.0000 H   0  0  0  0  0  0  0  0  0  0  0  0
   -0.7569    3.8777    0.0000 H   0  0  0  0  0  0  0  0  0  0  0  0
   -1.6796    4.4195    0.0000 H   0  0  0  0  0  0  0  0  0  0  0  0
    7.3492    6.8794    0.0000 H   0  0  0  0  0  0  0  0  0  0  0  0
    6.3750    8.4559    0.0000 H   0  0  0  0  0  0  0  0  0  0  0  0
    7.3172    7.9489    0.0000 H   0  0  0  0  0  0  0  0  0  0  0  0
    5.4367    4.5049    0.0000 H   0  0  0  0  0  0  0  0  0  0  0  0
    6.3632    3.9698    0.0000 H   0  0  0  0  0  0  0  0  0  0  0  0
    7.9447    5.6395    0.0000 H   0  0  0  0  0  0  0  0  0  0  0  0
    7.0178    7.2443    0.0000 H   0  0  0  0  0  0  0  0  0  0  0  0
    7.9445    6.7095    0.0000 H   0  0  0  0  0  0  0  0  0  0  0  0
   -3.2665    3.2131    0.0000 H   0  0  0  0  0  0  0  0  0  0  0  0
   -1.6668    4.1489    0.0000 H   0  0  0  0  0  0  0  0  0  0  0  0
   -2.1965    3.2192    0.0000 H   0  0  0  0  0  0  0  0  0  0  0  0
   -6.4565    2.7940    0.0000 H   0  0  0  0  0  0  0  0  0  0  0  0
   -4.8523    3.7220    0.0000 H   0  0  0  0  0  0  0  0  0  0  0  0
   -5.3865    2.7949    0.0000 H   0  0  0  0  0  0  0  0  0  0  0  0
    7.0177    3.5916    0.0000 H   0  0  0  0  0  0  0  0  0  0  0  0
    7.9448    5.1963    0.0000 H   0  0  0  0  0  0  0  0  0  0  0  0
    7.9445    4.1263    0.0000 H   0  0  0  0  0  0  0  0  0  0  0  0
  1  4  1  0  0  0  0
  1 66  1  1  0  0  0
  2  1  1  0  0  0  0
  2 43  1  6  0  0  0
  3  2  1  0  0  0  0
  3 65  1  6  0  0  0
  5  1  1  0  0  0  0
  5134  1  0  0  0  0
  6 24  1  0  0  0  0
  6 12  1  6  0  0  0
  7  5  2  0  0  0  0
  8  3  1  0  0  0  0
  9  2  1  0  0  0  0
 10 23  1  0  0  0  0
 10 31  1  0  0  0  0
 10 20  1  0  0  0  0
 10135  1  6  0  0  0
 11  7  1  0  0  0  0
 11 48  1  0  0  0  0
 11  3  1  0  0  0  0
 11136  1  6  0  0  0
 13 31  1  0  0  0  0
 13137  1  6  0  0  0
 14 32  1  0  0  0  0
 14138  1  6  0  0  0
 15  4  1  0  0  0  0
 16 14  1  0  0  0  0
 17 13  1  0  0  0  0
 18 14  1  0  0  0  0
 18139  1  0  0  0  0
 18140  1  0  0  0  0
 19 13  1  0  0  0  0
 19141  1  0  0  0  0
 19142  1  0  0  0  0
 20 18  1  0  0  0  0
 20 50  1  0  0  0  0
 20143  1  1  0  0  0
 21 29  1  0  0  0  0
 21 49  1  0  0  0  0
 21 26  1  0  0  0  0
 21144  1  6  0  0  0
 22 40  1  0  0  0  0
 22 32  1  0  0  0  0
 22145  1  1  0  0  0
 23 16  1  0  0  0  0
 23 54  1  0  0  0  0
 23146  1  1  0  0  0
 24 28  1  0  0  0  0
 24147  1  0  0  0  0
 24148  1  0  0  0  0
 25 39  1  0  0  0  0
 25  6  1  0  0  0  0
 26 19  1  0  0  0  0
 26 51  1  0  0  0  0
 26149  1  1  0  0  0
 27 12  1  0  0  0  0
 27 64  1  6  0  0  0
 28 15  1  0  0  0  0
 28 63  1  6  0  0  0
 29 17  1  0  0  0  0
 29 55  1  0  0  0  0
 29150  1  1  0  0  0
 30 33  2  0  0  0  0
 30 22  1  0  0  0  0
 33 46  1  0  0  0  0
 33151  1  0  0  0  0
 34  9  1  0  0  0  0
 34  8  1  0  0  0  0
 34152  1  0  0  0  0
 34153  1  0  0  0  0
 35  9  2  0  0  0  0
 35154  1  0  0  0  0
 36  4  2  0  0  0  0
 37 35  1  0  0  0  0
 37155  1  0  0  0  0
 38 28  1  0  0  0  0
 38156  1  0  0  0  0
 38157  1  0  0  0  0
 39 38  1  0  0  0  0
 39 46  1  0  0  0  0
 39 62  1  6  0  0  0
 40 42  1  0  0  0  0
 40 56  1  0  0  0  0
 40158  1  1  0  0  0
 41 45  1  0  0  0  0
 41 57  1  0  0  0  0
 41 27  1  0  0  0  0
 41159  1  1  0  0  0
 42 37  2  0  0  0  0
 42160  1  0  0  0  0
 43161  1  0  0  0  0
 44  6  1  0  0  0  0
 44162  1  0  0  0  0
 44163  1  0  0  0  0
 45 44  1  0  0  0  0
 45164  1  0  0  0  0
 45165  1  0  0  0  0
 46166  1  0  0  0  0
 46167  1  0  0  0  0
 47 27  1  0  0  0  0
 47 58  1  0  0  0  0
 47168  1  0  0  0  0
 48169  1  0  0  0  0
 49170  1  0  0  0  0
 52  7  1  0  0  0  0
 52171  1  0  0  0  0
 52172  1  0  0  0  0
 52173  1  0  0  0  0
 53 30  1  0  0  0  0
 53174  1  0  0  0  0
 53175  1  0  0  0  0
 53176  1  0  0  0  0
 54177  1  0  0  0  0
 54178  1  0  0  0  0
 54179  1  0  0  0  0
 55180  1  0  0  0  0
 55181  1  0  0  0  0
 55182  1  0  0  0  0
 56183  1  0  0  0  0
 56184  1  0  0  0  0
 56185  1  0  0  0  0
 57186  1  0  0  0  0
 57187  1  0  0  0  0
 57188  1  0  0  0  0
 58189  1  0  0  0  0
 58190  1  0  0  0  0
 58191  1  0  0  0  0
 59 47  1  0  0  0  0
 59192  1  0  0  0  0
 59193  1  0  0  0  0
 59194  1  0  0  0  0
 60 50  1  0  0  0  0
 60195  1  0  0  0  0
 60196  1  0  0  0  0
 60197  1  0  0  0  0
 61 51  1  0  0  0  0
 61198  1  0  0  0  0
 61199  1  0  0  0  0
 61200  1  0  0  0  0
 67 70  1  0  0  0  0
 67133  1  1  0  0  0
 68 67  1  0  0  0  0
 68109  1  6  0  0  0
 69 68  1  0  0  0  0
 69132  1  6  0  0  0
 71 67  1  0  0  0  0
 71201  1  0  0  0  0
 72 90  1  0  0  0  0
 72 78  1  6  0  0  0
 72110  1  0  0  0  0
 73 71  2  0  0  0  0
 74 69  1  0  0  0  0
 75 68  1  0  0  0  0
 76 89  1  0  0  0  0
 76 97  1  0  0  0  0
 76 86  1  0  0  0  0
 76202  1  6  0  0  0
 77 73  1  0  0  0  0
 77114  1  0  0  0  0
 77 69  1  0  0  0  0
 77203  1  6  0  0  0
 79 97  1  0  0  0  0
 79204  1  6  0  0  0
 80 98  1  0  0  0  0
 80205  1  6  0  0  0
 81 70  1  0  0  0  0
 82 80  1  0  0  0  0
 83 79  1  0  0  0  0
 84 80  1  0  0  0  0
 84206  1  0  0  0  0
 84207  1  0  0  0  0
 85 79  1  0  0  0  0
 85208  1  0  0  0  0
 85209  1  0  0  0  0
 86 84  1  0  0  0  0
 86116  1  0  0  0  0
 86210  1  1  0  0  0
 87 95  1  0  0  0  0
 87115  1  0  0  0  0
 87 92  1  0  0  0  0
 87211  1  6  0  0  0
 88106  1  0  0  0  0
 88 98  1  0  0  0  0
 88212  1  1  0  0  0
 89 82  1  0  0  0  0
 89120  1  0  0  0  0
 89213  1  1  0  0  0
 90 94  1  0  0  0  0
 90214  1  0  0  0  0
 90215  1  0  0  0  0
 91 72  1  0  0  0  0
 92 85  1  0  0  0  0
 92117  1  0  0  0  0
 92216  1  1  0  0  0
 93 78  1  0  0  0  0
 93131  1  6  0  0  0
 94 81  1  0  0  0  0
 94130  1  6  0  0  0
 95 83  1  0  0  0  0
 95121  1  0  0  0  0
 95217  1  1  0  0  0
 96 99  2  0  0  0  0
 96 88  1  0  0  0  0
 99112  1  0  0  0  0
 99218  1  0  0  0  0
100 75  1  0  0  0  0
100 74  1  0  0  0  0
100219  1  0  0  0  0
100220  1  0  0  0  0
101 75  2  0  0  0  0
101221  1  0  0  0  0
102 70  2  0  0  0  0
103101  1  0  0  0  0
103222  1  0  0  0  0
104 94  1  0  0  0  0
104223  1  0  0  0  0
104224  1  0  0  0  0
105104  1  0  0  0  0
105112  1  0  0  0  0
105 91  1  0  0  0  0
105129  1  6  0  0  0
106108  1  0  0  0  0
106122  1  0  0  0  0
106225  1  1  0  0  0
107 93  1  0  0  0  0
107123  1  0  0  0  0
107226  1  1  0  0  0
108103  2  0  0  0  0
108227  1  0  0  0  0
109228  1  0  0  0  0
110229  1  0  0  0  0
110230  1  0  0  0  0
111110  1  0  0  0  0
111107  1  0  0  0  0
111231  1  0  0  0  0
111232  1  0  0  0  0
112233  1  0  0  0  0
112234  1  0  0  0  0
113 93  1  0  0  0  0
113124  1  0  0  0  0
113125  1  0  0  0  0
113235  1  6  0  0  0
114236  1  0  0  0  0
115237  1  0  0  0  0
118 73  1  0  0  0  0
118238  1  0  0  0  0
118239  1  0  0  0  0
118240  1  0  0  0  0
119 96  1  0  0  0  0
119241  1  0  0  0  0
119242  1  0  0  0  0
119243  1  0  0  0  0
120244  1  0  0  0  0
120245  1  0  0  0  0
120246  1  0  0  0  0
121247  1  0  0  0  0
121248  1  0  0  0  0
121249  1  0  0  0  0
122250  1  0  0  0  0
122251  1  0  0  0  0
122252  1  0  0  0  0
123253  1  0  0  0  0
123254  1  0  0  0  0
123255  1  0  0  0  0
124256  1  0  0  0  0
124257  1  0  0  0  0
125258  1  0  0  0  0
125259  1  0  0  0  0
125260  1  0  0  0  0
126116  1  0  0  0  0
126261  1  0  0  0  0
126262  1  0  0  0  0
126263  1  0  0  0  0
127117  1  0  0  0  0
127264  1  0  0  0  0
127265  1  0  0  0  0
127266  1  0  0  0  0
128124  1  0  0  0  0
128267  1  0  0  0  0
128268  1  0  0  0  0
128269  1  0  0  0  0
M  END
>  <DRUGBANK_ID>
DB00602

>  <SECONDARY_ACCESSION_NUMBERS>
APRD01058

>  <COMMON_NAME>
Ivermectin

>  <CAS_NUMBER>
70288-86-7

>  <UNII>
8883YP2R6D

>  <SYNONYMS>
Ivermectin; Ivermectina; Ivermectine; Ivermectinum

$$$$
