YE7
 OpenBabel10282417072D

 27 29  0  0  0  0  0  0  0  0999 V2000
   -0.3140   -0.4666    0.0000 C   0  0  0  0  0  0  0  0  0  0  0  0
    0.4872   -0.6633    0.0000 N   0  0  0  0  0  0  0  0  0  0  0  0
    0.8772   -1.3903    0.0000 C   0  0  0  0  0  0  0  0  0  0  0  0
    1.7018   -1.4160    0.0000 C   0  0  0  0  0  0  0  0  0  0  0  0
    2.1364   -0.7148    0.0000 C   0  0  0  0  0  0  0  0  0  0  0  0
    2.9610   -0.7405    0.0000 C   0  0  0  0  0  0  0  0  0  0  0  0
    3.3956   -0.0393    0.0000 C   0  0  0  0  0  0  0  0  0  0  0  0
    3.0056    0.6877    0.0000 C   0  0  0  0  0  0  0  0  0  0  0  0
    2.1810    0.7135    0.0000 C   0  0  0  0  0  0  0  0  0  0  0  0
    1.7464    0.0122    0.0000 C   0  0  0  0  0  0  0  0  0  0  0  0
    0.9218    0.0380    0.0000 C   0  0  0  0  0  0  0  0  0  0  0  0
    0.3892    0.6680    0.0000 N   0  0  0  0  0  0  0  0  0  0  0  0
   -0.3746    0.3562    0.0000 C   0  0  0  0  0  0  0  0  0  0  0  0
   -1.0758    0.7908    0.0000 C   0  0  0  0  0  0  0  0  0  0  0  0
   -1.8028    0.4008    0.0000 O   0  0  0  0  0  0  0  0  0  0  0  0
   -1.0500    1.6154    0.0000 N   0  0  0  0  0  0  0  0  0  0  0  0
   -1.7513    2.0500    0.0000 N   0  0  0  0  0  0  0  0  0  0  0  0
   -1.1021   -1.1328    0.0000 H   0  0  0  0  0  0  0  0  0  0  0  0
    0.3336   -2.2675    0.0000 H   0  0  0  0  0  0  0  0  0  0  0  0
    2.1897   -2.3254    0.0000 H   0  0  0  0  0  0  0  0  0  0  0  0
    3.4489   -1.6499    0.0000 H   0  0  0  0  0  0  0  0  0  0  0  0
    4.4271   -0.0715    0.0000 H   0  0  0  0  0  0  0  0  0  0  0  0
    3.5493    1.5649    0.0000 H   0  0  0  0  0  0  0  0  0  0  0  0
    1.6932    1.6229    0.0000 H   0  0  0  0  0  0  0  0  0  0  0  0
   -0.1824    2.0808    0.0000 H   0  0  0  0  0  0  0  0  0  0  0  0
   -1.7195    3.0695    0.0000 H   0  0  0  0  0  0  0  0  0  0  0  0
   -2.6501    1.5678    0.0000 H   0  0  0  0  0  0  0  0  0  0  0  0
  1 13  2  0  0  0  0
  1  2  1  0  0  0  0
  1 18  1  0  0  0  0
  2 11  1  0  0  0  0
  2  3  1  0  0  0  0
  3  4  2  0  0  0  0
  3 19  1  0  0  0  0
  4  5  1  0  0  0  0
  4 20  1  0  0  0  0
  5 10  2  0  0  0  0
  5  6  1  0  0  0  0
  6  7  2  0  0  0  0
  6 21  1  0  0  0  0
  7  8  1  0  0  0  0
  7 22  1  0  0  0  0
  8  9  2  0  0  0  0
  8 23  1  0  0  0  0
  9 10  1  0  0  0  0
  9 24  1  0  0  0  0
 10 11  1  0  0  0  0
 11 12  2  0  0  0  0
 12 13  1  0  0  0  0
 13 14  1  0  0  0  0
 14 15  2  0  0  0  0
 14 16  1  0  0  0  0
 16 17  1  0  0  0  0
 16 25  1  0  0  0  0
 17 26  1  0  0  0  0
 17 27  1  0  0  0  0
M  END
>  <DRUGBANK_ID>
DB08758

>  <COMMON_NAME>
IMIDAZO[2,1-A]ISOQUINOLINE-2-CARBOHYDRAZIDE

$$$$
