A75
 OpenBabel10282417072D

 40 42  0  0  0  0  0  0  0  0999 V2000
   -2.5334   -0.7327    0.0000 C   0  0  0  0  0  0  0  0  0  0  0  0
   -1.8189   -1.1453    0.0000 C   0  0  0  0  0  0  0  0  0  0  0  0
   -1.1044   -0.7328    0.0000 C   0  0  0  0  0  0  0  0  0  0  0  0
   -1.1044    0.0922    0.0000 C   0  0  0  0  0  0  0  0  0  0  0  0
   -1.8189    0.5048    0.0000 C   0  0  0  0  0  0  0  0  0  0  0  0
   -2.5334    0.0923    0.0000 C   0  0  0  0  0  0  0  0  0  0  0  0
   -0.3900   -1.1452    0.0000 C   0  0  0  0  0  0  0  0  0  0  0  0
    0.3245   -0.7327    0.0000 C   0  0  0  0  0  0  0  0  0  0  0  0
    0.3245    0.0923    0.0000 C   0  0  0  0  0  0  0  0  0  0  0  0
   -0.3900    0.5048    0.0000 C   0  0  0  0  0  0  0  0  0  0  0  0
   -0.3900    1.3298    0.0000 C   0  0  0  0  0  0  0  0  0  0  0  0
    0.3245    1.7423    0.0000 O   0  0  0  0  0  0  0  0  0  0  0  0
   -1.1044    1.7423    0.0000 O   0  0  0  0  0  0  0  0  0  0  0  0
    1.0390    0.5048    0.0000 N   0  0  0  0  0  0  0  0  0  0  0  0
    1.7535    0.0922    0.0000 S   0  0  0  0  0  0  0  0  0  0  0  0
    2.4679   -0.3203    0.0000 C   0  0  0  0  0  0  0  0  0  0  0  0
    1.3410   -0.6222    0.0000 O   0  0  0  0  0  0  0  0  0  0  0  0
    2.1660    0.8067    0.0000 O   0  0  0  0  0  0  0  0  0  0  0  0
    3.1824    0.0922    0.0000 C   0  0  0  0  0  0  0  0  0  0  0  0
    3.8969   -0.3203    0.0000 C   0  0  0  0  0  0  0  0  0  0  0  0
    3.8969   -1.1453    0.0000 C   0  0  0  0  0  0  0  0  0  0  0  0
    3.1824   -1.5578    0.0000 C   0  0  0  0  0  0  0  0  0  0  0  0
    2.4679   -1.1453    0.0000 C   0  0  0  0  0  0  0  0  0  0  0  0
   -3.4601   -1.2677    0.0000 H   0  0  0  0  0  0  0  0  0  0  0  0
   -3.4600   -0.1977    0.0000 H   0  0  0  0  0  0  0  0  0  0  0  0
   -1.8190   -2.2153    0.0000 H   0  0  0  0  0  0  0  0  0  0  0  0
   -0.8923   -1.6803    0.0000 H   0  0  0  0  0  0  0  0  0  0  0  0
   -1.8188    1.5748    0.0000 H   0  0  0  0  0  0  0  0  0  0  0  0
   -2.7455    1.0398    0.0000 H   0  0  0  0  0  0  0  0  0  0  0  0
   -3.4600    0.6273    0.0000 H   0  0  0  0  0  0  0  0  0  0  0  0
   -2.5334    1.1623    0.0000 H   0  0  0  0  0  0  0  0  0  0  0  0
   -0.3900   -2.1772    0.0000 H   0  0  0  0  0  0  0  0  0  0  0  0
    1.2182   -1.2487    0.0000 H   0  0  0  0  0  0  0  0  0  0  0  0
    1.1360    1.2738    0.0000 H   0  0  0  0  0  0  0  0  0  0  0  0
    1.0391    1.4893    0.0000 H   0  0  0  0  0  0  0  0  0  0  0  0
    3.1824    1.1242    0.0000 H   0  0  0  0  0  0  0  0  0  0  0  0
    4.7906    0.1957    0.0000 H   0  0  0  0  0  0  0  0  0  0  0  0
    4.7906   -1.6613    0.0000 H   0  0  0  0  0  0  0  0  0  0  0  0
    3.1824   -2.5898    0.0000 H   0  0  0  0  0  0  0  0  0  0  0  0
    1.5742   -1.6613    0.0000 H   0  0  0  0  0  0  0  0  0  0  0  0
  1  2  1  0  0  0  0
  1  6  1  0  0  0  0
  1 24  1  0  0  0  0
  1 25  1  0  0  0  0
  2  3  1  0  0  0  0
  2 26  1  0  0  0  0
  2 27  1  0  0  0  0
  3  4  1  0  0  0  0
  3  7  2  0  0  0  0
  4  5  1  0  0  0  0
  4 10  2  0  0  0  0
  5  6  1  0  0  0  0
  5 28  1  0  0  0  0
  5 29  1  0  0  0  0
  6 30  1  0  0  0  0
  6 31  1  0  0  0  0
  7  8  1  0  0  0  0
  7 32  1  0  0  0  0
  8  9  2  0  0  0  0
  8 33  1  0  0  0  0
  9 10  1  0  0  0  0
  9 14  1  0  0  0  0
 10 11  1  0  0  0  0
 11 12  1  0  0  0  0
 11 13  2  0  0  0  0
 12 34  1  0  0  0  0
 14 15  1  0  0  0  0
 14 35  1  0  0  0  0
 15 16  1  0  0  0  0
 15 17  2  0  0  0  0
 15 18  2  0  0  0  0
 16 19  1  0  0  0  0
 16 23  2  0  0  0  0
 19 20  2  0  0  0  0
 19 36  1  0  0  0  0
 20 21  1  0  0  0  0
 20 37  1  0  0  0  0
 21 22  2  0  0  0  0
 21 38  1  0  0  0  0
 22 23  1  0  0  0  0
 22 39  1  0  0  0  0
 23 40  1  0  0  0  0
M  END
>  <DRUGBANK_ID>
DB07322

>  <COMMON_NAME>
2-[(PHENYLSULFONYL)AMINO]-5,6,7,8-TETRAHYDRONAPHTHALENE-1-CARBOXYLIC ACID

$$$$
