
 OpenBabel10282417072D

 29 30  0  0  0  0  0  0  0  0999 V2000
    4.1801    3.1152    0.0000 C   0  0  0  0  0  0  0  0  0  0  0  0
    4.8946    3.5277    0.0000 C   0  0  0  0  0  0  0  0  0  0  0  0
    5.6091    3.1152    0.0000 C   0  0  0  0  0  0  0  0  0  0  0  0
    5.6091    2.2902    0.0000 C   0  0  0  0  0  0  0  0  0  0  0  0
    4.8946    1.8777    0.0000 C   0  0  0  0  0  0  0  0  0  0  0  0
    4.1801    2.2902    0.0000 C   0  0  0  0  0  0  0  0  0  0  0  0
    3.4656    1.8777    0.0000 C   0  0  0  0  0  0  0  0  0  0  0  0
    3.4656    1.0527    0.0000 N   0  0  0  0  0  0  0  0  0  0  0  0
    4.1331    0.5678    0.0000 C   0  0  0  0  0  0  0  0  0  0  0  0
    3.8781   -0.2169    0.0000 C   0  0  0  0  0  0  0  0  0  0  0  0
    3.0531   -0.2169    0.0000 N   0  0  0  0  0  0  0  0  0  0  0  0
    2.7982    0.5678    0.0000 C   0  0  0  0  0  0  0  0  0  0  0  0
    6.3235    3.5277    0.0000 C   0  0  0  0  0  0  0  0  0  0  0  0
    7.0380    3.1152    0.0000 C   0  0  0  0  0  0  0  0  0  0  0  0
    7.7525    3.5277    0.0000 C   0  0  0  0  0  0  0  0  0  0  0  0
    7.7525    4.3527    0.0000 O   0  0  0  0  0  0  0  0  0  0  0  0
    8.4669    3.1152    0.0000 O   0  0  0  0  0  0  0  0  0  0  0  0
    3.2864    3.6312    0.0000 H   0  0  0  0  0  0  0  0  0  0  0  0
    4.8946    4.5597    0.0000 H   0  0  0  0  0  0  0  0  0  0  0  0
    6.5028    1.7742    0.0000 H   0  0  0  0  0  0  0  0  0  0  0  0
    4.8946    0.8457    0.0000 H   0  0  0  0  0  0  0  0  0  0  0  0
    2.5390    2.4127    0.0000 H   0  0  0  0  0  0  0  0  0  0  0  0
    2.5390    1.3427    0.0000 H   0  0  0  0  0  0  0  0  0  0  0  0
    5.1146    0.8867    0.0000 H   0  0  0  0  0  0  0  0  0  0  0  0
    4.4847   -1.0518    0.0000 H   0  0  0  0  0  0  0  0  0  0  0  0
    1.8167    0.8867    0.0000 H   0  0  0  0  0  0  0  0  0  0  0  0
    6.3235    4.5597    0.0000 H   0  0  0  0  0  0  0  0  0  0  0  0
    7.0380    2.0832    0.0000 H   0  0  0  0  0  0  0  0  0  0  0  0
    8.4669    2.1782    0.0000 H   0  0  0  0  0  0  0  0  0  0  0  0
  1  2  2  0  0  0  0
  1  6  1  0  0  0  0
  1 18  1  0  0  0  0
  2  3  1  0  0  0  0
  2 19  1  0  0  0  0
  3  4  2  0  0  0  0
  3 13  1  0  0  0  0
  4  5  1  0  0  0  0
  4 20  1  0  0  0  0
  5  6  2  0  0  0  0
  5 21  1  0  0  0  0
  6  7  1  0  0  0  0
  7  8  1  0  0  0  0
  7 22  1  0  0  0  0
  7 23  1  0  0  0  0
  8  9  1  0  0  0  0
  8 12  1  0  0  0  0
  9 10  2  0  0  0  0
  9 24  1  0  0  0  0
 10 11  1  0  0  0  0
 10 25  1  0  0  0  0
 11 12  2  0  0  0  0
 12 26  1  0  0  0  0
 13 14  2  0  0  0  0
 13 27  1  0  0  0  0
 14 15  1  0  0  0  0
 14 28  1  0  0  0  0
 15 16  2  0  0  0  0
 15 17  1  0  0  0  0
 17 29  1  0  0  0  0
M  END
>  <DRUGBANK_ID>
DB12017

>  <COMMON_NAME>
Ozagrel

>  <CAS_NUMBER>
82571-53-7

>  <UNII>
L256JB984D

>  <SYNONYMS>
Ozagrel

$$$$
