
 OpenBabel10282417072D

 77 78  0  0  0  0  0  0  0  0999 V2000
   -4.5535   -0.3432    0.0000 C   0  0  0  0  0  0  0  0  0  0  0  0
   -1.1848   -1.6017    0.0000 C   0  0  0  0  0  0  0  0  0  0  0  0
   -0.7884    0.0000    0.0000 C   0  0  0  0  0  0  0  0  0  0  0  0
    0.5986   -0.3432    0.0000 C   0  0  1  0  0  0  0  0  0  0  0  0
    0.7967    0.4575    0.0000 C   0  0  0  0  0  0  0  0  0  0  0  0
    0.2023    1.0296    0.0000 C   0  0  0  0  0  0  0  0  0  0  0  0
    0.4004    1.8304    0.0000 C   0  0  0  0  0  0  0  0  0  0  0  0
   -4.3553    0.4575    0.0000 C   0  0  0  0  0  0  0  0  0  0  0  0
    1.1930   -0.9152    0.0000 C   0  0  0  0  0  0  0  0  0  0  0  0
    2.1838    0.1143    0.0000 C   0  0  0  0  0  0  0  0  0  0  0  0
    2.5802   -1.2585    0.0000 C   0  0  0  0  0  0  0  0  0  0  0  0
    3.3728   -1.0296    0.0000 C   0  0  0  0  0  0  0  0  0  0  0  0
    3.9673   -1.6017    0.0000 C   0  0  0  0  0  0  0  0  0  0  0  0
    4.7599   -1.3729    0.0000 C   0  0  0  0  0  0  0  0  0  0  0  0
   -3.5628    0.6864    0.0000 C   0  0  0  0  0  0  0  0  0  0  0  0
    4.9581   -0.5720    0.0000 C   0  0  0  0  0  0  0  0  0  0  0  0
    5.7507   -0.3432    0.0000 C   0  0  0  0  0  0  0  0  0  0  0  0
    6.3452   -0.9152    0.0000 C   0  0  0  0  0  0  0  0  0  0  0  0
    6.1470   -1.7161    0.0000 C   0  0  0  0  0  0  0  0  0  0  0  0
    5.3544   -1.9449    0.0000 C   0  0  0  0  0  0  0  0  0  0  0  0
   -2.9682    0.1143    0.0000 C   0  0  0  0  0  0  0  0  0  0  0  0
   -3.1664   -0.6864    0.0000 C   0  0  0  0  0  0  0  0  0  0  0  0
   -3.9591   -0.9152    0.0000 C   0  0  0  0  0  0  0  0  0  0  0  0
   -2.1756    0.3431    0.0000 C   0  0  0  0  0  0  0  0  0  0  0  0
   -1.7792   -1.0296    0.0000 C   0  0  0  0  0  0  0  0  0  0  0  0
   -0.1940   -0.5720    0.0000 N   0  0  0  0  0  0  0  0  0  0  0  0
    1.9857   -0.6864    0.0000 N   0  0  0  0  0  0  0  0  0  0  0  0
   -1.5811   -0.2288    0.0000 N   0  0  0  0  0  0  0  0  0  0  0  0
   -0.3921   -1.3729    0.0000 O   0  0  0  0  0  0  0  0  0  0  0  0
   -1.3829   -2.4025    0.0000 O   0  0  0  0  0  0  0  0  0  0  0  0
   -0.5903    0.8008    0.0000 O   0  0  0  0  0  0  0  0  0  0  0  0
   -5.7425   -2.1737    0.0000 O   0  0  0  0  0  0  0  0  0  0  0  0
   -0.1940    2.4025    0.0000 O   0  0  0  0  0  0  0  0  0  0  0  0
    1.1930    2.0592    0.0000 O   0  0  0  0  0  0  0  0  0  0  0  0
    0.9949   -1.7161    0.0000 O   0  0  0  0  0  0  0  0  0  0  0  0
   -6.3451   -1.1747    0.0000 O   0  0  0  0  0  0  0  0  0  0  0  0
   -4.7434   -1.5710    0.0000 O   0  0  0  0  0  0  0  0  0  0  0  0
   -5.3461   -0.5720    0.0000 O   0  0  0  0  0  0  0  0  0  0  0  0
   -5.5443   -1.3729    0.0000 P   0  0  0  0  0  0  0  0  0  0  0  0
   -0.1724    0.3987    0.0000 H   0  0  0  0  0  0  0  0  0  0  0  0
    1.8247    0.7542    0.0000 H   0  0  0  0  0  0  0  0  0  0  0  0
    1.0538    1.4962    0.0000 H   0  0  0  0  0  0  0  0  0  0  0  0
   -0.8257    0.7329    0.0000 H   0  0  0  0  0  0  0  0  0  0  0  0
   -0.5687    1.7715    0.0000 H   0  0  0  0  0  0  0  0  0  0  0  0
   -5.0990    1.1730    0.0000 H   0  0  0  0  0  0  0  0  0  0  0  0
    3.2118    0.4111    0.0000 H   0  0  0  0  0  0  0  0  0  0  0  0
    1.4128    0.8562    0.0000 H   0  0  0  0  0  0  0  0  0  0  0  0
    2.4408    1.1530    0.0000 H   0  0  0  0  0  0  0  0  0  0  0  0
    2.3232   -2.2972    0.0000 H   0  0  0  0  0  0  0  0  0  0  0  0
    1.5522   -1.5553    0.0000 H   0  0  0  0  0  0  0  0  0  0  0  0
    3.6298    0.0091    0.0000 H   0  0  0  0  0  0  0  0  0  0  0  0
    4.4008   -0.7328    0.0000 H   0  0  0  0  0  0  0  0  0  0  0  0
    3.7103   -2.6404    0.0000 H   0  0  0  0  0  0  0  0  0  0  0  0
    4.7383   -2.3436    0.0000 H   0  0  0  0  0  0  0  0  0  0  0  0
    5.7879   -1.0761    0.0000 H   0  0  0  0  0  0  0  0  0  0  0  0
   -3.3150    1.6882    0.0000 H   0  0  0  0  0  0  0  0  0  0  0  0
    4.1871    0.1699    0.0000 H   0  0  0  0  0  0  0  0  0  0  0  0
    5.2151    0.4667    0.0000 H   0  0  0  0  0  0  0  0  0  0  0  0
    6.0077    0.6955    0.0000 H   0  0  0  0  0  0  0  0  0  0  0  0
    6.7787   -0.0464    0.0000 H   0  0  0  0  0  0  0  0  0  0  0  0
    7.3732   -0.6184    0.0000 H   0  0  0  0  0  0  0  0  0  0  0  0
    7.1162   -1.6571    0.0000 H   0  0  0  0  0  0  0  0  0  0  0  0
    6.9180   -2.4580    0.0000 H   0  0  0  0  0  0  0  0  0  0  0  0
    5.8900   -2.7548    0.0000 H   0  0  0  0  0  0  0  0  0  0  0  0
    5.0974   -2.9836    0.0000 H   0  0  0  0  0  0  0  0  0  0  0  0
    6.1254   -2.6868    0.0000 H   0  0  0  0  0  0  0  0  0  0  0  0
   -2.4228   -1.4020    0.0000 H   0  0  0  0  0  0  0  0  0  0  0  0
   -4.2070   -1.9170    0.0000 H   0  0  0  0  0  0  0  0  0  0  0  0
   -1.9187    1.3818    0.0000 H   0  0  0  0  0  0  0  0  0  0  0  0
   -1.1476    0.6400    0.0000 H   0  0  0  0  0  0  0  0  0  0  0  0
   -2.8072   -1.3263    0.0000 H   0  0  0  0  0  0  0  0  0  0  0  0
   -2.5502   -0.2877    0.0000 H   0  0  0  0  0  0  0  0  0  0  0  0
   -0.4305   -1.5277    0.0000 H   0  0  0  0  0  0  0  0  0  0  0  0
    0.2831   -2.0226    0.0000 H   0  0  0  0  0  0  0  0  0  0  0  0
    1.8682    1.4095    0.0000 H   0  0  0  0  0  0  0  0  0  0  0  0
   -6.6141   -0.2427    0.0000 H   0  0  0  0  0  0  0  0  0  0  0  0
   -4.4743   -2.5029    0.0000 H   0  0  0  0  0  0  0  0  0  0  0  0
  1  8  2  0  0  0  0
  1 23  1  0  0  0  0
  1 38  1  0  0  0  0
  2 25  1  0  0  0  0
  2 29  1  0  0  0  0
  2 30  2  0  0  0  0
  3 26  1  0  0  0  0
  3 28  1  0  0  0  0
  3 31  2  0  0  0  0
  4  5  1  0  0  0  0
  4  9  1  0  0  0  0
  4 26  1  0  0  0  0
  4 40  1  6  0  0  0
  5  6  1  0  0  0  0
  5 41  1  0  0  0  0
  5 42  1  0  0  0  0
  6  7  1  0  0  0  0
  6 43  1  0  0  0  0
  6 44  1  0  0  0  0
  7 33  2  0  0  0  0
  7 34  1  0  0  0  0
  8 15  1  0  0  0  0
  8 45  1  0  0  0  0
  9 27  1  0  0  0  0
  9 35  2  0  0  0  0
 10 27  1  0  0  0  0
 10 46  1  0  0  0  0
 10 47  1  0  0  0  0
 10 48  1  0  0  0  0
 11 12  1  0  0  0  0
 11 27  1  0  0  0  0
 11 49  1  0  0  0  0
 11 50  1  0  0  0  0
 12 13  1  0  0  0  0
 12 51  1  0  0  0  0
 12 52  1  0  0  0  0
 13 14  1  0  0  0  0
 13 53  1  0  0  0  0
 13 54  1  0  0  0  0
 14 16  1  0  0  0  0
 14 20  1  0  0  0  0
 14 55  1  0  0  0  0
 15 21  2  0  0  0  0
 15 56  1  0  0  0  0
 16 17  1  0  0  0  0
 16 57  1  0  0  0  0
 16 58  1  0  0  0  0
 17 18  1  0  0  0  0
 17 59  1  0  0  0  0
 17 60  1  0  0  0  0
 18 19  1  0  0  0  0
 18 61  1  0  0  0  0
 18 62  1  0  0  0  0
 19 20  1  0  0  0  0
 19 63  1  0  0  0  0
 19 64  1  0  0  0  0
 20 65  1  0  0  0  0
 20 66  1  0  0  0  0
 21 22  1  0  0  0  0
 21 24  1  0  0  0  0
 22 23  2  0  0  0  0
 22 67  1  0  0  0  0
 23 68  1  0  0  0  0
 24 28  1  0  0  0  0
 24 69  1  0  0  0  0
 24 70  1  0  0  0  0
 25 28  1  0  0  0  0
 25 71  1  0  0  0  0
 25 72  1  0  0  0  0
 26 73  1  0  0  0  0
 29 74  1  0  0  0  0
 32 39  2  0  0  0  0
 34 75  1  0  0  0  0
 36 39  1  0  0  0  0
 36 76  1  0  0  0  0
 37 39  1  0  0  0  0
 37 77  1  0  0  0  0
 38 39  1  0  0  0  0
M  END
>  <DRUGBANK_ID>
DB01773

>  <SECONDARY_ACCESSION_NUMBERS>
EXPT03200

>  <COMMON_NAME>
4-[3-carboxymethyl-3-(4-phosphonooxy-benzyl)-ureido]-4-[(3-cyclohexyl-propyl)-methyl-carbamoyl]butyric acid

$$$$
