
 OpenBabel10282417072D

 28 29  0  0  1  0  0  0  0  0999 V2000
    3.2987   -2.7597    0.0000 C   0  0  0  0  0  0  0  0  0  0  0  0
    1.4744    1.1646    0.0000 C   0  0  0  0  0  0  0  0  0  0  0  0
    3.0687   -1.3076    0.0000 C   0  0  0  0  0  0  0  0  0  0  0  0
    1.0130   -0.1541    0.0000 C   0  0  0  0  0  0  0  0  0  0  0  0
    3.3281    1.1646    0.0000 C   0  0  0  0  0  0  0  0  0  0  0  0
    1.6580    0.3603    0.0000 C   0  0  0  0  0  0  0  0  0  0  0  0
    2.4013   -0.8227    0.0000 C   0  0  0  0  0  0  0  0  0  0  0  0
    2.8138    1.8096    0.0000 C   0  0  0  0  0  0  0  0  0  0  0  0
    2.4013    0.0023    0.0000 C   0  0  1  0  0  0  0  0  0  0  0  0
    3.1717    2.5529    0.0000 C   0  0  0  0  0  0  0  0  0  0  0  0
    1.9888    1.8096    0.0000 N   0  0  0  0  0  0  0  0  0  0  0  0
    1.7338   -1.3076    0.0000 N   0  0  0  0  0  0  0  0  0  0  0  0
    1.9888   -2.0922    0.0000 N   0  0  0  0  0  0  0  0  0  0  0  0
    2.8138   -2.0922    0.0000 N   0  0  0  0  0  0  0  0  0  0  0  0
    1.1359   -0.9699    0.0000 O   0  0  0  0  0  0  0  0  0  0  0  0
    2.7070    3.2345    0.0000 O   0  0  0  0  0  0  0  0  0  0  0  0
    3.9944    2.6145    0.0000 O   0  0  0  0  0  0  0  0  0  0  0  0
    3.1446    0.3603    0.0000 S   0  0  0  0  0  0  0  0  0  0  0  0
    1.7027   -0.4366    0.0000 H   0  0  0  0  0  0  0  0  0  0  0  0
    2.8634   -3.7372    0.0000 H   0  0  0  0  0  0  0  0  0  0  0  0
    4.3628   -2.6479    0.0000 H   0  0  0  0  0  0  0  0  0  0  0  0
    3.9276   -3.6254    0.0000 H   0  0  0  0  0  0  0  0  0  0  0  0
    0.4683    1.3942    0.0000 H   0  0  0  0  0  0  0  0  0  0  0  0
    4.0502   -0.9887    0.0000 H   0  0  0  0  0  0  0  0  0  0  0  0
    0.0523    0.2230    0.0000 H   0  0  0  0  0  0  0  0  0  0  0  0
    4.3342    1.3943    0.0000 H   0  0  0  0  0  0  0  0  0  0  0  0
    1.5617    2.6966    0.0000 H   0  0  0  0  0  0  0  0  0  0  0  0
    4.5222    1.8403    0.0000 H   0  0  0  0  0  0  0  0  0  0  0  0
  1 20  1  0  0  0  0
  1 21  1  0  0  0  0
  1 22  1  0  0  0  0
  2 23  1  0  0  0  0
  3 24  1  0  0  0  0
  4 25  1  0  0  0  0
  5 26  1  0  0  0  0
  6  2  2  0  0  0  0
  6  4  1  0  0  0  0
  7  3  2  0  0  0  0
  8  5  2  0  0  0  0
  9  6  1  0  0  0  0
  9  7  1  0  0  0  0
  9 19  1  1  0  0  0
 10  8  1  0  0  0  0
 11  2  1  0  0  0  0
 11  8  1  0  0  0  0
 11 27  1  0  0  0  0
 12  7  1  0  0  0  0
 13 12  2  0  0  0  0
 14  1  1  0  0  0  0
 14  3  1  0  0  0  0
 14 13  1  0  0  0  0
 15  4  2  0  0  0  0
 16 10  2  0  0  0  0
 17 10  1  0  0  0  0
 17 28  1  0  0  0  0
 18  5  1  0  0  0  0
 18  9  1  0  0  0  0
M  END
>  <DRUGBANK_ID>
DB02816

>  <SECONDARY_ACCESSION_NUMBERS>
EXPT01416

>  <COMMON_NAME>
7-(1-Methyl-1,2,3-Triazol-4-Yl)-6-Formyl-2,7-Dihydro-[1,4]Thiazepine-3-Carboxylic Acid, Brl42715, C6-(N1-Methyl-1,2,3-Triazolylmethylene)Penem

$$$$
