1180
 OpenBabel10282417072D

 88 93  0  0  1  0  0  0  0  0999 V2000
    9.0363   -1.7074    0.0000 O   0  0  0  0  0  0  0  0  0  0  0  0
   10.1908   -0.4251    0.0000 O   0  0  0  0  0  0  0  0  0  0  0  0
    7.5971   -2.1231    0.0000 O   0  0  0  0  0  0  0  0  0  0  0  0
    6.5463   -1.1548    0.0000 O   0  0  0  0  0  0  0  0  0  0  0  0
   10.4823    0.9736    0.0000 O   0  0  0  0  0  0  0  0  0  0  0  0
    2.2047    1.5699    0.0000 O   0  0  0  0  0  0  0  0  0  0  0  0
   14.2286   -1.2671    0.0000 O   0  0  0  0  0  0  0  0  0  0  0  0
   14.8118    1.5303    0.0000 O   0  0  0  0  0  0  0  0  0  0  0  0
   15.3278   -0.0368    0.0000 O   0  0  0  0  0  0  0  0  0  0  0  0
    7.1069    1.7458    0.0000 N   0  0  3  0  0  0  0  0  0  0  0  0
    5.0832    0.8239    0.0000 N   0  0  0  0  0  0  0  0  0  0  0  0
    7.6469    0.1264    0.0000 C   0  0  2  0  0  0  0  0  0  0  0  0
    8.2218    0.7649    0.0000 C   0  0  1  0  0  0  0  0  0  0  0  0
    6.8078    0.3115    0.0000 C   0  0  0  0  0  0  0  0  0  0  0  0
    7.9102   -0.7289    0.0000 C   0  0  1  0  0  0  0  0  0  0  0  0
    6.5548    1.1327    0.0000 C   0  0  2  0  0  0  0  0  0  0  0  0
    7.9499    1.5801    0.0000 C   0  0  0  0  0  0  0  0  0  0  0  0
    9.1000    0.5924    0.0000 C   0  0  0  0  0  0  0  0  0  0  0  0
    8.7843   -0.9218    0.0000 C   0  0  2  0  0  0  0  0  0  0  0  0
    9.3832   -0.2567    0.0000 C   0  0  2  0  0  0  0  0  0  0  0  0
    5.7480    1.3042    0.0000 C   0  0  0  0  0  0  0  0  0  0  0  0
    6.8519    2.5303    0.0000 C   0  0  0  0  0  0  0  0  0  0  0  0
    5.4931    2.0888    0.0000 C   0  0  0  0  0  0  0  0  0  0  0  0
    6.0451    2.7018    0.0000 C   0  0  0  0  0  0  0  0  0  0  0  0
    7.3513   -1.3356    0.0000 C   0  0  0  0  0  0  0  0  0  0  0  0
    4.6731    2.0867    0.0000 C   0  0  0  0  0  0  0  0  0  0  0  0
    4.4203    1.3065    0.0000 C   0  0  0  0  0  0  0  0  0  0  0  0
    9.8424   -1.8820    0.0000 C   0  0  0  0  0  0  0  0  0  0  0  0
    4.1108    2.7297    0.0000 C   0  0  0  0  0  0  0  0  0  0  0  0
   10.7403    0.1901    0.0000 C   0  0  0  0  0  0  0  0  0  0  0  0
    3.5877    1.1154    0.0000 C   0  0  0  0  0  0  0  0  0  0  0  0
    3.2741    2.5578    0.0000 C   0  0  0  0  0  0  0  0  0  0  0  0
    3.0108    1.7452    0.0000 C   0  0  0  0  0  0  0  0  0  0  0  0
    7.0380   -2.7297    0.0000 C   0  0  0  0  0  0  0  0  0  0  0  0
   11.5480    0.0217    0.0000 C   0  0  0  0  0  0  0  0  0  0  0  0
   12.0975    0.6369    0.0000 C   0  0  0  0  0  0  0  0  0  0  0  0
    1.6499    2.1803    0.0000 C   0  0  0  0  0  0  0  0  0  0  0  0
   12.9051    0.4684    0.0000 C   0  0  0  0  0  0  0  0  0  0  0  0
   13.4546    1.0836    0.0000 C   0  0  0  0  0  0  0  0  0  0  0  0
   13.1630   -0.3151    0.0000 C   0  0  0  0  0  0  0  0  0  0  0  0
   13.9706   -0.4836    0.0000 C   0  0  0  0  0  0  0  0  0  0  0  0
   14.2623    0.9151    0.0000 C   0  0  0  0  0  0  0  0  0  0  0  0
   14.5202    0.1317    0.0000 C   0  0  0  0  0  0  0  0  0  0  0  0
   13.6789   -1.8823    0.0000 C   0  0  0  0  0  0  0  0  0  0  0  0
   14.5539    2.3139    0.0000 C   0  0  0  0  0  0  0  0  0  0  0  0
   15.8774    0.5784    0.0000 C   0  0  0  0  0  0  0  0  0  0  0  0
    7.1996   -0.3590    0.0000 H   0  0  0  0  0  0  0  0  0  0  0  0
    8.6577    1.2605    0.0000 H   0  0  0  0  0  0  0  0  0  0  0  0
    6.1096    0.6457    0.0000 H   0  0  0  0  0  0  0  0  0  0  0  0
    5.0814   -0.1606    0.0000 H   0  0  0  0  0  0  0  0  0  0  0  0
    6.0827   -0.4754    0.0000 H   0  0  0  0  0  0  0  0  0  0  0  0
    5.7643    0.5480    0.0000 H   0  0  0  0  0  0  0  0  0  0  0  0
    6.8667   -0.4924    0.0000 H   0  0  0  0  0  0  0  0  0  0  0  0
    8.6566    2.3835    0.0000 H   0  0  0  0  0  0  0  0  0  0  0  0
    8.9986    1.3678    0.0000 H   0  0  0  0  0  0  0  0  0  0  0  0
    9.8067    1.3958    0.0000 H   0  0  0  0  0  0  0  0  0  0  0  0
   10.1487    0.3801    0.0000 H   0  0  0  0  0  0  0  0  0  0  0  0
    8.0638   -1.7128    0.0000 H   0  0  0  0  0  0  0  0  0  0  0  0
   10.0945    0.5426    0.0000 H   0  0  0  0  0  0  0  0  0  0  0  0
    7.5678    3.3255    0.0000 H   0  0  0  0  0  0  0  0  0  0  0  0
    6.5212    3.5479    0.0000 H   0  0  0  0  0  0  0  0  0  0  0  0
    5.7145    3.7194    0.0000 H   0  0  0  0  0  0  0  0  0  0  0  0
    4.9985    2.9243    0.0000 H   0  0  0  0  0  0  0  0  0  0  0  0
   10.1691   -2.9009    0.0000 H   0  0  0  0  0  0  0  0  0  0  0  0
   10.5614   -1.0896    0.0000 H   0  0  0  0  0  0  0  0  0  0  0  0
   10.8882   -2.1085    0.0000 H   0  0  0  0  0  0  0  0  0  0  0  0
    4.4401    3.7077    0.0000 H   0  0  0  0  0  0  0  0  0  0  0  0
    3.2810    0.1300    0.0000 H   0  0  0  0  0  0  0  0  0  0  0  0
    2.5859    3.3268    0.0000 H   0  0  0  0  0  0  0  0  0  0  0  0
    5.9940   -2.4951    0.0000 H   0  0  0  0  0  0  0  0  0  0  0  0
    7.3568   -3.7511    0.0000 H   0  0  0  0  0  0  0  0  0  0  0  0
    6.3128   -3.5165    0.0000 H   0  0  0  0  0  0  0  0  0  0  0  0
   11.8708   -0.9585    0.0000 H   0  0  0  0  0  0  0  0  0  0  0  0
   11.7748    1.6171    0.0000 H   0  0  0  0  0  0  0  0  0  0  0  0
    1.9758    3.1995    0.0000 H   0  0  0  0  0  0  0  0  0  0  0  0
    0.6043    1.9529    0.0000 H   0  0  0  0  0  0  0  0  0  0  0  0
    0.9302    2.9721    0.0000 H   0  0  0  0  0  0  0  0  0  0  0  0
   13.1319    2.0638    0.0000 H   0  0  0  0  0  0  0  0  0  0  0  0
   12.4754   -1.0846    0.0000 H   0  0  0  0  0  0  0  0  0  0  0  0
   12.6314   -1.6638    0.0000 H   0  0  0  0  0  0  0  0  0  0  0  0
   14.0134   -2.8987    0.0000 H   0  0  0  0  0  0  0  0  0  0  0  0
   12.9660   -2.6802    0.0000 H   0  0  0  0  0  0  0  0  0  0  0  0
   15.2668    3.1118    0.0000 H   0  0  0  0  0  0  0  0  0  0  0  0
   13.5064    2.5324    0.0000 H   0  0  0  0  0  0  0  0  0  0  0  0
   14.2194    3.3303    0.0000 H   0  0  0  0  0  0  0  0  0  0  0  0
   16.9249    0.3600    0.0000 H   0  0  0  0  0  0  0  0  0  0  0  0
   15.5428    1.5947    0.0000 H   0  0  0  0  0  0  0  0  0  0  0  0
   16.5903    1.3764    0.0000 H   0  0  0  0  0  0  0  0  0  0  0  0
  1 28  1  0  0  0  0
  2 30  1  0  0  0  0
  3 25  1  0  0  0  0
  3 34  1  0  0  0  0
  4 25  2  0  0  0  0
  5 30  2  0  0  0  0
  6 33  1  0  0  0  0
  6 37  1  0  0  0  0
  7 41  1  0  0  0  0
  7 44  1  0  0  0  0
  8 42  1  0  0  0  0
  8 45  1  0  0  0  0
  9 43  1  0  0  0  0
  9 46  1  0  0  0  0
 10 16  1  0  0  0  0
 10 17  1  0  0  0  0
 10 22  1  0  0  0  0
 11 21  1  0  0  0  0
 11 27  1  0  0  0  0
 11 50  1  0  0  0  0
 12 13  1  0  0  0  0
 12 14  1  0  0  0  0
 12 15  1  0  0  0  0
 12 47  1  6  0  0  0
 13 17  1  0  0  0  0
 13 18  1  0  0  0  0
 13 48  1  6  0  0  0
 14 16  1  0  0  0  0
 14 51  1  0  0  0  0
 14 52  1  0  0  0  0
 15 19  1  0  0  0  0
 15 25  1  0  0  0  0
 15 53  1  6  0  0  0
 16 21  1  0  0  0  0
 16 49  1  1  0  0  0
 17 54  1  0  0  0  0
 17 55  1  0  0  0  0
 18 20  1  0  0  0  0
 18 56  1  0  0  0  0
 18 57  1  0  0  0  0
 19  1  1  0  0  0  0
 19 20  1  0  0  0  0
 19 58  1  1  0  0  0
 20  2  1  0  0  0  0
 20 59  1  6  0  0  0
 21 23  2  0  0  0  0
 22 24  1  0  0  0  0
 22 60  1  0  0  0  0
 22 61  1  0  0  0  0
 23 24  1  0  0  0  0
 23 26  1  0  0  0  0
 24 62  1  0  0  0  0
 24 63  1  0  0  0  0
 26 27  2  0  0  0  0
 26 29  1  0  0  0  0
 27 31  1  0  0  0  0
 28 64  1  0  0  0  0
 28 65  1  0  0  0  0
 28 66  1  0  0  0  0
 29 32  2  0  0  0  0
 29 67  1  0  0  0  0
 30 35  1  0  0  0  0
 31 33  2  0  0  0  0
 31 68  1  0  0  0  0
 32 33  1  0  0  0  0
 32 69  1  0  0  0  0
 34 70  1  0  0  0  0
 34 71  1  0  0  0  0
 34 72  1  0  0  0  0
 35 36  2  3  0  0  0
 35 73  1  0  0  0  0
 36 38  1  0  0  0  0
 36 74  1  0  0  0  0
 37 75  1  0  0  0  0
 37 76  1  0  0  0  0
 37 77  1  0  0  0  0
 38 39  2  0  0  0  0
 38 40  1  0  0  0  0
 39 42  1  0  0  0  0
 39 78  1  0  0  0  0
 40 41  2  0  0  0  0
 40 79  1  0  0  0  0
 41 43  1  0  0  0  0
 42 43  2  0  0  0  0
 44 80  1  0  0  0  0
 44 81  1  0  0  0  0
 44 82  1  0  0  0  0
 45 83  1  0  0  0  0
 45 84  1  0  0  0  0
 45 85  1  0  0  0  0
 46 86  1  0  0  0  0
 46 87  1  0  0  0  0
 46 88  1  0  0  0  0
M  END
>  <DRUGBANK_ID>
DB01180

>  <SECONDARY_ACCESSION_NUMBERS>
APRD00112

>  <COMMON_NAME>
Rescinnamine

>  <CAS_NUMBER>
24815-24-5

>  <UNII>
Q6W1F7DJ2D

>  <SYNONYMS>
3,4,5-Trimethoxycinnamoyl methyl reserpate; Rescinnamine; Trimethoxy cinnamoyl reserpate de methyl

$$$$
