
 OpenBabel10282417072D

 28 30  0  0  1  0  0  0  0  0999 V2000
    3.2789    2.0625    0.0000 N   0  0  0  0  0  0  0  0  0  0  0  0
    3.2789    1.2375    0.0000 C   0  0  0  0  0  0  0  0  0  0  0  0
    3.9934    0.8250    0.0000 N   0  0  0  0  0  0  0  0  0  0  0  0
    3.9934    0.0000    0.0000 C   0  0  0  0  0  0  0  0  0  0  0  0
    3.2789   -0.4125    0.0000 N   0  0  0  0  0  0  0  0  0  0  0  0
    2.5645    0.0000    0.0000 C   0  0  0  0  0  0  0  0  0  0  0  0
    2.5645    0.8250    0.0000 C   0  0  0  0  0  0  0  0  0  0  0  0
    1.7798    1.0799    0.0000 N   0  0  0  0  0  0  0  0  0  0  0  0
    1.2949    0.4125    0.0000 C   0  0  0  0  0  0  0  0  0  0  0  0
    1.7798   -0.2549    0.0000 N   0  0  0  0  0  0  0  0  0  0  0  0
    1.5249   -1.0396    0.0000 C   0  0  2  0  0  0  0  0  0  0  0  0
    2.0098   -1.7070    0.0000 C   0  0  0  0  0  0  0  0  0  0  0  0
    1.5249   -2.3744    0.0000 C   0  0  0  0  0  0  0  0  0  0  0  0
    0.7403   -2.1195    0.0000 C   0  0  2  0  0  0  0  0  0  0  0  0
    0.0728   -2.6044    0.0000 O   0  0  0  0  0  0  0  0  0  0  0  0
    0.7403   -1.2945    0.0000 C   0  0  1  0  0  0  0  0  0  0  0  0
    0.0728   -0.8096    0.0000 O   0  0  0  0  0  0  0  0  0  0  0  0
    4.1315    2.5548    0.0000 H   0  0  0  0  0  0  0  0  0  0  0  0
    2.4263    2.5548    0.0000 H   0  0  0  0  0  0  0  0  0  0  0  0
    4.8871   -0.5160    0.0000 H   0  0  0  0  0  0  0  0  0  0  0  0
    0.2629    0.4125    0.0000 H   0  0  0  0  0  0  0  0  0  0  0  0
    2.5817   -0.8722    0.0000 H   0  0  0  0  0  0  0  0  0  0  0  0
    3.0418   -1.7070    0.0000 H   0  0  0  0  0  0  0  0  0  0  0  0
    1.8438   -3.3559    0.0000 H   0  0  0  0  0  0  0  0  0  0  0  0
    0.9077   -3.1763    0.0000 H   0  0  0  0  0  0  0  0  0  0  0  0
   -0.8133   -2.2098    0.0000 H   0  0  0  0  0  0  0  0  0  0  0  0
   -0.2131   -1.7803    0.0000 H   0  0  0  0  0  0  0  0  0  0  0  0
    0.1741    0.1551    0.0000 H   0  0  0  0  0  0  0  0  0  0  0  0
  1  2  1  0  0  0  0
  1 18  1  0  0  0  0
  1 19  1  0  0  0  0
  2  3  2  0  0  0  0
  2  7  1  0  0  0  0
  3  4  1  0  0  0  0
  4  5  2  0  0  0  0
  4 20  1  0  0  0  0
  5  6  1  0  0  0  0
  6  7  2  0  0  0  0
  6 10  1  0  0  0  0
  7  8  1  0  0  0  0
  8  9  2  0  0  0  0
  9 10  1  0  0  0  0
  9 21  1  0  0  0  0
 11 10  1  0  0  0  0
 11 12  1  0  0  0  0
 11 16  1  0  0  0  0
 11 22  1  1  0  0  0
 12 13  2  0  0  0  0
 12 23  1  0  0  0  0
 13 14  1  0  0  0  0
 13 24  1  0  0  0  0
 14 15  1  0  0  0  0
 14 16  1  0  0  0  0
 14 25  1  1  0  0  0
 15 26  1  0  0  0  0
 16 17  1  0  0  0  0
 16 27  1  6  0  0  0
 17 28  1  0  0  0  0
M  END
>  <DRUGBANK_ID>
DB03216

>  <SECONDARY_ACCESSION_NUMBERS>
EXPT00427

>  <COMMON_NAME>
(1'R,2'S)-9-(2-Hydroxy-3'-Keto-Cyclopenten-1-yl)Adenine

$$$$
