
 OpenBabel10282417072D

 53 55  0  0  1  0  0  0  0  0999 V2000
    7.6955   -5.8135    0.0000 C   0  0  1  0  0  0  0  0  0  0  0  0
    8.4043   -6.2242    0.0000 C   0  0  0  0  0  0  0  0  0  0  0  0
    6.9797   -6.2242    0.0000 C   0  0  2  0  0  0  0  0  0  0  0  0
    7.6989   -4.9925    0.0000 C   0  0  0  0  0  0  0  0  0  0  0  0
    8.4043   -7.0523    0.0000 C   0  0  0  0  0  0  0  0  0  0  0  0
    9.1200   -5.8135    0.0000 C   0  0  0  0  0  0  0  0  0  0  0  0
    6.9797   -7.0523    0.0000 C   0  0  0  0  0  0  0  0  0  0  0  0
    6.2674   -5.8101    0.0000 C   0  0  0  0  0  0  0  0  0  0  0  0
    6.9833   -4.5786    0.0000 C   0  0  0  0  0  0  0  0  0  0  0  0
    7.6955   -7.4627    0.0000 O   0  0  0  0  0  0  0  0  0  0  0  0
    9.1200   -7.4627    0.0000 C   0  0  0  0  0  0  0  0  0  0  0  0
    9.8289   -6.2242    0.0000 C   0  0  0  0  0  0  0  0  0  0  0  0
    9.1200   -4.9891    0.0000 O   0  0  0  0  0  0  0  0  0  0  0  0
    6.2674   -4.9891    0.0000 C   0  0  0  0  0  0  0  0  0  0  0  0
    6.9867   -3.7575    0.0000 C   0  0  0  0  0  0  0  0  0  0  0  0
    9.8289   -7.0523    0.0000 C   0  0  0  0  0  0  0  0  0  0  0  0
   10.5411   -7.4627    0.0000 C   0  0  0  0  0  0  0  0  0  0  0  0
   11.2569   -7.0487    0.0000 C   0  0  0  0  0  0  0  0  0  0  0  0
   11.9656   -7.4593    0.0000 C   0  0  0  0  0  0  0  0  0  0  0  0
   12.6814   -7.0487    0.0000 C   0  0  0  0  0  0  0  0  0  0  0  0
   13.3901   -7.4593    0.0000 C   0  0  0  0  0  0  0  0  0  0  0  0
    8.3657   -5.3925    0.0000 H   0  0  0  0  0  0  0  0  0  0  0  0
    6.1587   -6.7681    0.0000 H   0  0  0  0  0  0  0  0  0  0  0  0
    6.9797   -7.8773    0.0000 C   0  0  0  0  0  0  0  0  0  0  0  0
    6.2652   -7.4648    0.0000 C   0  0  0  0  0  0  0  0  0  0  0  0
    8.5939   -4.4787    0.0000 H   0  0  0  0  0  0  0  0  0  0  0  0
    5.3400   -6.3437    0.0000 H   0  0  0  0  0  0  0  0  0  0  0  0
    5.3412   -5.2744    0.0000 H   0  0  0  0  0  0  0  0  0  0  0  0
    9.1221   -8.4947    0.0000 H   0  0  0  0  0  0  0  0  0  0  0  0
   10.7230   -5.7089    0.0000 H   0  0  0  0  0  0  0  0  0  0  0  0
    9.9315   -4.5206    0.0000 H   0  0  0  0  0  0  0  0  0  0  0  0
    5.3415   -4.4527    0.0000 H   0  0  0  0  0  0  0  0  0  0  0  0
    6.2698   -3.9191    0.0000 H   0  0  0  0  0  0  0  0  0  0  0  0
    7.9156   -3.2263    0.0000 H   0  0  0  0  0  0  0  0  0  0  0  0
    6.0623   -3.2187    0.0000 H   0  0  0  0  0  0  0  0  0  0  0  0
    6.9911   -2.6875    0.0000 H   0  0  0  0  0  0  0  0  0  0  0  0
   10.5420   -8.5327    0.0000 H   0  0  0  0  0  0  0  0  0  0  0  0
   11.4682   -7.9970    0.0000 H   0  0  0  0  0  0  0  0  0  0  0  0
   11.2573   -5.9787    0.0000 H   0  0  0  0  0  0  0  0  0  0  0  0
   12.1841   -6.5146    0.0000 H   0  0  0  0  0  0  0  0  0  0  0  0
   11.9633   -8.5293    0.0000 H   0  0  0  0  0  0  0  0  0  0  0  0
   12.8909   -7.9966    0.0000 H   0  0  0  0  0  0  0  0  0  0  0  0
   12.6837   -5.9787    0.0000 H   0  0  0  0  0  0  0  0  0  0  0  0
   13.6090   -6.5154    0.0000 H   0  0  0  0  0  0  0  0  0  0  0  0
   13.3885   -8.5293    0.0000 H   0  0  0  0  0  0  0  0  0  0  0  0
   14.3176   -6.9257    0.0000 H   0  0  0  0  0  0  0  0  0  0  0  0
   14.3159   -7.9957    0.0000 H   0  0  0  0  0  0  0  0  0  0  0  0
    6.0531   -8.4123    0.0000 H   0  0  0  0  0  0  0  0  0  0  0  0
    7.9063   -8.4123    0.0000 H   0  0  0  0  0  0  0  0  0  0  0  0
    6.9797   -8.9473    0.0000 H   0  0  0  0  0  0  0  0  0  0  0  0
    5.3386   -6.9298    0.0000 H   0  0  0  0  0  0  0  0  0  0  0  0
    6.2652   -8.5348    0.0000 H   0  0  0  0  0  0  0  0  0  0  0  0
    5.3385   -7.9998    0.0000 H   0  0  0  0  0  0  0  0  0  0  0  0
  1  2  1  0  0  0  0
  1  3  1  0  0  0  0
  1  4  1  0  0  0  0
  1 22  1  6  0  0  0
  2  5  2  0  0  0  0
  2  6  1  0  0  0  0
  3  7  1  0  0  0  0
  3  8  1  0  0  0  0
  3 23  1  1  0  0  0
  4  9  2  0  0  0  0
  4 26  1  0  0  0  0
  5 10  1  0  0  0  0
  5 11  1  0  0  0  0
  6 12  2  0  0  0  0
  6 13  1  0  0  0  0
  7 10  1  0  0  0  0
  7 24  1  0  0  0  0
  7 25  1  0  0  0  0
  8 14  1  0  0  0  0
  8 27  1  0  0  0  0
  8 28  1  0  0  0  0
  9 15  1  0  0  0  0
  9 14  1  0  0  0  0
 11 16  2  0  0  0  0
 11 29  1  0  0  0  0
 12 16  1  0  0  0  0
 12 30  1  0  0  0  0
 13 31  1  0  0  0  0
 14 32  1  0  0  0  0
 14 33  1  0  0  0  0
 15 34  1  0  0  0  0
 15 35  1  0  0  0  0
 15 36  1  0  0  0  0
 16 17  1  0  0  0  0
 17 18  1  0  0  0  0
 17 37  1  0  0  0  0
 17 38  1  0  0  0  0
 18 19  1  0  0  0  0
 18 39  1  0  0  0  0
 18 40  1  0  0  0  0
 19 20  1  0  0  0  0
 19 41  1  0  0  0  0
 19 42  1  0  0  0  0
 20 21  1  0  0  0  0
 20 43  1  0  0  0  0
 20 44  1  0  0  0  0
 21 45  1  0  0  0  0
 21 46  1  0  0  0  0
 21 47  1  0  0  0  0
 24 48  1  0  0  0  0
 24 49  1  0  0  0  0
 24 50  1  0  0  0  0
 25 51  1  0  0  0  0
 25 52  1  0  0  0  0
 25 53  1  0  0  0  0
M  END
>  <DRUGBANK_ID>
DB00470

>  <SECONDARY_ACCESSION_NUMBERS>
APRD00571

>  <COMMON_NAME>
Dronabinol

>  <CAS_NUMBER>
1972-08-3

>  <UNII>
7J8897W37S

>  <SYNONYMS>
.DELTA.1-THC; (-)-delta9-trans-Tetrahydrocannabinol; 1-trans-delta-9-Tetrahydrocannabinol; 3-Pentyl-6,6,9-trimethyl-6a,7,8,10a-tetrahydro-6H-dibenzo(b,d)pyran-1-ol; 6,6,9-Trimethyl-3-pentyl-6a,7,8,10a-tetrahydro-6H-benzo[c]chromen-1-ol; delta-9-tetrahydrocannabinol; delta-9-THC; delta(1)-tetrahydrocannabinol; delta(9)-THC; delta9-tetrahydrocannabinol; Dronabinol; Dronabinolum; Tetrahydrocannabinol; THC; Î”9-tetrahydrocannabinol

$$$$
