
 OpenBabel10282417072D

102106  0  0  0  0  0  0  0  0999 V2000
   -1.4561    0.4125    0.0000 O   0  0  0  0  0  0  0  0  0  0  0  0
   -0.7417   -0.8250    0.0000 O   0  0  0  0  0  0  0  0  0  0  0  0
   -3.5995    0.8250    0.0000 O   0  0  0  0  0  0  0  0  0  0  0  0
   -4.3140   -0.4125    0.0000 O   0  0  0  0  0  0  0  0  0  0  0  0
    1.4017   -0.4125    0.0000 O   0  0  0  0  0  0  0  0  0  0  0  0
   -3.5995   -0.8250    0.0000 O   0  0  0  0  0  0  0  0  0  0  0  0
   -0.7417    0.8250    0.0000 O   0  0  0  0  0  0  0  0  0  0  0  0
    2.1161    0.8250    0.0000 O   0  0  0  0  0  0  0  0  0  0  0  0
   -6.4574    0.8250    0.0000 O   0  0  0  0  0  0  0  0  0  0  0  0
   -6.4574   -0.8250    0.0000 O   0  0  0  0  0  0  0  0  0  0  0  0
   -2.8850    2.0625    0.0000 O   0  0  0  0  0  0  0  0  0  0  0  0
    1.4017   -2.0625    0.0000 O   0  0  0  0  0  0  0  0  0  0  0  0
   -4.3140   -2.0625    0.0000 O   0  0  0  0  0  0  0  0  0  0  0  0
   -0.7417   -1.6500    0.0000 O   0  0  0  0  0  0  0  0  0  0  0  0
   -4.3140    2.8875    0.0000 O   0  0  0  0  0  0  0  0  0  0  0  0
    2.1161    1.6500    0.0000 O   0  0  0  0  0  0  0  0  0  0  0  0
    4.9971    0.8536    0.0000 O   0  0  0  0  0  0  0  0  0  0  0  0
    6.4574    0.8448    0.0000 O   0  0  0  0  0  0  0  0  0  0  0  0
   -2.1706   -1.6500    0.0000 N   0  0  0  0  0  0  0  0  0  0  0  0
   -5.0284    1.6500    0.0000 N   0  0  0  0  0  0  0  0  0  0  0  0
    0.6872    1.6500    0.0000 N   0  0  0  0  0  0  0  0  0  0  0  0
   -2.8850    0.4125    0.0000 C   0  0  1  0  0  0  0  0  0  0  0  0
   -2.1706   -0.8250    0.0000 C   0  0  2  0  0  0  0  0  0  0  0  0
   -2.8850   -0.4125    0.0000 C   0  0  1  0  0  0  0  0  0  0  0  0
   -1.4561   -0.4125    0.0000 C   0  0  1  0  0  0  0  0  0  0  0  0
   -2.1706    0.8250    0.0000 C   0  0  1  0  0  0  0  0  0  0  0  0
   -0.0271   -0.4125    0.0000 C   0  0  1  0  0  0  0  0  0  0  0  0
   -0.0271    0.4125    0.0000 C   0  0  1  0  0  0  0  0  0  0  0  0
   -4.3140    0.4125    0.0000 C   0  0  2  0  0  0  0  0  0  0  0  0
   -5.0284    0.8250    0.0000 C   0  0  1  0  0  0  0  0  0  0  0  0
    0.6872   -0.8250    0.0000 C   0  0  1  0  0  0  0  0  0  0  0  0
    0.6872    0.8250    0.0000 C   0  0  2  0  0  0  0  0  0  0  0  0
   -5.7429    0.4125    0.0000 C   0  0  2  0  0  0  0  0  0  0  0  0
   -5.7429   -0.4125    0.0000 C   0  0  1  0  0  0  0  0  0  0  0  0
    1.4017    0.4125    0.0000 C   0  0  2  0  0  0  0  0  0  0  0  0
   -5.0284   -0.8250    0.0000 C   0  0  1  0  0  0  0  0  0  0  0  0
   -2.1706    1.6500    0.0000 C   0  0  0  0  0  0  0  0  0  0  0  0
    0.6872   -1.6500    0.0000 C   0  0  0  0  0  0  0  0  0  0  0  0
   -5.0284   -1.6500    0.0000 C   0  0  0  0  0  0  0  0  0  0  0  0
   -1.4561   -2.0625    0.0000 C   0  0  0  0  0  0  0  0  0  0  0  0
   -4.3140    2.0625    0.0000 C   0  0  0  0  0  0  0  0  0  0  0  0
    1.4017    2.0625    0.0000 C   0  0  0  0  0  0  0  0  0  0  0  0
   -1.4561   -2.8875    0.0000 C   0  0  0  0  0  0  0  0  0  0  0  0
    2.8306    0.4125    0.0000 C   0  0  0  0  0  0  0  0  0  0  0  0
   -3.5995    1.6500    0.0000 C   0  0  0  0  0  0  0  0  0  0  0  0
    1.4017    2.8875    0.0000 C   0  0  0  0  0  0  0  0  0  0  0  0
    3.5451    0.8250    0.0000 C   0  0  0  0  0  0  0  0  0  0  0  0
    2.8306   -0.4125    0.0000 C   0  0  0  0  0  0  0  0  0  0  0  0
    4.2595    0.4125    0.0000 C   0  0  0  0  0  0  0  0  0  0  0  0
    3.5451   -0.8250    0.0000 C   0  0  0  0  0  0  0  0  0  0  0  0
    4.2595   -0.4125    0.0000 C   0  0  0  0  0  0  0  0  0  0  0  0
    4.9971   -0.8536    0.0000 C   0  0  0  0  0  0  0  0  0  0  0  0
    5.7445   -0.4296    0.0000 C   0  0  0  0  0  0  0  0  0  0  0  0
    5.7445    0.4296    0.0000 C   0  0  0  0  0  0  0  0  0  0  0  0
    4.9875   -1.6785    0.0000 C   0  0  0  0  0  0  0  0  0  0  0  0
   -2.6135   -1.9057    0.0000 H   0  0  0  0  0  0  0  0  0  0  0  0
   -5.4714    1.9057    0.0000 H   0  0  0  0  0  0  0  0  0  0  0  0
    0.2443    1.9057    0.0000 H   0  0  0  0  0  0  0  0  0  0  0  0
   -4.4395   -0.3400    0.0000 H   0  0  0  0  0  0  0  0  0  0  0  0
   -0.7418    1.7950    0.0000 H   0  0  0  0  0  0  0  0  0  0  0  0
   -6.4574    1.7950    0.0000 H   0  0  0  0  0  0  0  0  0  0  0  0
   -7.2974   -0.3400    0.0000 H   0  0  0  0  0  0  0  0  0  0  0  0
   -2.8850    3.0325    0.0000 H   0  0  0  0  0  0  0  0  0  0  0  0
    1.4017   -3.0325    0.0000 H   0  0  0  0  0  0  0  0  0  0  0  0
   -4.3140   -3.0325    0.0000 H   0  0  0  0  0  0  0  0  0  0  0  0
   -3.8116   -0.1225    0.0000 H   0  0  0  0  0  0  0  0  0  0  0  0
   -3.0973   -1.3600    0.0000 H   0  0  0  0  0  0  0  0  0  0  0  0
   -3.8116    0.1225    0.0000 H   0  0  0  0  0  0  0  0  0  0  0  0
   -0.5294    0.1225    0.0000 H   0  0  0  0  0  0  0  0  0  0  0  0
   -1.2440    1.3600    0.0000 H   0  0  0  0  0  0  0  0  0  0  0  0
   -0.9537    0.1225    0.0000 H   0  0  0  0  0  0  0  0  0  0  0  0
   -0.9537   -0.1225    0.0000 H   0  0  0  0  0  0  0  0  0  0  0  0
   -3.3874   -0.1225    0.0000 H   0  0  0  0  0  0  0  0  0  0  0  0
   -4.1017    1.3600    0.0000 H   0  0  0  0  0  0  0  0  0  0  0  0
    1.6138   -1.3600    0.0000 H   0  0  0  0  0  0  0  0  0  0  0  0
   -0.2395    1.3600    0.0000 H   0  0  0  0  0  0  0  0  0  0  0  0
   -5.7429    1.4825    0.0000 H   0  0  0  0  0  0  0  0  0  0  0  0
   -6.6695    0.1225    0.0000 H   0  0  0  0  0  0  0  0  0  0  0  0
    2.3284   -0.1225    0.0000 H   0  0  0  0  0  0  0  0  0  0  0  0
   -4.1017   -1.3600    0.0000 H   0  0  0  0  0  0  0  0  0  0  0  0
   -1.2439    2.1850    0.0000 H   0  0  0  0  0  0  0  0  0  0  0  0
   -1.2440    1.1150    0.0000 H   0  0  0  0  0  0  0  0  0  0  0  0
   -0.2394   -2.1850    0.0000 H   0  0  0  0  0  0  0  0  0  0  0  0
   -0.2394   -1.1150    0.0000 H   0  0  0  0  0  0  0  0  0  0  0  0
   -5.9551   -2.1850    0.0000 H   0  0  0  0  0  0  0  0  0  0  0  0
   -5.9550   -1.1150    0.0000 H   0  0  0  0  0  0  0  0  0  0  0  0
   -2.3827   -3.4225    0.0000 H   0  0  0  0  0  0  0  0  0  0  0  0
   -0.5295   -3.4225    0.0000 H   0  0  0  0  0  0  0  0  0  0  0  0
   -1.4561   -3.9575    0.0000 H   0  0  0  0  0  0  0  0  0  0  0  0
   -3.5995    0.5800    0.0000 H   0  0  0  0  0  0  0  0  0  0  0  0
   -2.6729    2.1850    0.0000 H   0  0  0  0  0  0  0  0  0  0  0  0
   -2.6728    1.1150    0.0000 H   0  0  0  0  0  0  0  0  0  0  0  0
    2.3283    3.4225    0.0000 H   0  0  0  0  0  0  0  0  0  0  0  0
    0.4751    3.4225    0.0000 H   0  0  0  0  0  0  0  0  0  0  0  0
    1.4017    3.9575    0.0000 H   0  0  0  0  0  0  0  0  0  0  0  0
    3.5451    1.8570    0.0000 H   0  0  0  0  0  0  0  0  0  0  0  0
    1.9369   -0.9285    0.0000 H   0  0  0  0  0  0  0  0  0  0  0  0
    3.5451   -1.8570    0.0000 H   0  0  0  0  0  0  0  0  0  0  0  0
    6.6363   -0.9490    0.0000 H   0  0  0  0  0  0  0  0  0  0  0  0
    4.0547   -2.2027    0.0000 H   0  0  0  0  0  0  0  0  0  0  0  0
    5.9079   -2.2242    0.0000 H   0  0  0  0  0  0  0  0  0  0  0  0
    4.9750   -2.7484    0.0000 H   0  0  0  0  0  0  0  0  0  0  0  0
  1 25  1  0  0  0  0
  1 26  1  0  0  0  0
  4 29  1  0  0  0  0
  4 36  1  0  0  0  0
  5 31  1  0  0  0  0
  5 35  1  0  0  0  0
  6 59  1  0  0  0  0
  7 60  1  0  0  0  0
  8 44  1  0  0  0  0
  9 61  1  0  0  0  0
 10 62  1  0  0  0  0
 11 37  1  0  0  0  0
 11 63  1  0  0  0  0
 12 38  1  0  0  0  0
 12 64  1  0  0  0  0
 13 39  1  0  0  0  0
 13 65  1  0  0  0  0
 14 40  2  0  0  0  0
 15 41  2  0  0  0  0
 16 42  2  0  0  0  0
 17 49  1  0  0  0  0
 17 54  1  0  0  0  0
 18 54  2  0  0  0  0
 19 40  1  0  0  0  0
 19 56  1  0  0  0  0
 20 41  1  0  0  0  0
 20 57  1  0  0  0  0
 21 42  1  0  0  0  0
 21 58  1  0  0  0  0
 22  3  1  0  0  0  0
 22 24  1  0  0  0  0
 22 26  1  0  0  0  0
 22 66  1  1  0  0  0
 23 19  1  0  0  0  0
 23 24  1  0  0  0  0
 23 25  1  0  0  0  0
 23 67  1  1  0  0  0
 24  6  1  0  0  0  0
 24 68  1  6  0  0  0
 25  2  1  0  0  0  0
 25 69  1  6  0  0  0
 26 37  1  0  0  0  0
 26 70  1  6  0  0  0
 27  2  1  0  0  0  0
 27 28  1  0  0  0  0
 27 31  1  0  0  0  0
 27 71  1  6  0  0  0
 28  7  1  0  0  0  0
 28 32  1  0  0  0  0
 28 72  1  1  0  0  0
 29  3  1  0  0  0  0
 29 30  1  0  0  0  0
 29 73  1  1  0  0  0
 30 20  1  0  0  0  0
 30 33  1  0  0  0  0
 30 74  1  6  0  0  0
 31 38  1  0  0  0  0
 31 75  1  1  0  0  0
 32 21  1  0  0  0  0
 32 35  1  0  0  0  0
 32 76  1  6  0  0  0
 33  9  1  0  0  0  0
 33 34  1  0  0  0  0
 33 77  1  1  0  0  0
 34 10  1  0  0  0  0
 34 36  1  0  0  0  0
 34 78  1  6  0  0  0
 35  8  1  0  0  0  0
 35 79  1  6  0  0  0
 36 39  1  0  0  0  0
 36 80  1  1  0  0  0
 37 81  1  0  0  0  0
 37 82  1  0  0  0  0
 38 83  1  0  0  0  0
 38 84  1  0  0  0  0
 39 85  1  0  0  0  0
 39 86  1  0  0  0  0
 40 43  1  0  0  0  0
 41 45  1  0  0  0  0
 42 46  1  0  0  0  0
 43 87  1  0  0  0  0
 43 88  1  0  0  0  0
 43 89  1  0  0  0  0
 44 47  2  0  0  0  0
 44 48  1  0  0  0  0
 45 90  1  0  0  0  0
 45 91  1  0  0  0  0
 45 92  1  0  0  0  0
 46 93  1  0  0  0  0
 46 94  1  0  0  0  0
 46 95  1  0  0  0  0
 47 49  1  0  0  0  0
 47 96  1  0  0  0  0
 48 50  2  0  0  0  0
 48 97  1  0  0  0  0
 49 51  2  0  0  0  0
 50 51  1  0  0  0  0
 50 98  1  0  0  0  0
 51 52  1  0  0  0  0
 52 53  2  0  0  0  0
 52 55  1  0  0  0  0
 53 54  1  0  0  0  0
 53 99  1  0  0  0  0
 55100  1  0  0  0  0
 55101  1  0  0  0  0
 55102  1  0  0  0  0
M  END
>  <DRUGBANK_ID>
DB04268

>  <SECONDARY_ACCESSION_NUMBERS>
EXPT03186

>  <COMMON_NAME>
Methylumbelliferyl chitotriose

>  <SYNONYMS>
Methyl-umbellifertl-N-acetyl-chitotriose

$$$$
