
 OpenBabel10282417072D

 62 67  0  0  0  0  0  0  0  0999 V2000
    2.7269    5.5761    0.0000 C   0  0  0  0  0  0  0  0  0  0  0  0
    1.9423    5.3212    0.0000 C   0  0  0  0  0  0  0  0  0  0  0  0
    1.3292    5.8732    0.0000 C   0  0  0  0  0  0  0  0  0  0  0  0
    1.7708    4.5142    0.0000 C   0  0  0  0  0  0  0  0  0  0  0  0
    0.9861    4.2593    0.0000 C   0  0  0  0  0  0  0  0  0  0  0  0
    0.3730    4.8113    0.0000 O   0  0  0  0  0  0  0  0  0  0  0  0
    0.8146    3.4523    0.0000 N   0  0  0  0  0  0  0  0  0  0  0  0
    0.0300    3.1974    0.0000 C   0  0  0  0  0  0  0  0  0  0  0  0
   -0.1415    2.3904    0.0000 C   0  0  0  0  0  0  0  0  0  0  0  0
   -0.9262    2.1355    0.0000 C   0  0  0  0  0  0  0  0  0  0  0  0
   -1.5393    2.6875    0.0000 C   0  0  0  0  0  0  0  0  0  0  0  0
   -1.3677    3.4945    0.0000 N   0  0  0  0  0  0  0  0  0  0  0  0
   -0.5831    3.7494    0.0000 C   0  0  0  0  0  0  0  0  0  0  0  0
   -1.0977    1.3285    0.0000 C   0  0  0  0  0  0  0  0  0  0  0  0
   -0.4846    0.7765    0.0000 C   0  0  0  0  0  0  0  0  0  0  0  0
   -0.6561   -0.0305    0.0000 C   0  0  0  0  0  0  0  0  0  0  0  0
   -1.4407   -0.2854    0.0000 C   0  0  0  0  0  0  0  0  0  0  0  0
   -1.4407   -1.1104    0.0000 N   0  0  0  0  0  0  0  0  0  0  0  0
   -0.6561   -1.3654    0.0000 N   0  0  0  0  0  0  0  0  0  0  0  0
   -0.1712   -0.6979    0.0000 C   0  0  0  0  0  0  0  0  0  0  0  0
    0.6538   -0.6979    0.0000 C   0  0  0  0  0  0  0  0  0  0  0  0
    1.1387   -0.0305    0.0000 N   0  0  0  0  0  0  0  0  0  0  0  0
    1.9233   -0.2854    0.0000 C   0  0  0  0  0  0  0  0  0  0  0  0
    2.6378    0.1271    0.0000 C   0  0  0  0  0  0  0  0  0  0  0  0
    3.3523   -0.2854    0.0000 C   0  0  0  0  0  0  0  0  0  0  0  0
    3.3523   -1.1104    0.0000 N   0  0  0  0  0  0  0  0  0  0  0  0
    2.6378   -1.5229    0.0000 C   0  0  0  0  0  0  0  0  0  0  0  0
    1.9233   -1.1104    0.0000 C   0  0  0  0  0  0  0  0  0  0  0  0
    1.1387   -1.3654    0.0000 N   0  0  0  0  0  0  0  0  0  0  0  0
    2.6378    0.9521    0.0000 C   0  0  0  0  0  0  0  0  0  0  0  0
    1.9233    1.3646    0.0000 C   0  0  0  0  0  0  0  0  0  0  0  0
    1.9233    2.1896    0.0000 C   0  0  0  0  0  0  0  0  0  0  0  0
    2.6378    2.6021    0.0000 C   0  0  0  0  0  0  0  0  0  0  0  0
    3.3523    2.1896    0.0000 C   0  0  0  0  0  0  0  0  0  0  0  0
    4.0668    2.6021    0.0000 F   0  0  0  0  0  0  0  0  0  0  0  0
    3.3523    1.3646    0.0000 C   0  0  0  0  0  0  0  0  0  0  0  0
   -2.0538    0.2666    0.0000 C   0  0  0  0  0  0  0  0  0  0  0  0
   -1.8823    1.0736    0.0000 C   0  0  0  0  0  0  0  0  0  0  0  0
    3.5220    4.8601    0.0000 H   0  0  0  0  0  0  0  0  0  0  0  0
    2.9494    6.6227    0.0000 H   0  0  0  0  0  0  0  0  0  0  0  0
    3.7445    5.9067    0.0000 H   0  0  0  0  0  0  0  0  0  0  0  0
    0.9247    4.9905    0.0000 H   0  0  0  0  0  0  0  0  0  0  0  0
    1.5516    6.9198    0.0000 H   0  0  0  0  0  0  0  0  0  0  0  0
    0.3116    5.5425    0.0000 H   0  0  0  0  0  0  0  0  0  0  0  0
    0.5340    6.5891    0.0000 H   0  0  0  0  0  0  0  0  0  0  0  0
    2.5660    3.7982    0.0000 H   0  0  0  0  0  0  0  0  0  0  0  0
    1.5483    3.4676    0.0000 H   0  0  0  0  0  0  0  0  0  0  0  0
    1.5462    2.7935    0.0000 H   0  0  0  0  0  0  0  0  0  0  0  0
    0.6254    1.6998    0.0000 H   0  0  0  0  0  0  0  0  0  0  0  0
   -2.5208    2.3686    0.0000 H   0  0  0  0  0  0  0  0  0  0  0  0
   -0.3685    4.7588    0.0000 H   0  0  0  0  0  0  0  0  0  0  0  0
    0.4969    1.0954    0.0000 H   0  0  0  0  0  0  0  0  0  0  0  0
   -2.2372   -1.6890    0.0000 H   0  0  0  0  0  0  0  0  0  0  0  0
    4.2460    0.2306    0.0000 H   0  0  0  0  0  0  0  0  0  0  0  0
    2.6378   -2.5549    0.0000 H   0  0  0  0  0  0  0  0  0  0  0  0
    0.8345   -2.3017    0.0000 H   0  0  0  0  0  0  0  0  0  0  0  0
    1.0296    0.8486    0.0000 H   0  0  0  0  0  0  0  0  0  0  0  0
    1.0296    2.7056    0.0000 H   0  0  0  0  0  0  0  0  0  0  0  0
    2.6378    3.6341    0.0000 H   0  0  0  0  0  0  0  0  0  0  0  0
    4.2460    0.8486    0.0000 H   0  0  0  0  0  0  0  0  0  0  0  0
   -3.0353   -0.0523    0.0000 H   0  0  0  0  0  0  0  0  0  0  0  0
   -2.6492    1.7641    0.0000 H   0  0  0  0  0  0  0  0  0  0  0  0
  1  2  1  0  0  0  0
  1 39  1  0  0  0  0
  1 40  1  0  0  0  0
  1 41  1  0  0  0  0
  2  3  1  0  0  0  0
  2  4  1  0  0  0  0
  2 42  1  0  0  0  0
  3 43  1  0  0  0  0
  3 44  1  0  0  0  0
  3 45  1  0  0  0  0
  4  5  1  0  0  0  0
  4 46  1  0  0  0  0
  4 47  1  0  0  0  0
  5  6  2  0  0  0  0
  5  7  1  0  0  0  0
  7  8  1  0  0  0  0
  7 48  1  0  0  0  0
  8  9  2  0  0  0  0
  8 13  1  0  0  0  0
  9 10  1  0  0  0  0
  9 49  1  0  0  0  0
 10 11  2  0  0  0  0
 10 14  1  0  0  0  0
 11 12  1  0  0  0  0
 11 50  1  0  0  0  0
 12 13  2  0  0  0  0
 13 51  1  0  0  0  0
 14 15  2  0  0  0  0
 14 38  1  0  0  0  0
 15 16  1  0  0  0  0
 15 52  1  0  0  0  0
 16 17  2  0  0  0  0
 16 20  1  0  0  0  0
 17 18  1  0  0  0  0
 17 37  1  0  0  0  0
 18 19  1  0  0  0  0
 18 53  1  0  0  0  0
 19 20  2  0  0  0  0
 20 21  1  0  0  0  0
 21 22  2  0  0  0  0
 21 29  1  0  0  0  0
 22 23  1  0  0  0  0
 23 24  2  0  0  0  0
 23 28  1  0  0  0  0
 24 25  1  0  0  0  0
 24 30  1  0  0  0  0
 25 26  2  0  0  0  0
 25 54  1  0  0  0  0
 26 27  1  0  0  0  0
 27 28  2  0  0  0  0
 27 55  1  0  0  0  0
 28 29  1  0  0  0  0
 29 56  1  0  0  0  0
 30 31  2  0  0  0  0
 30 36  1  0  0  0  0
 31 32  1  0  0  0  0
 31 57  1  0  0  0  0
 32 33  2  0  0  0  0
 32 58  1  0  0  0  0
 33 34  1  0  0  0  0
 33 59  1  0  0  0  0
 34 35  1  0  0  0  0
 34 36  2  0  0  0  0
 36 60  1  0  0  0  0
 37 38  2  0  0  0  0
 37 61  1  0  0  0  0
 38 62  1  0  0  0  0
M  END
>  <DRUGBANK_ID>
DB14883

>  <COMMON_NAME>
Lorecivivint

>  <CAS_NUMBER>
1467093-03-3

>  <UNII>
42EK42WHI5

>  <SYNONYMS>
Lorecivivint

$$$$
