
 OpenBabel10282417072D

 30 31  0  0  1  0  0  0  0  0999 V2000
    1.6500   -1.3578    0.0000 F   0  0  0  0  0  0  0  0  0  0  0  0
    4.3826   -1.0607    0.0000 O   0  0  0  0  0  0  0  0  0  0  0  0
    2.8177   -2.5127    0.0000 O   0  0  0  0  0  0  0  0  0  0  0  0
    5.4331   -2.4265    0.0000 O   0  0  0  0  0  0  0  0  0  0  0  0
    2.2863    0.2492    0.0000 O   0  0  0  0  0  0  0  0  0  0  0  0
    3.7152    0.2492    0.0000 N   0  0  0  0  0  0  0  0  0  0  0  0
    3.0007    1.4868    0.0000 N   0  0  0  0  0  0  0  0  0  0  0  0
    3.7152    2.7243    0.0000 N   0  0  0  0  0  0  0  0  0  0  0  0
    4.1277   -1.8453    0.0000 C   0  0  1  0  0  0  0  0  0  0  0  0
    3.3027   -1.8453    0.0000 C   0  0  2  0  0  0  0  0  0  0  0  0
    3.7152   -0.5758    0.0000 C   0  0  1  0  0  0  0  0  0  0  0  0
    3.0478   -1.0607    0.0000 C   0  0  0  0  0  0  0  0  0  0  0  0
    4.6126   -2.5127    0.0000 C   0  0  0  0  0  0  0  0  0  0  0  0
    2.2631   -0.8057    0.0000 C   0  0  0  0  0  0  0  0  0  0  0  0
    4.4296    0.6617    0.0000 C   0  0  0  0  0  0  0  0  0  0  0  0
    3.0007    0.6617    0.0000 C   0  0  0  0  0  0  0  0  0  0  0  0
    4.4296    1.4868    0.0000 C   0  0  0  0  0  0  0  0  0  0  0  0
    3.7152    1.8993    0.0000 C   0  0  0  0  0  0  0  0  0  0  0  0
    1.8530   -2.4112    0.0000 H   0  0  0  0  0  0  0  0  0  0  0  0
    6.0032   -3.2113    0.0000 H   0  0  0  0  0  0  0  0  0  0  0  0
    4.5678    3.2166    0.0000 H   0  0  0  0  0  0  0  0  0  0  0  0
    2.8626    3.2165    0.0000 H   0  0  0  0  0  0  0  0  0  0  0  0
    5.1845   -1.6779    0.0000 H   0  0  0  0  0  0  0  0  0  0  0  0
    3.7884   -2.7987    0.0000 H   0  0  0  0  0  0  0  0  0  0  0  0
    4.6686   -0.0900    0.0000 H   0  0  0  0  0  0  0  0  0  0  0  0
    4.1774   -3.4902    0.0000 H   0  0  0  0  0  0  0  0  0  0  0  0
    3.5485   -2.6245    0.0000 H   0  0  0  0  0  0  0  0  0  0  0  0
    2.0485    0.2037    0.0000 H   0  0  0  0  0  0  0  0  0  0  0  0
    5.3233    0.1457    0.0000 H   0  0  0  0  0  0  0  0  0  0  0  0
    5.3233    2.0028    0.0000 H   0  0  0  0  0  0  0  0  0  0  0  0
  1 14  1  0  0  0  0
  2  9  1  0  0  0  0
  2 11  1  0  0  0  0
  3 19  1  0  0  0  0
  4 13  1  0  0  0  0
  4 20  1  0  0  0  0
  5 16  2  0  0  0  0
  6 15  1  0  0  0  0
  6 16  1  0  0  0  0
  7 16  1  0  0  0  0
  7 18  2  0  0  0  0
  8 18  1  0  0  0  0
  8 21  1  0  0  0  0
  8 22  1  0  0  0  0
  9 10  1  0  0  0  0
  9 13  1  0  0  0  0
  9 23  1  1  0  0  0
 10  3  1  0  0  0  0
 10 12  1  0  0  0  0
 10 24  1  6  0  0  0
 11  6  1  0  0  0  0
 11 12  1  0  0  0  0
 11 25  1  1  0  0  0
 12 14  2  0  0  0  0
 13 26  1  0  0  0  0
 13 27  1  0  0  0  0
 14 28  1  0  0  0  0
 15 17  2  0  0  0  0
 15 29  1  0  0  0  0
 17 18  1  0  0  0  0
 17 30  1  0  0  0  0
M  END
>  <DRUGBANK_ID>
DB06433

>  <COMMON_NAME>
Tezacitabine

>  <CAS_NUMBER>
171176-43-5

>  <UNII>
7607Y95N9S

>  <SYNONYMS>
2'-Deoxy-2'-(fluoromethylene)cytidine; Tezacitabine

$$$$
