
 OpenBabel10282417072D

 38 39  0  0  1  0  0  0  0  0999 V2000
   -7.1729    2.4186    0.0000 C   0  0  0  0  0  0  0  0  0  0  0  0
   -6.8374    1.6649    0.0000 C   0  0  0  0  0  0  0  0  0  0  0  0
   -6.0169    1.5787    0.0000 C   0  0  0  0  0  0  0  0  0  0  0  0
   -5.6813    0.8250    0.0000 N   0  0  0  0  0  0  0  0  0  0  0  0
   -4.8608    0.7388    0.0000 C   0  0  2  0  0  0  0  0  0  0  0  0
   -4.3088    1.3519    0.0000 O   0  0  0  0  0  0  0  0  0  0  0  0
   -3.5551    1.0163    0.0000 C   0  0  2  0  0  0  0  0  0  0  0  0
   -2.8407    1.4288    0.0000 C   0  0  0  0  0  0  0  0  0  0  0  0
   -2.1262    1.0163    0.0000 O   0  0  0  0  0  0  0  0  0  0  0  0
   -1.4117    1.4288    0.0000 P   0  0  1  0  0  0  0  0  0  0  0  0
   -1.8242    2.1433    0.0000 O   0  0  0  0  0  0  0  0  0  0  0  0
   -0.9992    0.7143    0.0000 O   0  0  0  0  0  0  0  0  0  0  0  0
   -0.6972    1.8413    0.0000 O   0  0  0  0  0  0  0  0  0  0  0  0
    0.0172    1.4288    0.0000 P   0  0  0  0  0  0  0  0  0  0  0  0
    0.7317    1.0163    0.0000 O   0  0  0  0  0  0  0  0  0  0  0  0
    0.4297    2.1433    0.0000 O   0  0  0  0  0  0  0  0  0  0  0  0
   -0.3953    0.7143    0.0000 O   0  0  0  0  0  0  0  0  0  0  0  0
   -3.6414    0.1958    0.0000 C   0  0  0  0  0  0  0  0  0  0  0  0
   -4.4483    0.0243    0.0000 C   0  0  0  0  0  0  0  0  0  0  0  0
   -6.1662    0.1576    0.0000 C   0  0  0  0  0  0  0  0  0  0  0  0
   -5.8307   -0.5961    0.0000 O   0  0  0  0  0  0  0  0  0  0  0  0
   -6.9867    0.2438    0.0000 N   0  0  0  0  0  0  0  0  0  0  0  0
   -7.3223    0.9975    0.0000 C   0  0  0  0  0  0  0  0  0  0  0  0
   -8.1428    1.0837    0.0000 O   0  0  0  0  0  0  0  0  0  0  0  0
   -6.5439    3.2842    0.0000 H   0  0  0  0  0  0  0  0  0  0  0  0
   -8.2370    2.5305    0.0000 H   0  0  0  0  0  0  0  0  0  0  0  0
   -7.6080    3.3961    0.0000 H   0  0  0  0  0  0  0  0  0  0  0  0
   -5.4103    2.4136    0.0000 H   0  0  0  0  0  0  0  0  0  0  0  0
   -5.2443    1.7377    0.0000 H   0  0  0  0  0  0  0  0  0  0  0  0
   -3.6111    2.0848    0.0000 H   0  0  0  0  0  0  0  0  0  0  0  0
   -2.8407    2.4988    0.0000 H   0  0  0  0  0  0  0  0  0  0  0  0
   -1.9141    1.9638    0.0000 H   0  0  0  0  0  0  0  0  0  0  0  0
   -1.3392    2.9833    0.0000 H   0  0  0  0  0  0  0  0  0  0  0  0
    0.7317    0.0463    0.0000 H   0  0  0  0  0  0  0  0  0  0  0  0
    1.3997    2.1433    0.0000 H   0  0  0  0  0  0  0  0  0  0  0  0
   -2.8745   -0.4948    0.0000 H   0  0  0  0  0  0  0  0  0  0  0  0
   -4.8681   -0.9185    0.0000 H   0  0  0  0  0  0  0  0  0  0  0  0
   -7.5653   -0.5527    0.0000 H   0  0  0  0  0  0  0  0  0  0  0  0
  1  2  1  0  0  0  0
  1 25  1  0  0  0  0
  1 26  1  0  0  0  0
  1 27  1  0  0  0  0
  2  3  2  0  0  0  0
  2 23  1  0  0  0  0
  3  4  1  0  0  0  0
  3 28  1  0  0  0  0
  4 20  1  0  0  0  0
  5  4  1  0  0  0  0
  5  6  1  0  0  0  0
  5 19  1  0  0  0  0
  5 29  1  1  0  0  0
  6  7  1  0  0  0  0
  7  8  1  0  0  0  0
  7 18  1  0  0  0  0
  7 30  1  1  0  0  0
  8  9  1  0  0  0  0
  8 31  1  0  0  0  0
  8 32  1  0  0  0  0
 10  9  1  0  0  0  0
 10 11  1  0  0  0  0
 10 12  2  1  0  0  0
 10 13  1  0  0  0  0
 11 33  1  0  0  0  0
 13 14  1  0  0  0  0
 14 15  1  0  0  0  0
 14 16  1  0  0  0  0
 14 17  2  0  0  0  0
 15 34  1  0  0  0  0
 16 35  1  0  0  0  0
 18 19  2  0  0  0  0
 18 36  1  0  0  0  0
 19 37  1  0  0  0  0
 20 21  2  0  0  0  0
 20 22  1  0  0  0  0
 22 23  1  0  0  0  0
 22 38  1  0  0  0  0
 23 24  2  0  0  0  0
M  END
>  <DRUGBANK_ID>
DB02569

>  <SECONDARY_ACCESSION_NUMBERS>
EXPT01096

>  <COMMON_NAME>
2',3'-Dehydro-2',3'-Deoxy-Thymidine 5'-Diphosphate

$$$$
