
 OpenBabel10282417072D

 42 42  0  0  0  0  0  0  0  0999 V2000
   -0.9360   -4.0466    0.0000 Cl  0  0  0  0  0  0  0  0  0  0  0  0
   -0.2214    1.3158    0.0000 O   0  0  0  0  0  0  0  0  0  0  0  0
    0.6035    0.4908    0.0000 O   0  0  0  0  0  0  0  0  0  0  0  0
   -1.0464    0.4908    0.0000 O   0  0  0  0  0  0  0  0  0  0  0  0
    1.2074    0.4908    0.0000 O   0  0  0  0  0  0  0  0  0  0  0  0
   -1.6504    3.7908    0.0000 O   0  0  0  0  0  0  0  0  0  0  0  0
   -2.3649    2.5533    0.0000 O   0  0  0  0  0  0  0  0  0  0  0  0
    0.4929   -0.7466    0.0000 N   0  0  0  0  0  0  0  0  0  0  0  0
   -0.2214    2.9658    0.0000 N   0  0  0  0  0  0  0  0  0  0  0  0
   -0.2214   -0.3341    0.0000 C   0  0  1  0  0  0  0  0  0  0  0  0
   -0.9360   -0.7466    0.0000 C   0  0  0  0  0  0  0  0  0  0  0  0
   -0.9360   -1.5716    0.0000 C   0  0  0  0  0  0  0  0  0  0  0  0
   -0.9360    1.7283    0.0000 C   0  0  0  0  0  0  0  0  0  0  0  0
   -0.9360    2.5533    0.0000 C   0  0  1  0  0  0  0  0  0  0  0  0
   -0.2214   -1.9841    0.0000 C   0  0  0  0  0  0  0  0  0  0  0  0
   -1.6504   -1.9841    0.0000 C   0  0  0  0  0  0  0  0  0  0  0  0
    1.2074   -0.3341    0.0000 C   0  0  0  0  0  0  0  0  0  0  0  0
   -0.2214   -2.8091    0.0000 C   0  0  0  0  0  0  0  0  0  0  0  0
   -1.6504   -2.8091    0.0000 C   0  0  0  0  0  0  0  0  0  0  0  0
    1.9219   -0.7466    0.0000 C   0  0  0  0  0  0  0  0  0  0  0  0
   -0.9360   -3.2216    0.0000 C   0  0  0  0  0  0  0  0  0  0  0  0
   -1.6504    2.9658    0.0000 C   0  0  0  0  0  0  0  0  0  0  0  0
   -0.2214    0.4908    0.0000 B   0  5  0  0  0  0  0  0  0  0  0  0
    1.0885   -0.3492    0.0000 H   0  0  0  0  0  0  0  0  0  0  0  0
   -1.5314    1.3308    0.0000 H   0  0  0  0  0  0  0  0  0  0  0  0
   -0.8389    4.2593    0.0000 H   0  0  0  0  0  0  0  0  0  0  0  0
    0.4928   -1.7311    0.0000 H   0  0  0  0  0  0  0  0  0  0  0  0
    0.6619    2.4557    0.0000 H   0  0  0  0  0  0  0  0  0  0  0  0
   -0.2213    3.9858    0.0000 H   0  0  0  0  0  0  0  0  0  0  0  0
   -0.2215   -1.4041    0.0000 H   0  0  0  0  0  0  0  0  0  0  0  0
   -1.8626   -0.2116    0.0000 H   0  0  0  0  0  0  0  0  0  0  0  0
   -1.8627   -1.2816    0.0000 H   0  0  0  0  0  0  0  0  0  0  0  0
   -1.8626    1.1933    0.0000 H   0  0  0  0  0  0  0  0  0  0  0  0
   -1.8627    2.2633    0.0000 H   0  0  0  0  0  0  0  0  0  0  0  0
   -0.0094    2.0183    0.0000 H   0  0  0  0  0  0  0  0  0  0  0  0
    0.6723   -1.4681    0.0000 H   0  0  0  0  0  0  0  0  0  0  0  0
   -2.5441   -1.4681    0.0000 H   0  0  0  0  0  0  0  0  0  0  0  0
    0.6723   -3.3251    0.0000 H   0  0  0  0  0  0  0  0  0  0  0  0
   -2.5441   -3.3251    0.0000 H   0  0  0  0  0  0  0  0  0  0  0  0
    1.9219   -1.8166    0.0000 H   0  0  0  0  0  0  0  0  0  0  0  0
    2.8485   -0.2116    0.0000 H   0  0  0  0  0  0  0  0  0  0  0  0
    2.8486   -1.2816    0.0000 H   0  0  0  0  0  0  0  0  0  0  0  0
  1 21  1  0  0  0  0
  2 13  1  0  0  0  0
  2 23  1  0  0  0  0
  3 23  1  0  0  0  0
  3 24  1  0  0  0  0
  4 23  1  0  0  0  0
  4 25  1  0  0  0  0
  5 17  2  0  0  0  0
  6 22  1  0  0  0  0
  6 26  1  0  0  0  0
  7 22  2  0  0  0  0
  8 17  1  0  0  0  0
  8 27  1  0  0  0  0
  9 28  1  0  0  0  0
  9 29  1  0  0  0  0
 10  8  1  0  0  0  0
 10 11  1  0  0  0  0
 10 23  1  0  0  0  0
 10 30  1  6  0  0  0
 11 12  1  0  0  0  0
 11 31  1  0  0  0  0
 11 32  1  0  0  0  0
 12 15  2  0  0  0  0
 12 16  1  0  0  0  0
 13 14  1  0  0  0  0
 13 33  1  0  0  0  0
 13 34  1  0  0  0  0
 14  9  1  0  0  0  0
 14 22  1  0  0  0  0
 14 35  1  6  0  0  0
 15 18  1  0  0  0  0
 15 36  1  0  0  0  0
 16 19  2  0  0  0  0
 16 37  1  0  0  0  0
 17 20  1  0  0  0  0
 18 21  2  0  0  0  0
 18 38  1  0  0  0  0
 19 21  1  0  0  0  0
 19 39  1  0  0  0  0
 20 40  1  0  0  0  0
 20 41  1  0  0  0  0
 20 42  1  0  0  0  0
M  CHG  1  23  -1
M  END
>  <DRUGBANK_ID>
DB03607

>  <SECONDARY_ACCESSION_NUMBERS>
EXPT00936

>  <COMMON_NAME>
[(1R)-1-acetamido-2-(4-chlorophenyl)ethyl]-[(2S)-2-amino-3-hydroxy-3-oxo-propoxy]-dihydroxy-boron

$$$$
