Carotene-beta
 OpenBabel10282417072D

 96 97  0  0  0  0  0  0  0  0999 V2000
   -6.7893   -0.2309    0.0000 C   0  0  0  0  0  0  0  0  0  0  0  0
   -6.0748    0.1816    0.0000 C   0  0  0  0  0  0  0  0  0  0  0  0
   -7.5038   -1.4684    0.0000 C   0  0  0  0  0  0  0  0  0  0  0  0
   -8.2182   -0.2309    0.0000 C   0  0  0  0  0  0  0  0  0  0  0  0
   -5.3603   -0.2309    0.0000 C   0  0  0  0  0  0  0  0  0  0  0  0
   -8.2182   -1.0559    0.0000 C   0  0  0  0  0  0  0  0  0  0  0  0
   -4.6459    0.1816    0.0000 C   0  0  0  0  0  0  0  0  0  0  0  0
   -3.9314   -0.2309    0.0000 C   0  0  0  0  0  0  0  0  0  0  0  0
   -4.6459    1.0066    0.0000 C   0  0  0  0  0  0  0  0  0  0  0  0
   -3.2169    0.1816    0.0000 C   0  0  0  0  0  0  0  0  0  0  0  0
   -2.5025   -0.2309    0.0000 C   0  0  0  0  0  0  0  0  0  0  0  0
   -1.7880    0.1816    0.0000 C   0  0  0  0  0  0  0  0  0  0  0  0
   -1.0735   -0.2309    0.0000 C   0  0  0  0  0  0  0  0  0  0  0  0
   -1.7880    1.0066    0.0000 C   0  0  0  0  0  0  0  0  0  0  0  0
   -0.3591    0.1816    0.0000 C   0  0  0  0  0  0  0  0  0  0  0  0
    0.3554   -0.2309    0.0000 C   0  0  0  0  0  0  0  0  0  0  0  0
    1.0699    0.1816    0.0000 C   0  0  0  0  0  0  0  0  0  0  0  0
    1.7844   -0.2309    0.0000 C   0  0  0  0  0  0  0  0  0  0  0  0
    2.4988    0.1816    0.0000 C   0  0  0  0  0  0  0  0  0  0  0  0
    1.7844   -1.0559    0.0000 C   0  0  0  0  0  0  0  0  0  0  0  0
    3.2133   -0.2309    0.0000 C   0  0  0  0  0  0  0  0  0  0  0  0
    3.9278    0.1816    0.0000 C   0  0  0  0  0  0  0  0  0  0  0  0
    4.6422   -0.2309    0.0000 C   0  0  0  0  0  0  0  0  0  0  0  0
    5.3567    0.1816    0.0000 C   0  0  0  0  0  0  0  0  0  0  0  0
    4.6422   -1.0559    0.0000 C   0  0  0  0  0  0  0  0  0  0  0  0
    6.0712   -0.2309    0.0000 C   0  0  0  0  0  0  0  0  0  0  0  0
    6.7857    0.1816    0.0000 C   0  0  0  0  0  0  0  0  0  0  0  0
    7.5001    1.4191    0.0000 C   0  0  0  0  0  0  0  0  0  0  0  0
    8.2146    0.1816    0.0000 C   0  0  0  0  0  0  0  0  0  0  0  0
    8.2146    1.0066    0.0000 C   0  0  0  0  0  0  0  0  0  0  0  0
   -6.7893   -1.0559    0.0000 C   0  0  0  0  0  0  0  0  0  0  0  0
   -6.0748   -1.4684    0.0000 C   0  0  0  0  0  0  0  0  0  0  0  0
    6.0712    1.4191    0.0000 C   0  0  0  0  0  0  0  0  0  0  0  0
    6.7857    1.0066    0.0000 C   0  0  0  0  0  0  0  0  0  0  0  0
   -7.9163    0.8961    0.0000 C   0  0  0  0  0  0  0  0  0  0  0  0
   -7.5038    0.1816    0.0000 C   0  0  0  0  0  0  0  0  0  0  0  0
   -7.0913    0.8961    0.0000 C   0  0  0  0  0  0  0  0  0  0  0  0
    7.0876   -0.9453    0.0000 C   0  0  0  0  0  0  0  0  0  0  0  0
    7.5001   -0.2309    0.0000 C   0  0  0  0  0  0  0  0  0  0  0  0
    7.9126   -0.9453    0.0000 C   0  0  0  0  0  0  0  0  0  0  0  0
   -6.0748    1.2136    0.0000 H   0  0  0  0  0  0  0  0  0  0  0  0
   -7.5038   -2.5384    0.0000 H   0  0  0  0  0  0  0  0  0  0  0  0
   -8.4305   -2.0034    0.0000 H   0  0  0  0  0  0  0  0  0  0  0  0
   -9.1449    0.3041    0.0000 H   0  0  0  0  0  0  0  0  0  0  0  0
   -9.1448   -0.7659    0.0000 H   0  0  0  0  0  0  0  0  0  0  0  0
   -5.3603   -1.2629    0.0000 H   0  0  0  0  0  0  0  0  0  0  0  0
   -9.1449   -1.5909    0.0000 H   0  0  0  0  0  0  0  0  0  0  0  0
   -9.1448   -0.5209    0.0000 H   0  0  0  0  0  0  0  0  0  0  0  0
   -3.9314   -1.2629    0.0000 H   0  0  0  0  0  0  0  0  0  0  0  0
   -3.7193    1.5416    0.0000 H   0  0  0  0  0  0  0  0  0  0  0  0
   -5.5725    1.5416    0.0000 H   0  0  0  0  0  0  0  0  0  0  0  0
   -4.6459    2.0766    0.0000 H   0  0  0  0  0  0  0  0  0  0  0  0
   -3.2169    1.2136    0.0000 H   0  0  0  0  0  0  0  0  0  0  0  0
   -2.5025   -1.2629    0.0000 H   0  0  0  0  0  0  0  0  0  0  0  0
   -1.0735   -1.2629    0.0000 H   0  0  0  0  0  0  0  0  0  0  0  0
   -0.8614    1.5416    0.0000 H   0  0  0  0  0  0  0  0  0  0  0  0
   -2.7146    1.5416    0.0000 H   0  0  0  0  0  0  0  0  0  0  0  0
   -1.7880    2.0766    0.0000 H   0  0  0  0  0  0  0  0  0  0  0  0
   -0.3591    1.2136    0.0000 H   0  0  0  0  0  0  0  0  0  0  0  0
    0.3554   -1.2629    0.0000 H   0  0  0  0  0  0  0  0  0  0  0  0
    1.0699    1.2136    0.0000 H   0  0  0  0  0  0  0  0  0  0  0  0
    2.4988    1.2136    0.0000 H   0  0  0  0  0  0  0  0  0  0  0  0
    0.8578   -1.5909    0.0000 H   0  0  0  0  0  0  0  0  0  0  0  0
    2.7110   -1.5909    0.0000 H   0  0  0  0  0  0  0  0  0  0  0  0
    1.7844   -2.1259    0.0000 H   0  0  0  0  0  0  0  0  0  0  0  0
    3.2133   -1.2629    0.0000 H   0  0  0  0  0  0  0  0  0  0  0  0
    3.9278    1.2136    0.0000 H   0  0  0  0  0  0  0  0  0  0  0  0
    5.3567    1.2136    0.0000 H   0  0  0  0  0  0  0  0  0  0  0  0
    3.7156   -1.5909    0.0000 H   0  0  0  0  0  0  0  0  0  0  0  0
    5.5688   -1.5909    0.0000 H   0  0  0  0  0  0  0  0  0  0  0  0
    4.6422   -2.1259    0.0000 H   0  0  0  0  0  0  0  0  0  0  0  0
    6.0712   -1.2629    0.0000 H   0  0  0  0  0  0  0  0  0  0  0  0
    7.5001    2.4891    0.0000 H   0  0  0  0  0  0  0  0  0  0  0  0
    8.4267    1.9541    0.0000 H   0  0  0  0  0  0  0  0  0  0  0  0
    9.1412   -0.3534    0.0000 H   0  0  0  0  0  0  0  0  0  0  0  0
    9.1412    0.7166    0.0000 H   0  0  0  0  0  0  0  0  0  0  0  0
    9.1412    1.5416    0.0000 H   0  0  0  0  0  0  0  0  0  0  0  0
    9.1412    0.4716    0.0000 H   0  0  0  0  0  0  0  0  0  0  0  0
   -6.0748   -2.5384    0.0000 H   0  0  0  0  0  0  0  0  0  0  0  0
   -5.1482   -0.9334    0.0000 H   0  0  0  0  0  0  0  0  0  0  0  0
   -5.1481   -2.0034    0.0000 H   0  0  0  0  0  0  0  0  0  0  0  0
    6.0712    2.4891    0.0000 H   0  0  0  0  0  0  0  0  0  0  0  0
    5.1446    0.8841    0.0000 H   0  0  0  0  0  0  0  0  0  0  0  0
    5.1445    1.9541    0.0000 H   0  0  0  0  0  0  0  0  0  0  0  0
   -7.3813    1.8227    0.0000 H   0  0  0  0  0  0  0  0  0  0  0  0
   -8.9863    0.8961    0.0000 H   0  0  0  0  0  0  0  0  0  0  0  0
   -8.4513    1.8228    0.0000 H   0  0  0  0  0  0  0  0  0  0  0  0
   -6.0213    0.8961    0.0000 H   0  0  0  0  0  0  0  0  0  0  0  0
   -7.6263    1.8227    0.0000 H   0  0  0  0  0  0  0  0  0  0  0  0
   -6.5563    1.8228    0.0000 H   0  0  0  0  0  0  0  0  0  0  0  0
    6.0176   -0.9453    0.0000 H   0  0  0  0  0  0  0  0  0  0  0  0
    7.6226   -1.8720    0.0000 H   0  0  0  0  0  0  0  0  0  0  0  0
    6.5526   -1.8719    0.0000 H   0  0  0  0  0  0  0  0  0  0  0  0
    7.3776   -1.8720    0.0000 H   0  0  0  0  0  0  0  0  0  0  0  0
    8.9826   -0.9453    0.0000 H   0  0  0  0  0  0  0  0  0  0  0  0
    8.4476   -1.8719    0.0000 H   0  0  0  0  0  0  0  0  0  0  0  0
  1 31  2  0  0  0  0
  1 36  1  0  0  0  0
  1  2  1  0  0  0  0
  2  5  2  0  0  0  0
  2 41  1  0  0  0  0
  3  6  1  0  0  0  0
  3 42  1  0  0  0  0
  3 43  1  0  0  0  0
  4  6  1  0  0  0  0
  4 44  1  0  0  0  0
  4 45  1  0  0  0  0
  5  7  1  0  0  0  0
  5 46  1  0  0  0  0
  6 47  1  0  0  0  0
  6 48  1  0  0  0  0
  7  8  2  0  0  0  0
  7  9  1  0  0  0  0
  8 10  1  0  0  0  0
  8 49  1  0  0  0  0
  9 50  1  0  0  0  0
  9 51  1  0  0  0  0
  9 52  1  0  0  0  0
 10 11  2  0  0  0  0
 10 53  1  0  0  0  0
 11 12  1  0  0  0  0
 11 54  1  0  0  0  0
 12 13  2  0  0  0  0
 12 14  1  0  0  0  0
 13 15  1  0  0  0  0
 13 55  1  0  0  0  0
 14 56  1  0  0  0  0
 14 57  1  0  0  0  0
 14 58  1  0  0  0  0
 15 16  2  0  0  0  0
 15 59  1  0  0  0  0
 16 17  1  0  0  0  0
 16 60  1  0  0  0  0
 17 18  2  0  0  0  0
 17 61  1  0  0  0  0
 18 19  1  0  0  0  0
 18 20  1  0  0  0  0
 19 21  2  0  0  0  0
 19 62  1  0  0  0  0
 20 63  1  0  0  0  0
 20 64  1  0  0  0  0
 20 65  1  0  0  0  0
 21 22  1  0  0  0  0
 21 66  1  0  0  0  0
 22 23  2  0  0  0  0
 22 67  1  0  0  0  0
 23 24  1  0  0  0  0
 23 25  1  0  0  0  0
 24 26  2  0  0  0  0
 24 68  1  0  0  0  0
 25 69  1  0  0  0  0
 25 70  1  0  0  0  0
 25 71  1  0  0  0  0
 26 27  1  0  0  0  0
 26 72  1  0  0  0  0
 27 34  2  0  0  0  0
 27 39  1  0  0  0  0
 28 30  1  0  0  0  0
 28 73  1  0  0  0  0
 28 74  1  0  0  0  0
 29 30  1  0  0  0  0
 29 75  1  0  0  0  0
 29 76  1  0  0  0  0
 30 77  1  0  0  0  0
 30 78  1  0  0  0  0
 31  3  1  0  0  0  0
 31 32  1  0  0  0  0
 32 79  1  0  0  0  0
 32 80  1  0  0  0  0
 32 81  1  0  0  0  0
 33 82  1  0  0  0  0
 33 83  1  0  0  0  0
 33 84  1  0  0  0  0
 34 28  1  0  0  0  0
 34 33  1  0  0  0  0
 35 85  1  0  0  0  0
 35 86  1  0  0  0  0
 35 87  1  0  0  0  0
 36  4  1  0  0  0  0
 36 35  1  0  0  0  0
 36 37  1  0  0  0  0
 37 88  1  0  0  0  0
 37 89  1  0  0  0  0
 37 90  1  0  0  0  0
 38 91  1  0  0  0  0
 38 92  1  0  0  0  0
 38 93  1  0  0  0  0
 39 29  1  0  0  0  0
 39 38  1  0  0  0  0
 39 40  1  0  0  0  0
 40 94  1  0  0  0  0
 40 95  1  0  0  0  0
 40 96  1  0  0  0  0
M  END
>  <DRUGBANK_ID>
DB06755

>  <COMMON_NAME>
Beta carotene

>  <CAS_NUMBER>
7235-40-7

>  <UNII>
01YAE03M7J

>  <SYNONYMS>
all-trans-β-carotene; Beta carotene; beta-carotene; Betacarotene; β-Karotin

$$$$
