SDZ
 OpenBabel10282417072D

 62 65  0  0  0  0  0  0  0  0999 V2000
    1.3564   -4.8961    0.0000 N   0  0  0  0  0  0  0  0  0  0  0  0
    1.3564   -5.7211    0.0000 C   0  0  0  0  0  0  0  0  0  0  0  0
    0.6419   -6.1336    0.0000 C   0  0  0  0  0  0  0  0  0  0  0  0
   -0.0725   -5.7211    0.0000 C   0  0  0  0  0  0  0  0  0  0  0  0
   -0.0725   -4.8961    0.0000 C   0  0  0  0  0  0  0  0  0  0  0  0
    0.6419   -4.4836    0.0000 C   0  0  0  0  0  0  0  0  0  0  0  0
    0.6419   -3.6586    0.0000 N   0  0  0  0  0  0  0  0  0  0  0  0
   -0.0725   -3.2461    0.0000 C   0  0  0  0  0  0  0  0  0  0  0  0
   -0.0725   -2.4211    0.0000 C   0  0  0  0  0  0  0  0  0  0  0  0
    0.6419   -2.0086    0.0000 N   0  0  0  0  0  0  0  0  0  0  0  0
    1.3564   -3.2461    0.0000 C   0  0  0  0  0  0  0  0  0  0  0  0
    1.3564   -2.4211    0.0000 C   0  0  0  0  0  0  0  0  0  0  0  0
    0.6419   -1.1836    0.0000 C   0  0  0  0  0  0  0  0  0  0  0  0
   -0.0725   -0.7711    0.0000 C   0  0  2  0  0  0  0  0  0  0  0  0
   -0.7870   -1.1836    0.0000 O   0  0  0  0  0  0  0  0  0  0  0  0
   -0.0725    0.0539    0.0000 C   0  0  0  0  0  0  0  0  0  0  0  0
   -0.7870    0.4664    0.0000 O   0  0  0  0  0  0  0  0  0  0  0  0
   -0.7870    1.2914    0.0000 C   0  0  0  0  0  0  0  0  0  0  0  0
   -1.5015    1.7039    0.0000 C   0  0  0  0  0  0  0  0  0  0  0  0
   -1.5015    2.5289    0.0000 C   0  0  0  0  0  0  0  0  0  0  0  0
   -0.7870    2.9414    0.0000 C   0  0  0  0  0  0  0  0  0  0  0  0
   -0.0725    2.5289    0.0000 C   0  0  0  0  0  0  0  0  0  0  0  0
   -0.0725    1.7039    0.0000 C   0  0  0  0  0  0  0  0  0  0  0  0
   -0.7870    3.7664    0.0000 C   0  0  0  0  0  0  0  0  0  0  0  0
   -1.5015    4.1789    0.0000 C   0  0  0  0  0  0  0  0  0  0  0  0
   -1.5015    5.0039    0.0000 C   0  0  0  0  0  0  0  0  0  0  0  0
   -0.7870    5.4164    0.0000 C   0  0  0  0  0  0  0  0  0  0  0  0
   -0.0725    5.0039    0.0000 C   0  0  0  0  0  0  0  0  0  0  0  0
   -0.0725    4.1789    0.0000 C   0  0  0  0  0  0  0  0  0  0  0  0
   -0.0725   -1.3550    0.0000 H   0  0  0  0  0  0  0  0  0  0  0  0
    2.2501   -6.2371    0.0000 H   0  0  0  0  0  0  0  0  0  0  0  0
    0.6419   -7.1656    0.0000 H   0  0  0  0  0  0  0  0  0  0  0  0
   -0.9662   -6.2371    0.0000 H   0  0  0  0  0  0  0  0  0  0  0  0
   -0.9662   -4.3801    0.0000 H   0  0  0  0  0  0  0  0  0  0  0  0
   -0.9992   -3.7811    0.0000 H   0  0  0  0  0  0  0  0  0  0  0  0
   -0.9991   -2.7111    0.0000 H   0  0  0  0  0  0  0  0  0  0  0  0
   -0.9992   -1.8861    0.0000 H   0  0  0  0  0  0  0  0  0  0  0  0
   -0.0725   -1.3511    0.0000 H   0  0  0  0  0  0  0  0  0  0  0  0
    2.2830   -3.7811    0.0000 H   0  0  0  0  0  0  0  0  0  0  0  0
    2.2830   -2.7111    0.0000 H   0  0  0  0  0  0  0  0  0  0  0  0
    2.2830   -1.8861    0.0000 H   0  0  0  0  0  0  0  0  0  0  0  0
    2.2830   -2.9561    0.0000 H   0  0  0  0  0  0  0  0  0  0  0  0
    1.5686   -0.6486    0.0000 H   0  0  0  0  0  0  0  0  0  0  0  0
    0.6419   -0.1136    0.0000 H   0  0  0  0  0  0  0  0  0  0  0  0
   -1.6270   -0.6986    0.0000 H   0  0  0  0  0  0  0  0  0  0  0  0
    0.8541    0.5889    0.0000 H   0  0  0  0  0  0  0  0  0  0  0  0
   -0.0725    1.1239    0.0000 H   0  0  0  0  0  0  0  0  0  0  0  0
   -2.3952    1.1879    0.0000 H   0  0  0  0  0  0  0  0  0  0  0  0
   -2.3952    3.0449    0.0000 H   0  0  0  0  0  0  0  0  0  0  0  0
    0.8212    3.0449    0.0000 H   0  0  0  0  0  0  0  0  0  0  0  0
    0.8212    1.1879    0.0000 H   0  0  0  0  0  0  0  0  0  0  0  0
   -0.7870    4.8364    0.0000 H   0  0  0  0  0  0  0  0  0  0  0  0
   -2.4281    3.6439    0.0000 H   0  0  0  0  0  0  0  0  0  0  0  0
   -2.4281    4.7139    0.0000 H   0  0  0  0  0  0  0  0  0  0  0  0
   -2.4281    5.5389    0.0000 H   0  0  0  0  0  0  0  0  0  0  0  0
   -1.5015    6.0739    0.0000 H   0  0  0  0  0  0  0  0  0  0  0  0
   -0.7870    6.4864    0.0000 H   0  0  0  0  0  0  0  0  0  0  0  0
    0.1396    5.9514    0.0000 H   0  0  0  0  0  0  0  0  0  0  0  0
    0.8541    5.5389    0.0000 H   0  0  0  0  0  0  0  0  0  0  0  0
    0.8541    4.4689    0.0000 H   0  0  0  0  0  0  0  0  0  0  0  0
    0.8541    3.6439    0.0000 H   0  0  0  0  0  0  0  0  0  0  0  0
    0.8541    4.7139    0.0000 H   0  0  0  0  0  0  0  0  0  0  0  0
  1  2  2  0  0  0  0
  1  6  1  0  0  0  0
  2  3  1  0  0  0  0
  2 31  1  0  0  0  0
  3  4  2  0  0  0  0
  3 32  1  0  0  0  0
  4  5  1  0  0  0  0
  4 33  1  0  0  0  0
  5  6  2  0  0  0  0
  5 34  1  0  0  0  0
  6  7  1  0  0  0  0
  7  8  1  0  0  0  0
  7 11  1  0  0  0  0
  8  9  1  0  0  0  0
  8 35  1  0  0  0  0
  8 36  1  0  0  0  0
  9 10  1  0  0  0  0
  9 37  1  0  0  0  0
  9 38  1  0  0  0  0
 10 12  1  0  0  0  0
 10 13  1  0  0  0  0
 11 12  1  0  0  0  0
 11 39  1  0  0  0  0
 11 40  1  0  0  0  0
 12 41  1  0  0  0  0
 12 42  1  0  0  0  0
 13 14  1  0  0  0  0
 13 43  1  0  0  0  0
 13 44  1  0  0  0  0
 14 15  1  0  0  0  0
 14 16  1  0  0  0  0
 14 30  1  1  0  0  0
 15 45  1  0  0  0  0
 16 17  1  0  0  0  0
 16 46  1  0  0  0  0
 16 47  1  0  0  0  0
 17 18  1  0  0  0  0
 18 19  2  0  0  0  0
 18 23  1  0  0  0  0
 19 20  1  0  0  0  0
 19 48  1  0  0  0  0
 20 21  2  0  0  0  0
 20 49  1  0  0  0  0
 21 22  1  0  0  0  0
 21 24  1  0  0  0  0
 22 23  2  0  0  0  0
 22 50  1  0  0  0  0
 23 51  1  0  0  0  0
 24 25  1  0  0  0  0
 24 29  1  0  0  0  0
 24 52  1  0  0  0  0
 25 26  1  0  0  0  0
 25 53  1  0  0  0  0
 25 54  1  0  0  0  0
 26 27  1  0  0  0  0
 26 55  1  0  0  0  0
 26 56  1  0  0  0  0
 27 28  1  0  0  0  0
 27 57  1  0  0  0  0
 27 58  1  0  0  0  0
 28 29  1  0  0  0  0
 28 59  1  0  0  0  0
 28 60  1  0  0  0  0
 29 61  1  0  0  0  0
 29 62  1  0  0  0  0
M  END
>  <DRUGBANK_ID>
DB08543

>  <COMMON_NAME>
1-[2-HYDROXY-3-(4-CYCLOHEXYL-PHENOXY)-PROPYL]-4-(2-PYRIDYL)-PIPERAZINE

$$$$
