
 OpenBabel10282417072D

 56 59  0  0  0  0  0  0  0  0999 V2000
    4.5465    1.3336    0.0000 C   0  0  0  0  0  0  0  0  0  0  0  0
    2.0306    1.7357    0.0000 C   0  0  0  0  0  0  0  0  0  0  0  0
    4.5753   -0.8489    0.0000 C   0  0  0  0  0  0  0  0  0  0  0  0
    3.7632   -0.7037    0.0000 C   0  0  0  0  0  0  0  0  0  0  0  0
    2.0195   -0.2889    0.0000 C   0  0  0  0  0  0  0  0  0  0  0  0
    1.3366    0.1740    0.0000 C   0  0  0  0  0  0  0  0  0  0  0  0
    6.1708    1.0432    0.0000 C   0  0  0  0  0  0  0  0  0  0  0  0
    3.7344    1.4788    0.0000 C   0  0  0  0  0  0  0  0  0  0  0  0
    5.3587    1.1884    0.0000 C   0  0  0  0  0  0  0  0  0  0  0  0
    2.9223    1.6240    0.0000 C   0  0  0  0  0  0  0  0  0  0  0  0
    5.9193   -0.3634    0.0000 C   0  0  0  0  0  0  0  0  0  0  0  0
    0.2423    1.5050    0.0000 C   0  0  0  0  0  0  0  0  0  0  0  0
    5.1071   -0.2182    0.0000 C   0  0  2  0  0  0  0  0  0  0  0  0
    6.4511    0.2672    0.0000 C   0  0  0  0  0  0  0  0  0  0  0  0
    3.4829    0.0722    0.0000 C   0  0  1  0  0  0  0  0  0  0  0  0
    2.6708    0.2174    0.0000 C   0  0  1  0  0  0  0  0  0  0  0  0
    4.0147    0.7029    0.0000 C   0  0  1  0  0  0  0  0  0  0  0  0
    1.5659    0.9665    0.0000 C   0  0  2  0  0  0  0  0  0  0  0  0
    1.0596    1.6178    0.0000 C   0  0  0  0  0  0  0  0  0  0  0  0
    4.8268    0.5577    0.0000 C   0  0  2  0  0  0  0  0  0  0  0  0
    2.3905    0.9933    0.0000 C   0  0  2  0  0  0  0  0  0  0  0  0
   -0.2639    2.1563    0.0000 O   0  0  0  0  0  0  0  0  0  0  0  0
    7.2632    0.1220    0.0000 O   0  0  0  0  0  0  0  0  0  0  0  0
    1.3705    2.3820    0.0000 O   0  0  0  0  0  0  0  0  0  0  0  0
    5.3874   -0.9941    0.0000 H   0  0  0  0  0  0  0  0  0  0  0  0
    3.1989   -0.7023    0.0000 H   0  0  0  0  0  0  0  0  0  0  0  0
    2.5826   -0.6028    0.0000 H   0  0  0  0  0  0  0  0  0  0  0  0
    4.2988    1.4774    0.0000 H   0  0  0  0  0  0  0  0  0  0  0  0
    0.7557    0.8110    0.0000 H   0  0  0  0  0  0  0  0  0  0  0  0
    5.2362    2.1516    0.0000 H   0  0  0  0  0  0  0  0  0  0  0  0
    3.4932    1.5219    0.0000 H   0  0  0  0  0  0  0  0  0  0  0  0
    4.1829    2.3399    0.0000 H   0  0  0  0  0  0  0  0  0  0  0  0
    2.6311    2.6213    0.0000 H   0  0  0  0  0  0  0  0  0  0  0  0
    0.9634    1.8129    0.0000 H   0  0  0  0  0  0  0  0  0  0  0  0
    1.5638    2.6985    0.0000 H   0  0  0  0  0  0  0  0  0  0  0  0
    4.9389   -1.8552    0.0000 H   0  0  0  0  0  0  0  0  0  0  0  0
    5.6286   -1.0372    0.0000 H   0  0  0  0  0  0  0  0  0  0  0  0
    3.0735   -1.5217    0.0000 H   0  0  0  0  0  0  0  0  0  0  0  0
    2.7099   -0.5154    0.0000 H   0  0  0  0  0  0  0  0  0  0  0  0
    2.0543   -1.3583    0.0000 H   0  0  0  0  0  0  0  0  0  0  0  0
    2.9882   -0.7434    0.0000 H   0  0  0  0  0  0  0  0  0  0  0  0
    0.3303   -0.1896    0.0000 H   0  0  0  0  0  0  0  0  0  0  0  0
    0.5558    0.9056    0.0000 H   0  0  0  0  0  0  0  0  0  0  0  0
    6.8606    1.8612    0.0000 H   0  0  0  0  0  0  0  0  0  0  0  0
    7.2241    0.8548    0.0000 H   0  0  0  0  0  0  0  0  0  0  0  0
    4.4241    2.2968    0.0000 H   0  0  0  0  0  0  0  0  0  0  0  0
    4.7877    1.2905    0.0000 H   0  0  0  0  0  0  0  0  0  0  0  0
    4.9952    2.1948    0.0000 H   0  0  0  0  0  0  0  0  0  0  0  0
    4.3054    1.3768    0.0000 H   0  0  0  0  0  0  0  0  0  0  0  0
    2.5587    2.6303    0.0000 H   0  0  0  0  0  0  0  0  0  0  0  0
    1.8690    1.8123    0.0000 H   0  0  0  0  0  0  0  0  0  0  0  0
    6.2828   -1.3698    0.0000 H   0  0  0  0  0  0  0  0  0  0  0  0
    6.9726   -0.5518    0.0000 H   0  0  0  0  0  0  0  0  0  0  0  0
   -0.1610    0.5139    0.0000 H   0  0  0  0  0  0  0  0  0  0  0  0
   -0.8177    1.3588    0.0000 H   0  0  0  0  0  0  0  0  0  0  0  0
    0.1017    3.0547    0.0000 H   0  0  0  0  0  0  0  0  0  0  0  0
  1 30  1  0  0  0  0
  1 31  1  0  0  0  0
  1 32  1  0  0  0  0
  2 33  1  0  0  0  0
  2 34  1  0  0  0  0
  2 35  1  0  0  0  0
  3 36  1  0  0  0  0
  3 37  1  0  0  0  0
  4  3  1  0  0  0  0
  4 38  1  0  0  0  0
  4 39  1  0  0  0  0
  5 40  1  0  0  0  0
  5 41  1  0  0  0  0
  6  5  1  0  0  0  0
  6 42  1  0  0  0  0
  6 43  1  0  0  0  0
  7 44  1  0  0  0  0
  7 45  1  0  0  0  0
  8 46  1  0  0  0  0
  8 47  1  0  0  0  0
  9  7  1  0  0  0  0
  9 48  1  0  0  0  0
  9 49  1  0  0  0  0
 10  8  1  0  0  0  0
 10 50  1  0  0  0  0
 10 51  1  0  0  0  0
 11 52  1  0  0  0  0
 11 53  1  0  0  0  0
 12 54  1  0  0  0  0
 12 55  1  0  0  0  0
 13  3  1  0  0  0  0
 13 11  1  0  0  0  0
 13 25  1  6  0  0  0
 14  7  1  0  0  0  0
 14 11  1  0  0  0  0
 15  4  1  0  0  0  0
 15 26  1  6  0  0  0
 16  5  1  0  0  0  0
 16 15  1  0  0  0  0
 16 27  1  1  0  0  0
 17  8  1  0  0  0  0
 17 15  1  0  0  0  0
 17 28  1  1  0  0  0
 18  6  1  0  0  0  0
 18 19  1  0  0  0  0
 18 29  1  1  0  0  0
 19 12  1  0  0  0  0
 20  1  1  6  0  0  0
 20  9  1  0  0  0  0
 20 13  1  0  0  0  0
 20 17  1  0  0  0  0
 21  2  1  6  0  0  0
 21 10  1  0  0  0  0
 21 16  1  0  0  0  0
 21 18  1  0  0  0  0
 22 12  1  0  0  0  0
 22 56  1  0  0  0  0
 23 14  2  0  0  0  0
 24 19  2  0  0  0  0
M  END
>  <DRUGBANK_ID>
DB08956

>  <COMMON_NAME>
Hydroxydione

>  <CAS_NUMBER>
303-01-5

>  <UNII>
B7VFN88375

>  <SYNONYMS>
21-hydroxy-5β-pregnane-3,20-dione; 5beta-dihydrodeoxycorticosterone; 5β-dihydrodeoxycorticosterone

$$$$
