
 OpenBabel10282417072D

 48 52  0  0  0  0  0  0  0  0999 V2000
   -1.1348    0.3605    0.0000 C   0  0  1  0  0  0  0  0  0  0  0  0
   -0.4059    0.7464    0.0000 C   0  0  0  0  0  0  0  0  0  0  0  0
   -1.8639    0.7464    0.0000 N   0  0  0  0  0  0  0  0  0  0  0  0
    0.3229    0.3605    0.0000 N   0  0  0  0  0  0  0  0  0  0  0  0
   -0.4059    1.6040    0.0000 O   0  0  0  0  0  0  0  0  0  0  0  0
    0.5803   -0.4542    0.0000 C   0  0  2  0  0  0  0  0  0  0  0  0
    1.4379   -0.4542    0.0000 C   0  0  2  0  0  0  0  0  0  0  0  0
    1.6953    0.4033    0.0000 C   0  0  0  0  0  0  0  0  0  0  0  0
    0.9662    0.8321    0.0000 C   0  0  1  0  0  0  0  0  0  0  0  0
    0.9662    1.6898    0.0000 C   0  0  0  0  0  0  0  0  0  0  0  0
    0.9662    2.5473    0.0000 N   0  0  0  0  0  0  0  0  0  0  0  0
    1.0091   -1.1833    0.0000 C   0  0  0  0  0  0  0  0  0  0  0  0
    2.2955   -0.4542    0.0000 H   0  0  0  0  0  0  0  0  0  0  0  0
   -0.2342   -0.4542    0.0000 H   0  0  0  0  0  0  0  0  0  0  0  0
   -1.1348   -0.4972    0.0000 C   0  0  3  0  0  0  0  0  0  0  0  0
   -1.8490   -0.9095    0.0000 C   0  0  0  0  0  0  0  0  0  0  0  0
   -1.8490   -1.7344    0.0000 C   0  0  3  0  0  0  0  0  0  0  0  0
   -0.4204   -1.7344    0.0000 C   0  0  3  0  0  0  0  0  0  0  0  0
   -1.1348   -2.1468    0.0000 C   0  0  0  0  0  0  0  0  0  0  0  0
   -1.5812   -2.2137    0.0000 C   0  0  3  0  0  0  0  0  0  0  0  0
   -1.5812   -1.3890    0.0000 C   0  0  0  0  0  0  0  0  0  0  0  0
   -0.4204   -0.9095    0.0000 C   0  0  0  0  0  0  0  0  0  0  0  0
   -2.2955   -2.5473    0.0000 C   0  0  0  0  0  0  0  0  0  0  0  0
   -0.8270   -2.5473    0.0000 C   0  0  0  0  0  0  0  0  0  0  0  0
    0.2938   -2.1468    0.0000 O   0  0  0  0  0  0  0  0  0  0  0  0
   -2.0514   -0.1915    0.0000 H   0  0  0  0  0  0  0  0  0  0  0  0
   -1.9014    1.7657    0.0000 H   0  0  0  0  0  0  0  0  0  0  0  0
   -2.7279    0.2042    0.0000 H   0  0  0  0  0  0  0  0  0  0  0  0
    2.6914    0.7940    0.0000 H   0  0  0  0  0  0  0  0  0  0  0  0
    1.7797    1.4700    0.0000 H   0  0  0  0  0  0  0  0  0  0  0  0
    1.8950    1.3634    0.0000 H   0  0  0  0  0  0  0  0  0  0  0  0
    1.0091   -2.2533    0.0000 H   0  0  0  0  0  0  0  0  0  0  0  0
   -0.0233   -1.4644    0.0000 H   0  0  0  0  0  0  0  0  0  0  0  0
   -2.7756   -0.3745    0.0000 H   0  0  0  0  0  0  0  0  0  0  0  0
   -2.7757   -1.4445    0.0000 H   0  0  0  0  0  0  0  0  0  0  0  0
   -0.9223   -1.1994    0.0000 H   0  0  0  0  0  0  0  0  0  0  0  0
   -1.1349   -3.2168    0.0000 H   0  0  0  0  0  0  0  0  0  0  0  0
   -0.2082   -2.6819    0.0000 H   0  0  0  0  0  0  0  0  0  0  0  0
   -1.5702   -3.2836    0.0000 H   0  0  0  0  0  0  0  0  0  0  0  0
   -2.6225   -1.1429    0.0000 H   0  0  0  0  0  0  0  0  0  0  0  0
   -2.0344   -0.4197    0.0000 H   0  0  0  0  0  0  0  0  0  0  0  0
    0.5062   -0.3744    0.0000 H   0  0  0  0  0  0  0  0  0  0  0  0
    0.5063   -1.4445    0.0000 H   0  0  0  0  0  0  0  0  0  0  0  0
   -3.0764   -3.2788    0.0000 H   0  0  0  0  0  0  0  0  0  0  0  0
   -3.1407   -1.8911    0.0000 H   0  0  0  0  0  0  0  0  0  0  0  0
   -0.4649   -3.5542    0.0000 H   0  0  0  0  0  0  0  0  0  0  0  0
   -1.6100   -3.2765    0.0000 H   0  0  0  0  0  0  0  0  0  0  0  0
    0.2937   -3.1168    0.0000 H   0  0  0  0  0  0  0  0  0  0  0  0
  1  2  1  0  0  0  0
  1  3  1  0  0  0  0
  1 26  1  1  0  0  0
  2  4  1  0  0  0  0
  2  5  2  0  0  0  0
  3 27  1  0  0  0  0
  3 28  1  0  0  0  0
  4  6  1  0  0  0  0
  4  9  1  0  0  0  0
  6  7  1  0  0  0  0
  6 14  1  1  0  0  0
  7  8  1  0  0  0  0
  7 12  1  0  0  0  0
  7 13  1  1  0  0  0
  8  9  1  0  0  0  0
  8 29  1  0  0  0  0
  8 30  1  0  0  0  0
  9 10  1  0  0  0  0
  9 31  1  1  0  0  0
 10 11  3  0  0  0  0
 12  6  1  0  0  0  0
 12 32  1  0  0  0  0
 12 33  1  0  0  0  0
 15  1  1  0  0  0  0
 15 16  1  0  0  0  0
 15 22  1  0  0  0  0
 15 21  1  0  0  0  0
 16 17  1  0  0  0  0
 16 34  1  0  0  0  0
 16 35  1  0  0  0  0
 17 19  1  0  0  0  0
 17 36  1  0  0  0  0
 18 22  1  0  0  0  0
 18 19  1  0  0  0  0
 18 25  1  0  0  0  0
 19 37  1  0  0  0  0
 19 38  1  0  0  0  0
 20 21  1  0  0  0  0
 20 39  1  0  0  0  0
 21 40  1  0  0  0  0
 21 41  1  0  0  0  0
 22 42  1  0  0  0  0
 22 43  1  0  0  0  0
 23 20  1  0  0  0  0
 23 17  1  0  0  0  0
 23 44  1  0  0  0  0
 23 45  1  0  0  0  0
 24 18  1  0  0  0  0
 24 20  1  0  0  0  0
 24 46  1  0  0  0  0
 24 47  1  0  0  0  0
 25 48  1  0  0  0  0
M  END
>  <DRUGBANK_ID>
DB06335

>  <COMMON_NAME>
Saxagliptin

>  <CAS_NUMBER>
361442-04-8

>  <UNII>
8I7IO46IVQ

>  <SYNONYMS>
(1S,3S,5S)-2-((2S)-Amino(3-hydroxytricyclo(3.3.1.13,7)dec-1-yl)acetyl)-2-azabicyclo(3.1.0)hexane-3-carbonitrile; Saxagliptin; Saxagliptin anhydrous; Saxagliptina

$$$$
