
 OpenBabel10282417072D

 85 93  0  0  0  0  0  0  0  0999 V2000
    1.0008    0.9760    0.0000 C   0  0  0  0  0  0  0  0  0  0  0  0
    1.6353    0.4486    0.0000 C   0  0  0  0  0  0  0  0  0  0  0  0
    2.4348    0.6519    0.0000 C   0  0  0  0  0  0  0  0  0  0  0  0
    2.9554    1.5893    0.0000 C   0  0  0  0  0  0  0  0  0  0  0  0
    3.6697    2.0020    0.0000 C   0  0  0  0  0  0  0  0  0  0  0  0
    3.9753    2.7684    0.0000 C   0  0  0  0  0  0  0  0  0  0  0  0
    3.5348    3.4660    0.0000 C   0  0  0  0  0  0  0  0  0  0  0  0
    3.9188    4.1962    0.0000 C   0  0  0  0  0  0  0  0  0  0  0  0
    4.7985    2.7146    0.0000 C   0  0  0  0  0  0  0  0  0  0  0  0
    5.3259    3.3490    0.0000 C   0  0  0  0  0  0  0  0  0  0  0  0
    5.0018    1.9151    0.0000 C   0  0  0  0  0  0  0  0  0  0  0  0
    4.3042    1.4746    0.0000 N   0  3  0  0  0  0  0  0  0  0  0  0
    4.3499    0.0000    0.0000 Fe  0  0  3  0  0  0  0  0  0  0  0  0
    5.8245    0.0457    0.0000 N   0  0  0  0  0  0  0  0  0  0  0  0
    6.2649   -0.6519    0.0000 C   0  0  0  0  0  0  0  0  0  0  0  0
    5.7444   -1.5893    0.0000 C   0  0  0  0  0  0  0  0  0  0  0  0
    5.0300   -2.0020    0.0000 C   0  0  0  0  0  0  0  0  0  0  0  0
    4.3956   -1.4746    0.0000 N   0  3  0  0  0  0  0  0  0  0  0  0
    3.6980   -1.9151    0.0000 C   0  0  0  0  0  0  0  0  0  0  0  0
    3.9013   -2.7146    0.0000 C   0  0  0  0  0  0  0  0  0  0  0  0
    3.3739   -3.3490    0.0000 C   0  0  0  0  0  0  0  0  0  0  0  0
    3.6596   -4.1230    0.0000 C   0  0  0  0  0  0  0  0  0  0  0  0
    3.1322   -4.7574    0.0000 C   0  0  0  0  0  0  0  0  0  0  0  0
    3.4180   -5.5313    0.0000 O   0  0  0  0  0  0  0  0  0  0  0  0
    2.3191   -4.6179    0.0000 O   0  0  0  0  0  0  0  0  0  0  0  0
    4.7245   -2.7684    0.0000 C   0  0  0  0  0  0  0  0  0  0  0  0
    5.1649   -3.4660    0.0000 C   0  0  0  0  0  0  0  0  0  0  0  0
    2.7605   -1.3945    0.0000 C   0  0  0  0  0  0  0  0  0  0  0  0
    2.1821   -1.9828    0.0000 C   0  0  0  0  0  0  0  0  0  0  0  0
    2.4024   -2.7779    0.0000 C   0  0  0  0  0  0  0  0  0  0  0  0
    1.8240   -3.3662    0.0000 C   0  0  0  0  0  0  0  0  0  0  0  0
    1.0254   -3.1594    0.0000 C   0  0  0  0  0  0  0  0  0  0  0  0
    0.8051   -2.3644    0.0000 C   0  0  0  0  0  0  0  0  0  0  0  0
    1.3835   -1.7761    0.0000 C   0  0  0  0  0  0  0  0  0  0  0  0
    2.3479   -0.6802    0.0000 C   0  0  0  0  0  0  0  0  0  0  0  0
    2.8752   -0.0457    0.0000 N   0  0  0  0  0  0  0  0  0  0  0  0
    1.5815   -0.3746    0.0000 C   0  0  0  0  0  0  0  0  0  0  0  0
    0.8839   -0.8150    0.0000 C   0  0  0  0  0  0  0  0  0  0  0  0
    0.1537   -0.4311    0.0000 C   0  0  0  0  0  0  0  0  0  0  0  0
   -0.5439   -0.8715    0.0000 C   0  0  0  0  0  0  0  0  0  0  0  0
   -0.5113   -1.6958    0.0000 O   0  0  0  0  0  0  0  0  0  0  0  0
   -1.2741   -0.4875    0.0000 O   0  0  0  0  0  0  0  0  0  0  0  0
    7.0645   -0.4486    0.0000 C   0  0  0  0  0  0  0  0  0  0  0  0
    7.6989   -0.9760    0.0000 C   0  0  0  0  0  0  0  0  0  0  0  0
    7.1183    0.3746    0.0000 C   0  0  0  0  0  0  0  0  0  0  0  0
    7.8159    0.8150    0.0000 C   0  0  0  0  0  0  0  0  0  0  0  0
    7.7833    1.6394    0.0000 C   0  0  0  0  0  0  0  0  0  0  0  0
    6.3519    0.6802    0.0000 C   0  0  0  0  0  0  0  0  0  0  0  0
    5.9392    1.3945    0.0000 C   0  0  0  0  0  0  0  0  0  0  0  0
    1.1817    2.0306    0.0000 H   0  0  0  0  0  0  0  0  0  0  0  0
   -0.0030    0.6054    0.0000 H   0  0  0  0  0  0  0  0  0  0  0  0
    0.1779    1.6600    0.0000 H   0  0  0  0  0  0  0  0  0  0  0  0
    2.2195    2.3128    0.0000 H   0  0  0  0  0  0  0  0  0  0  0  0
    2.5036    3.4252    0.0000 H   0  0  0  0  0  0  0  0  0  0  0  0
    4.9500    4.2369    0.0000 H   0  0  0  0  0  0  0  0  0  0  0  0
    3.3679    5.0689    0.0000 H   0  0  0  0  0  0  0  0  0  0  0  0
    6.3805    3.1680    0.0000 H   0  0  0  0  0  0  0  0  0  0  0  0
    4.9553    4.3528    0.0000 H   0  0  0  0  0  0  0  0  0  0  0  0
    6.0099    4.1718    0.0000 H   0  0  0  0  0  0  0  0  0  0  0  0
    6.4803   -2.3128    0.0000 H   0  0  0  0  0  0  0  0  0  0  0  0
    2.3193   -3.1680    0.0000 H   0  0  0  0  0  0  0  0  0  0  0  0
    2.6899   -4.1718    0.0000 H   0  0  0  0  0  0  0  0  0  0  0  0
    4.7142   -4.3040    0.0000 H   0  0  0  0  0  0  0  0  0  0  0  0
    4.0301   -5.1268    0.0000 H   0  0  0  0  0  0  0  0  0  0  0  0
    2.8191   -6.2519    0.0000 H   0  0  0  0  0  0  0  0  0  0  0  0
    4.6669   -4.4131    0.0000 H   0  0  0  0  0  0  0  0  0  0  0  0
    6.2341   -3.4237    0.0000 H   0  0  0  0  0  0  0  0  0  0  0  0
    5.7361   -4.3708    0.0000 H   0  0  0  0  0  0  0  0  0  0  0  0
    3.4015   -3.0365    0.0000 H   0  0  0  0  0  0  0  0  0  0  0  0
    2.0995   -4.3607    0.0000 H   0  0  0  0  0  0  0  0  0  0  0  0
    0.3019   -3.8953    0.0000 H   0  0  0  0  0  0  0  0  0  0  0  0
   -0.1940   -2.1058    0.0000 H   0  0  0  0  0  0  0  0  0  0  0  0
    1.1079   -0.7816    0.0000 H   0  0  0  0  0  0  0  0  0  0  0  0
    0.9262   -1.8842    0.0000 H   0  0  0  0  0  0  0  0  0  0  0  0
   -0.0209   -1.3862    0.0000 H   0  0  0  0  0  0  0  0  0  0  0  0
    0.1114    0.6381    0.0000 H   0  0  0  0  0  0  0  0  0  0  0  0
   -0.7934    0.0669    0.0000 H   0  0  0  0  0  0  0  0  0  0  0  0
   -1.3036   -2.1960    0.0000 H   0  0  0  0  0  0  0  0  0  0  0  0
    7.5179   -2.0306    0.0000 H   0  0  0  0  0  0  0  0  0  0  0  0
    8.7027   -0.6054    0.0000 H   0  0  0  0  0  0  0  0  0  0  0  0
    8.5217   -1.6600    0.0000 H   0  0  0  0  0  0  0  0  0  0  0  0
    8.7293    0.3347    0.0000 H   0  0  0  0  0  0  0  0  0  0  0  0
    8.6560    2.1903    0.0000 H   0  0  0  0  0  0  0  0  0  0  0  0
    6.8699    2.1197    0.0000 H   0  0  0  0  0  0  0  0  0  0  0  0
    6.6627    2.1304    0.0000 H   0  0  0  0  0  0  0  0  0  0  0  0
  1  2  1  0  0  0  0
  1 50  1  0  0  0  0
  1 51  1  0  0  0  0
  1 52  1  0  0  0  0
  2  3  2  0  0  0  0
  2 37  1  0  0  0  0
  3  4  1  0  0  0  0
  3 36  1  0  0  0  0
  4  5  2  0  0  0  0
  4 53  1  0  0  0  0
  5  6  1  0  0  0  0
  5 12  1  0  0  0  0
  6  7  1  0  0  0  0
  6  9  2  0  0  0  0
  7  8  2  0  0  0  0
  7 54  1  0  0  0  0
  8 55  1  0  0  0  0
  8 56  1  0  0  0  0
  9 10  1  0  0  0  0
  9 11  1  0  0  0  0
 10 57  1  0  0  0  0
 10 58  1  0  0  0  0
 10 59  1  0  0  0  0
 11 12  2  0  0  0  0
 11 49  1  0  0  0  0
 12 13  1  0  0  0  0
 13 14  1  0  0  0  0
 13 18  1  0  0  0  0
 13 36  1  0  0  0  0
 14 15  1  0  0  0  0
 14 48  1  0  0  0  0
 15 16  2  0  0  0  0
 15 43  1  0  0  0  0
 16 17  1  0  0  0  0
 16 60  1  0  0  0  0
 17 18  2  0  0  0  0
 17 26  1  0  0  0  0
 18 19  1  0  0  0  0
 19 20  1  0  0  0  0
 19 28  2  0  0  0  0
 20 21  1  0  0  0  0
 20 26  2  0  0  0  0
 21 22  1  0  0  0  0
 21 61  1  0  0  0  0
 21 62  1  0  0  0  0
 22 23  1  0  0  0  0
 22 63  1  0  0  0  0
 22 64  1  0  0  0  0
 23 24  1  0  0  0  0
 23 25  2  0  0  0  0
 24 65  1  0  0  0  0
 26 27  1  0  0  0  0
 27 66  1  0  0  0  0
 27 67  1  0  0  0  0
 27 68  1  0  0  0  0
 28 29  1  0  0  0  0
 28 35  1  0  0  0  0
 29 30  2  0  0  0  0
 29 34  1  0  0  0  0
 30 31  1  0  0  0  0
 30 69  1  0  0  0  0
 31 32  2  0  0  0  0
 31 70  1  0  0  0  0
 32 33  1  0  0  0  0
 32 71  1  0  0  0  0
 33 34  2  0  0  0  0
 33 72  1  0  0  0  0
 34 73  1  0  0  0  0
 35 36  1  0  0  0  0
 35 37  2  0  0  0  0
 37 38  1  0  0  0  0
 38 39  1  0  0  0  0
 38 74  1  0  0  0  0
 38 75  1  0  0  0  0
 39 40  1  0  0  0  0
 39 76  1  0  0  0  0
 39 77  1  0  0  0  0
 40 41  1  0  0  0  0
 40 42  2  0  0  0  0
 41 78  1  0  0  0  0
 43 44  1  0  0  0  0
 43 45  2  0  0  0  0
 44 79  1  0  0  0  0
 44 80  1  0  0  0  0
 44 81  1  0  0  0  0
 45 46  1  0  0  0  0
 45 48  1  0  0  0  0
 46 47  2  0  0  0  0
 46 82  1  0  0  0  0
 47 83  1  0  0  0  0
 47 84  1  0  0  0  0
 48 49  2  0  0  0  0
 49 85  1  0  0  0  0
M  CHG  2  12   1  18   1
M  END
>  <DRUGBANK_ID>
DB03906

>  <SECONDARY_ACCESSION_NUMBERS>
EXPT00117

>  <COMMON_NAME>
2-Phenylheme

$$$$
