
 OpenBabel10282417072D

 29 30  0  0  0  0  0  0  0  0999 V2000
    1.6500   -2.6582    0.0000 F   0  0  0  0  0  0  0  0  0  0  0  0
    2.7770   -2.9602    0.0000 F   0  0  0  0  0  0  0  0  0  0  0  0
    1.9520   -1.5312    0.0000 F   0  0  0  0  0  0  0  0  0  0  0  0
    3.7935    2.7044    0.0000 O   0  0  0  0  0  0  0  0  0  0  0  0
    3.0791    1.4669    0.0000 O   0  0  0  0  0  0  0  0  0  0  0  0
    3.7935    0.2294    0.0000 N   0  0  0  0  0  0  0  0  0  0  0  0
    5.2224    0.2294    0.0000 N   0  0  0  0  0  0  0  0  0  0  0  0
    3.7935   -0.5957    0.0000 C   0  0  0  0  0  0  0  0  0  0  0  0
    3.0791   -1.8332    0.0000 C   0  0  0  0  0  0  0  0  0  0  0  0
    3.0791   -1.0082    0.0000 C   0  0  0  0  0  0  0  0  0  0  0  0
    4.5080    0.6419    0.0000 C   0  0  0  0  0  0  0  0  0  0  0  0
    4.5080   -1.0082    0.0000 C   0  0  0  0  0  0  0  0  0  0  0  0
    3.7935   -2.2457    0.0000 C   0  0  0  0  0  0  0  0  0  0  0  0
    4.5080    1.4669    0.0000 C   0  0  0  0  0  0  0  0  0  0  0  0
    4.5080   -1.8332    0.0000 C   0  0  0  0  0  0  0  0  0  0  0  0
    2.3645   -2.2457    0.0000 C   0  0  0  0  0  0  0  0  0  0  0  0
    5.2224    1.8794    0.0000 C   0  0  0  0  0  0  0  0  0  0  0  0
    5.9370    1.4669    0.0000 C   0  0  0  0  0  0  0  0  0  0  0  0
    5.9370    0.6419    0.0000 C   0  0  0  0  0  0  0  0  0  0  0  0
    3.7935    1.8794    0.0000 C   0  0  0  0  0  0  0  0  0  0  0  0
    4.6050    3.1729    0.0000 H   0  0  0  0  0  0  0  0  0  0  0  0
    2.9409    0.7217    0.0000 H   0  0  0  0  0  0  0  0  0  0  0  0
    2.1854   -0.4922    0.0000 H   0  0  0  0  0  0  0  0  0  0  0  0
    5.4017   -0.4922    0.0000 H   0  0  0  0  0  0  0  0  0  0  0  0
    3.7935   -3.2777    0.0000 H   0  0  0  0  0  0  0  0  0  0  0  0
    5.4017   -2.3492    0.0000 H   0  0  0  0  0  0  0  0  0  0  0  0
    5.2223    2.9114    0.0000 H   0  0  0  0  0  0  0  0  0  0  0  0
    6.8307    1.9829    0.0000 H   0  0  0  0  0  0  0  0  0  0  0  0
    6.8307    0.1259    0.0000 H   0  0  0  0  0  0  0  0  0  0  0  0
  1 16  1  0  0  0  0
  2 16  1  0  0  0  0
  3 16  1  0  0  0  0
  4 20  1  0  0  0  0
  4 21  1  0  0  0  0
  5 20  2  0  0  0  0
  6  8  1  0  0  0  0
  6 11  1  0  0  0  0
  6 22  1  0  0  0  0
  7 11  1  0  0  0  0
  7 19  2  0  0  0  0
  8 10  1  0  0  0  0
  8 12  2  0  0  0  0
  9 10  2  0  0  0  0
  9 13  1  0  0  0  0
  9 16  1  0  0  0  0
 10 23  1  0  0  0  0
 11 14  2  0  0  0  0
 12 15  1  0  0  0  0
 12 24  1  0  0  0  0
 13 15  2  0  0  0  0
 13 25  1  0  0  0  0
 14 17  1  0  0  0  0
 14 20  1  0  0  0  0
 15 26  1  0  0  0  0
 17 18  2  0  0  0  0
 17 27  1  0  0  0  0
 18 19  1  0  0  0  0
 18 28  1  0  0  0  0
 19 29  1  0  0  0  0
M  END
>  <DRUGBANK_ID>
DB04552

>  <SECONDARY_ACCESSION_NUMBERS>
EXPT02331

>  <COMMON_NAME>
Niflumic acid

>  <CAS_NUMBER>
4394-00-7

>  <UNII>
4U5MP5IUD8

>  <SYNONYMS>
Acide niflumique; Acido niflumico; Acidum niflumicum; NFA; Niflumic acid

$$$$
