
 OpenBabel10282417072D

 44 46  0  0  0  0  0  0  0  0999 V2000
    4.4222   -3.3243    0.0000 C   0  0  0  0  0  0  0  0  0  0  0  0
    8.1567   -3.3243    0.0000 C   0  0  0  0  0  0  0  0  0  0  0  0
    5.2426   -3.4105    0.0000 C   0  0  0  0  0  0  0  0  0  0  0  0
    4.0866   -2.5706    0.0000 C   0  0  0  0  0  0  0  0  0  0  0  0
    8.4923   -2.5706    0.0000 C   0  0  0  0  0  0  0  0  0  0  0  0
    7.3362   -3.4105    0.0000 C   0  0  0  0  0  0  0  0  0  0  0  0
    5.7276   -2.7431    0.0000 C   0  0  0  0  0  0  0  0  0  0  0  0
    4.5715   -1.9032    0.0000 C   0  0  0  0  0  0  0  0  0  0  0  0
    8.0073   -1.9032    0.0000 C   0  0  0  0  0  0  0  0  0  0  0  0
    6.8513   -2.7431    0.0000 C   0  0  0  0  0  0  0  0  0  0  0  0
    5.5750    1.1850    0.0000 C   0  0  0  0  0  0  0  0  0  0  0  0
    7.0039    1.1850    0.0000 C   0  0  0  0  0  0  0  0  0  0  0  0
    5.5750    2.0100    0.0000 C   0  0  0  0  0  0  0  0  0  0  0  0
    7.0039    2.0100    0.0000 C   0  0  0  0  0  0  0  0  0  0  0  0
    5.3920   -1.9894    0.0000 C   0  0  0  0  0  0  0  0  0  0  0  0
    7.1868   -1.9894    0.0000 C   0  0  0  0  0  0  0  0  0  0  0  0
    5.8769   -1.3220    0.0000 C   0  0  0  0  0  0  0  0  0  0  0  0
    6.7019   -1.3220    0.0000 C   0  0  0  0  0  0  0  0  0  0  0  0
    6.2894   -0.0524    0.0000 C   0  0  0  0  0  0  0  0  0  0  0  0
    5.6220   -0.5374    0.0000 N   0  0  0  0  0  0  0  0  0  0  0  0
    6.2894    0.7725    0.0000 N   0  0  0  0  0  0  0  0  0  0  0  0
    4.8605    2.4225    0.0000 O   0  0  0  0  0  0  0  0  0  0  0  0
    7.7184    2.4225    0.0000 O   0  0  0  0  0  0  0  0  0  0  0  0
    6.9569   -0.5374    0.0000 O   0  0  0  0  0  0  0  0  0  0  0  0
    3.8156   -4.1592    0.0000 H   0  0  0  0  0  0  0  0  0  0  0  0
    8.7633   -4.1592    0.0000 H   0  0  0  0  0  0  0  0  0  0  0  0
    5.6623   -4.3533    0.0000 H   0  0  0  0  0  0  0  0  0  0  0  0
    3.0603   -2.4627    0.0000 H   0  0  0  0  0  0  0  0  0  0  0  0
    9.5186   -2.4627    0.0000 H   0  0  0  0  0  0  0  0  0  0  0  0
    6.9164   -4.3533    0.0000 H   0  0  0  0  0  0  0  0  0  0  0  0
    6.7539   -2.8510    0.0000 H   0  0  0  0  0  0  0  0  0  0  0  0
    4.1517   -0.9604    0.0000 H   0  0  0  0  0  0  0  0  0  0  0  0
    8.4270   -0.9604    0.0000 H   0  0  0  0  0  0  0  0  0  0  0  0
    5.8250   -2.8510    0.0000 H   0  0  0  0  0  0  0  0  0  0  0  0
    4.6483    0.6500    0.0000 H   0  0  0  0  0  0  0  0  0  0  0  0
    5.5750    0.1150    0.0000 H   0  0  0  0  0  0  0  0  0  0  0  0
    7.9305    0.6500    0.0000 H   0  0  0  0  0  0  0  0  0  0  0  0
    7.0039    0.1150    0.0000 H   0  0  0  0  0  0  0  0  0  0  0  0
    6.5016    2.5450    0.0000 H   0  0  0  0  0  0  0  0  0  0  0  0
    5.5750    3.0800    0.0000 H   0  0  0  0  0  0  0  0  0  0  0  0
    6.0773    2.5450    0.0000 H   0  0  0  0  0  0  0  0  0  0  0  0
    7.0039    3.0800    0.0000 H   0  0  0  0  0  0  0  0  0  0  0  0
    4.8605    3.3925    0.0000 H   0  0  0  0  0  0  0  0  0  0  0  0
    8.5584    1.9375    0.0000 H   0  0  0  0  0  0  0  0  0  0  0  0
  1 25  1  0  0  0  0
  2 26  1  0  0  0  0
  3  1  2  0  0  0  0
  3 27  1  0  0  0  0
  4  1  1  0  0  0  0
  4 28  1  0  0  0  0
  5  2  2  0  0  0  0
  5 29  1  0  0  0  0
  6  2  1  0  0  0  0
  6 30  1  0  0  0  0
  7  3  1  0  0  0  0
  7 31  1  0  0  0  0
  8  4  2  0  0  0  0
  8 32  1  0  0  0  0
  9  5  1  0  0  0  0
  9 33  1  0  0  0  0
 10  6  2  0  0  0  0
 10 34  1  0  0  0  0
 11 35  1  0  0  0  0
 11 36  1  0  0  0  0
 12 37  1  0  0  0  0
 12 38  1  0  0  0  0
 13 11  1  0  0  0  0
 13 39  1  0  0  0  0
 13 40  1  0  0  0  0
 14 12  1  0  0  0  0
 14 41  1  0  0  0  0
 14 42  1  0  0  0  0
 15  7  2  0  0  0  0
 15  8  1  0  0  0  0
 16  9  2  0  0  0  0
 16 10  1  0  0  0  0
 17 15  1  0  0  0  0
 18 16  1  0  0  0  0
 18 17  2  0  0  0  0
 20 17  1  0  0  0  0
 20 19  2  0  0  0  0
 21 11  1  0  0  0  0
 21 12  1  0  0  0  0
 21 19  1  0  0  0  0
 22 13  1  0  0  0  0
 22 43  1  0  0  0  0
 23 14  1  0  0  0  0
 23 44  1  0  0  0  0
 24 18  1  0  0  0  0
 24 19  1  0  0  0  0
M  END
>  <DRUGBANK_ID>
DB08994

>  <COMMON_NAME>
Ditazole

>  <CAS_NUMBER>
18471-20-0

>  <UNII>
H2BQI5Z8FT

>  <SYNONYMS>
2,2'-(4,5-Diphenyloxazol-2-ylazanediyl)diethanol; Ditazole

$$$$
