
 OpenBabel10282417072D

 38 39  0  0  0  0  0  0  0  0999 V2000
    4.2868    1.6500    0.0000 C   0  0  0  0  0  0  0  0  0  0  0  0
    5.0013    0.4125    0.0000 C   0  0  0  0  0  0  0  0  0  0  0  0
    2.1434   -2.0625    0.0000 C   0  0  0  0  0  0  0  0  0  0  0  0
    0.7145    2.8875    0.0000 C   0  0  0  0  0  0  0  0  0  0  0  0
    2.8579   -1.6500    0.0000 C   0  0  0  0  0  0  0  0  0  0  0  0
    1.4289   -1.6500    0.0000 C   0  0  0  0  0  0  0  0  0  0  0  0
    0.7145    2.0625    0.0000 C   0  0  0  0  0  0  0  0  0  0  0  0
    1.4289    3.3000    0.0000 C   0  0  0  0  0  0  0  0  0  0  0  0
    2.8579   -0.8250    0.0000 C   0  0  0  0  0  0  0  0  0  0  0  0
    1.4289   -0.8250    0.0000 C   0  0  0  0  0  0  0  0  0  0  0  0
    1.4289    1.6500    0.0000 C   0  0  0  0  0  0  0  0  0  0  0  0
    2.1434    2.8875    0.0000 C   0  0  0  0  0  0  0  0  0  0  0  0
    3.5724    0.4125    0.0000 C   0  0  0  0  0  0  0  0  0  0  0  0
    2.1434   -0.4125    0.0000 C   0  0  0  0  0  0  0  0  0  0  0  0
    2.1434    2.0625    0.0000 C   0  0  0  0  0  0  0  0  0  0  0  0
    2.8579    0.8250    0.0000 C   0  0  0  0  0  0  0  0  0  0  0  0
    4.2868    0.8250    0.0000 N   0  0  0  0  0  0  0  0  0  0  0  0
    2.1434    0.4125    0.0000 O   0  0  0  0  0  0  0  0  0  0  0  0
    2.8579    1.6500    0.0000 O   0  0  0  0  0  0  0  0  0  0  0  0
    5.2134    2.1850    0.0000 H   0  0  0  0  0  0  0  0  0  0  0  0
    3.3602    2.1850    0.0000 H   0  0  0  0  0  0  0  0  0  0  0  0
    4.2868    2.7200    0.0000 H   0  0  0  0  0  0  0  0  0  0  0  0
    5.0013   -0.6575    0.0000 H   0  0  0  0  0  0  0  0  0  0  0  0
    5.9279    0.9475    0.0000 H   0  0  0  0  0  0  0  0  0  0  0  0
    5.9280   -0.1225    0.0000 H   0  0  0  0  0  0  0  0  0  0  0  0
    2.1434   -3.0945    0.0000 H   0  0  0  0  0  0  0  0  0  0  0  0
   -0.1792    3.4035    0.0000 H   0  0  0  0  0  0  0  0  0  0  0  0
    3.7516   -2.1660    0.0000 H   0  0  0  0  0  0  0  0  0  0  0  0
    0.5352   -2.1660    0.0000 H   0  0  0  0  0  0  0  0  0  0  0  0
   -0.1792    1.5465    0.0000 H   0  0  0  0  0  0  0  0  0  0  0  0
    1.4289    4.3320    0.0000 H   0  0  0  0  0  0  0  0  0  0  0  0
    3.7516   -0.3090    0.0000 H   0  0  0  0  0  0  0  0  0  0  0  0
    0.5352   -0.3090    0.0000 H   0  0  0  0  0  0  0  0  0  0  0  0
    1.4289    0.6180    0.0000 H   0  0  0  0  0  0  0  0  0  0  0  0
    3.0371    3.4035    0.0000 H   0  0  0  0  0  0  0  0  0  0  0  0
    3.5724   -0.6575    0.0000 H   0  0  0  0  0  0  0  0  0  0  0  0
    4.4991   -0.1225    0.0000 H   0  0  0  0  0  0  0  0  0  0  0  0
    1.9313    1.3600    0.0000 H   0  0  0  0  0  0  0  0  0  0  0  0
  1 20  1  0  0  0  0
  1 21  1  0  0  0  0
  1 22  1  0  0  0  0
  2 23  1  0  0  0  0
  2 24  1  0  0  0  0
  2 25  1  0  0  0  0
  3 26  1  0  0  0  0
  4 27  1  0  0  0  0
  5  3  2  0  0  0  0
  5 28  1  0  0  0  0
  6  3  1  0  0  0  0
  6 29  1  0  0  0  0
  7  4  2  0  0  0  0
  7 30  1  0  0  0  0
  8  4  1  0  0  0  0
  8 31  1  0  0  0  0
  9  5  1  0  0  0  0
  9 32  1  0  0  0  0
 10  6  2  0  0  0  0
 10 33  1  0  0  0  0
 11  7  1  0  0  0  0
 11 34  1  0  0  0  0
 12  8  2  0  0  0  0
 12 35  1  0  0  0  0
 13 36  1  0  0  0  0
 13 37  1  0  0  0  0
 14  9  2  0  0  0  0
 14 10  1  0  0  0  0
 15 11  2  0  0  0  0
 15 12  1  0  0  0  0
 16 13  1  0  0  0  0
 16 38  1  0  0  0  0
 17  1  1  0  0  0  0
 17  2  1  0  0  0  0
 17 13  1  0  0  0  0
 18 14  1  0  0  0  0
 18 16  1  0  0  0  0
 19 15  1  0  0  0  0
 19 16  1  0  0  0  0
M  END
>  <DRUGBANK_ID>
DB13219

>  <COMMON_NAME>
Medifoxamine

>  <CAS_NUMBER>
32359-34-5

>  <UNII>
KWU7C2A1NT

>  <SYNONYMS>
Medifoxamine

$$$$
