
 OpenBabel10282417072D

 27 27  0  0  0  0  0  0  0  0999 V2000
   -0.7145    1.2375    0.0000 C   0  0  0  0  0  0  0  0  0  0  0  0
    0.7145    3.7125    0.0000 C   0  0  0  0  0  0  0  0  0  0  0  0
   -0.7145    2.0625    0.0000 C   0  0  0  0  0  0  0  0  0  0  0  0
   -0.0000    3.3000    0.0000 C   0  0  0  0  0  0  0  0  0  0  0  0
    1.4289   -0.0000    0.0000 C   0  0  0  0  0  0  0  0  0  0  0  0
    1.4289    0.8250    0.0000 C   0  0  0  0  0  0  0  0  0  0  0  0
    0.7145   -0.4125    0.0000 C   0  0  0  0  0  0  0  0  0  0  0  0
    0.0000    0.8250    0.0000 C   0  0  0  0  0  0  0  0  0  0  0  0
    0.7145    1.2375    0.0000 C   0  0  0  0  0  0  0  0  0  0  0  0
    0.7145    2.0625    0.0000 C   0  0  0  0  0  0  0  0  0  0  0  0
    0.0000   -0.0000    0.0000 N   0  0  0  0  0  0  0  0  0  0  0  0
   -0.0000    2.4750    0.0000 N   0  0  0  0  0  0  0  0  0  0  0  0
    1.4289    2.4750    0.0000 O   0  0  0  0  0  0  0  0  0  0  0  0
   -1.6411    0.7025    0.0000 H   0  0  0  0  0  0  0  0  0  0  0  0
    0.2121    0.7025    0.0000 H   0  0  0  0  0  0  0  0  0  0  0  0
   -0.7145    0.1675    0.0000 H   0  0  0  0  0  0  0  0  0  0  0  0
    1.6411    3.1775    0.0000 H   0  0  0  0  0  0  0  0  0  0  0  0
    0.7145    4.7825    0.0000 H   0  0  0  0  0  0  0  0  0  0  0  0
    1.6412    4.2475    0.0000 H   0  0  0  0  0  0  0  0  0  0  0  0
   -1.6411    2.5975    0.0000 H   0  0  0  0  0  0  0  0  0  0  0  0
   -0.7145    3.1325    0.0000 H   0  0  0  0  0  0  0  0  0  0  0  0
   -0.9266    3.8350    0.0000 H   0  0  0  0  0  0  0  0  0  0  0  0
   -0.9266    2.7650    0.0000 H   0  0  0  0  0  0  0  0  0  0  0  0
    2.3226   -0.5160    0.0000 H   0  0  0  0  0  0  0  0  0  0  0  0
    2.3226    1.3410    0.0000 H   0  0  0  0  0  0  0  0  0  0  0  0
    0.7145   -1.4445    0.0000 H   0  0  0  0  0  0  0  0  0  0  0  0
   -0.8937    1.3410    0.0000 H   0  0  0  0  0  0  0  0  0  0  0  0
  1 14  1  0  0  0  0
  1 15  1  0  0  0  0
  1 16  1  0  0  0  0
  2 17  1  0  0  0  0
  2 18  1  0  0  0  0
  2 19  1  0  0  0  0
  3  1  1  0  0  0  0
  3 20  1  0  0  0  0
  3 21  1  0  0  0  0
  4  2  1  0  0  0  0
  4 22  1  0  0  0  0
  4 23  1  0  0  0  0
  5 24  1  0  0  0  0
  6  5  2  0  0  0  0
  6 25  1  0  0  0  0
  7  5  1  0  0  0  0
  7 26  1  0  0  0  0
  8 27  1  0  0  0  0
  9  6  1  0  0  0  0
  9  8  2  0  0  0  0
 10  9  1  0  0  0  0
 11  7  2  0  0  0  0
 11  8  1  0  0  0  0
 12  3  1  0  0  0  0
 12  4  1  0  0  0  0
 12 10  1  0  0  0  0
 13 10  2  0  0  0  0
M  END
>  <DRUGBANK_ID>
DB13655

>  <COMMON_NAME>
Nikethamide

>  <CAS_NUMBER>
59-26-7

>  <UNII>
368IVD6M32

>  <SYNONYMS>
Nikethamide

$$$$
