
 OpenBabel10282417072D

166162  0  0  0  0  0  0  0  0999 V2000
    3.5723    6.6000    0.0000 C   0  0  0  0  0  0  0  0  0  0  0  0
    3.5723    5.7750    0.0000 C   0  0  0  0  0  0  0  0  0  0  0  0
    2.8579    5.3625    0.0000 C   0  0  0  0  0  0  0  0  0  0  0  0
    2.8579    4.5375    0.0000 C   0  0  0  0  0  0  0  0  0  0  0  0
    2.1434    4.1250    0.0000 C   0  0  0  0  0  0  0  0  0  0  0  0
    2.1434    3.3000    0.0000 C   0  0  0  0  0  0  0  0  0  0  0  0
    4.2868    7.0125    0.0000 C   0  0  0  0  0  0  0  0  0  0  0  0
    5.0013    6.6000    0.0000 C   0  0  0  0  0  0  0  0  0  0  0  0
    5.0013    5.7750    0.0000 C   0  0  0  0  0  0  0  0  0  0  0  0
    4.2868    5.3625    0.0000 C   0  0  0  0  0  0  0  0  0  0  0  0
    4.2868    4.5375    0.0000 C   0  0  0  0  0  0  0  0  0  0  0  0
    3.5723    4.1250    0.0000 C   0  0  0  0  0  0  0  0  0  0  0  0
    3.5723    3.3000    0.0000 C   0  0  0  0  0  0  0  0  0  0  0  0
    2.8579    2.8875    0.0000 C   0  0  0  0  0  0  0  0  0  0  0  0
    2.8579    2.0625    0.0000 C   0  0  0  0  0  0  0  0  0  0  0  0
    2.8579    0.4125    0.0000 O   0  0  0  0  0  0  0  0  0  0  0  0
    2.1434    0.8250    0.0000 C   0  0  0  0  0  0  0  0  0  0  0  0
    1.4289    0.4125    0.0000 O   0  5  0  0  0  0  0  0  0  0  0  0
    1.4289    2.8875    0.0000 C   0  0  0  0  0  0  0  0  0  0  0  0
    2.1434    1.6500    0.0000 C   0  0  0  0  0  0  0  0  0  0  0  0
    6.4302   -5.7749    0.0000 C   0  0  0  0  0  0  0  0  0  0  0  0
    5.7157   -5.3624    0.0000 C   0  0  0  0  0  0  0  0  0  0  0  0
    5.7157   -4.5375    0.0000 C   0  0  0  0  0  0  0  0  0  0  0  0
    5.0013   -4.1249    0.0000 C   0  0  0  0  0  0  0  0  0  0  0  0
    5.0013   -3.3000    0.0000 C   0  0  0  0  0  0  0  0  0  0  0  0
    4.2868   -2.8874    0.0000 C   0  0  0  0  0  0  0  0  0  0  0  0
    6.4302   -6.6000    0.0000 C   0  0  0  0  0  0  0  0  0  0  0  0
    5.7157   -7.0125    0.0000 C   0  0  0  0  0  0  0  0  0  0  0  0
    5.0013   -6.6000    0.0000 C   0  0  0  0  0  0  0  0  0  0  0  0
    5.0013   -5.7749    0.0000 C   0  0  0  0  0  0  0  0  0  0  0  0
    4.2868   -5.3624    0.0000 C   0  0  0  0  0  0  0  0  0  0  0  0
    4.2868   -4.5375    0.0000 C   0  0  0  0  0  0  0  0  0  0  0  0
    3.5723   -4.1249    0.0000 C   0  0  0  0  0  0  0  0  0  0  0  0
    3.5723   -3.3000    0.0000 C   0  0  0  0  0  0  0  0  0  0  0  0
    2.8579   -2.8874    0.0000 C   0  0  0  0  0  0  0  0  0  0  0  0
    1.4289   -2.0624    0.0000 O   0  0  0  0  0  0  0  0  0  0  0  0
    2.1434   -1.6499    0.0000 C   0  0  0  0  0  0  0  0  0  0  0  0
    2.1434   -0.8249    0.0000 O   0  5  0  0  0  0  0  0  0  0  0  0
    4.2868   -2.0624    0.0000 C   0  0  0  0  0  0  0  0  0  0  0  0
    2.8579   -2.0624    0.0000 C   0  0  0  0  0  0  0  0  0  0  0  0
   -5.7157   -2.0624    0.0000 C   0  0  0  0  0  0  0  0  0  0  0  0
   -5.0012   -1.6499    0.0000 C   0  0  0  0  0  0  0  0  0  0  0  0
   -4.2868   -2.0624    0.0000 C   0  0  0  0  0  0  0  0  0  0  0  0
   -3.5723   -1.6499    0.0000 C   0  0  0  0  0  0  0  0  0  0  0  0
   -2.8578   -2.0624    0.0000 C   0  0  0  0  0  0  0  0  0  0  0  0
   -2.1433   -1.6499    0.0000 C   0  0  0  0  0  0  0  0  0  0  0  0
   -6.4302   -1.6499    0.0000 C   0  0  0  0  0  0  0  0  0  0  0  0
   -6.4302   -0.8249    0.0000 C   0  0  0  0  0  0  0  0  0  0  0  0
   -5.7157   -0.4124    0.0000 C   0  0  0  0  0  0  0  0  0  0  0  0
   -5.0012   -0.8249    0.0000 C   0  0  0  0  0  0  0  0  0  0  0  0
   -4.2868   -0.4124    0.0000 C   0  0  0  0  0  0  0  0  0  0  0  0
   -3.5723   -0.8249    0.0000 C   0  0  0  0  0  0  0  0  0  0  0  0
   -2.8578   -0.4124    0.0000 C   0  0  0  0  0  0  0  0  0  0  0  0
   -2.1433   -0.8249    0.0000 C   0  0  0  0  0  0  0  0  0  0  0  0
   -1.4289   -0.4124    0.0000 C   0  0  0  0  0  0  0  0  0  0  0  0
    0.0000    0.4125    0.0000 O   0  0  0  0  0  0  0  0  0  0  0  0
    0.0000   -0.4124    0.0000 C   0  0  0  0  0  0  0  0  0  0  0  0
    0.7144   -0.8249    0.0000 O   0  5  0  0  0  0  0  0  0  0  0  0
   -1.4289   -2.0624    0.0000 C   0  0  0  0  0  0  0  0  0  0  0  0
   -0.7144   -0.8249    0.0000 C   0  0  0  0  0  0  0  0  0  0  0  0
    1.4289   -0.4124    0.0000 Al  0  1  0  0  0  0  0  0  0  0  0  0
    2.6457    7.1350    0.0000 H   0  0  0  0  0  0  0  0  0  0  0  0
    2.6457    6.0650    0.0000 H   0  0  0  0  0  0  0  0  0  0  0  0
    4.4990    5.2400    0.0000 H   0  0  0  0  0  0  0  0  0  0  0  0
    3.5723    4.7050    0.0000 H   0  0  0  0  0  0  0  0  0  0  0  0
    1.9312    5.8975    0.0000 H   0  0  0  0  0  0  0  0  0  0  0  0
    1.9313    4.8275    0.0000 H   0  0  0  0  0  0  0  0  0  0  0  0
    3.7845    4.0025    0.0000 H   0  0  0  0  0  0  0  0  0  0  0  0
    2.8579    3.4675    0.0000 H   0  0  0  0  0  0  0  0  0  0  0  0
    1.2168    4.6600    0.0000 H   0  0  0  0  0  0  0  0  0  0  0  0
    1.2168    3.5900    0.0000 H   0  0  0  0  0  0  0  0  0  0  0  0
    3.0700    2.7650    0.0000 H   0  0  0  0  0  0  0  0  0  0  0  0
    2.1434    2.2300    0.0000 H   0  0  0  0  0  0  0  0  0  0  0  0
    4.2868    8.0825    0.0000 H   0  0  0  0  0  0  0  0  0  0  0  0
    5.2134    7.5475    0.0000 H   0  0  0  0  0  0  0  0  0  0  0  0
    5.9279    7.1350    0.0000 H   0  0  0  0  0  0  0  0  0  0  0  0
    5.9279    6.0650    0.0000 H   0  0  0  0  0  0  0  0  0  0  0  0
    5.9279    5.2400    0.0000 H   0  0  0  0  0  0  0  0  0  0  0  0
    5.0013    4.7050    0.0000 H   0  0  0  0  0  0  0  0  0  0  0  0
    3.3602    5.8975    0.0000 H   0  0  0  0  0  0  0  0  0  0  0  0
    3.3602    4.8275    0.0000 H   0  0  0  0  0  0  0  0  0  0  0  0
    5.2134    4.0025    0.0000 H   0  0  0  0  0  0  0  0  0  0  0  0
    4.2868    3.4675    0.0000 H   0  0  0  0  0  0  0  0  0  0  0  0
    2.6457    4.6600    0.0000 H   0  0  0  0  0  0  0  0  0  0  0  0
    2.6457    3.5900    0.0000 H   0  0  0  0  0  0  0  0  0  0  0  0
    4.4990    2.7650    0.0000 H   0  0  0  0  0  0  0  0  0  0  0  0
    3.5723    2.2300    0.0000 H   0  0  0  0  0  0  0  0  0  0  0  0
    1.9312    3.4225    0.0000 H   0  0  0  0  0  0  0  0  0  0  0  0
    1.9313    2.3525    0.0000 H   0  0  0  0  0  0  0  0  0  0  0  0
    3.7845    1.5275    0.0000 H   0  0  0  0  0  0  0  0  0  0  0  0
    2.8579    0.9925    0.0000 H   0  0  0  0  0  0  0  0  0  0  0  0
    0.5023    3.4225    0.0000 H   0  0  0  0  0  0  0  0  0  0  0  0
    1.4289    1.8175    0.0000 H   0  0  0  0  0  0  0  0  0  0  0  0
    0.5022    2.3525    0.0000 H   0  0  0  0  0  0  0  0  0  0  0  0
    1.2168    2.1850    0.0000 H   0  0  0  0  0  0  0  0  0  0  0  0
    1.2168    1.1150    0.0000 H   0  0  0  0  0  0  0  0  0  0  0  0
    7.3568   -5.2399    0.0000 H   0  0  0  0  0  0  0  0  0  0  0  0
    6.4302   -4.7049    0.0000 H   0  0  0  0  0  0  0  0  0  0  0  0
    4.7891   -5.8974    0.0000 H   0  0  0  0  0  0  0  0  0  0  0  0
    4.7891   -4.8274    0.0000 H   0  0  0  0  0  0  0  0  0  0  0  0
    6.6424   -4.0026    0.0000 H   0  0  0  0  0  0  0  0  0  0  0  0
    5.7158   -3.4675    0.0000 H   0  0  0  0  0  0  0  0  0  0  0  0
    4.0746   -4.6598    0.0000 H   0  0  0  0  0  0  0  0  0  0  0  0
    4.0747   -3.5899    0.0000 H   0  0  0  0  0  0  0  0  0  0  0  0
    5.9280   -2.7650    0.0000 H   0  0  0  0  0  0  0  0  0  0  0  0
    5.0014   -2.2300    0.0000 H   0  0  0  0  0  0  0  0  0  0  0  0
    3.3601   -3.4224    0.0000 H   0  0  0  0  0  0  0  0  0  0  0  0
    3.3602   -2.3524    0.0000 H   0  0  0  0  0  0  0  0  0  0  0  0
    7.3568   -7.1350    0.0000 H   0  0  0  0  0  0  0  0  0  0  0  0
    6.4302   -7.6700    0.0000 H   0  0  0  0  0  0  0  0  0  0  0  0
    5.7157   -8.0825    0.0000 H   0  0  0  0  0  0  0  0  0  0  0  0
    4.7890   -7.5475    0.0000 H   0  0  0  0  0  0  0  0  0  0  0  0
    4.0746   -7.1350    0.0000 H   0  0  0  0  0  0  0  0  0  0  0  0
    4.0747   -6.0650    0.0000 H   0  0  0  0  0  0  0  0  0  0  0  0
    5.9279   -5.2399    0.0000 H   0  0  0  0  0  0  0  0  0  0  0  0
    5.0013   -4.7049    0.0000 H   0  0  0  0  0  0  0  0  0  0  0  0
    3.3602   -5.8974    0.0000 H   0  0  0  0  0  0  0  0  0  0  0  0
    3.3602   -4.8274    0.0000 H   0  0  0  0  0  0  0  0  0  0  0  0
    5.2135   -4.0025    0.0000 H   0  0  0  0  0  0  0  0  0  0  0  0
    4.2869   -3.4675    0.0000 H   0  0  0  0  0  0  0  0  0  0  0  0
    2.6456   -4.6599    0.0000 H   0  0  0  0  0  0  0  0  0  0  0  0
    2.6457   -3.5899    0.0000 H   0  0  0  0  0  0  0  0  0  0  0  0
    4.4990   -2.7651    0.0000 H   0  0  0  0  0  0  0  0  0  0  0  0
    3.5724   -2.2300    0.0000 H   0  0  0  0  0  0  0  0  0  0  0  0
    1.9312   -3.4223    0.0000 H   0  0  0  0  0  0  0  0  0  0  0  0
    1.9313   -2.3524    0.0000 H   0  0  0  0  0  0  0  0  0  0  0  0
    5.2134   -1.5274    0.0000 H   0  0  0  0  0  0  0  0  0  0  0  0
    3.3602   -1.5274    0.0000 H   0  0  0  0  0  0  0  0  0  0  0  0
    4.2868   -0.9924    0.0000 H   0  0  0  0  0  0  0  0  0  0  0  0
    3.7845   -1.5274    0.0000 H   0  0  0  0  0  0  0  0  0  0  0  0
    2.8579   -0.9924    0.0000 H   0  0  0  0  0  0  0  0  0  0  0  0
   -5.7157   -3.1324    0.0000 H   0  0  0  0  0  0  0  0  0  0  0  0
   -4.7891   -2.5974    0.0000 H   0  0  0  0  0  0  0  0  0  0  0  0
   -5.0012   -0.5799    0.0000 H   0  0  0  0  0  0  0  0  0  0  0  0
   -4.0745   -1.1149    0.0000 H   0  0  0  0  0  0  0  0  0  0  0  0
   -4.2868   -3.1324    0.0000 H   0  0  0  0  0  0  0  0  0  0  0  0
   -3.3602   -2.5974    0.0000 H   0  0  0  0  0  0  0  0  0  0  0  0
   -3.5723   -0.5799    0.0000 H   0  0  0  0  0  0  0  0  0  0  0  0
   -2.6457   -1.1149    0.0000 H   0  0  0  0  0  0  0  0  0  0  0  0
   -2.8578   -3.1324    0.0000 H   0  0  0  0  0  0  0  0  0  0  0  0
   -1.9312   -2.5974    0.0000 H   0  0  0  0  0  0  0  0  0  0  0  0
   -2.1433   -0.5799    0.0000 H   0  0  0  0  0  0  0  0  0  0  0  0
   -1.2166   -1.1149    0.0000 H   0  0  0  0  0  0  0  0  0  0  0  0
   -7.3568   -2.1849    0.0000 H   0  0  0  0  0  0  0  0  0  0  0  0
   -7.3568   -1.1149    0.0000 H   0  0  0  0  0  0  0  0  0  0  0  0
   -7.3568   -0.2899    0.0000 H   0  0  0  0  0  0  0  0  0  0  0  0
   -6.4302    0.2451    0.0000 H   0  0  0  0  0  0  0  0  0  0  0  0
   -5.7157    0.6576    0.0000 H   0  0  0  0  0  0  0  0  0  0  0  0
   -4.7891    0.1226    0.0000 H   0  0  0  0  0  0  0  0  0  0  0  0
   -5.0012   -1.8949    0.0000 H   0  0  0  0  0  0  0  0  0  0  0  0
   -4.0745   -1.3599    0.0000 H   0  0  0  0  0  0  0  0  0  0  0  0
   -4.2868    0.6576    0.0000 H   0  0  0  0  0  0  0  0  0  0  0  0
   -3.3602    0.1226    0.0000 H   0  0  0  0  0  0  0  0  0  0  0  0
   -3.5723   -1.8949    0.0000 H   0  0  0  0  0  0  0  0  0  0  0  0
   -2.6457   -1.3599    0.0000 H   0  0  0  0  0  0  0  0  0  0  0  0
   -2.8578    0.6576    0.0000 H   0  0  0  0  0  0  0  0  0  0  0  0
   -1.9312    0.1226    0.0000 H   0  0  0  0  0  0  0  0  0  0  0  0
   -2.1433   -1.8949    0.0000 H   0  0  0  0  0  0  0  0  0  0  0  0
   -1.2166   -1.3599    0.0000 H   0  0  0  0  0  0  0  0  0  0  0  0
   -1.4289    0.6576    0.0000 H   0  0  0  0  0  0  0  0  0  0  0  0
   -0.5023    0.1226    0.0000 H   0  0  0  0  0  0  0  0  0  0  0  0
   -1.4289   -3.1324    0.0000 H   0  0  0  0  0  0  0  0  0  0  0  0
   -0.5022   -1.5274    0.0000 H   0  0  0  0  0  0  0  0  0  0  0  0
   -0.5023   -2.5974    0.0000 H   0  0  0  0  0  0  0  0  0  0  0  0
   -0.7144   -1.8949    0.0000 H   0  0  0  0  0  0  0  0  0  0  0  0
    0.2123   -1.3599    0.0000 H   0  0  0  0  0  0  0  0  0  0  0  0
  1  2  1  0  0  0  0
  1 62  1  0  0  0  0
  1 63  1  0  0  0  0
  2  3  1  0  0  0  0
  2 64  1  0  0  0  0
  2 65  1  0  0  0  0
  3  4  1  0  0  0  0
  3 66  1  0  0  0  0
  3 67  1  0  0  0  0
  4  5  1  0  0  0  0
  4 68  1  0  0  0  0
  4 69  1  0  0  0  0
  5  6  1  0  0  0  0
  5 70  1  0  0  0  0
  5 71  1  0  0  0  0
  6 19  1  0  0  0  0
  6 72  1  0  0  0  0
  6 73  1  0  0  0  0
  7  1  1  0  0  0  0
  7  8  1  0  0  0  0
  7 74  1  0  0  0  0
  7 75  1  0  0  0  0
  8  9  1  0  0  0  0
  8 76  1  0  0  0  0
  8 77  1  0  0  0  0
  9 10  1  0  0  0  0
  9 78  1  0  0  0  0
  9 79  1  0  0  0  0
 10 11  1  0  0  0  0
 10 80  1  0  0  0  0
 10 81  1  0  0  0  0
 11 12  1  0  0  0  0
 11 82  1  0  0  0  0
 11 83  1  0  0  0  0
 12 13  1  0  0  0  0
 12 84  1  0  0  0  0
 12 85  1  0  0  0  0
 13 14  1  0  0  0  0
 13 86  1  0  0  0  0
 13 87  1  0  0  0  0
 14 15  1  0  0  0  0
 14 88  1  0  0  0  0
 14 89  1  0  0  0  0
 15 20  1  0  0  0  0
 15 90  1  0  0  0  0
 15 91  1  0  0  0  0
 17 16  2  0  0  0  0
 17 18  1  0  0  0  0
 19 92  1  0  0  0  0
 19 93  1  0  0  0  0
 19 94  1  0  0  0  0
 20 17  1  0  0  0  0
 20 95  1  0  0  0  0
 20 96  1  0  0  0  0
 21 22  1  0  0  0  0
 21 97  1  0  0  0  0
 21 98  1  0  0  0  0
 22 23  1  0  0  0  0
 22 99  1  0  0  0  0
 22100  1  0  0  0  0
 23 24  1  0  0  0  0
 23101  1  0  0  0  0
 23102  1  0  0  0  0
 24 25  1  0  0  0  0
 24103  1  0  0  0  0
 24104  1  0  0  0  0
 25 26  1  0  0  0  0
 25105  1  0  0  0  0
 25106  1  0  0  0  0
 26 39  1  0  0  0  0
 26107  1  0  0  0  0
 26108  1  0  0  0  0
 27 21  1  0  0  0  0
 27 28  1  0  0  0  0
 27109  1  0  0  0  0
 27110  1  0  0  0  0
 28 29  1  0  0  0  0
 28111  1  0  0  0  0
 28112  1  0  0  0  0
 29 30  1  0  0  0  0
 29113  1  0  0  0  0
 29114  1  0  0  0  0
 30 31  1  0  0  0  0
 30115  1  0  0  0  0
 30116  1  0  0  0  0
 31 32  1  0  0  0  0
 31117  1  0  0  0  0
 31118  1  0  0  0  0
 32 33  1  0  0  0  0
 32119  1  0  0  0  0
 32120  1  0  0  0  0
 33 34  1  0  0  0  0
 33121  1  0  0  0  0
 33122  1  0  0  0  0
 34 35  1  0  0  0  0
 34123  1  0  0  0  0
 34124  1  0  0  0  0
 35 40  1  0  0  0  0
 35125  1  0  0  0  0
 35126  1  0  0  0  0
 37 36  2  0  0  0  0
 37 38  1  0  0  0  0
 39127  1  0  0  0  0
 39128  1  0  0  0  0
 39129  1  0  0  0  0
 40 37  1  0  0  0  0
 40130  1  0  0  0  0
 40131  1  0  0  0  0
 41 42  1  0  0  0  0
 41132  1  0  0  0  0
 41133  1  0  0  0  0
 42 43  1  0  0  0  0
 42134  1  0  0  0  0
 42135  1  0  0  0  0
 43 44  1  0  0  0  0
 43136  1  0  0  0  0
 43137  1  0  0  0  0
 44 45  1  0  0  0  0
 44138  1  0  0  0  0
 44139  1  0  0  0  0
 45 46  1  0  0  0  0
 45140  1  0  0  0  0
 45141  1  0  0  0  0
 46 59  1  0  0  0  0
 46142  1  0  0  0  0
 46143  1  0  0  0  0
 47 41  1  0  0  0  0
 47 48  1  0  0  0  0
 47144  1  0  0  0  0
 47145  1  0  0  0  0
 48 49  1  0  0  0  0
 48146  1  0  0  0  0
 48147  1  0  0  0  0
 49 50  1  0  0  0  0
 49148  1  0  0  0  0
 49149  1  0  0  0  0
 50 51  1  0  0  0  0
 50150  1  0  0  0  0
 50151  1  0  0  0  0
 51 52  1  0  0  0  0
 51152  1  0  0  0  0
 51153  1  0  0  0  0
 52 53  1  0  0  0  0
 52154  1  0  0  0  0
 52155  1  0  0  0  0
 53 54  1  0  0  0  0
 53156  1  0  0  0  0
 53157  1  0  0  0  0
 54 55  1  0  0  0  0
 54158  1  0  0  0  0
 54159  1  0  0  0  0
 55 60  1  0  0  0  0
 55160  1  0  0  0  0
 55161  1  0  0  0  0
 57 56  2  0  0  0  0
 57 58  1  0  0  0  0
 59162  1  0  0  0  0
 59163  1  0  0  0  0
 59164  1  0  0  0  0
 60 57  1  0  0  0  0
 60165  1  0  0  0  0
 60166  1  0  0  0  0
M  CHG  4  18  -1  38  -1  58  -1  61   3
M  END
>  <DRUGBANK_ID>
DB11290

>  <COMMON_NAME>
Aluminium tristearate

>  <CAS_NUMBER>
637-12-7

>  <UNII>
U6XF9NP8HM

>  <SYNONYMS>
Aluminium stearate; Aluminum stearate; Aluminum(III) stearate

$$$$
