
 OpenBabel10282417072D

 86 92  0  0  0  0  0  0  0  0999 V2000
   -2.2095    2.8646    0.0000 C   0  0  0  0  0  0  0  0  0  0  0  0
   -1.1171    3.7857    0.0000 C   0  0  0  0  0  0  0  0  0  0  0  0
    3.7079    2.3086    0.0000 C   0  0  0  0  0  0  0  0  0  0  0  0
    1.2678    3.0635    0.0000 C   0  0  0  0  0  0  0  0  0  0  0  0
    3.2002   -3.7857    0.0000 C   0  0  0  0  0  0  0  0  0  0  0  0
   -3.7079    0.1962    0.0000 C   0  0  0  0  0  0  0  0  0  0  0  0
   -3.3056   -0.5240    0.0000 C   0  0  0  0  0  0  0  0  0  0  0  0
   -3.2852    0.9047    0.0000 C   0  0  0  0  0  0  0  0  0  0  0  0
   -2.4807   -0.5358    0.0000 C   0  0  0  0  0  0  0  0  0  0  0  0
   -2.4603    0.8929    0.0000 C   0  0  0  0  0  0  0  0  0  0  0  0
    1.4445   -1.3845    0.0000 C   0  0  0  0  0  0  0  0  0  0  0  0
    2.2193   -1.1014    0.0000 C   0  0  0  0  0  0  0  0  0  0  0  0
    2.2383    2.2665    0.0000 C   0  0  0  0  0  0  0  0  0  0  0  0
    0.2836    0.4382    0.0000 C   0  0  0  0  0  0  0  0  0  0  0  0
    1.9349   -2.7267    0.0000 C   0  0  0  0  0  0  0  0  0  0  0  0
    0.5273   -2.4803    0.0000 C   0  0  0  0  0  0  0  0  0  0  0  0
   -0.1431    2.8795    0.0000 C   0  0  0  0  0  0  0  0  0  0  0  0
    1.7479    0.1819    0.0000 C   0  0  0  0  0  0  0  0  0  0  0  0
   -1.2331    0.1608    0.0000 C   0  0  0  0  0  0  0  0  0  0  0  0
    0.8118   -0.8551    0.0000 C   0  0  0  0  0  0  0  0  0  0  0  0
   -1.3974    3.0098    0.0000 C   0  0  0  0  0  0  0  0  0  0  0  0
    2.9838    1.9132    0.0000 C   0  0  0  0  0  0  0  0  0  0  0  0
    0.6463    2.5210    0.0000 C   0  0  2  0  0  0  0  0  0  0  0  0
   -2.0580    0.1726    0.0000 C   0  0  0  0  0  0  0  0  0  0  0  0
    1.3022   -2.1972    0.0000 C   0  0  0  0  0  0  0  0  0  0  0  0
    0.9540   -0.0424    0.0000 C   0  0  0  0  0  0  0  0  0  0  0  0
    0.2414    1.2622    0.0000 C   0  0  1  0  0  0  0  0  0  0  0  0
    2.8520   -1.6309    0.0000 C   0  0  0  0  0  0  0  0  0  0  0  0
    2.7098   -2.4435    0.0000 C   0  0  0  0  0  0  0  0  0  0  0  0
    1.6719    1.6666    0.0000 C   0  0  2  0  0  0  0  0  0  0  0  0
   -0.1052   -1.9509    0.0000 C   0  0  0  0  0  0  0  0  0  0  0  0
    2.8782    1.0950    0.0000 C   0  0  0  0  0  0  0  0  0  0  0  0
   -0.5653    1.7197    0.0000 C   0  0  2  0  0  0  0  0  0  0  0  0
    2.0674    0.9426    0.0000 C   0  0  1  0  0  0  0  0  0  0  0  0
   -0.8656    2.3790    0.0000 C   0  0  1  0  0  0  0  0  0  0  0  0
   -0.8104    0.8693    0.0000 C   0  0  1  0  0  0  0  0  0  0  0  0
    0.8593    1.8088    0.0000 C   0  0  1  0  0  0  0  0  0  0  0  0
    3.6269   -1.3477    0.0000 O   0  0  0  0  0  0  0  0  0  0  0  0
   -0.8801   -2.2340    0.0000 O   0  0  0  0  0  0  0  0  0  0  0  0
    3.4781    0.5286    0.0000 O   0  0  0  0  0  0  0  0  0  0  0  0
    2.5858    0.3008    0.0000 O   0  0  0  0  0  0  0  0  0  0  0  0
    3.3424   -2.9730    0.0000 O   0  0  0  0  0  0  0  0  0  0  0  0
    0.0369   -1.1382    0.0000 O   0  0  0  0  0  0  0  0  0  0  0  0
   -1.3286    1.1725    0.0000 O   0  0  0  0  0  0  0  0  0  0  0  0
   -1.4890    1.7432    0.0000 O   0  0  0  0  0  0  0  0  0  0  0  0
    0.1607    0.7073    0.0000 O   0  0  0  0  0  0  0  0  0  0  0  0
    0.0247    1.9785    0.0000 H   0  0  0  0  0  0  0  0  0  0  0  0
   -0.4995    0.8994    0.0000 H   0  0  0  0  0  0  0  0  0  0  0  0
    1.1912    0.9961    0.0000 H   0  0  0  0  0  0  0  0  0  0  0  0
   -0.2708    2.4904    0.0000 H   0  0  0  0  0  0  0  0  0  0  0  0
   -2.8747    3.6536    0.0000 H   0  0  0  0  0  0  0  0  0  0  0  0
   -2.5601    1.8940    0.0000 H   0  0  0  0  0  0  0  0  0  0  0  0
   -0.0638    3.9740    0.0000 H   0  0  0  0  0  0  0  0  0  0  0  0
   -1.8068    4.6037    0.0000 H   0  0  0  0  0  0  0  0  0  0  0  0
   -0.7535    4.7920    0.0000 H   0  0  0  0  0  0  0  0  0  0  0  0
    4.6216    1.7517    0.0000 H   0  0  0  0  0  0  0  0  0  0  0  0
    3.7334    3.3783    0.0000 H   0  0  0  0  0  0  0  0  0  0  0  0
    4.6470    2.8214    0.0000 H   0  0  0  0  0  0  0  0  0  0  0  0
    2.2802    2.7172    0.0000 H   0  0  0  0  0  0  0  0  0  0  0  0
    1.0615    4.1134    0.0000 H   0  0  0  0  0  0  0  0  0  0  0  0
    2.0739    3.7671    0.0000 H   0  0  0  0  0  0  0  0  0  0  0  0
    2.1952   -4.1530    0.0000 H   0  0  0  0  0  0  0  0  0  0  0  0
    4.0208   -4.4724    0.0000 H   0  0  0  0  0  0  0  0  0  0  0  0
    3.0158   -4.8397    0.0000 H   0  0  0  0  0  0  0  0  0  0  0  0
   -4.7398    0.2109    0.0000 H   0  0  0  0  0  0  0  0  0  0  0  0
   -3.8343   -1.4103    0.0000 H   0  0  0  0  0  0  0  0  0  0  0  0
   -3.7884    1.8057    0.0000 H   0  0  0  0  0  0  0  0  0  0  0  0
   -1.9776   -1.4368    0.0000 H   0  0  0  0  0  0  0  0  0  0  0  0
   -1.9316    1.7792    0.0000 H   0  0  0  0  0  0  0  0  0  0  0  0
    0.6531   -0.7221    0.0000 H   0  0  0  0  0  0  0  0  0  0  0  0
    2.3972   -0.0849    0.0000 H   0  0  0  0  0  0  0  0  0  0  0  0
    2.0477    3.2807    0.0000 H   0  0  0  0  0  0  0  0  0  0  0  0
   -0.6221   -0.0566    0.0000 H   0  0  0  0  0  0  0  0  0  0  0  0
    1.7570   -3.7433    0.0000 H   0  0  0  0  0  0  0  0  0  0  0  0
    0.3428   -3.5343    0.0000 H   0  0  0  0  0  0  0  0  0  0  0  0
   -0.4777   -2.8475    0.0000 H   0  0  0  0  0  0  0  0  0  0  0  0
   -0.2390    3.9452    0.0000 H   0  0  0  0  0  0  0  0  0  0  0  0
   -1.1123    3.3329    0.0000 H   0  0  0  0  0  0  0  0  0  0  0  0
    2.4569   -0.6195    0.0000 H   0  0  0  0  0  0  0  0  0  0  0  0
    2.8037    0.3559    0.0000 H   0  0  0  0  0  0  0  0  0  0  0  0
   -0.7114   -0.7734    0.0000 H   0  0  0  0  0  0  0  0  0  0  0  0
   -0.1632    0.1455    0.0000 H   0  0  0  0  0  0  0  0  0  0  0  0
    1.6323   -1.5418    0.0000 H   0  0  0  0  0  0  0  0  0  0  0  0
    0.6273   -1.9091    0.0000 H   0  0  0  0  0  0  0  0  0  0  0  0
    4.3455   -1.9490    0.0000 H   0  0  0  0  0  0  0  0  0  0  0  0
    2.2371   -0.6043    0.0000 H   0  0  0  0  0  0  0  0  0  0  0  0
  1 51  1  0  0  0  0
  1 52  1  0  0  0  0
  2 53  1  0  0  0  0
  2 54  1  0  0  0  0
  2 55  1  0  0  0  0
  3 56  1  0  0  0  0
  3 57  1  0  0  0  0
  3 58  1  0  0  0  0
  4 59  1  0  0  0  0
  4 60  1  0  0  0  0
  4 61  1  0  0  0  0
  5 62  1  0  0  0  0
  5 63  1  0  0  0  0
  5 64  1  0  0  0  0
  6 65  1  0  0  0  0
  7  6  2  0  0  0  0
  7 66  1  0  0  0  0
  8  6  1  0  0  0  0
  8 67  1  0  0  0  0
  9  7  1  0  0  0  0
  9 68  1  0  0  0  0
 10  8  2  0  0  0  0
 10 69  1  0  0  0  0
 11 70  1  0  0  0  0
 12 11  2  0  0  0  0
 12 71  1  0  0  0  0
 13 72  1  0  0  0  0
 14 73  1  0  0  0  0
 15 74  1  0  0  0  0
 16 75  1  0  0  0  0
 16 76  1  0  0  0  0
 17 77  1  0  0  0  0
 17 78  1  0  0  0  0
 18 79  1  0  0  0  0
 18 80  1  0  0  0  0
 19 81  1  0  0  0  0
 19 82  1  0  0  0  0
 20 83  1  0  0  0  0
 20 84  1  0  0  0  0
 21  1  2  0  0  0  0
 21  2  1  0  0  0  0
 22  3  1  0  0  0  0
 22 13  2  0  0  0  0
 23  4  1  0  0  0  0
 23 17  1  0  0  0  0
 23 47  1  6  0  0  0
 24  9  2  0  0  0  0
 24 10  1  0  0  0  0
 24 19  1  0  0  0  0
 25 11  1  0  0  0  0
 25 15  2  0  0  0  0
 25 16  1  0  0  0  0
 26 14  2  0  0  0  0
 26 18  1  0  0  0  0
 26 20  1  0  0  0  0
 27 14  1  0  0  0  0
 27 33  1  0  0  0  0
 27 48  1  6  0  0  0
 28 12  1  0  0  0  0
 29 15  1  0  0  0  0
 29 28  2  0  0  0  0
 30 13  1  0  0  0  0
 30 34  1  0  0  0  0
 30 49  1  1  0  0  0
 31 16  1  0  0  0  0
 32 22  1  0  0  0  0
 33 35  1  0  0  0  0
 33 44  1  0  0  0  0
 33 50  1  6  0  0  0
 34 18  1  0  0  0  0
 34 32  1  0  0  0  0
 34 41  1  6  0  0  0
 35 17  1  0  0  0  0
 35 21  1  6  0  0  0
 35 45  1  0  0  0  0
 36 19  1  1  0  0  0
 36 44  1  0  0  0  0
 36 45  1  0  0  0  0
 36 46  1  0  0  0  0
 37 23  1  0  0  0  0
 37 27  1  0  0  0  0
 37 30  1  0  0  0  0
 37 46  1  1  0  0  0
 38 28  1  0  0  0  0
 38 85  1  0  0  0  0
 39 31  2  0  0  0  0
 40 32  2  0  0  0  0
 41 86  1  0  0  0  0
 42  5  1  0  0  0  0
 42 29  1  0  0  0  0
 43 20  1  0  0  0  0
 43 31  1  0  0  0  0
M  END
>  <DRUGBANK_ID>
DB06515

>  <COMMON_NAME>
Resiniferatoxin

>  <CAS_NUMBER>
57444-62-9

>  <UNII>
A5O6P1UL4I

>  <SYNONYMS>
Resiniferatoxin; RTX

$$$$
