D13
 OpenBabel10282417072D

 43 46  0  0  0  0  0  0  0  0999 V2000
   -0.1446    0.2750    0.0000 C   0  0  0  0  0  0  0  0  0  0  0  0
    0.5228   -0.2099    0.0000 N   0  0  0  0  0  0  0  0  0  0  0  0
    0.2679   -0.9946    0.0000 C   0  0  0  0  0  0  0  0  0  0  0  0
   -0.5571   -0.9946    0.0000 C   0  0  0  0  0  0  0  0  0  0  0  0
   -0.8120   -0.2099    0.0000 N   0  0  0  0  0  0  0  0  0  0  0  0
    0.7528   -1.6620    0.0000 C   0  0  0  0  0  0  0  0  0  0  0  0
    1.5733   -1.5758    0.0000 C   0  0  0  0  0  0  0  0  0  0  0  0
    2.0582   -2.2432    0.0000 C   0  0  0  0  0  0  0  0  0  0  0  0
    1.7227   -2.9969    0.0000 N   0  0  0  0  0  0  0  0  0  0  0  0
    0.9022   -3.0831    0.0000 C   0  0  0  0  0  0  0  0  0  0  0  0
    0.4173   -2.4157    0.0000 C   0  0  0  0  0  0  0  0  0  0  0  0
   -1.0420   -1.6620    0.0000 C   0  0  0  0  0  0  0  0  0  0  0  0
   -0.7065   -2.4157    0.0000 C   0  0  0  0  0  0  0  0  0  0  0  0
   -1.1914   -3.0831    0.0000 C   0  0  0  0  0  0  0  0  0  0  0  0
   -0.8558   -3.8368    0.0000 I   0  0  0  0  0  0  0  0  0  0  0  0
   -2.0119   -2.9969    0.0000 C   0  0  0  0  0  0  0  0  0  0  0  0
   -2.3474   -2.2432    0.0000 C   0  0  0  0  0  0  0  0  0  0  0  0
   -1.8625   -1.5758    0.0000 C   0  0  0  0  0  0  0  0  0  0  0  0
   -0.1446    1.1000    0.0000 C   0  0  0  0  0  0  0  0  0  0  0  0
   -0.8591    1.5125    0.0000 C   0  0  0  0  0  0  0  0  0  0  0  0
   -0.8591    2.3375    0.0000 C   0  0  0  0  0  0  0  0  0  0  0  0
   -0.1446    2.7500    0.0000 C   0  0  0  0  0  0  0  0  0  0  0  0
    0.5699    2.3375    0.0000 C   0  0  0  0  0  0  0  0  0  0  0  0
    0.5699    1.5125    0.0000 C   0  0  0  0  0  0  0  0  0  0  0  0
   -0.1446    3.5750    0.0000 S   0  0  2  0  0  0  0  0  0  0  0  0
   -0.8591    3.9875    0.0000 O   0  0  0  0  0  0  0  0  0  0  0  0
    0.5699    3.9875    0.0000 C   0  0  0  0  0  0  0  0  0  0  0  0
   -1.7483    0.0944    0.0000 H   0  0  0  0  0  0  0  0  0  0  0  0
    1.9931   -0.6330    0.0000 H   0  0  0  0  0  0  0  0  0  0  0  0
    3.0845   -2.1353    0.0000 H   0  0  0  0  0  0  0  0  0  0  0  0
    0.4824   -4.0259    0.0000 H   0  0  0  0  0  0  0  0  0  0  0  0
   -0.6090   -2.5236    0.0000 H   0  0  0  0  0  0  0  0  0  0  0  0
    0.3198   -2.5236    0.0000 H   0  0  0  0  0  0  0  0  0  0  0  0
   -2.6185   -3.8318    0.0000 H   0  0  0  0  0  0  0  0  0  0  0  0
   -3.3737   -2.1353    0.0000 H   0  0  0  0  0  0  0  0  0  0  0  0
   -2.2823   -0.6330    0.0000 H   0  0  0  0  0  0  0  0  0  0  0  0
   -1.7528    0.9965    0.0000 H   0  0  0  0  0  0  0  0  0  0  0  0
   -1.7528    2.8535    0.0000 H   0  0  0  0  0  0  0  0  0  0  0  0
    1.4636    2.8535    0.0000 H   0  0  0  0  0  0  0  0  0  0  0  0
    1.4636    0.9965    0.0000 H   0  0  0  0  0  0  0  0  0  0  0  0
    1.4965    3.4525    0.0000 H   0  0  0  0  0  0  0  0  0  0  0  0
    0.5699    5.0575    0.0000 H   0  0  0  0  0  0  0  0  0  0  0  0
    1.4966    4.5225    0.0000 H   0  0  0  0  0  0  0  0  0  0  0  0
  1  2  2  0  0  0  0
  1  5  1  0  0  0  0
  1 19  1  0  0  0  0
  2  3  1  0  0  0  0
  3  4  2  0  0  0  0
  3  6  1  0  0  0  0
  4  5  1  0  0  0  0
  4 12  1  0  0  0  0
  5 28  1  0  0  0  0
  6  7  2  0  0  0  0
  6 11  1  0  0  0  0
  7  8  1  0  0  0  0
  7 29  1  0  0  0  0
  8  9  2  0  0  0  0
  8 30  1  0  0  0  0
  9 10  1  0  0  0  0
 10 11  2  0  0  0  0
 10 31  1  0  0  0  0
 11 32  1  0  0  0  0
 12 13  2  0  0  0  0
 12 18  1  0  0  0  0
 13 14  1  0  0  0  0
 13 33  1  0  0  0  0
 14 15  1  0  0  0  0
 14 16  2  0  0  0  0
 16 17  1  0  0  0  0
 16 34  1  0  0  0  0
 17 18  2  0  0  0  0
 17 35  1  0  0  0  0
 18 36  1  0  0  0  0
 19 20  2  0  0  0  0
 19 24  1  0  0  0  0
 20 21  1  0  0  0  0
 20 37  1  0  0  0  0
 21 22  2  0  0  0  0
 21 38  1  0  0  0  0
 22 23  1  0  0  0  0
 22 25  1  0  0  0  0
 23 24  2  0  0  0  0
 23 39  1  0  0  0  0
 24 40  1  0  0  0  0
 25 26  2  6  0  0  0
 25 27  1  0  0  0  0
 27 41  1  0  0  0  0
 27 42  1  0  0  0  0
 27 43  1  0  0  0  0
M  END
>  <DRUGBANK_ID>
DB07607

>  <COMMON_NAME>
4-[5-(3-IODO-PHENYL)-2-(4-METHANESULFINYL-PHENYL)-1H-IMIDAZOL-4-YL]-PYRIDINE

$$$$
