DEM
 OpenBabel10282417072D

 37 36  0  0  0  0  0  0  0  0999 V2000
   -3.9449    0.1906    0.0000 C   0  0  0  0  0  0  0  0  0  0  0  0
   -2.5159    0.1906    0.0000 C   0  0  0  0  0  0  0  0  0  0  0  0
   -1.8013   -0.2219    0.0000 C   0  0  0  0  0  0  0  0  0  0  0  0
   -1.0868    0.1906    0.0000 C   0  0  0  0  0  0  0  0  0  0  0  0
   -0.3723   -0.2219    0.0000 C   0  0  0  0  0  0  0  0  0  0  0  0
    0.3422    0.1906    0.0000 C   0  0  0  0  0  0  0  0  0  0  0  0
    1.0568   -0.2219    0.0000 C   0  0  0  0  0  0  0  0  0  0  0  0
    1.7713    0.1906    0.0000 C   0  0  0  0  0  0  0  0  0  0  0  0
    2.4858   -0.2219    0.0000 C   0  0  0  0  0  0  0  0  0  0  0  0
    3.2003    0.1906    0.0000 C   0  0  0  0  0  0  0  0  0  0  0  0
    3.9149   -0.2219    0.0000 C   0  0  0  0  0  0  0  0  0  0  0  0
   -3.2303   -0.2219    0.0000 O   0  0  0  0  0  0  0  0  0  0  0  0
   -4.6594   -0.2219    0.0000 O   0  0  0  0  0  0  0  0  0  0  0  0
   -3.9449    1.2606    0.0000 H   0  0  0  0  0  0  0  0  0  0  0  0
   -4.8716    0.7256    0.0000 H   0  0  0  0  0  0  0  0  0  0  0  0
   -2.5160    1.2606    0.0000 H   0  0  0  0  0  0  0  0  0  0  0  0
   -3.4426    0.7256    0.0000 H   0  0  0  0  0  0  0  0  0  0  0  0
   -1.8013   -1.2919    0.0000 H   0  0  0  0  0  0  0  0  0  0  0  0
   -0.8746   -0.7569    0.0000 H   0  0  0  0  0  0  0  0  0  0  0  0
   -1.0868    1.2606    0.0000 H   0  0  0  0  0  0  0  0  0  0  0  0
   -0.1602    0.7256    0.0000 H   0  0  0  0  0  0  0  0  0  0  0  0
   -0.3723   -1.2919    0.0000 H   0  0  0  0  0  0  0  0  0  0  0  0
    0.5543   -0.7569    0.0000 H   0  0  0  0  0  0  0  0  0  0  0  0
    0.3422    1.2606    0.0000 H   0  0  0  0  0  0  0  0  0  0  0  0
    1.2688    0.7257    0.0000 H   0  0  0  0  0  0  0  0  0  0  0  0
    1.0568   -1.2919    0.0000 H   0  0  0  0  0  0  0  0  0  0  0  0
    1.9835   -0.7569    0.0000 H   0  0  0  0  0  0  0  0  0  0  0  0
    1.7713    1.2606    0.0000 H   0  0  0  0  0  0  0  0  0  0  0  0
    2.6979    0.7256    0.0000 H   0  0  0  0  0  0  0  0  0  0  0  0
    2.4858   -1.2919    0.0000 H   0  0  0  0  0  0  0  0  0  0  0  0
    3.4124   -0.7569    0.0000 H   0  0  0  0  0  0  0  0  0  0  0  0
    3.2003    1.2606    0.0000 H   0  0  0  0  0  0  0  0  0  0  0  0
    4.1269    0.7257    0.0000 H   0  0  0  0  0  0  0  0  0  0  0  0
    3.9150   -1.2919    0.0000 H   0  0  0  0  0  0  0  0  0  0  0  0
    4.8415    0.3132    0.0000 H   0  0  0  0  0  0  0  0  0  0  0  0
    4.8416   -0.7568    0.0000 H   0  0  0  0  0  0  0  0  0  0  0  0
   -5.4994    0.2631    0.0000 H   0  0  0  0  0  0  0  0  0  0  0  0
  1 12  1  0  0  0  0
  1 13  1  0  0  0  0
  1 14  1  0  0  0  0
  1 15  1  0  0  0  0
  2  3  1  0  0  0  0
  2 12  1  0  0  0  0
  2 16  1  0  0  0  0
  2 17  1  0  0  0  0
  3  4  1  0  0  0  0
  3 18  1  0  0  0  0
  3 19  1  0  0  0  0
  4  5  1  0  0  0  0
  4 20  1  0  0  0  0
  4 21  1  0  0  0  0
  5  6  1  0  0  0  0
  5 22  1  0  0  0  0
  5 23  1  0  0  0  0
  6  7  1  0  0  0  0
  6 24  1  0  0  0  0
  6 25  1  0  0  0  0
  7  8  1  0  0  0  0
  7 26  1  0  0  0  0
  7 27  1  0  0  0  0
  8  9  1  0  0  0  0
  8 28  1  0  0  0  0
  8 29  1  0  0  0  0
  9 10  1  0  0  0  0
  9 30  1  0  0  0  0
  9 31  1  0  0  0  0
 10 11  1  0  0  0  0
 10 32  1  0  0  0  0
 10 33  1  0  0  0  0
 11 34  1  0  0  0  0
 11 35  1  0  0  0  0
 11 36  1  0  0  0  0
 13 37  1  0  0  0  0
M  END
>  <DRUGBANK_ID>
DB04082

>  <SECONDARY_ACCESSION_NUMBERS>
EXPT01158

>  <COMMON_NAME>
Decyloxy-Methanol

$$$$
