973
 OpenBabel10282417072D

 38 41  0  0  0  0  0  0  0  0999 V2000
   -2.2344   -2.4531    0.0000 C   0  0  0  0  0  0  0  0  0  0  0  0
   -2.2344   -1.6281    0.0000 C   0  0  0  0  0  0  0  0  0  0  0  0
   -1.5199   -1.2156    0.0000 C   0  0  0  0  0  0  0  0  0  0  0  0
   -0.8055   -1.6281    0.0000 C   0  0  0  0  0  0  0  0  0  0  0  0
   -0.8055   -2.4531    0.0000 C   0  0  0  0  0  0  0  0  0  0  0  0
   -1.5199   -2.8656    0.0000 C   0  0  0  0  0  0  0  0  0  0  0  0
   -0.0910   -2.8656    0.0000 C   0  0  0  0  0  0  0  0  0  0  0  0
    0.6235   -2.4531    0.0000 C   0  0  0  0  0  0  0  0  0  0  0  0
    0.6235   -1.6281    0.0000 C   0  0  0  0  0  0  0  0  0  0  0  0
   -0.0910   -1.2156    0.0000 C   0  0  0  0  0  0  0  0  0  0  0  0
   -0.0910   -0.3906    0.0000 C   0  0  0  0  0  0  0  0  0  0  0  0
    0.6235    0.0219    0.0000 C   0  0  0  0  0  0  0  0  0  0  0  0
    0.7097    0.8424    0.0000 C   0  0  0  0  0  0  0  0  0  0  0  0
    1.5167    1.0139    0.0000 C   0  0  0  0  0  0  0  0  0  0  0  0
    1.9292    0.2994    0.0000 C   0  0  0  0  0  0  0  0  0  0  0  0
    2.7497    0.2132    0.0000 O   0  0  0  0  0  0  0  0  0  0  0  0
    1.3771   -0.3137    0.0000 O   0  0  0  0  0  0  0  0  0  0  0  0
    1.8522    1.7676    0.0000 C   0  0  0  0  0  0  0  0  0  0  0  0
    1.3673    2.4350    0.0000 C   0  0  0  0  0  0  0  0  0  0  0  0
    1.7029    3.1887    0.0000 C   0  0  0  0  0  0  0  0  0  0  0  0
    2.5233    3.2749    0.0000 C   0  0  0  0  0  0  0  0  0  0  0  0
    3.0083    2.6075    0.0000 C   0  0  0  0  0  0  0  0  0  0  0  0
    2.6727    1.8538    0.0000 C   0  0  0  0  0  0  0  0  0  0  0  0
    2.8589    4.0286    0.0000 Cl  0  0  0  0  0  0  0  0  0  0  0  0
    0.0966    1.3944    0.0000 O   0  0  0  0  0  0  0  0  0  0  0  0
   -3.1281   -2.9691    0.0000 H   0  0  0  0  0  0  0  0  0  0  0  0
   -3.1281   -1.1121    0.0000 H   0  0  0  0  0  0  0  0  0  0  0  0
   -1.5199   -0.1836    0.0000 H   0  0  0  0  0  0  0  0  0  0  0  0
   -1.5199   -3.8976    0.0000 H   0  0  0  0  0  0  0  0  0  0  0  0
   -0.0910   -3.8976    0.0000 H   0  0  0  0  0  0  0  0  0  0  0  0
    1.5172   -2.9691    0.0000 H   0  0  0  0  0  0  0  0  0  0  0  0
    1.5172   -1.1121    0.0000 H   0  0  0  0  0  0  0  0  0  0  0  0
   -0.9847    0.1254    0.0000 H   0  0  0  0  0  0  0  0  0  0  0  0
    0.3410    2.3271    0.0000 H   0  0  0  0  0  0  0  0  0  0  0  0
    1.0963    4.0236    0.0000 H   0  0  0  0  0  0  0  0  0  0  0  0
    4.0346    2.7154    0.0000 H   0  0  0  0  0  0  0  0  0  0  0  0
    3.2793    1.0189    0.0000 H   0  0  0  0  0  0  0  0  0  0  0  0
    0.2914    2.3109    0.0000 H   0  0  0  0  0  0  0  0  0  0  0  0
  1  2  2  0  0  0  0
  1  6  1  0  0  0  0
  1 26  1  0  0  0  0
  2  3  1  0  0  0  0
  2 27  1  0  0  0  0
  3  4  2  0  0  0  0
  3 28  1  0  0  0  0
  4 10  1  0  0  0  0
  4  5  1  0  0  0  0
  5  7  1  0  0  0  0
  5  6  2  0  0  0  0
  6 29  1  0  0  0  0
  7  8  2  0  0  0  0
  7 30  1  0  0  0  0
  8  9  1  0  0  0  0
  8 31  1  0  0  0  0
  9 10  2  0  0  0  0
  9 32  1  0  0  0  0
 10 11  1  0  0  0  0
 11 12  2  0  0  0  0
 11 33  1  0  0  0  0
 12 13  1  0  0  0  0
 12 17  1  0  0  0  0
 13 25  1  0  0  0  0
 13 14  2  0  0  0  0
 14 18  1  0  0  0  0
 14 15  1  0  0  0  0
 15 17  1  0  0  0  0
 15 16  2  0  0  0  0
 18 19  1  0  0  0  0
 18 23  2  0  0  0  0
 19 20  2  0  0  0  0
 19 34  1  0  0  0  0
 20 21  1  0  0  0  0
 20 35  1  0  0  0  0
 21 24  1  0  0  0  0
 21 22  2  0  0  0  0
 22 23  1  0  0  0  0
 22 36  1  0  0  0  0
 23 37  1  0  0  0  0
 25 38  1  0  0  0  0
M  END
>  <DRUGBANK_ID>
DB07296

>  <COMMON_NAME>
(5Z)-3-(4-CHLOROPHENYL)-4-HYDROXY-5-(1-NAPHTHYLMETHYLENE)FURAN-2(5H)-ONE

$$$$
