
 OpenBabel10282417072D

 45 47  0  0  0  0  0  0  0  0999 V2000
   -2.8650    1.2297    0.0000 C   0  0  0  0  0  0  0  0  0  0  0  0
   -2.8661    0.4024    0.0000 C   0  0  0  0  0  0  0  0  0  0  0  0
   -2.1513   -0.0104    0.0000 C   0  0  0  0  0  0  0  0  0  0  0  0
   -2.1531    1.6425    0.0000 C   0  0  0  0  0  0  0  0  0  0  0  0
   -1.4377    1.2334    0.0000 C   0  0  0  0  0  0  0  0  0  0  0  0
   -1.4343    0.4003    0.0000 C   0  0  0  0  0  0  0  0  0  0  0  0
   -0.7151   -0.0109    0.0000 N   0  0  0  0  0  0  0  0  0  0  0  0
   -0.7220    1.6552    0.0000 C   0  0  0  0  0  0  0  0  0  0  0  0
   -0.7265    2.4801    0.0000 N   0  0  0  0  0  0  0  0  0  0  0  0
   -2.1528   -0.8354    0.0000 C   0  0  0  0  0  0  0  0  0  0  0  0
    0.0092    1.2401    0.0000 C   0  0  0  0  0  0  0  0  0  0  0  0
    0.0035    0.4040    0.0000 N   0  0  0  0  0  0  0  0  0  0  0  0
    0.7236    1.6527    0.0000 C   0  0  0  0  0  0  0  0  0  0  0  0
    1.4381    1.2404    0.0000 N   0  0  0  0  0  0  0  0  0  0  0  0
    0.7234    2.4777    0.0000 O   0  0  0  0  0  0  0  0  0  0  0  0
    2.1525    1.6530    0.0000 C   0  0  0  0  0  0  0  0  0  0  0  0
    2.8671    1.2407    0.0000 C   0  0  0  0  0  0  0  0  0  0  0  0
    3.5815    1.6533    0.0000 C   0  0  0  0  0  0  0  0  0  0  0  0
   -2.8691   -1.2413    0.0000 C   0  0  0  0  0  0  0  0  0  0  0  0
   -2.8709   -2.0655    0.0000 C   0  0  0  0  0  0  0  0  0  0  0  0
   -2.1567   -2.4801    0.0000 C   0  0  0  0  0  0  0  0  0  0  0  0
   -1.4391   -2.0645    0.0000 C   0  0  0  0  0  0  0  0  0  0  0  0
   -1.4409   -1.2416    0.0000 C   0  0  0  0  0  0  0  0  0  0  0  0
   -3.5815   -0.8252    0.0000 O   0  0  0  0  0  0  0  0  0  0  0  0
   -3.5773   -0.0002    0.0000 C   0  0  0  0  0  0  0  0  0  0  0  0
   -0.7278   -0.8265    0.0000 F   0  0  0  0  0  0  0  0  0  0  0  0
   -3.7589    1.7455    0.0000 H   0  0  0  0  0  0  0  0  0  0  0  0
   -3.7602   -0.1130    0.0000 H   0  0  0  0  0  0  0  0  0  0  0  0
   -2.1562    2.6745    0.0000 H   0  0  0  0  0  0  0  0  0  0  0  0
    0.1234    2.9770    0.0000 H   0  0  0  0  0  0  0  0  0  0  0  0
   -1.5818    2.9677    0.0000 H   0  0  0  0  0  0  0  0  0  0  0  0
    1.4383    0.2559    0.0000 H   0  0  0  0  0  0  0  0  0  0  0  0
    2.1523    2.7230    0.0000 H   0  0  0  0  0  0  0  0  0  0  0  0
    3.0790    2.1882    0.0000 H   0  0  0  0  0  0  0  0  0  0  0  0
    2.8673    0.1707    0.0000 H   0  0  0  0  0  0  0  0  0  0  0  0
    3.7938    0.7059    0.0000 H   0  0  0  0  0  0  0  0  0  0  0  0
    4.5082    1.1184    0.0000 H   0  0  0  0  0  0  0  0  0  0  0  0
    3.5813    2.7233    0.0000 H   0  0  0  0  0  0  0  0  0  0  0  0
    4.5081    2.1884    0.0000 H   0  0  0  0  0  0  0  0  0  0  0  0
   -3.7658   -2.5795    0.0000 H   0  0  0  0  0  0  0  0  0  0  0  0
   -2.1572   -3.5121    0.0000 H   0  0  0  0  0  0  0  0  0  0  0  0
   -0.5445   -2.5789    0.0000 H   0  0  0  0  0  0  0  0  0  0  0  0
   -2.6479    0.5301    0.0000 H   0  0  0  0  0  0  0  0  0  0  0  0
   -4.5012    0.5395    0.0000 H   0  0  0  0  0  0  0  0  0  0  0  0
   -3.5719    1.0698    0.0000 H   0  0  0  0  0  0  0  0  0  0  0  0
  1  2  2  0  0  0  0
  1 27  1  0  0  0  0
  2  3  1  0  0  0  0
  2 28  1  0  0  0  0
  3  6  2  0  0  0  0
  3 10  1  0  0  0  0
  4  1  1  0  0  0  0
  4 29  1  0  0  0  0
  5  8  1  0  0  0  0
  5  4  2  0  0  0  0
  5  6  1  0  0  0  0
  6  7  1  0  0  0  0
  7 12  2  0  0  0  0
  8  9  1  0  0  0  0
  9 30  1  0  0  0  0
  9 31  1  0  0  0  0
 10 19  1  0  0  0  0
 11 13  1  0  0  0  0
 11  8  2  0  0  0  0
 11 12  1  0  0  0  0
 13 14  1  0  0  0  0
 13 15  2  0  0  0  0
 14 16  1  0  0  0  0
 14 32  1  0  0  0  0
 16 17  1  0  0  0  0
 16 33  1  0  0  0  0
 16 34  1  0  0  0  0
 17 18  1  0  0  0  0
 17 35  1  0  0  0  0
 17 36  1  0  0  0  0
 18 37  1  0  0  0  0
 18 38  1  0  0  0  0
 18 39  1  0  0  0  0
 19 20  2  0  0  0  0
 19 24  1  0  0  0  0
 20 21  1  0  0  0  0
 20 40  1  0  0  0  0
 21 22  2  0  0  0  0
 21 41  1  0  0  0  0
 22 23  1  0  0  0  0
 22 42  1  0  0  0  0
 23 10  2  0  0  0  0
 23 26  1  0  0  0  0
 24 25  1  0  0  0  0
 25 43  1  0  0  0  0
 25 44  1  0  0  0  0
 25 45  1  0  0  0  0
M  END
>  <DRUGBANK_ID>
DB13994

>  <COMMON_NAME>
AZD-7325

>  <CAS_NUMBER>
942437-37-8

>  <UNII>
KNM216XOUH

$$$$
