
 OpenBabel10282417072D

 41 43  0  0  1  0  0  0  0  0999 V2000
   18.8939   -5.1899    0.0000 C   0  0  0  0  0  0  0  0  0  0  0  0
   18.1188   -5.1899    0.0000 C   0  0  1  0  0  0  0  0  0  0  0  0
   19.3779   -4.6066    0.0000 C   0  0  0  0  0  0  0  0  0  0  0  0
   15.2537   -4.3585    0.0000 C   0  0  0  0  0  0  0  0  0  0  0  0
   15.2524   -5.1858    0.0000 C   0  0  0  0  0  0  0  0  0  0  0  0
   15.9671   -5.5985    0.0000 C   0  0  0  0  0  0  0  0  0  0  0  0
   15.9653   -3.9460    0.0000 C   0  0  0  0  0  0  0  0  0  0  0  0
   16.6805   -4.3549    0.0000 C   0  0  0  0  0  0  0  0  0  0  0  0
   16.6794   -5.1879    0.0000 C   0  0  0  0  0  0  0  0  0  0  0  0
   17.3961   -5.6029    0.0000 C   0  0  0  0  0  0  0  0  0  0  0  0
   18.1199   -4.3570    0.0000 C   0  0  1  0  0  0  0  0  0  0  0  0
   17.3986   -3.9373    0.0000 C   0  0  2  0  0  0  0  0  0  0  0  0
   18.7430   -4.0563    0.0000 N   0  0  0  0  0  0  0  0  0  0  0  0
   18.1129   -6.0123    0.0000 H   0  0  0  0  0  0  0  0  0  0  0  0
   14.5393   -3.9463    0.0000 O   0  0  0  0  0  0  0  0  0  0  0  0
   18.8067   -3.3539    0.0000 C   0  0  0  0  0  0  0  0  0  0  0  0
   17.9819   -3.3539    0.0000 C   0  0  0  0  0  0  0  0  0  0  0  0
   19.3901   -3.9373    0.0000 C   0  0  0  0  0  0  0  0  0  0  0  0
   16.8161   -3.3493    0.0000 C   0  0  0  0  0  0  0  0  0  0  0  0
   19.3488   -6.1584    0.0000 H   0  0  0  0  0  0  0  0  0  0  0  0
   19.9553   -5.3252    0.0000 H   0  0  0  0  0  0  0  0  0  0  0  0
   20.3810   -4.9789    0.0000 H   0  0  0  0  0  0  0  0  0  0  0  0
   20.2619   -4.0037    0.0000 H   0  0  0  0  0  0  0  0  0  0  0  0
   14.3582   -5.7011    0.0000 H   0  0  0  0  0  0  0  0  0  0  0  0
   15.9667   -6.6305    0.0000 H   0  0  0  0  0  0  0  0  0  0  0  0
   15.9622   -2.9140    0.0000 H   0  0  0  0  0  0  0  0  0  0  0  0
   17.3931   -6.6729    0.0000 H   0  0  0  0  0  0  0  0  0  0  0  0
   16.4684   -6.1360    0.0000 H   0  0  0  0  0  0  0  0  0  0  0  0
   19.0258   -4.9265    0.0000 H   0  0  0  0  0  0  0  0  0  0  0  0
   19.5862   -4.6302    0.0000 H   0  0  0  0  0  0  0  0  0  0  0  0
   18.8184   -3.0391    0.0000 H   0  0  0  0  0  0  0  0  0  0  0  0
   14.5390   -3.0093    0.0000 H   0  0  0  0  0  0  0  0  0  0  0  0
   19.2162   -2.3653    0.0000 H   0  0  0  0  0  0  0  0  0  0  0  0
   19.8561   -3.1452    0.0000 H   0  0  0  0  0  0  0  0  0  0  0  0
   17.5724   -2.3654    0.0000 H   0  0  0  0  0  0  0  0  0  0  0  0
   16.9324   -3.1452    0.0000 H   0  0  0  0  0  0  0  0  0  0  0  0
   20.3823   -3.5369    0.0000 H   0  0  0  0  0  0  0  0  0  0  0  0
   20.2716   -4.5439    0.0000 H   0  0  0  0  0  0  0  0  0  0  0  0
   17.0979   -2.3171    0.0000 H   0  0  0  0  0  0  0  0  0  0  0  0
   15.7813   -3.6214    0.0000 H   0  0  0  0  0  0  0  0  0  0  0  0
   16.0631   -2.5891    0.0000 H   0  0  0  0  0  0  0  0  0  0  0  0
  1  3  1  0  0  0  0
  1 20  1  0  0  0  0
  1 21  1  0  0  0  0
  2  1  1  0  0  0  0
  2 11  1  0  0  0  0
  2 14  1  6  0  0  0
  3 18  1  0  0  0  0
  3 22  1  0  0  0  0
  3 23  1  0  0  0  0
  4  5  2  0  0  0  0
  4 15  1  0  0  0  0
  5  6  1  0  0  0  0
  5 24  1  0  0  0  0
  6  9  2  0  0  0  0
  6 25  1  0  0  0  0
  7  4  1  0  0  0  0
  7 26  1  0  0  0  0
  8  9  1  0  0  0  0
  8  7  2  0  0  0  0
  8 12  1  0  0  0  0
  9 10  1  0  0  0  0
 10  2  1  0  0  0  0
 10 27  1  0  0  0  0
 10 28  1  0  0  0  0
 11 12  1  0  0  0  0
 11 13  1  0  0  0  0
 11 29  1  6  0  0  0
 12 17  1  0  0  0  0
 12 19  1  6  0  0  0
 13 30  1  0  0  0  0
 13 31  1  0  0  0  0
 15 32  1  0  0  0  0
 16 18  1  0  0  0  0
 16 33  1  0  0  0  0
 16 34  1  0  0  0  0
 17 16  1  0  0  0  0
 17 35  1  0  0  0  0
 17 36  1  0  0  0  0
 18 37  1  0  0  0  0
 18 38  1  0  0  0  0
 19 39  1  0  0  0  0
 19 40  1  0  0  0  0
 19 41  1  0  0  0  0
M  END
>  <DRUGBANK_ID>
DB01209

>  <SECONDARY_ACCESSION_NUMBERS>
APRD00912

>  <COMMON_NAME>
Dezocine

>  <CAS_NUMBER>
53648-55-8

>  <UNII>
VHX8K5SV4X

>  <SYNONYMS>
(−)-13β-amino-5,6,7,8,9,10,11α,12-octahydro-5α-methyl-5,11-methanobenzocyclodecen-3-ol; Dezocina; Dezocine; Dezocinum

$$$$
