22M
 OpenBabel10282417072D

 34 36  0  0  0  0  0  0  0  0999 V2000
    2.1301    0.4935    0.0000 C   0  0  0  0  0  0  0  0  0  0  0  0
    2.1301   -0.3315    0.0000 C   0  0  0  0  0  0  0  0  0  0  0  0
    2.8445   -0.7440    0.0000 C   0  0  0  0  0  0  0  0  0  0  0  0
    3.5590   -0.3315    0.0000 N   0  0  0  0  0  0  0  0  0  0  0  0
    2.8445   -1.5690    0.0000 N   0  0  0  0  0  0  0  0  0  0  0  0
    1.4156   -0.7440    0.0000 C   0  0  0  0  0  0  0  0  0  0  0  0
    0.7011   -0.3315    0.0000 C   0  0  0  0  0  0  0  0  0  0  0  0
    0.7011    0.4935    0.0000 C   0  0  0  0  0  0  0  0  0  0  0  0
    1.4156    0.9060    0.0000 C   0  0  0  0  0  0  0  0  0  0  0  0
   -0.0835    0.7484    0.0000 C   0  0  0  0  0  0  0  0  0  0  0  0
   -0.5684    0.0810    0.0000 C   0  0  0  0  0  0  0  0  0  0  0  0
   -1.3934    0.0810    0.0000 C   0  0  0  0  0  0  0  0  0  0  0  0
   -1.8059   -0.6335    0.0000 C   0  0  0  0  0  0  0  0  0  0  0  0
   -2.6309   -0.6335    0.0000 C   0  0  0  0  0  0  0  0  0  0  0  0
   -3.0434    0.0810    0.0000 C   0  0  0  0  0  0  0  0  0  0  0  0
   -2.6309    0.7955    0.0000 C   0  0  0  0  0  0  0  0  0  0  0  0
   -1.8059    0.7955    0.0000 C   0  0  0  0  0  0  0  0  0  0  0  0
   -1.3934    1.5099    0.0000 C   0  0  0  0  0  0  0  0  0  0  0  0
   -0.0835   -0.5864    0.0000 N   0  0  0  0  0  0  0  0  0  0  0  0
    3.0238    1.0095    0.0000 H   0  0  0  0  0  0  0  0  0  0  0  0
    4.4116   -0.8238    0.0000 H   0  0  0  0  0  0  0  0  0  0  0  0
    1.9919   -2.0613    0.0000 H   0  0  0  0  0  0  0  0  0  0  0  0
    3.6971   -2.0612    0.0000 H   0  0  0  0  0  0  0  0  0  0  0  0
    1.4156   -1.7760    0.0000 H   0  0  0  0  0  0  0  0  0  0  0  0
    1.4156    1.9380    0.0000 H   0  0  0  0  0  0  0  0  0  0  0  0
   -0.4024    1.7299    0.0000 H   0  0  0  0  0  0  0  0  0  0  0  0
   -1.2899   -1.5272    0.0000 H   0  0  0  0  0  0  0  0  0  0  0  0
   -3.1469   -1.5272    0.0000 H   0  0  0  0  0  0  0  0  0  0  0  0
   -4.0754    0.0810    0.0000 H   0  0  0  0  0  0  0  0  0  0  0  0
   -3.1469    1.6892    0.0000 H   0  0  0  0  0  0  0  0  0  0  0  0
   -0.3234    1.5099    0.0000 H   0  0  0  0  0  0  0  0  0  0  0  0
   -1.9284    2.4366    0.0000 H   0  0  0  0  0  0  0  0  0  0  0  0
   -0.8584    2.4365    0.0000 H   0  0  0  0  0  0  0  0  0  0  0  0
   -0.3877   -1.5227    0.0000 H   0  0  0  0  0  0  0  0  0  0  0  0
  1  2  1  0  0  0  0
  1  9  2  0  0  0  0
  1 20  1  0  0  0  0
  2  3  1  0  0  0  0
  2  6  2  0  0  0  0
  3  4  2  0  0  0  0
  3  5  1  0  0  0  0
  4 21  1  0  0  0  0
  5 22  1  0  0  0  0
  5 23  1  0  0  0  0
  6  7  1  0  0  0  0
  6 24  1  0  0  0  0
  7  8  2  0  0  0  0
  7 19  1  0  0  0  0
  8  9  1  0  0  0  0
  8 10  1  0  0  0  0
  9 25  1  0  0  0  0
 10 11  2  0  0  0  0
 10 26  1  0  0  0  0
 11 12  1  0  0  0  0
 11 19  1  0  0  0  0
 12 13  2  0  0  0  0
 12 17  1  0  0  0  0
 13 14  1  0  0  0  0
 13 27  1  0  0  0  0
 14 15  2  0  0  0  0
 14 28  1  0  0  0  0
 15 16  1  0  0  0  0
 15 29  1  0  0  0  0
 16 17  2  0  0  0  0
 16 30  1  0  0  0  0
 17 18  1  0  0  0  0
 18 31  1  0  0  0  0
 18 32  1  0  0  0  0
 18 33  1  0  0  0  0
 19 34  1  0  0  0  0
M  END
>  <DRUGBANK_ID>
DB06918

>  <COMMON_NAME>
2-(2-METHYLPHENYL)-1H-INDOLE-6-CARBOXIMIDAMIDE

$$$$
