
 OpenBabel10282417072D

 54 56  0  0  0  0  0  0  0  0999 V2000
   -2.8530    1.0181    0.0000 C   0  0  0  0  0  0  0  0  0  0  0  0
   -2.8542    0.1896    0.0000 C   0  0  0  0  0  0  0  0  0  0  0  0
   -2.1383   -0.2239    0.0000 C   0  0  0  0  0  0  0  0  0  0  0  0
   -1.4208    0.1900    0.0000 C   0  0  0  0  0  0  0  0  0  0  0  0
   -1.4237    1.0218    0.0000 C   0  0  0  0  0  0  0  0  0  0  0  0
   -2.1401    1.4315    0.0000 C   0  0  0  0  0  0  0  0  0  0  0  0
   -0.7109    1.4355    0.0000 O   0  0  0  0  0  0  0  0  0  0  0  0
    0.0026    1.0264    0.0000 C   0  0  0  0  0  0  0  0  0  0  0  0
    0.7162    1.4396    0.0000 C   0  0  0  0  0  0  0  0  0  0  0  0
    1.4297    1.0307    0.0000 C   0  0  0  0  0  0  0  0  0  0  0  0
    1.4304    0.2072    0.0000 C   0  0  0  0  0  0  0  0  0  0  0  0
    2.1399   -0.2015    0.0000 C   0  0  0  0  0  0  0  0  0  0  0  0
    2.8533    0.2084    0.0000 N   0  0  0  0  0  0  0  0  0  0  0  0
    2.8526    1.0318    0.0000 C   0  0  0  0  0  0  0  0  0  0  0  0
    2.1386    1.4452    0.0000 C   0  0  0  0  0  0  0  0  0  0  0  0
    3.5685   -0.2051    0.0000 C   0  0  0  0  0  0  0  0  0  0  0  0
    3.5631   -1.0318    0.0000 C   0  0  0  0  0  0  0  0  0  0  0  0
    4.2775   -1.4452    0.0000 C   0  0  0  0  0  0  0  0  0  0  0  0
    4.9943   -1.0325    0.0000 C   0  0  0  0  0  0  0  0  0  0  0  0
    4.9921   -0.2019    0.0000 N   0  0  0  0  0  0  0  0  0  0  0  0
    4.2770    0.2077    0.0000 N   0  0  0  0  0  0  0  0  0  0  0  0
    5.7100   -1.4451    0.0000 C   0  0  0  0  0  0  0  0  0  0  0  0
   -3.5693   -0.2212    0.0000 C   0  0  0  0  0  0  0  0  0  0  0  0
   -4.2829    0.1919    0.0000 O   0  0  0  0  0  0  0  0  0  0  0  0
   -4.9965   -0.2212    0.0000 C   0  0  0  0  0  0  0  0  0  0  0  0
   -5.7100    0.1919    0.0000 C   0  0  0  0  0  0  0  0  0  0  0  0
   -3.5707   -1.0474    0.0000 O   0  0  0  0  0  0  0  0  0  0  0  0
   -3.7469    1.5339    0.0000 H   0  0  0  0  0  0  0  0  0  0  0  0
   -2.1386   -1.2559    0.0000 H   0  0  0  0  0  0  0  0  0  0  0  0
   -0.5263   -0.3246    0.0000 H   0  0  0  0  0  0  0  0  0  0  0  0
   -2.1432    2.4635    0.0000 H   0  0  0  0  0  0  0  0  0  0  0  0
    0.0049   -0.0436    0.0000 H   0  0  0  0  0  0  0  0  0  0  0  0
    0.9302    0.4930    0.0000 H   0  0  0  0  0  0  0  0  0  0  0  0
    0.7138    2.5096    0.0000 H   0  0  0  0  0  0  0  0  0  0  0  0
    1.6414    1.9771    0.0000 H   0  0  0  0  0  0  0  0  0  0  0  0
    0.5041    0.4938    0.0000 H   0  0  0  0  0  0  0  0  0  0  0  0
    0.5042   -0.3286    0.0000 H   0  0  0  0  0  0  0  0  0  0  0  0
    0.5033    0.7414    0.0000 H   0  0  0  0  0  0  0  0  0  0  0  0
    2.1393   -1.2715    0.0000 H   0  0  0  0  0  0  0  0  0  0  0  0
    3.0658   -0.7377    0.0000 H   0  0  0  0  0  0  0  0  0  0  0  0
    3.7793    1.5666    0.0000 H   0  0  0  0  0  0  0  0  0  0  0  0
    2.8534    2.1018    0.0000 H   0  0  0  0  0  0  0  0  0  0  0  0
    2.1363    2.5152    0.0000 H   0  0  0  0  0  0  0  0  0  0  0  0
    3.0650    1.9806    0.0000 H   0  0  0  0  0  0  0  0  0  0  0  0
    2.6674   -1.5444    0.0000 H   0  0  0  0  0  0  0  0  0  0  0  0
    4.2764   -2.4772    0.0000 H   0  0  0  0  0  0  0  0  0  0  0  0
    5.7107   -2.5151    0.0000 H   0  0  0  0  0  0  0  0  0  0  0  0
    6.6363   -0.9095    0.0000 H   0  0  0  0  0  0  0  0  0  0  0  0
    6.6370   -1.9795    0.0000 H   0  0  0  0  0  0  0  0  0  0  0  0
   -4.9965   -1.2912    0.0000 H   0  0  0  0  0  0  0  0  0  0  0  0
   -5.9235   -0.7556    0.0000 H   0  0  0  0  0  0  0  0  0  0  0  0
   -5.7087    1.2619    0.0000 H   0  0  0  0  0  0  0  0  0  0  0  0
   -6.6373   -0.3420    0.0000 H   0  0  0  0  0  0  0  0  0  0  0  0
   -6.6360    0.7280    0.0000 H   0  0  0  0  0  0  0  0  0  0  0  0
  1  2  2  0  0  0  0
  1 28  1  0  0  0  0
  2  3  1  0  0  0  0
  2 23  1  0  0  0  0
  3  4  2  0  0  0  0
  3 29  1  0  0  0  0
  4  5  1  0  0  0  0
  4 30  1  0  0  0  0
  5  6  2  0  0  0  0
  5  7  1  0  0  0  0
  6  1  1  0  0  0  0
  6 31  1  0  0  0  0
  7  8  1  0  0  0  0
  8  9  1  0  0  0  0
  8 32  1  0  0  0  0
  8 33  1  0  0  0  0
  9 10  1  0  0  0  0
  9 34  1  0  0  0  0
  9 35  1  0  0  0  0
 10 15  1  0  0  0  0
 10 11  1  0  0  0  0
 10 36  1  0  0  0  0
 11 12  1  0  0  0  0
 11 37  1  0  0  0  0
 11 38  1  0  0  0  0
 12 13  1  0  0  0  0
 12 39  1  0  0  0  0
 12 40  1  0  0  0  0
 13 14  1  0  0  0  0
 13 16  1  0  0  0  0
 14 15  1  0  0  0  0
 14 41  1  0  0  0  0
 14 42  1  0  0  0  0
 15 43  1  0  0  0  0
 15 44  1  0  0  0  0
 16 17  2  0  0  0  0
 17 18  1  0  0  0  0
 17 45  1  0  0  0  0
 18 19  2  0  0  0  0
 18 46  1  0  0  0  0
 19 20  1  0  0  0  0
 19 22  1  0  0  0  0
 20 21  2  0  0  0  0
 21 16  1  0  0  0  0
 22 47  1  0  0  0  0
 22 48  1  0  0  0  0
 22 49  1  0  0  0  0
 23 24  1  0  0  0  0
 23 27  2  0  0  0  0
 24 25  1  0  0  0  0
 25 26  1  0  0  0  0
 25 50  1  0  0  0  0
 25 51  1  0  0  0  0
 26 52  1  0  0  0  0
 26 53  1  0  0  0  0
 26 54  1  0  0  0  0
M  END
>  <DRUGBANK_ID>
DB08012

>  <COMMON_NAME>
Pirodavir

>  <CAS_NUMBER>
124436-59-5

>  <UNII>
BML697718K

>  <SYNONYMS>
Pirodavir; Pirodavirum

$$$$
