
 OpenBabel10282417072D

 25 24  0  0  1  0  0  0  0  0999 V2000
    4.0954    0.7145    0.0000 C   0  0  0  0  0  0  0  0  0  0  0  0
    1.2375    0.7145    0.0000 C   0  0  0  0  0  0  0  0  0  0  0  0
    3.3809    1.1270    0.0000 C   0  0  0  0  0  0  0  0  0  0  0  0
    1.9520    1.1270    0.0000 C   0  0  0  0  0  0  0  0  0  0  0  0
    4.8099    1.1270    0.0000 C   0  0  1  0  0  0  0  0  0  0  0  0
    5.5243    0.7145    0.0000 C   0  0  0  0  0  0  0  0  0  0  0  0
    0.5230    1.1270    0.0000 N   0  0  0  0  0  0  0  0  0  0  0  0
    4.8099    1.9520    0.0000 N   0  0  0  0  0  0  0  0  0  0  0  0
    6.2388    1.1270    0.0000 O   0  0  0  0  0  0  0  0  0  0  0  0
    5.5243   -0.1105    0.0000 O   0  0  0  0  0  0  0  0  0  0  0  0
    2.6664    0.7145    0.0000 O   0  0  0  0  0  0  0  0  0  0  0  0
    4.8099    0.3020    0.0000 H   0  0  0  0  0  0  0  0  0  0  0  0
    4.0954   -0.3555    0.0000 H   0  0  0  0  0  0  0  0  0  0  0  0
    5.0220    0.1795    0.0000 H   0  0  0  0  0  0  0  0  0  0  0  0
    1.2375   -0.3555    0.0000 H   0  0  0  0  0  0  0  0  0  0  0  0
    0.3109    0.1795    0.0000 H   0  0  0  0  0  0  0  0  0  0  0  0
    3.3809    2.1970    0.0000 H   0  0  0  0  0  0  0  0  0  0  0  0
    2.4543    1.6620    0.0000 H   0  0  0  0  0  0  0  0  0  0  0  0
    1.9520    2.1970    0.0000 H   0  0  0  0  0  0  0  0  0  0  0  0
    2.8787    1.6620    0.0000 H   0  0  0  0  0  0  0  0  0  0  0  0
    0.5230    2.1470    0.0000 H   0  0  0  0  0  0  0  0  0  0  0  0
   -0.3603    0.6170    0.0000 H   0  0  0  0  0  0  0  0  0  0  0  0
    5.6932    2.4620    0.0000 H   0  0  0  0  0  0  0  0  0  0  0  0
    3.9266    2.4620    0.0000 H   0  0  0  0  0  0  0  0  0  0  0  0
    4.7128   -0.5790    0.0000 H   0  0  0  0  0  0  0  0  0  0  0  0
  1 13  1  0  0  0  0
  1 14  1  0  0  0  0
  2 15  1  0  0  0  0
  2 16  1  0  0  0  0
  3  1  1  0  0  0  0
  3 17  1  0  0  0  0
  3 18  1  0  0  0  0
  4  2  1  0  0  0  0
  4 19  1  0  0  0  0
  4 20  1  0  0  0  0
  5  1  1  0  0  0  0
  5  8  1  0  0  0  0
  5 12  1  1  0  0  0
  6  5  1  0  0  0  0
  7  2  1  0  0  0  0
  7 21  1  0  0  0  0
  7 22  1  0  0  0  0
  8 23  1  0  0  0  0
  8 24  1  0  0  0  0
  9  6  2  0  0  0  0
 10  6  1  0  0  0  0
 10 25  1  0  0  0  0
 11  3  1  0  0  0  0
 11  4  1  0  0  0  0
M  END
>  <DRUGBANK_ID>
DB02971

>  <SECONDARY_ACCESSION_NUMBERS>
EXPT00593

>  <COMMON_NAME>
2-Amino-4-(2-Amino-Ethoxy)-Butyric Acid

$$$$
