H52
 OpenBabel10282417072D

 43 45  0  0  0  0  0  0  0  0999 V2000
   -1.1406   -0.1826    0.0000 O   0  0  0  0  0  0  0  0  0  0  0  0
   -0.3156   -0.1826    0.0000 S   0  0  0  0  0  0  0  0  0  0  0  0
    0.5094   -0.1826    0.0000 O   0  0  0  0  0  0  0  0  0  0  0  0
   -0.3156    0.6424    0.0000 N   0  0  0  0  0  0  0  0  0  0  0  0
   -1.0589    1.0003    0.0000 C   0  0  1  0  0  0  0  0  0  0  0  0
   -1.7039    0.4860    0.0000 C   0  0  0  0  0  0  0  0  0  0  0  0
   -1.2425    1.8046    0.0000 C   0  0  0  0  0  0  0  0  0  0  0  0
   -0.7281    2.4497    0.0000 N   0  0  0  0  0  0  0  0  0  0  0  0
    0.0969    2.4497    0.0000 C   0  0  0  0  0  0  0  0  0  0  0  0
    0.6112    1.8046    0.0000 C   0  0  0  0  0  0  0  0  0  0  0  0
    0.4277    1.0003    0.0000 C   0  0  0  0  0  0  0  0  0  0  0  0
   -0.3156   -1.0076    0.0000 C   0  0  0  0  0  0  0  0  0  0  0  0
    0.3988   -1.4201    0.0000 C   0  0  0  0  0  0  0  0  0  0  0  0
    1.1133   -1.0076    0.0000 C   0  0  0  0  0  0  0  0  0  0  0  0
    1.1133   -0.1826    0.0000 C   0  0  0  0  0  0  0  0  0  0  0  0
    0.3988   -2.2451    0.0000 C   0  0  0  0  0  0  0  0  0  0  0  0
   -0.3156   -2.6576    0.0000 C   0  0  0  0  0  0  0  0  0  0  0  0
   -1.0301   -2.2451    0.0000 C   0  0  0  0  0  0  0  0  0  0  0  0
   -1.0301   -1.4201    0.0000 C   0  0  0  0  0  0  0  0  0  0  0  0
    1.1133   -2.6576    0.0000 C   0  0  0  0  0  0  0  0  0  0  0  0
    1.8278   -2.2451    0.0000 N   0  0  0  0  0  0  0  0  0  0  0  0
    1.8278   -1.4201    0.0000 C   0  0  0  0  0  0  0  0  0  0  0  0
   -0.9936    0.4201    0.0000 H   0  0  0  0  0  0  0  0  0  0  0  0
   -2.6999    0.8770    0.0000 H   0  0  0  0  0  0  0  0  0  0  0  0
   -1.5445   -0.5721    0.0000 H   0  0  0  0  0  0  0  0  0  0  0  0
   -2.5405   -0.1811    0.0000 H   0  0  0  0  0  0  0  0  0  0  0  0
   -2.2857    2.0427    0.0000 H   0  0  0  0  0  0  0  0  0  0  0  0
   -1.5959    2.8145    0.0000 H   0  0  0  0  0  0  0  0  0  0  0  0
   -1.1707    3.3687    0.0000 H   0  0  0  0  0  0  0  0  0  0  0  0
    0.5612    3.4137    0.0000 H   0  0  0  0  0  0  0  0  0  0  0  0
    1.1602    2.5694    0.0000 H   0  0  0  0  0  0  0  0  0  0  0  0
    1.6544    2.0427    0.0000 H   0  0  0  0  0  0  0  0  0  0  0  0
    1.3678    1.0480    0.0000 H   0  0  0  0  0  0  0  0  0  0  0  0
    1.2643    0.3332    0.0000 H   0  0  0  0  0  0  0  0  0  0  0  0
    1.4376    1.3538    0.0000 H   0  0  0  0  0  0  0  0  0  0  0  0
    2.0399    0.3524    0.0000 H   0  0  0  0  0  0  0  0  0  0  0  0
    0.1867    0.3524    0.0000 H   0  0  0  0  0  0  0  0  0  0  0  0
    1.1133    0.8874    0.0000 H   0  0  0  0  0  0  0  0  0  0  0  0
   -0.3156   -3.6896    0.0000 H   0  0  0  0  0  0  0  0  0  0  0  0
   -1.9238   -2.7611    0.0000 H   0  0  0  0  0  0  0  0  0  0  0  0
   -1.9238   -0.9041    0.0000 H   0  0  0  0  0  0  0  0  0  0  0  0
    1.1133   -3.6896    0.0000 H   0  0  0  0  0  0  0  0  0  0  0  0
    2.7215   -0.9041    0.0000 H   0  0  0  0  0  0  0  0  0  0  0  0
  1  2  2  0  0  0  0
  2  3  2  0  0  0  0
  2  4  1  0  0  0  0
  2 12  1  0  0  0  0
  4  5  1  0  0  0  0
  4 11  1  0  0  0  0
  5  6  1  0  0  0  0
  5  7  1  0  0  0  0
  5 23  1  6  0  0  0
  6 24  1  0  0  0  0
  6 25  1  0  0  0  0
  6 26  1  0  0  0  0
  7  8  1  0  0  0  0
  7 27  1  0  0  0  0
  7 28  1  0  0  0  0
  8  9  1  0  0  0  0
  8 29  1  0  0  0  0
  9 10  1  0  0  0  0
  9 30  1  0  0  0  0
  9 31  1  0  0  0  0
 10 11  1  0  0  0  0
 10 32  1  0  0  0  0
 10 33  1  0  0  0  0
 11 34  1  0  0  0  0
 11 35  1  0  0  0  0
 12 13  2  0  0  0  0
 12 19  1  0  0  0  0
 13 14  1  0  0  0  0
 13 16  1  0  0  0  0
 14 15  1  0  0  0  0
 14 22  2  0  0  0  0
 15 36  1  0  0  0  0
 15 37  1  0  0  0  0
 15 38  1  0  0  0  0
 16 17  2  0  0  0  0
 16 20  1  0  0  0  0
 17 18  1  0  0  0  0
 17 39  1  0  0  0  0
 18 19  2  0  0  0  0
 18 40  1  0  0  0  0
 19 41  1  0  0  0  0
 20 21  2  0  0  0  0
 20 42  1  0  0  0  0
 21 22  1  0  0  0  0
 22 43  1  0  0  0  0
M  END
>  <DRUGBANK_ID>
DB07876

>  <COMMON_NAME>
(S)-2-METHYL-1-[(4-METHYL-5-ISOQUINOLINE)SULFONYL]-HOMOPIPERAZINE

$$$$
