
 OpenBabel10282417072D

 53 53  0  0  1  0  0  0  0  0999 V2000
    0.0000    4.9499    0.0000 C   0  0  0  0  0  0  0  0  0  0  0  0
    0.7145    3.7125    0.0000 C   0  0  0  0  0  0  0  0  0  0  0  0
   -2.8579    4.9499    0.0000 C   0  0  0  0  0  0  0  0  0  0  0  0
   -1.4289    2.4749    0.0000 C   0  0  0  0  0  0  0  0  0  0  0  0
    0.7145   -0.4125    0.0000 C   0  0  0  0  0  0  0  0  0  0  0  0
    1.4289    0.0000    0.0000 C   0  0  0  0  0  0  0  0  0  0  0  0
    0.0000    0.0000    0.0000 C   0  0  0  0  0  0  0  0  0  0  0  0
    1.4289    0.8250    0.0000 C   0  0  0  0  0  0  0  0  0  0  0  0
    0.0000    0.8250    0.0000 C   0  0  0  0  0  0  0  0  0  0  0  0
   -1.4289    4.9499    0.0000 C   0  0  0  0  0  0  0  0  0  0  0  0
   -1.4289    5.7750    0.0000 C   0  0  0  0  0  0  0  0  0  0  0  0
   -0.7145    3.7125    0.0000 C   0  0  0  0  0  0  0  0  0  0  0  0
    0.7145    2.0625    0.0000 C   0  0  0  0  0  0  0  0  0  0  0  0
   -0.7145    4.5375    0.0000 C   0  0  0  0  0  0  0  0  0  0  0  0
    0.0000    3.3000    0.0000 C   0  0  2  0  0  0  0  0  0  0  0  0
   -2.8579    5.7750    0.0000 C   0  0  1  0  0  0  0  0  0  0  0  0
    0.7145    1.2374    0.0000 C   0  0  0  0  0  0  0  0  0  0  0  0
   -2.1434    6.1875    0.0000 C   0  0  1  0  0  0  0  0  0  0  0  0
    0.0000    2.4749    0.0000 C   0  0  2  0  0  0  0  0  0  0  0  0
   -3.5724    6.1875    0.0000 C   0  0  0  0  0  0  0  0  0  0  0  0
   -2.1434    7.0125    0.0000 N   0  0  0  0  0  0  0  0  0  0  0  0
   -4.2868    5.7750    0.0000 O   0  0  0  0  0  0  0  0  0  0  0  0
   -3.5724    7.0125    0.0000 O   0  0  0  0  0  0  0  0  0  0  0  0
   -0.7145    2.0625    0.0000 O   0  0  0  0  0  0  0  0  0  0  0  0
    0.9266    4.4148    0.0000 H   0  0  0  0  0  0  0  0  0  0  0  0
    0.0001    6.0199    0.0000 H   0  0  0  0  0  0  0  0  0  0  0  0
    0.9267    5.4848    0.0000 H   0  0  0  0  0  0  0  0  0  0  0  0
    1.6411    3.1775    0.0000 H   0  0  0  0  0  0  0  0  0  0  0  0
    0.7145    4.7825    0.0000 H   0  0  0  0  0  0  0  0  0  0  0  0
    1.6412    4.2475    0.0000 H   0  0  0  0  0  0  0  0  0  0  0  0
   -3.7845    4.4149    0.0000 H   0  0  0  0  0  0  0  0  0  0  0  0
   -1.9313    4.4149    0.0000 H   0  0  0  0  0  0  0  0  0  0  0  0
   -2.8579    3.8799    0.0000 H   0  0  0  0  0  0  0  0  0  0  0  0
   -1.4290    3.5449    0.0000 H   0  0  0  0  0  0  0  0  0  0  0  0
   -2.3555    1.9398    0.0000 H   0  0  0  0  0  0  0  0  0  0  0  0
   -2.3556    3.0098    0.0000 H   0  0  0  0  0  0  0  0  0  0  0  0
    0.7145   -1.4445    0.0000 H   0  0  0  0  0  0  0  0  0  0  0  0
    2.3226   -0.5160    0.0000 H   0  0  0  0  0  0  0  0  0  0  0  0
   -0.8937   -0.5160    0.0000 H   0  0  0  0  0  0  0  0  0  0  0  0
    2.3226    1.3410    0.0000 H   0  0  0  0  0  0  0  0  0  0  0  0
   -0.8937    1.3411    0.0000 H   0  0  0  0  0  0  0  0  0  0  0  0
   -2.3226    4.4339    0.0000 H   0  0  0  0  0  0  0  0  0  0  0  0
   -0.5352    6.2910    0.0000 H   0  0  0  0  0  0  0  0  0  0  0  0
   -1.6082    3.1965    0.0000 H   0  0  0  0  0  0  0  0  0  0  0  0
    1.6411    2.5976    0.0000 H   0  0  0  0  0  0  0  0  0  0  0  0
    0.7144    3.1325    0.0000 H   0  0  0  0  0  0  0  0  0  0  0  0
    0.0000    4.3700    0.0000 H   0  0  0  0  0  0  0  0  0  0  0  0
   -1.9313    5.2400    0.0000 H   0  0  0  0  0  0  0  0  0  0  0  0
   -1.2168    6.7225    0.0000 H   0  0  0  0  0  0  0  0  0  0  0  0
    0.0000    1.4049    0.0000 H   0  0  0  0  0  0  0  0  0  0  0  0
   -1.2601    7.5225    0.0000 H   0  0  0  0  0  0  0  0  0  0  0  0
   -3.0267    7.5225    0.0000 H   0  0  0  0  0  0  0  0  0  0  0  0
   -2.7609    7.4810    0.0000 H   0  0  0  0  0  0  0  0  0  0  0  0
  1 25  1  0  0  0  0
  1 26  1  0  0  0  0
  1 27  1  0  0  0  0
  2 28  1  0  0  0  0
  2 29  1  0  0  0  0
  2 30  1  0  0  0  0
  3 31  1  0  0  0  0
  3 32  1  0  0  0  0
  3 33  1  0  0  0  0
  4 34  1  0  0  0  0
  4 35  1  0  0  0  0
  4 36  1  0  0  0  0
  5 37  1  0  0  0  0
  6  5  2  0  0  0  0
  6 38  1  0  0  0  0
  7  5  1  0  0  0  0
  7 39  1  0  0  0  0
  8  6  1  0  0  0  0
  8 40  1  0  0  0  0
  9  7  2  0  0  0  0
  9 41  1  0  0  0  0
 10 42  1  0  0  0  0
 11 10  2  0  0  0  0
 11 43  1  0  0  0  0
 12 44  1  0  0  0  0
 13 45  1  0  0  0  0
 13 46  1  0  0  0  0
 14  1  1  0  0  0  0
 14 10  1  0  0  0  0
 14 12  2  0  0  0  0
 15  2  1  0  0  0  0
 15 12  1  0  0  0  0
 15 47  1  6  0  0  0
 16  3  1  0  0  0  0
 16 48  1  1  0  0  0
 17  8  2  0  0  0  0
 17  9  1  0  0  0  0
 17 13  1  0  0  0  0
 18 11  1  0  0  0  0
 18 16  1  0  0  0  0
 18 21  1  0  0  0  0
 18 49  1  6  0  0  0
 19 13  1  0  0  0  0
 19 15  1  0  0  0  0
 19 24  1  0  0  0  0
 19 50  1  6  0  0  0
 20 16  1  0  0  0  0
 21 51  1  0  0  0  0
 21 52  1  0  0  0  0
 22 20  2  0  0  0  0
 23 20  1  0  0  0  0
 23 53  1  0  0  0  0
 24  4  1  0  0  0  0
M  END
>  <DRUGBANK_ID>
DB01850

>  <SECONDARY_ACCESSION_NUMBERS>
EXPT02162

>  <COMMON_NAME>
(2S,3S,8S,9S)-3-amino-9-methoxy-2,6,8-trimethyl-10-phenyldeca-4,6-dienoic acid

$$$$
