
 OpenBabel10282417072D

146151  0  0  0  0  0  0  0  0999 V2000
   -1.4289   -0.0754    0.0000 S   0  0  0  0  0  0  0  0  0  0  0  0
   -0.7144    0.3371    0.0000 S   0  0  0  0  0  0  0  0  0  0  0  0
   -2.8579   -1.7254    0.0000 O   0  0  0  0  0  0  0  0  0  0  0  0
    0.0000   -3.3754    0.0000 O   0  0  0  0  0  0  0  0  0  0  0  0
   -4.2868   -0.9004    0.0000 O   0  0  0  0  0  0  0  0  0  0  0  0
    2.8579   -2.5504    0.0000 O   0  0  0  0  0  0  0  0  0  0  0  0
    2.2414    0.0678    0.0000 O   0  0  0  0  0  0  0  0  0  0  0  0
   -4.2868   -0.0754    0.0000 O   0  0  0  0  0  0  0  0  0  0  0  0
   -5.7158    1.5746    0.0000 O   0  0  0  0  0  0  0  0  0  0  0  0
    2.4256    1.1123    0.0000 O   0  0  0  0  0  0  0  0  0  0  0  0
   -3.5724    2.8121    0.0000 O   0  0  0  0  0  0  0  0  0  0  0  0
    5.7158   -2.5504    0.0000 O   0  0  0  0  0  0  0  0  0  0  0  0
   -0.7144   -2.1379    0.0000 N   0  0  0  0  0  0  0  0  0  0  0  0
   -2.8579   -2.5504    0.0000 N   0  0  0  0  0  0  0  0  0  0  0  0
    1.4290   -2.5504    0.0000 N   0  0  0  0  0  0  0  0  0  0  0  0
   -2.8579   -0.9004    0.0000 N   0  0  0  0  0  0  0  0  0  0  0  0
    1.4290   -0.9004    0.0000 N   0  0  0  0  0  0  0  0  0  0  0  0
   -1.5311   -0.9992    0.0000 N   0  0  0  0  0  0  0  0  0  0  0  0
   -3.5724    1.1621    0.0000 N   0  0  0  0  0  0  0  0  0  0  0  0
    0.9967    1.1123    0.0000 N   0  0  0  0  0  0  0  0  0  0  0  0
   -1.6430   -6.1402    0.0000 N   0  0  0  0  0  0  0  0  0  0  0  0
    0.9967    2.7624    0.0000 N   0  0  0  0  0  0  0  0  0  0  0  0
   -5.0013    2.8121    0.0000 N   0  0  0  0  0  0  0  0  0  0  0  0
   -1.4289   -2.5504    0.0000 C   0  0  3  0  0  0  0  0  0  0  0  0
   -3.5724   -2.1379    0.0000 C   0  0  3  0  0  0  0  0  0  0  0  0
   -1.1466   -3.3257    0.0000 C   0  0  0  0  0  0  0  0  0  0  0  0
   -4.2868   -2.5504    0.0000 C   0  0  0  0  0  0  0  0  0  0  0  0
    0.7145   -2.1379    0.0000 C   0  0  3  0  0  0  0  0  0  0  0  0
   -1.6770   -3.9577    0.0000 C   0  0  0  0  0  0  0  0  0  0  0  0
    0.5712   -1.3254    0.0000 C   0  0  0  0  0  0  0  0  0  0  0  0
   -2.1433   -2.1379    0.0000 C   0  0  0  0  0  0  0  0  0  0  0  0
    0.0000   -2.5504    0.0000 C   0  0  0  0  0  0  0  0  0  0  0  0
   -0.2040   -1.0433    0.0000 C   0  0  0  0  0  0  0  0  0  0  0  0
   -1.3948   -4.7329    0.0000 C   0  0  0  0  0  0  0  0  0  0  0  0
   -3.5724   -1.3129    0.0000 C   0  0  0  0  0  0  0  0  0  0  0  0
    2.1434   -1.3129    0.0000 C   0  0  3  0  0  0  0  0  0  0  0  0
   -5.0013   -2.1379    0.0000 C   0  0  0  0  0  0  0  0  0  0  0  0
   -4.2868   -3.3754    0.0000 C   0  0  0  0  0  0  0  0  0  0  0  0
   -0.4294   -0.2547    0.0000 C   0  0  0  0  0  0  0  0  0  0  0  0
    2.1434   -2.1379    0.0000 C   0  0  0  0  0  0  0  0  0  0  0  0
   -2.8579   -0.0754    0.0000 C   0  0  3  0  0  0  0  0  0  0  0  0
    2.8579   -0.9004    0.0000 C   0  0  0  0  0  0  0  0  0  0  0  0
   -0.8835   -1.5025    0.0000 C   0  0  0  0  0  0  0  0  0  0  0  0
   -1.9251   -5.3650    0.0000 C   0  0  0  0  0  0  0  0  0  0  0  0
   -1.2539   -0.2273    0.0000 C   0  0  0  0  0  0  0  0  0  0  0  0
    0.7145    0.3371    0.0000 C   0  0  3  0  0  0  0  0  0  0  0  0
   -2.1433    0.3371    0.0000 C   0  0  0  0  0  0  0  0  0  0  0  0
    0.0066    0.4456    0.0000 C   0  0  0  0  0  0  0  0  0  0  0  0
    1.4290   -0.0754    0.0000 C   0  0  0  0  0  0  0  0  0  0  0  0
   -3.5724    0.3371    0.0000 C   0  0  0  0  0  0  0  0  0  0  0  0
    3.5724   -1.3129    0.0000 C   0  0  0  0  0  0  0  0  0  0  0  0
   -1.6425    0.5003    0.0000 C   0  0  0  0  0  0  0  0  0  0  0  0
    0.0000   -0.0754    0.0000 C   0  0  0  0  0  0  0  0  0  0  0  0
   -4.2868    1.5746    0.0000 C   0  0  3  0  0  0  0  0  0  0  0  0
   -0.3819    1.1734    0.0000 C   0  0  0  0  0  0  0  0  0  0  0  0
   -1.2065    1.2008    0.0000 C   0  0  0  0  0  0  0  0  0  0  0  0
    1.7111    2.3498    0.0000 C   0  0  3  0  0  0  0  0  0  0  0  0
   -5.0013    1.1621    0.0000 C   0  0  3  0  0  0  0  0  0  0  0  0
    4.2869   -0.9004    0.0000 C   0  0  0  0  0  0  0  0  0  0  0  0
    3.5724   -2.1379    0.0000 C   0  0  0  0  0  0  0  0  0  0  0  0
    1.7111    1.5248    0.0000 C   0  0  0  0  0  0  0  0  0  0  0  0
    2.4256    2.7624    0.0000 C   0  0  0  0  0  0  0  0  0  0  0  0
   -4.2868    2.3996    0.0000 C   0  0  0  0  0  0  0  0  0  0  0  0
    2.4256    3.5874    0.0000 C   0  0  0  0  0  0  0  0  0  0  0  0
    5.0014   -1.3129    0.0000 C   0  0  0  0  0  0  0  0  0  0  0  0
    4.2869   -2.5504    0.0000 C   0  0  0  0  0  0  0  0  0  0  0  0
   -5.0013    0.3371    0.0000 C   0  0  0  0  0  0  0  0  0  0  0  0
    5.0014   -2.1379    0.0000 C   0  0  0  0  0  0  0  0  0  0  0  0
    3.1401    3.9999    0.0000 C   0  0  0  0  0  0  0  0  0  0  0  0
    1.7111    3.9999    0.0000 C   0  0  0  0  0  0  0  0  0  0  0  0
    3.1401    4.8249    0.0000 C   0  0  0  0  0  0  0  0  0  0  0  0
    2.4256    5.2374    0.0000 C   0  0  0  0  0  0  0  0  0  0  0  0
    1.7111    4.8249    0.0000 C   0  0  0  0  0  0  0  0  0  0  0  0
    3.8909    5.2430    0.0000 C   0  0  0  0  0  0  0  0  0  0  0  0
    2.4124    6.0967    0.0000 C   0  0  0  0  0  0  0  0  0  0  0  0
    3.8975    6.1024    0.0000 C   0  0  0  0  0  0  0  0  0  0  0  0
    3.1533    6.5320    0.0000 C   0  0  0  0  0  0  0  0  0  0  0  0
   -0.2715   -1.8821    0.0000 H   0  0  0  0  0  0  0  0  0  0  0  0
   -2.8579   -3.0619    0.0000 H   0  0  0  0  0  0  0  0  0  0  0  0
    1.4290   -3.0619    0.0000 H   0  0  0  0  0  0  0  0  0  0  0  0
   -2.3464   -0.9004    0.0000 H   0  0  0  0  0  0  0  0  0  0  0  0
    1.1732   -1.3433    0.0000 H   0  0  0  0  0  0  0  0  0  0  0  0
   -1.8851   -1.3683    0.0000 H   0  0  0  0  0  0  0  0  0  0  0  0
   -3.1294    1.4178    0.0000 H   0  0  0  0  0  0  0  0  0  0  0  0
    0.6679    1.5041    0.0000 H   0  0  0  0  0  0  0  0  0  0  0  0
   -1.9717   -6.5320    0.0000 H   0  0  0  0  0  0  0  0  0  0  0  0
   -1.1392   -6.2290    0.0000 H   0  0  0  0  0  0  0  0  0  0  0  0
    0.9967    3.2739    0.0000 H   0  0  0  0  0  0  0  0  0  0  0  0
    0.5536    2.5066    0.0000 H   0  0  0  0  0  0  0  0  0  0  0  0
   -5.0013    3.3236    0.0000 H   0  0  0  0  0  0  0  0  0  0  0  0
   -5.4443    2.5564    0.0000 H   0  0  0  0  0  0  0  0  0  0  0  0
   -5.7158    2.5446    0.0000 H   0  0  0  0  0  0  0  0  0  0  0  0
    5.7158   -3.4874    0.0000 H   0  0  0  0  0  0  0  0  0  0  0  0
   -0.4234   -2.9163    0.0000 H   0  0  0  0  0  0  0  0  0  0  0  0
   -3.5724   -3.2079    0.0000 H   0  0  0  0  0  0  0  0  0  0  0  0
   -0.0929   -3.5115    0.0000 H   0  0  0  0  0  0  0  0  0  0  0  0
   -0.7807   -4.3312    0.0000 H   0  0  0  0  0  0  0  0  0  0  0  0
   -5.2134   -3.0854    0.0000 H   0  0  0  0  0  0  0  0  0  0  0  0
    1.5910   -1.5241    0.0000 H   0  0  0  0  0  0  0  0  0  0  0  0
   -2.7307   -3.7719    0.0000 H   0  0  0  0  0  0  0  0  0  0  0  0
   -2.3648   -4.7774    0.0000 H   0  0  0  0  0  0  0  0  0  0  0  0
    1.3908   -0.6376    0.0000 H   0  0  0  0  0  0  0  0  0  0  0  0
    0.3853   -0.2717    0.0000 H   0  0  0  0  0  0  0  0  0  0  0  0
   -0.3410   -4.9186    0.0000 H   0  0  0  0  0  0  0  0  0  0  0  0
   -1.0288   -5.7383    0.0000 H   0  0  0  0  0  0  0  0  0  0  0  0
    1.2167   -1.8479    0.0000 H   0  0  0  0  0  0  0  0  0  0  0  0
   -5.0013   -1.0679    0.0000 H   0  0  0  0  0  0  0  0  0  0  0  0
   -5.9279   -2.6729    0.0000 H   0  0  0  0  0  0  0  0  0  0  0  0
   -5.9280   -1.6029    0.0000 H   0  0  0  0  0  0  0  0  0  0  0  0
   -5.2134   -3.9104    0.0000 H   0  0  0  0  0  0  0  0  0  0  0  0
   -3.3602   -3.9104    0.0000 H   0  0  0  0  0  0  0  0  0  0  0  0
   -4.2868   -4.4454    0.0000 H   0  0  0  0  0  0  0  0  0  0  0  0
   -1.9313   -0.6104    0.0000 H   0  0  0  0  0  0  0  0  0  0  0  0
    2.8579    0.1696    0.0000 H   0  0  0  0  0  0  0  0  0  0  0  0
    3.7845   -0.3654    0.0000 H   0  0  0  0  0  0  0  0  0  0  0  0
   -0.9177   -2.5339    0.0000 H   0  0  0  0  0  0  0  0  0  0  0  0
   -2.9788   -5.1792    0.0000 H   0  0  0  0  0  0  0  0  0  0  0  0
   -2.2911   -4.3595    0.0000 H   0  0  0  0  0  0  0  0  0  0  0  0
    1.7200    0.7030    0.0000 H   0  0  0  0  0  0  0  0  0  0  0  0
   -2.1432    1.4071    0.0000 H   0  0  0  0  0  0  0  0  0  0  0  0
   -3.0699    0.8722    0.0000 H   0  0  0  0  0  0  0  0  0  0  0  0
    1.0380    0.4113    0.0000 H   0  0  0  0  0  0  0  0  0  0  0  0
   -2.6739    0.5345    0.0000 H   0  0  0  0  0  0  0  0  0  0  0  0
   -0.0000   -1.1454    0.0000 H   0  0  0  0  0  0  0  0  0  0  0  0
    0.9266   -0.6104    0.0000 H   0  0  0  0  0  0  0  0  0  0  0  0
   -4.2868    0.5046    0.0000 H   0  0  0  0  0  0  0  0  0  0  0  0
    0.1635    2.0495    0.0000 H   0  0  0  0  0  0  0  0  0  0  0  0
   -1.6926    2.1112    0.0000 H   0  0  0  0  0  0  0  0  0  0  0  0
    0.7844    1.8149    0.0000 H   0  0  0  0  0  0  0  0  0  0  0  0
   -5.0013    2.2321    0.0000 H   0  0  0  0  0  0  0  0  0  0  0  0
    4.2869    0.1316    0.0000 H   0  0  0  0  0  0  0  0  0  0  0  0
    2.6787   -2.6539    0.0000 H   0  0  0  0  0  0  0  0  0  0  0  0
    3.3523    2.2274    0.0000 H   0  0  0  0  0  0  0  0  0  0  0  0
    3.3522    3.2974    0.0000 H   0  0  0  0  0  0  0  0  0  0  0  0
    5.8951   -0.7969    0.0000 H   0  0  0  0  0  0  0  0  0  0  0  0
    4.2869   -3.5824    0.0000 H   0  0  0  0  0  0  0  0  0  0  0  0
   -5.9279   -0.1979    0.0000 H   0  0  0  0  0  0  0  0  0  0  0  0
   -4.0747   -0.1979    0.0000 H   0  0  0  0  0  0  0  0  0  0  0  0
   -5.0013   -0.7329    0.0000 H   0  0  0  0  0  0  0  0  0  0  0  0
    4.0338    3.4839    0.0000 H   0  0  0  0  0  0  0  0  0  0  0  0
    0.8174    3.4839    0.0000 H   0  0  0  0  0  0  0  0  0  0  0  0
    0.8174    5.3409    0.0000 H   0  0  0  0  0  0  0  0  0  0  0  0
    4.7786    4.7167    0.0000 H   0  0  0  0  0  0  0  0  0  0  0  0
    1.5128    6.6024    0.0000 H   0  0  0  0  0  0  0  0  0  0  0  0
    4.7932    6.6150    0.0000 H   0  0  0  0  0  0  0  0  0  0  0  0
    3.1493    7.5640    0.0000 H   0  0  0  0  0  0  0  0  0  0  0  0
  1  2  1  0  0  0  0
  1 47  1  0  0  0  0
  2 53  1  0  0  0  0
  3 31  2  0  0  0  0
  4 32  2  0  0  0  0
  5 35  2  0  0  0  0
  6 40  2  0  0  0  0
  7 49  2  0  0  0  0
  8 50  2  0  0  0  0
  9 58  1  0  0  0  0
  9 92  1  0  0  0  0
 10 61  2  0  0  0  0
 11 63  2  0  0  0  0
 12 68  1  0  0  0  0
 12 93  1  0  0  0  0
 13 24  1  0  0  0  0
 13 32  1  0  0  0  0
 13 78  1  0  0  0  0
 14 25  1  0  0  0  0
 14 31  1  0  0  0  0
 14 79  1  0  0  0  0
 15 28  1  0  0  0  0
 15 40  1  0  0  0  0
 15 80  1  0  0  0  0
 16 35  1  0  0  0  0
 16 41  1  0  0  0  0
 16 81  1  0  0  0  0
 17 36  1  0  0  0  0
 17 49  1  0  0  0  0
 17 82  1  0  0  0  0
 18 43  1  0  0  0  0
 18 45  1  0  0  0  0
 18 83  1  0  0  0  0
 19 50  1  0  0  0  0
 19 54  1  0  0  0  0
 19 84  1  0  0  0  0
 20 46  1  0  0  0  0
 20 61  1  0  0  0  0
 20 85  1  0  0  0  0
 21 44  1  0  0  0  0
 21 86  1  0  0  0  0
 21 87  1  0  0  0  0
 22 57  1  0  0  0  0
 22 88  1  0  0  0  0
 22 89  1  0  0  0  0
 23 63  1  0  0  0  0
 23 90  1  0  0  0  0
 23 91  1  0  0  0  0
 24 26  1  0  0  0  0
 24 31  1  0  0  0  0
 24 94  1  0  0  0  0
 25 27  1  0  0  0  0
 25 35  1  0  0  0  0
 25 95  1  0  0  0  0
 26 29  1  0  0  0  0
 26 96  1  0  0  0  0
 26 97  1  0  0  0  0
 27 37  1  0  0  0  0
 27 38  1  0  0  0  0
 27 98  1  0  0  0  0
 28 30  1  0  0  0  0
 28 32  1  0  0  0  0
 28 99  1  0  0  0  0
 29 34  1  0  0  0  0
 29100  1  0  0  0  0
 29101  1  0  0  0  0
 30 33  1  0  0  0  0
 30102  1  0  0  0  0
 30103  1  0  0  0  0
 33 39  1  0  0  0  0
 33 43  2  0  0  0  0
 34 44  1  0  0  0  0
 34104  1  0  0  0  0
 34105  1  0  0  0  0
 36 40  1  0  0  0  0
 36 42  1  0  0  0  0
 36106  1  0  0  0  0
 37107  1  0  0  0  0
 37108  1  0  0  0  0
 37109  1  0  0  0  0
 38110  1  0  0  0  0
 38111  1  0  0  0  0
 38112  1  0  0  0  0
 39 45  1  0  0  0  0
 39 48  2  0  0  0  0
 41 47  1  0  0  0  0
 41 50  1  0  0  0  0
 41113  1  0  0  0  0
 42 51  1  0  0  0  0
 42114  1  0  0  0  0
 42115  1  0  0  0  0
 43116  1  0  0  0  0
 44117  1  0  0  0  0
 44118  1  0  0  0  0
 45 52  2  0  0  0  0
 46 49  1  0  0  0  0
 46 53  1  0  0  0  0
 46119  1  0  0  0  0
 47120  1  0  0  0  0
 47121  1  0  0  0  0
 48 55  1  0  0  0  0
 48122  1  0  0  0  0
 51 59  2  0  0  0  0
 51 60  1  0  0  0  0
 52 56  1  0  0  0  0
 52123  1  0  0  0  0
 53124  1  0  0  0  0
 53125  1  0  0  0  0
 54 58  1  0  0  0  0
 54 63  1  0  0  0  0
 54126  1  0  0  0  0
 55 56  2  0  0  0  0
 55127  1  0  0  0  0
 56128  1  0  0  0  0
 57 61  1  0  0  0  0
 57 62  1  0  0  0  0
 57129  1  0  0  0  0
 58 67  1  0  0  0  0
 58130  1  0  0  0  0
 59 65  1  0  0  0  0
 59131  1  0  0  0  0
 60 66  2  0  0  0  0
 60132  1  0  0  0  0
 62 64  1  0  0  0  0
 62133  1  0  0  0  0
 62134  1  0  0  0  0
 64 69  2  0  0  0  0
 64 70  1  0  0  0  0
 65 68  2  0  0  0  0
 65135  1  0  0  0  0
 66 68  1  0  0  0  0
 66136  1  0  0  0  0
 67137  1  0  0  0  0
 67138  1  0  0  0  0
 67139  1  0  0  0  0
 69 71  1  0  0  0  0
 69140  1  0  0  0  0
 70 73  2  0  0  0  0
 70141  1  0  0  0  0
 71 72  1  0  0  0  0
 71 74  2  0  0  0  0
 72 73  1  0  0  0  0
 72 75  2  0  0  0  0
 73142  1  0  0  0  0
 74 76  1  0  0  0  0
 74143  1  0  0  0  0
 75 77  1  0  0  0  0
 75144  1  0  0  0  0
 76 77  2  0  0  0  0
 76145  1  0  0  0  0
 77146  1  0  0  0  0
M  END
>  <DRUGBANK_ID>
DB06791

>  <COMMON_NAME>
Lanreotide

>  <CAS_NUMBER>
108736-35-2

>  <UNII>
0G3DE8943Y

>  <SYNONYMS>
Lanreotida; Lanreotide

$$$$
