
 OpenBabel10282417072D

 56 58  0  0  0  0  0  0  0  0999 V2000
   -0.9505    1.4789    0.0000 C   0  0  0  0  0  0  0  0  0  0  0  0
   -0.9505    0.6539    0.0000 C   0  0  0  0  0  0  0  0  0  0  0  0
   -0.1659    0.3990    0.0000 C   0  0  0  0  0  0  0  0  0  0  0  0
    0.3189    1.0664    0.0000 N   0  0  0  0  0  0  0  0  0  0  0  0
   -0.1659    1.7338    0.0000 C   0  0  0  0  0  0  0  0  0  0  0  0
    0.0867    2.5114    0.0000 O   0  0  0  0  0  0  0  0  0  0  0  0
    0.0867   -0.3786    0.0000 O   0  0  0  0  0  0  0  0  0  0  0  0
   -1.6651    1.8914    0.0000 C   0  0  0  0  0  0  0  0  0  0  0  0
   -2.3795    1.4789    0.0000 C   0  0  0  0  0  0  0  0  0  0  0  0
   -2.3795    0.6539    0.0000 C   0  0  0  0  0  0  0  0  0  0  0  0
   -1.6651    0.2414    0.0000 C   0  0  0  0  0  0  0  0  0  0  0  0
   -1.6651   -0.5834    0.0000 N   0  0  0  0  0  0  0  0  0  0  0  0
   -2.3795   -0.9959    0.0000 C   0  0  0  0  0  0  0  0  0  0  0  0
   -3.1050   -0.5769    0.0000 C   0  0  0  0  0  0  0  0  0  0  0  0
   -2.3795   -1.8209    0.0000 O   0  0  0  0  0  0  0  0  0  0  0  0
    1.1531    1.0664    0.0000 C   0  0  1  0  0  0  0  0  0  0  0  0
    1.5656    0.3519    0.0000 C   0  0  0  0  0  0  0  0  0  0  0  0
    1.5656    1.7808    0.0000 C   0  0  0  0  0  0  0  0  0  0  0  0
    2.3905    1.7808    0.0000 S   0  0  0  0  0  0  0  0  0  0  0  0
    2.3791    0.3519    0.0000 C   0  0  0  0  0  0  0  0  0  0  0  0
    2.7916   -0.3624    0.0000 C   0  0  0  0  0  0  0  0  0  0  0  0
    2.3792   -1.0769    0.0000 C   0  0  0  0  0  0  0  0  0  0  0  0
    1.5656   -1.0770    0.0000 C   0  0  0  0  0  0  0  0  0  0  0  0
    1.1531   -0.3625    0.0000 C   0  0  0  0  0  0  0  0  0  0  0  0
    2.7952   -1.7975    0.0000 O   0  0  0  0  0  0  0  0  0  0  0  0
    1.1532   -1.7914    0.0000 O   0  0  0  0  0  0  0  0  0  0  0  0
    0.3408   -1.7916    0.0000 C   0  0  0  0  0  0  0  0  0  0  0  0
   -0.0746   -2.5114    0.0000 C   0  0  0  0  0  0  0  0  0  0  0  0
    2.3871   -2.5039    0.0000 C   0  0  0  0  0  0  0  0  0  0  0  0
    2.8030    2.4953    0.0000 C   0  0  0  0  0  0  0  0  0  0  0  0
    3.1050    1.3683    0.0000 O   0  0  0  0  0  0  0  0  0  0  0  0
    2.3905    0.9558    0.0000 O   0  0  0  0  0  0  0  0  0  0  0  0
   -1.6652    2.9234    0.0000 H   0  0  0  0  0  0  0  0  0  0  0  0
   -3.2732    1.9949    0.0000 H   0  0  0  0  0  0  0  0  0  0  0  0
   -3.2732    0.1379    0.0000 H   0  0  0  0  0  0  0  0  0  0  0  0
   -0.8125   -1.0756    0.0000 H   0  0  0  0  0  0  0  0  0  0  0  0
   -3.1049    0.4931    0.0000 H   0  0  0  0  0  0  0  0  0  0  0  0
   -4.0317   -1.1118    0.0000 H   0  0  0  0  0  0  0  0  0  0  0  0
   -4.0316   -0.0418    0.0000 H   0  0  0  0  0  0  0  0  0  0  0  0
    0.6181    1.9931    0.0000 H   0  0  0  0  0  0  0  0  0  0  0  0
    1.0306    2.7075    0.0000 H   0  0  0  0  0  0  0  0  0  0  0  0
    2.1006    2.7074    0.0000 H   0  0  0  0  0  0  0  0  0  0  0  0
    2.8951    1.2457    0.0000 H   0  0  0  0  0  0  0  0  0  0  0  0
    3.8236   -0.3623    0.0000 H   0  0  0  0  0  0  0  0  0  0  0  0
    0.1211   -0.3625    0.0000 H   0  0  0  0  0  0  0  0  0  0  0  0
   -0.1944   -0.8651    0.0000 H   0  0  0  0  0  0  0  0  0  0  0  0
   -0.7292   -1.7918    0.0000 H   0  0  0  0  0  0  0  0  0  0  0  0
   -1.1446   -2.5116    0.0000 H   0  0  0  0  0  0  0  0  0  0  0  0
    0.4606   -3.4379    0.0000 H   0  0  0  0  0  0  0  0  0  0  0  0
   -0.6094   -3.4381    0.0000 H   0  0  0  0  0  0  0  0  0  0  0  0
    1.3171   -2.5036    0.0000 H   0  0  0  0  0  0  0  0  0  0  0  0
    2.9218   -3.4307    0.0000 H   0  0  0  0  0  0  0  0  0  0  0  0
    1.8518   -3.4304    0.0000 H   0  0  0  0  0  0  0  0  0  0  0  0
    3.8730    2.4953    0.0000 H   0  0  0  0  0  0  0  0  0  0  0  0
    2.2680    3.4219    0.0000 H   0  0  0  0  0  0  0  0  0  0  0  0
    3.3380    3.4220    0.0000 H   0  0  0  0  0  0  0  0  0  0  0  0
  1  2  1  0  0  0  0
  1  5  1  0  0  0  0
  1  8  2  0  0  0  0
  2  3  1  0  0  0  0
  2 11  2  0  0  0  0
  3  4  1  0  0  0  0
  3  7  2  0  0  0  0
  4  5  1  0  0  0  0
  4 16  1  0  0  0  0
  5  6  2  0  0  0  0
  8  9  1  0  0  0  0
  8 33  1  0  0  0  0
  9 10  2  0  0  0  0
  9 34  1  0  0  0  0
 10 11  1  0  0  0  0
 10 35  1  0  0  0  0
 11 12  1  0  0  0  0
 12 13  1  0  0  0  0
 12 36  1  0  0  0  0
 13 14  1  0  0  0  0
 13 15  2  0  0  0  0
 14 37  1  0  0  0  0
 14 38  1  0  0  0  0
 14 39  1  0  0  0  0
 16 17  1  0  0  0  0
 16 18  1  0  0  0  0
 16 40  1  1  0  0  0
 17 20  2  0  0  0  0
 17 24  1  0  0  0  0
 18 19  1  0  0  0  0
 18 41  1  0  0  0  0
 18 42  1  0  0  0  0
 19 30  1  0  0  0  0
 20 21  1  0  0  0  0
 20 43  1  0  0  0  0
 21 22  2  0  0  0  0
 21 44  1  0  0  0  0
 22 23  1  0  0  0  0
 22 25  1  0  0  0  0
 23 24  2  0  0  0  0
 23 26  1  0  0  0  0
 24 45  1  0  0  0  0
 25 29  1  0  0  0  0
 26 27  1  0  0  0  0
 27 28  1  0  0  0  0
 27 46  1  0  0  0  0
 27 47  1  0  0  0  0
 28 48  1  0  0  0  0
 28 49  1  0  0  0  0
 28 50  1  0  0  0  0
 29 51  1  0  0  0  0
 29 52  1  0  0  0  0
 29 53  1  0  0  0  0
 30 54  1  0  0  0  0
 30 55  1  0  0  0  0
 30 56  1  0  0  0  0
 31 19  2  0  0  0  0
 32 19  2  0  0  0  0
M  END
>  <DRUGBANK_ID>
DB05676

>  <COMMON_NAME>
Apremilast

>  <CAS_NUMBER>
608141-41-9

>  <UNII>
UP7QBP99PN

>  <SYNONYMS>
Apremilast; Apr√©milast; Apremilastum; N-{2-[(1S)-1-(3-Ethoxy-4-methoxyphenyl)-2-(methylsulfonyl)ethyl]-1,3-dioxo-2,3-dihydro-1H-isoindol-4-yl}acetamide

$$$$
