
 OpenBabel10282417072D

 60 63  0  0  0  0  0  0  0  0999 V2000
   -2.1434    1.2375    0.0000 C   0  0  0  0  0  0  0  0  0  0  0  0
    5.0013   -2.8875    0.0000 C   0  0  0  0  0  0  0  0  0  0  0  0
   -1.4289    0.8250    0.0000 C   0  0  0  0  0  0  0  0  0  0  0  0
    5.0013    1.2375    0.0000 C   0  0  0  0  0  0  0  0  0  0  0  0
    5.0013    2.0625    0.0000 C   0  0  0  0  0  0  0  0  0  0  0  0
    2.1434   -0.4125    0.0000 C   0  0  0  0  0  0  0  0  0  0  0  0
   -0.7145    1.2375    0.0000 C   0  0  0  0  0  0  0  0  0  0  0  0
    4.2868    0.8250    0.0000 C   0  0  0  0  0  0  0  0  0  0  0  0
    4.2868    2.4750    0.0000 C   0  0  0  0  0  0  0  0  0  0  0  0
    0.7145    2.0625    0.0000 C   0  0  0  0  0  0  0  0  0  0  0  0
    1.4289    2.4750    0.0000 C   0  0  0  0  0  0  0  0  0  0  0  0
    2.1434   -1.2375    0.0000 C   0  0  0  0  0  0  0  0  0  0  0  0
    2.8579    0.0000    0.0000 C   0  0  0  0  0  0  0  0  0  0  0  0
    4.2868   -1.6500    0.0000 C   0  0  0  0  0  0  0  0  0  0  0  0
    3.5724   -2.8875    0.0000 C   0  0  0  0  0  0  0  0  0  0  0  0
    3.5724   -1.2375    0.0000 C   0  0  0  0  0  0  0  0  0  0  0  0
    2.8579   -2.4750    0.0000 C   0  0  0  0  0  0  0  0  0  0  0  0
    1.4289    0.8250    0.0000 C   0  0  0  0  0  0  0  0  0  0  0  0
    0.7145    1.2375    0.0000 C   0  0  0  0  0  0  0  0  0  0  0  0
    3.5724    1.2375    0.0000 C   0  0  0  0  0  0  0  0  0  0  0  0
    2.1434    1.2375    0.0000 C   0  0  0  0  0  0  0  0  0  0  0  0
   -0.0000    0.8250    0.0000 C   0  0  0  0  0  0  0  0  0  0  0  0
    3.5724    2.0625    0.0000 C   0  0  0  0  0  0  0  0  0  0  0  0
    2.1434    2.0625    0.0000 C   0  0  0  0  0  0  0  0  0  0  0  0
    4.2868   -2.4750    0.0000 N   0  0  0  0  0  0  0  0  0  0  0  0
    2.8579   -1.6500    0.0000 N   0  0  0  0  0  0  0  0  0  0  0  0
    2.8579    0.8250    0.0000 N   0  0  0  0  0  0  0  0  0  0  0  0
   -0.0000   -0.0000    0.0000 O   0  0  0  0  0  0  0  0  0  0  0  0
    2.8579    2.4750    0.0000 S   0  0  0  0  0  0  0  0  0  0  0  0
   -2.1434    2.3075    0.0000 H   0  0  0  0  0  0  0  0  0  0  0  0
   -3.0700    0.7025    0.0000 H   0  0  0  0  0  0  0  0  0  0  0  0
   -3.0701    1.7725    0.0000 H   0  0  0  0  0  0  0  0  0  0  0  0
    5.0013   -3.9575    0.0000 H   0  0  0  0  0  0  0  0  0  0  0  0
    5.9279   -2.3525    0.0000 H   0  0  0  0  0  0  0  0  0  0  0  0
    5.9280   -3.4225    0.0000 H   0  0  0  0  0  0  0  0  0  0  0  0
   -1.4289   -0.2450    0.0000 H   0  0  0  0  0  0  0  0  0  0  0  0
   -0.5022    0.2900    0.0000 H   0  0  0  0  0  0  0  0  0  0  0  0
    5.8950    0.7215    0.0000 H   0  0  0  0  0  0  0  0  0  0  0  0
    5.8950    2.5785    0.0000 H   0  0  0  0  0  0  0  0  0  0  0  0
    1.2168    0.1225    0.0000 H   0  0  0  0  0  0  0  0  0  0  0  0
    2.1434    0.6575    0.0000 H   0  0  0  0  0  0  0  0  0  0  0  0
   -0.7145    2.3075    0.0000 H   0  0  0  0  0  0  0  0  0  0  0  0
    0.2121    1.7725    0.0000 H   0  0  0  0  0  0  0  0  0  0  0  0
    4.2868   -0.2070    0.0000 H   0  0  0  0  0  0  0  0  0  0  0  0
    4.2868    3.5070    0.0000 H   0  0  0  0  0  0  0  0  0  0  0  0
   -0.1792    2.5785    0.0000 H   0  0  0  0  0  0  0  0  0  0  0  0
    1.4289    3.5070    0.0000 H   0  0  0  0  0  0  0  0  0  0  0  0
    1.2168   -1.7725    0.0000 H   0  0  0  0  0  0  0  0  0  0  0  0
    2.1434   -2.3075    0.0000 H   0  0  0  0  0  0  0  0  0  0  0  0
    3.7845   -0.5350    0.0000 H   0  0  0  0  0  0  0  0  0  0  0  0
    3.7845    0.5350    0.0000 H   0  0  0  0  0  0  0  0  0  0  0  0
    5.2135   -1.1150    0.0000 H   0  0  0  0  0  0  0  0  0  0  0  0
    5.2134   -2.1850    0.0000 H   0  0  0  0  0  0  0  0  0  0  0  0
    3.5724   -3.9575    0.0000 H   0  0  0  0  0  0  0  0  0  0  0  0
    4.4991   -3.4225    0.0000 H   0  0  0  0  0  0  0  0  0  0  0  0
    3.5724   -0.1675    0.0000 H   0  0  0  0  0  0  0  0  0  0  0  0
    2.6458   -0.7025    0.0000 H   0  0  0  0  0  0  0  0  0  0  0  0
    1.9313   -3.0100    0.0000 H   0  0  0  0  0  0  0  0  0  0  0  0
    1.9313   -1.9400    0.0000 H   0  0  0  0  0  0  0  0  0  0  0  0
    1.4289   -0.2070    0.0000 H   0  0  0  0  0  0  0  0  0  0  0  0
  1 30  1  0  0  0  0
  1 31  1  0  0  0  0
  1 32  1  0  0  0  0
  2 33  1  0  0  0  0
  2 34  1  0  0  0  0
  2 35  1  0  0  0  0
  3  1  1  0  0  0  0
  3 36  1  0  0  0  0
  3 37  1  0  0  0  0
  4 38  1  0  0  0  0
  5  4  2  0  0  0  0
  5 39  1  0  0  0  0
  6 40  1  0  0  0  0
  6 41  1  0  0  0  0
  7  3  1  0  0  0  0
  7 42  1  0  0  0  0
  7 43  1  0  0  0  0
  8  4  1  0  0  0  0
  8 44  1  0  0  0  0
  9  5  1  0  0  0  0
  9 45  1  0  0  0  0
 10 46  1  0  0  0  0
 11 10  2  0  0  0  0
 11 47  1  0  0  0  0
 12  6  1  0  0  0  0
 12 48  1  0  0  0  0
 12 49  1  0  0  0  0
 13  6  1  0  0  0  0
 13 50  1  0  0  0  0
 13 51  1  0  0  0  0
 14 52  1  0  0  0  0
 14 53  1  0  0  0  0
 15 54  1  0  0  0  0
 15 55  1  0  0  0  0
 16 14  1  0  0  0  0
 16 56  1  0  0  0  0
 16 57  1  0  0  0  0
 17 15  1  0  0  0  0
 17 58  1  0  0  0  0
 17 59  1  0  0  0  0
 18 60  1  0  0  0  0
 19 10  1  0  0  0  0
 19 18  2  0  0  0  0
 20  8  2  0  0  0  0
 21 18  1  0  0  0  0
 22  7  1  0  0  0  0
 22 19  1  0  0  0  0
 23  9  2  0  0  0  0
 23 20  1  0  0  0  0
 24 11  1  0  0  0  0
 24 21  2  0  0  0  0
 25  2  1  0  0  0  0
 25 14  1  0  0  0  0
 25 15  1  0  0  0  0
 26 12  1  0  0  0  0
 26 16  1  0  0  0  0
 26 17  1  0  0  0  0
 27 13  1  0  0  0  0
 27 20  1  0  0  0  0
 27 21  1  0  0  0  0
 28 22  2  0  0  0  0
 29 23  1  0  0  0  0
 29 24  1  0  0  0  0
M  END
>  <DRUGBANK_ID>
DB13213

>  <COMMON_NAME>
Butaperazine

>  <CAS_NUMBER>
653-03-2

>  <UNII>
TXP4T9106S

>  <SYNONYMS>
Butaperazine

$$$$
