942
 OpenBabel10282417072D

 50 52  0  0  1  0  0  0  0  0999 V2000
    1.9058    0.1902    0.0000 O   0  0  0  0  0  0  0  0  0  0  0  0
    4.7934    0.9047    0.0000 N   0  0  0  0  0  0  0  0  0  0  0  0
    2.7308    1.0153    0.0000 C   0  0  0  0  0  0  0  0  0  0  0  0
    2.7308    0.1902    0.0000 C   0  0  3  0  0  0  0  0  0  0  0  0
    2.0634    1.5002    0.0000 C   0  0  0  0  0  0  0  0  0  0  0  0
    3.3982    1.5002    0.0000 C   0  0  0  0  0  0  0  0  0  0  0  0
    2.3183    2.2848    0.0000 C   0  0  0  0  0  0  0  0  0  0  0  0
    3.1433    2.2848    0.0000 C   0  0  0  0  0  0  0  0  0  0  0  0
    3.5558    0.1902    0.0000 C   0  0  0  0  0  0  0  0  0  0  0  0
    3.9683    0.9047    0.0000 C   0  0  0  0  0  0  0  0  0  0  0  0
    2.7308   -0.6348    0.0000 C   0  0  0  0  0  0  0  0  0  0  0  0
    5.2059    1.6192    0.0000 C   0  0  0  0  0  0  0  0  0  0  0  0
    5.2059    0.1902    0.0000 C   0  0  0  0  0  0  0  0  0  0  0  0
    6.0309    1.6192    0.0000 C   0  0  0  0  0  0  0  0  0  0  0  0
    6.0309    0.1902    0.0000 C   0  0  0  0  0  0  0  0  0  0  0  0
    6.4434    0.9047    0.0000 C   0  0  0  0  0  0  0  0  0  0  0  0
    3.4453   -1.0473    0.0000 C   0  0  0  0  0  0  0  0  0  0  0  0
    2.0163   -1.0473    0.0000 C   0  0  0  0  0  0  0  0  0  0  0  0
    3.4453   -1.8723    0.0000 C   0  0  0  0  0  0  0  0  0  0  0  0
    2.0163   -1.8723    0.0000 C   0  0  0  0  0  0  0  0  0  0  0  0
    2.7308   -2.2848    0.0000 C   0  0  0  0  0  0  0  0  0  0  0  0
    1.4208    1.0302    0.0000 H   0  0  0  0  0  0  0  0  0  0  0  0
    2.7308    2.0853    0.0000 H   0  0  0  0  0  0  0  0  0  0  0  0
    1.0458    1.1695    0.0000 H   0  0  0  0  0  0  0  0  0  0  0  0
    1.3068    2.2568    0.0000 H   0  0  0  0  0  0  0  0  0  0  0  0
    4.4158    1.1695    0.0000 H   0  0  0  0  0  0  0  0  0  0  0  0
    4.1548    2.2568    0.0000 H   0  0  0  0  0  0  0  0  0  0  0  0
    1.6894    3.1504    0.0000 H   0  0  0  0  0  0  0  0  0  0  0  0
    2.8041    3.2382    0.0000 H   0  0  0  0  0  0  0  0  0  0  0  0
    3.7722    3.1504    0.0000 H   0  0  0  0  0  0  0  0  0  0  0  0
    2.6575    3.2382    0.0000 H   0  0  0  0  0  0  0  0  0  0  0  0
    4.0908   -0.7364    0.0000 H   0  0  0  0  0  0  0  0  0  0  0  0
    4.6258    0.1902    0.0000 H   0  0  0  0  0  0  0  0  0  0  0  0
    3.4333    1.8313    0.0000 H   0  0  0  0  0  0  0  0  0  0  0  0
    2.8983    0.9047    0.0000 H   0  0  0  0  0  0  0  0  0  0  0  0
    4.6709    2.5458    0.0000 H   0  0  0  0  0  0  0  0  0  0  0  0
    5.7409    2.5458    0.0000 H   0  0  0  0  0  0  0  0  0  0  0  0
    4.6709   -0.7364    0.0000 H   0  0  0  0  0  0  0  0  0  0  0  0
    5.7409   -0.7364    0.0000 H   0  0  0  0  0  0  0  0  0  0  0  0
    6.5659    2.5458    0.0000 H   0  0  0  0  0  0  0  0  0  0  0  0
    7.1009    1.6192    0.0000 H   0  0  0  0  0  0  0  0  0  0  0  0
    6.5659   -0.7364    0.0000 H   0  0  0  0  0  0  0  0  0  0  0  0
    7.1009    0.1902    0.0000 H   0  0  0  0  0  0  0  0  0  0  0  0
    7.5134    0.9047    0.0000 H   0  0  0  0  0  0  0  0  0  0  0  0
    6.9784   -0.0219    0.0000 H   0  0  0  0  0  0  0  0  0  0  0  0
    4.3390   -0.5313    0.0000 H   0  0  0  0  0  0  0  0  0  0  0  0
    1.1226   -0.5313    0.0000 H   0  0  0  0  0  0  0  0  0  0  0  0
    4.3390   -2.3883    0.0000 H   0  0  0  0  0  0  0  0  0  0  0  0
    1.1226   -2.3883    0.0000 H   0  0  0  0  0  0  0  0  0  0  0  0
    2.7308   -3.3168    0.0000 H   0  0  0  0  0  0  0  0  0  0  0  0
  1  4  1  0  0  0  0
  1 22  1  0  0  0  0
  2 10  1  0  0  0  0
  2 12  1  0  0  0  0
  2 13  1  0  0  0  0
  3  4  1  0  0  0  0
  3  5  1  0  0  0  0
  3  6  1  0  0  0  0
  3 23  1  0  0  0  0
  4  9  1  0  0  0  0
  4 11  1  0  0  0  0
  5  7  1  0  0  0  0
  5 24  1  0  0  0  0
  5 25  1  0  0  0  0
  6  8  1  0  0  0  0
  6 26  1  0  0  0  0
  6 27  1  0  0  0  0
  7  8  1  0  0  0  0
  7 28  1  0  0  0  0
  7 29  1  0  0  0  0
  8 30  1  0  0  0  0
  8 31  1  0  0  0  0
  9 10  1  0  0  0  0
  9 32  1  0  0  0  0
  9 33  1  0  0  0  0
 10 34  1  0  0  0  0
 10 35  1  0  0  0  0
 11 17  2  0  0  0  0
 11 18  1  0  0  0  0
 12 14  1  0  0  0  0
 12 36  1  0  0  0  0
 12 37  1  0  0  0  0
 13 15  1  0  0  0  0
 13 38  1  0  0  0  0
 13 39  1  0  0  0  0
 14 16  1  0  0  0  0
 14 40  1  0  0  0  0
 14 41  1  0  0  0  0
 15 16  1  0  0  0  0
 15 42  1  0  0  0  0
 15 43  1  0  0  0  0
 16 44  1  0  0  0  0
 16 45  1  0  0  0  0
 17 19  1  0  0  0  0
 17 46  1  0  0  0  0
 18 20  2  0  0  0  0
 18 47  1  0  0  0  0
 19 21  2  0  0  0  0
 19 48  1  0  0  0  0
 20 21  1  0  0  0  0
 20 49  1  0  0  0  0
 21 50  1  0  0  0  0
M  END
>  <DRUGBANK_ID>
DB00942

>  <SECONDARY_ACCESSION_NUMBERS>
APRD00731

>  <COMMON_NAME>
Cycrimine

>  <CAS_NUMBER>
77-39-4

>  <UNII>
543567RFQQ

>  <SYNONYMS>
(Â±)-cycrimine; alpha-cyclopentyl-alpha-phenyl-1-piperidinepropanol; Cicrimina; Cycrimine; Cycriminum

$$$$
