16P
 OpenBabel10282417072D

 50 49  0  0  0  0  0  0  0  0999 V2000
   -6.7880   -0.2068    0.0000 C   0  0  0  0  0  0  0  0  0  0  0  0
   -6.0735    0.2057    0.0000 C   0  0  0  0  0  0  0  0  0  0  0  0
   -5.3589   -0.2068    0.0000 O   0  0  0  0  0  0  0  0  0  0  0  0
   -4.6444    0.2057    0.0000 C   0  0  0  0  0  0  0  0  0  0  0  0
   -3.9299   -0.2068    0.0000 C   0  0  0  0  0  0  0  0  0  0  0  0
   -3.2153    0.2057    0.0000 O   0  0  0  0  0  0  0  0  0  0  0  0
   -2.5008   -0.2068    0.0000 C   0  0  0  0  0  0  0  0  0  0  0  0
   -1.7863    0.2057    0.0000 C   0  0  0  0  0  0  0  0  0  0  0  0
   -1.0718   -0.2068    0.0000 O   0  0  0  0  0  0  0  0  0  0  0  0
   -0.3572    0.2057    0.0000 C   0  0  0  0  0  0  0  0  0  0  0  0
    0.3572   -0.2068    0.0000 C   0  0  0  0  0  0  0  0  0  0  0  0
    1.0718    0.2057    0.0000 O   0  0  0  0  0  0  0  0  0  0  0  0
    1.7863   -0.2068    0.0000 C   0  0  0  0  0  0  0  0  0  0  0  0
    2.5008    0.2057    0.0000 C   0  0  0  0  0  0  0  0  0  0  0  0
    3.2153   -0.2068    0.0000 O   0  0  0  0  0  0  0  0  0  0  0  0
    3.9299    0.2057    0.0000 C   0  0  0  0  0  0  0  0  0  0  0  0
    4.6444   -0.2068    0.0000 C   0  0  0  0  0  0  0  0  0  0  0  0
    5.3589    0.2057    0.0000 O   0  0  0  0  0  0  0  0  0  0  0  0
    6.0735   -0.2068    0.0000 C   0  0  0  0  0  0  0  0  0  0  0  0
    6.7880    0.2057    0.0000 C   0  0  0  0  0  0  0  0  0  0  0  0
   -7.7146    0.3282    0.0000 H   0  0  0  0  0  0  0  0  0  0  0  0
   -6.7880   -1.2768    0.0000 H   0  0  0  0  0  0  0  0  0  0  0  0
   -7.7147   -0.7418    0.0000 H   0  0  0  0  0  0  0  0  0  0  0  0
   -6.0735    1.2757    0.0000 H   0  0  0  0  0  0  0  0  0  0  0  0
   -5.1469    0.7408    0.0000 H   0  0  0  0  0  0  0  0  0  0  0  0
   -4.6444    1.2757    0.0000 H   0  0  0  0  0  0  0  0  0  0  0  0
   -3.7178    0.7407    0.0000 H   0  0  0  0  0  0  0  0  0  0  0  0
   -3.9299   -1.2768    0.0000 H   0  0  0  0  0  0  0  0  0  0  0  0
   -3.0033   -0.7419    0.0000 H   0  0  0  0  0  0  0  0  0  0  0  0
   -2.5008   -1.2768    0.0000 H   0  0  0  0  0  0  0  0  0  0  0  0
   -1.5742   -0.7418    0.0000 H   0  0  0  0  0  0  0  0  0  0  0  0
   -1.7863    1.2757    0.0000 H   0  0  0  0  0  0  0  0  0  0  0  0
   -0.8597    0.7407    0.0000 H   0  0  0  0  0  0  0  0  0  0  0  0
   -0.3571    1.2757    0.0000 H   0  0  0  0  0  0  0  0  0  0  0  0
    0.5695    0.7407    0.0000 H   0  0  0  0  0  0  0  0  0  0  0  0
    0.3571   -1.2768    0.0000 H   0  0  0  0  0  0  0  0  0  0  0  0
    1.2838   -0.7419    0.0000 H   0  0  0  0  0  0  0  0  0  0  0  0
    1.7863   -1.2768    0.0000 H   0  0  0  0  0  0  0  0  0  0  0  0
    2.7129   -0.7418    0.0000 H   0  0  0  0  0  0  0  0  0  0  0  0
    2.5008    1.2757    0.0000 H   0  0  0  0  0  0  0  0  0  0  0  0
    3.4274    0.7407    0.0000 H   0  0  0  0  0  0  0  0  0  0  0  0
    3.9299    1.2757    0.0000 H   0  0  0  0  0  0  0  0  0  0  0  0
    4.8566    0.7407    0.0000 H   0  0  0  0  0  0  0  0  0  0  0  0
    4.6444   -1.2768    0.0000 H   0  0  0  0  0  0  0  0  0  0  0  0
    5.5710   -0.7418    0.0000 H   0  0  0  0  0  0  0  0  0  0  0  0
    6.0735   -1.2768    0.0000 H   0  0  0  0  0  0  0  0  0  0  0  0
    7.0002   -0.7418    0.0000 H   0  0  0  0  0  0  0  0  0  0  0  0
    7.7146   -0.3293    0.0000 H   0  0  0  0  0  0  0  0  0  0  0  0
    6.7880    1.2757    0.0000 H   0  0  0  0  0  0  0  0  0  0  0  0
    7.7147    0.7407    0.0000 H   0  0  0  0  0  0  0  0  0  0  0  0
  1  2  1  0  0  0  0
  1 21  1  0  0  0  0
  1 22  1  0  0  0  0
  1 23  1  0  0  0  0
  2  3  1  0  0  0  0
  2 24  1  0  0  0  0
  2 25  1  0  0  0  0
  3  4  1  0  0  0  0
  4  5  1  0  0  0  0
  4 26  1  0  0  0  0
  4 27  1  0  0  0  0
  5  6  1  0  0  0  0
  5 28  1  0  0  0  0
  5 29  1  0  0  0  0
  6  7  1  0  0  0  0
  7  8  1  0  0  0  0
  7 30  1  0  0  0  0
  7 31  1  0  0  0  0
  8  9  1  0  0  0  0
  8 32  1  0  0  0  0
  8 33  1  0  0  0  0
  9 10  1  0  0  0  0
 10 11  1  0  0  0  0
 10 34  1  0  0  0  0
 10 35  1  0  0  0  0
 11 12  1  0  0  0  0
 11 36  1  0  0  0  0
 11 37  1  0  0  0  0
 12 13  1  0  0  0  0
 13 14  1  0  0  0  0
 13 38  1  0  0  0  0
 13 39  1  0  0  0  0
 14 15  1  0  0  0  0
 14 40  1  0  0  0  0
 14 41  1  0  0  0  0
 15 16  1  0  0  0  0
 16 17  1  0  0  0  0
 16 42  1  0  0  0  0
 16 43  1  0  0  0  0
 17 18  1  0  0  0  0
 17 44  1  0  0  0  0
 17 45  1  0  0  0  0
 18 19  1  0  0  0  0
 19 20  1  0  0  0  0
 19 46  1  0  0  0  0
 19 47  1  0  0  0  0
 20 48  1  0  0  0  0
 20 49  1  0  0  0  0
 20 50  1  0  0  0  0
M  END
>  <DRUGBANK_ID>
DB06867

>  <COMMON_NAME>
3,6,9,12,15,18-HEXAOXAICOSANE

>  <UNII>
72DU7F2YXZ

$$$$
