3CC
 OpenBabel10282417072D

 49 50  0  0  0  0  0  0  0  0999 V2000
    1.9657   -2.6123    0.0000 C   0  0  0  0  0  0  0  0  0  0  0  0
    1.5532   -3.3268    0.0000 C   0  0  0  0  0  0  0  0  0  0  0  0
    0.7282   -3.3268    0.0000 C   0  0  0  0  0  0  0  0  0  0  0  0
    0.3157   -2.6123    0.0000 C   0  0  0  0  0  0  0  0  0  0  0  0
    1.5532   -1.8978    0.0000 C   0  0  0  0  0  0  0  0  0  0  0  0
    0.7282   -1.8978    0.0000 C   0  0  0  0  0  0  0  0  0  0  0  0
    0.4733   -1.1132    0.0000 C   0  0  0  0  0  0  0  0  0  0  0  0
    1.1407   -0.6283    0.0000 C   0  0  2  0  0  0  0  0  0  0  0  0
    1.8082   -1.1132    0.0000 C   0  0  0  0  0  0  0  0  0  0  0  0
    1.9657   -4.0412    0.0000 S   0  0  0  0  0  0  0  0  0  0  0  0
    2.3782   -4.7557    0.0000 O   0  0  0  0  0  0  0  0  0  0  0  0
    2.6802   -3.6287    0.0000 O   0  0  0  0  0  0  0  0  0  0  0  0
    1.2513   -4.4537    0.0000 N   0  0  0  0  0  0  0  0  0  0  0  0
    1.1407    0.1967    0.0000 N   0  0  0  0  0  0  0  0  0  0  0  0
    0.4263    0.6092    0.0000 C   0  0  0  0  0  0  0  0  0  0  0  0
   -0.2882    0.1967    0.0000 O   0  0  0  0  0  0  0  0  0  0  0  0
    0.4263    1.4342    0.0000 C   0  0  0  0  0  0  0  0  0  0  0  0
   -0.2882    1.8467    0.0000 C   0  0  0  0  0  0  0  0  0  0  0  0
   -0.2882    2.6717    0.0000 C   0  0  0  0  0  0  0  0  0  0  0  0
   -1.0027    3.0842    0.0000 C   0  0  0  0  0  0  0  0  0  0  0  0
    1.1407    1.8467    0.0000 C   0  0  0  0  0  0  0  0  0  0  0  0
    1.1407    2.6717    0.0000 C   0  0  0  0  0  0  0  0  0  0  0  0
    1.8552    3.0842    0.0000 C   0  0  0  0  0  0  0  0  0  0  0  0
    0.6204   -0.3632    0.0000 H   0  0  0  0  0  0  0  0  0  0  0  0
    2.9977   -2.6123    0.0000 H   0  0  0  0  0  0  0  0  0  0  0  0
    0.2122   -4.2205    0.0000 H   0  0  0  0  0  0  0  0  0  0  0  0
   -0.7163   -2.6123    0.0000 H   0  0  0  0  0  0  0  0  0  0  0  0
   -0.5443   -0.7825    0.0000 H   0  0  0  0  0  0  0  0  0  0  0  0
    0.3059   -0.0564    0.0000 H   0  0  0  0  0  0  0  0  0  0  0  0
    2.8258   -0.7826    0.0000 H   0  0  0  0  0  0  0  0  0  0  0  0
    2.5648   -1.8698    0.0000 H   0  0  0  0  0  0  0  0  0  0  0  0
    0.3679   -3.9437    0.0000 H   0  0  0  0  0  0  0  0  0  0  0  0
    1.2513   -5.4737    0.0000 H   0  0  0  0  0  0  0  0  0  0  0  0
    1.9933    0.6889    0.0000 H   0  0  0  0  0  0  0  0  0  0  0  0
    0.4263    2.5042    0.0000 H   0  0  0  0  0  0  0  0  0  0  0  0
   -1.2148    1.3117    0.0000 H   0  0  0  0  0  0  0  0  0  0  0  0
   -1.2148    2.3817    0.0000 H   0  0  0  0  0  0  0  0  0  0  0  0
    0.6384    3.2067    0.0000 H   0  0  0  0  0  0  0  0  0  0  0  0
   -0.2882    3.7417    0.0000 H   0  0  0  0  0  0  0  0  0  0  0  0
   -1.0027    4.1542    0.0000 H   0  0  0  0  0  0  0  0  0  0  0  0
   -1.9293    2.5492    0.0000 H   0  0  0  0  0  0  0  0  0  0  0  0
   -1.9294    3.6192    0.0000 H   0  0  0  0  0  0  0  0  0  0  0  0
    2.0674    1.3117    0.0000 H   0  0  0  0  0  0  0  0  0  0  0  0
    2.0673    2.3817    0.0000 H   0  0  0  0  0  0  0  0  0  0  0  0
    0.2141    3.2067    0.0000 H   0  0  0  0  0  0  0  0  0  0  0  0
    1.1407    3.7417    0.0000 H   0  0  0  0  0  0  0  0  0  0  0  0
    2.7818    2.5492    0.0000 H   0  0  0  0  0  0  0  0  0  0  0  0
    1.8552    4.1542    0.0000 H   0  0  0  0  0  0  0  0  0  0  0  0
    2.7819    3.6192    0.0000 H   0  0  0  0  0  0  0  0  0  0  0  0
  1  2  2  0  0  0  0
  1 25  1  0  0  0  0
  2 10  1  0  0  0  0
  3  2  1  0  0  0  0
  3 26  1  0  0  0  0
  4  3  2  0  0  0  0
  4 27  1  0  0  0  0
  5  1  1  0  0  0  0
  6  5  2  0  0  0  0
  6  4  1  0  0  0  0
  7  6  1  0  0  0  0
  7 28  1  0  0  0  0
  7 29  1  0  0  0  0
  8  7  1  0  0  0  0
  8  9  1  0  0  0  0
  8 24  1  6  0  0  0
  8 14  1  0  0  0  0
  9  5  1  0  0  0  0
  9 30  1  0  0  0  0
  9 31  1  0  0  0  0
 10 11  2  0  0  0  0
 12 10  2  0  0  0  0
 13 10  1  0  0  0  0
 13 32  1  0  0  0  0
 13 33  1  0  0  0  0
 14 34  1  0  0  0  0
 15 14  1  0  0  0  0
 16 15  2  0  0  0  0
 17 15  1  0  0  0  0
 17 18  1  0  0  0  0
 17 35  1  0  0  0  0
 18 19  1  0  0  0  0
 18 36  1  0  0  0  0
 18 37  1  0  0  0  0
 19 20  1  0  0  0  0
 19 38  1  0  0  0  0
 19 39  1  0  0  0  0
 20 40  1  0  0  0  0
 20 41  1  0  0  0  0
 20 42  1  0  0  0  0
 21 17  1  0  0  0  0
 21 43  1  0  0  0  0
 21 44  1  0  0  0  0
 22 21  1  0  0  0  0
 22 45  1  0  0  0  0
 22 46  1  0  0  0  0
 23 22  1  0  0  0  0
 23 47  1  0  0  0  0
 23 48  1  0  0  0  0
 23 49  1  0  0  0  0
M  END
>  <DRUGBANK_ID>
DB07048

>  <COMMON_NAME>
N-[(2R)-5-(aminosulfonyl)-2,3-dihydro-1H-inden-2-yl]-2-propylpentanamide

$$$$
