
 OpenBabel10282417072D

 63 67  0  0  0  0  0  0  0  0999 V2000
    3.9247   -0.5673    0.0000 C   0  0  0  0  0  0  0  0  0  0  0  0
    3.9235   -1.3951    0.0000 C   0  0  0  0  0  0  0  0  0  0  0  0
    4.6388   -1.8083    0.0000 N   0  0  0  0  0  0  0  0  0  0  0  0
    5.3557   -1.3947    0.0000 C   0  0  0  0  0  0  0  0  0  0  0  0
    5.3528   -0.5636    0.0000 N   0  0  0  0  0  0  0  0  0  0  0  0
    4.6370   -0.1542    0.0000 C   0  0  0  0  0  0  0  0  0  0  0  0
    6.0712   -1.8063    0.0000 N   0  0  0  0  0  0  0  0  0  0  0  0
    3.2096   -0.1546    0.0000 C   0  0  0  0  0  0  0  0  0  0  0  0
    3.2094    0.6707    0.0000 O   0  0  0  0  0  0  0  0  0  0  0  0
    2.4949   -0.5676    0.0000 N   0  0  0  0  0  0  0  0  0  0  0  0
    1.7799   -0.1550    0.0000 C   0  0  0  0  0  0  0  0  0  0  0  0
    1.0681   -0.5695    0.0000 N   0  0  0  0  0  0  0  0  0  0  0  0
    1.2511    1.8880    0.0000 N   0  0  0  0  0  0  0  0  0  0  0  0
    1.0717    1.0833    0.0000 C   0  0  0  0  0  0  0  0  0  0  0  0
    1.7827    0.6647    0.0000 N   0  0  0  0  0  0  0  0  0  0  0  0
    2.3996    1.2128    0.0000 C   0  0  0  0  0  0  0  0  0  0  0  0
    2.0678    1.9682    0.0000 C   0  0  0  0  0  0  0  0  0  0  0  0
    0.3527   -0.1524    0.0000 C   0  0  0  0  0  0  0  0  0  0  0  0
    0.3584    0.6709    0.0000 C   0  0  0  0  0  0  0  0  0  0  0  0
   -0.3507    1.0858    0.0000 C   0  0  0  0  0  0  0  0  0  0  0  0
   -1.0661    0.6783    0.0000 C   0  0  0  0  0  0  0  0  0  0  0  0
   -1.0678   -0.1481    0.0000 C   0  0  0  0  0  0  0  0  0  0  0  0
   -0.3581   -0.5594    0.0000 C   0  0  0  0  0  0  0  0  0  0  0  0
   -0.3602   -1.3849    0.0000 O   0  0  0  0  0  0  0  0  0  0  0  0
   -0.9519   -1.9682    0.0000 C   0  0  0  0  0  0  0  0  0  0  0  0
   -1.7835   -0.5597    0.0000 O   0  0  0  0  0  0  0  0  0  0  0  0
   -2.4977   -0.1456    0.0000 C   0  0  0  0  0  0  0  0  0  0  0  0
   -3.2133   -0.5571    0.0000 C   0  0  0  0  0  0  0  0  0  0  0  0
   -3.9275   -0.1431    0.0000 C   0  0  0  0  0  0  0  0  0  0  0  0
   -4.6431   -0.5546    0.0000 N   0  0  0  0  0  0  0  0  0  0  0  0
   -5.3520   -0.1380    0.0000 C   0  0  0  0  0  0  0  0  0  0  0  0
   -6.0655   -0.5460    0.0000 C   0  0  0  0  0  0  0  0  0  0  0  0
   -6.0712   -1.3719    0.0000 O   0  0  0  0  0  0  0  0  0  0  0  0
   -5.3572   -1.7881    0.0000 C   0  0  0  0  0  0  0  0  0  0  0  0
   -4.6374   -1.3785    0.0000 C   0  0  0  0  0  0  0  0  0  0  0  0
    3.0293   -1.9103    0.0000 H   0  0  0  0  0  0  0  0  0  0  0  0
    4.6339    0.8778    0.0000 H   0  0  0  0  0  0  0  0  0  0  0  0
    6.0727   -2.7908    0.0000 H   0  0  0  0  0  0  0  0  0  0  0  0
    6.9230   -1.3127    0.0000 H   0  0  0  0  0  0  0  0  0  0  0  0
    2.4952   -1.5521    0.0000 H   0  0  0  0  0  0  0  0  0  0  0  0
    3.4449    0.9842    0.0000 H   0  0  0  0  0  0  0  0  0  0  0  0
    3.0775    2.0407    0.0000 H   0  0  0  0  0  0  0  0  0  0  0  0
    2.6083    2.8917    0.0000 H   0  0  0  0  0  0  0  0  0  0  0  0
    1.4908    2.8693    0.0000 H   0  0  0  0  0  0  0  0  0  0  0  0
   -0.3447    2.1178    0.0000 H   0  0  0  0  0  0  0  0  0  0  0  0
   -1.9578    1.1978    0.0000 H   0  0  0  0  0  0  0  0  0  0  0  0
   -1.9834   -1.6839    0.0000 H   0  0  0  0  0  0  0  0  0  0  0  0
   -0.6824   -3.0037    0.0000 H   0  0  0  0  0  0  0  0  0  0  0  0
   -1.7139   -2.7194    0.0000 H   0  0  0  0  0  0  0  0  0  0  0  0
   -2.4958    0.9244    0.0000 H   0  0  0  0  0  0  0  0  0  0  0  0
   -3.4234    0.3910    0.0000 H   0  0  0  0  0  0  0  0  0  0  0  0
   -3.2152   -1.6271    0.0000 H   0  0  0  0  0  0  0  0  0  0  0  0
   -4.1409   -1.0905    0.0000 H   0  0  0  0  0  0  0  0  0  0  0  0
   -3.9256    0.9269    0.0000 H   0  0  0  0  0  0  0  0  0  0  0  0
   -4.8532    0.3935    0.0000 H   0  0  0  0  0  0  0  0  0  0  0  0
   -5.3457    0.9320    0.0000 H   0  0  0  0  0  0  0  0  0  0  0  0
   -6.2759    0.4017    0.0000 H   0  0  0  0  0  0  0  0  0  0  0  0
   -6.9892   -0.0059    0.0000 H   0  0  0  0  0  0  0  0  0  0  0  0
   -6.9955   -1.0752    0.0000 H   0  0  0  0  0  0  0  0  0  0  0  0
   -5.3628   -2.8581    0.0000 H   0  0  0  0  0  0  0  0  0  0  0  0
   -4.4336   -2.3284    0.0000 H   0  0  0  0  0  0  0  0  0  0  0  0
   -3.7106   -1.9132    0.0000 H   0  0  0  0  0  0  0  0  0  0  0  0
   -4.6406   -2.4485    0.0000 H   0  0  0  0  0  0  0  0  0  0  0  0
  1  2  2  0  0  0  0
  1  8  1  0  0  0  0
  2  3  1  0  0  0  0
  2 36  1  0  0  0  0
  3  4  2  0  0  0  0
  4  5  1  0  0  0  0
  4  7  1  0  0  0  0
  5  6  2  0  0  0  0
  6  1  1  0  0  0  0
  6 37  1  0  0  0  0
  7 38  1  0  0  0  0
  7 39  1  0  0  0  0
  8  9  2  0  0  0  0
  8 10  1  0  0  0  0
 10 11  1  0  0  0  0
 10 40  1  0  0  0  0
 11 15  1  0  0  0  0
 11 12  2  0  0  0  0
 13 14  2  0  0  0  0
 14 19  1  0  0  0  0
 14 15  1  0  0  0  0
 15 16  1  0  0  0  0
 16 17  1  0  0  0  0
 16 41  1  0  0  0  0
 16 42  1  0  0  0  0
 17 13  1  0  0  0  0
 17 43  1  0  0  0  0
 17 44  1  0  0  0  0
 18 19  2  0  0  0  0
 18 12  1  0  0  0  0
 19 20  1  0  0  0  0
 20 21  2  0  0  0  0
 20 45  1  0  0  0  0
 21 22  1  0  0  0  0
 21 46  1  0  0  0  0
 22 23  2  0  0  0  0
 22 26  1  0  0  0  0
 23 18  1  0  0  0  0
 23 24  1  0  0  0  0
 24 25  1  0  0  0  0
 25 47  1  0  0  0  0
 25 48  1  0  0  0  0
 25 49  1  0  0  0  0
 26 27  1  0  0  0  0
 27 28  1  0  0  0  0
 27 50  1  0  0  0  0
 27 51  1  0  0  0  0
 28 29  1  0  0  0  0
 28 52  1  0  0  0  0
 28 53  1  0  0  0  0
 29 30  1  0  0  0  0
 29 54  1  0  0  0  0
 29 55  1  0  0  0  0
 30 31  1  0  0  0  0
 30 35  1  0  0  0  0
 31 32  1  0  0  0  0
 31 56  1  0  0  0  0
 31 57  1  0  0  0  0
 32 33  1  0  0  0  0
 32 58  1  0  0  0  0
 32 59  1  0  0  0  0
 33 34  1  0  0  0  0
 34 35  1  0  0  0  0
 34 60  1  0  0  0  0
 34 61  1  0  0  0  0
 35 62  1  0  0  0  0
 35 63  1  0  0  0  0
M  END
>  <DRUGBANK_ID>
DB12483

>  <COMMON_NAME>
Copanlisib

>  <CAS_NUMBER>
1032568-63-0

>  <UNII>
WI6V529FZ9

>  <SYNONYMS>
2-AMINO-N-(7-METHOXY-8-(3-(MORPHOLIN-4-YL)PROPOXY)-2,3-DIHYDROIMIDAZO(1,2-C)QUINAZOLIN-5-YL(PYRIMIDINE-5-CARBOXAMIDE; 2-AMINO-N-(7-METHOXY-8-(3-MORPHOLIN-4-YLPROPOXY)-2,3-DIHYDROIMIDAZO(1,2-C)QUINAZOLIN-5-YL)PYRIMIDINE-5-CARBOXAMIDE; 5-PYRIMIDINECARBOXAMIDE, 2-AMINO-N-(2,3-DIHYDRO-7-METHOXY-8-(3-(4-MORPHOLINYL)PROPOXY)IMIDAZO(1,2-C)QUINAZOLIN-5-YL)-; Copanlisib

$$$$
