
 OpenBabel10282417072D

 51 53  0  0  0  0  0  0  0  0999 V2000
   -0.7125    2.5124    0.0000 C   0  0  0  0  0  0  0  0  0  0  0  0
   -1.4700    2.0999    0.0000 C   0  0  0  0  0  0  0  0  0  0  0  0
   -2.1825    2.5124    0.0000 C   0  0  0  0  0  0  0  0  0  0  0  0
   -0.7125    3.3374    0.0000 O   0  0  0  0  0  0  0  0  0  0  0  0
    0.0000    2.0999    0.0000 N   0  0  0  0  0  0  0  0  0  0  0  0
    1.4324    3.7499    0.0000 C   0  0  0  0  0  0  0  0  0  0  0  0
    2.1825    3.3374    0.0000 C   0  0  0  0  0  0  0  0  0  0  0  0
    2.1825    2.5124    0.0000 C   0  0  0  0  0  0  0  0  0  0  0  0
    1.4699    2.0999    0.0000 C   0  0  0  0  0  0  0  0  0  0  0  0
    0.7124    2.5124    0.0000 C   0  0  0  0  0  0  0  0  0  0  0  0
    0.7124    3.3374    0.0000 C   0  0  0  0  0  0  0  0  0  0  0  0
    0.0000   -0.3675    0.0000 N   0  0  0  0  0  0  0  0  0  0  0  0
    0.7124    0.0000    0.0000 C   0  0  0  0  0  0  0  0  0  0  0  0
   -0.7125    0.0000    0.0000 C   0  0  0  0  0  0  0  0  0  0  0  0
    0.7124    0.8624    0.0000 C   0  0  0  0  0  0  0  0  0  0  0  0
   -0.7125    0.8624    0.0000 C   0  0  0  0  0  0  0  0  0  0  0  0
    0.0000    1.2750    0.0000 C   0  0  3  0  0  0  0  0  0  0  0  0
    0.0000   -1.2374    0.0000 C   0  0  0  0  0  0  0  0  0  0  0  0
    0.7124   -1.6499    0.0000 C   0  0  3  0  0  0  0  0  0  0  0  0
    1.4324   -1.2374    0.0000 O   0  0  0  0  0  0  0  0  0  0  0  0
    0.0450   -2.9699    0.0000 S   0  0  0  0  0  0  0  0  0  0  0  0
    0.3075   -3.7499    0.0000 C   0  0  0  0  0  0  0  0  0  0  0  0
    0.7124   -2.4749    0.0000 C   0  0  0  0  0  0  0  0  0  0  0  0
    1.3874   -2.9699    0.0000 C   0  0  0  0  0  0  0  0  0  0  0  0
    1.1250   -3.7499    0.0000 C   0  0  0  0  0  0  0  0  0  0  0  0
   -1.4840    1.0300    0.0000 H   0  0  0  0  0  0  0  0  0  0  0  0
   -2.4004    1.5715    0.0000 H   0  0  0  0  0  0  0  0  0  0  0  0
   -2.1812    3.5824    0.0000 H   0  0  0  0  0  0  0  0  0  0  0  0
   -3.1098    1.9785    0.0000 H   0  0  0  0  0  0  0  0  0  0  0  0
   -3.1085    3.0485    0.0000 H   0  0  0  0  0  0  0  0  0  0  0  0
    1.4234    4.7819    0.0000 H   0  0  0  0  0  0  0  0  0  0  0  0
    3.0708    3.8627    0.0000 H   0  0  0  0  0  0  0  0  0  0  0  0
    3.0765    1.9969    0.0000 H   0  0  0  0  0  0  0  0  0  0  0  0
    1.4834    1.0680    0.0000 H   0  0  0  0  0  0  0  0  0  0  0  0
   -0.1805    3.8549    0.0000 H   0  0  0  0  0  0  0  0  0  0  0  0
    1.6261   -0.5568    0.0000 H   0  0  0  0  0  0  0  0  0  0  0  0
    1.6453    0.5240    0.0000 H   0  0  0  0  0  0  0  0  0  0  0  0
   -1.6262   -0.5568    0.0000 H   0  0  0  0  0  0  0  0  0  0  0  0
   -1.6454    0.5240    0.0000 H   0  0  0  0  0  0  0  0  0  0  0  0
    1.6394    1.3968    0.0000 H   0  0  0  0  0  0  0  0  0  0  0  0
    0.7135    1.9324    0.0000 H   0  0  0  0  0  0  0  0  0  0  0  0
   -1.6395    1.3968    0.0000 H   0  0  0  0  0  0  0  0  0  0  0  0
   -0.7135    1.9324    0.0000 H   0  0  0  0  0  0  0  0  0  0  0  0
    0.9270    1.8094    0.0000 H   0  0  0  0  0  0  0  0  0  0  0  0
   -0.9270   -1.7718    0.0000 H   0  0  0  0  0  0  0  0  0  0  0  0
   -0.0010   -2.3074    0.0000 H   0  0  0  0  0  0  0  0  0  0  0  0
    0.7149   -0.5799    0.0000 H   0  0  0  0  0  0  0  0  0  0  0  0
    2.2708   -1.7252    0.0000 H   0  0  0  0  0  0  0  0  0  0  0  0
   -0.2947   -4.5880    0.0000 H   0  0  0  0  0  0  0  0  0  0  0  0
    2.3712   -2.6583    0.0000 H   0  0  0  0  0  0  0  0  0  0  0  0
    1.7273   -4.5879    0.0000 H   0  0  0  0  0  0  0  0  0  0  0  0
  1  2  1  0  0  0  0
  1  5  1  0  0  0  0
  1  4  2  0  0  0  0
  2  3  1  0  0  0  0
  2 26  1  0  0  0  0
  2 27  1  0  0  0  0
  3 28  1  0  0  0  0
  3 29  1  0  0  0  0
  3 30  1  0  0  0  0
  5 10  1  0  0  0  0
  5 17  1  0  0  0  0
  6 11  2  0  0  0  0
  6  7  1  0  0  0  0
  6 31  1  0  0  0  0
  7  8  2  0  0  0  0
  7 32  1  0  0  0  0
  8  9  1  0  0  0  0
  8 33  1  0  0  0  0
  9 10  2  0  0  0  0
  9 34  1  0  0  0  0
 10 11  1  0  0  0  0
 11 35  1  0  0  0  0
 12 13  1  0  0  0  0
 12 14  1  0  0  0  0
 12 18  1  0  0  0  0
 13 15  1  0  0  0  0
 13 36  1  0  0  0  0
 13 37  1  0  0  0  0
 14 16  1  0  0  0  0
 14 38  1  0  0  0  0
 14 39  1  0  0  0  0
 15 17  1  0  0  0  0
 15 40  1  0  0  0  0
 15 41  1  0  0  0  0
 16 17  1  0  0  0  0
 16 42  1  0  0  0  0
 16 43  1  0  0  0  0
 17 44  1  0  0  0  0
 18 19  1  0  0  0  0
 18 45  1  0  0  0  0
 18 46  1  0  0  0  0
 19 20  1  0  0  0  0
 19 23  1  0  0  0  0
 19 47  1  0  0  0  0
 20 48  1  0  0  0  0
 21 22  1  0  0  0  0
 21 23  1  0  0  0  0
 22 25  2  0  0  0  0
 22 49  1  0  0  0  0
 23 24  2  0  0  0  0
 24 25  1  0  0  0  0
 24 50  1  0  0  0  0
 25 51  1  0  0  0  0
M  END
>  <DRUGBANK_ID>
DB09170

>  <COMMON_NAME>
Î²-Hydroxythiofentanyl

>  <CAS_NUMBER>
1474-34-6

>  <UNII>
MG6JW60TUG

>  <SYNONYMS>
beta-Hydroxythiofentanyl

$$$$
