
 OpenBabel10282417072D

 42 43  0  0  0  0  0  0  0  0999 V2000
    0.6159   -0.4733    0.0000 C   0  0  1  0  0  0  0  0  0  0  0  0
    0.8268   -1.2654    0.0000 C   0  0  2  0  0  0  0  0  0  0  0  0
    1.6456   -1.3126    0.0000 C   0  0  1  0  0  0  0  0  0  0  0  0
    1.9381   -0.5470    0.0000 C   0  0  2  0  0  0  0  0  0  0  0  0
    1.3044   -0.0293    0.0000 O   0  0  0  0  0  0  0  0  0  0  0  0
   -2.2287    0.3583    0.0000 C   0  0  2  0  0  0  0  0  0  0  0  0
   -2.2328   -0.4668    0.0000 C   0  0  1  0  0  0  0  0  0  0  0  0
   -1.5198   -0.8850    0.0000 C   0  0  2  0  0  0  0  0  0  0  0  0
   -0.8026   -0.4739    0.0000 C   0  0  2  0  0  0  0  0  0  0  0  0
   -0.7984    0.3510    0.0000 O   0  0  0  0  0  0  0  0  0  0  0  0
   -1.5115    0.7651    0.0000 C   0  0  2  0  0  0  0  0  0  0  0  0
   -0.0895   -0.8922    0.0000 O   0  0  0  0  0  0  0  0  0  0  0  0
   -1.5238   -1.7101    0.0000 O   0  0  0  0  0  0  0  0  0  0  0  0
   -2.9499   -0.8778    0.0000 O   0  0  0  0  0  0  0  0  0  0  0  0
   -2.9417    0.7722    0.0000 Cl  0  0  0  0  0  0  0  0  0  0  0  0
   -1.5074    1.5904    0.0000 C   0  0  0  0  0  0  0  0  0  0  0  0
    0.4130    0.3220    0.0000 C   0  0  0  0  0  0  0  0  0  0  0  0
    2.0967   -2.0012    0.0000 O   0  0  0  0  0  0  0  0  0  0  0  0
    2.7353   -0.3305    0.0000 C   0  0  0  0  0  0  0  0  0  0  0  0
    0.3058   -1.9074    0.0000 O   0  0  0  0  0  0  0  0  0  0  0  0
    2.9499    0.4701    0.0000 Cl  0  0  0  0  0  0  0  0  0  0  0  0
    0.8187    1.0424    0.0000 Cl  0  0  0  0  0  0  0  0  0  0  0  0
   -0.7901    2.0012    0.0000 O   0  0  0  0  0  0  0  0  0  0  0  0
   -0.2195   -1.0416    0.0000 H   0  0  0  0  0  0  0  0  0  0  0  0
    1.1100   -2.2389    0.0000 H   0  0  0  0  0  0  0  0  0  0  0  0
    2.6560   -1.3404    0.0000 H   0  0  0  0  0  0  0  0  0  0  0  0
   -3.1573   -0.1733    0.0000 H   0  0  0  0  0  0  0  0  0  0  0  0
   -3.1573    0.0720    0.0000 H   0  0  0  0  0  0  0  0  0  0  0  0
   -2.4496   -1.4146    0.0000 H   0  0  0  0  0  0  0  0  0  0  0  0
   -0.8080   -1.5439    0.0000 H   0  0  0  0  0  0  0  0  0  0  0  0
   -0.5829    1.2966    0.0000 H   0  0  0  0  0  0  0  0  0  0  0  0
   -2.3662   -2.1910    0.0000 H   0  0  0  0  0  0  0  0  0  0  0  0
   -3.7884   -0.3901    0.0000 H   0  0  0  0  0  0  0  0  0  0  0  0
   -2.4318    2.1293    0.0000 H   0  0  0  0  0  0  0  0  0  0  0  0
   -1.5033    2.6604    0.0000 H   0  0  0  0  0  0  0  0  0  0  0  0
   -0.6478    0.4624    0.0000 H   0  0  0  0  0  0  0  0  0  0  0  0
   -0.0651    1.2793    0.0000 H   0  0  0  0  0  0  0  0  0  0  0  0
    1.6598   -2.8672    0.0000 H   0  0  0  0  0  0  0  0  0  0  0  0
    3.4931   -1.0859    0.0000 H   0  0  0  0  0  0  0  0  0  0  0  0
    3.7686   -0.0528    0.0000 H   0  0  0  0  0  0  0  0  0  0  0  0
   -0.6521   -1.7547    0.0000 H   0  0  0  0  0  0  0  0  0  0  0  0
    0.0482    1.5133    0.0000 H   0  0  0  0  0  0  0  0  0  0  0  0
  1 12  1  6  0  0  0
  1  2  1  0  0  0  0
  1 17  1  0  0  0  0
  2  3  1  0  0  0  0
  2 20  1  0  0  0  0
  2 24  1  1  0  0  0
  3  4  1  0  0  0  0
  3 18  1  0  0  0  0
  3 25  1  6  0  0  0
  4  5  1  0  0  0  0
  4 19  1  0  0  0  0
  4 26  1  1  0  0  0
  5  1  1  0  0  0  0
  6 15  1  0  0  0  0
  6  7  1  0  0  0  0
  6 27  1  6  0  0  0
  7 14  1  0  0  0  0
  7  8  1  0  0  0  0
  7 28  1  6  0  0  0
  8 13  1  0  0  0  0
  8  9  1  0  0  0  0
  8 29  1  1  0  0  0
  9 12  1  0  0  0  0
  9 10  1  0  0  0  0
  9 30  1  1  0  0  0
 10 11  1  0  0  0  0
 11 16  1  0  0  0  0
 11  6  1  0  0  0  0
 11 31  1  6  0  0  0
 13 32  1  0  0  0  0
 14 33  1  0  0  0  0
 16 23  1  0  0  0  0
 16 34  1  0  0  0  0
 16 35  1  0  0  0  0
 17 22  1  0  0  0  0
 17 36  1  0  0  0  0
 17 37  1  0  0  0  0
 18 38  1  0  0  0  0
 19 21  1  0  0  0  0
 19 39  1  0  0  0  0
 19 40  1  0  0  0  0
 20 41  1  0  0  0  0
 23 42  1  0  0  0  0
M  END
>  <DRUGBANK_ID>
DB15049

>  <COMMON_NAME>
Sucralose

>  <CAS_NUMBER>
56038-13-2

>  <UNII>
96K6UQ3ZD4

>  <SYNONYMS>
Sucralose; Trichlorosucrose

$$$$
