IHE
 OpenBabel10282417072D

 55 58  0  0  0  0  0  0  0  0999 V2000
   -1.7453    2.0929    0.0000 C   0  0  0  0  0  0  0  0  0  0  0  0
   -0.6412    3.3191    0.0000 C   0  0  0  0  0  0  0  0  0  0  0  0
   -1.4482    3.4906    0.0000 N   0  0  0  0  0  0  0  0  0  0  0  0
   -2.0002    2.8775    0.0000 C   0  0  0  0  0  0  0  0  0  0  0  0
   -0.3863    2.5344    0.0000 C   0  0  0  0  0  0  0  0  0  0  0  0
   -0.9383    1.9213    0.0000 N   0  0  0  0  0  0  0  0  0  0  0  0
   -1.7031    4.2752    0.0000 C   0  0  0  0  0  0  0  0  0  0  0  0
   -0.6834    1.1367    0.0000 C   0  0  0  0  0  0  0  0  0  0  0  0
    0.1236    0.9652    0.0000 C   0  0  0  0  0  0  0  0  0  0  0  0
    0.3785    0.1806    0.0000 N   0  0  0  0  0  0  0  0  0  0  0  0
   -0.1064   -0.4869    0.0000 C   0  0  0  0  0  0  0  0  0  0  0  0
    0.3785   -1.1543    0.0000 N   0  0  0  0  0  0  0  0  0  0  0  0
    1.1632   -0.0744    0.0000 C   0  0  0  0  0  0  0  0  0  0  0  0
    1.8776    0.3381    0.0000 N   0  0  0  0  0  0  0  0  0  0  0  0
    2.5921   -0.0744    0.0000 C   0  0  0  0  0  0  0  0  0  0  0  0
    2.5921   -0.8994    0.0000 N   0  0  0  0  0  0  0  0  0  0  0  0
    1.8776   -1.3119    0.0000 C   0  0  0  0  0  0  0  0  0  0  0  0
    1.1632   -0.8994    0.0000 C   0  0  0  0  0  0  0  0  0  0  0  0
    1.8776   -2.1369    0.0000 N   0  0  0  0  0  0  0  0  0  0  0  0
    1.1632   -2.5494    0.0000 C   0  0  0  0  0  0  0  0  0  0  0  0
    1.1632   -3.3744    0.0000 C   0  0  0  0  0  0  0  0  0  0  0  0
    0.4487   -3.7869    0.0000 C   0  0  0  0  0  0  0  0  0  0  0  0
   -0.2658   -3.3744    0.0000 C   0  0  0  0  0  0  0  0  0  0  0  0
   -0.2658   -2.5494    0.0000 C   0  0  0  0  0  0  0  0  0  0  0  0
    0.4487   -2.1369    0.0000 C   0  0  0  0  0  0  0  0  0  0  0  0
    4.0210    0.7506    0.0000 N   0  0  0  0  0  0  0  0  0  0  0  0
    3.3066    0.3381    0.0000 C   0  0  0  0  0  0  0  0  0  0  0  0
   -2.4613    1.2978    0.0000 H   0  0  0  0  0  0  0  0  0  0  0  0
   -1.4147    1.0752    0.0000 H   0  0  0  0  0  0  0  0  0  0  0  0
    0.0748    4.1143    0.0000 H   0  0  0  0  0  0  0  0  0  0  0  0
    0.4054    3.0966    0.0000 H   0  0  0  0  0  0  0  0  0  0  0  0
   -3.0468    3.1000    0.0000 H   0  0  0  0  0  0  0  0  0  0  0  0
   -2.3309    3.8951    0.0000 H   0  0  0  0  0  0  0  0  0  0  0  0
    0.6603    2.3119    0.0000 H   0  0  0  0  0  0  0  0  0  0  0  0
   -0.0556    1.5168    0.0000 H   0  0  0  0  0  0  0  0  0  0  0  0
   -0.9871    5.0703    0.0000 H   0  0  0  0  0  0  0  0  0  0  0  0
   -2.7497    4.4977    0.0000 H   0  0  0  0  0  0  0  0  0  0  0  0
   -2.0337    5.2928    0.0000 H   0  0  0  0  0  0  0  0  0  0  0  0
   -1.3994    0.3415    0.0000 H   0  0  0  0  0  0  0  0  0  0  0  0
   -0.3527    0.1191    0.0000 H   0  0  0  0  0  0  0  0  0  0  0  0
    0.8396    1.7604    0.0000 H   0  0  0  0  0  0  0  0  0  0  0  0
    1.1702    0.7427    0.0000 H   0  0  0  0  0  0  0  0  0  0  0  0
   -1.1384   -0.4869    0.0000 H   0  0  0  0  0  0  0  0  0  0  0  0
    2.7302   -2.6291    0.0000 H   0  0  0  0  0  0  0  0  0  0  0  0
    0.2366   -3.0844    0.0000 H   0  0  0  0  0  0  0  0  0  0  0  0
    2.0898   -3.9094    0.0000 H   0  0  0  0  0  0  0  0  0  0  0  0
    1.1632   -4.4444    0.0000 H   0  0  0  0  0  0  0  0  0  0  0  0
    0.4487   -4.8569    0.0000 H   0  0  0  0  0  0  0  0  0  0  0  0
   -0.4779   -4.3219    0.0000 H   0  0  0  0  0  0  0  0  0  0  0  0
   -1.1924   -3.9094    0.0000 H   0  0  0  0  0  0  0  0  0  0  0  0
   -1.1924   -2.8394    0.0000 H   0  0  0  0  0  0  0  0  0  0  0  0
   -1.1924   -2.0144    0.0000 H   0  0  0  0  0  0  0  0  0  0  0  0
   -0.2658   -1.4794    0.0000 H   0  0  0  0  0  0  0  0  0  0  0  0
    0.4487   -1.0669    0.0000 H   0  0  0  0  0  0  0  0  0  0  0  0
   -0.4779   -1.6019    0.0000 H   0  0  0  0  0  0  0  0  0  0  0  0
  1  4  1  0  0  0  0
  1  6  1  0  0  0  0
  1 28  1  0  0  0  0
  1 29  1  0  0  0  0
  2  3  1  0  0  0  0
  2  5  1  0  0  0  0
  2 30  1  0  0  0  0
  2 31  1  0  0  0  0
  3  4  1  0  0  0  0
  3  7  1  0  0  0  0
  4 32  1  0  0  0  0
  4 33  1  0  0  0  0
  5  6  1  0  0  0  0
  5 34  1  0  0  0  0
  5 35  1  0  0  0  0
  6  8  1  0  0  0  0
  7 36  1  0  0  0  0
  7 37  1  0  0  0  0
  7 38  1  0  0  0  0
  8  9  1  0  0  0  0
  8 39  1  0  0  0  0
  8 40  1  0  0  0  0
  9 10  1  0  0  0  0
  9 41  1  0  0  0  0
  9 42  1  0  0  0  0
 10 11  1  0  0  0  0
 10 13  1  0  0  0  0
 11 12  2  0  0  0  0
 11 43  1  0  0  0  0
 12 18  1  0  0  0  0
 13 14  2  0  0  0  0
 13 18  1  0  0  0  0
 14 15  1  0  0  0  0
 15 16  2  0  0  0  0
 15 27  1  0  0  0  0
 16 17  1  0  0  0  0
 17 18  2  0  0  0  0
 17 19  1  0  0  0  0
 19 20  1  0  0  0  0
 19 44  1  0  0  0  0
 20 21  1  0  0  0  0
 20 25  1  0  0  0  0
 20 45  1  0  0  0  0
 21 22  1  0  0  0  0
 21 46  1  0  0  0  0
 21 47  1  0  0  0  0
 22 23  1  0  0  0  0
 22 48  1  0  0  0  0
 22 49  1  0  0  0  0
 23 24  1  0  0  0  0
 23 50  1  0  0  0  0
 23 51  1  0  0  0  0
 24 25  1  0  0  0  0
 24 52  1  0  0  0  0
 24 53  1  0  0  0  0
 25 54  1  0  0  0  0
 25 55  1  0  0  0  0
 26 27  3  0  0  0  0
M  END
>  <DRUGBANK_ID>
DB07965

>  <COMMON_NAME>
6-(cyclohexylamino)-9-[2-(4-methylpiperazin-1-yl)-ethyl]-9H-purine-2-carbonitrile

>  <SYNONYMS>
6-(Cyclohexylamino)-9-[2-(4-methyl-1-piperazinyl)ethyl]-9H-purine-2-carbonitrile

$$$$
