
 OpenBabel10282417072D

 24 24  0  0  0  0  0  0  0  0999 V2000
   -1.4289    1.6500    0.0000 C   0  0  0  0  0  0  0  0  0  0  0  0
   -1.4289    2.4750    0.0000 C   0  0  0  0  0  0  0  0  0  0  0  0
   -0.7145    2.8875    0.0000 C   0  0  0  0  0  0  0  0  0  0  0  0
    0.0000    2.4750    0.0000 C   0  0  0  0  0  0  0  0  0  0  0  0
    0.0000    1.6500    0.0000 C   0  0  0  0  0  0  0  0  0  0  0  0
   -0.7145    1.2375    0.0000 C   0  0  0  0  0  0  0  0  0  0  0  0
    0.7145    2.8875    0.0000 C   0  0  3  0  0  0  0  0  0  0  0  0
    1.4289    2.4750    0.0000 C   0  0  0  0  0  0  0  0  0  0  0  0
    2.1434    2.8875    0.0000 O   0  0  0  0  0  0  0  0  0  0  0  0
    2.8579    2.4750    0.0000 C   0  0  0  0  0  0  0  0  0  0  0  0
    3.5724    2.8875    0.0000 O   0  0  0  0  0  0  0  0  0  0  0  0
    2.8579    1.6500    0.0000 N   0  0  0  0  0  0  0  0  0  0  0  0
    0.7145    3.7125    0.0000 O   0  0  0  0  0  0  0  0  0  0  0  0
   -2.3226    1.1340    0.0000 H   0  0  0  0  0  0  0  0  0  0  0  0
   -2.3226    2.9910    0.0000 H   0  0  0  0  0  0  0  0  0  0  0  0
   -0.7145    3.9195    0.0000 H   0  0  0  0  0  0  0  0  0  0  0  0
    0.8937    1.1340    0.0000 H   0  0  0  0  0  0  0  0  0  0  0  0
   -0.7145    0.2055    0.0000 H   0  0  0  0  0  0  0  0  0  0  0  0
    0.7145    1.8175    0.0000 H   0  0  0  0  0  0  0  0  0  0  0  0
    1.4289    1.4050    0.0000 H   0  0  0  0  0  0  0  0  0  0  0  0
    2.3555    1.9400    0.0000 H   0  0  0  0  0  0  0  0  0  0  0  0
    2.0053    1.1577    0.0000 H   0  0  0  0  0  0  0  0  0  0  0  0
    3.7105    1.1577    0.0000 H   0  0  0  0  0  0  0  0  0  0  0  0
    1.5545    4.1975    0.0000 H   0  0  0  0  0  0  0  0  0  0  0  0
  1  2  2  0  0  0  0
  1  6  1  0  0  0  0
  1 14  1  0  0  0  0
  2  3  1  0  0  0  0
  2 15  1  0  0  0  0
  3  4  2  0  0  0  0
  3 16  1  0  0  0  0
  4  5  1  0  0  0  0
  4  7  1  0  0  0  0
  5  6  2  0  0  0  0
  5 17  1  0  0  0  0
  6 18  1  0  0  0  0
  7  8  1  0  0  0  0
  7 13  1  0  0  0  0
  7 19  1  0  0  0  0
  8  9  1  0  0  0  0
  8 20  1  0  0  0  0
  8 21  1  0  0  0  0
  9 10  1  0  0  0  0
 10 11  2  0  0  0  0
 10 12  1  0  0  0  0
 12 22  1  0  0  0  0
 12 23  1  0  0  0  0
 13 24  1  0  0  0  0
M  END
>  <DRUGBANK_ID>
DB13357

>  <COMMON_NAME>
Styramate

>  <CAS_NUMBER>
94-35-9

>  <UNII>
CBK7Y28SP3

>  <SYNONYMS>
Styramate

$$$$
