
 OpenBabel10282417072D

 43 45  0  0  0  0  0  0  0  0999 V2000
    8.5737    3.3000    0.0000 C   0  0  0  0  0  0  0  0  0  0  0  0
    5.0013   -0.4125    0.0000 C   0  0  0  0  0  0  0  0  0  0  0  0
    5.0013    0.4125    0.0000 C   0  0  0  0  0  0  0  0  0  0  0  0
    1.4289    0.8250    0.0000 C   0  0  0  0  0  0  0  0  0  0  0  0
    2.1434   -0.4125    0.0000 C   0  0  0  0  0  0  0  0  0  0  0  0
    0.7145    0.4125    0.0000 C   0  0  0  0  0  0  0  0  0  0  0  0
    1.4289   -0.8250    0.0000 C   0  0  0  0  0  0  0  0  0  0  0  0
    6.4302    3.7125    0.0000 C   0  0  0  0  0  0  0  0  0  0  0  0
    7.1447    2.4750    0.0000 C   0  0  0  0  0  0  0  0  0  0  0  0
    5.7158    3.3000    0.0000 C   0  0  0  0  0  0  0  0  0  0  0  0
    6.4302    2.0625    0.0000 C   0  0  0  0  0  0  0  0  0  0  0  0
    4.2868   -0.8250    0.0000 C   0  0  0  0  0  0  0  0  0  0  0  0
    2.1434    0.4125    0.0000 C   0  0  0  0  0  0  0  0  0  0  0  0
    0.7145   -0.4125    0.0000 C   0  0  0  0  0  0  0  0  0  0  0  0
    7.1447    3.3000    0.0000 C   0  0  0  0  0  0  0  0  0  0  0  0
    5.7158    2.4750    0.0000 C   0  0  0  0  0  0  0  0  0  0  0  0
    4.2868    0.8250    0.0000 C   0  0  0  0  0  0  0  0  0  0  0  0
    3.5724    0.4125    0.0000 C   0  0  0  0  0  0  0  0  0  0  0  0
    3.5724   -0.4125    0.0000 N   0  0  0  0  0  0  0  0  0  0  0  0
    2.8579    0.8250    0.0000 N   0  0  0  0  0  0  0  0  0  0  0  0
    4.2868    1.6500    0.0000 N   0  0  0  0  0  0  0  0  0  0  0  0
    0.0000   -0.8250    0.0000 O   0  0  0  0  0  0  0  0  0  0  0  0
    4.5888    2.7770    0.0000 O   0  0  0  0  0  0  0  0  0  0  0  0
    5.4138    1.3480    0.0000 O   0  0  0  0  0  0  0  0  0  0  0  0
    7.8592    3.7125    0.0000 O   0  0  0  0  0  0  0  0  0  0  0  0
    5.0013    2.0625    0.0000 S   0  0  0  0  0  0  0  0  0  0  0  0
    8.5737    2.2300    0.0000 H   0  0  0  0  0  0  0  0  0  0  0  0
    9.5003    3.8350    0.0000 H   0  0  0  0  0  0  0  0  0  0  0  0
    9.5004    2.7650    0.0000 H   0  0  0  0  0  0  0  0  0  0  0  0
    5.8950   -0.9285    0.0000 H   0  0  0  0  0  0  0  0  0  0  0  0
    5.8950    0.9285    0.0000 H   0  0  0  0  0  0  0  0  0  0  0  0
    1.4289    1.8570    0.0000 H   0  0  0  0  0  0  0  0  0  0  0  0
    3.0371   -0.9285    0.0000 H   0  0  0  0  0  0  0  0  0  0  0  0
   -0.1792    0.9285    0.0000 H   0  0  0  0  0  0  0  0  0  0  0  0
    1.4289   -1.8570    0.0000 H   0  0  0  0  0  0  0  0  0  0  0  0
    6.4302    4.7445    0.0000 H   0  0  0  0  0  0  0  0  0  0  0  0
    8.0384    1.9590    0.0000 H   0  0  0  0  0  0  0  0  0  0  0  0
    4.8221    3.8160    0.0000 H   0  0  0  0  0  0  0  0  0  0  0  0
    6.4302    1.0305    0.0000 H   0  0  0  0  0  0  0  0  0  0  0  0
    4.2868   -1.8570    0.0000 H   0  0  0  0  0  0  0  0  0  0  0  0
    2.8579    1.8095    0.0000 H   0  0  0  0  0  0  0  0  0  0  0  0
    3.4342    2.1423    0.0000 H   0  0  0  0  0  0  0  0  0  0  0  0
   -0.8115   -0.3565    0.0000 H   0  0  0  0  0  0  0  0  0  0  0  0
  1 27  1  0  0  0  0
  1 28  1  0  0  0  0
  1 29  1  0  0  0  0
  2 30  1  0  0  0  0
  3  2  2  0  0  0  0
  3 31  1  0  0  0  0
  4 32  1  0  0  0  0
  5 33  1  0  0  0  0
  6  4  1  0  0  0  0
  6 34  1  0  0  0  0
  7  5  2  0  0  0  0
  7 35  1  0  0  0  0
  8 36  1  0  0  0  0
  9 37  1  0  0  0  0
 10  8  1  0  0  0  0
 10 38  1  0  0  0  0
 11  9  2  0  0  0  0
 11 39  1  0  0  0  0
 12  2  1  0  0  0  0
 12 40  1  0  0  0  0
 13  4  2  0  0  0  0
 13  5  1  0  0  0  0
 14  6  2  0  0  0  0
 14  7  1  0  0  0  0
 15  8  2  0  0  0  0
 15  9  1  0  0  0  0
 16 10  2  0  0  0  0
 16 11  1  0  0  0  0
 17  3  1  0  0  0  0
 18 17  2  0  0  0  0
 19 12  2  0  0  0  0
 19 18  1  0  0  0  0
 20 13  1  0  0  0  0
 20 18  1  0  0  0  0
 20 41  1  0  0  0  0
 21 17  1  0  0  0  0
 21 42  1  0  0  0  0
 22 14  1  0  0  0  0
 22 43  1  0  0  0  0
 25  1  1  0  0  0  0
 25 15  1  0  0  0  0
 26 16  1  0  0  0  0
 26 21  1  0  0  0  0
 26 23  2  0  0  0  0
 26 24  2  0  0  0  0
M  END
>  <DRUGBANK_ID>
DB12254

>  <COMMON_NAME>
ABT-751

>  <CAS_NUMBER>
141430-65-1

>  <UNII>
WDT5V5OB9F

>  <SYNONYMS>
N-[2-(4-hydroxyanilino)-3-pyridinyl]-4-methoxybenzenesulfonamide; N-[2-(4-hydroxyanilino)pyridin-3-yl]-4-methoxybenzenesulfonamide; N-[2-[(4-hydroxyphenyl)amino]-3-pyridinyl]-4-methoxybenzenesulfonamide

$$$$
