509
 OpenBabel10282417072D

 29 30  0  0  0  0  0  0  0  0999 V2000
   -0.6236    3.0007    0.0000 C   0  0  0  0  0  0  0  0  0  0  0  0
    0.0909    2.5882    0.0000 C   0  0  0  0  0  0  0  0  0  0  0  0
    0.0909    1.7632    0.0000 C   0  0  0  0  0  0  0  0  0  0  0  0
   -0.6236    1.3507    0.0000 C   0  0  0  0  0  0  0  0  0  0  0  0
   -1.3381    1.7632    0.0000 C   0  0  0  0  0  0  0  0  0  0  0  0
   -1.3381    2.5882    0.0000 C   0  0  0  0  0  0  0  0  0  0  0  0
   -0.6236    0.5257    0.0000 C   0  0  0  0  0  0  0  0  0  0  0  0
    0.0439    0.0408    0.0000 C   0  0  0  0  0  0  0  0  0  0  0  0
   -0.2111   -0.7439    0.0000 C   0  0  0  0  0  0  0  0  0  0  0  0
   -1.0361   -0.7439    0.0000 C   0  0  0  0  0  0  0  0  0  0  0  0
   -1.2910    0.0408    0.0000 S   0  0  0  0  0  0  0  0  0  0  0  0
   -1.5210   -1.4113    0.0000 C   0  0  0  0  0  0  0  0  0  0  0  0
   -2.3415   -1.3251    0.0000 O   0  0  0  0  0  0  0  0  0  0  0  0
   -1.1855   -2.1650    0.0000 O   0  0  0  0  0  0  0  0  0  0  0  0
    0.2738   -1.4113    0.0000 O   0  0  0  0  0  0  0  0  0  0  0  0
    1.0943   -1.3251    0.0000 C   0  0  0  0  0  0  0  0  0  0  0  0
    1.5792   -1.9925    0.0000 C   0  0  0  0  0  0  0  0  0  0  0  0
    2.3997   -1.9063    0.0000 O   0  0  0  0  0  0  0  0  0  0  0  0
    1.2437   -2.7462    0.0000 O   0  0  0  0  0  0  0  0  0  0  0  0
    0.8285    0.2957    0.0000 Br  0  0  0  0  0  0  0  0  0  0  0  0
   -0.6236    4.0327    0.0000 H   0  0  0  0  0  0  0  0  0  0  0  0
    0.9846    3.1042    0.0000 H   0  0  0  0  0  0  0  0  0  0  0  0
    0.9846    1.2472    0.0000 H   0  0  0  0  0  0  0  0  0  0  0  0
   -2.2318    1.2472    0.0000 H   0  0  0  0  0  0  0  0  0  0  0  0
   -2.2318    3.1042    0.0000 H   0  0  0  0  0  0  0  0  0  0  0  0
   -1.7363   -2.9230    0.0000 H   0  0  0  0  0  0  0  0  0  0  0  0
    1.5295   -0.3476    0.0000 H   0  0  0  0  0  0  0  0  0  0  0  0
    2.1584   -1.2133    0.0000 H   0  0  0  0  0  0  0  0  0  0  0  0
    0.3118   -2.8442    0.0000 H   0  0  0  0  0  0  0  0  0  0  0  0
  1  2  2  0  0  0  0
  1  6  1  0  0  0  0
  1 21  1  0  0  0  0
  2  3  1  0  0  0  0
  2 22  1  0  0  0  0
  3  4  2  0  0  0  0
  3 23  1  0  0  0  0
  4  5  1  0  0  0  0
  4  7  1  0  0  0  0
  5  6  2  0  0  0  0
  5 24  1  0  0  0  0
  6 25  1  0  0  0  0
  7  8  2  0  0  0  0
  7 11  1  0  0  0  0
  8  9  1  0  0  0  0
  8 20  1  0  0  0  0
  9 10  2  0  0  0  0
  9 15  1  0  0  0  0
 10 11  1  0  0  0  0
 10 12  1  0  0  0  0
 12 13  2  0  0  0  0
 12 14  1  0  0  0  0
 14 26  1  0  0  0  0
 15 16  1  0  0  0  0
 16 17  1  0  0  0  0
 16 27  1  0  0  0  0
 16 28  1  0  0  0  0
 17 18  2  0  0  0  0
 17 19  1  0  0  0  0
 19 29  1  0  0  0  0
M  END
>  <DRUGBANK_ID>
DB07130

>  <COMMON_NAME>
4-BROMO-3-(CARBOXYMETHOXY)-5-PHENYLTHIOPHENE-2-CARBOXYLIC ACID

$$$$
