1055
 OpenBabel10282417072D

 24 24  0  0  1  0  0  0  0  0999 V2000
    2.0930    2.2193    0.0000 O   0  0  0  0  0  0  0  0  0  0  0  0
    4.9509   -1.9058    0.0000 O   0  0  0  0  0  0  0  0  0  0  0  0
    3.5220    2.2193    0.0000 O   0  0  0  0  0  0  0  0  0  0  0  0
    3.5220   -2.7308    0.0000 O   0  0  0  0  0  0  0  0  0  0  0  0
    3.5220   -0.2558    0.0000 N   0  0  0  0  0  0  0  0  0  0  0  0
    2.0930    0.5693    0.0000 N   0  0  0  0  0  0  0  0  0  0  0  0
    3.5220    0.5693    0.0000 C   0  0  0  0  0  0  0  0  0  0  0  0
    2.8075    0.9818    0.0000 C   0  0  1  0  0  0  0  0  0  0  0  0
    4.2365   -0.6683    0.0000 C   0  0  0  0  0  0  0  0  0  0  0  0
    2.8075   -0.6683    0.0000 C   0  0  0  0  0  0  0  0  0  0  0  0
    2.8075    1.8068    0.0000 C   0  0  0  0  0  0  0  0  0  0  0  0
    4.2365   -1.4933    0.0000 C   0  0  0  0  0  0  0  0  0  0  0  0
    2.8075   -1.4933    0.0000 C   0  0  0  0  0  0  0  0  0  0  0  0
    3.5220   -1.9058    0.0000 C   0  0  0  0  0  0  0  0  0  0  0  0
    2.0930    3.1563    0.0000 H   0  0  0  0  0  0  0  0  0  0  0  0
    4.9509   -2.8428    0.0000 H   0  0  0  0  0  0  0  0  0  0  0  0
    1.2097    1.0793    0.0000 H   0  0  0  0  0  0  0  0  0  0  0  0
    2.0930   -0.4507    0.0000 H   0  0  0  0  0  0  0  0  0  0  0  0
    4.4486    1.1043    0.0000 H   0  0  0  0  0  0  0  0  0  0  0  0
    3.5220    1.6393    0.0000 H   0  0  0  0  0  0  0  0  0  0  0  0
    2.8075   -0.0882    0.0000 H   0  0  0  0  0  0  0  0  0  0  0  0
    5.1302   -0.1523    0.0000 H   0  0  0  0  0  0  0  0  0  0  0  0
    1.9138   -0.1523    0.0000 H   0  0  0  0  0  0  0  0  0  0  0  0
    1.9138   -2.0093    0.0000 H   0  0  0  0  0  0  0  0  0  0  0  0
  1 11  1  0  0  0  0
  1 15  1  0  0  0  0
  2 12  1  0  0  0  0
  2 16  1  0  0  0  0
  3 11  2  0  0  0  0
  4 14  2  0  0  0  0
  5  7  1  0  0  0  0
  5  9  1  0  0  0  0
  5 10  1  0  0  0  0
  6 17  1  0  0  0  0
  6 18  1  0  0  0  0
  7  8  1  0  0  0  0
  7 19  1  0  0  0  0
  7 20  1  0  0  0  0
  8  6  1  0  0  0  0
  8 11  1  0  0  0  0
  8 21  1  1  0  0  0
  9 12  2  0  0  0  0
  9 22  1  0  0  0  0
 10 13  2  0  0  0  0
 10 23  1  0  0  0  0
 12 14  1  0  0  0  0
 13 14  1  0  0  0  0
 13 24  1  0  0  0  0
M  END
>  <DRUGBANK_ID>
DB01055

>  <SECONDARY_ACCESSION_NUMBERS>
APRD00647

>  <COMMON_NAME>
Mimosine

>  <CAS_NUMBER>
500-44-7

>  <UNII>
Z46B1LUI5N

>  <SYNONYMS>
(L)-Mimosine; (S)-2-amino-3-(3-hydroxy-4-oxo-4H-pyridin-1-yl)propanoate; L-Mimosine; Leucaenine; Leucaenol; Leucenine; Leucenol; Mimosin

$$$$
