
 OpenBabel10282417072D

 46 48  0  0  0  0  0  0  0  0999 V2000
    0.1690   -1.5392    0.0000 C   0  0  0  0  0  0  0  0  0  0  0  0
    0.9939   -1.5392    0.0000 C   0  0  0  0  0  0  0  0  0  0  0  0
    1.3247   -0.0899    0.0000 C   0  0  0  0  0  0  0  0  0  0  0  0
    0.5752   -1.0929    0.0000 N   0  0  0  0  0  0  0  0  0  0  0  0
    0.5815    0.2680    0.0000 C   0  0  1  0  0  0  0  0  0  0  0  0
   -0.1617   -0.0899    0.0000 C   0  0  2  0  0  0  0  0  0  0  0  0
   -0.8762    1.1475    0.0000 O   0  0  0  0  0  0  0  0  0  0  0  0
   -0.8762    0.3225    0.0000 C   0  0  0  0  0  0  0  0  0  0  0  0
   -1.5907   -0.0899    0.0000 O   0  0  0  0  0  0  0  0  0  0  0  0
   -2.3052    0.3225    0.0000 C   0  0  0  0  0  0  0  0  0  0  0  0
   -0.3453   -0.8941    0.0000 C   0  0  1  0  0  0  0  0  0  0  0  0
   -1.1422   -1.1077    0.0000 H   0  0  0  0  0  0  0  0  0  0  0  0
    1.5083   -0.8941    0.0000 C   0  0  1  0  0  0  0  0  0  0  0  0
    2.3052   -1.1077    0.0000 H   0  0  0  0  0  0  0  0  0  0  0  0
    0.5752   -1.9179    0.0000 C   0  0  0  0  0  0  0  0  0  0  0  0
   -0.1392   -2.3304    0.0000 C   0  0  0  0  0  0  0  0  0  0  0  0
   -0.1392   -3.1554    0.0000 C   0  0  0  0  0  0  0  0  0  0  0  0
   -0.8536   -3.5680    0.0000 F   0  0  0  0  0  0  0  0  0  0  0  0
    0.5815    2.7430    0.0000 C   0  0  0  0  0  0  0  0  0  0  0  0
   -0.1328    2.3305    0.0000 C   0  0  0  0  0  0  0  0  0  0  0  0
   -0.1328    1.5055    0.0000 C   0  0  0  0  0  0  0  0  0  0  0  0
    0.5815    1.0930    0.0000 C   0  0  0  0  0  0  0  0  0  0  0  0
    1.2960    1.5055    0.0000 C   0  0  0  0  0  0  0  0  0  0  0  0
    1.2960    2.3305    0.0000 C   0  0  0  0  0  0  0  0  0  0  0  0
    0.5815    3.5680    0.0000 I   0  0  0  0  0  0  0  0  0  0  0  0
   -0.2953   -2.5032    0.0000 H   0  0  0  0  0  0  0  0  0  0  0  0
    0.7382   -2.4452    0.0000 H   0  0  0  0  0  0  0  0  0  0  0  0
    1.4582   -2.5032    0.0000 H   0  0  0  0  0  0  0  0  0  0  0  0
    2.0572   -1.6590    0.0000 H   0  0  0  0  0  0  0  0  0  0  0  0
    2.1612    0.5773    0.0000 H   0  0  0  0  0  0  0  0  0  0  0  0
    2.3347   -0.4433    0.0000 H   0  0  0  0  0  0  0  0  0  0  0  0
   -0.3245    0.8373    0.0000 H   0  0  0  0  0  0  0  0  0  0  0  0
   -0.1218    0.9794    0.0000 H   0  0  0  0  0  0  0  0  0  0  0  0
   -2.3053    1.3925    0.0000 H   0  0  0  0  0  0  0  0  0  0  0  0
   -3.2318   -0.2126    0.0000 H   0  0  0  0  0  0  0  0  0  0  0  0
   -3.2319    0.8574    0.0000 H   0  0  0  0  0  0  0  0  0  0  0  0
    1.5019   -2.4529    0.0000 H   0  0  0  0  0  0  0  0  0  0  0  0
    0.5752   -2.9879    0.0000 H   0  0  0  0  0  0  0  0  0  0  0  0
   -1.0659   -1.7954    0.0000 H   0  0  0  0  0  0  0  0  0  0  0  0
   -1.0658   -2.8654    0.0000 H   0  0  0  0  0  0  0  0  0  0  0  0
    0.7875   -3.6903    0.0000 H   0  0  0  0  0  0  0  0  0  0  0  0
   -0.1391   -4.2254    0.0000 H   0  0  0  0  0  0  0  0  0  0  0  0
   -1.0266    2.8465    0.0000 H   0  0  0  0  0  0  0  0  0  0  0  0
   -1.0266    0.9895    0.0000 H   0  0  0  0  0  0  0  0  0  0  0  0
    2.1897    0.9895    0.0000 H   0  0  0  0  0  0  0  0  0  0  0  0
    2.1897    2.8465    0.0000 H   0  0  0  0  0  0  0  0  0  0  0  0
  1  2  1  0  0  0  0
  1 26  1  0  0  0  0
  1 27  1  0  0  0  0
  2 13  1  0  0  0  0
  2 28  1  0  0  0  0
  2 29  1  0  0  0  0
  3  5  1  0  0  0  0
  3 30  1  0  0  0  0
  3 31  1  0  0  0  0
  4 15  1  0  0  0  0
  5  6  1  0  0  0  0
  5 22  1  0  0  0  0
  5 32  1  6  0  0  0
  6 11  1  0  0  0  0
  6  8  1  0  0  0  0
  6 33  1  6  0  0  0
  8  7  2  0  0  0  0
  8  9  1  0  0  0  0
  9 10  1  0  0  0  0
 10 34  1  0  0  0  0
 10 35  1  0  0  0  0
 10 36  1  0  0  0  0
 11  1  1  0  0  0  0
 11  4  1  0  0  0  0
 11 12  1  1  0  0  0
 13  3  1  0  0  0  0
 13  4  1  0  0  0  0
 13 14  1  1  0  0  0
 15 16  1  0  0  0  0
 15 37  1  0  0  0  0
 15 38  1  0  0  0  0
 16 17  1  0  0  0  0
 16 39  1  0  0  0  0
 16 40  1  0  0  0  0
 17 18  1  0  0  0  0
 17 41  1  0  0  0  0
 17 42  1  0  0  0  0
 19 20  2  0  0  0  0
 19 24  1  0  0  0  0
 19 25  1  0  0  0  0
 20 21  1  0  0  0  0
 20 43  1  0  0  0  0
 21 22  2  0  0  0  0
 21 44  1  0  0  0  0
 22 23  1  0  0  0  0
 23 24  2  0  0  0  0
 23 45  1  0  0  0  0
 24 46  1  0  0  0  0
M  ISO  1  25 123
M  END
>  <DRUGBANK_ID>
DB08824

>  <SECONDARY_ACCESSION_NUMBERS>
DB09548

>  <COMMON_NAME>
Ioflupane I-123

>  <CAS_NUMBER>
155798-07-5

>  <UNII>
3MM99T8R5Q

>  <SYNONYMS>
123I-FP-CIT; 123I-Ioflupane; Iodine ioflupane (123I); Ioflupane ((123)I); Ioflupane (123I); Ioflupane I 123; Ioflupane I(123); Ioflupano (123I); Ioflupanum (123I)

$$$$
