
 OpenBabel10282417072D

 46 48  0  0  0  0  0  0  0  0999 V2000
    3.5724   -7.0125    0.0000 C   0  0  0  0  0  0  0  0  0  0  0  0
    2.8579   -7.4250    0.0000 C   0  0  0  0  0  0  0  0  0  0  0  0
    2.1434   -7.0125    0.0000 C   0  0  0  0  0  0  0  0  0  0  0  0
    2.1434   -6.1875    0.0000 C   0  0  0  0  0  0  0  0  0  0  0  0
    2.8579   -5.7750    0.0000 C   0  0  0  0  0  0  0  0  0  0  0  0
    3.5724   -6.1875    0.0000 C   0  0  0  0  0  0  0  0  0  0  0  0
    2.8579   -4.9500    0.0000 F   0  0  0  0  0  0  0  0  0  0  0  0
    1.4289   -5.7750    0.0000 Cl  0  0  0  0  0  0  0  0  0  0  0  0
    1.4289   -7.4250    0.0000 N   0  0  0  0  0  0  0  0  0  0  0  0
    1.4289   -8.2500    0.0000 C   0  0  0  0  0  0  0  0  0  0  0  0
    2.1434   -8.6625    0.0000 O   0  0  0  0  0  0  0  0  0  0  0  0
    0.7145   -8.6625    0.0000 N   0  0  0  0  0  0  0  0  0  0  0  0
    0.7145   -9.4875    0.0000 C   0  0  0  0  0  0  0  0  0  0  0  0
    1.4289   -9.9000    0.0000 C   0  0  0  0  0  0  0  0  0  0  0  0
    1.4289  -10.7250    0.0000 C   0  0  0  0  0  0  0  0  0  0  0  0
    0.7145  -11.1375    0.0000 C   0  0  0  0  0  0  0  0  0  0  0  0
    0.0000  -10.7250    0.0000 C   0  0  0  0  0  0  0  0  0  0  0  0
    0.0000   -9.9000    0.0000 C   0  0  0  0  0  0  0  0  0  0  0  0
   -0.7145   -9.4875    0.0000 O   0  0  0  0  0  0  0  0  0  0  0  0
   -0.7145  -11.1375    0.0000 S   0  0  0  0  0  0  0  0  0  0  0  0
   -1.1270  -10.4230    0.0000 O   0  0  0  0  0  0  0  0  0  0  0  0
   -0.3020  -11.8520    0.0000 O   0  0  0  0  0  0  0  0  0  0  0  0
   -1.4289  -11.5500    0.0000 N   0  0  0  0  0  0  0  0  0  0  0  0
   -1.4289  -12.3750    0.0000 C   0  0  0  0  0  0  0  0  0  0  0  0
   -2.1434  -12.7875    0.0000 C   0  0  0  0  0  0  0  0  0  0  0  0
   -2.8579  -12.3750    0.0000 N   0  0  0  0  0  0  0  0  0  0  0  0
   -2.8579  -11.5500    0.0000 C   0  0  0  0  0  0  0  0  0  0  0  0
   -2.1434  -11.1375    0.0000 C   0  0  0  0  0  0  0  0  0  0  0  0
    0.7145  -11.9625    0.0000 Cl  0  0  0  0  0  0  0  0  0  0  0  0
    4.4661   -7.5285    0.0000 H   0  0  0  0  0  0  0  0  0  0  0  0
    2.8579   -8.4570    0.0000 H   0  0  0  0  0  0  0  0  0  0  0  0
    4.4661   -5.6715    0.0000 H   0  0  0  0  0  0  0  0  0  0  0  0
    0.5763   -6.9327    0.0000 H   0  0  0  0  0  0  0  0  0  0  0  0
   -0.1381   -8.1703    0.0000 H   0  0  0  0  0  0  0  0  0  0  0  0
    2.3226   -9.3840    0.0000 H   0  0  0  0  0  0  0  0  0  0  0  0
    2.3226  -11.2410    0.0000 H   0  0  0  0  0  0  0  0  0  0  0  0
   -0.7145   -8.5505    0.0000 H   0  0  0  0  0  0  0  0  0  0  0  0
   -0.5023  -12.9100    0.0000 H   0  0  0  0  0  0  0  0  0  0  0  0
   -1.4289  -13.4450    0.0000 H   0  0  0  0  0  0  0  0  0  0  0  0
   -2.1434  -13.8575    0.0000 H   0  0  0  0  0  0  0  0  0  0  0  0
   -3.0700  -13.3225    0.0000 H   0  0  0  0  0  0  0  0  0  0  0  0
   -3.7412  -12.8850    0.0000 H   0  0  0  0  0  0  0  0  0  0  0  0
   -3.7845  -11.0150    0.0000 H   0  0  0  0  0  0  0  0  0  0  0  0
   -2.8579  -10.4800    0.0000 H   0  0  0  0  0  0  0  0  0  0  0  0
   -2.1434  -10.0675    0.0000 H   0  0  0  0  0  0  0  0  0  0  0  0
   -1.2168  -10.6025    0.0000 H   0  0  0  0  0  0  0  0  0  0  0  0
  1  2  2  0  0  0  0
  1  6  1  0  0  0  0
  1 30  1  0  0  0  0
  2  3  1  0  0  0  0
  2 31  1  0  0  0  0
  3  4  2  0  0  0  0
  3  9  1  0  0  0  0
  4  5  1  0  0  0  0
  4  8  1  0  0  0  0
  5  6  2  0  0  0  0
  5  7  1  0  0  0  0
  6 32  1  0  0  0  0
  9 10  1  0  0  0  0
  9 33  1  0  0  0  0
 10 11  2  0  0  0  0
 10 12  1  0  0  0  0
 12 13  1  0  0  0  0
 12 34  1  0  0  0  0
 13 14  2  0  0  0  0
 13 18  1  0  0  0  0
 14 15  1  0  0  0  0
 14 35  1  0  0  0  0
 15 16  2  0  0  0  0
 15 36  1  0  0  0  0
 16 17  1  0  0  0  0
 16 29  1  0  0  0  0
 17 18  2  0  0  0  0
 17 20  1  0  0  0  0
 18 19  1  0  0  0  0
 19 37  1  0  0  0  0
 20 21  2  0  0  0  0
 20 22  2  0  0  0  0
 20 23  1  0  0  0  0
 23 24  1  0  0  0  0
 23 28  1  0  0  0  0
 24 25  1  0  0  0  0
 24 38  1  0  0  0  0
 24 39  1  0  0  0  0
 25 26  1  0  0  0  0
 25 40  1  0  0  0  0
 25 41  1  0  0  0  0
 26 27  1  0  0  0  0
 26 42  1  0  0  0  0
 27 28  1  0  0  0  0
 27 43  1  0  0  0  0
 27 44  1  0  0  0  0
 28 45  1  0  0  0  0
 28 46  1  0  0  0  0
M  END
>  <DRUGBANK_ID>
DB12135

>  <COMMON_NAME>
Elubrixin

>  <CAS_NUMBER>
688763-64-6

>  <UNII>
MW2AIJ8USP

>  <SYNONYMS>
Elubrixin

$$$$
