
 OpenBabel10282417072D

 93 96  0  0  0  0  0  0  0  0999 V2000
   -6.7762   -0.1314    0.0000 C   0  0  0  0  0  0  0  0  0  0  0  0
   -6.7774   -0.9588    0.0000 C   0  0  0  0  0  0  0  0  0  0  0  0
   -6.0624   -1.3718    0.0000 C   0  0  0  0  0  0  0  0  0  0  0  0
   -6.0641    0.2814    0.0000 C   0  0  0  0  0  0  0  0  0  0  0  0
   -5.3487   -0.1277    0.0000 C   0  0  0  0  0  0  0  0  0  0  0  0
   -5.3498   -0.9563    0.0000 C   0  0  0  0  0  0  0  0  0  0  0  0
   -4.6368   -1.3695    0.0000 C   0  0  0  0  0  0  0  0  0  0  0  0
   -3.9179   -0.9583    0.0000 C   0  0  2  0  0  0  0  0  0  0  0  0
   -4.6344    0.2878    0.0000 C   0  0  2  0  0  0  0  0  0  0  0  0
   -3.9209   -0.1314    0.0000 C   0  0  2  0  0  0  0  0  0  0  0  0
   -3.9098    1.5206    0.0000 C   0  0  0  0  0  0  0  0  0  0  0  0
   -4.6320    1.1131    0.0000 C   0  0  0  0  0  0  0  0  0  0  0  0
   -3.1964    1.1014    0.0000 C   0  0  1  0  0  0  0  0  0  0  0  0
   -3.2076    0.2763    0.0000 C   0  0  1  0  0  0  0  0  0  0  0  0
   -2.4265    0.0107    0.0000 C   0  0  0  0  0  0  0  0  0  0  0  0
   -1.9325    0.6716    0.0000 C   0  0  0  0  0  0  0  0  0  0  0  0
   -2.4083    1.3456    0.0000 C   0  0  2  0  0  0  0  0  0  0  0  0
   -7.4924   -1.3710    0.0000 O   0  0  0  0  0  0  0  0  0  0  0  0
   -4.6410   -0.5315    0.0000 H   0  0  0  0  0  0  0  0  0  0  0  0
   -3.9283    0.6895    0.0000 H   0  0  0  0  0  0  0  0  0  0  0  0
   -3.1992    1.9231    0.0000 C   0  0  0  0  0  0  0  0  0  0  0  0
   -2.1992    2.1942    0.0000 O   0  0  0  0  0  0  0  0  0  0  0  0
   -3.2116   -0.5482    0.0000 H   0  0  0  0  0  0  0  0  0  0  0  0
   -3.2074   -1.3692    0.0000 C   0  0  0  0  0  0  0  0  0  0  0  0
   -2.4948   -0.9565    0.0000 C   0  0  0  0  0  0  0  0  0  0  0  0
   -1.7820   -1.3692    0.0000 C   0  0  0  0  0  0  0  0  0  0  0  0
   -1.0695   -0.9565    0.0000 C   0  0  0  0  0  0  0  0  0  0  0  0
   -0.3569   -1.3692    0.0000 C   0  0  0  0  0  0  0  0  0  0  0  0
    0.3558   -0.9565    0.0000 C   0  0  0  0  0  0  0  0  0  0  0  0
    1.0683   -1.3692    0.0000 C   0  0  0  0  0  0  0  0  0  0  0  0
    1.7810   -0.9565    0.0000 C   0  0  0  0  0  0  0  0  0  0  0  0
    2.4937   -1.3692    0.0000 C   0  0  0  0  0  0  0  0  0  0  0  0
    3.2062   -0.9565    0.0000 C   0  0  0  0  0  0  0  0  0  0  0  0
    3.9189   -1.3692    0.0000 C   0  0  0  0  0  0  0  0  0  0  0  0
    3.9179   -2.1942    0.0000 O   0  0  0  0  0  0  0  0  0  0  0  0
    4.6341   -0.9574    0.0000 N   0  0  0  0  0  0  0  0  0  0  0  0
    5.3480   -1.3709    0.0000 C   0  0  0  0  0  0  0  0  0  0  0  0
    4.6351   -0.1323    0.0000 C   0  0  0  0  0  0  0  0  0  0  0  0
    6.0633   -0.9591    0.0000 C   0  0  0  0  0  0  0  0  0  0  0  0
    6.7774   -1.3725    0.0000 C   0  0  0  0  0  0  0  0  0  0  0  0
    7.4924   -0.9608    0.0000 C   0  0  0  0  0  0  0  0  0  0  0  0
   -7.6700    0.3845    0.0000 H   0  0  0  0  0  0  0  0  0  0  0  0
   -6.0603   -2.4038    0.0000 H   0  0  0  0  0  0  0  0  0  0  0  0
   -6.0671    1.3134    0.0000 H   0  0  0  0  0  0  0  0  0  0  0  0
   -4.6398   -2.4395    0.0000 H   0  0  0  0  0  0  0  0  0  0  0  0
   -3.7120   -1.9077    0.0000 H   0  0  0  0  0  0  0  0  0  0  0  0
   -3.9204   -2.0283    0.0000 H   0  0  0  0  0  0  0  0  0  0  0  0
   -3.9004    2.5906    0.0000 H   0  0  0  0  0  0  0  0  0  0  0  0
   -4.8314    2.0642    0.0000 H   0  0  0  0  0  0  0  0  0  0  0  0
   -5.5552    1.6540    0.0000 H   0  0  0  0  0  0  0  0  0  0  0  0
   -4.6233    2.1831    0.0000 H   0  0  0  0  0  0  0  0  0  0  0  0
   -2.1097   -1.0113    0.0000 H   0  0  0  0  0  0  0  0  0  0  0  0
   -3.1933   -0.7355    0.0000 H   0  0  0  0  0  0  0  0  0  0  0  0
   -0.8626    0.6571    0.0000 H   0  0  0  0  0  0  0  0  0  0  0  0
   -1.4338    1.6183    0.0000 H   0  0  0  0  0  0  0  0  0  0  0  0
   -1.3569    1.5441    0.0000 H   0  0  0  0  0  0  0  0  0  0  0  0
   -8.3036   -0.9020    0.0000 H   0  0  0  0  0  0  0  0  0  0  0  0
   -2.2744    2.4613    0.0000 H   0  0  0  0  0  0  0  0  0  0  0  0
   -4.1277    2.4549    0.0000 H   0  0  0  0  0  0  0  0  0  0  0  0
   -3.2028    2.9931    0.0000 H   0  0  0  0  0  0  0  0  0  0  0  0
   -1.2675    2.4641    0.0000 H   0  0  0  0  0  0  0  0  0  0  0  0
   -3.2071   -2.4392    0.0000 H   0  0  0  0  0  0  0  0  0  0  0  0
   -2.2803   -1.9034    0.0000 H   0  0  0  0  0  0  0  0  0  0  0  0
   -2.4949    0.1135    0.0000 H   0  0  0  0  0  0  0  0  0  0  0  0
   -1.5678   -0.4220    0.0000 H   0  0  0  0  0  0  0  0  0  0  0  0
   -1.7819   -2.4392    0.0000 H   0  0  0  0  0  0  0  0  0  0  0  0
   -0.8550   -1.9035    0.0000 H   0  0  0  0  0  0  0  0  0  0  0  0
   -1.0695    0.1135    0.0000 H   0  0  0  0  0  0  0  0  0  0  0  0
   -0.1425   -0.4221    0.0000 H   0  0  0  0  0  0  0  0  0  0  0  0
   -0.3569   -2.4392    0.0000 H   0  0  0  0  0  0  0  0  0  0  0  0
    0.5701   -1.9036    0.0000 H   0  0  0  0  0  0  0  0  0  0  0  0
    0.3559    0.1135    0.0000 H   0  0  0  0  0  0  0  0  0  0  0  0
    1.2828   -0.4222    0.0000 H   0  0  0  0  0  0  0  0  0  0  0  0
    1.0682   -2.4392    0.0000 H   0  0  0  0  0  0  0  0  0  0  0  0
    1.9953   -1.9036    0.0000 H   0  0  0  0  0  0  0  0  0  0  0  0
    1.7810    0.1135    0.0000 H   0  0  0  0  0  0  0  0  0  0  0  0
    2.7080   -0.4221    0.0000 H   0  0  0  0  0  0  0  0  0  0  0  0
    2.4938   -2.4392    0.0000 H   0  0  0  0  0  0  0  0  0  0  0  0
    3.4207   -1.9035    0.0000 H   0  0  0  0  0  0  0  0  0  0  0  0
    3.2061    0.1135    0.0000 H   0  0  0  0  0  0  0  0  0  0  0  0
    4.1332   -0.4221    0.0000 H   0  0  0  0  0  0  0  0  0  0  0  0
    5.3466   -2.4409    0.0000 H   0  0  0  0  0  0  0  0  0  0  0  0
    6.2740   -1.9071    0.0000 H   0  0  0  0  0  0  0  0  0  0  0  0
    5.5624    0.4016    0.0000 H   0  0  0  0  0  0  0  0  0  0  0  0
    3.7091    0.4038    0.0000 H   0  0  0  0  0  0  0  0  0  0  0  0
    4.6364    0.9377    0.0000 H   0  0  0  0  0  0  0  0  0  0  0  0
    6.0646    0.1109    0.0000 H   0  0  0  0  0  0  0  0  0  0  0  0
    6.9906   -0.4252    0.0000 H   0  0  0  0  0  0  0  0  0  0  0  0
    6.7762   -2.4425    0.0000 H   0  0  0  0  0  0  0  0  0  0  0  0
    7.7034   -1.9086    0.0000 H   0  0  0  0  0  0  0  0  0  0  0  0
    8.4184   -1.4969    0.0000 H   0  0  0  0  0  0  0  0  0  0  0  0
    7.4936    0.1092    0.0000 H   0  0  0  0  0  0  0  0  0  0  0  0
    8.4197   -0.4269    0.0000 H   0  0  0  0  0  0  0  0  0  0  0  0
  1  2  2  0  0  0  0
  1 42  1  0  0  0  0
  2  3  1  0  0  0  0
  2 18  1  0  0  0  0
  3  6  2  0  0  0  0
  3 43  1  0  0  0  0
  4  1  1  0  0  0  0
  4 44  1  0  0  0  0
  5  4  2  0  0  0  0
  5  6  1  0  0  0  0
  5  9  1  0  0  0  0
  6  7  1  0  0  0  0
  7  8  1  0  0  0  0
  7 45  1  0  0  0  0
  7 46  1  0  0  0  0
  8 24  1  0  0  0  0
  8 10  1  0  0  0  0
  8 47  1  1  0  0  0
  9 19  1  6  0  0  0
  9 10  1  0  0  0  0
  9 12  1  0  0  0  0
 10 20  1  1  0  0  0
 10 14  1  0  0  0  0
 11 12  1  0  0  0  0
 11 48  1  0  0  0  0
 11 49  1  0  0  0  0
 12 50  1  0  0  0  0
 12 51  1  0  0  0  0
 13 21  1  1  0  0  0
 13 11  1  0  0  0  0
 13 14  1  0  0  0  0
 14 23  1  6  0  0  0
 14 15  1  0  0  0  0
 15 16  1  0  0  0  0
 15 52  1  0  0  0  0
 15 53  1  0  0  0  0
 16 17  1  0  0  0  0
 16 54  1  0  0  0  0
 16 55  1  0  0  0  0
 17 22  1  0  0  0  0
 17 13  1  0  0  0  0
 17 56  1  6  0  0  0
 18 57  1  0  0  0  0
 21 58  1  0  0  0  0
 21 59  1  0  0  0  0
 21 60  1  0  0  0  0
 22 61  1  0  0  0  0
 24 25  1  0  0  0  0
 24 62  1  0  0  0  0
 24 63  1  0  0  0  0
 25 26  1  0  0  0  0
 25 64  1  0  0  0  0
 25 65  1  0  0  0  0
 26 27  1  0  0  0  0
 26 66  1  0  0  0  0
 26 67  1  0  0  0  0
 27 28  1  0  0  0  0
 27 68  1  0  0  0  0
 27 69  1  0  0  0  0
 28 29  1  0  0  0  0
 28 70  1  0  0  0  0
 28 71  1  0  0  0  0
 29 30  1  0  0  0  0
 29 72  1  0  0  0  0
 29 73  1  0  0  0  0
 30 31  1  0  0  0  0
 30 74  1  0  0  0  0
 30 75  1  0  0  0  0
 31 32  1  0  0  0  0
 31 76  1  0  0  0  0
 31 77  1  0  0  0  0
 32 33  1  0  0  0  0
 32 78  1  0  0  0  0
 32 79  1  0  0  0  0
 33 34  1  0  0  0  0
 33 80  1  0  0  0  0
 33 81  1  0  0  0  0
 34 35  2  0  0  0  0
 34 36  1  0  0  0  0
 36 37  1  0  0  0  0
 36 38  1  0  0  0  0
 37 39  1  0  0  0  0
 37 82  1  0  0  0  0
 37 83  1  0  0  0  0
 38 84  1  0  0  0  0
 38 85  1  0  0  0  0
 38 86  1  0  0  0  0
 39 40  1  0  0  0  0
 39 87  1  0  0  0  0
 39 88  1  0  0  0  0
 40 41  1  0  0  0  0
 40 89  1  0  0  0  0
 40 90  1  0  0  0  0
 41 91  1  0  0  0  0
 41 92  1  0  0  0  0
 41 93  1  0  0  0  0
M  END
>  <DRUGBANK_ID>
DB03860

>  <SECONDARY_ACCESSION_NUMBERS>
EXPT00529

>  <COMMON_NAME>
ICI-164384

>  <CAS_NUMBER>
98007-99-9

>  <UNII>
84LT43726C

$$$$
