
 OpenBabel10282417072D

 19 20  0  0  0  0  0  0  0  0999 V2000
    0.3327    0.8250    0.0000 C   0  0  0  0  0  0  0  0  0  0  0  0
    1.0472    0.4125    0.0000 C   0  0  0  0  0  0  0  0  0  0  0  0
    0.3327   -0.8250    0.0000 C   0  0  0  0  0  0  0  0  0  0  0  0
   -0.3817   -0.4125    0.0000 C   0  0  0  0  0  0  0  0  0  0  0  0
   -0.3817    0.4125    0.0000 C   0  0  0  0  0  0  0  0  0  0  0  0
    1.0472   -0.4125    0.0000 C   0  0  0  0  0  0  0  0  0  0  0  0
    1.7617    1.6500    0.0000 O   0  0  0  0  0  0  0  0  0  0  0  0
    1.7617    0.8250    0.0000 C   0  0  0  0  0  0  0  0  0  0  0  0
    2.4762    0.4125    0.0000 O   0  0  0  0  0  0  0  0  0  0  0  0
   -1.1662   -0.6674    0.0000 O   0  0  0  0  0  0  0  0  0  0  0  0
   -1.1662    0.6674    0.0000 O   0  0  0  0  0  0  0  0  0  0  0  0
   -1.6512    0.0000    0.0000 Bi  0  0  3  0  0  0  0  0  0  0  0  0
   -2.4762    0.0000    0.0000 O   0  0  0  0  0  0  0  0  0  0  0  0
    0.3327   -1.6500    0.0000 O   0  0  0  0  0  0  0  0  0  0  0  0
    0.3327    1.8570    0.0000 H   0  0  0  0  0  0  0  0  0  0  0  0
    1.9409   -0.9285    0.0000 H   0  0  0  0  0  0  0  0  0  0  0  0
    2.4762   -0.5245    0.0000 H   0  0  0  0  0  0  0  0  0  0  0  0
   -2.9612    0.8400    0.0000 H   0  0  0  0  0  0  0  0  0  0  0  0
   -0.4788   -2.1185    0.0000 H   0  0  0  0  0  0  0  0  0  0  0  0
  1  5  2  0  0  0  0
  1 15  1  0  0  0  0
  2  1  1  0  0  0  0
  2  8  1  0  0  0  0
  3 14  1  0  0  0  0
  3  4  2  0  0  0  0
  4 10  1  0  0  0  0
  4  5  1  0  0  0  0
  5 11  1  0  0  0  0
  6  2  2  0  0  0  0
  6  3  1  0  0  0  0
  6 16  1  0  0  0  0
  7  8  2  0  0  0  0
  8  9  1  0  0  0  0
  9 17  1  0  0  0  0
 10 12  1  0  0  0  0
 11 12  1  0  0  0  0
 12 13  1  0  0  0  0
 13 18  1  0  0  0  0
 14 19  1  0  0  0  0
M  END
>  <DRUGBANK_ID>
DB13909

>  <COMMON_NAME>
Bismuth subgallate

>  <CAS_NUMBER>
99-26-3

>  <UNII>
YIW503MI7V

>  <SYNONYMS>
basic bismuth 3,4,5-trihydroxybenzoate; basisches Wismutgallat; Bismuth subgallate; Bismuto subgalato; gallic acid bismuth basic salt; Wismutgallathydroxid

$$$$
