
 OpenBabel10282417072D

 33 34  0  0  0  0  0  0  0  0999 V2000
   -0.3216   -2.3251    0.0000 C   0  0  0  0  0  0  0  0  0  0  0  0
    0.3457   -1.8401    0.0000 N   0  0  0  0  0  0  0  0  0  0  0  0
   -1.1063   -2.0702    0.0000 N   0  3  0  0  0  0  0  0  0  0  0  0
   -0.0667   -3.1097    0.0000 C   0  0  0  0  0  0  0  0  0  0  0  0
    0.7582   -3.1097    0.0000 N   0  0  0  0  0  0  0  0  0  0  0  0
    1.0131   -2.3250    0.0000 C   0  0  0  0  0  0  0  0  0  0  0  0
   -1.0832    0.6347    0.0000 C   0  0  0  0  0  0  0  0  0  0  0  0
   -1.7193   -2.6223    0.0000 O   0  5  0  0  0  0  0  0  0  0  0  0
   -1.2778   -1.2632    0.0000 O   0  0  0  0  0  0  0  0  0  0  0  0
   -1.7977    0.2222    0.0000 O   0  0  0  0  0  0  0  0  0  0  0  0
   -1.0833    1.4597    0.0000 C   0  0  0  0  0  0  0  0  0  0  0  0
    0.3457   -1.0151    0.0000 C   0  0  0  0  0  0  0  0  0  0  0  0
   -0.3688    0.2223    0.0000 O   0  0  0  0  0  0  0  0  0  0  0  0
   -0.3687   -0.6026    0.0000 C   0  0  0  0  0  0  0  0  0  0  0  0
    1.7978   -2.0701    0.0000 C   0  0  0  0  0  0  0  0  0  0  0  0
   -1.7978    1.8722    0.0000 C   0  0  0  0  0  0  0  0  0  0  0  0
   -0.3688    1.8723    0.0000 C   0  0  0  0  0  0  0  0  0  0  0  0
   -0.3688    2.6973    0.0000 C   0  0  0  0  0  0  0  0  0  0  0  0
   -1.7978    2.6972    0.0000 C   0  0  0  0  0  0  0  0  0  0  0  0
   -1.0833    3.1097    0.0000 C   0  0  0  0  0  0  0  0  0  0  0  0
   -0.6733   -3.9446    0.0000 H   0  0  0  0  0  0  0  0  0  0  0  0
    1.2724   -0.4801    0.0000 H   0  0  0  0  0  0  0  0  0  0  0  0
    0.3457    0.0549    0.0000 H   0  0  0  0  0  0  0  0  0  0  0  0
   -1.2953   -1.1376    0.0000 H   0  0  0  0  0  0  0  0  0  0  0  0
   -0.3687   -1.6726    0.0000 H   0  0  0  0  0  0  0  0  0  0  0  0
    2.5929   -2.7861    0.0000 H   0  0  0  0  0  0  0  0  0  0  0  0
    2.0203   -1.0235    0.0000 H   0  0  0  0  0  0  0  0  0  0  0  0
    2.8155   -1.7395    0.0000 H   0  0  0  0  0  0  0  0  0  0  0  0
   -2.6915    1.3562    0.0000 H   0  0  0  0  0  0  0  0  0  0  0  0
    0.5250    1.3563    0.0000 H   0  0  0  0  0  0  0  0  0  0  0  0
    0.5249    3.2134    0.0000 H   0  0  0  0  0  0  0  0  0  0  0  0
   -2.6915    3.2132    0.0000 H   0  0  0  0  0  0  0  0  0  0  0  0
   -1.0834    4.1417    0.0000 H   0  0  0  0  0  0  0  0  0  0  0  0
  2  1  1  0  0  0  0
  3  1  1  0  0  0  0
  4  1  2  0  0  0  0
  4 21  1  0  0  0  0
  5  4  1  0  0  0  0
  5  6  2  0  0  0  0
  6  2  1  0  0  0  0
  7 13  1  0  0  0  0
  8  3  1  0  0  0  0
  9  3  2  0  0  0  0
 10  7  2  0  0  0  0
 11  7  1  0  0  0  0
 12  2  1  0  0  0  0
 12 22  1  0  0  0  0
 12 23  1  0  0  0  0
 13 14  1  0  0  0  0
 14 12  1  0  0  0  0
 14 24  1  0  0  0  0
 14 25  1  0  0  0  0
 15  6  1  0  0  0  0
 15 26  1  0  0  0  0
 15 27  1  0  0  0  0
 15 28  1  0  0  0  0
 16 11  2  0  0  0  0
 16 29  1  0  0  0  0
 17 11  1  0  0  0  0
 17 30  1  0  0  0  0
 18 17  2  0  0  0  0
 18 31  1  0  0  0  0
 19 16  1  0  0  0  0
 19 32  1  0  0  0  0
 20 18  1  0  0  0  0
 20 19  2  0  0  0  0
 20 33  1  0  0  0  0
M  CHG  2   3   1   8  -1
M  END
>  <DRUGBANK_ID>
DB15759

>  <COMMON_NAME>
Metronidazole benzoate

>  <CAS_NUMBER>
13182-89-3

>  <UNII>
A355C835XC

>  <SYNONYMS>
2-(2-Methyl-5-nitroimidazol-1-yl)ethyl benzoate; Benzoyl metronidazole; Benzoylmetronidazole; Metronidazol benzoilo; Metronidazole benzoate

$$$$
