AO2
 OpenBabel10282417072D

 49 50  0  0  0  0  0  0  0  0999 V2000
   -3.2138   -0.4254    0.0000 C   0  0  0  0  0  0  0  0  0  0  0  0
   -3.9283   -0.0129    0.0000 C   0  0  0  0  0  0  0  0  0  0  0  0
   -3.9283    0.8121    0.0000 C   0  0  0  0  0  0  0  0  0  0  0  0
   -3.2138    1.2246    0.0000 C   0  0  0  0  0  0  0  0  0  0  0  0
   -2.4994    0.8121    0.0000 C   0  0  0  0  0  0  0  0  0  0  0  0
   -2.4994   -0.0129    0.0000 C   0  0  0  0  0  0  0  0  0  0  0  0
   -1.7849   -0.4254    0.0000 C   0  0  0  0  0  0  0  0  0  0  0  0
   -1.0704   -0.0129    0.0000 C   0  0  1  0  0  0  0  0  0  0  0  0
   -1.0704    0.8121    0.0000 N   0  0  0  0  0  0  0  0  0  0  0  0
   -0.3560   -0.4254    0.0000 C   0  0  2  0  0  0  0  0  0  0  0  0
   -0.3560   -1.2504    0.0000 O   0  0  0  0  0  0  0  0  0  0  0  0
    0.3585   -0.0129    0.0000 C   0  0  0  0  0  0  0  0  0  0  0  0
    0.3585    0.8121    0.0000 O   0  0  0  0  0  0  0  0  0  0  0  0
    1.0730   -0.4254    0.0000 N   0  0  0  0  0  0  0  0  0  0  0  0
    1.7875   -0.0129    0.0000 N   0  0  0  0  0  0  0  0  0  0  0  0
    2.5019   -0.4254    0.0000 C   0  0  0  0  0  0  0  0  0  0  0  0
    3.2164   -0.0129    0.0000 C   0  0  0  0  0  0  0  0  0  0  0  0
    3.9309   -0.4254    0.0000 C   0  0  0  0  0  0  0  0  0  0  0  0
    3.9309   -1.2504    0.0000 C   0  0  0  0  0  0  0  0  0  0  0  0
    3.2164   -1.6629    0.0000 C   0  0  0  0  0  0  0  0  0  0  0  0
    2.5019   -1.2504    0.0000 C   0  0  0  0  0  0  0  0  0  0  0  0
    4.6453   -1.6629    0.0000 C   0  0  0  0  0  0  0  0  0  0  0  0
   -1.5761    0.2790    0.0000 H   0  0  0  0  0  0  0  0  0  0  0  0
   -0.8617   -0.7174    0.0000 H   0  0  0  0  0  0  0  0  0  0  0  0
   -3.2138   -1.4954    0.0000 H   0  0  0  0  0  0  0  0  0  0  0  0
   -2.2871   -0.9604    0.0000 H   0  0  0  0  0  0  0  0  0  0  0  0
   -4.8549   -0.5479    0.0000 H   0  0  0  0  0  0  0  0  0  0  0  0
   -4.8549    0.5221    0.0000 H   0  0  0  0  0  0  0  0  0  0  0  0
   -4.8549    1.3471    0.0000 H   0  0  0  0  0  0  0  0  0  0  0  0
   -3.9283    1.8821    0.0000 H   0  0  0  0  0  0  0  0  0  0  0  0
   -3.2138    2.2946    0.0000 H   0  0  0  0  0  0  0  0  0  0  0  0
   -2.2871    1.7596    0.0000 H   0  0  0  0  0  0  0  0  0  0  0  0
   -1.5727    1.3471    0.0000 H   0  0  0  0  0  0  0  0  0  0  0  0
   -1.5728    0.2771    0.0000 H   0  0  0  0  0  0  0  0  0  0  0  0
   -1.5728    0.5221    0.0000 H   0  0  0  0  0  0  0  0  0  0  0  0
   -1.7849   -1.4954    0.0000 H   0  0  0  0  0  0  0  0  0  0  0  0
   -0.8583   -0.9604    0.0000 H   0  0  0  0  0  0  0  0  0  0  0  0
   -0.1871    1.3221    0.0000 H   0  0  0  0  0  0  0  0  0  0  0  0
   -1.9537    1.3221    0.0000 H   0  0  0  0  0  0  0  0  0  0  0  0
   -1.1960   -1.7354    0.0000 H   0  0  0  0  0  0  0  0  0  0  0  0
    1.0730   -1.4099    0.0000 H   0  0  0  0  0  0  0  0  0  0  0  0
    1.7875    0.9716    0.0000 H   0  0  0  0  0  0  0  0  0  0  0  0
    3.2164    1.0191    0.0000 H   0  0  0  0  0  0  0  0  0  0  0  0
    4.8246    0.0906    0.0000 H   0  0  0  0  0  0  0  0  0  0  0  0
    3.2164   -2.6949    0.0000 H   0  0  0  0  0  0  0  0  0  0  0  0
    1.6082   -1.7664    0.0000 H   0  0  0  0  0  0  0  0  0  0  0  0
    4.6453   -2.7329    0.0000 H   0  0  0  0  0  0  0  0  0  0  0  0
    5.5720   -1.1279    0.0000 H   0  0  0  0  0  0  0  0  0  0  0  0
    5.5719   -2.1979    0.0000 H   0  0  0  0  0  0  0  0  0  0  0  0
  1  2  1  0  0  0  0
  1  6  1  0  0  0  0
  1 25  1  0  0  0  0
  1 26  1  0  0  0  0
  2  3  1  0  0  0  0
  2 27  1  0  0  0  0
  2 28  1  0  0  0  0
  3  4  1  0  0  0  0
  3 29  1  0  0  0  0
  3 30  1  0  0  0  0
  4  5  1  0  0  0  0
  4 31  1  0  0  0  0
  4 32  1  0  0  0  0
  5  6  1  0  0  0  0
  5 33  1  0  0  0  0
  5 34  1  0  0  0  0
  6  7  1  0  0  0  0
  6 35  1  0  0  0  0
  7  8  1  0  0  0  0
  7 36  1  0  0  0  0
  7 37  1  0  0  0  0
  8  9  1  0  0  0  0
  8 10  1  0  0  0  0
  8 23  1  6  0  0  0
  9 38  1  0  0  0  0
  9 39  1  0  0  0  0
 10 11  1  0  0  0  0
 10 12  1  0  0  0  0
 10 24  1  6  0  0  0
 11 40  1  0  0  0  0
 12 13  2  0  0  0  0
 12 14  1  0  0  0  0
 14 15  1  0  0  0  0
 14 41  1  0  0  0  0
 15 16  1  0  0  0  0
 15 42  1  0  0  0  0
 16 17  1  0  0  0  0
 16 21  2  0  0  0  0
 17 18  2  0  0  0  0
 17 43  1  0  0  0  0
 18 19  1  0  0  0  0
 18 44  1  0  0  0  0
 19 20  2  0  0  0  0
 19 22  1  0  0  0  0
 20 21  1  0  0  0  0
 20 45  1  0  0  0  0
 21 46  1  0  0  0  0
 22 47  1  0  0  0  0
 22 48  1  0  0  0  0
 22 49  1  0  0  0  0
M  END
>  <DRUGBANK_ID>
DB03086

>  <SECONDARY_ACCESSION_NUMBERS>
EXPT00527

>  <COMMON_NAME>
N'-(2s,3r)-3-Amino-4-Cyclohexyl-2-Hydroxy-Butano-N-(4-Methylphenyl)Hydrazide

$$$$
