
 OpenBabel10282417072D

 19 19  0  0  0  0  0  0  0  0999 V2000
    1.4296   -0.7716    0.0000 Cl  0  0  0  0  0  0  0  0  0  0  0  0
    1.8414    0.1657    0.0000 Cl  0  0  0  0  0  0  0  0  0  0  0  0
    1.0177    1.5952    0.0000 Cl  0  0  0  0  0  0  0  0  0  0  0  0
    2.1444    1.2923    0.0000 Cl  0  0  0  0  0  0  0  0  0  0  0  0
   -1.4296   -0.7716    0.0000 Cl  0  0  0  0  0  0  0  0  0  0  0  0
   -1.4296    0.8805    0.0000 O   0  0  0  0  0  0  0  0  0  0  0  0
    0.0000   -1.5952    0.0000 O   0  0  0  0  0  0  0  0  0  0  0  0
    0.0000    0.8805    0.0000 N   0  0  0  0  0  0  0  0  0  0  0  0
    0.7147    0.4686    0.0000 C   0  0  0  0  0  0  0  0  0  0  0  0
   -0.7147    0.4686    0.0000 C   0  0  0  0  0  0  0  0  0  0  0  0
    0.7147   -0.3549    0.0000 C   0  0  0  0  0  0  0  0  0  0  0  0
    1.4296    0.8805    0.0000 C   0  0  0  0  0  0  0  0  0  0  0  0
   -0.7147   -0.3549    0.0000 C   0  0  0  0  0  0  0  0  0  0  0  0
    0.0000   -0.7716    0.0000 C   0  0  0  0  0  0  0  0  0  0  0  0
   -2.1444    0.4686    0.0000 C   0  0  0  0  0  0  0  0  0  0  0  0
    0.0000    1.3918    0.0000 H   0  0  0  0  0  0  0  0  0  0  0  0
   -3.0706    1.0044    0.0000 H   0  0  0  0  0  0  0  0  0  0  0  0
   -2.1453   -0.6014    0.0000 H   0  0  0  0  0  0  0  0  0  0  0  0
   -3.0715   -0.0656    0.0000 H   0  0  0  0  0  0  0  0  0  0  0  0
  1 11  1  0  0  0  0
  2 12  1  0  0  0  0
  3 12  1  0  0  0  0
  4 12  1  0  0  0  0
  5 13  1  0  0  0  0
  6 10  1  0  0  0  0
  6 15  1  0  0  0  0
  7 14  2  0  0  0  0
  8  9  1  0  0  0  0
  8 10  1  0  0  0  0
  8 16  1  0  0  0  0
  9 11  2  0  0  0  0
  9 12  1  0  0  0  0
 10 13  2  0  0  0  0
 11 14  1  0  0  0  0
 13 14  1  0  0  0  0
 15 17  1  0  0  0  0
 15 18  1  0  0  0  0
 15 19  1  0  0  0  0
M  END
>  <DRUGBANK_ID>
DB06331

>  <COMMON_NAME>
4-O-Demethylpenclomedine

>  <CAS_NUMBER>
176046-79-0

>  <UNII>
XUK71J2M0Q

>  <SYNONYMS>
4-Demethylpenclomedine; 4-Dm-pen; 4-Dmpen; DM-PEN; DMPEN

$$$$
