
 OpenBabel10282417072D

 30 30  0  0  0  0  0  0  0  0999 V2000
   -0.3528    0.0645    0.0000 C   0  0  0  0  0  0  0  0  0  0  0  0
   -0.3528   -0.7605    0.0000 C   0  0  0  0  0  0  0  0  0  0  0  0
   -1.0686    0.4821    0.0000 C   0  0  0  0  0  0  0  0  0  0  0  0
   -1.0686   -1.1681    0.0000 C   0  0  0  0  0  0  0  0  0  0  0  0
   -1.7844    0.0645    0.0000 C   0  0  0  0  0  0  0  0  0  0  0  0
   -1.7844   -0.7605    0.0000 C   0  0  0  0  0  0  0  0  0  0  0  0
   -2.5001    0.4821    0.0000 O   0  0  0  0  0  0  0  0  0  0  0  0
   -2.5001   -1.1681    0.0000 O   0  0  0  0  0  0  0  0  0  0  0  0
    0.3628    0.4821    0.0000 C   0  0  0  0  0  0  0  0  0  0  0  0
    1.0785    0.0745    0.0000 C   0  0  2  0  0  0  0  0  0  0  0  0
    1.7943    0.4821    0.0000 C   0  0  0  0  0  0  0  0  0  0  0  0
    2.5001    0.0745    0.0000 O   0  0  0  0  0  0  0  0  0  0  0  0
    1.7943    1.3072    0.0000 O   0  0  0  0  0  0  0  0  0  0  0  0
    0.5020   -0.5219    0.0000 C   0  0  0  0  0  0  0  0  0  0  0  0
    1.6651   -0.5119    0.0000 N   0  0  0  0  0  0  0  0  0  0  0  0
    1.4563   -1.3073    0.0000 N   0  0  0  0  0  0  0  0  0  0  0  0
    0.5394   -1.2792    0.0000 H   0  0  0  0  0  0  0  0  0  0  0  0
   -1.0686    1.5141    0.0000 H   0  0  0  0  0  0  0  0  0  0  0  0
   -1.0686   -2.2001    0.0000 H   0  0  0  0  0  0  0  0  0  0  0  0
   -2.4958    1.4191    0.0000 H   0  0  0  0  0  0  0  0  0  0  0  0
   -3.3088   -0.6948    0.0000 H   0  0  0  0  0  0  0  0  0  0  0  0
    0.3572    1.5521    0.0000 H   0  0  0  0  0  0  0  0  0  0  0  0
    1.2864    1.0223    0.0000 H   0  0  0  0  0  0  0  0  0  0  0  0
    2.5000   -0.8625    0.0000 H   0  0  0  0  0  0  0  0  0  0  0  0
   -0.5361   -0.2625    0.0000 H   0  0  0  0  0  0  0  0  0  0  0  0
    0.7964   -1.5506    0.0000 H   0  0  0  0  0  0  0  0  0  0  0  0
   -0.2417   -1.2912    0.0000 H   0  0  0  0  0  0  0  0  0  0  0  0
    2.6496   -0.2453    0.0000 H   0  0  0  0  0  0  0  0  0  0  0  0
    0.4724   -1.5763    0.0000 H   0  0  0  0  0  0  0  0  0  0  0  0
    2.1812   -2.0249    0.0000 H   0  0  0  0  0  0  0  0  0  0  0  0
  2  1  1  0  0  0  0
  2 17  1  0  0  0  0
  3  1  2  0  0  0  0
  3 18  1  0  0  0  0
  4  2  2  0  0  0  0
  4 19  1  0  0  0  0
  5  3  1  0  0  0  0
  6  4  1  0  0  0  0
  6  5  2  0  0  0  0
  7  5  1  0  0  0  0
  7 20  1  0  0  0  0
  8  6  1  0  0  0  0
  8 21  1  0  0  0  0
  9  1  1  0  0  0  0
  9 22  1  0  0  0  0
  9 23  1  0  0  0  0
 10  9  1  0  0  0  0
 10 11  1  6  0  0  0
 10 15  1  0  0  0  0
 12 11  1  0  0  0  0
 12 24  1  0  0  0  0
 13 11  2  0  0  0  0
 14 10  1  0  0  0  0
 14 25  1  0  0  0  0
 14 26  1  0  0  0  0
 14 27  1  0  0  0  0
 15 28  1  0  0  0  0
 16 15  1  0  0  0  0
 16 29  1  0  0  0  0
 16 30  1  0  0  0  0
M  END
>  <DRUGBANK_ID>
DB00190

>  <SECONDARY_ACCESSION_NUMBERS>
APRD00160

>  <COMMON_NAME>
Carbidopa

>  <CAS_NUMBER>
28860-95-9

>  <UNII>
KR87B45RGH

>  <SYNONYMS>
(-)-L-alpha-Hydrazino-3,4-dihydroxy-alpha-methylhydrocinnamic acid monohydrate; (S)-(−)-carbidopa; (S)-carbidopa; (αS)-α-hydrazino-3,4-dihydroxy-α-methylbenzenepropanoic acid; Carbidopa; Carbidopa (anhydrous); Carbidopa anhydrous; Carbidopum; L-3-(3,4-dihydroxyphenyl)-2-methyl-2-hydrazinopropionic acid; L-α-methyldopahydrazine

$$$$
