1407
 OpenBabel10282417072D

 35 35  0  0  1  0  0  0  0  0999 V2000
    5.2224    1.8794    0.0000 Cl  0  0  0  0  0  0  0  0  0  0  0  0
    2.3645    1.8794    0.0000 Cl  0  0  0  0  0  0  0  0  0  0  0  0
    4.5080   -1.0082    0.0000 O   0  0  0  0  0  0  0  0  0  0  0  0
    3.0791   -1.8332    0.0000 N   0  0  0  0  0  0  0  0  0  0  0  0
    3.7935    2.7044    0.0000 N   0  0  0  0  0  0  0  0  0  0  0  0
    2.3645   -2.2457    0.0000 C   0  0  0  0  0  0  0  0  0  0  0  0
    3.0791   -1.0082    0.0000 C   0  0  0  0  0  0  0  0  0  0  0  0
    3.7935   -0.5957    0.0000 C   0  0  3  0  0  0  0  0  0  0  0  0
    1.6500   -2.6582    0.0000 C   0  0  0  0  0  0  0  0  0  0  0  0
    2.7770   -2.9602    0.0000 C   0  0  0  0  0  0  0  0  0  0  0  0
    1.9520   -1.5312    0.0000 C   0  0  0  0  0  0  0  0  0  0  0  0
    3.7935    0.2294    0.0000 C   0  0  0  0  0  0  0  0  0  0  0  0
    3.0791    0.6419    0.0000 C   0  0  0  0  0  0  0  0  0  0  0  0
    4.5080    0.6419    0.0000 C   0  0  0  0  0  0  0  0  0  0  0  0
    4.5080    1.4669    0.0000 C   0  0  0  0  0  0  0  0  0  0  0  0
    3.0791    1.4669    0.0000 C   0  0  0  0  0  0  0  0  0  0  0  0
    3.7935    1.8794    0.0000 C   0  0  0  0  0  0  0  0  0  0  0  0
    4.5080   -1.9782    0.0000 H   0  0  0  0  0  0  0  0  0  0  0  0
    3.9624   -2.3432    0.0000 H   0  0  0  0  0  0  0  0  0  0  0  0
    4.6461    3.1966    0.0000 H   0  0  0  0  0  0  0  0  0  0  0  0
    2.9409    3.1966    0.0000 H   0  0  0  0  0  0  0  0  0  0  0  0
    2.1524   -0.4732    0.0000 H   0  0  0  0  0  0  0  0  0  0  0  0
    3.0791    0.0618    0.0000 H   0  0  0  0  0  0  0  0  0  0  0  0
    3.7935   -1.6657    0.0000 H   0  0  0  0  0  0  0  0  0  0  0  0
    0.7234   -2.1232    0.0000 H   0  0  0  0  0  0  0  0  0  0  0  0
    1.6500   -3.7282    0.0000 H   0  0  0  0  0  0  0  0  0  0  0  0
    0.7233   -3.1932    0.0000 H   0  0  0  0  0  0  0  0  0  0  0  0
    2.2420   -3.8868    0.0000 H   0  0  0  0  0  0  0  0  0  0  0  0
    3.8470   -2.9602    0.0000 H   0  0  0  0  0  0  0  0  0  0  0  0
    3.3120   -3.8869    0.0000 H   0  0  0  0  0  0  0  0  0  0  0  0
    2.4870   -0.6046    0.0000 H   0  0  0  0  0  0  0  0  0  0  0  0
    0.8820   -1.5312    0.0000 H   0  0  0  0  0  0  0  0  0  0  0  0
    1.4170   -0.6045    0.0000 H   0  0  0  0  0  0  0  0  0  0  0  0
    2.1854    0.1259    0.0000 H   0  0  0  0  0  0  0  0  0  0  0  0
    5.4017    0.1259    0.0000 H   0  0  0  0  0  0  0  0  0  0  0  0
  1 15  1  0  0  0  0
  2 16  1  0  0  0  0
  3  8  1  0  0  0  0
  3 18  1  0  0  0  0
  4  6  1  0  0  0  0
  4  7  1  0  0  0  0
  4 19  1  0  0  0  0
  5 17  1  0  0  0  0
  5 20  1  0  0  0  0
  5 21  1  0  0  0  0
  6  9  1  0  0  0  0
  6 10  1  0  0  0  0
  6 11  1  0  0  0  0
  7  8  1  0  0  0  0
  7 22  1  0  0  0  0
  7 23  1  0  0  0  0
  8 12  1  0  0  0  0
  8 24  1  0  0  0  0
  9 25  1  0  0  0  0
  9 26  1  0  0  0  0
  9 27  1  0  0  0  0
 10 28  1  0  0  0  0
 10 29  1  0  0  0  0
 10 30  1  0  0  0  0
 11 31  1  0  0  0  0
 11 32  1  0  0  0  0
 11 33  1  0  0  0  0
 12 13  2  0  0  0  0
 12 14  1  0  0  0  0
 13 16  1  0  0  0  0
 13 34  1  0  0  0  0
 14 15  2  0  0  0  0
 14 35  1  0  0  0  0
 15 17  1  0  0  0  0
 16 17  2  0  0  0  0
M  END
>  <DRUGBANK_ID>
DB01407

>  <COMMON_NAME>
Clenbuterol

>  <CAS_NUMBER>
37148-27-9

>  <UNII>
XTZ6AXU7KN

>  <SYNONYMS>
(±)-clenbuterol; 1-(4-Amino-3,5-dichloro-phenyl)-2-tert-butylamino-ethanol; 4-amino-3,5-dichloro-α-(((1,1-dimethylethyl)amino)methyl)benzenemethanol; 4-amino-α-((tert-butylamino)methyl)-3,5-dichlorobenzyl alcohol; Clenbuterol; Clenbutérol; Clenbuterolum

$$$$
