
 OpenBabel10282417072D

 73 76  0  0  0  0  0  0  0  0999 V2000
    0.1398   -2.6774    0.0000 C   0  0  1  0  0  0  0  0  0  0  0  0
    0.8777   -2.2704    0.0000 C   0  0  1  0  0  0  0  0  0  0  0  0
   -0.5217   -2.2704    0.0000 C   0  0  1  0  0  0  0  0  0  0  0  0
    0.1398   -3.4866    0.0000 C   0  0  0  0  0  0  0  0  0  0  0  0
    0.8777   -1.4967    0.0000 C   0  0  1  0  0  0  0  0  0  0  0  0
    2.2926   -2.2704    0.0000 C   0  0  0  0  0  0  0  0  0  0  0  0
   -1.2596   -2.6774    0.0000 C   0  0  2  0  0  0  0  0  0  0  0  0
   -0.5217   -1.4967    0.0000 C   0  0  2  0  0  0  0  0  0  0  0  0
   -0.5217   -3.8938    0.0000 C   0  0  1  0  0  0  0  0  0  0  0  0
    1.5750   -1.0898    0.0000 C   0  0  2  0  0  0  0  0  0  0  0  0
    0.1398   -1.0898    0.0000 C   0  0  0  0  0  0  0  0  0  0  0  0
    0.8777   -0.5094    0.0000 C   0  0  0  0  0  0  0  0  0  0  0  0
    2.2926   -1.4967    0.0000 C   0  0  2  0  0  0  0  0  0  0  0  0
   -1.2596   -3.4866    0.0000 C   0  0  0  0  0  0  0  0  0  0  0  0
   -1.9873   -2.2704    0.0000 C   0  0  0  0  0  0  0  0  0  0  0  0
   -1.3257   -1.8632    0.0000 C   0  0  0  0  0  0  0  0  0  0  0  0
   -1.3000   -0.9726    0.0000 O   0  0  0  0  0  0  0  0  0  0  0  0
   -0.5114   -4.6673    0.0000 F   0  0  0  0  0  0  0  0  0  0  0  0
    1.5699   -0.2648    0.0000 C   0  0  0  0  0  0  0  0  0  0  0  0
    3.4224   -1.3491    0.0000 C   0  0  0  0  0  0  0  0  0  0  0  0
   -1.9873   -3.8938    0.0000 C   0  0  0  0  0  0  0  0  0  0  0  0
   -2.7048   -2.6774    0.0000 C   0  0  0  0  0  0  0  0  0  0  0  0
    0.8527    0.1432    0.0000 C   0  0  0  0  0  0  0  0  0  0  0  0
    2.2816    0.1522    0.0000 O   0  0  0  0  0  0  0  0  0  0  0  0
   -2.7048   -3.4866    0.0000 C   0  0  0  0  0  0  0  0  0  0  0  0
    0.8476    0.9681    0.0000 O   0  0  0  0  0  0  0  0  0  0  0  0
   -3.4224   -3.9039    0.0000 O   0  0  0  0  0  0  0  0  0  0  0  0
    0.1305    1.3762    0.0000 C   0  0  0  0  0  0  0  0  0  0  0  0
    0.1254    2.2013    0.0000 C   0  0  0  0  0  0  0  0  0  0  0  0
   -0.5811    0.9593    0.0000 O   0  0  0  0  0  0  0  0  0  0  0  0
   -0.5914    2.6092    0.0000 C   0  0  0  0  0  0  0  0  0  0  0  0
   -0.5966    3.4343    0.0000 C   0  0  0  0  0  0  0  0  0  0  0  0
   -1.3137    3.8422    0.0000 C   0  0  0  0  0  0  0  0  0  0  0  0
   -1.3188    4.6673    0.0000 C   0  0  0  0  0  0  0  0  0  0  0  0
    0.9540   -3.0083    0.0000 H   0  0  0  0  0  0  0  0  0  0  0  0
    0.1398   -1.8523    0.0000 H   0  0  0  0  0  0  0  0  0  0  0  0
   -0.5217   -3.0953    0.0000 H   0  0  0  0  0  0  0  0  0  0  0  0
    1.0739   -4.0085    0.0000 H   0  0  0  0  0  0  0  0  0  0  0  0
    0.1624   -4.5564    0.0000 H   0  0  0  0  0  0  0  0  0  0  0  0
    3.0492   -3.0270    0.0000 H   0  0  0  0  0  0  0  0  0  0  0  0
    3.2812   -1.8609    0.0000 H   0  0  0  0  0  0  0  0  0  0  0  0
   -1.4663   -1.9994    0.0000 H   0  0  0  0  0  0  0  0  0  0  0  0
    0.4158   -4.4095    0.0000 H   0  0  0  0  0  0  0  0  0  0  0  0
    0.6455   -0.5598    0.0000 H   0  0  0  0  0  0  0  0  0  0  0  0
    0.1144   -0.0201    0.0000 H   0  0  0  0  0  0  0  0  0  0  0  0
   -0.8003   -0.5789    0.0000 H   0  0  0  0  0  0  0  0  0  0  0  0
    1.8043    0.0256    0.0000 H   0  0  0  0  0  0  0  0  0  0  0  0
   -0.0489    0.0256    0.0000 H   0  0  0  0  0  0  0  0  0  0  0  0
    0.8777    0.5606    0.0000 H   0  0  0  0  0  0  0  0  0  0  0  0
    3.0967   -2.2026    0.0000 H   0  0  0  0  0  0  0  0  0  0  0  0
   -1.9904   -1.2384    0.0000 H   0  0  0  0  0  0  0  0  0  0  0  0
   -0.4454   -1.2550    0.0000 H   0  0  0  0  0  0  0  0  0  0  0  0
   -2.2926   -1.4049    0.0000 H   0  0  0  0  0  0  0  0  0  0  0  0
   -1.4123   -0.7967    0.0000 H   0  0  0  0  0  0  0  0  0  0  0  0
   -1.2331   -0.0049    0.0000 H   0  0  0  0  0  0  0  0  0  0  0  0
    4.0729   -2.1986    0.0000 H   0  0  0  0  0  0  0  0  0  0  0  0
    3.8329   -0.3610    0.0000 H   0  0  0  0  0  0  0  0  0  0  0  0
    4.4834   -1.2105    0.0000 H   0  0  0  0  0  0  0  0  0  0  0  0
   -1.9904   -4.9258    0.0000 H   0  0  0  0  0  0  0  0  0  0  0  0
   -3.5966   -2.1580    0.0000 H   0  0  0  0  0  0  0  0  0  0  0  0
   -0.0706   -0.3976    0.0000 H   0  0  0  0  0  0  0  0  0  0  0  0
   -0.0773    0.6724    0.0000 H   0  0  0  0  0  0  0  0  0  0  0  0
    1.0487    2.7420    0.0000 H   0  0  0  0  0  0  0  0  0  0  0  0
    0.1187    3.2713    0.0000 H   0  0  0  0  0  0  0  0  0  0  0  0
   -1.5147    2.0684    0.0000 H   0  0  0  0  0  0  0  0  0  0  0  0
   -1.5214    3.1384    0.0000 H   0  0  0  0  0  0  0  0  0  0  0  0
    0.3266    3.9752    0.0000 H   0  0  0  0  0  0  0  0  0  0  0  0
   -0.6034    4.5043    0.0000 H   0  0  0  0  0  0  0  0  0  0  0  0
   -2.2370    3.3014    0.0000 H   0  0  0  0  0  0  0  0  0  0  0  0
   -2.2437    4.3714    0.0000 H   0  0  0  0  0  0  0  0  0  0  0  0
   -0.3955    5.2080    0.0000 H   0  0  0  0  0  0  0  0  0  0  0  0
   -2.2487    5.1966    0.0000 H   0  0  0  0  0  0  0  0  0  0  0  0
   -1.3254    5.7373    0.0000 H   0  0  0  0  0  0  0  0  0  0  0  0
  1  2  1  0  0  0  0
  1  3  1  0  0  0  0
  1  4  1  0  0  0  0
  1 36  1  1  0  0  0
  2  5  1  0  0  0  0
  2  6  1  0  0  0  0
  2 35  1  6  0  0  0
  3  7  1  0  0  0  0
  3  8  1  0  0  0  0
  3 37  1  6  0  0  0
  4  9  1  0  0  0  0
  4 38  1  0  0  0  0
  4 39  1  0  0  0  0
  5 10  1  0  0  0  0
  5 11  1  0  0  0  0
  5 12  1  1  0  0  0
  6 13  1  0  0  0  0
  6 40  1  0  0  0  0
  6 41  1  0  0  0  0
  7 14  1  0  0  0  0
  7 15  1  0  0  0  0
  7 16  1  1  0  0  0
  8 17  1  0  0  0  0
  8 11  1  0  0  0  0
  8 42  1  6  0  0  0
  9 18  1  0  0  0  0
  9 14  1  0  0  0  0
  9 43  1  1  0  0  0
 10 19  1  0  0  0  0
 10 13  1  0  0  0  0
 10 44  1  6  0  0  0
 11 45  1  0  0  0  0
 11 46  1  0  0  0  0
 12 47  1  0  0  0  0
 12 48  1  0  0  0  0
 12 49  1  0  0  0  0
 13 20  1  0  0  0  0
 13 50  1  1  0  0  0
 14 21  2  0  0  0  0
 15 22  2  0  0  0  0
 15 51  1  0  0  0  0
 16 52  1  0  0  0  0
 16 53  1  0  0  0  0
 16 54  1  0  0  0  0
 17 55  1  0  0  0  0
 19 23  1  0  0  0  0
 19 24  2  0  0  0  0
 20 56  1  0  0  0  0
 20 57  1  0  0  0  0
 20 58  1  0  0  0  0
 21 25  1  0  0  0  0
 21 59  1  0  0  0  0
 22 25  1  0  0  0  0
 22 60  1  0  0  0  0
 23 26  1  0  0  0  0
 23 61  1  0  0  0  0
 23 62  1  0  0  0  0
 25 27  2  0  0  0  0
 26 28  1  0  0  0  0
 28 29  1  0  0  0  0
 28 30  2  0  0  0  0
 29 31  1  0  0  0  0
 29 63  1  0  0  0  0
 29 64  1  0  0  0  0
 31 32  1  0  0  0  0
 31 65  1  0  0  0  0
 31 66  1  0  0  0  0
 32 33  1  0  0  0  0
 32 67  1  0  0  0  0
 32 68  1  0  0  0  0
 33 34  1  0  0  0  0
 33 69  1  0  0  0  0
 33 70  1  0  0  0  0
 34 71  1  0  0  0  0
 34 72  1  0  0  0  0
 34 73  1  0  0  0  0
M  END
>  <DRUGBANK_ID>
DB15821

>  <COMMON_NAME>
Fluocortolone caproate

>  <CAS_NUMBER>
303-40-2

>  <UNII>
90893P8662

>  <SYNONYMS>
Fluocortolone 21-caproate; Fluocortolone 21-hexanoate; Fluocortolone caproate; Fluocortolone hexanoate

$$$$
