
 OpenBabel10282417072D

 13 12  0  0  1  0  0  0  0  0999 V2000
   14.2499  -11.4198    0.0000 C   0  0  0  0  0  0  0  0  0  0  0  0
   13.8373  -12.1341    0.0000 C   0  0  2  0  0  0  0  0  0  0  0  0
   13.0123  -12.1341    0.0000 C   0  0  0  0  0  0  0  0  0  0  0  0
   12.5999  -11.4198    0.0000 O   0  0  0  0  0  0  0  0  0  0  0  0
   12.5999  -12.8487    0.0000 O   0  0  0  0  0  0  0  0  0  0  0  0
   14.2499  -12.8487    0.0000 N   0  0  0  0  0  0  0  0  0  0  0  0
   15.3199  -11.4200    0.0000 H   0  0  0  0  0  0  0  0  0  0  0  0
   13.7151  -10.4930    0.0000 H   0  0  0  0  0  0  0  0  0  0  0  0
   14.7851  -10.4933    0.0000 H   0  0  0  0  0  0  0  0  0  0  0  0
   13.3024  -11.2074    0.0000 H   0  0  0  0  0  0  0  0  0  0  0  0
   11.6629  -12.8489    0.0000 H   0  0  0  0  0  0  0  0  0  0  0  0
   13.7399  -13.7321    0.0000 H   0  0  0  0  0  0  0  0  0  0  0  0
   15.2699  -12.8487    0.0000 H   0  0  0  0  0  0  0  0  0  0  0  0
  1  7  1  0  0  0  0
  1  8  1  0  0  0  0
  1  9  1  0  0  0  0
  2  1  1  0  0  0  0
  2  3  1  0  0  0  0
  2  6  1  0  0  0  0
  2 10  1  6  0  0  0
  3  4  2  0  0  0  0
  3  5  1  0  0  0  0
  5 11  1  0  0  0  0
  6 12  1  0  0  0  0
  6 13  1  0  0  0  0
M  END
>  <DRUGBANK_ID>
DB01786

>  <SECONDARY_ACCESSION_NUMBERS>
EXPT01109

>  <COMMON_NAME>
D-Alanine

>  <CAS_NUMBER>
338-69-2

>  <UNII>
E3UDS4613U

>  <SYNONYMS>
(2R)-2-aminopropanoic acid; (R)-2-aminopropanoic acid; (R)-alanine; D-2-Aminopropionic acid; D-Ala; D-Alanin; D-α-alanine; D-α-aminopropionic acid; DAL

$$$$
