
 OpenBabel10282417072D

 43 47  0  0  0  0  0  0  0  0999 V2000
   -2.0514   -4.0458    0.0000 C   0  0  0  0  0  0  0  0  0  0  0  0
   -1.6498   -3.3251    0.0000 O   0  0  0  0  0  0  0  0  0  0  0  0
   -0.8249   -3.3125    0.0000 C   0  0  0  0  0  0  0  0  0  0  0  0
   -0.4233   -2.5919    0.0000 C   0  0  0  0  0  0  0  0  0  0  0  0
    0.4016   -2.5793    0.0000 C   0  0  0  0  0  0  0  0  0  0  0  0
    0.8249   -3.2875    0.0000 C   0  0  0  0  0  0  0  0  0  0  0  0
    1.6498   -3.2749    0.0000 C   0  0  0  0  0  0  0  0  0  0  0  0
    2.0731   -3.9830    0.0000 C   0  0  0  0  0  0  0  0  0  0  0  0
    2.8980   -3.9705    0.0000 C   0  0  0  0  0  0  0  0  0  0  0  0
    3.2996   -3.2498    0.0000 C   0  0  0  0  0  0  0  0  0  0  0  0
    4.1245   -3.2373    0.0000 C   0  0  0  0  0  0  0  0  0  0  0  0
    4.5478   -3.9454    0.0000 C   0  0  0  0  0  0  0  0  0  0  0  0
    5.3521   -3.7616    0.0000 O   0  0  0  0  0  0  0  0  0  0  0  0
    5.4259   -2.9399    0.0000 C   0  0  0  0  0  0  0  0  0  0  0  0
    4.6672   -2.6158    0.0000 O   0  0  0  0  0  0  0  0  0  0  0  0
    4.1463   -4.6660    0.0000 C   0  0  0  0  0  0  0  0  0  0  0  0
    3.3213   -4.6786    0.0000 C   0  0  0  0  0  0  0  0  0  0  0  0
    2.9198   -5.3993    0.0000 C   0  0  0  0  0  0  0  0  0  0  0  0
    2.0949   -5.4118    0.0000 C   0  0  0  0  0  0  0  0  0  0  0  0
    1.6715   -4.7037    0.0000 N   0  3  0  0  0  0  0  0  0  0  0  0
    0.8466   -4.7162    0.0000 C   0  0  0  0  0  0  0  0  0  0  0  0
    0.4233   -4.0081    0.0000 C   0  0  0  0  0  0  0  0  0  0  0  0
   -0.4016   -4.0207    0.0000 C   0  0  0  0  0  0  0  0  0  0  0  0
   -0.8032   -4.7413    0.0000 O   0  0  0  0  0  0  0  0  0  0  0  0
   -1.6281   -4.7539    0.0000 C   0  0  0  0  0  0  0  0  0  0  0  0
   -3.1213   -4.0621    0.0000 H   0  0  0  0  0  0  0  0  0  0  0  0
   -1.5024   -4.9642    0.0000 H   0  0  0  0  0  0  0  0  0  0  0  0
   -2.5722   -4.9805    0.0000 H   0  0  0  0  0  0  0  0  0  0  0  0
   -0.9528   -1.7061    0.0000 H   0  0  0  0  0  0  0  0  0  0  0  0
    0.9040   -1.6778    0.0000 H   0  0  0  0  0  0  0  0  0  0  0  0
    2.1521   -2.3734    0.0000 H   0  0  0  0  0  0  0  0  0  0  0  0
    2.7701   -2.3640    0.0000 H   0  0  0  0  0  0  0  0  0  0  0  0
    6.3443   -2.3909    0.0000 H   0  0  0  0  0  0  0  0  0  0  0  0
    5.3537   -1.8723    0.0000 H   0  0  0  0  0  0  0  0  0  0  0  0
    4.6759   -5.5518    0.0000 H   0  0  0  0  0  0  0  0  0  0  0  0
    3.4689   -6.3177    0.0000 H   0  0  0  0  0  0  0  0  0  0  0  0
    2.3989   -6.3340    0.0000 H   0  0  0  0  0  0  0  0  0  0  0  0
    1.5741   -6.3465    0.0000 H   0  0  0  0  0  0  0  0  0  0  0  0
    1.0250   -5.4281    0.0000 H   0  0  0  0  0  0  0  0  0  0  0  0
    0.3442   -5.6177    0.0000 H   0  0  0  0  0  0  0  0  0  0  0  0
   -2.1772   -3.8355    0.0000 H   0  0  0  0  0  0  0  0  0  0  0  0
   -2.1489   -5.6886    0.0000 H   0  0  0  0  0  0  0  0  0  0  0  0
   -2.6980   -4.7702    0.0000 H   0  0  0  0  0  0  0  0  0  0  0  0
  1  2  1  0  0  0  0
  1 26  1  0  0  0  0
  1 27  1  0  0  0  0
  1 28  1  0  0  0  0
  2  3  1  0  0  0  0
  3  4  2  0  0  0  0
  3 23  1  0  0  0  0
  4  5  1  0  0  0  0
  4 29  1  0  0  0  0
  5  6  2  0  0  0  0
  5 30  1  0  0  0  0
  6  7  1  0  0  0  0
  6 22  1  0  0  0  0
  7  8  2  0  0  0  0
  7 31  1  0  0  0  0
  8  9  1  0  0  0  0
  8 20  1  0  0  0  0
  9 10  2  0  0  0  0
  9 17  1  0  0  0  0
 10 11  1  0  0  0  0
 10 32  1  0  0  0  0
 11 12  2  0  0  0  0
 11 15  1  0  0  0  0
 12 13  1  0  0  0  0
 12 16  1  0  0  0  0
 13 14  1  0  0  0  0
 14 15  1  0  0  0  0
 14 33  1  0  0  0  0
 14 34  1  0  0  0  0
 16 17  2  0  0  0  0
 16 35  1  0  0  0  0
 17 18  1  0  0  0  0
 18 19  1  0  0  0  0
 18 36  1  0  0  0  0
 18 37  1  0  0  0  0
 19 20  1  0  0  0  0
 19 38  1  0  0  0  0
 19 39  1  0  0  0  0
 20 21  2  0  0  0  0
 21 22  1  0  0  0  0
 21 40  1  0  0  0  0
 22 23  2  0  0  0  0
 23 24  1  0  0  0  0
 24 25  1  0  0  0  0
 25 41  1  0  0  0  0
 25 42  1  0  0  0  0
 25 43  1  0  0  0  0
M  CHG  1  20   1
M  END
>  <DRUGBANK_ID>
DB04115

>  <SECONDARY_ACCESSION_NUMBERS>
EXPT00672

>  <COMMON_NAME>
Berberine

>  <CAS_NUMBER>
2086-83-1

>  <UNII>
0I8Y3P32UF

$$$$
