
 OpenBabel10282417072D

 49 53  0  0  0  0  0  0  0  0999 V2000
    5.6586   -3.4376    0.0000 C   0  0  0  0  0  0  0  0  0  0  0  0
    5.9136   -2.6530    0.0000 C   0  0  0  0  0  0  0  0  0  0  0  0
    5.3615   -2.0399    0.0000 C   0  0  0  0  0  0  0  0  0  0  0  0
    4.5546   -2.2114    0.0000 C   0  0  0  0  0  0  0  0  0  0  0  0
    4.2996   -2.9960    0.0000 C   0  0  0  0  0  0  0  0  0  0  0  0
    4.8517   -3.6091    0.0000 C   0  0  0  0  0  0  0  0  0  0  0  0
    3.4927   -3.1676    0.0000 C   0  0  0  0  0  0  0  0  0  0  0  0
    2.9406   -2.5545    0.0000 C   0  0  0  0  0  0  0  0  0  0  0  0
    3.1956   -1.7698    0.0000 C   0  0  0  0  0  0  0  0  0  0  0  0
    4.0025   -1.5983    0.0000 C   0  0  0  0  0  0  0  0  0  0  0  0
    4.2575   -0.8137    0.0000 C   0  0  0  0  0  0  0  0  0  0  0  0
    5.0645   -0.6422    0.0000 O   0  0  0  0  0  0  0  0  0  0  0  0
    3.7054   -0.2006    0.0000 N   0  0  0  0  0  0  0  0  0  0  0  0
    3.9604    0.5840    0.0000 C   0  0  0  0  0  0  0  0  0  0  0  0
    3.4084    1.1971    0.0000 C   0  0  0  0  0  0  0  0  0  0  0  0
    2.6014    1.0256    0.0000 C   0  0  0  0  0  0  0  0  0  0  0  0
    2.3464    0.2410    0.0000 C   0  0  0  0  0  0  0  0  0  0  0  0
    1.5214    0.2410    0.0000 C   0  0  0  0  0  0  0  0  0  0  0  0
    0.9694   -0.3721    0.0000 C   0  0  0  0  0  0  0  0  0  0  0  0
    0.1624   -0.2006    0.0000 C   0  0  0  0  0  0  0  0  0  0  0  0
   -0.0925    0.5840    0.0000 C   0  0  0  0  0  0  0  0  0  0  0  0
    0.4595    1.1971    0.0000 C   0  0  0  0  0  0  0  0  0  0  0  0
    1.2665    1.0256    0.0000 C   0  0  0  0  0  0  0  0  0  0  0  0
    1.9339    1.5105    0.0000 N   0  0  0  0  0  0  0  0  0  0  0  0
    1.9339    2.3355    0.0000 C   0  0  0  0  0  0  0  0  0  0  0  0
    2.6484    2.7480    0.0000 C   0  0  0  0  0  0  0  0  0  0  0  0
    2.6484    3.5730    0.0000 O   0  0  0  0  0  0  0  0  0  0  0  0
    3.3629    2.3355    0.0000 O   0  0  0  0  0  0  0  0  0  0  0  0
   -0.3896   -0.8137    0.0000 F   0  0  0  0  0  0  0  0  0  0  0  0
    2.8985   -0.3721    0.0000 C   0  0  0  0  0  0  0  0  0  0  0  0
    6.3491   -4.2046    0.0000 H   0  0  0  0  0  0  0  0  0  0  0  0
    6.9231   -2.4384    0.0000 H   0  0  0  0  0  0  0  0  0  0  0  0
    5.6804   -1.0584    0.0000 H   0  0  0  0  0  0  0  0  0  0  0  0
    4.5328   -4.5906    0.0000 H   0  0  0  0  0  0  0  0  0  0  0  0
    3.1739   -4.1491    0.0000 H   0  0  0  0  0  0  0  0  0  0  0  0
    1.9312   -2.7691    0.0000 H   0  0  0  0  0  0  0  0  0  0  0  0
    2.5051   -1.0029    0.0000 H   0  0  0  0  0  0  0  0  0  0  0  0
    5.0070    0.8064    0.0000 H   0  0  0  0  0  0  0  0  0  0  0  0
    4.2911    1.6016    0.0000 H   0  0  0  0  0  0  0  0  0  0  0  0
    3.7391    2.2147    0.0000 H   0  0  0  0  0  0  0  0  0  0  0  0
    2.6925    1.9923    0.0000 H   0  0  0  0  0  0  0  0  0  0  0  0
    1.2883   -1.3536    0.0000 H   0  0  0  0  0  0  0  0  0  0  0  0
   -1.1019    0.7986    0.0000 H   0  0  0  0  0  0  0  0  0  0  0  0
    0.1406    2.1786    0.0000 H   0  0  0  0  0  0  0  0  0  0  0  0
    1.0073    2.8705    0.0000 H   0  0  0  0  0  0  0  0  0  0  0  0
    1.9339    3.4055    0.0000 H   0  0  0  0  0  0  0  0  0  0  0  0
    3.3629    1.3985    0.0000 H   0  0  0  0  0  0  0  0  0  0  0  0
    2.5679   -1.3897    0.0000 H   0  0  0  0  0  0  0  0  0  0  0  0
    3.6145   -1.1673    0.0000 H   0  0  0  0  0  0  0  0  0  0  0  0
  1  2  2  0  0  0  0
  1  6  1  0  0  0  0
  1 31  1  0  0  0  0
  2  3  1  0  0  0  0
  2 32  1  0  0  0  0
  3  4  2  0  0  0  0
  3 33  1  0  0  0  0
  4  5  1  0  0  0  0
  4 10  1  0  0  0  0
  5  6  2  0  0  0  0
  5  7  1  0  0  0  0
  6 34  1  0  0  0  0
  7  8  2  0  0  0  0
  7 35  1  0  0  0  0
  8  9  1  0  0  0  0
  8 36  1  0  0  0  0
  9 10  2  0  0  0  0
  9 37  1  0  0  0  0
 10 11  1  0  0  0  0
 11 12  2  0  0  0  0
 11 13  1  0  0  0  0
 13 14  1  0  0  0  0
 13 30  1  0  0  0  0
 14 15  1  0  0  0  0
 14 38  1  0  0  0  0
 14 39  1  0  0  0  0
 15 16  1  0  0  0  0
 15 40  1  0  0  0  0
 15 41  1  0  0  0  0
 16 17  2  0  0  0  0
 16 24  1  0  0  0  0
 17 18  1  0  0  0  0
 17 30  1  0  0  0  0
 18 19  2  0  0  0  0
 18 23  1  0  0  0  0
 19 20  1  0  0  0  0
 19 42  1  0  0  0  0
 20 21  2  0  0  0  0
 20 29  1  0  0  0  0
 21 22  1  0  0  0  0
 21 43  1  0  0  0  0
 22 23  2  0  0  0  0
 22 44  1  0  0  0  0
 23 24  1  0  0  0  0
 24 25  1  0  0  0  0
 25 26  1  0  0  0  0
 25 45  1  0  0  0  0
 25 46  1  0  0  0  0
 26 27  2  0  0  0  0
 26 28  1  0  0  0  0
 28 47  1  0  0  0  0
 30 48  1  0  0  0  0
 30 49  1  0  0  0  0
M  END
>  <DRUGBANK_ID>
DB12562

>  <COMMON_NAME>
Setipiprant

>  <CAS_NUMBER>
866460-33-5

>  <UNII>
BHF20LA2GM

>  <SYNONYMS>
Setipiprant

$$$$
