
 OpenBabel10282417072D

 51 53  0  0  0  0  0  0  0  0999 V2000
    0.7145   -2.8875    0.0000 C   0  0  0  0  0  0  0  0  0  0  0  0
    0.7145   -3.7125    0.0000 C   0  0  0  0  0  0  0  0  0  0  0  0
   -0.1105   -3.7125    0.0000 C   0  0  0  0  0  0  0  0  0  0  0  0
    1.5395   -3.7125    0.0000 C   0  0  0  0  0  0  0  0  0  0  0  0
    0.7145   -4.5375    0.0000 C   0  0  0  0  0  0  0  0  0  0  0  0
    1.4289   -4.9500    0.0000 C   0  0  0  0  0  0  0  0  0  0  0  0
    1.4289   -5.7750    0.0000 C   0  0  0  0  0  0  0  0  0  0  0  0
    0.7145   -6.1875    0.0000 C   0  0  0  0  0  0  0  0  0  0  0  0
    0.0000   -5.7750    0.0000 C   0  0  0  0  0  0  0  0  0  0  0  0
    0.0000   -4.9500    0.0000 C   0  0  0  0  0  0  0  0  0  0  0  0
    0.7145   -7.0125    0.0000 S   0  0  0  0  0  0  0  0  0  0  0  0
   -0.1105   -7.0125    0.0000 O   0  0  0  0  0  0  0  0  0  0  0  0
    1.5395   -7.0125    0.0000 O   0  0  0  0  0  0  0  0  0  0  0  0
    0.7145   -7.8375    0.0000 N   0  0  0  0  0  0  0  0  0  0  0  0
    0.0000   -8.2500    0.0000 C   0  0  0  0  0  0  0  0  0  0  0  0
    0.0000   -9.0750    0.0000 C   0  0  0  0  0  0  0  0  0  0  0  0
   -0.7145   -9.4875    0.0000 C   0  0  0  0  0  0  0  0  0  0  0  0
   -1.4289   -9.0750    0.0000 C   0  0  0  0  0  0  0  0  0  0  0  0
   -2.1434   -9.4875    0.0000 Cl  0  0  0  0  0  0  0  0  0  0  0  0
   -1.4289   -8.2500    0.0000 C   0  0  0  0  0  0  0  0  0  0  0  0
   -0.7145   -7.8375    0.0000 C   0  0  0  0  0  0  0  0  0  0  0  0
    0.7145   -9.4875    0.0000 C   0  0  0  0  0  0  0  0  0  0  0  0
    1.4289   -9.0750    0.0000 O   0  0  0  0  0  0  0  0  0  0  0  0
    0.7145  -10.3125    0.0000 C   0  0  0  0  0  0  0  0  0  0  0  0
    1.4289  -10.7250    0.0000 C   0  0  0  0  0  0  0  0  0  0  0  0
    1.4289  -11.5500    0.0000 C   0  0  0  0  0  0  0  0  0  0  0  0
    0.7145  -11.9625    0.0000 N   0  3  0  0  0  0  0  0  0  0  0  0
    0.7145  -12.7875    0.0000 O   0  5  0  0  0  0  0  0  0  0  0  0
   -0.0000  -11.5500    0.0000 C   0  0  0  0  0  0  0  0  0  0  0  0
   -0.0000  -10.7250    0.0000 C   0  0  0  0  0  0  0  0  0  0  0  0
    1.6411   -2.3525    0.0000 H   0  0  0  0  0  0  0  0  0  0  0  0
   -0.2121   -2.3525    0.0000 H   0  0  0  0  0  0  0  0  0  0  0  0
    0.7145   -1.8175    0.0000 H   0  0  0  0  0  0  0  0  0  0  0  0
   -0.6455   -2.7859    0.0000 H   0  0  0  0  0  0  0  0  0  0  0  0
   -0.6455   -4.6391    0.0000 H   0  0  0  0  0  0  0  0  0  0  0  0
   -1.1805   -3.7125    0.0000 H   0  0  0  0  0  0  0  0  0  0  0  0
    2.0745   -4.6391    0.0000 H   0  0  0  0  0  0  0  0  0  0  0  0
    2.0745   -2.7859    0.0000 H   0  0  0  0  0  0  0  0  0  0  0  0
    2.6095   -3.7125    0.0000 H   0  0  0  0  0  0  0  0  0  0  0  0
    2.3226   -4.4340    0.0000 H   0  0  0  0  0  0  0  0  0  0  0  0
    2.3226   -6.2910    0.0000 H   0  0  0  0  0  0  0  0  0  0  0  0
   -0.8937   -6.2910    0.0000 H   0  0  0  0  0  0  0  0  0  0  0  0
   -0.8937   -4.4340    0.0000 H   0  0  0  0  0  0  0  0  0  0  0  0
    1.5671   -8.3298    0.0000 H   0  0  0  0  0  0  0  0  0  0  0  0
   -0.7145  -10.5195    0.0000 H   0  0  0  0  0  0  0  0  0  0  0  0
   -2.3226   -7.7340    0.0000 H   0  0  0  0  0  0  0  0  0  0  0  0
   -0.7145   -6.8055    0.0000 H   0  0  0  0  0  0  0  0  0  0  0  0
    2.3226  -10.2090    0.0000 H   0  0  0  0  0  0  0  0  0  0  0  0
    2.3226  -12.0660    0.0000 H   0  0  0  0  0  0  0  0  0  0  0  0
   -0.8937  -12.0660    0.0000 H   0  0  0  0  0  0  0  0  0  0  0  0
   -0.8937  -10.2090    0.0000 H   0  0  0  0  0  0  0  0  0  0  0  0
  1  2  1  0  0  0  0
  1 31  1  0  0  0  0
  1 32  1  0  0  0  0
  1 33  1  0  0  0  0
  2  3  1  0  0  0  0
  2  4  1  0  0  0  0
  2  5  1  0  0  0  0
  3 34  1  0  0  0  0
  3 35  1  0  0  0  0
  3 36  1  0  0  0  0
  4 37  1  0  0  0  0
  4 38  1  0  0  0  0
  4 39  1  0  0  0  0
  5  6  2  0  0  0  0
  5 10  1  0  0  0  0
  6  7  1  0  0  0  0
  6 40  1  0  0  0  0
  7  8  2  0  0  0  0
  7 41  1  0  0  0  0
  8  9  1  0  0  0  0
  8 11  1  0  0  0  0
  9 10  2  0  0  0  0
  9 42  1  0  0  0  0
 10 43  1  0  0  0  0
 11 12  2  0  0  0  0
 11 13  2  0  0  0  0
 11 14  1  0  0  0  0
 14 15  1  0  0  0  0
 14 44  1  0  0  0  0
 15 16  2  0  0  0  0
 15 21  1  0  0  0  0
 16 17  1  0  0  0  0
 16 22  1  0  0  0  0
 17 18  2  0  0  0  0
 17 45  1  0  0  0  0
 18 19  1  0  0  0  0
 18 20  1  0  0  0  0
 20 21  2  0  0  0  0
 20 46  1  0  0  0  0
 21 47  1  0  0  0  0
 22 23  2  0  0  0  0
 22 24  1  0  0  0  0
 24 25  2  0  0  0  0
 24 30  1  0  0  0  0
 25 26  1  0  0  0  0
 25 48  1  0  0  0  0
 26 27  2  0  0  0  0
 26 49  1  0  0  0  0
 27 28  1  0  0  0  0
 27 29  1  0  0  0  0
 29 30  2  0  0  0  0
 29 50  1  0  0  0  0
 30 51  1  0  0  0  0
M  CHG  2  27   1  28  -1
M  END
>  <DRUGBANK_ID>
DB15250

>  <SECONDARY_ACCESSION_NUMBERS>
DB05005

>  <COMMON_NAME>
Vercirnon

>  <CAS_NUMBER>
698394-73-9

>  <UNII>
MWI54OUA12

>  <SYNONYMS>
Vercirnon

$$$$
