PF8
 OpenBabel10282417072D

 47 51  0  0  0  0  0  0  0  0999 V2000
   -1.1950   -0.5617    0.0000 C   0  0  0  0  0  0  0  0  0  0  0  0
   -3.5171   -1.5537    0.0000 C   0  0  0  0  0  0  0  0  0  0  0  0
   -1.1950    1.0883    0.0000 C   0  0  0  0  0  0  0  0  0  0  0  0
    1.6629    1.0883    0.0000 C   0  0  0  0  0  0  0  0  0  0  0  0
   -1.9095    0.6758    0.0000 C   0  0  0  0  0  0  0  0  0  0  0  0
   -0.4805    0.6758    0.0000 C   0  0  0  0  0  0  0  0  0  0  0  0
    0.9484    0.6758    0.0000 C   0  0  0  0  0  0  0  0  0  0  0  0
    3.8063    0.6758    0.0000 C   0  0  0  0  0  0  0  0  0  0  0  0
    4.5208    1.9133    0.0000 C   0  0  0  0  0  0  0  0  0  0  0  0
    4.5208    1.0883    0.0000 C   0  0  0  0  0  0  0  0  0  0  0  0
    3.0918    1.0883    0.0000 C   0  0  0  0  0  0  0  0  0  0  0  0
    2.3774    0.6758    0.0000 N   0  0  0  0  0  0  0  0  0  0  0  0
    3.8063    2.3258    0.0000 C   0  0  0  0  0  0  0  0  0  0  0  0
    3.0918    1.9133    0.0000 C   0  0  0  0  0  0  0  0  0  0  0  0
    2.3774    2.3258    0.0000 C   0  0  0  0  0  0  0  0  0  0  0  0
    1.6629    1.9133    0.0000 C   0  0  0  0  0  0  0  0  0  0  0  0
    0.2339    1.0883    0.0000 O   0  0  0  0  0  0  0  0  0  0  0  0
   -0.4805   -0.1492    0.0000 C   0  0  0  0  0  0  0  0  0  0  0  0
   -1.9095   -0.1492    0.0000 C   0  0  0  0  0  0  0  0  0  0  0  0
   -2.6239   -0.5617    0.0000 C   0  0  0  0  0  0  0  0  0  0  0  0
   -2.7102   -1.3822    0.0000 C   0  0  0  0  0  0  0  0  0  0  0  0
   -3.9296   -0.8392    0.0000 N   0  0  0  0  0  0  0  0  0  0  0  0
   -3.3776   -0.2261    0.0000 N   0  0  0  0  0  0  0  0  0  0  0  0
   -2.0971   -1.9342    0.0000 C   0  0  0  0  0  0  0  0  0  0  0  0
   -2.2686   -2.7412    0.0000 C   0  0  0  0  0  0  0  0  0  0  0  0
   -1.6555   -3.2932    0.0000 C   0  0  0  0  0  0  0  0  0  0  0  0
   -0.8709   -3.0383    0.0000 N   0  0  0  0  0  0  0  0  0  0  0  0
   -0.6994   -2.2313    0.0000 C   0  0  0  0  0  0  0  0  0  0  0  0
   -1.3125   -1.6793    0.0000 C   0  0  0  0  0  0  0  0  0  0  0  0
   -1.1950   -1.5937    0.0000 H   0  0  0  0  0  0  0  0  0  0  0  0
   -3.9369   -2.4965    0.0000 H   0  0  0  0  0  0  0  0  0  0  0  0
   -1.1950    2.1203    0.0000 H   0  0  0  0  0  0  0  0  0  0  0  0
   -2.8032    1.1918    0.0000 H   0  0  0  0  0  0  0  0  0  0  0  0
    0.9484   -0.3942    0.0000 H   0  0  0  0  0  0  0  0  0  0  0  0
    0.0218    0.1408    0.0000 H   0  0  0  0  0  0  0  0  0  0  0  0
    3.8063   -0.3562    0.0000 H   0  0  0  0  0  0  0  0  0  0  0  0
    5.4145    2.4293    0.0000 H   0  0  0  0  0  0  0  0  0  0  0  0
    5.4145    0.5723    0.0000 H   0  0  0  0  0  0  0  0  0  0  0  0
    3.8063    3.3578    0.0000 H   0  0  0  0  0  0  0  0  0  0  0  0
    2.3774    3.3578    0.0000 H   0  0  0  0  0  0  0  0  0  0  0  0
    0.7692    2.4293    0.0000 H   0  0  0  0  0  0  0  0  0  0  0  0
    0.4132   -0.6652    0.0000 H   0  0  0  0  0  0  0  0  0  0  0  0
   -4.9087   -0.7363    0.0000 H   0  0  0  0  0  0  0  0  0  0  0  0
   -3.2501   -3.0601    0.0000 H   0  0  0  0  0  0  0  0  0  0  0  0
   -1.8701   -4.3026    0.0000 H   0  0  0  0  0  0  0  0  0  0  0  0
    0.2821   -1.9124    0.0000 H   0  0  0  0  0  0  0  0  0  0  0  0
   -1.0979   -0.6699    0.0000 H   0  0  0  0  0  0  0  0  0  0  0  0
  1 19  1  0  0  0  0
  1 30  1  0  0  0  0
  2 22  1  0  0  0  0
  2 31  1  0  0  0  0
  3  5  1  0  0  0  0
  3 32  1  0  0  0  0
  4  7  1  0  0  0  0
  5 19  2  0  0  0  0
  5 33  1  0  0  0  0
  6  3  2  0  0  0  0
  6 18  1  0  0  0  0
  7 17  1  0  0  0  0
  7 34  1  0  0  0  0
  7 35  1  0  0  0  0
  8 11  1  0  0  0  0
  8 36  1  0  0  0  0
  9 13  2  0  0  0  0
  9 10  1  0  0  0  0
  9 37  1  0  0  0  0
 10  8  2  0  0  0  0
 10 38  1  0  0  0  0
 11 12  2  0  0  0  0
 12  4  1  0  0  0  0
 13 14  1  0  0  0  0
 13 39  1  0  0  0  0
 14 11  1  0  0  0  0
 14 15  2  0  0  0  0
 15 16  1  0  0  0  0
 15 40  1  0  0  0  0
 16  4  2  0  0  0  0
 16 41  1  0  0  0  0
 17  6  1  0  0  0  0
 18  1  2  0  0  0  0
 18 42  1  0  0  0  0
 19 20  1  0  0  0  0
 20 21  1  0  0  0  0
 20 23  2  0  0  0  0
 21  2  2  0  0  0  0
 22 43  1  0  0  0  0
 23 22  1  0  0  0  0
 24 21  1  0  0  0  0
 24 29  1  0  0  0  0
 25 24  2  0  0  0  0
 25 44  1  0  0  0  0
 26 25  1  0  0  0  0
 26 27  2  0  0  0  0
 26 45  1  0  0  0  0
 27 28  1  0  0  0  0
 28 29  2  0  0  0  0
 28 46  1  0  0  0  0
 29 47  1  0  0  0  0
M  END
>  <DRUGBANK_ID>
DB08386

>  <COMMON_NAME>
2-{[4-(4-pyridin-4-yl-1H-pyrazol-3-yl)phenoxy]methyl}quinoline

$$$$
