
 OpenBabel10282417072D

 73 76  0  0  0  0  0  0  0  0999 V2000
   -5.7158    9.0750    0.0000 C   0  0  0  0  0  0  0  0  0  0  0  0
   -5.0013    9.4875    0.0000 C   0  0  0  0  0  0  0  0  0  0  0  0
   -4.2868    9.0750    0.0000 C   0  0  0  0  0  0  0  0  0  0  0  0
   -3.5724    9.4875    0.0000 C   0  0  0  0  0  0  0  0  0  0  0  0
   -2.8579    9.0750    0.0000 C   0  0  0  0  0  0  0  0  0  0  0  0
   -2.1434    9.4875    0.0000 C   0  0  0  0  0  0  0  0  0  0  0  0
   -1.4289    9.0750    0.0000 C   0  0  0  0  0  0  0  0  0  0  0  0
   -1.4289    8.2500    0.0000 O   0  0  0  0  0  0  0  0  0  0  0  0
   -0.7145    9.4875    0.0000 O   0  0  0  0  0  0  0  0  0  0  0  0
    0.0000    9.0750    0.0000 C   0  0  0  0  0  0  0  0  0  0  0  0
    0.7145    9.4875    0.0000 C   0  0  0  0  0  0  0  0  0  0  0  0
    1.4289    9.0750    0.0000 N   0  0  0  0  0  0  0  0  0  0  0  0
    2.1434    9.4875    0.0000 C   0  0  0  0  0  0  0  0  0  0  0  0
    2.8579    9.0750    0.0000 C   0  0  0  0  0  0  0  0  0  0  0  0
    2.8579    8.2500    0.0000 N   0  0  0  0  0  0  0  0  0  0  0  0
    2.1434    7.8375    0.0000 C   0  0  0  0  0  0  0  0  0  0  0  0
    1.4289    8.2500    0.0000 C   0  0  0  0  0  0  0  0  0  0  0  0
    3.5724    7.8375    0.0000 C   0  0  0  0  0  0  0  0  0  0  0  0
    4.2868    8.2500    0.0000 C   0  0  0  0  0  0  0  0  0  0  0  0
    5.0013    7.8375    0.0000 C   0  0  0  0  0  0  0  0  0  0  0  0
    5.7158    8.2500    0.0000 N   0  0  0  0  0  0  0  0  0  0  0  0
    6.4302    7.8375    0.0000 C   0  0  0  0  0  0  0  0  0  0  0  0
    6.4302    7.0125    0.0000 C   0  0  0  0  0  0  0  0  0  0  0  0
    7.1447    6.6000    0.0000 C   0  0  0  0  0  0  0  0  0  0  0  0
    7.8592    7.0125    0.0000 C   0  0  0  0  0  0  0  0  0  0  0  0
    7.8592    7.8375    0.0000 C   0  0  0  0  0  0  0  0  0  0  0  0
    7.1447    8.2500    0.0000 C   0  0  0  0  0  0  0  0  0  0  0  0
    7.1447    9.0750    0.0000 S   0  0  0  0  0  0  0  0  0  0  0  0
    6.4302    9.4875    0.0000 C   0  0  0  0  0  0  0  0  0  0  0  0
    5.7158    9.0750    0.0000 C   0  0  0  0  0  0  0  0  0  0  0  0
    5.0013    9.4875    0.0000 C   0  0  0  0  0  0  0  0  0  0  0  0
    5.0013   10.3125    0.0000 C   0  0  0  0  0  0  0  0  0  0  0  0
    5.7158   10.7250    0.0000 C   0  0  0  0  0  0  0  0  0  0  0  0
    6.4302   10.3125    0.0000 C   0  0  0  0  0  0  0  0  0  0  0  0
    4.2868   10.7250    0.0000 Cl  0  0  0  0  0  0  0  0  0  0  0  0
   -6.6424    9.6100    0.0000 H   0  0  0  0  0  0  0  0  0  0  0  0
   -5.7158    8.0050    0.0000 H   0  0  0  0  0  0  0  0  0  0  0  0
   -6.6425    8.5400    0.0000 H   0  0  0  0  0  0  0  0  0  0  0  0
   -5.0013   10.5575    0.0000 H   0  0  0  0  0  0  0  0  0  0  0  0
   -4.0747   10.0225    0.0000 H   0  0  0  0  0  0  0  0  0  0  0  0
   -4.2868    8.0050    0.0000 H   0  0  0  0  0  0  0  0  0  0  0  0
   -3.3601    8.5400    0.0000 H   0  0  0  0  0  0  0  0  0  0  0  0
   -3.5724   10.5575    0.0000 H   0  0  0  0  0  0  0  0  0  0  0  0
   -2.6458   10.0225    0.0000 H   0  0  0  0  0  0  0  0  0  0  0  0
   -2.8579    8.0050    0.0000 H   0  0  0  0  0  0  0  0  0  0  0  0
   -1.9313    8.5400    0.0000 H   0  0  0  0  0  0  0  0  0  0  0  0
   -2.1434   10.5575    0.0000 H   0  0  0  0  0  0  0  0  0  0  0  0
   -1.2168   10.0225    0.0000 H   0  0  0  0  0  0  0  0  0  0  0  0
    0.0000    8.0050    0.0000 H   0  0  0  0  0  0  0  0  0  0  0  0
    0.9266    8.5400    0.0000 H   0  0  0  0  0  0  0  0  0  0  0  0
    0.7145   10.5575    0.0000 H   0  0  0  0  0  0  0  0  0  0  0  0
    1.6412   10.0225    0.0000 H   0  0  0  0  0  0  0  0  0  0  0  0
    2.1434   10.5575    0.0000 H   0  0  0  0  0  0  0  0  0  0  0  0
    3.0700   10.0225    0.0000 H   0  0  0  0  0  0  0  0  0  0  0  0
    3.7845    9.6100    0.0000 H   0  0  0  0  0  0  0  0  0  0  0  0
    3.7845    8.5400    0.0000 H   0  0  0  0  0  0  0  0  0  0  0  0
    2.1434    6.7675    0.0000 H   0  0  0  0  0  0  0  0  0  0  0  0
    1.2168    7.3025    0.0000 H   0  0  0  0  0  0  0  0  0  0  0  0
    0.5023    7.7150    0.0000 H   0  0  0  0  0  0  0  0  0  0  0  0
    0.5023    8.7850    0.0000 H   0  0  0  0  0  0  0  0  0  0  0  0
    3.5724    6.7675    0.0000 H   0  0  0  0  0  0  0  0  0  0  0  0
    4.4991    7.3025    0.0000 H   0  0  0  0  0  0  0  0  0  0  0  0
    4.2868    9.3200    0.0000 H   0  0  0  0  0  0  0  0  0  0  0  0
    5.2134    8.7850    0.0000 H   0  0  0  0  0  0  0  0  0  0  0  0
    5.0013    6.7675    0.0000 H   0  0  0  0  0  0  0  0  0  0  0  0
    5.9279    7.3025    0.0000 H   0  0  0  0  0  0  0  0  0  0  0  0
    5.5365    6.4965    0.0000 H   0  0  0  0  0  0  0  0  0  0  0  0
    7.1447    5.5680    0.0000 H   0  0  0  0  0  0  0  0  0  0  0  0
    8.7529    6.4965    0.0000 H   0  0  0  0  0  0  0  0  0  0  0  0
    8.7529    8.3535    0.0000 H   0  0  0  0  0  0  0  0  0  0  0  0
    4.1076    8.9715    0.0000 H   0  0  0  0  0  0  0  0  0  0  0  0
    5.7158   11.7570    0.0000 H   0  0  0  0  0  0  0  0  0  0  0  0
    7.3239   10.8285    0.0000 H   0  0  0  0  0  0  0  0  0  0  0  0
  1  2  1  0  0  0  0
  1 36  1  0  0  0  0
  1 37  1  0  0  0  0
  1 38  1  0  0  0  0
  2  3  1  0  0  0  0
  2 39  1  0  0  0  0
  2 40  1  0  0  0  0
  3  4  1  0  0  0  0
  3 41  1  0  0  0  0
  3 42  1  0  0  0  0
  4  5  1  0  0  0  0
  4 43  1  0  0  0  0
  4 44  1  0  0  0  0
  5  6  1  0  0  0  0
  5 45  1  0  0  0  0
  5 46  1  0  0  0  0
  6  7  1  0  0  0  0
  6 47  1  0  0  0  0
  6 48  1  0  0  0  0
  7  8  2  0  0  0  0
  7  9  1  0  0  0  0
  9 10  1  0  0  0  0
 10 11  1  0  0  0  0
 10 49  1  0  0  0  0
 10 50  1  0  0  0  0
 11 12  1  0  0  0  0
 11 51  1  0  0  0  0
 11 52  1  0  0  0  0
 12 13  1  0  0  0  0
 12 17  1  0  0  0  0
 13 14  1  0  0  0  0
 13 53  1  0  0  0  0
 13 54  1  0  0  0  0
 14 15  1  0  0  0  0
 14 55  1  0  0  0  0
 14 56  1  0  0  0  0
 15 16  1  0  0  0  0
 15 18  1  0  0  0  0
 16 17  1  0  0  0  0
 16 57  1  0  0  0  0
 16 58  1  0  0  0  0
 17 59  1  0  0  0  0
 17 60  1  0  0  0  0
 18 19  1  0  0  0  0
 18 61  1  0  0  0  0
 18 62  1  0  0  0  0
 19 20  1  0  0  0  0
 19 63  1  0  0  0  0
 19 64  1  0  0  0  0
 20 21  1  0  0  0  0
 20 65  1  0  0  0  0
 20 66  1  0  0  0  0
 21 22  1  0  0  0  0
 21 30  1  0  0  0  0
 22 23  2  0  0  0  0
 22 27  1  0  0  0  0
 23 24  1  0  0  0  0
 23 67  1  0  0  0  0
 24 25  2  0  0  0  0
 24 68  1  0  0  0  0
 25 26  1  0  0  0  0
 25 69  1  0  0  0  0
 26 27  2  0  0  0  0
 26 70  1  0  0  0  0
 27 28  1  0  0  0  0
 28 29  1  0  0  0  0
 29 30  2  0  0  0  0
 29 34  1  0  0  0  0
 30 31  1  0  0  0  0
 31 32  2  0  0  0  0
 31 71  1  0  0  0  0
 32 33  1  0  0  0  0
 32 35  1  0  0  0  0
 33 34  2  0  0  0  0
 33 72  1  0  0  0  0
 34 73  1  0  0  0  0
M  END
>  <DRUGBANK_ID>
DB14651

>  <SECONDARY_ACCESSION_NUMBERS>
DBSALT000936

>  <COMMON_NAME>
Perphenazine enanthate

>  <CAS_NUMBER>
17528-28-8

>  <UNII>
Z6RS3DKN8J

>  <SYNONYMS>
Perphenazine enantate

$$$$
