
 OpenBabel10282417072D

 50 53  0  0  1  0  0  0  0  0999 V2000
    1.3296    2.8106    0.0000 C   0  0  0  0  0  0  0  0  0  0  0  0
    1.4346    1.8744    0.0000 C   0  0  0  0  0  0  0  0  0  0  0  0
    0.8255    1.2684    0.0000 N   0  3  3  0  0  0  0  0  0  0  0  0
    1.0572    0.3415    0.0000 C   0  0  2  0  0  0  0  0  0  0  0  0
    1.8615    0.5251    0.0000 C   0  0  0  0  0  0  0  0  0  0  0  0
    2.2195    1.2684    0.0000 C   0  0  2  0  0  0  0  0  0  0  0  0
    1.8615    2.0117    0.0000 C   0  0  0  0  0  0  0  0  0  0  0  0
    1.0572    2.1953    0.0000 C   0  0  1  0  0  0  0  0  0  0  0  0
    0.4122    1.6809    0.0000 C   0  0  1  0  0  0  0  0  0  0  0  0
    0.4122    0.8559    0.0000 C   0  0  2  0  0  0  0  0  0  0  0  0
   -0.3023    1.2684    0.0000 O   0  0  0  0  0  0  0  0  0  0  0  0
    3.1314    1.2656    0.0000 O   0  0  0  0  0  0  0  0  0  0  0  0
    3.8277    0.7770    0.0000 C   0  0  0  0  0  0  0  0  0  0  0  0
    3.1269    0.3415    0.0000 O   0  0  0  0  0  0  0  0  0  0  0  0
    4.5652    0.3825    0.0000 C   0  0  2  0  0  0  0  0  0  0  0  0
    5.0114    1.1245    0.0000 C   0  0  0  0  0  0  0  0  0  0  0  0
    5.8363    1.1099    0.0000 O   0  0  0  0  0  0  0  0  0  0  0  0
    4.9649   -0.3392    0.0000 C   0  0  0  0  0  0  0  0  0  0  0  0
    5.7897   -0.3539    0.0000 C   0  0  0  0  0  0  0  0  0  0  0  0
    6.1895   -1.0756    0.0000 C   0  0  0  0  0  0  0  0  0  0  0  0
    5.7643   -1.7826    0.0000 C   0  0  0  0  0  0  0  0  0  0  0  0
    4.9394   -1.7679    0.0000 C   0  0  0  0  0  0  0  0  0  0  0  0
    4.5397   -1.0462    0.0000 C   0  0  0  0  0  0  0  0  0  0  0  0
    1.6334    0.9984    0.0000 C   0  0  0  0  0  0  0  0  0  0  0  0
    2.1908    3.4455    0.0000 H   0  0  0  0  0  0  0  0  0  0  0  0
    0.3491    3.2390    0.0000 H   0  0  0  0  0  0  0  0  0  0  0  0
    1.2103    3.8739    0.0000 H   0  0  0  0  0  0  0  0  0  0  0  0
    2.4440    1.5195    0.0000 H   0  0  0  0  0  0  0  0  0  0  0  0
    1.6706    0.8307    0.0000 H   0  0  0  0  0  0  0  0  0  0  0  0
    1.6171    1.2533    0.0000 H   0  0  0  0  0  0  0  0  0  0  0  0
    2.5286   -0.3115    0.0000 H   0  0  0  0  0  0  0  0  0  0  0  0
    2.9248    0.6449    0.0000 H   0  0  0  0  0  0  0  0  0  0  0  0
    2.7874    0.3615    0.0000 H   0  0  0  0  0  0  0  0  0  0  0  0
    2.5286    2.8483    0.0000 H   0  0  0  0  0  0  0  0  0  0  0  0
    1.5081    3.0217    0.0000 H   0  0  0  0  0  0  0  0  0  0  0  0
    1.6171    1.2835    0.0000 H   0  0  0  0  0  0  0  0  0  0  0  0
   -0.1906    2.5650    0.0000 H   0  0  0  0  0  0  0  0  0  0  0  0
   -0.1228    1.7825    0.0000 H   0  0  0  0  0  0  0  0  0  0  0  0
    4.2807    1.4140    0.0000 H   0  0  0  0  0  0  0  0  0  0  0  0
    4.4929    2.0605    0.0000 H   0  0  0  0  0  0  0  0  0  0  0  0
    5.5627    2.0415    0.0000 H   0  0  0  0  0  0  0  0  0  0  0  0
    6.3064    0.2614    0.0000 H   0  0  0  0  0  0  0  0  0  0  0  0
    6.3215    0.5305    0.0000 H   0  0  0  0  0  0  0  0  0  0  0  0
    7.2213   -1.0940    0.0000 H   0  0  0  0  0  0  0  0  0  0  0  0
    6.2643   -2.6854    0.0000 H   0  0  0  0  0  0  0  0  0  0  0  0
    4.4076   -2.6523    0.0000 H   0  0  0  0  0  0  0  0  0  0  0  0
    3.5079   -1.0278    0.0000 H   0  0  0  0  0  0  0  0  0  0  0  0
    1.8471   -0.0500    0.0000 H   0  0  0  0  0  0  0  0  0  0  0  0
    2.4345    1.7077    0.0000 H   0  0  0  0  0  0  0  0  0  0  0  0
    2.6482    0.6592    0.0000 H   0  0  0  0  0  0  0  0  0  0  0  0
  1  2  1  0  0  0  0
  1 25  1  0  0  0  0
  1 26  1  0  0  0  0
  1 27  1  0  0  0  0
  2  3  1  0  0  0  0
  2 28  1  0  0  0  0
  2 29  1  0  0  0  0
  3  4  1  0  0  0  0
  3  8  1  0  0  0  0
  3 24  1  0  0  0  0
  4  5  1  0  0  0  0
  4 10  1  0  0  0  0
  4 30  1  1  0  0  0
  5  6  1  0  0  0  0
  5 31  1  0  0  0  0
  5 32  1  0  0  0  0
  6  7  1  0  0  0  0
  6 12  1  0  0  0  0
  6 33  1  1  0  0  0
  7 34  1  0  0  0  0
  7 35  1  0  0  0  0
  8  7  1  0  0  0  0
  8  9  1  0  0  0  0
  8 36  1  1  0  0  0
  9 10  1  0  0  0  0
  9 11  1  0  0  0  0
  9 37  1  6  0  0  0
 10 11  1  0  0  0  0
 10 38  1  6  0  0  0
 12 13  1  0  0  0  0
 13 14  2  0  0  0  0
 15 13  1  0  0  0  0
 15 16  1  0  0  0  0
 15 18  1  0  0  0  0
 15 39  1  1  0  0  0
 16 17  1  0  0  0  0
 16 40  1  0  0  0  0
 16 41  1  0  0  0  0
 17 42  1  0  0  0  0
 18 19  2  0  0  0  0
 18 23  1  0  0  0  0
 19 20  1  0  0  0  0
 19 43  1  0  0  0  0
 20 21  2  0  0  0  0
 20 44  1  0  0  0  0
 21 22  1  0  0  0  0
 21 45  1  0  0  0  0
 22 23  2  0  0  0  0
 22 46  1  0  0  0  0
 23 47  1  0  0  0  0
 24 48  1  0  0  0  0
 24 49  1  0  0  0  0
 24 50  1  0  0  0  0
M  CHG  1   3   1
M  END
>  <DRUGBANK_ID>
DB12086

>  <COMMON_NAME>
Oxitropium

>  <CAS_NUMBER>
99571-64-9

>  <UNII>
8G15T83E6I

$$$$
