
 OpenBabel10282417072D

 29 28  0  0  0  0  0  0  0  0999 V2000
   -2.1433   -0.2062    0.0000 O   0  0  0  0  0  0  0  0  0  0  0  0
   -2.8578    0.2062    0.0000 C   0  0  0  0  0  0  0  0  0  0  0  0
   -3.5723   -0.2062    0.0000 C   0  0  0  0  0  0  0  0  0  0  0  0
   -1.4289    0.2062    0.0000 C   0  0  0  0  0  0  0  0  0  0  0  0
   -0.7144   -0.2062    0.0000 C   0  0  0  0  0  0  0  0  0  0  0  0
    0.0000    0.2063    0.0000 O   0  0  0  0  0  0  0  0  0  0  0  0
    0.7145   -0.2061    0.0000 C   0  0  0  0  0  0  0  0  0  0  0  0
    1.4289    0.2063    0.0000 C   0  0  0  0  0  0  0  0  0  0  0  0
    2.1434   -0.2061    0.0000 O   0  0  0  0  0  0  0  0  0  0  0  0
    2.8579    0.2063    0.0000 C   0  0  0  0  0  0  0  0  0  0  0  0
    3.5723   -0.2061    0.0000 C   0  0  0  0  0  0  0  0  0  0  0  0
   -2.8578    1.2762    0.0000 H   0  0  0  0  0  0  0  0  0  0  0  0
   -3.7844    0.7413    0.0000 H   0  0  0  0  0  0  0  0  0  0  0  0
   -4.4989    0.3289    0.0000 H   0  0  0  0  0  0  0  0  0  0  0  0
   -3.5724   -1.2762    0.0000 H   0  0  0  0  0  0  0  0  0  0  0  0
   -4.4990   -0.7411    0.0000 H   0  0  0  0  0  0  0  0  0  0  0  0
   -1.4289    1.2762    0.0000 H   0  0  0  0  0  0  0  0  0  0  0  0
   -0.5023    0.7413    0.0000 H   0  0  0  0  0  0  0  0  0  0  0  0
   -0.7143   -1.2762    0.0000 H   0  0  0  0  0  0  0  0  0  0  0  0
    0.2123   -0.7411    0.0000 H   0  0  0  0  0  0  0  0  0  0  0  0
    0.7145   -1.2761    0.0000 H   0  0  0  0  0  0  0  0  0  0  0  0
    1.6411   -0.7411    0.0000 H   0  0  0  0  0  0  0  0  0  0  0  0
    1.4289    1.2763    0.0000 H   0  0  0  0  0  0  0  0  0  0  0  0
    2.3555    0.7414    0.0000 H   0  0  0  0  0  0  0  0  0  0  0  0
    2.8579    1.2763    0.0000 H   0  0  0  0  0  0  0  0  0  0  0  0
    3.7845    0.7413    0.0000 H   0  0  0  0  0  0  0  0  0  0  0  0
    3.5724   -1.2761    0.0000 H   0  0  0  0  0  0  0  0  0  0  0  0
    4.4989    0.3290    0.0000 H   0  0  0  0  0  0  0  0  0  0  0  0
    4.4990   -0.7410    0.0000 H   0  0  0  0  0  0  0  0  0  0  0  0
  1  4  1  0  0  0  0
  2  1  1  0  0  0  0
  2 12  1  0  0  0  0
  2 13  1  0  0  0  0
  3  2  1  0  0  0  0
  3 14  1  0  0  0  0
  3 15  1  0  0  0  0
  3 16  1  0  0  0  0
  4  5  1  0  0  0  0
  4 17  1  0  0  0  0
  4 18  1  0  0  0  0
  5  6  1  0  0  0  0
  5 19  1  0  0  0  0
  5 20  1  0  0  0  0
  6  7  1  0  0  0  0
  7  8  1  0  0  0  0
  7 21  1  0  0  0  0
  7 22  1  0  0  0  0
  8  9  1  0  0  0  0
  8 23  1  0  0  0  0
  8 24  1  0  0  0  0
  9 10  1  0  0  0  0
 10 11  1  0  0  0  0
 10 25  1  0  0  0  0
 10 26  1  0  0  0  0
 11 27  1  0  0  0  0
 11 28  1  0  0  0  0
 11 29  1  0  0  0  0
M  END
>  <DRUGBANK_ID>
DB08357

>  <COMMON_NAME>
Diethylene glycol diethyl ether

>  <CAS_NUMBER>
112-36-7

>  <UNII>
ZH086O935Z

>  <SYNONYMS>
1-ethoxy-2-(2-ethoxyethoxy)ethane; 1-Ethoxy-2-(beta-ethoxyethoxy)ethane; Diethyl carbitol; Diethyldiethylene glycol; Diethylene glycol diethyl ether; Ethyl diglyme

$$$$
