
 OpenBabel10282417072D

 54 57  0  0  0  0  0  0  0  0999 V2000
    0.5124   -0.8668    0.0000 C   0  0  0  0  0  0  0  0  0  0  0  0
    0.7927   -0.0908    0.0000 C   0  0  2  0  0  0  0  0  0  0  0  0
    1.3245   -0.7215    0.0000 C   0  0  0  0  0  0  0  0  0  0  0  0
    2.1366   -0.5763    0.0000 C   0  0  0  0  0  0  0  0  0  0  0  0
    2.4169    0.1995    0.0000 C   0  0  1  0  0  0  0  0  0  0  0  0
    1.8851    0.8302    0.0000 C   0  0  0  0  0  0  0  0  0  0  0  0
    1.0730    0.6850    0.0000 C   0  0  0  0  0  0  0  0  0  0  0  0
    0.5412    1.3157    0.0000 C   0  0  0  0  0  0  0  0  0  0  0  0
   -0.2709    1.1705    0.0000 C   0  0  0  0  0  0  0  0  0  0  0  0
   -0.5512    0.3946    0.0000 C   0  0  2  0  0  0  0  0  0  0  0  0
   -0.0193   -0.2361    0.0000 C   0  0  2  0  0  0  0  0  0  0  0  0
   -0.2996   -1.0120    0.0000 C   0  0  0  0  0  0  0  0  0  0  0  0
   -1.1118   -1.1572    0.0000 C   0  0  0  0  0  0  0  0  0  0  0  0
   -1.6436   -0.5265    0.0000 C   0  0  1  0  0  0  0  0  0  0  0  0
   -1.3633    0.2493    0.0000 C   0  0  1  0  0  0  0  0  0  0  0  0
   -2.0146    0.7557    0.0000 C   0  0  0  0  0  0  0  0  0  0  0  0
   -2.6975    0.2927    0.0000 C   0  0  0  0  0  0  0  0  0  0  0  0
   -2.4681   -0.4997    0.0000 C   0  0  1  0  0  0  0  0  0  0  0  0
   -3.2290   -0.8186    0.0000 C   0  0  0  0  0  0  0  0  0  0  0  0
   -2.5896   -1.3157    0.0000 O   0  0  0  0  0  0  0  0  0  0  0  0
   -2.0035   -1.2689    0.0000 C   0  0  0  0  0  0  0  0  0  0  0  0
    3.2290    0.3447    0.0000 O   0  0  0  0  0  0  0  0  0  0  0  0
   -0.5409   -1.0552    0.0000 H   0  0  0  0  0  0  0  0  0  0  0  0
    1.2022   -1.6848    0.0000 H   0  0  0  0  0  0  0  0  0  0  0  0
    0.1489   -1.8732    0.0000 H   0  0  0  0  0  0  0  0  0  0  0  0
    0.9609   -1.7278    0.0000 H   0  0  0  0  0  0  0  0  0  0  0  0
    2.0142   -1.5395    0.0000 H   0  0  0  0  0  0  0  0  0  0  0  0
    2.8263   -1.3943    0.0000 H   0  0  0  0  0  0  0  0  0  0  0  0
    3.1899   -0.3880    0.0000 H   0  0  0  0  0  0  0  0  0  0  0  0
    3.1066   -0.6185    0.0000 H   0  0  0  0  0  0  0  0  0  0  0  0
    2.2357    1.8008    0.0000 H   0  0  0  0  0  0  0  0  0  0  0  0
    0.9048    2.3220    0.0000 H   0  0  0  0  0  0  0  0  0  0  0  0
   -0.1485    2.1337    0.0000 H   0  0  0  0  0  0  0  0  0  0  0  0
   -0.9606    1.9885    0.0000 H   0  0  0  0  0  0  0  0  0  0  0  0
   -1.3242    0.9822    0.0000 H   0  0  0  0  0  0  0  0  0  0  0  0
    0.5021    0.5830    0.0000 H   0  0  0  0  0  0  0  0  0  0  0  0
   -1.0726   -0.4245    0.0000 H   0  0  0  0  0  0  0  0  0  0  0  0
    0.3901   -1.8300    0.0000 H   0  0  0  0  0  0  0  0  0  0  0  0
   -0.6632   -2.0183    0.0000 H   0  0  0  0  0  0  0  0  0  0  0  0
   -1.4754   -2.1635    0.0000 H   0  0  0  0  0  0  0  0  0  0  0  0
   -2.1651   -1.3455    0.0000 H   0  0  0  0  0  0  0  0  0  0  0  0
   -2.3912   -0.0480    0.0000 H   0  0  0  0  0  0  0  0  0  0  0  0
   -1.9798    1.8251    0.0000 H   0  0  0  0  0  0  0  0  0  0  0  0
   -2.9517    1.2722    0.0000 H   0  0  0  0  0  0  0  0  0  0  0  0
   -3.7039    0.6562    0.0000 H   0  0  0  0  0  0  0  0  0  0  0  0
   -3.4782   -0.4390    0.0000 H   0  0  0  0  0  0  0  0  0  0  0  0
   -4.0806   -0.1708    0.0000 H   0  0  0  0  0  0  0  0  0  0  0  0
   -3.3642   -1.8800    0.0000 H   0  0  0  0  0  0  0  0  0  0  0  0
   -4.2158   -1.2322    0.0000 H   0  0  0  0  0  0  0  0  0  0  0  0
   -3.4919   -1.6717    0.0000 H   0  0  0  0  0  0  0  0  0  0  0  0
   -3.0707   -1.3461    0.0000 H   0  0  0  0  0  0  0  0  0  0  0  0
   -1.4030   -2.1545    0.0000 H   0  0  0  0  0  0  0  0  0  0  0  0
   -2.4703   -2.2317    0.0000 H   0  0  0  0  0  0  0  0  0  0  0  0
    3.8543   -0.3969    0.0000 H   0  0  0  0  0  0  0  0  0  0  0  0
  1 23  1  0  0  0  0
  1 24  1  0  0  0  0
  1 25  1  0  0  0  0
  2  1  1  1  0  0  0
  2  3  1  0  0  0  0
  2  7  1  0  0  0  0
  2 11  1  0  0  0  0
  3  4  1  0  0  0  0
  3 26  1  0  0  0  0
  3 27  1  0  0  0  0
  4  5  1  0  0  0  0
  4 28  1  0  0  0  0
  4 29  1  0  0  0  0
  5  6  1  0  0  0  0
  5 22  1  0  0  0  0
  5 30  1  6  0  0  0
  6  7  2  0  0  0  0
  6 31  1  0  0  0  0
  7  8  1  0  0  0  0
  8  9  1  0  0  0  0
  8 32  1  0  0  0  0
  8 33  1  0  0  0  0
  9 34  1  0  0  0  0
  9 35  1  0  0  0  0
 10  9  1  0  0  0  0
 10 11  1  0  0  0  0
 10 15  1  0  0  0  0
 10 36  1  1  0  0  0
 11 12  1  0  0  0  0
 11 37  1  6  0  0  0
 12 13  1  0  0  0  0
 12 38  1  0  0  0  0
 12 39  1  0  0  0  0
 13 14  1  0  0  0  0
 13 40  1  0  0  0  0
 13 41  1  0  0  0  0
 14 15  1  0  0  0  0
 14 18  1  0  0  0  0
 14 21  1  1  0  0  0
 15 16  1  0  0  0  0
 15 42  1  6  0  0  0
 16 17  1  0  0  0  0
 16 43  1  0  0  0  0
 16 44  1  0  0  0  0
 17 18  1  0  0  0  0
 17 45  1  0  0  0  0
 17 46  1  0  0  0  0
 18 19  1  0  0  0  0
 18 20  1  1  0  0  0
 19 47  1  0  0  0  0
 19 48  1  0  0  0  0
 19 49  1  0  0  0  0
 20 50  1  0  0  0  0
 21 51  1  0  0  0  0
 21 52  1  0  0  0  0
 21 53  1  0  0  0  0
 22 54  1  0  0  0  0
M  END
>  <DRUGBANK_ID>
DB01474

>  <COMMON_NAME>
17alpha-methyl-3beta,17beta-dihydroxyandrost-4-ene

>  <CAS_NUMBER>
571-03-9

>  <UNII>
83255K3MTP

>  <SYNONYMS>
17-Methylandrost-4-ene-3beta,17beta-diol

$$$$
