
 OpenBabel10282417072D

 56 59  0  0  1  0  0  0  0  0999 V2000
   -1.6810    0.4304    0.0000 C   0  0  0  0  0  0  0  0  0  0  0  0
    2.6232    0.6018    0.0000 C   0  0  0  0  0  0  0  0  0  0  0  0
    0.1073    0.1997    0.0000 C   0  0  0  0  0  0  0  0  0  0  0  0
    2.6520    2.7844    0.0000 C   0  0  0  0  0  0  0  0  0  0  0  0
    1.8399    2.6391    0.0000 C   0  0  0  0  0  0  0  0  0  0  0  0
   -0.5867    1.7614    0.0000 C   0  0  0  0  0  0  0  0  0  0  0  0
    0.0962    2.2244    0.0000 C   0  0  0  0  0  0  0  0  0  0  0  0
    4.2475    0.8922    0.0000 C   0  0  0  0  0  0  0  0  0  0  0  0
    3.4354    0.7470    0.0000 C   0  0  0  0  0  0  0  0  0  0  0  0
    3.9960    2.2989    0.0000 C   0  0  0  0  0  0  0  0  0  0  0  0
    0.9990    0.3114    0.0000 C   0  0  0  0  0  0  0  0  0  0  0  0
   -0.8637    0.3176    0.0000 C   0  0  0  0  0  0  0  0  0  0  0  0
    3.1838    2.1537    0.0000 C   0  0  1  0  0  0  0  0  0  0  0  0
    4.5278    1.6682    0.0000 C   0  0  2  0  0  0  0  0  0  0  0  0
    1.5596    1.8632    0.0000 C   0  0  1  0  0  0  0  0  0  0  0  0
   -0.3574    0.9689    0.0000 C   0  0  2  0  0  0  0  0  0  0  0  0
    0.7475    1.7180    0.0000 C   0  0  1  0  0  0  0  0  0  0  0  0
    1.8111    0.4566    0.0000 C   0  0  0  0  0  0  0  0  0  0  0  0
    2.0914    1.2325    0.0000 C   0  0  2  0  0  0  0  0  0  0  0  0
    2.9035    1.3777    0.0000 C   0  0  2  0  0  0  0  0  0  0  0  0
    0.4672    0.9421    0.0000 C   0  0  1  0  0  0  0  0  0  0  0  0
   -0.5528   -0.4466    0.0000 O   0  0  0  0  0  0  0  0  0  0  0  0
    5.3399    1.8134    0.0000 O   0  0  0  0  0  0  0  0  0  0  0  0
    2.3429   -0.1741    0.0000 O   0  0  0  0  0  0  0  0  0  0  0  0
    3.7157    1.5229    0.0000 H   0  0  0  0  0  0  0  0  0  0  0  0
    4.8081    2.4441    0.0000 H   0  0  0  0  0  0  0  0  0  0  0  0
    1.0278    2.4939    0.0000 H   0  0  0  0  0  0  0  0  0  0  0  0
   -1.1676    1.1244    0.0000 H   0  0  0  0  0  0  0  0  0  0  0  0
    1.2793    1.0873    0.0000 H   0  0  0  0  0  0  0  0  0  0  0  0
    2.3717    2.0084    0.0000 H   0  0  0  0  0  0  0  0  0  0  0  0
   -2.0843    1.4215    0.0000 H   0  0  0  0  0  0  0  0  0  0  0  0
   -2.3377   -0.4144    0.0000 H   0  0  0  0  0  0  0  0  0  0  0  0
   -2.7410    0.5767    0.0000 H   0  0  0  0  0  0  0  0  0  0  0  0
    1.5699    0.4135    0.0000 H   0  0  0  0  0  0  0  0  0  0  0  0
    3.3129   -0.2162    0.0000 H   0  0  0  0  0  0  0  0  0  0  0  0
    2.2596   -0.4045    0.0000 H   0  0  0  0  0  0  0  0  0  0  0  0
   -0.9599    0.1225    0.0000 H   0  0  0  0  0  0  0  0  0  0  0  0
    0.7078   -0.6859    0.0000 H   0  0  0  0  0  0  0  0  0  0  0  0
   -0.3595   -0.7631    0.0000 H   0  0  0  0  0  0  0  0  0  0  0  0
    3.0155    3.7908    0.0000 H   0  0  0  0  0  0  0  0  0  0  0  0
    3.7053    2.9728    0.0000 H   0  0  0  0  0  0  0  0  0  0  0  0
    1.1501    3.4571    0.0000 H   0  0  0  0  0  0  0  0  0  0  0  0
    0.7866    2.4507    0.0000 H   0  0  0  0  0  0  0  0  0  0  0  0
   -1.5930    2.1250    0.0000 H   0  0  0  0  0  0  0  0  0  0  0  0
   -1.3675    1.0298    0.0000 H   0  0  0  0  0  0  0  0  0  0  0  0
    0.1310    3.2938    0.0000 H   0  0  0  0  0  0  0  0  0  0  0  0
    1.0649    2.6789    0.0000 H   0  0  0  0  0  0  0  0  0  0  0  0
    4.9373    0.0742    0.0000 H   0  0  0  0  0  0  0  0  0  0  0  0
    5.3008    1.0806    0.0000 H   0  0  0  0  0  0  0  0  0  0  0  0
    3.0719   -0.2594    0.0000 H   0  0  0  0  0  0  0  0  0  0  0  0
    2.3821    0.5586    0.0000 H   0  0  0  0  0  0  0  0  0  0  0  0
    4.3596    3.3052    0.0000 H   0  0  0  0  0  0  0  0  0  0  0  0
    5.0493    2.4872    0.0000 H   0  0  0  0  0  0  0  0  0  0  0  0
    0.6354   -0.6949    0.0000 H   0  0  0  0  0  0  0  0  0  0  0  0
   -0.0543    0.1231    0.0000 H   0  0  0  0  0  0  0  0  0  0  0  0
    5.9652    1.0718    0.0000 H   0  0  0  0  0  0  0  0  0  0  0  0
  1 31  1  0  0  0  0
  1 32  1  0  0  0  0
  1 33  1  0  0  0  0
  2 34  1  0  0  0  0
  2 35  1  0  0  0  0
  2 36  1  0  0  0  0
  3 37  1  0  0  0  0
  3 38  1  0  0  0  0
  3 39  1  0  0  0  0
  4 40  1  0  0  0  0
  4 41  1  0  0  0  0
  5  4  1  0  0  0  0
  5 42  1  0  0  0  0
  5 43  1  0  0  0  0
  6 44  1  0  0  0  0
  6 45  1  0  0  0  0
  7  6  1  0  0  0  0
  7 46  1  0  0  0  0
  7 47  1  0  0  0  0
  8 48  1  0  0  0  0
  8 49  1  0  0  0  0
  9  8  1  0  0  0  0
  9 50  1  0  0  0  0
  9 51  1  0  0  0  0
 10 52  1  0  0  0  0
 10 53  1  0  0  0  0
 11 54  1  0  0  0  0
 11 55  1  0  0  0  0
 12  1  1  0  0  0  0
 13  4  1  0  0  0  0
 13 10  1  0  0  0  0
 13 25  1  6  0  0  0
 14  8  1  0  0  0  0
 14 10  1  0  0  0  0
 14 23  1  0  0  0  0
 14 26  1  1  0  0  0
 15  5  1  0  0  0  0
 15 27  1  1  0  0  0
 16  6  1  0  0  0  0
 16 12  1  0  0  0  0
 16 28  1  6  0  0  0
 17  7  1  0  0  0  0
 17 15  1  0  0  0  0
 17 29  1  6  0  0  0
 18 11  1  0  0  0  0
 19 15  1  0  0  0  0
 19 18  1  0  0  0  0
 19 30  1  6  0  0  0
 20  2  1  1  0  0  0
 20  9  1  0  0  0  0
 20 13  1  0  0  0  0
 20 19  1  0  0  0  0
 21  3  1  1  0  0  0
 21 11  1  0  0  0  0
 21 16  1  0  0  0  0
 21 17  1  0  0  0  0
 22 12  2  0  0  0  0
 23 56  1  0  0  0  0
 24 18  2  0  0  0  0
M  END
>  <DRUGBANK_ID>
DB11371

>  <COMMON_NAME>
Alfaxalone

>  <CAS_NUMBER>
23930-19-0

>  <UNII>
BD07M97B2A

>  <SYNONYMS>
Alfaxalone

$$$$
