
 OpenBabel10282417072D

  7  4  0  0  0  0  0  0  0  0999 V2000
    1.2983    1.3523    0.0000 K   0  3  0  0  0  0  0  0  0  0  0  0
    1.2983   -1.3523    0.0000 K   0  3  0  0  0  0  0  0  0  0  0  0
    0.3516    0.0000    0.0000 O   0  5  0  0  0  0  0  0  0  0  0  0
   -1.2983    0.0000    0.0000 O   0  5  0  0  0  0  0  0  0  0  0  0
   -0.4733    0.8250    0.0000 O   0  0  0  0  0  0  0  0  0  0  0  0
   -0.4733    0.0000    0.0000 S   0  0  0  0  0  0  0  0  0  0  0  0
   -0.4733   -0.8250    0.0000 O   0  0  0  0  0  0  0  0  0  0  0  0
  6  3  1  0  0  0  0
  6  4  1  0  0  0  0
  6  5  2  0  0  0  0
  6  7  2  0  0  0  0
M  CHG  4   1   1   2   1   3  -1   4  -1
M  END
>  <DRUGBANK_ID>
DB14499

>  <SECONDARY_ACCESSION_NUMBERS>
DBSALT001465

>  <COMMON_NAME>
Potassium sulfate

>  <CAS_NUMBER>
7778-80-5

>  <UNII>
1K573LC5TV

>  <SYNONYMS>
Dipotassium sulfate; Potasio sulfato; Potassium (as sulfate); Potassium sulfate; Potassium sulphate; Sulfato potasio; Sulfuric acid, dipotassium salt

$$$$
