
 OpenBabel10282417072D

 23 23  0  0  0  0  0  0  0  0999 V2000
   -1.7705   -1.2577    0.0000 C   0  0  0  0  0  0  0  0  0  0  0  0
   -2.0231   -0.4742    0.0000 N   0  0  0  0  0  0  0  0  0  0  0  0
   -1.3587    0.0452    0.0000 C   0  0  0  0  0  0  0  0  0  0  0  0
   -0.7174   -0.4427    0.0000 C   0  0  0  0  0  0  0  0  0  0  0  0
   -0.9428   -1.2577    0.0000 N   0  0  0  0  0  0  0  0  0  0  0  0
   -1.3587    0.8416    0.0000 C   0  0  0  0  0  0  0  0  0  0  0  0
   -0.6398    1.2577    0.0000 O   0  0  0  0  0  0  0  0  0  0  0  0
   -2.0733    1.2577    0.0000 N   0  0  0  0  0  0  0  0  0  0  0  0
    0.1015   -0.2175    0.0000 N   0  0  0  0  0  0  0  0  0  0  0  0
    0.6886   -0.8004    0.0000 N   0  0  0  0  0  0  0  0  0  0  0  0
    1.4863   -0.5898    0.0000 N   0  0  0  0  0  0  0  0  0  0  0  0
    1.7012    0.2080    0.0000 C   0  0  0  0  0  0  0  0  0  0  0  0
    2.0733   -1.1728    0.0000 C   0  0  0  0  0  0  0  0  0  0  0  0
   -2.3780   -2.0919    0.0000 H   0  0  0  0  0  0  0  0  0  0  0  0
   -0.3466   -2.0412    0.0000 H   0  0  0  0  0  0  0  0  0  0  0  0
   -2.0697    2.2422    0.0000 H   0  0  0  0  0  0  0  0  0  0  0  0
   -2.9277    0.7686    0.0000 H   0  0  0  0  0  0  0  0  0  0  0  0
    2.7351    0.4836    0.0000 H   0  0  0  0  0  0  0  0  0  0  0  0
    0.9456    0.9656    0.0000 H   0  0  0  0  0  0  0  0  0  0  0  0
    1.9795    1.2412    0.0000 H   0  0  0  0  0  0  0  0  0  0  0  0
    1.7999   -2.2073    0.0000 H   0  0  0  0  0  0  0  0  0  0  0  0
    3.1059   -0.8923    0.0000 H   0  0  0  0  0  0  0  0  0  0  0  0
    2.8325   -1.9268    0.0000 H   0  0  0  0  0  0  0  0  0  0  0  0
  1  2  2  0  0  0  0
  1  5  1  0  0  0  0
  1 14  1  0  0  0  0
  2  3  1  0  0  0  0
  3  4  2  0  0  0  0
  3  6  1  0  0  0  0
  4  5  1  0  0  0  0
  4  9  1  0  0  0  0
  5 15  1  0  0  0  0
  6  7  2  0  0  0  0
  6  8  1  0  0  0  0
  8 16  1  0  0  0  0
  8 17  1  0  0  0  0
  9 10  2  0  0  0  0
 10 11  1  0  0  0  0
 11 12  1  0  0  0  0
 11 13  1  0  0  0  0
 12 18  1  0  0  0  0
 12 19  1  0  0  0  0
 12 20  1  0  0  0  0
 13 21  1  0  0  0  0
 13 22  1  0  0  0  0
 13 23  1  0  0  0  0
M  END
>  <DRUGBANK_ID>
DB00851

>  <SECONDARY_ACCESSION_NUMBERS>
APRD00331

>  <COMMON_NAME>
Dacarbazine

>  <CAS_NUMBER>
4342-03-4

>  <UNII>
7GR28W0FJI

>  <SYNONYMS>
4-(3,3-dimethyl-1-triazeno)imidazole-5-carboxamide; 4-(5)-(3,3-dimethyl-1-triazeno)imidazole-5(4)-carboxamide; 4-(dimethyltriazeno)imidazole-5-carboxamide; 5-(3,3-dimethyl-1-triazeno)imidazole-4-carboxamide; 5-(3,3-dimethyltriazeno)imidazole-4-carboxamide; 5-(dimethyltriazeno)imidazole-4-carboxamide; Biocarbazine; Dacarbazin; Dacarbazina; Dacarbazine; Dacarbazinum; DIC; DTIC; ICDMT

$$$$
