TLM
 OpenBabel10282417072D

 28 28  0  0  0  0  0  0  0  0999 V2000
    0.1011   -0.5158    0.0000 S   0  0  0  0  0  0  0  0  0  0  0  0
   -0.1538   -1.3004    0.0000 C   0  0  0  0  0  0  0  0  0  0  0  0
   -0.9788   -1.3004    0.0000 C   0  0  0  0  0  0  0  0  0  0  0  0
   -1.2338   -0.5158    0.0000 C   0  0  0  0  0  0  0  0  0  0  0  0
   -0.5663   -0.0309    0.0000 C   0  0  1  0  0  0  0  0  0  0  0  0
   -0.1613    0.6879    0.0000 C   0  0  0  0  0  0  0  0  0  0  0  0
    0.6636    0.6965    0.0000 C   0  0  0  0  0  0  0  0  0  0  0  0
    1.0686    1.4153    0.0000 C   0  0  0  0  0  0  0  0  0  0  0  0
    1.8936    1.4239    0.0000 C   0  0  0  0  0  0  0  0  0  0  0  0
    0.3311   -1.9679    0.0000 O   0  0  0  0  0  0  0  0  0  0  0  0
   -1.4637   -1.9679    0.0000 C   0  0  0  0  0  0  0  0  0  0  0  0
   -2.0184   -0.2609    0.0000 O   0  0  0  0  0  0  0  0  0  0  0  0
   -0.9713    0.6879    0.0000 C   0  0  0  0  0  0  0  0  0  0  0  0
    1.0836   -0.0136    0.0000 C   0  0  0  0  0  0  0  0  0  0  0  0
   -0.6866    1.5762    0.0000 H   0  0  0  0  0  0  0  0  0  0  0  0
    0.5433    2.3036    0.0000 H   0  0  0  0  0  0  0  0  0  0  0  0
    2.4189    0.5356    0.0000 H   0  0  0  0  0  0  0  0  0  0  0  0
    2.4003    2.3230    0.0000 H   0  0  0  0  0  0  0  0  0  0  0  0
   -2.5278   -1.8561    0.0000 H   0  0  0  0  0  0  0  0  0  0  0  0
   -1.0284   -2.9454    0.0000 H   0  0  0  0  0  0  0  0  0  0  0  0
   -2.0926   -2.8336    0.0000 H   0  0  0  0  0  0  0  0  0  0  0  0
   -2.2132    0.6556    0.0000 H   0  0  0  0  0  0  0  0  0  0  0  0
   -0.4266    1.6089    0.0000 H   0  0  0  0  0  0  0  0  0  0  0  0
   -2.0412    0.6991    0.0000 H   0  0  0  0  0  0  0  0  0  0  0  0
   -1.4965    1.6201    0.0000 H   0  0  0  0  0  0  0  0  0  0  0  0
    0.5584   -0.9458    0.0000 H   0  0  0  0  0  0  0  0  0  0  0  0
    2.1535   -0.0023    0.0000 H   0  0  0  0  0  0  0  0  0  0  0  0
    1.6283   -0.9346    0.0000 H   0  0  0  0  0  0  0  0  0  0  0  0
  1  2  1  0  0  0  0
  1  5  1  0  0  0  0
  2  3  1  0  0  0  0
  2 10  2  0  0  0  0
  3  4  2  0  0  0  0
  3 11  1  0  0  0  0
  4  5  1  0  0  0  0
  4 12  1  0  0  0  0
  5  6  1  1  0  0  0
  5 13  1  0  0  0  0
  6  7  2  0  0  0  0
  6 15  1  0  0  0  0
  7  8  1  0  0  0  0
  7 14  1  0  0  0  0
  8  9  2  0  0  0  0
  8 16  1  0  0  0  0
  9 17  1  0  0  0  0
  9 18  1  0  0  0  0
 11 19  1  0  0  0  0
 11 20  1  0  0  0  0
 11 21  1  0  0  0  0
 12 22  1  0  0  0  0
 13 23  1  0  0  0  0
 13 24  1  0  0  0  0
 13 25  1  0  0  0  0
 14 26  1  0  0  0  0
 14 27  1  0  0  0  0
 14 28  1  0  0  0  0
M  END
>  <DRUGBANK_ID>
DB04302

>  <SECONDARY_ACCESSION_NUMBERS>
EXPT03065

>  <COMMON_NAME>
4-Hydroxy-3,5-Dimethyl-5-(2-Methyl-Buta-1,3-Dienyl)-5h-Thiophen-2-One

>  <CAS_NUMBER>
82079-32-1

$$$$
