
 OpenBabel10282417072D

 41 42  0  0  0  0  0  0  0  0999 V2000
   -1.2259    0.8240    0.0000 S   0  0  0  0  0  0  0  0  0  0  0  0
    3.6521   -0.6910    0.0000 S   0  0  0  0  0  0  0  0  0  0  0  0
    0.2030   -1.6509    0.0000 O   0  0  0  0  0  0  0  0  0  0  0  0
    0.9174   -1.2384    0.0000 O   0  0  0  0  0  0  0  0  0  0  0  0
   -3.3693   -1.2384    0.0000 O   0  0  0  0  0  0  0  0  0  0  0  0
   -4.0838   -0.0009    0.0000 O   0  0  0  0  0  0  0  0  0  0  0  0
    0.9174    1.2365    0.0000 O   0  0  0  0  0  0  0  0  0  0  0  0
    0.2030   -0.0009    0.0000 N   0  0  0  0  0  0  0  0  0  0  0  0
   -1.9404   -0.4134    0.0000 N   0  0  0  0  0  0  0  0  0  0  0  0
    1.6319    0.8240    0.0000 N   0  0  0  0  0  0  0  0  0  0  0  0
    2.4326   -1.2339    0.0000 N   0  0  0  0  0  0  0  0  0  0  0  0
    3.5751   -2.1591    0.0000 N   0  0  0  0  0  0  0  0  0  0  0  0
   -1.2259   -0.0009    0.0000 C   0  0  1  0  0  0  0  0  0  0  0  0
   -0.5115   -0.4134    0.0000 C   0  0  1  0  0  0  0  0  0  0  0  0
   -1.9404    1.2365    0.0000 C   0  0  0  0  0  0  0  0  0  0  0  0
   -2.6549    0.8240    0.0000 C   0  0  0  0  0  0  0  0  0  0  0  0
   -2.6549   -0.0009    0.0000 C   0  0  0  0  0  0  0  0  0  0  0  0
   -0.5115   -1.2384    0.0000 C   0  0  0  0  0  0  0  0  0  0  0  0
    0.9174   -0.4134    0.0000 C   0  0  0  0  0  0  0  0  0  0  0  0
    1.6319   -0.0009    0.0000 C   0  0  0  0  0  0  0  0  0  0  0  0
   -3.3693   -0.4134    0.0000 C   0  0  0  0  0  0  0  0  0  0  0  0
   -3.3693    1.2365    0.0000 C   0  0  0  0  0  0  0  0  0  0  0  0
    2.3463   -0.4134    0.0000 C   0  0  0  0  0  0  0  0  0  0  0  0
    3.1001   -0.0779    0.0000 C   0  0  0  0  0  0  0  0  0  0  0  0
    3.2396   -1.4054    0.0000 C   0  0  0  0  0  0  0  0  0  0  0  0
    0.9174    2.0615    0.0000 C   0  0  0  0  0  0  0  0  0  0  0  0
   -1.2259   -0.8259    0.0000 H   0  0  0  0  0  0  0  0  0  0  0  0
   -4.1808   -1.7069    0.0000 H   0  0  0  0  0  0  0  0  0  0  0  0
    0.2030    0.9836    0.0000 H   0  0  0  0  0  0  0  0  0  0  0  0
    2.9964   -2.9555    0.0000 H   0  0  0  0  0  0  0  0  0  0  0  0
    4.5542   -2.2621    0.0000 H   0  0  0  0  0  0  0  0  0  0  0  0
   -0.5115    0.6566    0.0000 H   0  0  0  0  0  0  0  0  0  0  0  0
   -1.9404    2.3065    0.0000 H   0  0  0  0  0  0  0  0  0  0  0  0
   -2.8670    1.7715    0.0000 H   0  0  0  0  0  0  0  0  0  0  0  0
   -1.4052   -1.7544    0.0000 H   0  0  0  0  0  0  0  0  0  0  0  0
   -3.3693    2.2685    0.0000 H   0  0  0  0  0  0  0  0  0  0  0  0
   -4.2631    0.7205    0.0000 H   0  0  0  0  0  0  0  0  0  0  0  0
    3.3147    0.9315    0.0000 H   0  0  0  0  0  0  0  0  0  0  0  0
    1.8440    2.5965    0.0000 H   0  0  0  0  0  0  0  0  0  0  0  0
   -0.0092    2.5965    0.0000 H   0  0  0  0  0  0  0  0  0  0  0  0
    0.9174    3.1315    0.0000 H   0  0  0  0  0  0  0  0  0  0  0  0
  1 13  1  0  0  0  0
  1 15  1  0  0  0  0
  2 24  1  0  0  0  0
  2 25  1  0  0  0  0
  3 18  2  0  0  0  0
  4 19  2  0  0  0  0
  5 21  1  0  0  0  0
  5 28  1  0  0  0  0
  6 21  2  0  0  0  0
  7 10  1  0  0  0  0
  7 26  1  0  0  0  0
  8 19  1  0  0  0  0
  8 29  1  0  0  0  0
  9 13  1  0  0  0  0
  9 17  2  0  0  0  0
 10 20  2  0  0  0  0
 11 23  1  0  0  0  0
 11 25  2  0  0  0  0
 12 25  1  0  0  0  0
 12 30  1  0  0  0  0
 12 31  1  0  0  0  0
 13 14  1  0  0  0  0
 13 27  1  1  0  0  0
 14  8  1  0  0  0  0
 14 18  1  0  0  0  0
 14 32  1  1  0  0  0
 15 16  1  0  0  0  0
 15 33  1  0  0  0  0
 15 34  1  0  0  0  0
 16 17  1  0  0  0  0
 16 22  2  0  0  0  0
 17 21  1  0  0  0  0
 18 35  1  0  0  0  0
 19 20  1  0  0  0  0
 20 23  1  0  0  0  0
 22 36  1  0  0  0  0
 22 37  1  0  0  0  0
 23 24  2  0  0  0  0
 24 38  1  0  0  0  0
 26 39  1  0  0  0  0
 26 40  1  0  0  0  0
 26 41  1  0  0  0  0
M  END
>  <DRUGBANK_ID>
DB08375

>  <SECONDARY_ACCESSION_NUMBERS>
EXPT00885; DB04181

>  <COMMON_NAME>
(2R)-2-[(1R)-1-[[(2Z)-2-(2-Amino-1,3-thiazol-4-yl)-2-methoxyiminoacetyl]amino]-2-oxoethyl]-5-methylidene-2H-1,3-thiazine-4-carboxylic acid

>  <SYNONYMS>
Pcnotaxime group

$$$$
