
 OpenBabel10282417072D

 37 38  0  0  1  0  0  0  0  0999 V2000
   -0.2792   -2.0451    0.0000 B   0  0  0  0  0  0  0  0  0  0  0  0
   -0.2792   -2.8701    0.0000 C   0  0  2  0  0  0  0  0  0  0  0  0
    0.3883   -3.3550    0.0000 C   0  0  0  0  0  0  0  0  0  0  0  0
    0.1333   -4.1397    0.0000 C   0  0  0  0  0  0  0  0  0  0  0  0
   -0.6917   -4.1397    0.0000 C   0  0  0  0  0  0  0  0  0  0  0  0
   -0.9466   -3.3550    0.0000 N   0  0  0  0  0  0  0  0  0  0  0  0
   -1.7312   -3.1001    0.0000 C   0  0  0  0  0  0  0  0  0  0  0  0
   -1.9027   -2.2931    0.0000 O   0  0  0  0  0  0  0  0  0  0  0  0
   -2.3443   -3.6521    0.0000 C   0  0  0  0  0  0  0  0  0  0  0  0
   -3.1289   -3.3972    0.0000 N   0  0  0  0  0  0  0  0  0  0  0  0
   -3.7420   -3.9492    0.0000 C   0  0  2  0  0  0  0  0  0  0  0  0
   -3.6558   -4.7697    0.0000 C   0  0  0  0  0  0  0  0  0  0  0  0
   -4.4095   -5.1053    0.0000 C   0  0  0  0  0  0  0  0  0  0  0  0
   -4.9615   -4.4922    0.0000 N   0  0  0  0  0  0  0  0  0  0  0  0
   -4.5490   -3.7777    0.0000 C   0  0  0  0  0  0  0  0  0  0  0  0
   -0.9936   -1.6326    0.0000 O   0  0  0  0  0  0  0  0  0  0  0  0
    0.4353   -1.6326    0.0000 O   0  0  0  0  0  0  0  0  0  0  0  0
    0.6742   -2.3843    0.0000 H   0  0  0  0  0  0  0  0  0  0  0  0
    1.4059   -3.0243    0.0000 H   0  0  0  0  0  0  0  0  0  0  0  0
    1.1449   -4.1116    0.0000 H   0  0  0  0  0  0  0  0  0  0  0  0
    0.7622   -5.0054    0.0000 H   0  0  0  0  0  0  0  0  0  0  0  0
   -0.3525   -5.0931    0.0000 H   0  0  0  0  0  0  0  0  0  0  0  0
   -1.3207   -5.0053    0.0000 H   0  0  0  0  0  0  0  0  0  0  0  0
   -1.7485   -3.9723    0.0000 H   0  0  0  0  0  0  0  0  0  0  0  0
   -2.1218   -4.6987    0.0000 H   0  0  0  0  0  0  0  0  0  0  0  0
   -3.1395   -4.3681    0.0000 H   0  0  0  0  0  0  0  0  0  0  0  0
   -3.3410   -2.3995    0.0000 H   0  0  0  0  0  0  0  0  0  0  0  0
   -2.7431   -4.3327    0.0000 H   0  0  0  0  0  0  0  0  0  0  0  0
   -2.7292   -5.3047    0.0000 H   0  0  0  0  0  0  0  0  0  0  0  0
   -3.7118   -5.8382    0.0000 H   0  0  0  0  0  0  0  0  0  0  0  0
   -4.6320   -6.1519    0.0000 H   0  0  0  0  0  0  0  0  0  0  0  0
   -5.4430   -5.3822    0.0000 H   0  0  0  0  0  0  0  0  0  0  0  0
   -5.9759   -4.5988    0.0000 H   0  0  0  0  0  0  0  0  0  0  0  0
   -4.9842   -2.8002    0.0000 H   0  0  0  0  0  0  0  0  0  0  0  0
   -3.8757   -2.9461    0.0000 H   0  0  0  0  0  0  0  0  0  0  0  0
   -0.9936   -0.6626    0.0000 H   0  0  0  0  0  0  0  0  0  0  0  0
    1.2753   -2.1176    0.0000 H   0  0  0  0  0  0  0  0  0  0  0  0
  1 16  1  0  0  0  0
  1 17  1  0  0  0  0
  2  1  1  0  0  0  0
  2  3  1  0  0  0  0
  2  6  1  0  0  0  0
  2 18  1  1  0  0  0
  3  4  1  0  0  0  0
  3 19  1  0  0  0  0
  3 20  1  0  0  0  0
  4  5  1  0  0  0  0
  4 21  1  0  0  0  0
  4 22  1  0  0  0  0
  5  6  1  0  0  0  0
  5 23  1  0  0  0  0
  5 24  1  0  0  0  0
  6  7  1  0  0  0  0
  7  8  2  0  0  0  0
  7  9  1  0  0  0  0
  9 10  1  0  0  0  0
  9 25  1  0  0  0  0
  9 26  1  0  0  0  0
 10 27  1  0  0  0  0
 11 10  1  0  0  0  0
 11 12  1  0  0  0  0
 11 15  1  0  0  0  0
 11 28  1  1  0  0  0
 12 13  1  0  0  0  0
 12 29  1  0  0  0  0
 12 30  1  0  0  0  0
 13 14  1  0  0  0  0
 13 31  1  0  0  0  0
 13 32  1  0  0  0  0
 14 15  1  0  0  0  0
 14 33  1  0  0  0  0
 15 34  1  0  0  0  0
 15 35  1  0  0  0  0
 16 36  1  0  0  0  0
 17 37  1  0  0  0  0
M  END
>  <DRUGBANK_ID>
DB11723

>  <SECONDARY_ACCESSION_NUMBERS>
DB05065

>  <COMMON_NAME>
Dutogliptin

>  <CAS_NUMBER>
852329-66-9

>  <UNII>
38EAO245ZX

>  <SYNONYMS>
Dutogliptin

$$$$
