361
 OpenBabel10282417072D

 36 39  0  0  0  0  0  0  0  0999 V2000
   -3.4838   -0.6450    0.0000 F   0  0  0  0  0  0  0  0  0  0  0  0
   -2.9318   -0.0319    0.0000 C   0  0  0  0  0  0  0  0  0  0  0  0
   -3.1867    0.7527    0.0000 C   0  0  0  0  0  0  0  0  0  0  0  0
   -3.9937    0.9242    0.0000 F   0  0  0  0  0  0  0  0  0  0  0  0
   -2.1248   -0.2035    0.0000 C   0  0  0  0  0  0  0  0  0  0  0  0
   -1.5728    0.4096    0.0000 C   0  0  0  0  0  0  0  0  0  0  0  0
   -1.8277    1.1942    0.0000 C   0  0  0  0  0  0  0  0  0  0  0  0
   -1.2757    1.8073    0.0000 F   0  0  0  0  0  0  0  0  0  0  0  0
   -2.6347    1.3658    0.0000 C   0  0  0  0  0  0  0  0  0  0  0  0
   -0.7658    0.2381    0.0000 C   0  0  2  0  0  0  0  0  0  0  0  0
   -0.5109   -0.5465    0.0000 C   0  0  1  0  0  0  0  0  0  0  0  0
   -1.0629   -1.1596    0.0000 N   0  0  0  0  0  0  0  0  0  0  0  0
    0.2961   -0.7181    0.0000 C   0  0  0  0  0  0  0  0  0  0  0  0
    0.8481   -0.1050    0.0000 N   0  0  0  0  0  0  0  0  0  0  0  0
    1.6731   -0.1050    0.0000 C   0  0  0  0  0  0  0  0  0  0  0  0
    1.9281    0.6797    0.0000 C   0  0  0  0  0  0  0  0  0  0  0  0
    1.2606    1.1646    0.0000 N   0  0  0  0  0  0  0  0  0  0  0  0
    0.5932    0.6797    0.0000 C   0  0  0  0  0  0  0  0  0  0  0  0
   -0.2138    0.8512    0.0000 C   0  0  0  0  0  0  0  0  0  0  0  0
    2.7351    0.8512    0.0000 C   0  0  0  0  0  0  0  0  0  0  0  0
    3.2871    0.2381    0.0000 N   0  0  0  0  0  0  0  0  0  0  0  0
    3.0321   -0.5465    0.0000 C   0  0  0  0  0  0  0  0  0  0  0  0
    2.2252   -0.7181    0.0000 C   0  0  0  0  0  0  0  0  0  0  0  0
   -0.9845   -0.3033    0.0000 H   0  0  0  0  0  0  0  0  0  0  0  0
   -1.0891   -0.6278    0.0000 H   0  0  0  0  0  0  0  0  0  0  0  0
   -1.8059   -1.1850    0.0000 H   0  0  0  0  0  0  0  0  0  0  0  0
   -2.9536    2.3473    0.0000 H   0  0  0  0  0  0  0  0  0  0  0  0
   -2.0606   -0.9476    0.0000 H   0  0  0  0  0  0  0  0  0  0  0  0
   -0.7477   -2.1297    0.0000 H   0  0  0  0  0  0  0  0  0  0  0  0
    0.6267   -1.7357    0.0000 H   0  0  0  0  0  0  0  0  0  0  0  0
    1.3427   -0.9406    0.0000 H   0  0  0  0  0  0  0  0  0  0  0  0
   -0.5445    1.8688    0.0000 H   0  0  0  0  0  0  0  0  0  0  0  0
    0.5021    1.6464    0.0000 H   0  0  0  0  0  0  0  0  0  0  0  0
    3.0540    1.8327    0.0000 H   0  0  0  0  0  0  0  0  0  0  0  0
    3.7227   -1.3134    0.0000 H   0  0  0  0  0  0  0  0  0  0  0  0
    1.9064   -1.6996    0.0000 H   0  0  0  0  0  0  0  0  0  0  0  0
  1  2  1  0  0  0  0
  2  3  2  0  0  0  0
  2  5  1  0  0  0  0
  3  4  1  0  0  0  0
  3  9  1  0  0  0  0
  5  6  2  0  0  0  0
  5 26  1  0  0  0  0
  6  7  1  0  0  0  0
  7  8  1  0  0  0  0
  7  9  2  0  0  0  0
  9 27  1  0  0  0  0
 10  6  1  0  0  0  0
 10 11  1  0  0  0  0
 10 19  1  0  0  0  0
 10 24  1  6  0  0  0
 11 12  1  0  0  0  0
 11 13  1  0  0  0  0
 11 25  1  1  0  0  0
 12 28  1  0  0  0  0
 12 29  1  0  0  0  0
 13 14  1  0  0  0  0
 13 30  1  0  0  0  0
 13 31  1  0  0  0  0
 14 15  1  0  0  0  0
 14 18  1  0  0  0  0
 15 16  2  0  0  0  0
 15 23  1  0  0  0  0
 16 17  1  0  0  0  0
 16 20  1  0  0  0  0
 17 18  2  0  0  0  0
 18 19  1  0  0  0  0
 19 32  1  0  0  0  0
 19 33  1  0  0  0  0
 20 21  2  0  0  0  0
 20 34  1  0  0  0  0
 21 22  1  0  0  0  0
 22 23  2  0  0  0  0
 22 35  1  0  0  0  0
 23 36  1  0  0  0  0
M  END
>  <DRUGBANK_ID>
DB07021

>  <COMMON_NAME>
(7R,8R)-8-(2,4,5-trifluorophenyl)-6,7,8,9-tetrahydroimidazo[1,2-a:4,5-c']dipyridin-7-amine

$$$$
