
 OpenBabel10282417072D

 42 44  0  0  0  0  0  0  0  0999 V2000
   -1.4289    2.5536    0.0000 C   0  0  0  0  0  0  0  0  0  0  0  0
   -1.4289    1.7286    0.0000 N   0  0  0  0  0  0  0  0  0  0  0  0
   -2.1434    1.3161    0.0000 C   0  0  0  0  0  0  0  0  0  0  0  0
   -0.7144    1.3161    0.0000 C   0  0  0  0  0  0  0  0  0  0  0  0
   -0.7144    0.4911    0.0000 C   0  0  0  0  0  0  0  0  0  0  0  0
    0.0000    0.0786    0.0000 C   0  0  0  0  0  0  0  0  0  0  0  0
    0.0000   -0.7463    0.0000 C   0  0  0  0  0  0  0  0  0  0  0  0
    0.7432   -1.1043    0.0000 C   0  0  0  0  0  0  0  0  0  0  0  0
    1.3480   -0.5431    0.0000 C   0  0  0  0  0  0  0  0  0  0  0  0
    2.1363   -0.7863    0.0000 C   0  0  0  0  0  0  0  0  0  0  0  0
    2.3199   -1.5906    0.0000 C   0  0  0  0  0  0  0  0  0  0  0  0
    1.7151   -2.1518    0.0000 C   0  0  0  0  0  0  0  0  0  0  0  0
    0.9268   -1.9086    0.0000 C   0  0  0  0  0  0  0  0  0  0  0  0
    0.4124   -2.5536    0.0000 C   0  0  0  0  0  0  0  0  0  0  0  0
   -0.4125   -2.5536    0.0000 O   0  0  0  0  0  0  0  0  0  0  0  0
   -0.9269   -1.9086    0.0000 C   0  0  0  0  0  0  0  0  0  0  0  0
   -0.7433   -1.1043    0.0000 C   0  0  0  0  0  0  0  0  0  0  0  0
   -1.3481   -0.5431    0.0000 C   0  0  0  0  0  0  0  0  0  0  0  0
   -2.1364   -0.7863    0.0000 C   0  0  0  0  0  0  0  0  0  0  0  0
   -2.3199   -1.5906    0.0000 C   0  0  0  0  0  0  0  0  0  0  0  0
   -1.7152   -2.1518    0.0000 C   0  0  0  0  0  0  0  0  0  0  0  0
   -0.5023    3.0886    0.0000 H   0  0  0  0  0  0  0  0  0  0  0  0
   -2.3555    3.0886    0.0000 H   0  0  0  0  0  0  0  0  0  0  0  0
   -1.4289    3.6236    0.0000 H   0  0  0  0  0  0  0  0  0  0  0  0
   -3.0700    1.8511    0.0000 H   0  0  0  0  0  0  0  0  0  0  0  0
   -2.1434    0.2461    0.0000 H   0  0  0  0  0  0  0  0  0  0  0  0
   -3.0701    0.7811    0.0000 H   0  0  0  0  0  0  0  0  0  0  0  0
    0.2122    1.8511    0.0000 H   0  0  0  0  0  0  0  0  0  0  0  0
    0.2122    0.7811    0.0000 H   0  0  0  0  0  0  0  0  0  0  0  0
   -1.6411   -0.0439    0.0000 H   0  0  0  0  0  0  0  0  0  0  0  0
   -0.7144   -0.5789    0.0000 H   0  0  0  0  0  0  0  0  0  0  0  0
    0.8937    0.5946    0.0000 H   0  0  0  0  0  0  0  0  0  0  0  0
    1.1184    0.4630    0.0000 H   0  0  0  0  0  0  0  0  0  0  0  0
    2.8928   -0.0844    0.0000 H   0  0  0  0  0  0  0  0  0  0  0  0
    3.3061   -1.8948    0.0000 H   0  0  0  0  0  0  0  0  0  0  0  0
    1.9447   -3.1579    0.0000 H   0  0  0  0  0  0  0  0  0  0  0  0
    0.8766   -3.5176    0.0000 H   0  0  0  0  0  0  0  0  0  0  0  0
   -0.1569   -3.4596    0.0000 H   0  0  0  0  0  0  0  0  0  0  0  0
   -1.1185    0.4630    0.0000 H   0  0  0  0  0  0  0  0  0  0  0  0
   -2.8930   -0.0844    0.0000 H   0  0  0  0  0  0  0  0  0  0  0  0
   -3.3061   -1.8948    0.0000 H   0  0  0  0  0  0  0  0  0  0  0  0
   -1.9449   -3.1579    0.0000 H   0  0  0  0  0  0  0  0  0  0  0  0
  1  2  1  0  0  0  0
  1 22  1  0  0  0  0
  1 23  1  0  0  0  0
  1 24  1  0  0  0  0
  2  3  1  0  0  0  0
  2  4  1  0  0  0  0
  3 25  1  0  0  0  0
  3 26  1  0  0  0  0
  3 27  1  0  0  0  0
  4  5  1  0  0  0  0
  4 28  1  0  0  0  0
  4 29  1  0  0  0  0
  5  6  1  0  0  0  0
  5 30  1  0  0  0  0
  5 31  1  0  0  0  0
  6  7  2  0  0  0  0
  6 32  1  0  0  0  0
  7  8  1  0  0  0  0
  7 17  1  0  0  0  0
  8  9  2  0  0  0  0
  8 13  1  0  0  0  0
  9 10  1  0  0  0  0
  9 33  1  0  0  0  0
 10 11  2  0  0  0  0
 10 34  1  0  0  0  0
 11 12  1  0  0  0  0
 11 35  1  0  0  0  0
 12 13  2  0  0  0  0
 12 36  1  0  0  0  0
 13 14  1  0  0  0  0
 14 15  1  0  0  0  0
 14 37  1  0  0  0  0
 14 38  1  0  0  0  0
 15 16  1  0  0  0  0
 16 17  2  0  0  0  0
 16 21  1  0  0  0  0
 17 18  1  0  0  0  0
 18 19  2  0  0  0  0
 18 39  1  0  0  0  0
 19 20  1  0  0  0  0
 19 40  1  0  0  0  0
 20 21  2  0  0  0  0
 20 41  1  0  0  0  0
 21 42  1  0  0  0  0
M  END
>  <DRUGBANK_ID>
DB14750

>  <COMMON_NAME>
Cidoxepin

>  <CAS_NUMBER>
3607-18-9

>  <UNII>
F96TTB8728

>  <SYNONYMS>
(Z)-Doxepin; Cidoxepin; Cidoxepina; Cidoxepinum

$$$$
