
 OpenBabel10282417072D

 45 47  0  0  1  0  0  0  0  0999 V2000
    5.6654   -0.5339    0.0000 S   0  0  0  0  0  0  0  0  0  0  0  0
    9.3466   -2.3118    0.0000 S   0  0  0  0  0  0  0  0  0  0  0  0
    7.2100   -0.9498    0.0000 O   0  0  0  0  0  0  0  0  0  0  0  0
    7.7938    1.2916    0.0000 O   0  0  0  0  0  0  0  0  0  0  0  0
    3.5219    0.7036    0.0000 O   0  0  0  0  0  0  0  0  0  0  0  0
    4.9508    2.3537    0.0000 O   0  0  0  0  0  0  0  0  0  0  0  0
    8.0337   -1.5555    0.0000 O   0  0  0  0  0  0  0  0  0  0  0  0
    6.3798    2.3537    0.0000 O   0  0  0  0  0  0  0  0  0  0  0  0
    2.8075    1.9412    0.0000 O   0  0  0  0  0  0  0  0  0  0  0  0
    6.3798    0.7036    0.0000 N   0  0  0  0  0  0  0  0  0  0  0  0
    8.0367   -0.1265    0.0000 N   0  0  0  0  0  0  0  0  0  0  0  0
    2.0930    0.7036    0.0000 N   0  0  0  0  0  0  0  0  0  0  0  0
    7.2117   -0.1248    0.0000 C   0  0  2  0  0  0  0  0  0  0  0  0
    6.3798   -0.1214    0.0000 C   0  0  1  0  0  0  0  0  0  0  0  0
    7.2117    0.7070    0.0000 C   0  0  0  0  0  0  0  0  0  0  0  0
    5.6654    1.1161    0.0000 C   0  0  0  0  0  0  0  0  0  0  0  0
    4.9508    0.7036    0.0000 C   0  0  0  0  0  0  0  0  0  0  0  0
    4.9508   -0.1214    0.0000 C   0  0  0  0  0  0  0  0  0  0  0  0
    4.2364    1.1161    0.0000 C   0  0  0  0  0  0  0  0  0  0  0  0
    8.4477   -0.8418    0.0000 C   0  0  0  0  0  0  0  0  0  0  0  0
    5.6654    1.9412    0.0000 C   0  0  0  0  0  0  0  0  0  0  0  0
    6.4947   -1.3608    0.0000 C   0  0  0  0  0  0  0  0  0  0  0  0
    9.2727   -0.8436    0.0000 C   0  0  0  0  0  0  0  0  0  0  0  0
    9.6837   -1.5588    0.0000 C   0  0  0  0  0  0  0  0  0  0  0  0
   10.5040   -1.6468    0.0000 C   0  0  0  0  0  0  0  0  0  0  0  0
    2.8075    1.1161    0.0000 C   0  0  0  0  0  0  0  0  0  0  0  0
   10.6739   -2.4541    0.0000 C   0  0  0  0  0  0  0  0  0  0  0  0
    9.9586   -2.8652    0.0000 C   0  0  0  0  0  0  0  0  0  0  0  0
    6.5599   -0.7991    0.0000 H   0  0  0  0  0  0  0  0  0  0  0  0
    4.9507    3.2907    0.0000 H   0  0  0  0  0  0  0  0  0  0  0  0
    8.5307    0.7251    0.0000 H   0  0  0  0  0  0  0  0  0  0  0  0
    1.2404    1.1959    0.0000 H   0  0  0  0  0  0  0  0  0  0  0  0
    2.0930   -0.2809    0.0000 H   0  0  0  0  0  0  0  0  0  0  0  0
    4.0242   -0.6564    0.0000 H   0  0  0  0  0  0  0  0  0  0  0  0
    4.0241    0.4136    0.0000 H   0  0  0  0  0  0  0  0  0  0  0  0
    4.2364    2.1861    0.0000 H   0  0  0  0  0  0  0  0  0  0  0  0
    5.1631    1.6511    0.0000 H   0  0  0  0  0  0  0  0  0  0  0  0
    5.5692   -0.8239    0.0000 H   0  0  0  0  0  0  0  0  0  0  0  0
    6.4925   -2.4308    0.0000 H   0  0  0  0  0  0  0  0  0  0  0  0
    5.5669   -1.8939    0.0000 H   0  0  0  0  0  0  0  0  0  0  0  0
    9.8096    0.0819    0.0000 H   0  0  0  0  0  0  0  0  0  0  0  0
   10.3427   -0.8458    0.0000 H   0  0  0  0  0  0  0  0  0  0  0  0
   11.1961   -0.8813    0.0000 H   0  0  0  0  0  0  0  0  0  0  0  0
   11.6158   -2.8757    0.0000 H   0  0  0  0  0  0  0  0  0  0  0  0
    9.8486   -3.8913    0.0000 H   0  0  0  0  0  0  0  0  0  0  0  0
  1 14  1  0  0  0  0
  1 18  1  0  0  0  0
  2 24  1  0  0  0  0
  2 28  1  0  0  0  0
  3 22  1  0  0  0  0
  4 15  2  0  0  0  0
  5 19  1  0  0  0  0
  5 26  1  0  0  0  0
  6 21  1  0  0  0  0
  6 30  1  0  0  0  0
  7 20  2  0  0  0  0
  8 21  2  0  0  0  0
  9 26  2  0  0  0  0
 10 14  1  0  0  0  0
 10 15  1  0  0  0  0
 10 16  1  0  0  0  0
 11 13  1  0  0  0  0
 11 20  1  0  0  0  0
 11 31  1  0  0  0  0
 12 26  1  0  0  0  0
 12 32  1  0  0  0  0
 12 33  1  0  0  0  0
 13  3  1  6  0  0  0
 13 14  1  0  0  0  0
 13 15  1  0  0  0  0
 14 29  1  6  0  0  0
 16 17  2  0  0  0  0
 16 21  1  0  0  0  0
 17 18  1  0  0  0  0
 17 19  1  0  0  0  0
 18 34  1  0  0  0  0
 18 35  1  0  0  0  0
 19 36  1  0  0  0  0
 19 37  1  0  0  0  0
 20 23  1  0  0  0  0
 22 38  1  0  0  0  0
 22 39  1  0  0  0  0
 22 40  1  0  0  0  0
 23 24  1  0  0  0  0
 23 41  1  0  0  0  0
 23 42  1  0  0  0  0
 24 25  2  0  0  0  0
 25 27  1  0  0  0  0
 25 43  1  0  0  0  0
 27 28  2  0  0  0  0
 27 44  1  0  0  0  0
 28 45  1  0  0  0  0
M  END
>  <DRUGBANK_ID>
DB01331

>  <SECONDARY_ACCESSION_NUMBERS>
EXPT00897

>  <COMMON_NAME>
Cefoxitin

>  <CAS_NUMBER>
35607-66-0

>  <UNII>
6OEV9DX57Y

>  <SYNONYMS>
(6R,7S)-4-[(carbamoyloxy)methyl]-7-methoxy-8-oxo-7-[(thiophen-2-enyl)acetamido]-5-thia-1-azabicyclo[4.2.0]oct-2-ene-2-carboxylic acid; Cefoxitin; Cefoxitina; Cefoxitine; Cefoxitinum; Ceftoxitin; Cephoxitin; CFX; Rephoxitin

$$$$
