531
 OpenBabel10282417072D

 29 29  0  0  1  0  0  0  0  0999 V2000
    1.6500   -0.8250    0.0000 Cl  0  0  0  0  0  0  0  0  0  0  0  0
    4.1251   -2.2540    0.0000 Cl  0  0  0  0  0  0  0  0  0  0  0  0
    4.1251    0.6040    0.0000 P   0  0  3  0  0  0  0  0  0  0  0  0
    4.8396    1.0165    0.0000 O   0  0  0  0  0  0  0  0  0  0  0  0
    4.5376   -0.1106    0.0000 O   0  0  0  0  0  0  0  0  0  0  0  0
    3.7126   -0.1106    0.0000 N   0  0  0  0  0  0  0  0  0  0  0  0
    3.4106    1.0165    0.0000 N   0  0  0  0  0  0  0  0  0  0  0  0
    3.4106    1.8415    0.0000 C   0  0  0  0  0  0  0  0  0  0  0  0
    4.1251    2.2540    0.0000 C   0  0  0  0  0  0  0  0  0  0  0  0
    4.8396    1.8415    0.0000 C   0  0  0  0  0  0  0  0  0  0  0  0
    2.8876   -0.1106    0.0000 C   0  0  0  0  0  0  0  0  0  0  0  0
    4.1251   -0.8250    0.0000 C   0  0  0  0  0  0  0  0  0  0  0  0
    2.4751   -0.8250    0.0000 C   0  0  0  0  0  0  0  0  0  0  0  0
    3.7126   -1.5395    0.0000 C   0  0  0  0  0  0  0  0  0  0  0  0
    2.5273    0.5065    0.0000 H   0  0  0  0  0  0  0  0  0  0  0  0
    2.4840    2.3765    0.0000 H   0  0  0  0  0  0  0  0  0  0  0  0
    3.4106    2.9115    0.0000 H   0  0  0  0  0  0  0  0  0  0  0  0
    4.1251    3.3240    0.0000 H   0  0  0  0  0  0  0  0  0  0  0  0
    5.0517    2.7890    0.0000 H   0  0  0  0  0  0  0  0  0  0  0  0
    5.7662    2.3765    0.0000 H   0  0  0  0  0  0  0  0  0  0  0  0
    4.8396    2.9115    0.0000 H   0  0  0  0  0  0  0  0  0  0  0  0
    2.3526    0.8161    0.0000 H   0  0  0  0  0  0  0  0  0  0  0  0
    1.8176   -0.1106    0.0000 H   0  0  0  0  0  0  0  0  0  0  0  0
    5.1951   -0.8250    0.0000 H   0  0  0  0  0  0  0  0  0  0  0  0
    4.6601   -1.7516    0.0000 H   0  0  0  0  0  0  0  0  0  0  0  0
    3.0101   -1.7517    0.0000 H   0  0  0  0  0  0  0  0  0  0  0  0
    3.5451   -0.8250    0.0000 H   0  0  0  0  0  0  0  0  0  0  0  0
    2.6426   -1.5395    0.0000 H   0  0  0  0  0  0  0  0  0  0  0  0
    3.1776   -0.6129    0.0000 H   0  0  0  0  0  0  0  0  0  0  0  0
  1 13  1  0  0  0  0
  2 14  1  0  0  0  0
  3  4  1  0  0  0  0
  3  5  2  0  0  0  0
  3  6  1  0  0  0  0
  3  7  1  0  0  0  0
  4 10  1  0  0  0  0
  6 11  1  0  0  0  0
  6 12  1  0  0  0  0
  7  8  1  0  0  0  0
  7 15  1  0  0  0  0
  8  9  1  0  0  0  0
  8 16  1  0  0  0  0
  8 17  1  0  0  0  0
  9 10  1  0  0  0  0
  9 18  1  0  0  0  0
  9 19  1  0  0  0  0
 10 20  1  0  0  0  0
 10 21  1  0  0  0  0
 11 13  1  0  0  0  0
 11 22  1  0  0  0  0
 11 23  1  0  0  0  0
 12 14  1  0  0  0  0
 12 24  1  0  0  0  0
 12 25  1  0  0  0  0
 13 26  1  0  0  0  0
 13 27  1  0  0  0  0
 14 28  1  0  0  0  0
 14 29  1  0  0  0  0
M  END
>  <DRUGBANK_ID>
DB00531

>  <SECONDARY_ACCESSION_NUMBERS>
APRD00408

>  <COMMON_NAME>
Cyclophosphamide

>  <CAS_NUMBER>
50-18-0

>  <UNII>
6UXW23996M

>  <SYNONYMS>
(+-)-Cyclophosphamide; (Â±)-2-(BIS(2-CHLOROETHYL)AMINO)TETRAHYDRO-2H-1,3,2-OXAZAPHOSPHORINE 2-OXIDE MONOHYDRATE; (RS)-Cyclophosphamide; 2-[Bis(2-chloroethylamino)]-tetrahydro-2H-1,3,2-oxazaphosphorine-2-oxide; Anhydrous cyclophosphamide; Bis(2-chloroethyl)phosphoramide cyclic propanolamide ester; Ciclofosfamida; Ciclofosfamide; Cyclophosphamid; Cyclophosphamide; Cyclophosphamide anhydrous; Cyclophosphamidum; Cytophosphane; N,N-Bis(2-chloroethyl)tetrahydro-2H-1,3,2-oxazaphosphorin-2-amine 2-oxide

$$$$
