
 OpenBabel10282417072D

 15 14  0  0  0  0  0  0  0  0999 V2000
    0.0000   -0.4125    0.0000 C   0  0  0  0  0  0  0  0  0  0  0  0
    0.7144    0.0000    0.0000 P   0  0  0  0  0  0  0  0  0  0  0  0
    1.4289   -0.4125    0.0000 O   0  0  0  0  0  0  0  0  0  0  0  0
    0.7144    0.8250    0.0000 O   0  0  0  0  0  0  0  0  0  0  0  0
   -0.7144    0.0000    0.0000 P   0  0  0  0  0  0  0  0  0  0  0  0
   -1.4289   -0.4125    0.0000 O   0  0  0  0  0  0  0  0  0  0  0  0
   -0.7144    0.8250    0.0000 O   0  0  0  0  0  0  0  0  0  0  0  0
   -0.7144   -0.8250    0.0000 O   0  0  0  0  0  0  0  0  0  0  0  0
    0.7144   -0.8250    0.0000 O   0  0  0  0  0  0  0  0  0  0  0  0
    0.0000   -1.4825    0.0000 H   0  0  0  0  0  0  0  0  0  0  0  0
   -0.9267   -0.9475    0.0000 H   0  0  0  0  0  0  0  0  0  0  0  0
    1.4289   -1.3825    0.0000 H   0  0  0  0  0  0  0  0  0  0  0  0
   -2.2689    0.0725    0.0000 H   0  0  0  0  0  0  0  0  0  0  0  0
   -1.5544   -1.3100    0.0000 H   0  0  0  0  0  0  0  0  0  0  0  0
   -0.1256   -1.3100    0.0000 H   0  0  0  0  0  0  0  0  0  0  0  0
  1  2  1  0  0  0  0
  1  5  1  0  0  0  0
  1 10  1  0  0  0  0
  1 11  1  0  0  0  0
  2  3  1  0  0  0  0
  2  4  2  0  0  0  0
  2  9  1  0  0  0  0
  3 12  1  0  0  0  0
  5  6  1  0  0  0  0
  5  7  2  0  0  0  0
  5  8  1  0  0  0  0
  6 13  1  0  0  0  0
  8 14  1  0  0  0  0
  9 15  1  0  0  0  0
M  END
>  <DRUGBANK_ID>
DB14078

>  <COMMON_NAME>
Medronic acid

>  <CAS_NUMBER>
1984-15-2

>  <UNII>
73OS0QIN3O

>  <SYNONYMS>
Acide medronique; Acido medronico; Acidum medronicum; Medronate; Medronic acid; methanebisphosphonic acid; methanediphosphonic acid; methanediylbis(phosphonic acid); Methylene-1,1-bisphosphonic acid; Methylenediphosphonic acid

$$$$
