
 OpenBabel10282417072D

 73 77  0  0  1  0  0  0  0  0999 V2000
    6.4302    3.7125    0.0000 C   0  0  0  0  0  0  0  0  0  0  0  0
    6.4302    4.5375    0.0000 O   0  0  0  0  0  0  0  0  0  0  0  0
    7.1447    4.9500    0.0000 C   0  0  0  0  0  0  0  0  0  0  0  0
    7.1447    5.7750    0.0000 O   0  0  0  0  0  0  0  0  0  0  0  0
    7.8592    4.5375    0.0000 C   0  0  1  0  0  0  0  0  0  0  0  0
    7.8592    3.7125    0.0000 C   0  0  0  0  0  0  0  0  0  0  0  0
    8.5737    3.3000    0.0000 C   0  0  0  0  0  0  0  0  0  0  0  0
    8.5737    2.4750    0.0000 C   0  0  0  0  0  0  0  0  0  0  0  0
    7.8592    2.0625    0.0000 C   0  0  0  0  0  0  0  0  0  0  0  0
    7.1447    2.4750    0.0000 C   0  0  0  0  0  0  0  0  0  0  0  0
    7.1447    3.3000    0.0000 C   0  0  0  0  0  0  0  0  0  0  0  0
    8.5737    4.9500    0.0000 N   0  0  0  0  0  0  0  0  0  0  0  0
    8.5737    5.7750    0.0000 C   0  0  0  0  0  0  0  0  0  0  0  0
    9.2881    6.1875    0.0000 C   0  0  0  0  0  0  0  0  0  0  0  0
   10.0026    5.7750    0.0000 C   0  0  3  0  0  0  0  0  0  0  0  0
   10.0026    4.9500    0.0000 C   0  0  0  0  0  0  0  0  0  0  0  0
    9.2881    4.5375    0.0000 C   0  0  0  0  0  0  0  0  0  0  0  0
   10.7171    6.1875    0.0000 C   0  0  0  0  0  0  0  0  0  0  0  0
   10.7171    7.0125    0.0000 C   0  0  0  0  0  0  0  0  0  0  0  0
   11.4315    7.4250    0.0000 C   0  0  0  0  0  0  0  0  0  0  0  0
   12.1460    7.0125    0.0000 C   0  0  0  0  0  0  0  0  0  0  0  0
   12.1460    6.1875    0.0000 C   0  0  0  0  0  0  0  0  0  0  0  0
   11.4315    5.7750    0.0000 C   0  0  0  0  0  0  0  0  0  0  0  0
   12.8605    7.4250    0.0000 N   0  0  0  0  0  0  0  0  0  0  0  0
   13.5749    7.0125    0.0000 C   0  0  0  0  0  0  0  0  0  0  0  0
   13.5749    6.1875    0.0000 O   0  0  0  0  0  0  0  0  0  0  0  0
   14.2894    7.4250    0.0000 C   0  0  0  0  0  0  0  0  0  0  0  0
   14.2894    8.2500    0.0000 C   0  0  0  0  0  0  0  0  0  0  0  0
   15.0039    8.6625    0.0000 C   0  0  0  0  0  0  0  0  0  0  0  0
   15.7184    8.2500    0.0000 C   0  0  0  0  0  0  0  0  0  0  0  0
   15.7184    7.4250    0.0000 C   0  0  0  0  0  0  0  0  0  0  0  0
   15.0039    7.0125    0.0000 C   0  0  0  0  0  0  0  0  0  0  0  0
   15.0039    6.1875    0.0000 C   0  0  0  0  0  0  0  0  0  0  0  0
   15.7184    5.7750    0.0000 C   0  0  0  0  0  0  0  0  0  0  0  0
   15.7184    4.9500    0.0000 C   0  0  0  0  0  0  0  0  0  0  0  0
   15.0039    4.5375    0.0000 C   0  0  0  0  0  0  0  0  0  0  0  0
   14.2894    4.9500    0.0000 C   0  0  0  0  0  0  0  0  0  0  0  0
   14.2894    5.7750    0.0000 C   0  0  0  0  0  0  0  0  0  0  0  0
   15.0039    3.7125    0.0000 C   0  0  0  0  0  0  0  0  0  0  0  0
   15.0039    2.8875    0.0000 F   0  0  0  0  0  0  0  0  0  0  0  0
   14.1789    3.7125    0.0000 F   0  0  0  0  0  0  0  0  0  0  0  0
   15.8289    3.7125    0.0000 F   0  0  0  0  0  0  0  0  0  0  0  0
    5.5036    3.1775    0.0000 H   0  0  0  0  0  0  0  0  0  0  0  0
    7.3568    3.1775    0.0000 H   0  0  0  0  0  0  0  0  0  0  0  0
    6.4302    2.6425    0.0000 H   0  0  0  0  0  0  0  0  0  0  0  0
    6.9326    4.0025    0.0000 H   0  0  0  0  0  0  0  0  0  0  0  0
    9.4674    3.8160    0.0000 H   0  0  0  0  0  0  0  0  0  0  0  0
    9.4674    1.9590    0.0000 H   0  0  0  0  0  0  0  0  0  0  0  0
    7.8592    1.0305    0.0000 H   0  0  0  0  0  0  0  0  0  0  0  0
    6.2510    1.9590    0.0000 H   0  0  0  0  0  0  0  0  0  0  0  0
    6.2510    3.8160    0.0000 H   0  0  0  0  0  0  0  0  0  0  0  0
    7.6470    6.3100    0.0000 H   0  0  0  0  0  0  0  0  0  0  0  0
    8.5737    6.8450    0.0000 H   0  0  0  0  0  0  0  0  0  0  0  0
    9.2881    7.2575    0.0000 H   0  0  0  0  0  0  0  0  0  0  0  0
   10.2147    6.7225    0.0000 H   0  0  0  0  0  0  0  0  0  0  0  0
    9.0760    5.2400    0.0000 H   0  0  0  0  0  0  0  0  0  0  0  0
   10.9292    4.4150    0.0000 H   0  0  0  0  0  0  0  0  0  0  0  0
   10.0026    3.8800    0.0000 H   0  0  0  0  0  0  0  0  0  0  0  0
    9.2881    3.4675    0.0000 H   0  0  0  0  0  0  0  0  0  0  0  0
    8.3614    4.0025    0.0000 H   0  0  0  0  0  0  0  0  0  0  0  0
    9.8234    7.5285    0.0000 H   0  0  0  0  0  0  0  0  0  0  0  0
   11.4315    8.4570    0.0000 H   0  0  0  0  0  0  0  0  0  0  0  0
   13.0397    5.6715    0.0000 H   0  0  0  0  0  0  0  0  0  0  0  0
   11.4315    4.7430    0.0000 H   0  0  0  0  0  0  0  0  0  0  0  0
   12.8605    8.4095    0.0000 H   0  0  0  0  0  0  0  0  0  0  0  0
   13.3957    8.7660    0.0000 H   0  0  0  0  0  0  0  0  0  0  0  0
   15.0039    9.6945    0.0000 H   0  0  0  0  0  0  0  0  0  0  0  0
   16.6121    8.7660    0.0000 H   0  0  0  0  0  0  0  0  0  0  0  0
   16.6121    6.9090    0.0000 H   0  0  0  0  0  0  0  0  0  0  0  0
   16.6121    6.2910    0.0000 H   0  0  0  0  0  0  0  0  0  0  0  0
   16.6121    4.4340    0.0000 H   0  0  0  0  0  0  0  0  0  0  0  0
   13.3957    4.4340    0.0000 H   0  0  0  0  0  0  0  0  0  0  0  0
   13.3957    6.2910    0.0000 H   0  0  0  0  0  0  0  0  0  0  0  0
  1  2  1  0  0  0  0
  1 43  1  0  0  0  0
  1 44  1  0  0  0  0
  1 45  1  0  0  0  0
  2  3  1  0  0  0  0
  3  4  2  0  0  0  0
  5  3  1  0  0  0  0
  5  6  1  0  0  0  0
  5 12  1  0  0  0  0
  5 46  1  1  0  0  0
  6  7  2  0  0  0  0
  6 11  1  0  0  0  0
  7  8  1  0  0  0  0
  7 47  1  0  0  0  0
  8  9  2  0  0  0  0
  8 48  1  0  0  0  0
  9 10  1  0  0  0  0
  9 49  1  0  0  0  0
 10 11  2  0  0  0  0
 10 50  1  0  0  0  0
 11 51  1  0  0  0  0
 12 13  1  0  0  0  0
 12 17  1  0  0  0  0
 13 14  1  0  0  0  0
 13 52  1  0  0  0  0
 13 53  1  0  0  0  0
 14 15  1  0  0  0  0
 14 54  1  0  0  0  0
 14 55  1  0  0  0  0
 15 16  1  0  0  0  0
 15 18  1  0  0  0  0
 15 56  1  0  0  0  0
 16 17  1  0  0  0  0
 16 57  1  0  0  0  0
 16 58  1  0  0  0  0
 17 59  1  0  0  0  0
 17 60  1  0  0  0  0
 18 19  2  0  0  0  0
 18 23  1  0  0  0  0
 19 20  1  0  0  0  0
 19 61  1  0  0  0  0
 20 21  2  0  0  0  0
 20 62  1  0  0  0  0
 21 22  1  0  0  0  0
 21 24  1  0  0  0  0
 22 23  2  0  0  0  0
 22 63  1  0  0  0  0
 23 64  1  0  0  0  0
 24 25  1  0  0  0  0
 24 65  1  0  0  0  0
 25 26  2  0  0  0  0
 25 27  1  0  0  0  0
 27 28  2  0  0  0  0
 27 32  1  0  0  0  0
 28 29  1  0  0  0  0
 28 66  1  0  0  0  0
 29 30  2  0  0  0  0
 29 67  1  0  0  0  0
 30 31  1  0  0  0  0
 30 68  1  0  0  0  0
 31 32  2  0  0  0  0
 31 69  1  0  0  0  0
 32 33  1  0  0  0  0
 33 34  2  0  0  0  0
 33 38  1  0  0  0  0
 34 35  1  0  0  0  0
 34 70  1  0  0  0  0
 35 36  2  0  0  0  0
 35 71  1  0  0  0  0
 36 37  1  0  0  0  0
 36 39  1  0  0  0  0
 37 38  2  0  0  0  0
 37 72  1  0  0  0  0
 38 73  1  0  0  0  0
 39 40  1  0  0  0  0
 39 41  1  0  0  0  0
 39 42  1  0  0  0  0
M  END
>  <DRUGBANK_ID>
DB12414

>  <COMMON_NAME>
Usistapide

>  <CAS_NUMBER>
403989-79-7

>  <UNII>
73YSY3U094

>  <SYNONYMS>
Usistapide

$$$$
