SN2
 OpenBabel10282417072D

 34 34  0  0  0  0  0  0  0  0999 V2000
    0.5215   -0.0670    0.0000 C   0  0  0  0  0  0  0  0  0  0  0  0
   -0.1930    0.3455    0.0000 C   0  0  0  0  0  0  0  0  0  0  0  0
   -0.1930    1.1705    0.0000 C   0  0  0  0  0  0  0  0  0  0  0  0
    0.5215    1.5830    0.0000 C   0  0  0  0  0  0  0  0  0  0  0  0
    1.2360    1.1705    0.0000 C   0  0  0  0  0  0  0  0  0  0  0  0
    1.2360    0.3455    0.0000 C   0  0  0  0  0  0  0  0  0  0  0  0
   -0.1930   -1.3045    0.0000 C   0  0  0  0  0  0  0  0  0  0  0  0
    1.2360   -1.3045    0.0000 C   0  0  0  0  0  0  0  0  0  0  0  0
   -0.1930   -2.1295    0.0000 C   0  0  0  0  0  0  0  0  0  0  0  0
    1.2360   -2.1295    0.0000 C   0  0  0  0  0  0  0  0  0  0  0  0
   -0.9074    1.5830    0.0000 C   0  0  0  0  0  0  0  0  0  0  0  0
    1.2360    2.8205    0.0000 O   0  5  0  0  0  0  0  0  0  0  0  0
    2.6649    0.3455    0.0000 O   0  0  0  0  0  0  0  0  0  0  0  0
   -0.1930    2.8205    0.0000 O   0  0  0  0  0  0  0  0  0  0  0  0
   -0.9074    2.4080    0.0000 O   0  0  0  0  0  0  0  0  0  0  0  0
    1.9504   -0.8920    0.0000 O   0  5  0  0  0  0  0  0  0  0  0  0
    0.5215    2.4080    0.0000 N   0  3  0  0  0  0  0  0  0  0  0  0
    1.9504   -0.0670    0.0000 N   0  3  0  0  0  0  0  0  0  0  0  0
    0.5215   -0.8920    0.0000 N   0  0  0  0  0  0  0  0  0  0  0  0
   -1.6219    1.1705    0.0000 N   0  0  0  0  0  0  0  0  0  0  0  0
    1.9504   -2.5420    0.0000 Cl  0  0  0  0  0  0  0  0  0  0  0  0
   -0.9074   -2.5420    0.0000 Cl  0  0  0  0  0  0  0  0  0  0  0  0
   -1.0867   -0.1705    0.0000 H   0  0  0  0  0  0  0  0  0  0  0  0
    2.1297    1.6865    0.0000 H   0  0  0  0  0  0  0  0  0  0  0  0
   -1.1196   -0.7695    0.0000 H   0  0  0  0  0  0  0  0  0  0  0  0
   -0.1930   -0.2345    0.0000 H   0  0  0  0  0  0  0  0  0  0  0  0
    2.1626   -0.7695    0.0000 H   0  0  0  0  0  0  0  0  0  0  0  0
    1.2360   -0.2345    0.0000 H   0  0  0  0  0  0  0  0  0  0  0  0
    0.7337   -2.6645    0.0000 H   0  0  0  0  0  0  0  0  0  0  0  0
   -0.1930   -3.1995    0.0000 H   0  0  0  0  0  0  0  0  0  0  0  0
    0.3093   -2.6645    0.0000 H   0  0  0  0  0  0  0  0  0  0  0  0
    1.2360   -3.1995    0.0000 H   0  0  0  0  0  0  0  0  0  0  0  0
   -2.4745    1.6628    0.0000 H   0  0  0  0  0  0  0  0  0  0  0  0
   -1.6219    0.1860    0.0000 H   0  0  0  0  0  0  0  0  0  0  0  0
  1  2  2  0  0  0  0
  1  6  1  0  0  0  0
  1 19  1  0  0  0  0
  2  3  1  0  0  0  0
  2 23  1  0  0  0  0
  3  4  2  0  0  0  0
  3 11  1  0  0  0  0
  4  5  1  0  0  0  0
  4 17  1  0  0  0  0
  5  6  2  0  0  0  0
  5 24  1  0  0  0  0
  6 18  1  0  0  0  0
  7  9  1  0  0  0  0
  7 19  1  0  0  0  0
  7 25  1  0  0  0  0
  7 26  1  0  0  0  0
  8 10  1  0  0  0  0
  8 19  1  0  0  0  0
  8 27  1  0  0  0  0
  8 28  1  0  0  0  0
  9 22  1  0  0  0  0
  9 29  1  0  0  0  0
  9 30  1  0  0  0  0
 10 21  1  0  0  0  0
 10 31  1  0  0  0  0
 10 32  1  0  0  0  0
 11 15  2  0  0  0  0
 11 20  1  0  0  0  0
 12 17  1  0  0  0  0
 13 18  2  0  0  0  0
 14 17  2  0  0  0  0
 16 18  1  0  0  0  0
 20 33  1  0  0  0  0
 20 34  1  0  0  0  0
M  CHG  4  12  -1  16  -1  17   1  18   1
M  END
>  <DRUGBANK_ID>
DB03228

>  <SECONDARY_ACCESSION_NUMBERS>
EXPT02926

>  <COMMON_NAME>
5-[Bis-2(Chloro-Ethyl)-Amino]-2,4-Dintro-Benzamide

>  <UNII>
EB8R4ME372

$$$$
