COG
 OpenBabel10282417072D

 46 48  0  0  0  0  0  0  0  0999 V2000
   -3.5803   -1.3296    0.0000 C   0  0  0  0  0  0  0  0  0  0  0  0
   -2.8658   -0.0921    0.0000 C   0  0  0  0  0  0  0  0  0  0  0  0
   -2.1513   -0.5046    0.0000 C   0  0  0  0  0  0  0  0  0  0  0  0
   -1.4368   -0.0921    0.0000 C   0  0  0  0  0  0  0  0  0  0  0  0
   -0.7224   -0.5046    0.0000 C   0  0  0  0  0  0  0  0  0  0  0  0
   -0.7224   -1.3296    0.0000 C   0  0  0  0  0  0  0  0  0  0  0  0
   -2.1513   -1.3296    0.0000 C   0  0  0  0  0  0  0  0  0  0  0  0
    0.7066    1.9704    0.0000 C   0  0  0  0  0  0  0  0  0  0  0  0
    0.7066   -0.5046    0.0000 C   0  0  0  0  0  0  0  0  0  0  0  0
   -0.0079    0.7329    0.0000 C   0  0  0  0  0  0  0  0  0  0  0  0
    1.4210   -0.0921    0.0000 C   0  0  0  0  0  0  0  0  0  0  0  0
    1.4210    0.7329    0.0000 C   0  0  0  0  0  0  0  0  0  0  0  0
    2.1355    1.1454    0.0000 C   0  0  0  0  0  0  0  0  0  0  0  0
    2.8500    0.7329    0.0000 C   0  0  0  0  0  0  0  0  0  0  0  0
    2.8500   -0.0921    0.0000 C   0  0  0  0  0  0  0  0  0  0  0  0
    4.2789   -0.0921    0.0000 C   0  0  0  0  0  0  0  0  0  0  0  0
    2.1355   -0.5046    0.0000 C   0  0  0  0  0  0  0  0  0  0  0  0
   -2.8658   -1.7421    0.0000 N   0  0  0  0  0  0  0  0  0  0  0  0
   -4.2947   -1.7421    0.0000 N   0  0  0  0  0  0  0  0  0  0  0  0
   -3.5803   -0.5046    0.0000 N   0  0  0  0  0  0  0  0  0  0  0  0
   -2.8658    0.7329    0.0000 N   0  0  0  0  0  0  0  0  0  0  0  0
   -1.4368   -1.7421    0.0000 C   0  0  0  0  0  0  0  0  0  0  0  0
    0.7066    1.1454    0.0000 O   0  0  0  0  0  0  0  0  0  0  0  0
    3.5645   -0.5046    0.0000 O   0  0  0  0  0  0  0  0  0  0  0  0
   -0.0079   -0.0921    0.0000 N   0  0  0  0  0  0  0  0  0  0  0  0
   -1.4368    0.9399    0.0000 H   0  0  0  0  0  0  0  0  0  0  0  0
    0.1713   -1.8456    0.0000 H   0  0  0  0  0  0  0  0  0  0  0  0
    1.6332    2.5054    0.0000 H   0  0  0  0  0  0  0  0  0  0  0  0
   -0.2200    2.5054    0.0000 H   0  0  0  0  0  0  0  0  0  0  0  0
    0.7066    3.0404    0.0000 H   0  0  0  0  0  0  0  0  0  0  0  0
    0.7066   -1.5746    0.0000 H   0  0  0  0  0  0  0  0  0  0  0  0
   -0.2200   -1.0396    0.0000 H   0  0  0  0  0  0  0  0  0  0  0  0
    0.9187    1.2679    0.0000 H   0  0  0  0  0  0  0  0  0  0  0  0
   -0.9345    1.2679    0.0000 H   0  0  0  0  0  0  0  0  0  0  0  0
   -0.0079    1.8029    0.0000 H   0  0  0  0  0  0  0  0  0  0  0  0
    2.1355    2.1774    0.0000 H   0  0  0  0  0  0  0  0  0  0  0  0
    3.7437    1.2489    0.0000 H   0  0  0  0  0  0  0  0  0  0  0  0
    5.2056   -0.6271    0.0000 H   0  0  0  0  0  0  0  0  0  0  0  0
    4.2789    0.9779    0.0000 H   0  0  0  0  0  0  0  0  0  0  0  0
    5.2055    0.4429    0.0000 H   0  0  0  0  0  0  0  0  0  0  0  0
    2.1355   -1.5366    0.0000 H   0  0  0  0  0  0  0  0  0  0  0  0
   -5.1473   -1.2499    0.0000 H   0  0  0  0  0  0  0  0  0  0  0  0
   -4.2947   -2.7266    0.0000 H   0  0  0  0  0  0  0  0  0  0  0  0
   -2.0132    1.2252    0.0000 H   0  0  0  0  0  0  0  0  0  0  0  0
   -3.7184    1.2251    0.0000 H   0  0  0  0  0  0  0  0  0  0  0  0
   -1.4368   -2.7741    0.0000 H   0  0  0  0  0  0  0  0  0  0  0  0
  1 18  2  0  0  0  0
  1 19  1  0  0  0  0
  1 20  1  0  0  0  0
  2  3  1  0  0  0  0
  2 20  2  0  0  0  0
  2 21  1  0  0  0  0
  3  4  2  0  0  0  0
  3  7  1  0  0  0  0
  4  5  1  0  0  0  0
  4 26  1  0  0  0  0
  5  6  2  0  0  0  0
  5 25  1  0  0  0  0
  6 22  1  0  0  0  0
  6 27  1  0  0  0  0
  7 18  1  0  0  0  0
  7 22  2  0  0  0  0
  8 23  1  0  0  0  0
  8 28  1  0  0  0  0
  8 29  1  0  0  0  0
  8 30  1  0  0  0  0
  9 11  1  0  0  0  0
  9 25  1  0  0  0  0
  9 31  1  0  0  0  0
  9 32  1  0  0  0  0
 10 25  1  0  0  0  0
 10 33  1  0  0  0  0
 10 34  1  0  0  0  0
 10 35  1  0  0  0  0
 11 12  2  0  0  0  0
 11 17  1  0  0  0  0
 12 13  1  0  0  0  0
 12 23  1  0  0  0  0
 13 14  2  0  0  0  0
 13 36  1  0  0  0  0
 14 15  1  0  0  0  0
 14 37  1  0  0  0  0
 15 17  2  0  0  0  0
 15 24  1  0  0  0  0
 16 24  1  0  0  0  0
 16 38  1  0  0  0  0
 16 39  1  0  0  0  0
 16 40  1  0  0  0  0
 17 41  1  0  0  0  0
 19 42  1  0  0  0  0
 19 43  1  0  0  0  0
 21 44  1  0  0  0  0
 21 45  1  0  0  0  0
 22 46  1  0  0  0  0
M  END
>  <DRUGBANK_ID>
DB02427

>  <SECONDARY_ACCESSION_NUMBERS>
EXPT00983

>  <COMMON_NAME>
2,4-Diamino-6-[N-(2',5'-Dimethoxybenzyl)-N-Methylamino]Quinazoline

$$$$
