
 OpenBabel10282417072D

 41 43  0  0  0  0  0  0  0  0999 V2000
   -1.1361   -0.2814    0.0000 C   0  0  0  0  0  0  0  0  0  0  0  0
   -1.8887    0.0562    0.0000 C   0  0  0  0  0  0  0  0  0  0  0  0
   -1.9726    0.8769    0.0000 C   0  0  0  0  0  0  0  0  0  0  0  0
   -1.3038    1.3599    0.0000 C   0  0  0  0  0  0  0  0  0  0  0  0
   -1.1723    2.1744    0.0000 N   0  0  0  0  0  0  0  0  0  0  0  0
   -0.3515    2.2582    0.0000 C   0  0  0  0  0  0  0  0  0  0  0  0
   -0.5510    1.0221    0.0000 C   0  0  0  0  0  0  0  0  0  0  0  0
    0.1178    1.5051    0.0000 N   0  0  0  0  0  0  0  0  0  0  0  0
    0.9176    1.3032    0.0000 C   0  0  0  0  0  0  0  0  0  0  0  0
    1.2771    0.5606    0.0000 C   0  0  1  0  0  0  0  0  0  0  0  0
   -0.4672    0.2014    0.0000 C   0  0  0  0  0  0  0  0  0  0  0  0
    0.9394   -0.1920    0.0000 N   0  0  0  0  0  0  0  0  0  0  0  0
    0.1456   -0.4171    0.0000 C   0  0  0  0  0  0  0  0  0  0  0  0
    0.0116    2.9990    0.0000 S   0  0  0  0  0  0  0  0  0  0  0  0
    2.1021    0.5726    0.0000 C   0  0  0  0  0  0  0  0  0  0  0  0
    1.4788   -0.8162    0.0000 C   0  0  0  0  0  0  0  0  0  0  0  0
    1.2079   -1.5955    0.0000 C   0  0  0  0  0  0  0  0  0  0  0  0
    1.7474   -2.2197    0.0000 C   0  0  0  0  0  0  0  0  0  0  0  0
    1.4765   -2.9990    0.0000 C   0  0  0  0  0  0  0  0  0  0  0  0
    2.5577   -2.0647    0.0000 C   0  0  0  0  0  0  0  0  0  0  0  0
   -2.5577   -0.4267    0.0000 Cl  0  0  0  0  0  0  0  0  0  0  0  0
   -1.0313   -1.3081    0.0000 H   0  0  0  0  0  0  0  0  0  0  0  0
   -2.9142    1.2993    0.0000 H   0  0  0  0  0  0  0  0  0  0  0  0
   -1.8479    2.8905    0.0000 H   0  0  0  0  0  0  0  0  0  0  0  0
    1.5934    2.1328    0.0000 H   0  0  0  0  0  0  0  0  0  0  0  0
    1.9804    1.1790    0.0000 H   0  0  0  0  0  0  0  0  0  0  0  0
    1.8388    1.4713    0.0000 H   0  0  0  0  0  0  0  0  0  0  0  0
   -0.1262   -1.4520    0.0000 H   0  0  0  0  0  0  0  0  0  0  0  0
    0.9095   -1.1663    0.0000 H   0  0  0  0  0  0  0  0  0  0  0  0
    2.6505   -0.3462    0.0000 H   0  0  0  0  0  0  0  0  0  0  0  0
    2.6236    1.5069    0.0000 H   0  0  0  0  0  0  0  0  0  0  0  0
    3.1720    0.5882    0.0000 H   0  0  0  0  0  0  0  0  0  0  0  0
    2.5297   -0.6151    0.0000 H   0  0  0  0  0  0  0  0  0  0  0  0
    2.1784   -1.6258    0.0000 H   0  0  0  0  0  0  0  0  0  0  0  0
    0.1943   -1.7895    0.0000 H   0  0  0  0  0  0  0  0  0  0  0  0
    0.4256   -3.2001    0.0000 H   0  0  0  0  0  0  0  0  0  0  0  0
    2.1761   -3.8086    0.0000 H   0  0  0  0  0  0  0  0  0  0  0  0
    1.1252   -4.0097    0.0000 H   0  0  0  0  0  0  0  0  0  0  0  0
    3.2573   -2.8743    0.0000 H   0  0  0  0  0  0  0  0  0  0  0  0
    2.9091   -1.0540    0.0000 H   0  0  0  0  0  0  0  0  0  0  0  0
    3.6086   -1.8637    0.0000 H   0  0  0  0  0  0  0  0  0  0  0  0
  1  2  2  0  0  0  0
  1 22  1  0  0  0  0
  2  3  1  0  0  0  0
  2 21  1  0  0  0  0
  3  4  2  0  0  0  0
  3 23  1  0  0  0  0
  4  5  1  0  0  0  0
  5 24  1  0  0  0  0
  6  8  1  0  0  0  0
  6 14  2  0  0  0  0
  6  5  1  0  0  0  0
  7 11  2  0  0  0  0
  7  8  1  0  0  0  0
  7  4  1  0  0  0  0
  8  9  1  0  0  0  0
  9 10  1  0  0  0  0
  9 25  1  0  0  0  0
  9 26  1  0  0  0  0
 10 12  1  0  0  0  0
 10 15  1  0  0  0  0
 10 27  1  1  0  0  0
 11  1  1  0  0  0  0
 11 13  1  0  0  0  0
 12 13  1  0  0  0  0
 12 16  1  0  0  0  0
 13 28  1  0  0  0  0
 13 29  1  0  0  0  0
 15 30  1  0  0  0  0
 15 31  1  0  0  0  0
 15 32  1  0  0  0  0
 16 17  1  0  0  0  0
 16 33  1  0  0  0  0
 16 34  1  0  0  0  0
 17 18  2  0  0  0  0
 17 35  1  0  0  0  0
 18 19  1  0  0  0  0
 18 20  1  0  0  0  0
 19 36  1  0  0  0  0
 19 37  1  0  0  0  0
 19 38  1  0  0  0  0
 20 39  1  0  0  0  0
 20 40  1  0  0  0  0
 20 41  1  0  0  0  0
M  END
>  <DRUGBANK_ID>
DB08598

>  <COMMON_NAME>
R-82913

>  <CAS_NUMBER>
126347-69-1

>  <UNII>
4FOI87E52P

$$$$
