MPX
 OpenBabel10282417072D

 40 41  0  0  0  0  0  0  0  0999 V2000
    1.5874    2.9517    0.0000 C   0  0  0  0  0  0  0  0  0  0  0  0
    2.3019    2.5392    0.0000 C   0  0  0  0  0  0  0  0  0  0  0  0
    2.3019    1.7142    0.0000 C   0  0  0  0  0  0  0  0  0  0  0  0
    1.5874    1.3017    0.0000 C   0  0  0  0  0  0  0  0  0  0  0  0
    0.8729    1.7142    0.0000 C   0  0  0  0  0  0  0  0  0  0  0  0
    0.8729    2.5392    0.0000 C   0  0  0  0  0  0  0  0  0  0  0  0
    1.5874    0.4767    0.0000 N   0  0  0  0  0  0  0  0  0  0  0  0
    0.8729    0.0642    0.0000 C   0  0  0  0  0  0  0  0  0  0  0  0
    0.1584    0.4767    0.0000 S   0  0  0  0  0  0  0  0  0  0  0  0
    0.8729   -0.7608    0.0000 N   0  0  0  0  0  0  0  0  0  0  0  0
    0.1584   -1.1733    0.0000 N   0  0  0  0  0  0  0  0  0  0  0  0
    0.1584   -1.9983    0.0000 C   0  0  0  0  0  0  0  0  0  0  0  0
   -0.5560   -2.4108    0.0000 C   0  0  0  0  0  0  0  0  0  0  0  0
   -1.2705   -1.9983    0.0000 N   0  0  0  0  0  0  0  0  0  0  0  0
   -1.9850   -2.4108    0.0000 C   0  0  0  0  0  0  0  0  0  0  0  0
   -1.2705   -1.1733    0.0000 C   0  0  0  0  0  0  0  0  0  0  0  0
   -0.5560   -0.7608    0.0000 C   0  0  0  0  0  0  0  0  0  0  0  0
    1.5874    3.7767    0.0000 S   0  0  0  0  0  0  0  0  0  0  0  0
    1.5874    4.6017    0.0000 N   0  0  0  0  0  0  0  0  0  0  0  0
    2.4124    3.7767    0.0000 O   0  0  0  0  0  0  0  0  0  0  0  0
    0.7624    3.7767    0.0000 O   0  0  0  0  0  0  0  0  0  0  0  0
    3.1956    3.0552    0.0000 H   0  0  0  0  0  0  0  0  0  0  0  0
    3.1956    1.1982    0.0000 H   0  0  0  0  0  0  0  0  0  0  0  0
   -0.0208    1.1982    0.0000 H   0  0  0  0  0  0  0  0  0  0  0  0
   -0.0208    3.0552    0.0000 H   0  0  0  0  0  0  0  0  0  0  0  0
    2.4400   -0.0156    0.0000 H   0  0  0  0  0  0  0  0  0  0  0  0
    1.7255   -1.2531    0.0000 H   0  0  0  0  0  0  0  0  0  0  0  0
    1.0851   -2.5333    0.0000 H   0  0  0  0  0  0  0  0  0  0  0  0
    0.1584   -3.0683    0.0000 H   0  0  0  0  0  0  0  0  0  0  0  0
   -0.5560   -3.4808    0.0000 H   0  0  0  0  0  0  0  0  0  0  0  0
   -1.4826   -2.9458    0.0000 H   0  0  0  0  0  0  0  0  0  0  0  0
   -2.9116   -1.8758    0.0000 H   0  0  0  0  0  0  0  0  0  0  0  0
   -1.9850   -3.4808    0.0000 H   0  0  0  0  0  0  0  0  0  0  0  0
   -2.9117   -2.9458    0.0000 H   0  0  0  0  0  0  0  0  0  0  0  0
   -2.1971   -0.6383    0.0000 H   0  0  0  0  0  0  0  0  0  0  0  0
   -1.2705   -0.1033    0.0000 H   0  0  0  0  0  0  0  0  0  0  0  0
   -0.5560    0.3092    0.0000 H   0  0  0  0  0  0  0  0  0  0  0  0
   -1.4826   -0.2258    0.0000 H   0  0  0  0  0  0  0  0  0  0  0  0
    2.4707    5.1117    0.0000 H   0  0  0  0  0  0  0  0  0  0  0  0
    0.7041    5.1117    0.0000 H   0  0  0  0  0  0  0  0  0  0  0  0
  1  2  1  0  0  0  0
  1  6  2  0  0  0  0
  1 18  1  0  0  0  0
  2  3  2  0  0  0  0
  2 22  1  0  0  0  0
  3  4  1  0  0  0  0
  3 23  1  0  0  0  0
  4  5  2  0  0  0  0
  4  7  1  0  0  0  0
  5  6  1  0  0  0  0
  5 24  1  0  0  0  0
  6 25  1  0  0  0  0
  7  8  1  0  0  0  0
  7 26  1  0  0  0  0
  8  9  2  0  0  0  0
  8 10  1  0  0  0  0
 10 11  1  0  0  0  0
 10 27  1  0  0  0  0
 11 12  1  0  0  0  0
 11 17  1  0  0  0  0
 12 13  1  0  0  0  0
 12 28  1  0  0  0  0
 12 29  1  0  0  0  0
 13 14  1  0  0  0  0
 13 30  1  0  0  0  0
 13 31  1  0  0  0  0
 14 15  1  0  0  0  0
 14 16  1  0  0  0  0
 15 32  1  0  0  0  0
 15 33  1  0  0  0  0
 15 34  1  0  0  0  0
 16 17  1  0  0  0  0
 16 35  1  0  0  0  0
 16 36  1  0  0  0  0
 17 37  1  0  0  0  0
 17 38  1  0  0  0  0
 18 19  1  0  0  0  0
 18 20  2  0  0  0  0
 18 21  2  0  0  0  0
 19 39  1  0  0  0  0
 19 40  1  0  0  0  0
M  END
>  <DRUGBANK_ID>
DB08202

>  <COMMON_NAME>
4-({[(4-METHYLPIPERAZIN-1-YL)AMINO]CARBONOTHIOYL}AMINO)BENZENESULFONAMIDE

$$$$
