
 OpenBabel10282417072D

 24 23  0  0  1  0  0  0  0  0999 V2000
   21.5646  -18.0621    0.0000 O   0  0  0  0  0  0  0  0  0  0  0  0
   20.8502  -20.1247    0.0000 O   0  0  0  0  0  0  0  0  0  0  0  0
   22.2792  -20.1247    0.0000 O   0  0  0  0  0  0  0  0  0  0  0  0
   20.1357  -18.0621    0.0000 O   0  0  0  0  0  0  0  0  0  0  0  0
   23.7081  -19.2997    0.0000 O   0  0  0  0  0  0  0  0  0  0  0  0
   18.7067  -18.8871    0.0000 O   0  0  0  0  0  0  0  0  0  0  0  0
   22.9936  -18.0621    0.0000 O   0  0  0  0  0  0  0  0  0  0  0  0
   19.4212  -20.1247    0.0000 O   0  0  0  0  0  0  0  0  0  0  0  0
   21.5646  -18.8871    0.0000 C   0  0  1  0  0  0  0  0  0  0  0  0
   20.8502  -19.2997    0.0000 C   0  0  1  0  0  0  0  0  0  0  0  0
   22.2792  -19.2997    0.0000 C   0  0  1  0  0  0  0  0  0  0  0  0
   20.1357  -18.8871    0.0000 C   0  0  2  0  0  0  0  0  0  0  0  0
   22.9936  -18.8871    0.0000 C   0  0  0  0  0  0  0  0  0  0  0  0
   19.4212  -19.2997    0.0000 C   0  0  0  0  0  0  0  0  0  0  0  0
   22.4046  -17.5771    0.0000 H   0  0  0  0  0  0  0  0  0  0  0  0
   20.0102  -20.6097    0.0000 H   0  0  0  0  0  0  0  0  0  0  0  0
   21.4392  -20.6097    0.0000 H   0  0  0  0  0  0  0  0  0  0  0  0
   20.9757  -17.5771    0.0000 H   0  0  0  0  0  0  0  0  0  0  0  0
   23.7080  -20.2367    0.0000 H   0  0  0  0  0  0  0  0  0  0  0  0
   18.7068  -17.9501    0.0000 H   0  0  0  0  0  0  0  0  0  0  0  0
   20.6379  -18.3522    0.0000 H   0  0  0  0  0  0  0  0  0  0  0  0
   21.7769  -19.8346    0.0000 H   0  0  0  0  0  0  0  0  0  0  0  0
   21.3525  -19.8347    0.0000 H   0  0  0  0  0  0  0  0  0  0  0  0
   21.0624  -18.3521    0.0000 H   0  0  0  0  0  0  0  0  0  0  0  0
  1 15  1  0  0  0  0
  2 16  1  0  0  0  0
  3 17  1  0  0  0  0
  4 18  1  0  0  0  0
  5 13  1  0  0  0  0
  5 19  1  0  0  0  0
  6 14  1  0  0  0  0
  6 20  1  0  0  0  0
  7 13  2  0  0  0  0
  8 14  2  0  0  0  0
  9  1  1  0  0  0  0
  9 10  1  0  0  0  0
  9 11  1  0  0  0  0
  9 21  1  1  0  0  0
 10  2  1  0  0  0  0
 10 12  1  0  0  0  0
 10 22  1  1  0  0  0
 11  3  1  0  0  0  0
 11 13  1  0  0  0  0
 11 23  1  6  0  0  0
 12  4  1  0  0  0  0
 12 14  1  0  0  0  0
 12 24  1  1  0  0  0
M  END
>  <DRUGBANK_ID>
DB03603

>  <SECONDARY_ACCESSION_NUMBERS>
EXPT01594

>  <COMMON_NAME>
Glucaric acid

>  <CAS_NUMBER>
87-73-0

>  <UNII>
QLZ991V4A2

$$$$
