887
 OpenBabel10282417072D

 53 57  0  0  0  0  0  0  0  0999 V2000
    0.2391    0.7828    0.0000 C   0  0  0  0  0  0  0  0  0  0  0  0
    0.2391    1.6078    0.0000 C   0  0  0  0  0  0  0  0  0  0  0  0
   -0.4754    2.0203    0.0000 C   0  0  0  0  0  0  0  0  0  0  0  0
   -1.1899    1.6078    0.0000 C   0  0  0  0  0  0  0  0  0  0  0  0
   -1.1899    0.7828    0.0000 C   0  0  0  0  0  0  0  0  0  0  0  0
   -0.4754    0.3703    0.0000 C   0  0  0  0  0  0  0  0  0  0  0  0
   -0.4754    2.8453    0.0000 C   0  0  0  0  0  0  0  0  0  0  0  0
   -1.1899    3.2578    0.0000 C   0  0  0  0  0  0  0  0  0  0  0  0
   -1.9044    2.8453    0.0000 C   0  0  0  0  0  0  0  0  0  0  0  0
   -1.9044    2.0203    0.0000 C   0  0  0  0  0  0  0  0  0  0  0  0
    0.9535    0.3703    0.0000 O   0  0  0  0  0  0  0  0  0  0  0  0
    0.9535   -0.4547    0.0000 C   0  0  0  0  0  0  0  0  0  0  0  0
    1.6680   -0.8672    0.0000 C   0  0  0  0  0  0  0  0  0  0  0  0
    1.6680   -1.6922    0.0000 C   0  0  0  0  0  0  0  0  0  0  0  0
    0.9535   -2.1047    0.0000 N   0  0  0  0  0  0  0  0  0  0  0  0
    0.2391   -1.6922    0.0000 C   0  0  0  0  0  0  0  0  0  0  0  0
    0.2391   -0.8672    0.0000 C   0  0  0  0  0  0  0  0  0  0  0  0
    2.3825   -0.4547    0.0000 C   0  0  0  0  0  0  0  0  0  0  0  0
    3.0969   -0.8672    0.0000 C   0  0  0  0  0  0  0  0  0  0  0  0
    3.0969   -1.6922    0.0000 C   0  0  0  0  0  0  0  0  0  0  0  0
    2.3825   -2.1047    0.0000 C   0  0  0  0  0  0  0  0  0  0  0  0
    3.8114   -0.4547    0.0000 O   0  0  0  0  0  0  0  0  0  0  0  0
    3.8114   -2.1047    0.0000 O   0  0  0  0  0  0  0  0  0  0  0  0
    3.8114   -2.9297    0.0000 C   0  0  0  0  0  0  0  0  0  0  0  0
    4.5259   -0.8672    0.0000 C   0  0  0  0  0  0  0  0  0  0  0  0
   -2.6188    1.6078    0.0000 C   0  0  0  0  0  0  0  0  0  0  0  0
   -2.6188    0.7828    0.0000 N   0  0  0  0  0  0  0  0  0  0  0  0
   -3.3333    0.3703    0.0000 C   0  0  0  0  0  0  0  0  0  0  0  0
   -3.3333    2.0203    0.0000 O   0  0  0  0  0  0  0  0  0  0  0  0
   -3.7458   -0.3442    0.0000 C   0  0  0  0  0  0  0  0  0  0  0  0
   -4.1583    0.3703    0.0000 C   0  0  0  0  0  0  0  0  0  0  0  0
    1.1328    2.1238    0.0000 H   0  0  0  0  0  0  0  0  0  0  0  0
   -2.0836    0.2668    0.0000 H   0  0  0  0  0  0  0  0  0  0  0  0
   -0.4754   -0.6617    0.0000 H   0  0  0  0  0  0  0  0  0  0  0  0
    0.4183    3.3613    0.0000 H   0  0  0  0  0  0  0  0  0  0  0  0
   -1.1899    4.2898    0.0000 H   0  0  0  0  0  0  0  0  0  0  0  0
   -2.7981    3.3613    0.0000 H   0  0  0  0  0  0  0  0  0  0  0  0
   -0.6546   -2.2082    0.0000 H   0  0  0  0  0  0  0  0  0  0  0  0
   -0.6546   -0.3512    0.0000 H   0  0  0  0  0  0  0  0  0  0  0  0
    2.3825    0.5773    0.0000 H   0  0  0  0  0  0  0  0  0  0  0  0
    2.3825   -3.1367    0.0000 H   0  0  0  0  0  0  0  0  0  0  0  0
    2.8848   -3.4647    0.0000 H   0  0  0  0  0  0  0  0  0  0  0  0
    4.7380   -3.4647    0.0000 H   0  0  0  0  0  0  0  0  0  0  0  0
    3.8114   -3.9997    0.0000 H   0  0  0  0  0  0  0  0  0  0  0  0
    4.5259   -1.9372    0.0000 H   0  0  0  0  0  0  0  0  0  0  0  0
    5.4525   -0.3322    0.0000 H   0  0  0  0  0  0  0  0  0  0  0  0
    5.4526   -1.4022    0.0000 H   0  0  0  0  0  0  0  0  0  0  0  0
   -1.7662    0.2905    0.0000 H   0  0  0  0  0  0  0  0  0  0  0  0
   -4.2599   -0.1647    0.0000 H   0  0  0  0  0  0  0  0  0  0  0  0
   -3.7458   -1.4142    0.0000 H   0  0  0  0  0  0  0  0  0  0  0  0
   -4.7793   -0.6211    0.0000 H   0  0  0  0  0  0  0  0  0  0  0  0
   -5.0849    0.9053    0.0000 H   0  0  0  0  0  0  0  0  0  0  0  0
   -4.9149   -0.3863    0.0000 H   0  0  0  0  0  0  0  0  0  0  0  0
  1  6  1  0  0  0  0
  2  1  2  0  0  0  0
  2  3  1  0  0  0  0
  2 32  1  0  0  0  0
  3  4  1  0  0  0  0
  4  5  1  0  0  0  0
  4 10  2  0  0  0  0
  5 33  1  0  0  0  0
  6  5  2  0  0  0  0
  6 34  1  0  0  0  0
  7  3  2  0  0  0  0
  7  8  1  0  0  0  0
  7 35  1  0  0  0  0
  8  9  2  0  0  0  0
  8 36  1  0  0  0  0
  9 10  1  0  0  0  0
  9 37  1  0  0  0  0
 10 26  1  0  0  0  0
 11  1  1  0  0  0  0
 12 11  1  0  0  0  0
 12 17  2  0  0  0  0
 13 12  1  0  0  0  0
 14 13  1  0  0  0  0
 14 15  1  0  0  0  0
 15 16  2  0  0  0  0
 16 17  1  0  0  0  0
 16 38  1  0  0  0  0
 17 39  1  0  0  0  0
 18 13  2  0  0  0  0
 18 40  1  0  0  0  0
 19 18  1  0  0  0  0
 20 19  2  0  0  0  0
 20 21  1  0  0  0  0
 21 14  2  0  0  0  0
 21 41  1  0  0  0  0
 22 19  1  0  0  0  0
 22 25  1  0  0  0  0
 23 20  1  0  0  0  0
 24 23  1  0  0  0  0
 24 42  1  0  0  0  0
 24 43  1  0  0  0  0
 24 44  1  0  0  0  0
 25 45  1  0  0  0  0
 25 46  1  0  0  0  0
 25 47  1  0  0  0  0
 26 29  2  0  0  0  0
 26 27  1  0  0  0  0
 27 28  1  0  0  0  0
 27 48  1  0  0  0  0
 28 30  1  0  0  0  0
 28 31  1  0  0  0  0
 28 49  1  0  0  0  0
 30 31  1  0  0  0  0
 30 50  1  0  0  0  0
 30 51  1  0  0  0  0
 31 52  1  0  0  0  0
 31 53  1  0  0  0  0
M  END
>  <DRUGBANK_ID>
DB07274

>  <COMMON_NAME>
N-cyclopropyl-6-[(6,7-dimethoxyquinolin-4-yl)oxy]naphthalene-1-carboxamide

$$$$
