
 OpenBabel10282417072D

 47 49  0  0  1  0  0  0  0  0999 V2000
   -1.5661    3.7283    0.0000 C   0  0  0  0  0  0  0  0  0  0  0  0
   -1.7376    2.9214    0.0000 C   0  0  0  0  0  0  0  0  0  0  0  0
   -2.5223    2.6664    0.0000 C   0  0  2  0  0  0  0  0  0  0  0  0
   -3.3069    2.4115    0.0000 C   0  0  0  0  0  0  0  0  0  0  0  0
   -2.7772    3.4510    0.0000 C   0  0  0  0  0  0  0  0  0  0  0  0
   -2.2252    4.0641    0.0000 O   0  0  0  0  0  0  0  0  0  0  0  0
   -3.5842    3.6226    0.0000 N   0  0  0  0  0  0  0  0  0  0  0  0
   -3.8391    4.4072    0.0000 C   0  0  0  0  0  0  0  0  0  0  0  0
   -4.6461    4.5787    0.0000 C   0  0  0  0  0  0  0  0  0  0  0  0
   -5.4531    4.7502    0.0000 F   0  0  0  0  0  0  0  0  0  0  0  0
   -4.8176    3.7717    0.0000 F   0  0  0  0  0  0  0  0  0  0  0  0
   -4.4746    5.3857    0.0000 F   0  0  0  0  0  0  0  0  0  0  0  0
   -2.2673    1.8818    0.0000 N   0  0  0  0  0  0  0  0  0  0  0  0
   -1.4604    1.7103    0.0000 C   0  0  0  0  0  0  0  0  0  0  0  0
   -0.9083    2.3234    0.0000 C   0  0  0  0  0  0  0  0  0  0  0  0
   -0.1014    2.1518    0.0000 C   0  0  0  0  0  0  0  0  0  0  0  0
    0.1536    1.3672    0.0000 N   0  0  0  0  0  0  0  0  0  0  0  0
   -0.3984    0.7541    0.0000 C   0  0  0  0  0  0  0  0  0  0  0  0
   -1.2054    0.9256    0.0000 N   0  0  0  0  0  0  0  0  0  0  0  0
   -0.1435   -0.0305    0.0000 C   0  0  0  0  0  0  0  0  0  0  0  0
   -0.6284   -0.6979    0.0000 C   0  0  0  0  0  0  0  0  0  0  0  0
   -0.1435   -1.3654    0.0000 N   0  0  0  0  0  0  0  0  0  0  0  0
    0.6411   -1.1104    0.0000 C   0  0  0  0  0  0  0  0  0  0  0  0
    0.6411   -0.2854    0.0000 C   0  0  0  0  0  0  0  0  0  0  0  0
    1.3556    0.1271    0.0000 C   0  0  0  0  0  0  0  0  0  0  0  0
    2.0701   -0.2854    0.0000 C   0  0  0  0  0  0  0  0  0  0  0  0
    2.0701   -1.1104    0.0000 C   0  0  0  0  0  0  0  0  0  0  0  0
    1.3556   -1.5229    0.0000 N   0  0  0  0  0  0  0  0  0  0  0  0
   -0.5485    4.0590    0.0000 H   0  0  0  0  0  0  0  0  0  0  0  0
   -2.3613    4.4443    0.0000 H   0  0  0  0  0  0  0  0  0  0  0  0
   -1.3436    4.7749    0.0000 H   0  0  0  0  0  0  0  0  0  0  0  0
   -0.9424    2.2055    0.0000 H   0  0  0  0  0  0  0  0  0  0  0  0
   -1.9600    1.8748    0.0000 H   0  0  0  0  0  0  0  0  0  0  0  0
   -4.1020    3.1275    0.0000 H   0  0  0  0  0  0  0  0  0  0  0  0
   -3.5294    1.3649    0.0000 H   0  0  0  0  0  0  0  0  0  0  0  0
   -4.3245    2.0809    0.0000 H   0  0  0  0  0  0  0  0  0  0  0  0
   -4.2430    2.8910    0.0000 H   0  0  0  0  0  0  0  0  0  0  0  0
   -3.1231    5.2024    0.0000 H   0  0  0  0  0  0  0  0  0  0  0  0
   -4.1698    5.4248    0.0000 H   0  0  0  0  0  0  0  0  0  0  0  0
   -2.9260    1.1501    0.0000 H   0  0  0  0  0  0  0  0  0  0  0  0
   -1.2271    3.3049    0.0000 H   0  0  0  0  0  0  0  0  0  0  0  0
    0.5892    2.9187    0.0000 H   0  0  0  0  0  0  0  0  0  0  0  0
   -1.6604   -0.6979    0.0000 H   0  0  0  0  0  0  0  0  0  0  0  0
   -0.4477   -2.3017    0.0000 H   0  0  0  0  0  0  0  0  0  0  0  0
    1.3556    1.1591    0.0000 H   0  0  0  0  0  0  0  0  0  0  0  0
    2.9638    0.2306    0.0000 H   0  0  0  0  0  0  0  0  0  0  0  0
    2.9638   -1.6264    0.0000 H   0  0  0  0  0  0  0  0  0  0  0  0
  1  2  1  0  0  0  0
  1 29  1  0  0  0  0
  1 30  1  0  0  0  0
  1 31  1  0  0  0  0
  2  3  1  0  0  0  0
  2 32  1  0  0  0  0
  2 33  1  0  0  0  0
  3  4  1  0  0  0  0
  3  5  1  1  0  0  0
  3 13  1  0  0  0  0
  4 34  1  0  0  0  0
  4 35  1  0  0  0  0
  4 36  1  0  0  0  0
  5  6  2  0  0  0  0
  5  7  1  0  0  0  0
  7  8  1  0  0  0  0
  7 37  1  0  0  0  0
  8  9  1  0  0  0  0
  8 38  1  0  0  0  0
  8 39  1  0  0  0  0
  9 10  1  0  0  0  0
  9 11  1  0  0  0  0
  9 12  1  0  0  0  0
 13 14  1  0  0  0  0
 13 40  1  0  0  0  0
 14 15  2  0  0  0  0
 14 19  1  0  0  0  0
 15 16  1  0  0  0  0
 15 41  1  0  0  0  0
 16 17  2  0  0  0  0
 16 42  1  0  0  0  0
 17 18  1  0  0  0  0
 18 19  2  0  0  0  0
 18 20  1  0  0  0  0
 20 21  2  0  0  0  0
 20 24  1  0  0  0  0
 21 22  1  0  0  0  0
 21 43  1  0  0  0  0
 22 23  1  0  0  0  0
 22 44  1  0  0  0  0
 23 24  1  0  0  0  0
 23 28  2  0  0  0  0
 24 25  2  0  0  0  0
 25 26  1  0  0  0  0
 25 45  1  0  0  0  0
 26 27  2  0  0  0  0
 26 46  1  0  0  0  0
 27 28  1  0  0  0  0
 27 47  1  0  0  0  0
M  END
>  <DRUGBANK_ID>
DB12566

>  <COMMON_NAME>
Decernotinib

>  <CAS_NUMBER>
944842-54-0

>  <UNII>
MZK2GP0RHK

>  <SYNONYMS>
Adelatinib; Decernotinib

$$$$
