
 OpenBabel10282417072D

 63 64  0  0  1  0  0  0  0  0999 V2000
   -8.9296   -3.0008    0.0000 C   0  0  0  0  0  0  0  0  0  0  0  0
   -8.2151   -2.5883    0.0000 C   0  0  0  0  0  0  0  0  0  0  0  0
   -8.2151   -1.7633    0.0000 C   0  0  0  0  0  0  0  0  0  0  0  0
   -7.5006   -3.0008    0.0000 C   0  0  2  0  0  0  0  0  0  0  0  0
   -7.5006   -3.8258    0.0000 N   0  0  0  0  0  0  0  0  0  0  0  0
   -6.7861   -2.5883    0.0000 C   0  0  0  0  0  0  0  0  0  0  0  0
   -6.7861   -1.7633    0.0000 O   0  0  0  0  0  0  0  0  0  0  0  0
   -6.0717   -3.0008    0.0000 N   0  0  0  0  0  0  0  0  0  0  0  0
   -5.3572   -2.5883    0.0000 C   0  0  1  0  0  0  0  0  0  0  0  0
   -5.3572   -1.7633    0.0000 C   0  0  0  0  0  0  0  0  0  0  0  0
   -4.6427   -1.3508    0.0000 C   0  0  0  0  0  0  0  0  0  0  0  0
   -6.0717   -1.3508    0.0000 C   0  0  0  0  0  0  0  0  0  0  0  0
   -4.6427   -3.0008    0.0000 C   0  0  0  0  0  0  0  0  0  0  0  0
   -4.6427   -3.8258    0.0000 O   0  0  0  0  0  0  0  0  0  0  0  0
   -3.9283   -2.5883    0.0000 O   0  0  0  0  0  0  0  0  0  0  0  0
   -3.2138   -3.0008    0.0000 C   0  0  0  0  0  0  0  0  0  0  0  0
   -2.4993   -2.5883    0.0000 C   0  0  1  0  0  0  0  0  0  0  0  0
   -2.4993   -1.7633    0.0000 C   0  0  0  0  0  0  0  0  0  0  0  0
   -1.7849   -1.3508    0.0000 O   0  0  0  0  0  0  0  0  0  0  0  0
   -1.7849   -3.0008    0.0000 O   0  0  0  0  0  0  0  0  0  0  0  0
   -1.0704   -2.5883    0.0000 C   0  0  0  0  0  0  0  0  0  0  0  0
   -0.3559   -3.0008    0.0000 N   0  0  0  0  0  0  0  0  0  0  0  0
   -0.2697   -3.8213    0.0000 C   0  0  0  0  0  0  0  0  0  0  0  0
    0.5373   -3.9928    0.0000 N   0  0  0  0  0  0  0  0  0  0  0  0
    0.9498   -3.2784    0.0000 C   0  0  0  0  0  0  0  0  0  0  0  0
    0.3978   -2.6653    0.0000 C   0  0  0  0  0  0  0  0  0  0  0  0
    0.6527   -1.8807    0.0000 N   0  0  0  0  0  0  0  0  0  0  0  0
    1.4597   -1.7091    0.0000 C   0  0  0  0  0  0  0  0  0  0  0  0
    1.7146   -0.9245    0.0000 N   0  0  0  0  0  0  0  0  0  0  0  0
    2.0117   -2.3222    0.0000 N   0  0  0  0  0  0  0  0  0  0  0  0
    1.7568   -3.1069    0.0000 C   0  0  0  0  0  0  0  0  0  0  0  0
    2.3088   -3.7199    0.0000 O   0  0  0  0  0  0  0  0  0  0  0  0
   -9.8562   -2.4658    0.0000 H   0  0  0  0  0  0  0  0  0  0  0  0
   -8.9296   -4.0708    0.0000 H   0  0  0  0  0  0  0  0  0  0  0  0
   -9.8563   -3.5358    0.0000 H   0  0  0  0  0  0  0  0  0  0  0  0
   -7.2885   -2.0533    0.0000 H   0  0  0  0  0  0  0  0  0  0  0  0
   -7.2885   -1.2283    0.0000 H   0  0  0  0  0  0  0  0  0  0  0  0
   -9.1417   -1.2283    0.0000 H   0  0  0  0  0  0  0  0  0  0  0  0
   -8.2151   -0.6933    0.0000 H   0  0  0  0  0  0  0  0  0  0  0  0
   -8.4272   -3.5358    0.0000 H   0  0  0  0  0  0  0  0  0  0  0  0
   -8.3839   -4.3358    0.0000 H   0  0  0  0  0  0  0  0  0  0  0  0
   -6.6173   -4.3358    0.0000 H   0  0  0  0  0  0  0  0  0  0  0  0
   -6.0717   -3.9853    0.0000 H   0  0  0  0  0  0  0  0  0  0  0  0
   -6.2838   -2.0533    0.0000 H   0  0  0  0  0  0  0  0  0  0  0  0
   -5.3572   -0.6933    0.0000 H   0  0  0  0  0  0  0  0  0  0  0  0
   -3.7161   -1.8858    0.0000 H   0  0  0  0  0  0  0  0  0  0  0  0
   -4.6427   -0.2808    0.0000 H   0  0  0  0  0  0  0  0  0  0  0  0
   -3.7160   -0.8158    0.0000 H   0  0  0  0  0  0  0  0  0  0  0  0
   -6.0717   -0.2808    0.0000 H   0  0  0  0  0  0  0  0  0  0  0  0
   -6.9983   -1.8858    0.0000 H   0  0  0  0  0  0  0  0  0  0  0  0
   -6.9984   -0.8158    0.0000 H   0  0  0  0  0  0  0  0  0  0  0  0
   -3.2138   -4.0708    0.0000 H   0  0  0  0  0  0  0  0  0  0  0  0
   -2.2872   -3.5358    0.0000 H   0  0  0  0  0  0  0  0  0  0  0  0
   -2.4993   -3.6583    0.0000 H   0  0  0  0  0  0  0  0  0  0  0  0
   -3.4260   -1.2283    0.0000 H   0  0  0  0  0  0  0  0  0  0  0  0
   -2.4993   -0.6933    0.0000 H   0  0  0  0  0  0  0  0  0  0  0  0
   -0.9448   -1.8358    0.0000 H   0  0  0  0  0  0  0  0  0  0  0  0
   -1.0704   -1.5183    0.0000 H   0  0  0  0  0  0  0  0  0  0  0  0
   -0.1438   -2.0533    0.0000 H   0  0  0  0  0  0  0  0  0  0  0  0
   -1.0366   -4.5118    0.0000 H   0  0  0  0  0  0  0  0  0  0  0  0
    2.6776   -0.7198    0.0000 H   0  0  0  0  0  0  0  0  0  0  0  0
    1.0558   -0.1929    0.0000 H   0  0  0  0  0  0  0  0  0  0  0  0
    2.9747   -2.1175    0.0000 H   0  0  0  0  0  0  0  0  0  0  0  0
  1  2  1  0  0  0  0
  1 33  1  0  0  0  0
  1 34  1  0  0  0  0
  1 35  1  0  0  0  0
  2  3  1  0  0  0  0
  2 36  1  0  0  0  0
  3 37  1  0  0  0  0
  3 38  1  0  0  0  0
  3 39  1  0  0  0  0
  4  2  1  0  0  0  0
  4  5  1  0  0  0  0
  4  6  1  0  0  0  0
  4 40  1  6  0  0  0
  5 41  1  0  0  0  0
  5 42  1  0  0  0  0
  6  7  2  0  0  0  0
  6  8  1  0  0  0  0
  8 43  1  0  0  0  0
  9  8  1  0  0  0  0
  9 10  1  0  0  0  0
  9 13  1  0  0  0  0
  9 44  1  6  0  0  0
 10 11  1  0  0  0  0
 10 12  1  0  0  0  0
 10 45  1  0  0  0  0
 11 46  1  0  0  0  0
 11 47  1  0  0  0  0
 11 48  1  0  0  0  0
 12 49  1  0  0  0  0
 12 50  1  0  0  0  0
 12 51  1  0  0  0  0
 13 14  2  0  0  0  0
 13 15  1  0  0  0  0
 15 16  1  0  0  0  0
 16 52  1  0  0  0  0
 16 53  1  0  0  0  0
 17 16  1  0  0  0  0
 17 18  1  0  0  0  0
 17 20  1  0  0  0  0
 17 54  1  6  0  0  0
 18 19  1  0  0  0  0
 18 55  1  0  0  0  0
 18 56  1  0  0  0  0
 19 57  1  0  0  0  0
 20 21  1  0  0  0  0
 21 22  1  0  0  0  0
 21 58  1  0  0  0  0
 21 59  1  0  0  0  0
 22 23  1  0  0  0  0
 22 26  1  0  0  0  0
 23 24  2  0  0  0  0
 23 60  1  0  0  0  0
 24 25  1  0  0  0  0
 25 26  2  0  0  0  0
 25 31  1  0  0  0  0
 26 27  1  0  0  0  0
 27 28  2  0  0  0  0
 28 29  1  0  0  0  0
 28 30  1  0  0  0  0
 29 61  1  0  0  0  0
 29 62  1  0  0  0  0
 30 31  1  0  0  0  0
 30 63  1  0  0  0  0
 31 32  2  0  0  0  0
M  END
>  <DRUGBANK_ID>
DB17744

>  <COMMON_NAME>
Valine-valine-ganciclovir

>  <CAS_NUMBER>
897937-73-4

>  <UNII>
ZW811N4EW6

>  <SYNONYMS>
L-valine, l-valyl-, 2-((2-amino-1,6-dihydro-6-oxo-9h-purin-9-yl)methoxy)-3-hydroxypropyl ester; Valganciclovir n-valyl impurity

$$$$
