YTT
 OpenBabel10282417072D

 42 44  0  0  0  0  0  0  0  0999 V2000
    1.4052   -0.8211    0.0000 O   0  0  0  0  0  0  0  0  0  0  0  0
    0.6908   -0.4086    0.0000 C   0  0  0  0  0  0  0  0  0  0  0  0
   -0.0237   -0.8211    0.0000 C   0  0  2  0  0  0  0  0  0  0  0  0
   -0.0237   -1.6461    0.0000 C   0  0  0  0  0  0  0  0  0  0  0  0
   -0.7382   -2.0586    0.0000 C   0  0  0  0  0  0  0  0  0  0  0  0
   -0.7382   -2.8836    0.0000 C   0  0  0  0  0  0  0  0  0  0  0  0
   -1.4527   -3.2961    0.0000 C   0  0  0  0  0  0  0  0  0  0  0  0
   -2.1671   -2.8836    0.0000 C   0  0  0  0  0  0  0  0  0  0  0  0
   -2.8816   -3.2961    0.0000 O   0  0  0  0  0  0  0  0  0  0  0  0
   -2.1671   -2.0586    0.0000 C   0  0  0  0  0  0  0  0  0  0  0  0
   -1.4527   -1.6461    0.0000 C   0  0  0  0  0  0  0  0  0  0  0  0
   -0.7382   -0.4086    0.0000 N   0  0  0  0  0  0  0  0  0  0  0  0
    0.6908    0.4164    0.0000 N   0  0  0  0  0  0  0  0  0  0  0  0
   -0.0237    0.8289    0.0000 C   0  0  2  0  0  0  0  0  0  0  0  0
   -0.7382    0.4164    0.0000 C   0  0  0  0  0  0  0  0  0  0  0  0
   -1.4527    0.8289    0.0000 O   0  0  0  0  0  0  0  0  0  0  0  0
   -0.0237    1.6539    0.0000 C   0  0  0  0  0  0  0  0  0  0  0  0
    0.6908    2.0664    0.0000 C   0  0  0  0  0  0  0  0  0  0  0  0
    0.6908    2.8914    0.0000 C   0  0  0  0  0  0  0  0  0  0  0  0
    1.4052    3.3039    0.0000 C   0  0  0  0  0  0  0  0  0  0  0  0
    2.1197    2.8914    0.0000 C   0  0  0  0  0  0  0  0  0  0  0  0
    2.8342    3.3039    0.0000 O   0  0  0  0  0  0  0  0  0  0  0  0
    2.1197    2.0664    0.0000 C   0  0  0  0  0  0  0  0  0  0  0  0
    1.4052    1.6539    0.0000 C   0  0  0  0  0  0  0  0  0  0  0  0
    0.4820   -1.1131    0.0000 H   0  0  0  0  0  0  0  0  0  0  0  0
    0.4820    1.1208    0.0000 H   0  0  0  0  0  0  0  0  0  0  0  0
    0.9029   -2.1811    0.0000 H   0  0  0  0  0  0  0  0  0  0  0  0
   -0.0237   -2.7161    0.0000 H   0  0  0  0  0  0  0  0  0  0  0  0
    0.1555   -3.3996    0.0000 H   0  0  0  0  0  0  0  0  0  0  0  0
   -1.4527   -4.3281    0.0000 H   0  0  0  0  0  0  0  0  0  0  0  0
   -3.6931   -2.8276    0.0000 H   0  0  0  0  0  0  0  0  0  0  0  0
   -3.0608   -1.5426    0.0000 H   0  0  0  0  0  0  0  0  0  0  0  0
   -1.4527   -0.6141    0.0000 H   0  0  0  0  0  0  0  0  0  0  0  0
   -1.5908   -0.9009    0.0000 H   0  0  0  0  0  0  0  0  0  0  0  0
    1.5434    0.9087    0.0000 H   0  0  0  0  0  0  0  0  0  0  0  0
   -0.9503    2.1889    0.0000 H   0  0  0  0  0  0  0  0  0  0  0  0
   -0.0237    2.7239    0.0000 H   0  0  0  0  0  0  0  0  0  0  0  0
   -0.2029    3.4074    0.0000 H   0  0  0  0  0  0  0  0  0  0  0  0
    1.4052    4.3359    0.0000 H   0  0  0  0  0  0  0  0  0  0  0  0
    3.6457    2.8354    0.0000 H   0  0  0  0  0  0  0  0  0  0  0  0
    3.0134    1.5504    0.0000 H   0  0  0  0  0  0  0  0  0  0  0  0
    1.4052    0.6219    0.0000 H   0  0  0  0  0  0  0  0  0  0  0  0
  1  2  2  0  0  0  0
  2  3  1  0  0  0  0
  2 13  1  0  0  0  0
  3  4  1  0  0  0  0
  3 12  1  0  0  0  0
  3 25  1  1  0  0  0
  4  5  1  0  0  0  0
  4 27  1  0  0  0  0
  4 28  1  0  0  0  0
  5  6  2  0  0  0  0
  5 11  1  0  0  0  0
  6  7  1  0  0  0  0
  6 29  1  0  0  0  0
  7  8  2  0  0  0  0
  7 30  1  0  0  0  0
  8  9  1  0  0  0  0
  8 10  1  0  0  0  0
  9 31  1  0  0  0  0
 10 11  2  0  0  0  0
 10 32  1  0  0  0  0
 11 33  1  0  0  0  0
 12 15  1  0  0  0  0
 12 34  1  0  0  0  0
 13 14  1  0  0  0  0
 13 35  1  0  0  0  0
 14 15  1  0  0  0  0
 14 17  1  0  0  0  0
 14 26  1  1  0  0  0
 15 16  2  0  0  0  0
 17 18  1  0  0  0  0
 17 36  1  0  0  0  0
 17 37  1  0  0  0  0
 18 19  2  0  0  0  0
 18 24  1  0  0  0  0
 19 20  1  0  0  0  0
 19 38  1  0  0  0  0
 20 21  2  0  0  0  0
 20 39  1  0  0  0  0
 21 22  1  0  0  0  0
 21 23  1  0  0  0  0
 22 40  1  0  0  0  0
 23 24  2  0  0  0  0
 23 41  1  0  0  0  0
 24 42  1  0  0  0  0
M  END
>  <DRUGBANK_ID>
DB08761

>  <COMMON_NAME>
(3S,6S)-3,6-bis(4-hydroxybenzyl)piperazine-2,5-dione

$$$$
