
 OpenBabel10282417072D

 91 93  0  0  0  0  0  0  0  0999 V2000
    1.8849    0.1892    0.0000 O   0  0  0  0  0  0  0  0  0  0  0  0
    3.8519   -2.4604    0.0000 O   0  0  0  0  0  0  0  0  0  0  0  0
    0.9014    1.5141    0.0000 O   0  0  0  0  0  0  0  0  0  0  0  0
    3.5240    0.3785    0.0000 O   0  0  0  0  0  0  0  0  0  0  0  0
   -0.5737   -0.0946    0.0000 O   0  0  0  0  0  0  0  0  0  0  0  0
   -1.5572    1.2302    0.0000 O   0  0  0  0  0  0  0  0  0  0  0  0
    1.7210    1.6087    0.0000 O   0  0  0  0  0  0  0  0  0  0  0  0
   -0.4098    2.0819    0.0000 O   0  0  0  0  0  0  0  0  0  0  0  0
   -1.7211   -0.9463    0.0000 O   0  0  0  0  0  0  0  0  0  0  0  0
   -1.7211    2.6497    0.0000 O   0  0  0  0  0  0  0  0  0  0  0  0
    1.2292   -1.3248    0.0000 N   0  0  0  0  0  0  0  0  0  0  0  0
    2.2127   -2.6497    0.0000 N   0  0  0  0  0  0  0  0  0  0  0  0
    2.3766   -0.4731    0.0000 N   0  0  0  0  0  0  0  0  0  0  0  0
    3.6879   -1.0409    0.0000 N   0  0  0  0  0  0  0  0  0  0  0  0
    2.0488   -1.2302    0.0000 C   0  0  0  0  0  0  0  0  0  0  0  0
    0.9014   -2.0819    0.0000 C   0  0  0  0  0  0  0  0  0  0  0  0
    2.5405   -1.8926    0.0000 C   0  0  0  0  0  0  0  0  0  0  0  0
    1.3931   -2.7443    0.0000 C   0  0  0  0  0  0  0  0  0  0  0  0
    3.3602   -1.7980    0.0000 C   0  0  0  0  0  0  0  0  0  0  0  0
    0.7375   -0.6624    0.0000 C   0  0  0  0  0  0  0  0  0  0  0  0
    0.0819   -2.1765    0.0000 C   0  0  0  0  0  0  0  0  0  0  0  0
    1.0653   -3.5014    0.0000 C   0  0  0  0  0  0  0  0  0  0  0  0
    1.0653    0.0946    0.0000 C   0  0  1  0  0  0  0  0  0  0  0  0
   -0.2459   -2.9336    0.0000 C   0  0  0  0  0  0  0  0  0  0  0  0
    0.2458   -3.5960    0.0000 C   0  0  0  0  0  0  0  0  0  0  0  0
    3.1962   -0.3785    0.0000 C   0  0  0  0  0  0  0  0  0  0  0  0
    0.5736    0.7570    0.0000 C   0  0  1  0  0  0  0  0  0  0  0  0
   -0.2459    0.6624    0.0000 C   0  0  1  0  0  0  0  0  0  0  0  0
   -1.0654   -3.0282    0.0000 C   0  0  0  0  0  0  0  0  0  0  0  0
   -0.0819   -4.3531    0.0000 C   0  0  0  0  0  0  0  0  0  0  0  0
    2.2127    0.9463    0.0000 C   0  0  0  0  0  0  0  0  0  0  0  0
   -0.7376    1.3248    0.0000 C   0  0  0  0  0  0  0  0  0  0  0  0
    0.4097    2.1765    0.0000 C   0  0  0  0  0  0  0  0  0  0  0  0
   -1.3932   -0.1892    0.0000 C   0  0  0  0  0  0  0  0  0  0  0  0
    3.0323    1.0409    0.0000 C   0  0  0  0  0  0  0  0  0  0  0  0
    0.7375    2.9336    0.0000 C   0  0  0  0  0  0  0  0  0  0  0  0
   -2.0489    1.8926    0.0000 C   0  0  0  0  0  0  0  0  0  0  0  0
   -1.8850    0.4731    0.0000 C   0  0  0  0  0  0  0  0  0  0  0  0
    3.3602    1.7980    0.0000 C   0  0  0  0  0  0  0  0  0  0  0  0
    0.2458    3.5960    0.0000 C   0  0  0  0  0  0  0  0  0  0  0  0
   -2.8684    1.7980    0.0000 C   0  0  0  0  0  0  0  0  0  0  0  0
   -2.7045    0.3785    0.0000 C   0  0  0  0  0  0  0  0  0  0  0  0
    4.1796    1.8926    0.0000 C   0  0  0  0  0  0  0  0  0  0  0  0
    0.5736    4.3531    0.0000 C   0  0  0  0  0  0  0  0  0  0  0  0
   -3.3602    2.4604    0.0000 C   0  0  0  0  0  0  0  0  0  0  0  0
   -3.1963    1.0409    0.0000 C   0  0  0  0  0  0  0  0  0  0  0  0
   -4.1797    2.3658    0.0000 C   0  0  0  0  0  0  0  0  0  0  0  0
    4.6659   -0.9279    0.0000 H   0  0  0  0  0  0  0  0  0  0  0  0
   -0.3254   -0.7851    0.0000 H   0  0  0  0  0  0  0  0  0  0  0  0
    0.0997    0.1968    0.0000 H   0  0  0  0  0  0  0  0  0  0  0  0
   -0.5332   -1.3479    0.0000 H   0  0  0  0  0  0  0  0  0  0  0  0
    1.6804   -4.3300    0.0000 H   0  0  0  0  0  0  0  0  0  0  0  0
    1.7030   -0.7646    0.0000 H   0  0  0  0  0  0  0  0  0  0  0  0
    1.6365    0.8798    0.0000 H   0  0  0  0  0  0  0  0  0  0  0  0
    0.3918   -0.1968    0.0000 H   0  0  0  0  0  0  0  0  0  0  0  0
   -1.7031   -2.1690    0.0000 H   0  0  0  0  0  0  0  0  0  0  0  0
   -1.4906   -4.0101    0.0000 H   0  0  0  0  0  0  0  0  0  0  0  0
   -2.1283   -3.1509    0.0000 H   0  0  0  0  0  0  0  0  0  0  0  0
   -1.1448   -4.4760    0.0000 H   0  0  0  0  0  0  0  0  0  0  0  0
    0.5560   -5.2122    0.0000 H   0  0  0  0  0  0  0  0  0  0  0  0
   -0.5069   -5.3351    0.0000 H   0  0  0  0  0  0  0  0  0  0  0  0
   -0.3124    2.3067    0.0000 H   0  0  0  0  0  0  0  0  0  0  0  0
    0.3253    1.4475    0.0000 H   0  0  0  0  0  0  0  0  0  0  0  0
    3.6700    0.1817    0.0000 H   0  0  0  0  0  0  0  0  0  0  0  0
    4.0952    1.1636    0.0000 H   0  0  0  0  0  0  0  0  0  0  0  0
    1.8004    3.0564    0.0000 H   0  0  0  0  0  0  0  0  0  0  0  0
    1.1627    3.9155    0.0000 H   0  0  0  0  0  0  0  0  0  0  0  0
   -1.4599    1.4550    0.0000 H   0  0  0  0  0  0  0  0  0  0  0  0
   -2.5228    1.3323    0.0000 H   0  0  0  0  0  0  0  0  0  0  0  0
    2.7225    2.6572    0.0000 H   0  0  0  0  0  0  0  0  0  0  0  0
    3.7854    2.7799    0.0000 H   0  0  0  0  0  0  0  0  0  0  0  0
   -0.8171    3.4732    0.0000 H   0  0  0  0  0  0  0  0  0  0  0  0
   -0.3920    4.4551    0.0000 H   0  0  0  0  0  0  0  0  0  0  0  0
   -3.2935    0.8161    0.0000 H   0  0  0  0  0  0  0  0  0  0  0  0
   -3.9313    1.6752    0.0000 H   0  0  0  0  0  0  0  0  0  0  0  0
   -3.1296   -0.6034    0.0000 H   0  0  0  0  0  0  0  0  0  0  0  0
   -3.7674    0.2557    0.0000 H   0  0  0  0  0  0  0  0  0  0  0  0
    4.8173    1.0334    0.0000 H   0  0  0  0  0  0  0  0  0  0  0  0
    4.6048    2.8745    0.0000 H   0  0  0  0  0  0  0  0  0  0  0  0
    5.2425    2.0153    0.0000 H   0  0  0  0  0  0  0  0  0  0  0  0
    1.6365    4.4759    0.0000 H   0  0  0  0  0  0  0  0  0  0  0  0
   -0.0642    5.2122    0.0000 H   0  0  0  0  0  0  0  0  0  0  0  0
    0.9987    5.3350    0.0000 H   0  0  0  0  0  0  0  0  0  0  0  0
   -2.9351    3.4423    0.0000 H   0  0  0  0  0  0  0  0  0  0  0  0
   -3.9980    3.3196    0.0000 H   0  0  0  0  0  0  0  0  0  0  0  0
   -2.7712    2.0228    0.0000 H   0  0  0  0  0  0  0  0  0  0  0  0
   -4.2592    0.9181    0.0000 H   0  0  0  0  0  0  0  0  0  0  0  0
   -3.8341    1.9000    0.0000 H   0  0  0  0  0  0  0  0  0  0  0  0
   -4.8174    3.2250    0.0000 H   0  0  0  0  0  0  0  0  0  0  0  0
   -4.6049    1.3839    0.0000 H   0  0  0  0  0  0  0  0  0  0  0  0
   -5.2426    2.2431    0.0000 H   0  0  0  0  0  0  0  0  0  0  0  0
  1 31  1  0  0  0  0
  2 19  2  0  0  0  0
  3 33  1  0  0  0  0
  4 26  2  0  0  0  0
  5 34  1  0  0  0  0
  6 32  1  0  0  0  0
  6 37  1  0  0  0  0
  7 31  2  0  0  0  0
  8 33  2  0  0  0  0
  9 34  2  0  0  0  0
 10 37  2  0  0  0  0
 11 15  1  0  0  0  0
 11 16  1  0  0  0  0
 11 20  1  0  0  0  0
 12 17  2  0  0  0  0
 12 18  1  0  0  0  0
 13 15  2  0  0  0  0
 13 26  1  0  0  0  0
 14 19  1  0  0  0  0
 14 26  1  0  0  0  0
 14 48  1  0  0  0  0
 15 17  1  0  0  0  0
 16 18  2  0  0  0  0
 16 21  1  0  0  0  0
 17 19  1  0  0  0  0
 18 22  1  0  0  0  0
 20 23  1  0  0  0  0
 20 49  1  0  0  0  0
 20 50  1  0  0  0  0
 21 24  2  0  0  0  0
 21 51  1  0  0  0  0
 22 25  2  0  0  0  0
 22 52  1  0  0  0  0
 23  1  1  0  0  0  0
 23 27  1  0  0  0  0
 23 53  1  6  0  0  0
 24 25  1  0  0  0  0
 24 29  1  0  0  0  0
 25 30  1  0  0  0  0
 27  3  1  0  0  0  0
 27 28  1  0  0  0  0
 27 54  1  6  0  0  0
 28  5  1  0  0  0  0
 28 32  1  0  0  0  0
 28 55  1  1  0  0  0
 29 56  1  0  0  0  0
 29 57  1  0  0  0  0
 29 58  1  0  0  0  0
 30 59  1  0  0  0  0
 30 60  1  0  0  0  0
 30 61  1  0  0  0  0
 31 35  1  0  0  0  0
 32 62  1  0  0  0  0
 32 63  1  0  0  0  0
 33 36  1  0  0  0  0
 34 38  1  0  0  0  0
 35 39  1  0  0  0  0
 35 64  1  0  0  0  0
 35 65  1  0  0  0  0
 36 40  1  0  0  0  0
 36 66  1  0  0  0  0
 36 67  1  0  0  0  0
 37 41  1  0  0  0  0
 38 42  1  0  0  0  0
 38 68  1  0  0  0  0
 38 69  1  0  0  0  0
 39 43  1  0  0  0  0
 39 70  1  0  0  0  0
 39 71  1  0  0  0  0
 40 44  1  0  0  0  0
 40 72  1  0  0  0  0
 40 73  1  0  0  0  0
 41 45  1  0  0  0  0
 41 74  1  0  0  0  0
 41 75  1  0  0  0  0
 42 46  1  0  0  0  0
 42 76  1  0  0  0  0
 42 77  1  0  0  0  0
 43 78  1  0  0  0  0
 43 79  1  0  0  0  0
 43 80  1  0  0  0  0
 44 81  1  0  0  0  0
 44 82  1  0  0  0  0
 44 83  1  0  0  0  0
 45 47  1  0  0  0  0
 45 84  1  0  0  0  0
 45 85  1  0  0  0  0
 46 86  1  0  0  0  0
 46 87  1  0  0  0  0
 46 88  1  0  0  0  0
 47 89  1  0  0  0  0
 47 90  1  0  0  0  0
 47 91  1  0  0  0  0
M  END
>  <DRUGBANK_ID>
DB14727

>  <COMMON_NAME>
Riboflavin tetrabutyrate

>  <CAS_NUMBER>
752-56-7

>  <UNII>
F211C9MSGY

>  <SYNONYMS>
Riboflavin 2',3',4',5'-tetrabutyrate; Riboflavin tetrabutyrate; Riboflavin, 2',3',4',5'-tetrabutanoate; Vitamin B2 tetrabutyrate

$$$$
