
 OpenBabel10282417072D

 59 63  0  0  1  0  0  0  0  0999 V2000
   -4.0767   -3.1495    0.0000 C   0  0  0  0  0  0  0  0  0  0  0  0
   -3.2697   -2.9779    0.0000 C   0  0  0  0  0  0  0  0  0  0  0  0
   -2.7177   -3.5910    0.0000 O   0  0  0  0  0  0  0  0  0  0  0  0
   -3.0148   -2.1933    0.0000 N   0  0  0  0  0  0  0  0  0  0  0  0
   -3.4997   -1.5259    0.0000 C   0  0  0  0  0  0  0  0  0  0  0  0
   -3.0148   -0.8584    0.0000 C   0  0  0  0  0  0  0  0  0  0  0  0
   -3.7293   -0.4459    0.0000 F   0  0  0  0  0  0  0  0  0  0  0  0
   -2.6792   -0.1048    0.0000 F   0  0  0  0  0  0  0  0  0  0  0  0
   -2.2302   -1.1134    0.0000 C   0  0  0  0  0  0  0  0  0  0  0  0
   -1.5157   -0.7009    0.0000 C   0  0  0  0  0  0  0  0  0  0  0  0
   -1.5157    0.1240    0.0000 S   0  0  0  0  0  0  0  0  0  0  0  0
   -0.8012    0.5365    0.0000 C   0  0  0  0  0  0  0  0  0  0  0  0
   -0.8012    1.3615    0.0000 N   0  0  0  0  0  0  0  0  0  0  0  0
   -0.0868    1.7740    0.0000 C   0  0  0  0  0  0  0  0  0  0  0  0
    0.6276    1.3615    0.0000 C   0  0  0  0  0  0  0  0  0  0  0  0
    0.6276    0.5365    0.0000 N   0  0  0  0  0  0  0  0  0  0  0  0
   -0.0868    0.1240    0.0000 C   0  0  0  0  0  0  0  0  0  0  0  0
   -0.0868   -0.7009    0.0000 N   0  0  0  0  0  0  0  0  0  0  0  0
    1.3421    1.7740    0.0000 N   0  0  0  0  0  0  0  0  0  0  0  0
    1.3421    2.5990    0.0000 C   0  0  0  0  0  0  0  0  0  0  0  0
    2.0565    3.0115    0.0000 C   0  0  0  0  0  0  0  0  0  0  0  0
    2.7710    2.5990    0.0000 C   0  0  0  0  0  0  0  0  0  0  0  0
    2.8572    3.4195    0.0000 C   0  0  0  0  0  0  0  0  0  0  0  0
    3.6642    3.5910    0.0000 O   0  0  0  0  0  0  0  0  0  0  0  0
    4.0767    2.8766    0.0000 C   0  0  0  0  0  0  0  0  0  0  0  0
    3.5247    2.2635    0.0000 C   0  0  1  0  0  0  0  0  0  0  0  0
    3.6962    1.4565    0.0000 N   0  0  0  0  0  0  0  0  0  0  0  0
    2.7710    1.7740    0.0000 C   0  0  0  0  0  0  0  0  0  0  0  0
    2.0565    1.3615    0.0000 C   0  0  0  0  0  0  0  0  0  0  0  0
   -0.8012   -1.1134    0.0000 C   0  0  0  0  0  0  0  0  0  0  0  0
   -0.8012   -1.9384    0.0000 C   0  0  0  0  0  0  0  0  0  0  0  0
   -1.5157   -2.3509    0.0000 C   0  0  0  0  0  0  0  0  0  0  0  0
   -2.2302   -1.9384    0.0000 C   0  0  0  0  0  0  0  0  0  0  0  0
   -4.7927   -2.3544    0.0000 H   0  0  0  0  0  0  0  0  0  0  0  0
   -4.4073   -4.1672    0.0000 H   0  0  0  0  0  0  0  0  0  0  0  0
   -5.1233   -3.3720    0.0000 H   0  0  0  0  0  0  0  0  0  0  0  0
   -4.5697   -1.5259    0.0000 H   0  0  0  0  0  0  0  0  0  0  0  0
   -3.9855   -0.5725    0.0000 H   0  0  0  0  0  0  0  0  0  0  0  0
   -0.0868    2.8060    0.0000 H   0  0  0  0  0  0  0  0  0  0  0  0
   -0.9394   -1.1932    0.0000 H   0  0  0  0  0  0  0  0  0  0  0  0
    0.7658   -1.1931    0.0000 H   0  0  0  0  0  0  0  0  0  0  0  0
    0.4154    3.1340    0.0000 H   0  0  0  0  0  0  0  0  0  0  0  0
    1.3421    3.6690    0.0000 H   0  0  0  0  0  0  0  0  0  0  0  0
    2.0565    4.0815    0.0000 H   0  0  0  0  0  0  0  0  0  0  0  0
    2.9831    3.5465    0.0000 H   0  0  0  0  0  0  0  0  0  0  0  0
    2.0620    4.1355    0.0000 H   0  0  0  0  0  0  0  0  0  0  0  0
    3.1342    4.4530    0.0000 H   0  0  0  0  0  0  0  0  0  0  0  0
    5.1408    2.7648    0.0000 H   0  0  0  0  0  0  0  0  0  0  0  0
    4.4602    1.8777    0.0000 H   0  0  0  0  0  0  0  0  0  0  0  0
    2.6932    1.5901    0.0000 H   0  0  0  0  0  0  0  0  0  0  0  0
    2.9382    0.7740    0.0000 H   0  0  0  0  0  0  0  0  0  0  0  0
    4.6663    1.1413    0.0000 H   0  0  0  0  0  0  0  0  0  0  0  0
    3.6976    1.2390    0.0000 H   0  0  0  0  0  0  0  0  0  0  0  0
    2.7710    0.7040    0.0000 H   0  0  0  0  0  0  0  0  0  0  0  0
    2.0565    0.2915    0.0000 H   0  0  0  0  0  0  0  0  0  0  0  0
    2.9831    0.8265    0.0000 H   0  0  0  0  0  0  0  0  0  0  0  0
    0.0925   -0.5974    0.0000 H   0  0  0  0  0  0  0  0  0  0  0  0
    0.0925   -2.4544    0.0000 H   0  0  0  0  0  0  0  0  0  0  0  0
   -1.5157   -3.3829    0.0000 H   0  0  0  0  0  0  0  0  0  0  0  0
  1  2  1  0  0  0  0
  1 34  1  0  0  0  0
  1 35  1  0  0  0  0
  1 36  1  0  0  0  0
  2  3  2  0  0  0  0
  2  4  1  0  0  0  0
  4  5  1  0  0  0  0
  4 33  1  0  0  0  0
  5  6  1  0  0  0  0
  5 37  1  0  0  0  0
  5 38  1  0  0  0  0
  6  7  1  0  0  0  0
  6  8  1  0  0  0  0
  6  9  1  0  0  0  0
  9 10  2  0  0  0  0
  9 33  1  0  0  0  0
 10 11  1  0  0  0  0
 10 30  1  0  0  0  0
 11 12  1  0  0  0  0
 12 13  2  0  0  0  0
 12 17  1  0  0  0  0
 13 14  1  0  0  0  0
 14 15  2  0  0  0  0
 14 39  1  0  0  0  0
 15 16  1  0  0  0  0
 15 19  1  0  0  0  0
 16 17  2  0  0  0  0
 17 18  1  0  0  0  0
 18 40  1  0  0  0  0
 18 41  1  0  0  0  0
 19 20  1  0  0  0  0
 19 29  1  0  0  0  0
 20 21  1  0  0  0  0
 20 42  1  0  0  0  0
 20 43  1  0  0  0  0
 21 22  1  0  0  0  0
 21 44  1  0  0  0  0
 21 45  1  0  0  0  0
 22 23  1  0  0  0  0
 22 28  1  0  0  0  0
 23 24  1  0  0  0  0
 23 46  1  0  0  0  0
 23 47  1  0  0  0  0
 24 25  1  0  0  0  0
 25 48  1  0  0  0  0
 25 49  1  0  0  0  0
 26 22  1  0  0  0  0
 26 25  1  0  0  0  0
 26 27  1  0  0  0  0
 26 50  1  6  0  0  0
 27 51  1  0  0  0  0
 27 52  1  0  0  0  0
 28 29  1  0  0  0  0
 28 53  1  0  0  0  0
 28 54  1  0  0  0  0
 29 55  1  0  0  0  0
 29 56  1  0  0  0  0
 30 31  2  0  0  0  0
 30 57  1  0  0  0  0
 31 32  1  0  0  0  0
 31 58  1  0  0  0  0
 32 33  2  0  0  0  0
 32 59  1  0  0  0  0
M  END
>  <DRUGBANK_ID>
DB17131

>  <COMMON_NAME>
JAB-3068

>  <UNII>
V6Q7413SA8

>  <SYNONYMS>
JAB3068

$$$$
