LID
 OpenBabel10282417072D

 43 46  0  0  0  0  0  0  0  0999 V2000
    1.3513   -0.2870    0.0000 C   0  0  0  0  0  0  0  0  0  0  0  0
   -1.3472   -0.6995    0.0000 C   0  0  0  0  0  0  0  0  0  0  0  0
   -1.1172    0.7525    0.0000 C   0  0  0  0  0  0  0  0  0  0  0  0
   -2.1722   -0.6995    0.0000 N   0  0  0  0  0  0  0  0  0  0  0  0
   -2.5847    0.0149    0.0000 C   0  0  0  0  0  0  0  0  0  0  0  0
    2.7802   -0.2870    0.0000 C   0  0  0  0  0  0  0  0  0  0  0  0
    3.4947   -1.5245    0.0000 C   0  0  0  0  0  0  0  0  0  0  0  0
    3.4947    0.1255    0.0000 C   0  0  0  0  0  0  0  0  0  0  0  0
   -2.1722    0.7294    0.0000 C   0  0  0  0  0  0  0  0  0  0  0  0
   -2.5847    1.4439    0.0000 C   0  0  0  0  0  0  0  0  0  0  0  0
   -3.8222    0.7294    0.0000 C   0  0  0  0  0  0  0  0  0  0  0  0
    2.0657   -1.5245    0.0000 F   0  0  0  0  0  0  0  0  0  0  0  0
    2.7802   -1.1120    0.0000 C   0  0  0  0  0  0  0  0  0  0  0  0
    4.2092   -1.1120    0.0000 C   0  0  0  0  0  0  0  0  0  0  0  0
    4.2092   -0.2870    0.0000 C   0  0  0  0  0  0  0  0  0  0  0  0
    3.4947    0.9505    0.0000 F   0  0  0  0  0  0  0  0  0  0  0  0
    2.0657    0.1255    0.0000 N   0  0  0  0  0  0  0  0  0  0  0  0
    1.3513   -1.1120    0.0000 N   0  0  0  0  0  0  0  0  0  0  0  0
    0.6368    0.1255    0.0000 N   0  0  0  0  0  0  0  0  0  0  0  0
   -0.0777   -0.2870    0.0000 C   0  0  0  0  0  0  0  0  0  0  0  0
   -0.8623   -0.0321    0.0000 N   0  0  0  0  0  0  0  0  0  0  0  0
   -0.5652    1.3656    0.0000 C   0  0  0  0  0  0  0  0  0  0  0  0
   -0.0777   -1.1120    0.0000 C   0  0  0  0  0  0  0  0  0  0  0  0
    0.6368   -1.5245    0.0000 C   0  0  0  0  0  0  0  0  0  0  0  0
   -0.8623   -1.3670    0.0000 N   0  0  0  0  0  0  0  0  0  0  0  0
   -3.4097    1.4439    0.0000 C   0  0  0  0  0  0  0  0  0  0  0  0
   -3.4097    0.0149    0.0000 C   0  0  0  0  0  0  0  0  0  0  0  0
   -3.8222   -0.6995    0.0000 Cl  0  0  0  0  0  0  0  0  0  0  0  0
   -2.1638    0.9750    0.0000 H   0  0  0  0  0  0  0  0  0  0  0  0
   -1.4479    1.7701    0.0000 H   0  0  0  0  0  0  0  0  0  0  0  0
   -2.6644   -1.5521    0.0000 H   0  0  0  0  0  0  0  0  0  0  0  0
    3.4947   -2.5565    0.0000 H   0  0  0  0  0  0  0  0  0  0  0  0
   -1.1402    0.7294    0.0000 H   0  0  0  0  0  0  0  0  0  0  0  0
   -2.0687    2.3376    0.0000 H   0  0  0  0  0  0  0  0  0  0  0  0
   -4.8542    0.7294    0.0000 H   0  0  0  0  0  0  0  0  0  0  0  0
    5.1029   -1.6280    0.0000 H   0  0  0  0  0  0  0  0  0  0  0  0
    5.1029    0.2290    0.0000 H   0  0  0  0  0  0  0  0  0  0  0  0
    2.0657    1.1100    0.0000 H   0  0  0  0  0  0  0  0  0  0  0  0
    0.4814    1.1432    0.0000 H   0  0  0  0  0  0  0  0  0  0  0  0
   -0.8959    2.3832    0.0000 H   0  0  0  0  0  0  0  0  0  0  0  0
    0.1507    2.1608    0.0000 H   0  0  0  0  0  0  0  0  0  0  0  0
    0.6368   -2.5565    0.0000 H   0  0  0  0  0  0  0  0  0  0  0  0
   -3.9257    2.3376    0.0000 H   0  0  0  0  0  0  0  0  0  0  0  0
  1 17  1  0  0  0  0
  1 18  1  0  0  0  0
  1 19  2  0  0  0  0
  2  4  1  0  0  0  0
  2 21  1  0  0  0  0
  2 25  2  0  0  0  0
  3 21  1  0  0  0  0
  3 22  1  0  0  0  0
  3 29  1  0  0  0  0
  3 30  1  0  0  0  0
  4  5  1  0  0  0  0
  4 31  1  0  0  0  0
  5  9  2  0  0  0  0
  5 27  1  0  0  0  0
  6  8  2  0  0  0  0
  6 13  1  0  0  0  0
  6 17  1  0  0  0  0
  7 13  2  0  0  0  0
  7 14  1  0  0  0  0
  7 32  1  0  0  0  0
  8 15  1  0  0  0  0
  8 16  1  0  0  0  0
  9 10  1  0  0  0  0
  9 33  1  0  0  0  0
 10 26  2  0  0  0  0
 10 34  1  0  0  0  0
 11 26  1  0  0  0  0
 11 27  2  0  0  0  0
 11 35  1  0  0  0  0
 12 13  1  0  0  0  0
 14 15  2  0  0  0  0
 14 36  1  0  0  0  0
 15 37  1  0  0  0  0
 17 38  1  0  0  0  0
 18 24  2  0  0  0  0
 19 20  1  0  0  0  0
 20 21  1  0  0  0  0
 20 23  2  0  0  0  0
 22 39  1  0  0  0  0
 22 40  1  0  0  0  0
 22 41  1  0  0  0  0
 23 24  1  0  0  0  0
 23 25  1  0  0  0  0
 24 42  1  0  0  0  0
 26 43  1  0  0  0  0
 27 28  1  0  0  0  0
M  END
>  <DRUGBANK_ID>
DB08096

>  <COMMON_NAME>
8-(2-CHLOROPHENYLAMINO)-2-(2,6-DIFLUOROPHENYLAMINO)-9-ETHYL-9H-PURINE-1,7-DIIUM

$$$$
