
 OpenBabel10282417072D

 16 15  0  0  0  0  0  0  0  0999 V2000
    0.3546    0.2066    0.0000 C   0  0  2  0  0  0  0  0  0  0  0  0
   -0.3545   -0.2065    0.0000 C   0  0  1  0  0  0  0  0  0  0  0  0
    1.0708   -0.2030    0.0000 C   0  0  0  0  0  0  0  0  0  0  0  0
    0.3546    1.0329    0.0000 S   0  0  0  0  0  0  0  0  0  0  0  0
   -1.0707    0.2031    0.0000 C   0  0  0  0  0  0  0  0  0  0  0  0
   -0.3545   -1.0329    0.0000 S   0  0  0  0  0  0  0  0  0  0  0  0
    1.7870    0.2100    0.0000 O   0  0  0  0  0  0  0  0  0  0  0  0
    1.0743   -1.0294    0.0000 O   0  0  0  0  0  0  0  0  0  0  0  0
   -1.7870   -0.2100    0.0000 O   0  0  0  0  0  0  0  0  0  0  0  0
   -1.0742    1.0294    0.0000 O   0  0  0  0  0  0  0  0  0  0  0  0
   -0.5731    0.7398    0.0000 H   0  0  0  0  0  0  0  0  0  0  0  0
    0.5732   -0.7397    0.0000 H   0  0  0  0  0  0  0  0  0  0  0  0
    1.5324    1.7129    0.0000 H   0  0  0  0  0  0  0  0  0  0  0  0
   -1.5323   -1.7129    0.0000 H   0  0  0  0  0  0  0  0  0  0  0  0
    2.5982   -0.2589    0.0000 H   0  0  0  0  0  0  0  0  0  0  0  0
   -2.5982    0.2589    0.0000 H   0  0  0  0  0  0  0  0  0  0  0  0
  1  2  1  0  0  0  0
  1  3  1  0  0  0  0
  1  4  1  0  0  0  0
  1 11  1  6  0  0  0
  2  5  1  0  0  0  0
  2  6  1  0  0  0  0
  2 12  1  1  0  0  0
  3  7  1  0  0  0  0
  3  8  2  0  0  0  0
  4 13  1  0  0  0  0
  5  9  1  0  0  0  0
  5 10  2  0  0  0  0
  6 14  1  0  0  0  0
  7 15  1  0  0  0  0
  9 16  1  0  0  0  0
M  END
>  <DRUGBANK_ID>
DB00566

>  <SECONDARY_ACCESSION_NUMBERS>
APRD01236

>  <COMMON_NAME>
Succimer

>  <CAS_NUMBER>
304-55-2

>  <UNII>
DX1U2629QE

>  <SYNONYMS>
DIM-SA; DMS; DMS-A; DMSA; meso-2,3-Dimercaptobernsteins√§ure; meso-2,3-dimercaptosuccinic acid; meso-dimercaptosuccinic acid; Succimer; succimero

$$$$
