
 OpenBabel10282417072D

 83 88  0  0  1  0  0  0  0  0999 V2000
   12.1460    6.1875    0.0000 C   0  0  0  0  0  0  0  0  0  0  0  0
    9.2881    4.5375    0.0000 C   0  0  0  0  0  0  0  0  0  0  0  0
    1.4289    2.4750    0.0000 C   0  0  0  0  0  0  0  0  0  0  0  0
    1.4289    3.3000    0.0000 C   0  0  0  0  0  0  0  0  0  0  0  0
    2.1434    2.0625    0.0000 C   0  0  0  0  0  0  0  0  0  0  0  0
    2.1434    3.7125    0.0000 C   0  0  0  0  0  0  0  0  0  0  0  0
   10.0026    4.9500    0.0000 C   0  0  0  0  0  0  0  0  0  0  0  0
    7.1447    5.7750    0.0000 C   0  0  0  0  0  0  0  0  0  0  0  0
    6.4302    2.0625    0.0000 C   0  0  0  0  0  0  0  0  0  0  0  0
    7.1447    3.3000    0.0000 C   0  0  0  0  0  0  0  0  0  0  0  0
    7.1946    1.0469    0.0000 C   0  0  0  0  0  0  0  0  0  0  0  0
   11.4315    5.7750    0.0000 C   0  0  1  0  0  0  0  0  0  0  0  0
    8.5737    4.9500    0.0000 C   0  0  1  0  0  0  0  0  0  0  0  0
    2.8579    2.4750    0.0000 C   0  0  0  0  0  0  0  0  0  0  0  0
    2.8579    3.3000    0.0000 C   0  0  0  0  0  0  0  0  0  0  0  0
    5.7158    2.4750    0.0000 C   0  0  0  0  0  0  0  0  0  0  0  0
   10.7171    4.5375    0.0000 C   0  0  1  0  0  0  0  0  0  0  0  0
    7.8592    6.1875    0.0000 C   0  0  1  0  0  0  0  0  0  0  0  0
    6.4302    3.7125    0.0000 C   0  0  1  0  0  0  0  0  0  0  0  0
    7.5819    1.7754    0.0000 C   0  0  0  0  0  0  0  0  0  0  0  0
   10.0026    5.7750    0.0000 C   0  0  1  0  0  0  0  0  0  0  0  0
    7.1447    4.9500    0.0000 C   0  0  1  0  0  0  0  0  0  0  0  0
    5.7158    3.3000    0.0000 C   0  0  0  0  0  0  0  0  0  0  0  0
    4.2868    2.4750    0.0000 C   0  0  0  0  0  0  0  0  0  0  0  0
    4.2868    3.3000    0.0000 C   0  0  0  0  0  0  0  0  0  0  0  0
   11.4315    4.9500    0.0000 C   0  0  2  0  0  0  0  0  0  0  0  0
    3.5724    2.0625    0.0000 C   0  0  0  0  0  0  0  0  0  0  0  0
    3.5724    3.7125    0.0000 C   0  0  0  0  0  0  0  0  0  0  0  0
    5.0013    2.0625    0.0000 C   0  0  0  0  0  0  0  0  0  0  0  0
    5.0013    3.7125    0.0000 C   0  0  0  0  0  0  0  0  0  0  0  0
    8.5737    5.7750    0.0000 C   0  0  2  0  0  0  0  0  0  0  0  0
    7.1447    2.4750    0.0000 C   0  0  2  0  0  0  0  0  0  0  0  0
   10.7171    3.7125    0.0000 N   0  0  0  0  0  0  0  0  0  0  0  0
    6.3701    1.0181    0.0000 O   0  0  0  0  0  0  0  0  0  0  0  0
    7.8592    7.0125    0.0000 O   0  0  0  0  0  0  0  0  0  0  0  0
    8.4064    1.8042    0.0000 O   0  0  0  0  0  0  0  0  0  0  0  0
   12.1460    4.5375    0.0000 O   0  0  0  0  0  0  0  0  0  0  0  0
    3.5724    1.2375    0.0000 O   0  0  0  0  0  0  0  0  0  0  0  0
    3.5724    4.5375    0.0000 O   0  0  0  0  0  0  0  0  0  0  0  0
    5.0013    1.2375    0.0000 O   0  0  0  0  0  0  0  0  0  0  0  0
    5.0013    4.5375    0.0000 O   0  0  0  0  0  0  0  0  0  0  0  0
    7.9692    2.4462    0.0000 O   0  0  0  0  0  0  0  0  0  0  0  0
   10.7171    6.1875    0.0000 O   0  0  0  0  0  0  0  0  0  0  0  0
    7.8592    4.5375    0.0000 O   0  0  0  0  0  0  0  0  0  0  0  0
    6.4302    4.5375    0.0000 O   0  0  0  0  0  0  0  0  0  0  0  0
    9.2881    6.1875    0.0000 O   0  0  0  0  0  0  0  0  0  0  0  0
   12.2440    5.6317    0.0000 H   0  0  0  0  0  0  0  0  0  0  0  0
    9.2881    5.3625    0.0000 H   0  0  0  0  0  0  0  0  0  0  0  0
   10.0026    4.1250    0.0000 H   0  0  0  0  0  0  0  0  0  0  0  0
    7.1447    6.6000    0.0000 H   0  0  0  0  0  0  0  0  0  0  0  0
    7.1447    4.1250    0.0000 H   0  0  0  0  0  0  0  0  0  0  0  0
    9.4723    5.1430    0.0000 H   0  0  0  0  0  0  0  0  0  0  0  0
    6.4302    5.3625    0.0000 H   0  0  0  0  0  0  0  0  0  0  0  0
   12.2440    5.0933    0.0000 H   0  0  0  0  0  0  0  0  0  0  0  0
    9.1040    5.1430    0.0000 H   0  0  0  0  0  0  0  0  0  0  0  0
   13.0726    5.6525    0.0000 H   0  0  0  0  0  0  0  0  0  0  0  0
   12.1460    7.2575    0.0000 H   0  0  0  0  0  0  0  0  0  0  0  0
   13.0727    6.7225    0.0000 H   0  0  0  0  0  0  0  0  0  0  0  0
    9.2881    3.4675    0.0000 H   0  0  0  0  0  0  0  0  0  0  0  0
   10.2148    5.0725    0.0000 H   0  0  0  0  0  0  0  0  0  0  0  0
   10.2147    4.0025    0.0000 H   0  0  0  0  0  0  0  0  0  0  0  0
    0.5352    1.9590    0.0000 H   0  0  0  0  0  0  0  0  0  0  0  0
    0.5352    3.8160    0.0000 H   0  0  0  0  0  0  0  0  0  0  0  0
    2.1434    1.0305    0.0000 H   0  0  0  0  0  0  0  0  0  0  0  0
    2.1434    4.7445    0.0000 H   0  0  0  0  0  0  0  0  0  0  0  0
    9.0760    4.4150    0.0000 H   0  0  0  0  0  0  0  0  0  0  0  0
    9.0760    5.4850    0.0000 H   0  0  0  0  0  0  0  0  0  0  0  0
    6.2181    6.3100    0.0000 H   0  0  0  0  0  0  0  0  0  0  0  0
    6.2181    5.2400    0.0000 H   0  0  0  0  0  0  0  0  0  0  0  0
    6.4302    0.9925    0.0000 H   0  0  0  0  0  0  0  0  0  0  0  0
    7.3568    1.5275    0.0000 H   0  0  0  0  0  0  0  0  0  0  0  0
    8.0713    3.8350    0.0000 H   0  0  0  0  0  0  0  0  0  0  0  0
    8.0713    2.7650    0.0000 H   0  0  0  0  0  0  0  0  0  0  0  0
    7.7616    0.1395    0.0000 H   0  0  0  0  0  0  0  0  0  0  0  0
    6.6923    0.1021    0.0000 H   0  0  0  0  0  0  0  0  0  0  0  0
    9.8338    3.2025    0.0000 H   0  0  0  0  0  0  0  0  0  0  0  0
   11.6004    3.2025    0.0000 H   0  0  0  0  0  0  0  0  0  0  0  0
    5.8561    1.8407    0.0000 H   0  0  0  0  0  0  0  0  0  0  0  0
    8.6992    7.4975    0.0000 H   0  0  0  0  0  0  0  0  0  0  0  0
   12.1460    3.5675    0.0000 H   0  0  0  0  0  0  0  0  0  0  0  0
    4.1898    0.7690    0.0000 H   0  0  0  0  0  0  0  0  0  0  0  0
    5.8128    5.0060    0.0000 H   0  0  0  0  0  0  0  0  0  0  0  0
    8.4246    1.5897    0.0000 H   0  0  0  0  0  0  0  0  0  0  0  0
  1 56  1  0  0  0  0
  1 57  1  0  0  0  0
  1 58  1  0  0  0  0
  2 59  1  0  0  0  0
  2 60  1  0  0  0  0
  2 61  1  0  0  0  0
  3 62  1  0  0  0  0
  4  3  2  0  0  0  0
  4 63  1  0  0  0  0
  5  3  1  0  0  0  0
  5 64  1  0  0  0  0
  6  4  1  0  0  0  0
  6 65  1  0  0  0  0
  7 66  1  0  0  0  0
  7 67  1  0  0  0  0
  8 68  1  0  0  0  0
  8 69  1  0  0  0  0
  9 70  1  0  0  0  0
  9 71  1  0  0  0  0
 10 72  1  0  0  0  0
 10 73  1  0  0  0  0
 11 74  1  0  0  0  0
 11 75  1  0  0  0  0
 12  1  1  0  0  0  0
 12 47  1  6  0  0  0
 13  2  1  0  0  0  0
 13 48  1  1  0  0  0
 14  5  2  0  0  0  0
 15  6  2  0  0  0  0
 15 14  1  0  0  0  0
 16  9  1  0  0  0  0
 17  7  1  0  0  0  0
 17 33  1  0  0  0  0
 17 49  1  6  0  0  0
 18  8  1  0  0  0  0
 18 35  1  0  0  0  0
 18 50  1  1  0  0  0
 19 10  1  0  0  0  0
 19 45  1  0  0  0  0
 19 51  1  6  0  0  0
 20 11  1  0  0  0  0
 21  7  1  0  0  0  0
 21 46  1  0  0  0  0
 21 52  1  1  0  0  0
 22  8  1  0  0  0  0
 22 45  1  0  0  0  0
 22 53  1  6  0  0  0
 23 16  1  0  0  0  0
 23 19  1  0  0  0  0
 25 24  2  0  0  0  0
 26 12  1  0  0  0  0
 26 17  1  0  0  0  0
 26 37  1  0  0  0  0
 26 54  1  6  0  0  0
 27 14  1  0  0  0  0
 27 24  1  0  0  0  0
 28 15  1  0  0  0  0
 28 25  1  0  0  0  0
 29 16  2  0  0  0  0
 29 24  1  0  0  0  0
 30 23  2  0  0  0  0
 30 25  1  0  0  0  0
 31 13  1  0  0  0  0
 31 18  1  0  0  0  0
 31 46  1  0  0  0  0
 31 55  1  1  0  0  0
 32  9  1  0  0  0  0
 32 10  1  0  0  0  0
 32 20  1  6  0  0  0
 32 42  1  0  0  0  0
 33 76  1  0  0  0  0
 33 77  1  0  0  0  0
 34 11  1  0  0  0  0
 34 78  1  0  0  0  0
 35 79  1  0  0  0  0
 36 20  2  0  0  0  0
 37 80  1  0  0  0  0
 38 27  2  0  0  0  0
 39 28  2  0  0  0  0
 40 29  1  0  0  0  0
 40 81  1  0  0  0  0
 41 30  1  0  0  0  0
 41 82  1  0  0  0  0
 42 83  1  0  0  0  0
 43 12  1  0  0  0  0
 43 21  1  0  0  0  0
 44 13  1  0  0  0  0
 44 22  1  0  0  0  0
M  END
>  <DRUGBANK_ID>
DB12410

>  <COMMON_NAME>
Sabarubicin

>  <CAS_NUMBER>
211100-13-9

>  <UNII>
XS499WOZ93

>  <SYNONYMS>
Sabarubicin

$$$$
