
 OpenBabel10282417072D

 34 36  0  0  0  0  0  0  0  0999 V2000
   -0.5649    2.8029    0.0000 C   0  0  0  0  0  0  0  0  0  0  0  0
   -1.2795    2.3904    0.0000 N   0  0  0  0  0  0  0  0  0  0  0  0
   -1.2795    1.5653    0.0000 C   0  0  0  0  0  0  0  0  0  0  0  0
   -0.5649    1.1528    0.0000 N   0  0  0  0  0  0  0  0  0  0  0  0
    0.1495    1.5653    0.0000 C   0  0  0  0  0  0  0  0  0  0  0  0
    0.1495    2.3904    0.0000 C   0  0  0  0  0  0  0  0  0  0  0  0
    0.9342    1.3103    0.0000 N   0  0  0  0  0  0  0  0  0  0  0  0
    0.9342    2.6452    0.0000 N   0  0  0  0  0  0  0  0  0  0  0  0
    1.4191    1.9778    0.0000 C   0  0  0  0  0  0  0  0  0  0  0  0
   -1.9940    1.1528    0.0000 N   0  0  0  0  0  0  0  0  0  0  0  0
    1.1891    0.5256    0.0000 C   0  0  0  0  0  0  0  0  0  0  0  0
    0.6370   -0.0874    0.0000 C   0  0  0  0  0  0  0  0  0  0  0  0
    1.1450   -0.7377    0.0000 O   0  0  0  0  0  0  0  0  0  0  0  0
    0.8360   -1.5026    0.0000 C   0  0  0  0  0  0  0  0  0  0  0  0
    1.3439   -2.1528    0.0000 P   0  0  0  0  0  0  0  0  0  0  0  0
   -0.0626    0.3497    0.0000 C   0  0  0  0  0  0  0  0  0  0  0  0
   -0.0913   -0.4748    0.0000 C   0  0  0  0  0  0  0  0  0  0  0  0
    0.6938   -2.6606    0.0000 O   0  0  0  0  0  0  0  0  0  0  0  0
    1.8518   -2.8028    0.0000 O   0  0  0  0  0  0  0  0  0  0  0  0
    1.9940   -1.6448    0.0000 O   0  0  0  0  0  0  0  0  0  0  0  0
   -0.5648    3.8349    0.0000 H   0  0  0  0  0  0  0  0  0  0  0  0
    2.4511    1.9778    0.0000 H   0  0  0  0  0  0  0  0  0  0  0  0
   -2.8466    1.6451    0.0000 H   0  0  0  0  0  0  0  0  0  0  0  0
   -1.9940    0.1683    0.0000 H   0  0  0  0  0  0  0  0  0  0  0  0
    2.2357    0.3030    0.0000 H   0  0  0  0  0  0  0  0  0  0  0  0
    1.5196   -0.4921    0.0000 H   0  0  0  0  0  0  0  0  0  0  0  0
   -0.2236   -1.6515    0.0000 H   0  0  0  0  0  0  0  0  0  0  0  0
    0.4351   -2.4947    0.0000 H   0  0  0  0  0  0  0  0  0  0  0  0
   -0.5650    1.2944    0.0000 H   0  0  0  0  0  0  0  0  0  0  0  0
   -1.1052    0.1089    0.0000 H   0  0  0  0  0  0  0  0  0  0  0  0
   -0.6582   -1.3823    0.0000 H   0  0  0  0  0  0  0  0  0  0  0  0
   -1.1146   -0.1621    0.0000 H   0  0  0  0  0  0  0  0  0  0  0  0
   -0.2055   -2.2971    0.0000 H   0  0  0  0  0  0  0  0  0  0  0  0
    1.4885   -3.7022    0.0000 H   0  0  0  0  0  0  0  0  0  0  0  0
  1  2  1  0  0  0  0
  1  6  2  0  0  0  0
  1 21  1  0  0  0  0
  2  3  2  0  0  0  0
  3  4  1  0  0  0  0
  3 10  1  0  0  0  0
  4  5  2  0  0  0  0
  5  6  1  0  0  0  0
  6  8  1  0  0  0  0
  7  5  1  0  0  0  0
  7  9  1  0  0  0  0
  7 11  1  0  0  0  0
  8  9  2  0  0  0  0
  9 22  1  0  0  0  0
 10 23  1  0  0  0  0
 10 24  1  0  0  0  0
 11 12  1  0  0  0  0
 11 25  1  0  0  0  0
 11 26  1  0  0  0  0
 12 13  1  0  0  0  0
 12 17  1  0  0  0  0
 13 14  1  0  0  0  0
 14 15  1  0  0  0  0
 14 27  1  0  0  0  0
 14 28  1  0  0  0  0
 15 18  1  0  0  0  0
 15 19  1  0  0  0  0
 15 20  2  0  0  0  0
 16 12  1  0  0  0  0
 16 29  1  0  0  0  0
 16 30  1  0  0  0  0
 17 16  1  0  0  0  0
 17 31  1  0  0  0  0
 17 32  1  0  0  0  0
 18 33  1  0  0  0  0
 19 34  1  0  0  0  0
M  END
>  <DRUGBANK_ID>
DB15671

>  <COMMON_NAME>
Besifovir

>  <CAS_NUMBER>
441785-25-7

>  <UNII>
4PLG22CQUU

>  <SYNONYMS>
Besifovir

$$$$
