
 OpenBabel10282417072D

 20 19  0  0  0  0  0  0  0  0999 V2000
   -1.5738   -1.3852    0.0000 Na  0  3  0  0  0  0  0  0  0  0  0  0
    0.6794    0.6326    0.0000 O   0  0  0  0  0  0  0  0  0  0  0  0
   -0.2180   -1.3045    0.0000 O   0  5  0  0  0  0  0  0  0  0  0  0
    1.5768   -1.3045    0.0000 O   0  0  0  0  0  0  0  0  0  0  0  0
    1.3468    0.1476    0.0000 C   0  0  0  0  0  0  0  0  0  0  0  0
    2.1316    0.4025    0.0000 O   0  0  0  0  0  0  0  0  0  0  0  0
    1.0919   -0.6369    0.0000 C   0  0  0  0  0  0  0  0  0  0  0  0
    0.2668   -0.6369    0.0000 C   0  0  0  0  0  0  0  0  0  0  0  0
   -2.1316    0.5601    0.0000 O   0  0  0  0  0  0  0  0  0  0  0  0
   -1.4171    0.1476    0.0000 C   0  0  0  0  0  0  0  0  0  0  0  0
   -0.7025    0.5601    0.0000 C   0  0  2  0  0  0  0  0  0  0  0  0
   -0.7025    1.3852    0.0000 O   0  0  0  0  0  0  0  0  0  0  0  0
    0.0120    0.1476    0.0000 C   0  0  1  0  0  0  0  0  0  0  0  0
   -0.7025   -0.2648    0.0000 H   0  0  0  0  0  0  0  0  0  0  0  0
    1.1956   -2.1604    0.0000 H   0  0  0  0  0  0  0  0  0  0  0  0
   -2.1316    1.5301    0.0000 H   0  0  0  0  0  0  0  0  0  0  0  0
   -1.4171   -0.9224    0.0000 H   0  0  0  0  0  0  0  0  0  0  0  0
   -0.4905   -0.3875    0.0000 H   0  0  0  0  0  0  0  0  0  0  0  0
   -1.6291    1.0951    0.0000 H   0  0  0  0  0  0  0  0  0  0  0  0
    0.1375    1.8702    0.0000 H   0  0  0  0  0  0  0  0  0  0  0  0
  2  5  1  0  0  0  0
  4 15  1  0  0  0  0
  5  6  2  0  0  0  0
  5  7  1  0  0  0  0
  7  4  1  0  0  0  0
  7  8  2  0  0  0  0
  8  3  1  0  0  0  0
  9 10  1  0  0  0  0
  9 16  1  0  0  0  0
 10 11  1  0  0  0  0
 10 17  1  0  0  0  0
 10 18  1  0  0  0  0
 11 13  1  0  0  0  0
 11 12  1  0  0  0  0
 11 19  1  1  0  0  0
 12 20  1  0  0  0  0
 13  2  1  0  0  0  0
 13  8  1  0  0  0  0
 13 14  1  6  0  0  0
M  CHG  2   1   1   3  -1
M  END
>  <DRUGBANK_ID>
DB14482

>  <SECONDARY_ACCESSION_NUMBERS>
DBSALT001764

>  <COMMON_NAME>
Sodium ascorbate

>  <CAS_NUMBER>
134-03-2

>  <UNII>
S033EH8359

>  <SYNONYMS>
Ascorbato s√≥dico; Ascorbic acid sodium salt; L-Ascorbic acid sodium salt; L-Ascorbic acid, monosodium salt; Monosodium L-ascorbate; Sodium ascorbate; sodium L-ascorbate; Vitamin C sodium; Vitamin C, sodium salt

$$$$
