
 OpenBabel10282417072D

 30 32  0  0  0  0  0  0  0  0999 V2000
    0.0828   -1.6570    0.0000 N   0  0  0  0  0  0  0  0  0  0  0  0
   -0.6351   -1.2392    0.0000 C   0  0  3  0  0  0  0  0  0  0  0  0
    0.0794   -2.4820    0.0000 C   0  0  0  0  0  0  0  0  0  0  0  0
    0.8698   -1.4049    0.0000 C   0  0  0  0  0  0  0  0  0  0  0  0
   -0.6351   -0.4142    0.0000 C   0  0  0  0  0  0  0  0  0  0  0  0
   -1.3462   -1.6570    0.0000 C   0  0  0  0  0  0  0  0  0  0  0  0
   -0.6351   -2.8894    0.0000 C   0  0  0  0  0  0  0  0  0  0  0  0
    0.8630   -2.7409    0.0000 C   0  0  0  0  0  0  0  0  0  0  0  0
    1.3531   -2.0746    0.0000 N   0  0  0  0  0  0  0  0  0  0  0  0
   -1.3531   -0.0033    0.0000 C   0  0  0  0  0  0  0  0  0  0  0  0
    0.0759   -0.0033    0.0000 C   0  0  0  0  0  0  0  0  0  0  0  0
   -1.3462   -2.4820    0.0000 C   0  0  0  0  0  0  0  0  0  0  0  0
   -1.3531    0.8216    0.0000 C   0  0  0  0  0  0  0  0  0  0  0  0
    0.0794    0.8216    0.0000 C   0  0  0  0  0  0  0  0  0  0  0  0
   -0.6386    1.2359    0.0000 C   0  0  0  0  0  0  0  0  0  0  0  0
   -0.6386    2.0644    0.0000 C   0  0  0  0  0  0  0  0  0  0  0  0
   -0.6351    2.8894    0.0000 N   0  0  0  0  0  0  0  0  0  0  0  0
    0.2925   -0.7058    0.0000 H   0  0  0  0  0  0  0  0  0  0  0  0
    1.1923   -0.4246    0.0000 H   0  0  0  0  0  0  0  0  0  0  0  0
   -2.2749   -1.1255    0.0000 H   0  0  0  0  0  0  0  0  0  0  0  0
   -2.2718   -2.1938    0.0000 H   0  0  0  0  0  0  0  0  0  0  0  0
   -0.6362   -3.9594    0.0000 H   0  0  0  0  0  0  0  0  0  0  0  0
   -1.5611   -3.4255    0.0000 H   0  0  0  0  0  0  0  0  0  0  0  0
    1.1766   -3.7241    0.0000 H   0  0  0  0  0  0  0  0  0  0  0  0
   -2.2459   -0.5210    0.0000 H   0  0  0  0  0  0  0  0  0  0  0  0
    0.9687   -0.5210    0.0000 H   0  0  0  0  0  0  0  0  0  0  0  0
   -2.2720   -3.0185    0.0000 H   0  0  0  0  0  0  0  0  0  0  0  0
   -1.3435   -3.5520    0.0000 H   0  0  0  0  0  0  0  0  0  0  0  0
   -2.2473    1.3368    0.0000 H   0  0  0  0  0  0  0  0  0  0  0  0
    0.9742    1.3358    0.0000 H   0  0  0  0  0  0  0  0  0  0  0  0
  1  2  1  0  0  0  0
  1  3  1  0  0  0  0
  1  4  1  0  0  0  0
  2  5  1  0  0  0  0
  2  6  1  0  0  0  0
  2 18  1  0  0  0  0
  3  7  1  0  0  0  0
  3  8  2  0  0  0  0
  4  9  2  0  0  0  0
  4 19  1  0  0  0  0
  5 10  2  0  0  0  0
  5 11  1  0  0  0  0
  6 12  1  0  0  0  0
  6 20  1  0  0  0  0
  6 21  1  0  0  0  0
  7 12  1  0  0  0  0
  7 22  1  0  0  0  0
  7 23  1  0  0  0  0
  8  9  1  0  0  0  0
  8 24  1  0  0  0  0
 10 13  1  0  0  0  0
 10 25  1  0  0  0  0
 11 14  2  0  0  0  0
 11 26  1  0  0  0  0
 12 27  1  0  0  0  0
 12 28  1  0  0  0  0
 13 15  2  0  0  0  0
 13 29  1  0  0  0  0
 14 15  1  0  0  0  0
 14 30  1  0  0  0  0
 15 16  1  0  0  0  0
 16 17  3  0  0  0  0
M  END
>  <DRUGBANK_ID>
DB16832

>  <COMMON_NAME>
Fadrozole

>  <CAS_NUMBER>
102676-47-1

>  <UNII>
H3988M64PU

>  <SYNONYMS>
Fadrozole

$$$$
