R6C
 OpenBabel10282417072D

 51 53  0  0  0  0  0  0  0  0999 V2000
    2.6086   -2.7862    0.0000 O   0  0  0  0  0  0  0  0  0  0  0  0
    2.6086   -1.9612    0.0000 C   0  0  0  0  0  0  0  0  0  0  0  0
    1.8942   -1.5487    0.0000 C   0  0  1  0  0  0  0  0  0  0  0  0
    1.1797   -1.9612    0.0000 C   0  0  0  0  0  0  0  0  0  0  0  0
    0.4652   -1.5487    0.0000 C   0  0  0  0  0  0  0  0  0  0  0  0
    1.8942   -0.7237    0.0000 N   0  0  0  0  0  0  0  0  0  0  0  0
    1.1797   -0.3112    0.0000 C   0  0  0  0  0  0  0  0  0  0  0  0
    0.4652   -0.7237    0.0000 N   0  0  0  0  0  0  0  0  0  0  0  0
   -0.2493   -0.3112    0.0000 C   0  0  0  0  0  0  0  0  0  0  0  0
   -1.0339   -0.5661    0.0000 N   0  0  0  0  0  0  0  0  0  0  0  0
   -1.2888   -1.3507    0.0000 C   0  0  0  0  0  0  0  0  0  0  0  0
   -2.0958   -1.5223    0.0000 C   0  0  0  0  0  0  0  0  0  0  0  0
   -0.7368   -1.9638    0.0000 C   0  0  0  0  0  0  0  0  0  0  0  0
   -1.5188    0.1013    0.0000 C   0  0  0  0  0  0  0  0  0  0  0  0
   -0.2493    0.5138    0.0000 C   0  0  0  0  0  0  0  0  0  0  0  0
   -1.0339    0.7688    0.0000 N   0  0  0  0  0  0  0  0  0  0  0  0
    1.1797    0.5138    0.0000 N   0  0  0  0  0  0  0  0  0  0  0  0
    0.4652    0.9263    0.0000 C   0  0  0  0  0  0  0  0  0  0  0  0
    0.4652    1.7513    0.0000 O   0  0  0  0  0  0  0  0  0  0  0  0
   -0.2493    2.1638    0.0000 C   0  0  0  0  0  0  0  0  0  0  0  0
   -0.2493    2.9888    0.0000 C   0  0  0  0  0  0  0  0  0  0  0  0
   -0.9637    3.4013    0.0000 C   0  0  0  0  0  0  0  0  0  0  0  0
   -0.9637    4.2263    0.0000 C   0  0  0  0  0  0  0  0  0  0  0  0
   -0.2493    4.6388    0.0000 C   0  0  0  0  0  0  0  0  0  0  0  0
    0.4652    4.2263    0.0000 C   0  0  0  0  0  0  0  0  0  0  0  0
    0.4652    3.4013    0.0000 C   0  0  0  0  0  0  0  0  0  0  0  0
    1.8942   -2.1326    0.0000 H   0  0  0  0  0  0  0  0  0  0  0  0
    1.7686   -3.2712    0.0000 H   0  0  0  0  0  0  0  0  0  0  0  0
    3.5353   -1.4262    0.0000 H   0  0  0  0  0  0  0  0  0  0  0  0
    2.6086   -0.8912    0.0000 H   0  0  0  0  0  0  0  0  0  0  0  0
    1.1797   -3.0312    0.0000 H   0  0  0  0  0  0  0  0  0  0  0  0
    0.2531   -2.4962    0.0000 H   0  0  0  0  0  0  0  0  0  0  0  0
    0.4652   -0.4787    0.0000 H   0  0  0  0  0  0  0  0  0  0  0  0
   -0.4614   -2.0837    0.0000 H   0  0  0  0  0  0  0  0  0  0  0  0
   -0.4615   -1.0137    0.0000 H   0  0  0  0  0  0  0  0  0  0  0  0
    2.7468   -0.2314    0.0000 H   0  0  0  0  0  0  0  0  0  0  0  0
   -1.6194   -2.3683    0.0000 H   0  0  0  0  0  0  0  0  0  0  0  0
   -2.8118   -0.7272    0.0000 H   0  0  0  0  0  0  0  0  0  0  0  0
   -2.4264   -2.5400    0.0000 H   0  0  0  0  0  0  0  0  0  0  0  0
   -3.1424   -1.7448    0.0000 H   0  0  0  0  0  0  0  0  0  0  0  0
   -1.0675   -2.9814    0.0000 H   0  0  0  0  0  0  0  0  0  0  0  0
    0.3098   -1.7414    0.0000 H   0  0  0  0  0  0  0  0  0  0  0  0
   -0.0209   -2.7590    0.0000 H   0  0  0  0  0  0  0  0  0  0  0  0
   -2.5508    0.1013    0.0000 H   0  0  0  0  0  0  0  0  0  0  0  0
   -1.1759    1.6288    0.0000 H   0  0  0  0  0  0  0  0  0  0  0  0
   -1.1759    2.6988    0.0000 H   0  0  0  0  0  0  0  0  0  0  0  0
   -1.8574    2.8853    0.0000 H   0  0  0  0  0  0  0  0  0  0  0  0
   -1.8574    4.7423    0.0000 H   0  0  0  0  0  0  0  0  0  0  0  0
   -0.2493    5.6708    0.0000 H   0  0  0  0  0  0  0  0  0  0  0  0
    1.3589    4.7423    0.0000 H   0  0  0  0  0  0  0  0  0  0  0  0
    1.3589    2.8853    0.0000 H   0  0  0  0  0  0  0  0  0  0  0  0
  1  2  1  0  0  0  0
  1 28  1  0  0  0  0
  2  3  1  0  0  0  0
  2 29  1  0  0  0  0
  2 30  1  0  0  0  0
  3  4  1  0  0  0  0
  3  6  1  0  0  0  0
  3 27  1  6  0  0  0
  4  5  1  0  0  0  0
  4 31  1  0  0  0  0
  4 32  1  0  0  0  0
  5 33  1  0  0  0  0
  5 34  1  0  0  0  0
  5 35  1  0  0  0  0
  6  7  1  0  0  0  0
  6 36  1  0  0  0  0
  7  8  2  0  0  0  0
  7 17  1  0  0  0  0
  8  9  1  0  0  0  0
  9 10  1  0  0  0  0
  9 15  2  0  0  0  0
 10 11  1  0  0  0  0
 10 14  1  0  0  0  0
 11 12  1  0  0  0  0
 11 13  1  0  0  0  0
 11 37  1  0  0  0  0
 12 38  1  0  0  0  0
 12 39  1  0  0  0  0
 12 40  1  0  0  0  0
 13 41  1  0  0  0  0
 13 42  1  0  0  0  0
 13 43  1  0  0  0  0
 14 16  2  0  0  0  0
 14 44  1  0  0  0  0
 15 16  1  0  0  0  0
 15 18  1  0  0  0  0
 17 18  2  0  0  0  0
 18 19  1  0  0  0  0
 19 20  1  0  0  0  0
 20 21  1  0  0  0  0
 20 45  1  0  0  0  0
 20 46  1  0  0  0  0
 21 22  1  0  0  0  0
 21 26  2  0  0  0  0
 22 23  2  0  0  0  0
 22 47  1  0  0  0  0
 23 24  1  0  0  0  0
 23 48  1  0  0  0  0
 24 25  2  0  0  0  0
 24 49  1  0  0  0  0
 25 26  1  0  0  0  0
 25 50  1  0  0  0  0
 26 51  1  0  0  0  0
M  END
>  <DRUGBANK_ID>
DB04770

>  <COMMON_NAME>
O6-(R)-ROSCOVITINE, R-2-(6-BENZYLOXY-9-ISOPROPYL-9H-PURIN-2-YLAMINO)-BUTAN-1-OL

$$$$
