
 OpenBabel10282417072D

 46 48  0  0  0  0  0  0  0  0999 V2000
   -3.9295    1.8009    0.0000 O   0  0  0  0  0  0  0  0  0  0  0  0
   -3.2151    1.3884    0.0000 C   0  0  0  0  0  0  0  0  0  0  0  0
   -2.5006    1.8009    0.0000 C   0  0  3  0  0  0  0  0  0  0  0  0
   -2.5006    2.6259    0.0000 O   0  0  0  0  0  0  0  0  0  0  0  0
   -1.7861    1.3884    0.0000 C   0  0  0  0  0  0  0  0  0  0  0  0
   -1.0717    1.8009    0.0000 O   0  0  0  0  0  0  0  0  0  0  0  0
   -0.3572    1.3884    0.0000 C   0  0  0  0  0  0  0  0  0  0  0  0
   -0.3572    0.5634    0.0000 O   0  0  0  0  0  0  0  0  0  0  0  0
    0.3572    1.8009    0.0000 C   0  0  0  0  0  0  0  0  0  0  0  0
    0.3572    2.6259    0.0000 C   0  0  0  0  0  0  0  0  0  0  0  0
    1.0717    3.0384    0.0000 C   0  0  0  0  0  0  0  0  0  0  0  0
    1.7861    2.6259    0.0000 C   0  0  0  0  0  0  0  0  0  0  0  0
    1.7861    1.8009    0.0000 C   0  0  0  0  0  0  0  0  0  0  0  0
    1.0717    1.3884    0.0000 C   0  0  0  0  0  0  0  0  0  0  0  0
    1.0717    0.5634    0.0000 N   0  0  0  0  0  0  0  0  0  0  0  0
    1.7861    0.1509    0.0000 C   0  0  0  0  0  0  0  0  0  0  0  0
    2.5006    0.5634    0.0000 C   0  0  0  0  0  0  0  0  0  0  0  0
    3.2151    0.1509    0.0000 C   0  0  0  0  0  0  0  0  0  0  0  0
    3.2151   -0.6740    0.0000 N   0  0  0  0  0  0  0  0  0  0  0  0
    2.5006   -1.0865    0.0000 C   0  0  0  0  0  0  0  0  0  0  0  0
    2.5006   -1.9115    0.0000 C   0  0  0  0  0  0  0  0  0  0  0  0
    1.7861   -2.3240    0.0000 C   0  0  0  0  0  0  0  0  0  0  0  0
    1.0717   -1.9115    0.0000 C   0  0  0  0  0  0  0  0  0  0  0  0
    1.0717   -1.0865    0.0000 C   0  0  0  0  0  0  0  0  0  0  0  0
    1.7861   -0.6740    0.0000 C   0  0  0  0  0  0  0  0  0  0  0  0
    3.2151   -2.3240    0.0000 C   0  0  0  0  0  0  0  0  0  0  0  0
    3.9295   -2.7365    0.0000 F   0  0  0  0  0  0  0  0  0  0  0  0
    2.8026   -3.0384    0.0000 F   0  0  0  0  0  0  0  0  0  0  0  0
    3.6276   -1.6095    0.0000 F   0  0  0  0  0  0  0  0  0  0  0  0
   -3.9295    2.7709    0.0000 H   0  0  0  0  0  0  0  0  0  0  0  0
   -3.2151    0.3184    0.0000 H   0  0  0  0  0  0  0  0  0  0  0  0
   -2.2885    0.8534    0.0000 H   0  0  0  0  0  0  0  0  0  0  0  0
   -3.4272    2.3359    0.0000 H   0  0  0  0  0  0  0  0  0  0  0  0
   -1.6606    3.1109    0.0000 H   0  0  0  0  0  0  0  0  0  0  0  0
   -1.7861    0.3184    0.0000 H   0  0  0  0  0  0  0  0  0  0  0  0
   -0.8594    0.8534    0.0000 H   0  0  0  0  0  0  0  0  0  0  0  0
   -0.5365    3.1419    0.0000 H   0  0  0  0  0  0  0  0  0  0  0  0
    1.0717    4.0704    0.0000 H   0  0  0  0  0  0  0  0  0  0  0  0
    2.6798    3.1419    0.0000 H   0  0  0  0  0  0  0  0  0  0  0  0
    2.6798    1.2849    0.0000 H   0  0  0  0  0  0  0  0  0  0  0  0
    0.2191    0.0712    0.0000 H   0  0  0  0  0  0  0  0  0  0  0  0
    2.5006    1.5954    0.0000 H   0  0  0  0  0  0  0  0  0  0  0  0
    4.1088    0.6669    0.0000 H   0  0  0  0  0  0  0  0  0  0  0  0
    1.7861   -3.3560    0.0000 H   0  0  0  0  0  0  0  0  0  0  0  0
    0.1780   -2.4275    0.0000 H   0  0  0  0  0  0  0  0  0  0  0  0
    0.1780   -0.5705    0.0000 H   0  0  0  0  0  0  0  0  0  0  0  0
  1  2  1  0  0  0  0
  1 30  1  0  0  0  0
  2  3  1  0  0  0  0
  2 31  1  0  0  0  0
  2 32  1  0  0  0  0
  3  4  1  0  0  0  0
  3  5  1  0  0  0  0
  3 33  1  0  0  0  0
  4 34  1  0  0  0  0
  5  6  1  0  0  0  0
  5 35  1  0  0  0  0
  5 36  1  0  0  0  0
  6  7  1  0  0  0  0
  7  8  2  0  0  0  0
  7  9  1  0  0  0  0
  9 10  2  0  0  0  0
  9 14  1  0  0  0  0
 10 11  1  0  0  0  0
 10 37  1  0  0  0  0
 11 12  2  0  0  0  0
 11 38  1  0  0  0  0
 12 13  1  0  0  0  0
 12 39  1  0  0  0  0
 13 14  2  0  0  0  0
 13 40  1  0  0  0  0
 14 15  1  0  0  0  0
 15 16  1  0  0  0  0
 15 41  1  0  0  0  0
 16 17  2  0  0  0  0
 16 25  1  0  0  0  0
 17 18  1  0  0  0  0
 17 42  1  0  0  0  0
 18 19  2  0  0  0  0
 18 43  1  0  0  0  0
 19 20  1  0  0  0  0
 20 21  2  0  0  0  0
 20 25  1  0  0  0  0
 21 22  1  0  0  0  0
 21 26  1  0  0  0  0
 22 23  2  0  0  0  0
 22 44  1  0  0  0  0
 23 24  1  0  0  0  0
 23 45  1  0  0  0  0
 24 25  2  0  0  0  0
 24 46  1  0  0  0  0
 26 27  1  0  0  0  0
 26 28  1  0  0  0  0
 26 29  1  0  0  0  0
M  END
>  <DRUGBANK_ID>
DB08976

>  <COMMON_NAME>
Floctafenine

>  <CAS_NUMBER>
23779-99-9

>  <UNII>
O04HVX6A9Q

>  <SYNONYMS>
Floctafenina; Floctafenine; Floctafeninum

$$$$
