
 OpenBabel10282417072D

 51 52  0  0  0  0  0  0  0  0999 V2000
   -0.7144   -0.2062    0.0000 O   0  0  0  0  0  0  0  0  0  0  0  0
    1.4290    0.2062    0.0000 O   0  0  0  0  0  0  0  0  0  0  0  0
    0.0000   -1.4437    0.0000 O   0  0  0  0  0  0  0  0  0  0  0  0
   -0.7144    1.4437    0.0000 O   0  0  0  0  0  0  0  0  0  0  0  0
   -2.1434   -1.0312    0.0000 O   0  0  0  0  0  0  0  0  0  0  0  0
   -2.1434   -2.6813    0.0000 O   0  0  0  0  0  0  0  0  0  0  0  0
   -0.7144   -3.5063    0.0000 O   0  0  0  0  0  0  0  0  0  0  0  0
    2.1434    1.4437    0.0000 O   0  0  0  0  0  0  0  0  0  0  0  0
    1.4290   -1.4437    0.0000 O   0  0  0  0  0  0  0  0  0  0  0  0
    0.7144   -3.5063    0.0000 O   0  0  0  0  0  0  0  0  0  0  0  0
    2.1434    2.2687    0.0000 O   0  0  0  0  0  0  0  0  0  0  0  0
    0.7144    2.2687    0.0000 N   0  0  0  0  0  0  0  0  0  0  0  0
    0.0000    0.2062    0.0000 C   0  0  1  0  0  0  0  0  0  0  0  0
    0.0000    1.0312    0.0000 C   0  0  1  0  0  0  0  0  0  0  0  0
    0.7144    1.4437    0.0000 C   0  0  2  0  0  0  0  0  0  0  0  0
    0.7144   -0.2062    0.0000 C   0  0  1  0  0  0  0  0  0  0  0  0
   -0.7144   -1.0312    0.0000 C   0  0  2  0  0  0  0  0  0  0  0  0
   -1.4289   -1.4437    0.0000 C   0  0  1  0  0  0  0  0  0  0  0  0
   -1.4289   -2.2687    0.0000 C   0  0  2  0  0  0  0  0  0  0  0  0
   -0.7144   -2.6813    0.0000 C   0  0  2  0  0  0  0  0  0  0  0  0
    1.4290    1.0312    0.0000 C   0  0  2  0  0  0  0  0  0  0  0  0
    0.0000   -2.2687    0.0000 C   0  0  1  0  0  0  0  0  0  0  0  0
    0.7144   -1.0312    0.0000 C   0  0  0  0  0  0  0  0  0  0  0  0
    0.7144   -2.6813    0.0000 C   0  0  0  0  0  0  0  0  0  0  0  0
    1.4290    2.6813    0.0000 C   0  0  0  0  0  0  0  0  0  0  0  0
    1.4290    3.5063    0.0000 C   0  0  0  0  0  0  0  0  0  0  0  0
    0.2715    2.5245    0.0000 H   0  0  0  0  0  0  0  0  0  0  0  0
   -0.7144    2.4137    0.0000 H   0  0  0  0  0  0  0  0  0  0  0  0
   -2.1434   -0.0612    0.0000 H   0  0  0  0  0  0  0  0  0  0  0  0
   -2.9835   -2.1964    0.0000 H   0  0  0  0  0  0  0  0  0  0  0  0
   -1.5544   -3.9913    0.0000 H   0  0  0  0  0  0  0  0  0  0  0  0
    2.9835    0.9587    0.0000 H   0  0  0  0  0  0  0  0  0  0  0  0
    1.4291   -2.4137    0.0000 H   0  0  0  0  0  0  0  0  0  0  0  0
   -0.1256   -3.9913    0.0000 H   0  0  0  0  0  0  0  0  0  0  0  0
   -0.9266    0.7412    0.0000 H   0  0  0  0  0  0  0  0  0  0  0  0
   -0.9267    0.4962    0.0000 H   0  0  0  0  0  0  0  0  0  0  0  0
   -0.2123    1.9787    0.0000 H   0  0  0  0  0  0  0  0  0  0  0  0
    1.6410   -0.7413    0.0000 H   0  0  0  0  0  0  0  0  0  0  0  0
    0.2123   -0.4962    0.0000 H   0  0  0  0  0  0  0  0  0  0  0  0
   -1.4289   -0.3737    0.0000 H   0  0  0  0  0  0  0  0  0  0  0  0
   -2.3556   -1.7337    0.0000 H   0  0  0  0  0  0  0  0  0  0  0  0
   -1.6411   -3.2163    0.0000 H   0  0  0  0  0  0  0  0  0  0  0  0
    2.3557    0.4962    0.0000 H   0  0  0  0  0  0  0  0  0  0  0  0
    0.9267   -1.7338    0.0000 H   0  0  0  0  0  0  0  0  0  0  0  0
   -0.2122   -1.5662    0.0000 H   0  0  0  0  0  0  0  0  0  0  0  0
   -0.2123   -0.4962    0.0000 H   0  0  0  0  0  0  0  0  0  0  0  0
    1.6411   -2.1464    0.0000 H   0  0  0  0  0  0  0  0  0  0  0  0
    0.7145   -1.6113    0.0000 H   0  0  0  0  0  0  0  0  0  0  0  0
    2.3556    4.0413    0.0000 H   0  0  0  0  0  0  0  0  0  0  0  0
    0.5024    4.0413    0.0000 H   0  0  0  0  0  0  0  0  0  0  0  0
    1.4290    4.5763    0.0000 H   0  0  0  0  0  0  0  0  0  0  0  0
  2 16  1  0  0  0  0
  2 21  1  0  0  0  0
  3 17  1  0  0  0  0
  3 22  1  0  0  0  0
  4 28  1  0  0  0  0
  5 29  1  0  0  0  0
  6 30  1  0  0  0  0
  7 31  1  0  0  0  0
  8 32  1  0  0  0  0
  9 23  1  0  0  0  0
  9 33  1  0  0  0  0
 10 24  1  0  0  0  0
 10 34  1  0  0  0  0
 11 25  2  0  0  0  0
 12 25  1  0  0  0  0
 12 27  1  0  0  0  0
 13  1  1  0  0  0  0
 13 14  1  0  0  0  0
 13 16  1  0  0  0  0
 13 35  1  6  0  0  0
 14  4  1  0  0  0  0
 14 15  1  0  0  0  0
 14 36  1  1  0  0  0
 15 12  1  0  0  0  0
 15 21  1  0  0  0  0
 15 37  1  6  0  0  0
 16 23  1  0  0  0  0
 16 38  1  1  0  0  0
 17  1  1  0  0  0  0
 17 18  1  0  0  0  0
 17 39  1  1  0  0  0
 18  5  1  0  0  0  0
 18 19  1  0  0  0  0
 18 40  1  6  0  0  0
 19  6  1  0  0  0  0
 19 20  1  0  0  0  0
 19 41  1  1  0  0  0
 20  7  1  0  0  0  0
 20 22  1  0  0  0  0
 20 42  1  1  0  0  0
 21  8  1  0  0  0  0
 21 43  1  6  0  0  0
 22 24  1  0  0  0  0
 22 44  1  1  0  0  0
 23 45  1  0  0  0  0
 23 46  1  0  0  0  0
 24 47  1  0  0  0  0
 24 48  1  0  0  0  0
 25 26  1  0  0  0  0
 26 49  1  0  0  0  0
 26 50  1  0  0  0  0
 26 51  1  0  0  0  0
M  END
>  <DRUGBANK_ID>
DB03618

>  <SECONDARY_ACCESSION_NUMBERS>
EXPT02354

>  <COMMON_NAME>
2-(acetylamino)-2-deoxy-4-O-beta-D-galactopyranosyl-alpha-D-glucopyranose

$$$$
