PL7
 OpenBabel10282417072D

 45 45  0  0  0  0  0  0  0  0999 V2000
   -2.6301    2.8415    0.0000 O   0  0  0  0  0  0  0  0  0  0  0  0
   -1.9156    2.4290    0.0000 C   0  0  0  0  0  0  0  0  0  0  0  0
   -1.2011    2.8415    0.0000 O   0  0  0  0  0  0  0  0  0  0  0  0
   -1.9156    1.6040    0.0000 C   0  0  0  0  0  0  0  0  0  0  0  0
   -1.2011    1.1915    0.0000 C   0  0  0  0  0  0  0  0  0  0  0  0
   -1.2011    0.3665    0.0000 C   0  0  0  0  0  0  0  0  0  0  0  0
   -1.9156   -0.0460    0.0000 C   0  0  0  0  0  0  0  0  0  0  0  0
   -1.9156   -0.8710    0.0000 O   0  0  0  0  0  0  0  0  0  0  0  0
   -2.6301    0.3665    0.0000 O   0  0  0  0  0  0  0  0  0  0  0  0
   -0.4867   -0.0460    0.0000 N   0  0  0  0  0  0  0  0  0  0  0  0
    0.2278    0.3665    0.0000 O   0  0  0  0  0  0  0  0  0  0  0  0
    0.9423   -0.0460    0.0000 C   0  0  0  0  0  0  0  0  0  0  0  0
    1.6567    0.3665    0.0000 C   0  0  1  0  0  0  0  0  0  0  0  0
    1.6567    1.1915    0.0000 C   0  0  0  0  0  0  0  0  0  0  0  0
    2.3712    1.6040    0.0000 O   0  0  0  0  0  0  0  0  0  0  0  0
    2.3712   -0.0460    0.0000 N   0  0  0  0  0  0  0  0  0  0  0  0
    3.0857    0.3665    0.0000 C   0  0  0  0  0  0  0  0  0  0  0  0
    3.0857    1.1915    0.0000 O   0  0  0  0  0  0  0  0  0  0  0  0
    3.8002   -0.0460    0.0000 C   0  0  0  0  0  0  0  0  0  0  0  0
    4.5146    0.3665    0.0000 O   0  0  0  0  0  0  0  0  0  0  0  0
    5.2291   -0.0460    0.0000 C   0  0  0  0  0  0  0  0  0  0  0  0
    5.9436    0.3665    0.0000 C   0  0  0  0  0  0  0  0  0  0  0  0
    6.6580   -0.0460    0.0000 C   0  0  0  0  0  0  0  0  0  0  0  0
    6.6580   -0.8710    0.0000 C   0  0  0  0  0  0  0  0  0  0  0  0
    5.9436   -1.2835    0.0000 C   0  0  0  0  0  0  0  0  0  0  0  0
    5.2291   -0.8710    0.0000 C   0  0  0  0  0  0  0  0  0  0  0  0
    0.9423    1.6040    0.0000 O   0  0  0  0  0  0  0  0  0  0  0  0
    1.1510    0.6585    0.0000 H   0  0  0  0  0  0  0  0  0  0  0  0
   -2.6301    3.7785    0.0000 H   0  0  0  0  0  0  0  0  0  0  0  0
   -2.8422    1.0690    0.0000 H   0  0  0  0  0  0  0  0  0  0  0  0
   -1.9156    0.5340    0.0000 H   0  0  0  0  0  0  0  0  0  0  0  0
   -0.2745    1.7265    0.0000 H   0  0  0  0  0  0  0  0  0  0  0  0
   -0.2745    0.6565    0.0000 H   0  0  0  0  0  0  0  0  0  0  0  0
   -2.6301    1.3035    0.0000 H   0  0  0  0  0  0  0  0  0  0  0  0
    0.9423   -1.1160    0.0000 H   0  0  0  0  0  0  0  0  0  0  0  0
    1.8690   -0.5810    0.0000 H   0  0  0  0  0  0  0  0  0  0  0  0
    2.3712   -1.0305    0.0000 H   0  0  0  0  0  0  0  0  0  0  0  0
    3.8002   -1.1160    0.0000 H   0  0  0  0  0  0  0  0  0  0  0  0
    4.7269   -0.5810    0.0000 H   0  0  0  0  0  0  0  0  0  0  0  0
    5.9436    1.3985    0.0000 H   0  0  0  0  0  0  0  0  0  0  0  0
    7.5517    0.4700    0.0000 H   0  0  0  0  0  0  0  0  0  0  0  0
    7.5517   -1.3870    0.0000 H   0  0  0  0  0  0  0  0  0  0  0  0
    5.9436   -2.3155    0.0000 H   0  0  0  0  0  0  0  0  0  0  0  0
    4.3354   -1.3870    0.0000 H   0  0  0  0  0  0  0  0  0  0  0  0
    0.9423    2.5410    0.0000 H   0  0  0  0  0  0  0  0  0  0  0  0
  1  2  1  0  0  0  0
  1 29  1  0  0  0  0
  2  3  2  0  0  0  0
  2  4  1  0  0  0  0
  4  5  1  0  0  0  0
  4 30  1  0  0  0  0
  4 31  1  0  0  0  0
  5  6  1  0  0  0  0
  5 32  1  0  0  0  0
  5 33  1  0  0  0  0
  6  7  1  0  0  0  0
  6 10  2  0  0  0  0
  7  8  2  0  0  0  0
  7  9  1  0  0  0  0
  9 34  1  0  0  0  0
 10 11  1  0  0  0  0
 11 12  1  0  0  0  0
 12 13  1  0  0  0  0
 12 35  1  0  0  0  0
 12 36  1  0  0  0  0
 13 14  1  0  0  0  0
 13 16  1  0  0  0  0
 13 28  1  6  0  0  0
 14 15  2  0  0  0  0
 14 27  1  0  0  0  0
 16 17  1  0  0  0  0
 16 37  1  0  0  0  0
 17 18  2  0  0  0  0
 17 19  1  0  0  0  0
 19 20  1  0  0  0  0
 19 38  1  0  0  0  0
 19 39  1  0  0  0  0
 20 21  1  0  0  0  0
 21 22  1  0  0  0  0
 21 26  2  0  0  0  0
 22 23  2  0  0  0  0
 22 40  1  0  0  0  0
 23 24  1  0  0  0  0
 23 41  1  0  0  0  0
 24 25  2  0  0  0  0
 24 42  1  0  0  0  0
 25 26  1  0  0  0  0
 25 43  1  0  0  0  0
 26 44  1  0  0  0  0
 27 45  1  0  0  0  0
M  END
>  <DRUGBANK_ID>
DB08401

>  <COMMON_NAME>
(2E)-2-({(2S)-2-CARBOXY-2-[(PHENOXYACETYL)AMINO]ETHOXY}IMINO)PENTANEDIOIC ACID

$$$$
