
 OpenBabel10282417072D

 30 29  0  0  1  0  0  0  0  0999 V2000
   12.1995   -5.4501    0.0000 C   0  0  0  0  0  0  0  0  0  0  0  0
   11.4851   -5.8626    0.0000 C   0  0  1  0  0  0  0  0  0  0  0  0
   10.7706   -5.4501    0.0000 C   0  0  2  0  0  0  0  0  0  0  0  0
   10.0561   -5.8626    0.0000 C   0  0  1  0  0  0  0  0  0  0  0  0
    9.3417   -5.4501    0.0000 C   0  0  2  0  0  0  0  0  0  0  0  0
   12.1995   -4.6251    0.0000 O   0  0  0  0  0  0  0  0  0  0  0  0
   10.7706   -4.6251    0.0000 O   0  0  0  0  0  0  0  0  0  0  0  0
   10.0561   -6.6876    0.0000 O   0  0  0  0  0  0  0  0  0  0  0  0
    9.3417   -4.6251    0.0000 O   0  0  0  0  0  0  0  0  0  0  0  0
   12.9140   -5.8626    0.0000 H   0  0  0  0  0  0  0  0  0  0  0  0
    8.6271   -5.8626    0.0000 C   0  0  0  0  0  0  0  0  0  0  0  0
    7.9127   -5.4501    0.0000 O   0  0  0  0  0  0  0  0  0  0  0  0
   11.4851   -6.6876    0.0000 N   0  0  0  0  0  0  0  0  0  0  0  0
   12.1995   -7.1001    0.0000 C   0  0  0  0  0  0  0  0  0  0  0  0
   12.9140   -6.6876    0.0000 O   0  0  0  0  0  0  0  0  0  0  0  0
   12.1995   -7.9251    0.0000 C   0  0  0  0  0  0  0  0  0  0  0  0
   12.4118   -6.3976    0.0000 H   0  0  0  0  0  0  0  0  0  0  0  0
   11.6972   -4.9151    0.0000 H   0  0  0  0  0  0  0  0  0  0  0  0
   10.9827   -6.3976    0.0000 H   0  0  0  0  0  0  0  0  0  0  0  0
   10.2684   -4.9151    0.0000 H   0  0  0  0  0  0  0  0  0  0  0  0
   11.6106   -4.1401    0.0000 H   0  0  0  0  0  0  0  0  0  0  0  0
    9.2161   -7.1726    0.0000 H   0  0  0  0  0  0  0  0  0  0  0  0
   10.1817   -4.1401    0.0000 H   0  0  0  0  0  0  0  0  0  0  0  0
    8.6270   -6.9326    0.0000 H   0  0  0  0  0  0  0  0  0  0  0  0
    7.7004   -6.3976    0.0000 H   0  0  0  0  0  0  0  0  0  0  0  0
    7.9127   -4.4801    0.0000 H   0  0  0  0  0  0  0  0  0  0  0  0
   10.6325   -7.1798    0.0000 H   0  0  0  0  0  0  0  0  0  0  0  0
   11.2729   -8.4601    0.0000 H   0  0  0  0  0  0  0  0  0  0  0  0
   13.1261   -8.4601    0.0000 H   0  0  0  0  0  0  0  0  0  0  0  0
   12.1995   -8.9951    0.0000 H   0  0  0  0  0  0  0  0  0  0  0  0
  2  1  1  0  0  0  0
  2 13  1  0  0  0  0
  2 17  1  1  0  0  0
  3  2  1  0  0  0  0
  3  7  1  0  0  0  0
  3 18  1  1  0  0  0
  4  3  1  0  0  0  0
  4  8  1  0  0  0  0
  4 19  1  1  0  0  0
  5  4  1  0  0  0  0
  5  9  1  0  0  0  0
  5 20  1  6  0  0  0
  6  1  2  0  0  0  0
  7 21  1  0  0  0  0
  8 22  1  0  0  0  0
  9 23  1  0  0  0  0
 10  1  1  0  0  0  0
 11  5  1  0  0  0  0
 11 12  1  0  0  0  0
 11 24  1  0  0  0  0
 11 25  1  0  0  0  0
 12 26  1  0  0  0  0
 13 14  1  0  0  0  0
 13 27  1  0  0  0  0
 15 14  2  0  0  0  0
 16 14  1  0  0  0  0
 16 28  1  0  0  0  0
 16 29  1  0  0  0  0
 16 30  1  0  0  0  0
M  END
>  <DRUGBANK_ID>
DB00141

>  <SECONDARY_ACCESSION_NUMBERS>
NUTR00040

>  <COMMON_NAME>
N-Acetylglucosamine

>  <CAS_NUMBER>
7512-17-6

>  <UNII>
V956696549

>  <SYNONYMS>
2-Acetamido-2-deoxy-D-glucose; aldehydo-N-acetyl-D-glucosamine; D-GlcNAc; N-Acetyl-D-glucosamine; N-Acetylchitosamine

$$$$
