1210
 OpenBabel10282417072D

 46 47  0  0  1  0  0  0  0  0999 V2000
    4.5080    0.1367    0.0000 O   0  0  0  0  0  0  0  0  0  0  0  0
    4.5080   -1.5133    0.0000 O   0  0  0  0  0  0  0  0  0  0  0  0
    5.9504    3.4653    0.0000 O   0  0  0  0  0  0  0  0  0  0  0  0
    3.0791   -2.3383    0.0000 N   0  0  0  0  0  0  0  0  0  0  0  0
    2.3645   -2.7509    0.0000 C   0  0  0  0  0  0  0  0  0  0  0  0
    5.9600    0.9332    0.0000 C   0  0  0  0  0  0  0  0  0  0  0  0
    5.2224    1.3742    0.0000 C   0  0  0  0  0  0  0  0  0  0  0  0
    3.0791   -1.5133    0.0000 C   0  0  0  0  0  0  0  0  0  0  0  0
    6.7075    1.3571    0.0000 C   0  0  0  0  0  0  0  0  0  0  0  0
    3.7935   -1.1008    0.0000 C   0  0  1  0  0  0  0  0  0  0  0  0
    6.7075    2.2164    0.0000 C   0  0  0  0  0  0  0  0  0  0  0  0
    5.2224    2.1993    0.0000 C   0  0  0  0  0  0  0  0  0  0  0  0
    1.9520   -2.0364    0.0000 C   0  0  0  0  0  0  0  0  0  0  0  0
    2.7770   -3.4653    0.0000 C   0  0  0  0  0  0  0  0  0  0  0  0
    1.6500   -3.1634    0.0000 C   0  0  0  0  0  0  0  0  0  0  0  0
    4.5080    0.9617    0.0000 C   0  0  0  0  0  0  0  0  0  0  0  0
    3.7935   -0.2758    0.0000 C   0  0  0  0  0  0  0  0  0  0  0  0
    5.9600    2.6404    0.0000 C   0  0  0  0  0  0  0  0  0  0  0  0
    4.5080    2.6118    0.0000 C   0  0  0  0  0  0  0  0  0  0  0  0
    3.7935    1.3742    0.0000 C   0  0  0  0  0  0  0  0  0  0  0  0
    3.7935    2.1993    0.0000 C   0  0  0  0  0  0  0  0  0  0  0  0
    4.5080   -2.4833    0.0000 H   0  0  0  0  0  0  0  0  0  0  0  0
    3.9625   -2.8483    0.0000 H   0  0  0  0  0  0  0  0  0  0  0  0
    5.9477   -0.1367    0.0000 H   0  0  0  0  0  0  0  0  0  0  0  0
    6.8815    0.3893    0.0000 H   0  0  0  0  0  0  0  0  0  0  0  0
    2.1524   -0.9783    0.0000 H   0  0  0  0  0  0  0  0  0  0  0  0
    3.0791   -0.4433    0.0000 H   0  0  0  0  0  0  0  0  0  0  0  0
    7.6321    0.8185    0.0000 H   0  0  0  0  0  0  0  0  0  0  0  0
    7.6352    1.8903    0.0000 H   0  0  0  0  0  0  0  0  0  0  0  0
    3.7935   -2.1708    0.0000 H   0  0  0  0  0  0  0  0  0  0  0  0
    7.6321    2.7549    0.0000 H   0  0  0  0  0  0  0  0  0  0  0  0
    6.7014    3.2864    0.0000 H   0  0  0  0  0  0  0  0  0  0  0  0
    2.4870   -1.1098    0.0000 H   0  0  0  0  0  0  0  0  0  0  0  0
    0.8820   -2.0364    0.0000 H   0  0  0  0  0  0  0  0  0  0  0  0
    1.4170   -1.1097    0.0000 H   0  0  0  0  0  0  0  0  0  0  0  0
    2.2420   -4.3920    0.0000 H   0  0  0  0  0  0  0  0  0  0  0  0
    3.8470   -3.4653    0.0000 H   0  0  0  0  0  0  0  0  0  0  0  0
    3.3120   -4.3919    0.0000 H   0  0  0  0  0  0  0  0  0  0  0  0
    0.7234   -2.6284    0.0000 H   0  0  0  0  0  0  0  0  0  0  0  0
    1.6500   -4.2334    0.0000 H   0  0  0  0  0  0  0  0  0  0  0  0
    0.7233   -3.6984    0.0000 H   0  0  0  0  0  0  0  0  0  0  0  0
    2.8669    0.2592    0.0000 H   0  0  0  0  0  0  0  0  0  0  0  0
    2.8669   -0.8108    0.0000 H   0  0  0  0  0  0  0  0  0  0  0  0
    4.5080    3.6438    0.0000 H   0  0  0  0  0  0  0  0  0  0  0  0
    2.8998    0.8582    0.0000 H   0  0  0  0  0  0  0  0  0  0  0  0
    2.8998    2.7153    0.0000 H   0  0  0  0  0  0  0  0  0  0  0  0
  1 16  1  0  0  0  0
  1 17  1  0  0  0  0
  2 22  1  0  0  0  0
  3 18  2  0  0  0  0
  4  5  1  0  0  0  0
  4  8  1  0  0  0  0
  4 23  1  0  0  0  0
  5 13  1  0  0  0  0
  5 14  1  0  0  0  0
  5 15  1  0  0  0  0
  6  7  1  0  0  0  0
  6  9  1  0  0  0  0
  6 24  1  0  0  0  0
  6 25  1  0  0  0  0
  7 12  2  0  0  0  0
  7 16  1  0  0  0  0
  8 10  1  0  0  0  0
  8 26  1  0  0  0  0
  8 27  1  0  0  0  0
  9 11  1  0  0  0  0
  9 28  1  0  0  0  0
  9 29  1  0  0  0  0
 10  2  1  0  0  0  0
 10 17  1  0  0  0  0
 10 30  1  6  0  0  0
 11 18  1  0  0  0  0
 11 31  1  0  0  0  0
 11 32  1  0  0  0  0
 12 18  1  0  0  0  0
 12 19  1  0  0  0  0
 13 33  1  0  0  0  0
 13 34  1  0  0  0  0
 13 35  1  0  0  0  0
 14 36  1  0  0  0  0
 14 37  1  0  0  0  0
 14 38  1  0  0  0  0
 15 39  1  0  0  0  0
 15 40  1  0  0  0  0
 15 41  1  0  0  0  0
 16 20  2  0  0  0  0
 17 42  1  0  0  0  0
 17 43  1  0  0  0  0
 19 21  2  0  0  0  0
 19 44  1  0  0  0  0
 20 21  1  0  0  0  0
 20 45  1  0  0  0  0
 21 46  1  0  0  0  0
M  END
>  <DRUGBANK_ID>
DB01210

>  <SECONDARY_ACCESSION_NUMBERS>
APRD00165

>  <COMMON_NAME>
Levobunolol

>  <CAS_NUMBER>
47141-42-4

>  <UNII>
G6317AOI7K

>  <SYNONYMS>
(-)-Bunolol; (S)-5-(3-((1,1-dimethylethyl)amino)-2-hydroxypropoxy)-3,4-dihydro-1(2H)-naphthalenone; Levobunolol; Levobunololum

$$$$
