
 OpenBabel10282417072D

 32 34  0  0  0  0  0  0  0  0999 V2000
    5.7158    0.8250    0.0000 C   0  0  0  0  0  0  0  0  0  0  0  0
    0.7145   -0.4125    0.0000 C   0  0  0  0  0  0  0  0  0  0  0  0
    1.4289    0.0000    0.0000 C   0  0  0  0  0  0  0  0  0  0  0  0
    5.0013   -1.2375    0.0000 C   0  0  0  0  0  0  0  0  0  0  0  0
    4.2868   -1.6500    0.0000 C   0  0  0  0  0  0  0  0  0  0  0  0
    0.7145   -1.2375    0.0000 C   0  0  0  0  0  0  0  0  0  0  0  0
    4.2868    0.0000    0.0000 C   0  0  0  0  0  0  0  0  0  0  0  0
    2.8579    0.0000    0.0000 C   0  0  0  0  0  0  0  0  0  0  0  0
    5.7158    0.0000    0.0000 C   0  0  3  0  0  0  0  0  0  0  0  0
    5.0013   -0.4125    0.0000 C   0  0  0  0  0  0  0  0  0  0  0  0
    2.1434   -0.4125    0.0000 C   0  0  0  0  0  0  0  0  0  0  0  0
    3.5724   -0.4125    0.0000 C   0  0  0  0  0  0  0  0  0  0  0  0
    3.5724   -1.2375    0.0000 C   0  0  0  0  0  0  0  0  0  0  0  0
    2.1434   -1.2375    0.0000 C   0  0  0  0  0  0  0  0  0  0  0  0
    6.4302   -0.4125    0.0000 C   0  0  0  0  0  0  0  0  0  0  0  0
    1.4289   -1.6500    0.0000 N   0  0  0  0  0  0  0  0  0  0  0  0
    7.1447    0.0000    0.0000 O   0  0  0  0  0  0  0  0  0  0  0  0
    6.4302   -1.2375    0.0000 O   0  0  0  0  0  0  0  0  0  0  0  0
    2.8579   -1.6500    0.0000 O   0  0  0  0  0  0  0  0  0  0  0  0
    6.6424    1.3600    0.0000 H   0  0  0  0  0  0  0  0  0  0  0  0
    4.7892    1.3600    0.0000 H   0  0  0  0  0  0  0  0  0  0  0  0
    5.7158    1.8950    0.0000 H   0  0  0  0  0  0  0  0  0  0  0  0
   -0.1792    0.1035    0.0000 H   0  0  0  0  0  0  0  0  0  0  0  0
    1.4289    1.0320    0.0000 H   0  0  0  0  0  0  0  0  0  0  0  0
    5.8950   -1.7535    0.0000 H   0  0  0  0  0  0  0  0  0  0  0  0
    4.2868   -2.6820    0.0000 H   0  0  0  0  0  0  0  0  0  0  0  0
   -0.1792   -1.7535    0.0000 H   0  0  0  0  0  0  0  0  0  0  0  0
    4.2868    1.0320    0.0000 H   0  0  0  0  0  0  0  0  0  0  0  0
    2.8579    1.0700    0.0000 H   0  0  0  0  0  0  0  0  0  0  0  0
    3.7845    0.5350    0.0000 H   0  0  0  0  0  0  0  0  0  0  0  0
    4.7892    0.5350    0.0000 H   0  0  0  0  0  0  0  0  0  0  0  0
    5.6187   -1.7060    0.0000 H   0  0  0  0  0  0  0  0  0  0  0  0
  1 20  1  0  0  0  0
  1 21  1  0  0  0  0
  1 22  1  0  0  0  0
  2 23  1  0  0  0  0
  3  2  2  0  0  0  0
  3 24  1  0  0  0  0
  4 25  1  0  0  0  0
  5  4  2  0  0  0  0
  5 26  1  0  0  0  0
  6  2  1  0  0  0  0
  6 27  1  0  0  0  0
  7 28  1  0  0  0  0
  8 29  1  0  0  0  0
  8 30  1  0  0  0  0
  9  1  1  0  0  0  0
  9 31  1  0  0  0  0
 10  4  1  0  0  0  0
 10  7  2  0  0  0  0
 10  9  1  0  0  0  0
 11  3  1  0  0  0  0
 11  8  1  0  0  0  0
 12  7  1  0  0  0  0
 12  8  1  0  0  0  0
 13  5  1  0  0  0  0
 13 12  2  0  0  0  0
 14 11  2  0  0  0  0
 15  9  1  0  0  0  0
 16  6  2  0  0  0  0
 16 14  1  0  0  0  0
 17 15  2  0  0  0  0
 18 15  1  0  0  0  0
 18 32  1  0  0  0  0
 19 13  1  0  0  0  0
 19 14  1  0  0  0  0
M  END
>  <DRUGBANK_ID>
DB13514

>  <COMMON_NAME>
Pranoprofen

>  <CAS_NUMBER>
52549-17-4

>  <UNII>
2R7O1ET613

>  <SYNONYMS>
Pranoprofen

$$$$
