M25
 OpenBabel10282417072D

 30 30  0  0  0  0  0  0  0  0999 V2000
   -1.3253   -1.4585    0.0000 C   0  0  0  0  0  0  0  0  0  0  0  0
   -0.6108   -1.8710    0.0000 C   0  0  0  0  0  0  0  0  0  0  0  0
    0.1037   -1.4585    0.0000 C   0  0  0  0  0  0  0  0  0  0  0  0
    0.1037   -0.6335    0.0000 C   0  0  0  0  0  0  0  0  0  0  0  0
   -0.6108   -0.2210    0.0000 C   0  0  0  0  0  0  0  0  0  0  0  0
   -1.3253   -0.6335    0.0000 C   0  0  0  0  0  0  0  0  0  0  0  0
   -2.0398   -1.8710    0.0000 S   0  0  0  0  0  0  0  0  0  0  0  0
   -2.7542   -2.2835    0.0000 O   0  0  0  0  0  0  0  0  0  0  0  0
   -1.6273   -2.5855    0.0000 O   0  0  0  0  0  0  0  0  0  0  0  0
   -2.4523   -1.1566    0.0000 N   0  0  0  0  0  0  0  0  0  0  0  0
    0.8181   -0.2210    0.0000 C   0  0  0  0  0  0  0  0  0  0  0  0
    1.5326   -0.6335    0.0000 C   0  0  0  0  0  0  0  0  0  0  0  0
    2.2471   -0.2210    0.0000 N   0  0  0  0  0  0  0  0  0  0  0  0
    2.9615   -0.6335    0.0000 C   0  0  0  0  0  0  0  0  0  0  0  0
    3.6760   -0.2210    0.0000 C   0  0  0  0  0  0  0  0  0  0  0  0
    2.9615   -1.4585    0.0000 O   0  0  0  0  0  0  0  0  0  0  0  0
   -0.6108   -2.9030    0.0000 H   0  0  0  0  0  0  0  0  0  0  0  0
    0.9974   -1.9745    0.0000 H   0  0  0  0  0  0  0  0  0  0  0  0
   -0.6108    0.8110    0.0000 H   0  0  0  0  0  0  0  0  0  0  0  0
   -2.2190   -0.1175    0.0000 H   0  0  0  0  0  0  0  0  0  0  0  0
   -1.9423   -0.2732    0.0000 H   0  0  0  0  0  0  0  0  0  0  0  0
   -3.4723   -1.1566    0.0000 H   0  0  0  0  0  0  0  0  0  0  0  0
    0.8181    0.8490    0.0000 H   0  0  0  0  0  0  0  0  0  0  0  0
    1.7447    0.3140    0.0000 H   0  0  0  0  0  0  0  0  0  0  0  0
    1.5326   -1.7035    0.0000 H   0  0  0  0  0  0  0  0  0  0  0  0
    2.4592   -1.1685    0.0000 H   0  0  0  0  0  0  0  0  0  0  0  0
    2.2471    0.7635    0.0000 H   0  0  0  0  0  0  0  0  0  0  0  0
    4.6026   -0.7560    0.0000 H   0  0  0  0  0  0  0  0  0  0  0  0
    3.6760    0.8490    0.0000 H   0  0  0  0  0  0  0  0  0  0  0  0
    4.6027    0.3140    0.0000 H   0  0  0  0  0  0  0  0  0  0  0  0
  1  7  1  0  0  0  0
  1  6  2  0  0  0  0
  1  2  1  0  0  0  0
  2  3  2  0  0  0  0
  2 17  1  0  0  0  0
  3  4  1  0  0  0  0
  3 18  1  0  0  0  0
  4  5  2  0  0  0  0
  4 11  1  0  0  0  0
  5  6  1  0  0  0  0
  5 19  1  0  0  0  0
  6 20  1  0  0  0  0
  7  8  2  0  0  0  0
  7  9  2  0  0  0  0
  7 10  1  0  0  0  0
 10 21  1  0  0  0  0
 10 22  1  0  0  0  0
 11 12  1  0  0  0  0
 11 23  1  0  0  0  0
 11 24  1  0  0  0  0
 12 13  1  0  0  0  0
 12 25  1  0  0  0  0
 12 26  1  0  0  0  0
 13 14  1  0  0  0  0
 13 27  1  0  0  0  0
 14 16  2  0  0  0  0
 14 15  1  0  0  0  0
 15 28  1  0  0  0  0
 15 29  1  0  0  0  0
 15 30  1  0  0  0  0
M  END
>  <DRUGBANK_ID>
DB08155

>  <COMMON_NAME>
N-{2-[4-(AMINOSULFONYL)PHENYL]ETHYL}ACETAMIDE

>  <UNII>
SL3TT94T4C

$$$$
