680
 OpenBabel10282417072D

 55 58  0  0  0  0  0  0  0  0999 V2000
    4.5073   -2.6666    0.0000 S   0  0  0  0  0  0  0  0  0  0  0  0
    1.6498    2.2827    0.0000 O   0  0  0  0  0  0  0  0  0  0  0  0
    5.2216    0.2205    0.0000 O   0  0  0  0  0  0  0  0  0  0  0  0
    8.8480   -0.9914    0.0000 O   0  0  0  0  0  0  0  0  0  0  0  0
    8.1384   -2.2315    0.0000 O   0  0  0  0  0  0  0  0  0  0  0  0
    3.0786    1.4578    0.0000 N   0  0  0  0  0  0  0  0  0  0  0  0
    4.5073   -1.0169    0.0000 N   0  0  0  0  0  0  0  0  0  0  0  0
    7.4192   -0.9969    0.0000 N   0  0  0  0  0  0  0  0  0  0  0  0
    3.7929    1.0454    0.0000 C   0  0  0  0  0  0  0  0  0  0  0  0
    3.0786    2.2827    0.0000 C   0  0  0  0  0  0  0  0  0  0  0  0
    2.3641    1.0454    0.0000 C   0  0  0  0  0  0  0  0  0  0  0  0
    3.7929    0.2205    0.0000 C   0  0  0  0  0  0  0  0  0  0  0  0
    2.3641    2.6951    0.0000 C   0  0  0  0  0  0  0  0  0  0  0  0
    1.6498    1.4578    0.0000 C   0  0  0  0  0  0  0  0  0  0  0  0
    4.5073   -0.1920    0.0000 C   0  0  0  0  0  0  0  0  0  0  0  0
    5.2216   -1.4293    0.0000 C   0  0  0  0  0  0  0  0  0  0  0  0
    3.7929   -1.4293    0.0000 C   0  0  0  0  0  0  0  0  0  0  0  0
    5.2216   -2.2542    0.0000 C   0  0  0  0  0  0  0  0  0  0  0  0
    3.7929   -2.2542    0.0000 C   0  0  0  0  0  0  0  0  0  0  0  0
    5.9591   -0.9883    0.0000 C   0  0  0  0  0  0  0  0  0  0  0  0
    3.0555   -0.9883    0.0000 C   0  0  0  0  0  0  0  0  0  0  0  0
    5.9591   -2.6951    0.0000 C   0  0  0  0  0  0  0  0  0  0  0  0
    6.7064   -1.4121    0.0000 C   0  0  0  0  0  0  0  0  0  0  0  0
    3.0555   -2.6951    0.0000 C   0  0  0  0  0  0  0  0  0  0  0  0
    6.7064   -2.2713    0.0000 C   0  0  0  0  0  0  0  0  0  0  0  0
    2.3081   -1.4121    0.0000 C   0  0  0  0  0  0  0  0  0  0  0  0
    2.3081   -2.2713    0.0000 C   0  0  0  0  0  0  0  0  0  0  0  0
    8.1352   -1.4066    0.0000 C   0  0  0  0  0  0  0  0  0  0  0  0
    9.5639   -1.4011    0.0000 C   0  0  0  0  0  0  0  0  0  0  0  0
   10.2767   -0.9859    0.0000 C   0  0  0  0  0  0  0  0  0  0  0  0
    7.4154   -0.0124    0.0000 H   0  0  0  0  0  0  0  0  0  0  0  0
    4.7195    1.5804    0.0000 H   0  0  0  0  0  0  0  0  0  0  0  0
    4.7195    0.5104    0.0000 H   0  0  0  0  0  0  0  0  0  0  0  0
    4.0052    2.8178    0.0000 H   0  0  0  0  0  0  0  0  0  0  0  0
    3.0785    3.3527    0.0000 H   0  0  0  0  0  0  0  0  0  0  0  0
    2.3640   -0.0246    0.0000 H   0  0  0  0  0  0  0  0  0  0  0  0
    1.4374    0.5104    0.0000 H   0  0  0  0  0  0  0  0  0  0  0  0
    2.8662   -0.3145    0.0000 H   0  0  0  0  0  0  0  0  0  0  0  0
    3.7929   -0.8495    0.0000 H   0  0  0  0  0  0  0  0  0  0  0  0
    2.3640    3.7651    0.0000 H   0  0  0  0  0  0  0  0  0  0  0  0
    3.2907    3.2302    0.0000 H   0  0  0  0  0  0  0  0  0  0  0  0
    0.7232    0.9228    0.0000 H   0  0  0  0  0  0  0  0  0  0  0  0
    1.6498    0.3878    0.0000 H   0  0  0  0  0  0  0  0  0  0  0  0
    5.9472    0.0436    0.0000 H   0  0  0  0  0  0  0  0  0  0  0  0
    3.0674    0.0436    0.0000 H   0  0  0  0  0  0  0  0  0  0  0  0
    5.9473   -3.7270    0.0000 H   0  0  0  0  0  0  0  0  0  0  0  0
    3.0674   -3.7270    0.0000 H   0  0  0  0  0  0  0  0  0  0  0  0
    7.5981   -2.7907    0.0000 H   0  0  0  0  0  0  0  0  0  0  0  0
    1.4164   -0.8926    0.0000 H   0  0  0  0  0  0  0  0  0  0  0  0
    1.4164   -2.7908    0.0000 H   0  0  0  0  0  0  0  0  0  0  0  0
    9.5680   -2.4711    0.0000 H   0  0  0  0  0  0  0  0  0  0  0  0
   10.4926   -1.9325    0.0000 H   0  0  0  0  0  0  0  0  0  0  0  0
   11.2054   -1.5173    0.0000 H   0  0  0  0  0  0  0  0  0  0  0  0
   10.2726    0.0841    0.0000 H   0  0  0  0  0  0  0  0  0  0  0  0
   11.2013   -0.4473    0.0000 H   0  0  0  0  0  0  0  0  0  0  0  0
  1 18  1  0  0  0  0
  1 19  1  0  0  0  0
  2 13  1  0  0  0  0
  2 14  1  0  0  0  0
  3 15  2  0  0  0  0
  4 28  1  0  0  0  0
  4 29  1  0  0  0  0
  5 28  2  0  0  0  0
  6  9  1  0  0  0  0
  6 10  1  0  0  0  0
  6 11  1  0  0  0  0
  7 15  1  0  0  0  0
  7 16  1  0  0  0  0
  7 17  1  0  0  0  0
  8 23  1  0  0  0  0
  8 28  1  0  0  0  0
  8 31  1  0  0  0  0
  9 12  1  0  0  0  0
  9 32  1  0  0  0  0
  9 33  1  0  0  0  0
 10 13  1  0  0  0  0
 10 34  1  0  0  0  0
 10 35  1  0  0  0  0
 11 14  1  0  0  0  0
 11 36  1  0  0  0  0
 11 37  1  0  0  0  0
 12 15  1  0  0  0  0
 12 38  1  0  0  0  0
 12 39  1  0  0  0  0
 13 40  1  0  0  0  0
 13 41  1  0  0  0  0
 14 42  1  0  0  0  0
 14 43  1  0  0  0  0
 16 18  2  0  0  0  0
 16 20  1  0  0  0  0
 17 19  1  0  0  0  0
 17 21  2  0  0  0  0
 18 22  1  0  0  0  0
 19 24  2  0  0  0  0
 20 23  2  0  0  0  0
 20 44  1  0  0  0  0
 21 26  1  0  0  0  0
 21 45  1  0  0  0  0
 22 25  2  0  0  0  0
 22 46  1  0  0  0  0
 23 25  1  0  0  0  0
 24 27  1  0  0  0  0
 24 47  1  0  0  0  0
 25 48  1  0  0  0  0
 26 27  2  0  0  0  0
 26 49  1  0  0  0  0
 27 50  1  0  0  0  0
 29 30  1  0  0  0  0
 29 51  1  0  0  0  0
 29 52  1  0  0  0  0
 30 53  1  0  0  0  0
 30 54  1  0  0  0  0
 30 55  1  0  0  0  0
M  END
>  <DRUGBANK_ID>
DB00680

>  <SECONDARY_ACCESSION_NUMBERS>
APRD01124

>  <COMMON_NAME>
Moricizine

>  <CAS_NUMBER>
31883-05-3

>  <UNII>
2GT1D0TMX1

>  <SYNONYMS>
[10-(3-Morpholin-4-yl-propionyl)-10H-phenothiazin-2-yl]-carbamic acid ethyl ester; Ethmozin; ethyl 10-(3-morpholinopropionyl)phenothiazine-2-carbamate; ethyl 10-(Î²-N-morpholinylpropionyl)phenothiazine-2-carbamate; Etmozin; Moracizin; Moracizina; Moracizine; Moracizinum; Moricizine

$$$$
