
 OpenBabel10282417072D

 55 58  0  0  0  0  0  0  0  0999 V2000
   -2.1434   -0.2062    0.0000 C   0  0  0  0  0  0  0  0  0  0  0  0
   -1.4289   -0.6188    0.0000 C   0  0  0  0  0  0  0  0  0  0  0  0
   -1.4289   -1.4438    0.0000 C   0  0  0  0  0  0  0  0  0  0  0  0
   -2.1434   -1.8563    0.0000 C   0  0  0  0  0  0  0  0  0  0  0  0
   -2.8579   -1.4438    0.0000 C   0  0  0  0  0  0  0  0  0  0  0  0
   -2.8579   -0.6188    0.0000 N   0  0  0  0  0  0  0  0  0  0  0  0
   -0.7145   -0.2062    0.0000 C   0  0  0  0  0  0  0  0  0  0  0  0
   -0.7145    0.6188    0.0000 O   0  0  0  0  0  0  0  0  0  0  0  0
    0.0000   -0.6188    0.0000 N   0  0  0  0  0  0  0  0  0  0  0  0
   -2.1434    0.6188    0.0000 O   0  0  0  0  0  0  0  0  0  0  0  0
   -3.5724   -0.2062    0.0000 C   0  0  0  0  0  0  0  0  0  0  0  0
   -4.2868   -0.6188    0.0000 C   0  0  0  0  0  0  0  0  0  0  0  0
   -5.0012   -0.2062    0.0000 C   0  0  0  0  0  0  0  0  0  0  0  0
   -5.0012    0.6188    0.0000 C   0  0  0  0  0  0  0  0  0  0  0  0
   -4.2868    1.0313    0.0000 C   0  0  0  0  0  0  0  0  0  0  0  0
   -3.5724    0.6188    0.0000 C   0  0  0  0  0  0  0  0  0  0  0  0
   -5.7158    1.0313    0.0000 F   0  0  0  0  0  0  0  0  0  0  0  0
   -0.7145   -1.8563    0.0000 O   0  0  0  0  0  0  0  0  0  0  0  0
    0.0000   -1.4438    0.0000 C   0  0  0  0  0  0  0  0  0  0  0  0
    0.7145   -1.8563    0.0000 C   0  0  0  0  0  0  0  0  0  0  0  0
    0.7145   -0.2062    0.0000 C   0  0  0  0  0  0  0  0  0  0  0  0
    1.4289   -0.6188    0.0000 C   0  0  0  0  0  0  0  0  0  0  0  0
    2.1434   -0.2062    0.0000 C   0  0  0  0  0  0  0  0  0  0  0  0
    2.1434    0.6188    0.0000 C   0  0  0  0  0  0  0  0  0  0  0  0
    1.4289    1.0313    0.0000 C   0  0  0  0  0  0  0  0  0  0  0  0
    0.7145    0.6188    0.0000 C   0  0  0  0  0  0  0  0  0  0  0  0
    2.8579   -0.6188    0.0000 F   0  0  0  0  0  0  0  0  0  0  0  0
    2.8579    1.0313    0.0000 O   0  0  0  0  0  0  0  0  0  0  0  0
    5.0012    0.6188    0.0000 C   0  0  0  0  0  0  0  0  0  0  0  0
    4.2868    1.0313    0.0000 C   0  0  0  0  0  0  0  0  0  0  0  0
    3.5724    0.6188    0.0000 C   0  0  0  0  0  0  0  0  0  0  0  0
    3.5724   -0.2062    0.0000 C   0  0  0  0  0  0  0  0  0  0  0  0
    4.2868   -0.6188    0.0000 C   0  0  0  0  0  0  0  0  0  0  0  0
    5.0012   -0.2062    0.0000 N   0  0  0  0  0  0  0  0  0  0  0  0
    4.2868    1.8563    0.0000 Cl  0  0  0  0  0  0  0  0  0  0  0  0
    5.7158    1.0313    0.0000 N   0  0  0  0  0  0  0  0  0  0  0  0
   -2.1434   -2.8883    0.0000 H   0  0  0  0  0  0  0  0  0  0  0  0
   -3.7516   -1.9598    0.0000 H   0  0  0  0  0  0  0  0  0  0  0  0
    0.0000   -1.6033    0.0000 H   0  0  0  0  0  0  0  0  0  0  0  0
   -4.2868   -1.6508    0.0000 H   0  0  0  0  0  0  0  0  0  0  0  0
   -5.8950   -0.7221    0.0000 H   0  0  0  0  0  0  0  0  0  0  0  0
   -4.2868    2.0633    0.0000 H   0  0  0  0  0  0  0  0  0  0  0  0
   -2.6787    1.1348    0.0000 H   0  0  0  0  0  0  0  0  0  0  0  0
    0.0000   -0.3738    0.0000 H   0  0  0  0  0  0  0  0  0  0  0  0
   -0.9266   -0.9088    0.0000 H   0  0  0  0  0  0  0  0  0  0  0  0
    0.7145   -2.9263    0.0000 H   0  0  0  0  0  0  0  0  0  0  0  0
    1.6411   -1.3213    0.0000 H   0  0  0  0  0  0  0  0  0  0  0  0
    1.6412   -2.3913    0.0000 H   0  0  0  0  0  0  0  0  0  0  0  0
    1.4289   -1.6508    0.0000 H   0  0  0  0  0  0  0  0  0  0  0  0
    1.4289    2.0633    0.0000 H   0  0  0  0  0  0  0  0  0  0  0  0
   -0.1792    1.1348    0.0000 H   0  0  0  0  0  0  0  0  0  0  0  0
    2.6786   -0.7221    0.0000 H   0  0  0  0  0  0  0  0  0  0  0  0
    4.2868   -1.6508    0.0000 H   0  0  0  0  0  0  0  0  0  0  0  0
    6.5684    0.5390    0.0000 H   0  0  0  0  0  0  0  0  0  0  0  0
    5.7159    2.0158    0.0000 H   0  0  0  0  0  0  0  0  0  0  0  0
  1  2  1  0  0  0  0
  1  6  1  0  0  0  0
  1 10  2  0  0  0  0
  2  3  2  0  0  0  0
  2  7  1  0  0  0  0
  3  4  1  0  0  0  0
  3 18  1  0  0  0  0
  4  5  2  0  0  0  0
  4 37  1  0  0  0  0
  5  6  1  0  0  0  0
  5 38  1  0  0  0  0
  6 11  1  0  0  0  0
  7  8  2  0  0  0  0
  7  9  1  0  0  0  0
  9 21  1  0  0  0  0
  9 39  1  0  0  0  0
 11 12  1  0  0  0  0
 11 16  2  0  0  0  0
 12 13  2  0  0  0  0
 12 40  1  0  0  0  0
 13 14  1  0  0  0  0
 13 41  1  0  0  0  0
 14 15  2  0  0  0  0
 14 17  1  0  0  0  0
 15 16  1  0  0  0  0
 15 42  1  0  0  0  0
 16 43  1  0  0  0  0
 18 19  1  0  0  0  0
 19 20  1  0  0  0  0
 19 44  1  0  0  0  0
 19 45  1  0  0  0  0
 20 46  1  0  0  0  0
 20 47  1  0  0  0  0
 20 48  1  0  0  0  0
 21 22  1  0  0  0  0
 21 26  2  0  0  0  0
 22 23  2  0  0  0  0
 22 49  1  0  0  0  0
 23 24  1  0  0  0  0
 23 27  1  0  0  0  0
 24 25  2  0  0  0  0
 24 28  1  0  0  0  0
 25 26  1  0  0  0  0
 25 50  1  0  0  0  0
 26 51  1  0  0  0  0
 28 31  1  0  0  0  0
 29 30  1  0  0  0  0
 29 34  2  0  0  0  0
 29 36  1  0  0  0  0
 30 31  2  0  0  0  0
 30 35  1  0  0  0  0
 31 32  1  0  0  0  0
 32 33  2  0  0  0  0
 32 52  1  0  0  0  0
 33 34  1  0  0  0  0
 33 53  1  0  0  0  0
 36 54  1  0  0  0  0
 36 55  1  0  0  0  0
M  END
>  <DRUGBANK_ID>
DB12064

>  <COMMON_NAME>
BMS-777607

>  <CAS_NUMBER>
1025720-94-8

>  <UNII>
A3MMS6HDO1

$$$$
