ZYQ
 OpenBabel10282417072D

 26 27  0  0  0  0  0  0  0  0999 V2000
   -3.0861   -0.9061    0.0000 C   0  0  0  0  0  0  0  0  0  0  0  0
   -2.2611   -0.9061    0.0000 C   0  0  0  0  0  0  0  0  0  0  0  0
   -1.8486   -1.6206    0.0000 O   0  0  0  0  0  0  0  0  0  0  0  0
   -1.8486   -0.1917    0.0000 N   0  0  0  0  0  0  0  0  0  0  0  0
   -1.0236   -0.1917    0.0000 C   0  0  0  0  0  0  0  0  0  0  0  0
   -0.5386    0.4758    0.0000 N   0  0  0  0  0  0  0  0  0  0  0  0
    0.2460    0.2208    0.0000 C   0  0  0  0  0  0  0  0  0  0  0  0
    0.8910    0.7352    0.0000 C   0  0  0  0  0  0  0  0  0  0  0  0
    1.6953    0.5516    0.0000 C   0  0  0  0  0  0  0  0  0  0  0  0
    2.0533   -0.1917    0.0000 C   0  0  0  0  0  0  0  0  0  0  0  0
    1.6953   -0.9350    0.0000 N   0  0  0  0  0  0  0  0  0  0  0  0
    0.8910   -1.1185    0.0000 C   0  0  0  0  0  0  0  0  0  0  0  0
    0.7074   -1.9229    0.0000 O   0  0  0  0  0  0  0  0  0  0  0  0
    0.2460   -0.6042    0.0000 C   0  0  0  0  0  0  0  0  0  0  0  0
   -0.5386   -0.8591    0.0000 S   0  0  0  0  0  0  0  0  0  0  0  0
   -3.6211    0.0205    0.0000 H   0  0  0  0  0  0  0  0  0  0  0  0
   -3.6211   -1.8327    0.0000 H   0  0  0  0  0  0  0  0  0  0  0  0
   -4.1561   -0.9061    0.0000 H   0  0  0  0  0  0  0  0  0  0  0  0
   -2.3408    0.6609    0.0000 H   0  0  0  0  0  0  0  0  0  0  0  0
    0.6529    1.7784    0.0000 H   0  0  0  0  0  0  0  0  0  0  0  0
    1.6476    1.4918    0.0000 H   0  0  0  0  0  0  0  0  0  0  0  0
    2.3624    1.3882    0.0000 H   0  0  0  0  0  0  0  0  0  0  0  0
    2.7586    0.4318    0.0000 H   0  0  0  0  0  0  0  0  0  0  0  0
    3.1233   -0.1917    0.0000 H   0  0  0  0  0  0  0  0  0  0  0  0
    2.6226   -1.0977    0.0000 H   0  0  0  0  0  0  0  0  0  0  0  0
    2.3091   -1.7048    0.0000 H   0  0  0  0  0  0  0  0  0  0  0  0
  1  2  1  0  0  0  0
  1 16  1  0  0  0  0
  1 17  1  0  0  0  0
  1 18  1  0  0  0  0
  2  3  2  0  0  0  0
  2  4  1  0  0  0  0
  4  5  1  0  0  0  0
  4 19  1  0  0  0  0
  5  6  2  0  0  0  0
  5 15  1  0  0  0  0
  6  7  1  0  0  0  0
  7  8  1  0  0  0  0
  7 14  2  0  0  0  0
  8  9  1  0  0  0  0
  8 20  1  0  0  0  0
  8 21  1  0  0  0  0
  9 10  1  0  0  0  0
  9 22  1  0  0  0  0
  9 23  1  0  0  0  0
 10 11  1  0  0  0  0
 10 24  1  0  0  0  0
 10 25  1  0  0  0  0
 11 12  1  0  0  0  0
 11 26  1  0  0  0  0
 12 13  2  0  0  0  0
 12 14  1  0  0  0  0
 14 15  1  0  0  0  0
M  END
>  <DRUGBANK_ID>
DB08776

>  <COMMON_NAME>
N-(4-OXO-5,6,7,8-TETRAHYDRO-4H-[1,3]THIAZOLO[5,4-C]AZEPIN-2-YL)ACETAMIDE

$$$$
