
 OpenBabel10282417072D

 39 38  0  0  1  0  0  0  0  0999 V2000
    9.2913   -6.3422    0.0000 C   0  0  0  0  0  0  0  0  0  0  0  0
   10.0057   -6.7547    0.0000 C   0  0  0  0  0  0  0  0  0  0  0  0
   10.7202   -6.3422    0.0000 C   0  0  0  0  0  0  0  0  0  0  0  0
   11.4347   -6.7547    0.0000 C   0  0  0  0  0  0  0  0  0  0  0  0
   12.1491   -6.3422    0.0000 C   0  0  0  0  0  0  0  0  0  0  0  0
   12.8636   -6.7547    0.0000 C   0  0  0  0  0  0  0  0  0  0  0  0
   13.5781   -6.3422    0.0000 C   0  0  2  0  0  0  0  0  0  0  0  0
   14.2926   -6.7547    0.0000 C   0  0  0  0  0  0  0  0  0  0  0  0
   15.0071   -6.3422    0.0000 C   0  0  0  0  0  0  0  0  0  0  0  0
   15.7215   -6.7547    0.0000 O   0  0  0  0  0  0  0  0  0  0  0  0
   15.0071   -5.5172    0.0000 O   0  0  0  0  0  0  0  0  0  0  0  0
    8.5768   -6.7547    0.0000 C   0  0  0  0  0  0  0  0  0  0  0  0
    7.8623   -6.3422    0.0000 C   0  0  0  0  0  0  0  0  0  0  0  0
    7.1478   -6.7547    0.0000 C   0  0  0  0  0  0  0  0  0  0  0  0
   12.9209   -5.6151    0.0000 O   0  0  0  0  0  0  0  0  0  0  0  0
   14.1649   -5.5653    0.0000 H   0  0  0  0  0  0  0  0  0  0  0  0
    9.2913   -5.2722    0.0000 H   0  0  0  0  0  0  0  0  0  0  0  0
    8.3647   -5.8072    0.0000 H   0  0  0  0  0  0  0  0  0  0  0  0
   10.0057   -7.8247    0.0000 H   0  0  0  0  0  0  0  0  0  0  0  0
   10.9323   -7.2897    0.0000 H   0  0  0  0  0  0  0  0  0  0  0  0
   10.7202   -5.2722    0.0000 H   0  0  0  0  0  0  0  0  0  0  0  0
   11.6468   -5.8072    0.0000 H   0  0  0  0  0  0  0  0  0  0  0  0
   11.4347   -7.8247    0.0000 H   0  0  0  0  0  0  0  0  0  0  0  0
   12.3614   -7.2897    0.0000 H   0  0  0  0  0  0  0  0  0  0  0  0
   12.1491   -5.2722    0.0000 H   0  0  0  0  0  0  0  0  0  0  0  0
   13.0757   -5.8072    0.0000 H   0  0  0  0  0  0  0  0  0  0  0  0
   12.8636   -7.8247    0.0000 H   0  0  0  0  0  0  0  0  0  0  0  0
   13.7902   -7.2897    0.0000 H   0  0  0  0  0  0  0  0  0  0  0  0
   14.2926   -7.8247    0.0000 H   0  0  0  0  0  0  0  0  0  0  0  0
   15.2192   -7.2897    0.0000 H   0  0  0  0  0  0  0  0  0  0  0  0
   15.8186   -5.0487    0.0000 H   0  0  0  0  0  0  0  0  0  0  0  0
    8.5768   -7.8247    0.0000 H   0  0  0  0  0  0  0  0  0  0  0  0
    7.6502   -7.2897    0.0000 H   0  0  0  0  0  0  0  0  0  0  0  0
    7.8623   -5.2722    0.0000 H   0  0  0  0  0  0  0  0  0  0  0  0
    6.9357   -5.8072    0.0000 H   0  0  0  0  0  0  0  0  0  0  0  0
    6.2212   -6.2197    0.0000 H   0  0  0  0  0  0  0  0  0  0  0  0
    7.1478   -7.8247    0.0000 H   0  0  0  0  0  0  0  0  0  0  0  0
    6.2211   -7.2897    0.0000 H   0  0  0  0  0  0  0  0  0  0  0  0
   13.2189   -4.6920    0.0000 H   0  0  0  0  0  0  0  0  0  0  0  0
  1 12  1  0  0  0  0
  1 17  1  0  0  0  0
  1 18  1  0  0  0  0
  2  1  1  0  0  0  0
  2 19  1  0  0  0  0
  2 20  1  0  0  0  0
  3  2  1  0  0  0  0
  3 21  1  0  0  0  0
  3 22  1  0  0  0  0
  4  3  1  0  0  0  0
  4 23  1  0  0  0  0
  4 24  1  0  0  0  0
  5  4  1  0  0  0  0
  5 25  1  0  0  0  0
  5 26  1  0  0  0  0
  6  5  1  0  0  0  0
  6 27  1  0  0  0  0
  6 28  1  0  0  0  0
  7  6  1  0  0  0  0
  7 15  1  0  0  0  0
  7 16  1  6  0  0  0
  8  7  1  0  0  0  0
  8 29  1  0  0  0  0
  8 30  1  0  0  0  0
  9  8  1  0  0  0  0
 10  9  2  0  0  0  0
 11  9  1  0  0  0  0
 11 31  1  0  0  0  0
 12 13  1  0  0  0  0
 12 32  1  0  0  0  0
 12 33  1  0  0  0  0
 13 14  1  0  0  0  0
 13 34  1  0  0  0  0
 13 35  1  0  0  0  0
 14 36  1  0  0  0  0
 14 37  1  0  0  0  0
 14 38  1  0  0  0  0
 15 39  1  0  0  0  0
M  END
>  <DRUGBANK_ID>
DB07930

>  <COMMON_NAME>
(3R)-3-HYDROXYDODECANOIC ACID

$$$$
