LZL
 OpenBabel10282417072D

 37 40  0  0  0  0  0  0  0  0999 V2000
   -0.9175  -12.9282    0.0000 N   0  0  0  0  0  0  0  0  0  0  0  0
   -0.2031  -12.5157    0.0000 C   0  0  0  0  0  0  0  0  0  0  0  0
   -0.2031  -11.6907    0.0000 N   0  0  0  0  0  0  0  0  0  0  0  0
    0.5114  -11.2782    0.0000 C   0  0  0  0  0  0  0  0  0  0  0  0
    1.2259  -11.6907    0.0000 C   0  0  0  0  0  0  0  0  0  0  0  0
    1.9403  -11.2782    0.0000 C   0  0  0  0  0  0  0  0  0  0  0  0
    0.5114  -12.9282    0.0000 N   0  0  0  0  0  0  0  0  0  0  0  0
    1.2259  -12.5157    0.0000 C   0  0  0  0  0  0  0  0  0  0  0  0
    1.9403  -12.9282    0.0000 N   0  0  0  0  0  0  0  0  0  0  0  0
    2.6548  -12.5157    0.0000 C   0  0  0  0  0  0  0  0  0  0  0  0
    3.3693  -12.9282    0.0000 N   0  0  0  0  0  0  0  0  0  0  0  0
    4.1230  -12.5927    0.0000 C   0  0  0  0  0  0  0  0  0  0  0  0
    4.6750  -13.2058    0.0000 C   0  0  0  0  0  0  0  0  0  0  0  0
    4.2625  -13.9203    0.0000 C   0  0  0  0  0  0  0  0  0  0  0  0
    3.4555  -13.7487    0.0000 C   0  0  0  0  0  0  0  0  0  0  0  0
    2.6548  -11.6907    0.0000 C   0  0  0  0  0  0  0  0  0  0  0  0
    3.3693  -11.2782    0.0000 C   0  0  0  0  0  0  0  0  0  0  0  0
    3.3693  -10.4532    0.0000 C   0  0  0  0  0  0  0  0  0  0  0  0
    4.0838  -10.0407    0.0000 C   0  0  0  0  0  0  0  0  0  0  0  0
    4.7982  -10.4532    0.0000 C   0  0  0  0  0  0  0  0  0  0  0  0
    4.7982  -11.2782    0.0000 C   0  0  0  0  0  0  0  0  0  0  0  0
    4.0838  -11.6907    0.0000 C   0  0  0  0  0  0  0  0  0  0  0  0
   -1.7701  -12.4360    0.0000 H   0  0  0  0  0  0  0  0  0  0  0  0
   -0.9175  -13.9127    0.0000 H   0  0  0  0  0  0  0  0  0  0  0  0
    0.5114  -10.2462    0.0000 H   0  0  0  0  0  0  0  0  0  0  0  0
    1.9403  -10.2462    0.0000 H   0  0  0  0  0  0  0  0  0  0  0  0
    4.3455  -11.5461    0.0000 H   0  0  0  0  0  0  0  0  0  0  0  0
    5.1566  -12.3158    0.0000 H   0  0  0  0  0  0  0  0  0  0  0  0
    5.7013  -13.0979    0.0000 H   0  0  0  0  0  0  0  0  0  0  0  0
    4.6822  -14.8631    0.0000 H   0  0  0  0  0  0  0  0  0  0  0  0
    2.6603  -14.4646    0.0000 H   0  0  0  0  0  0  0  0  0  0  0  0
    3.7324  -14.7823    0.0000 H   0  0  0  0  0  0  0  0  0  0  0  0
    2.4756   -9.9372    0.0000 H   0  0  0  0  0  0  0  0  0  0  0  0
    4.0838   -9.0087    0.0000 H   0  0  0  0  0  0  0  0  0  0  0  0
    5.6919   -9.9372    0.0000 H   0  0  0  0  0  0  0  0  0  0  0  0
    5.6919  -11.7942    0.0000 H   0  0  0  0  0  0  0  0  0  0  0  0
    4.0838  -12.7227    0.0000 H   0  0  0  0  0  0  0  0  0  0  0  0
  1  2  1  0  0  0  0
  1 23  1  0  0  0  0
  1 24  1  0  0  0  0
  2  3  1  0  0  0  0
  2  7  2  0  0  0  0
  3  4  2  0  0  0  0
  4  5  1  0  0  0  0
  4 25  1  0  0  0  0
  5  6  1  0  0  0  0
  5  8  2  0  0  0  0
  6 16  2  0  0  0  0
  6 26  1  0  0  0  0
  7  8  1  0  0  0  0
  8  9  1  0  0  0  0
  9 10  2  0  0  0  0
 10 11  1  0  0  0  0
 10 16  1  0  0  0  0
 11 12  1  0  0  0  0
 11 15  1  0  0  0  0
 12 13  1  0  0  0  0
 12 27  1  0  0  0  0
 12 28  1  0  0  0  0
 13 14  2  0  0  0  0
 13 29  1  0  0  0  0
 14 15  1  0  0  0  0
 14 30  1  0  0  0  0
 15 31  1  0  0  0  0
 15 32  1  0  0  0  0
 16 17  1  0  0  0  0
 17 18  1  0  0  0  0
 17 22  2  0  0  0  0
 18 19  2  0  0  0  0
 18 33  1  0  0  0  0
 19 20  1  0  0  0  0
 19 34  1  0  0  0  0
 20 21  2  0  0  0  0
 20 35  1  0  0  0  0
 21 22  1  0  0  0  0
 21 36  1  0  0  0  0
 22 37  1  0  0  0  0
M  END
>  <DRUGBANK_ID>
DB08146

>  <COMMON_NAME>
7-(2,5-dihydropyrrol-1-yl)-6-phenyl-pyrido[6,5-d]pyrimidin-2-amine

$$$$
