
 OpenBabel10282417072D

 30 31  0  0  0  0  0  0  0  0999 V2000
   -2.0672   -1.8747    0.0000 C   0  0  0  0  0  0  0  0  0  0  0  0
   -1.3987   -2.3619    0.0000 C   0  0  0  0  0  0  0  0  0  0  0  0
   -0.6445   -2.0264    0.0000 C   0  0  0  0  0  0  0  0  0  0  0  0
   -0.5577   -1.2038    0.0000 C   0  0  0  0  0  0  0  0  0  0  0  0
   -1.2313   -0.7180    0.0000 C   0  0  0  0  0  0  0  0  0  0  0  0
   -1.9828   -1.0563    0.0000 C   0  0  0  0  0  0  0  0  0  0  0  0
    0.1952   -0.8671    0.0000 N   0  0  0  0  0  0  0  0  0  0  0  0
    0.2802   -0.0465    0.0000 C   0  0  0  0  0  0  0  0  0  0  0  0
    0.9909    0.3647    0.0000 S   0  0  0  0  0  0  0  0  0  0  0  0
    0.8182    1.1713    0.0000 C   0  0  1  0  0  0  0  0  0  0  0  0
   -0.0024    1.2563    0.0000 C   0  0  0  0  0  0  0  0  0  0  0  0
   -0.3367    0.5021    0.0000 N   0  0  0  0  0  0  0  0  0  0  0  0
   -0.4160    1.9701    0.0000 O   0  0  0  0  0  0  0  0  0  0  0  0
    1.3691    1.7853    0.0000 C   0  0  0  0  0  0  0  0  0  0  0  0
    2.1764    1.6151    0.0000 C   0  0  0  0  0  0  0  0  0  0  0  0
    1.1130    2.5695    0.0000 C   0  0  0  0  0  0  0  0  0  0  0  0
    0.0227   -2.5115    0.0000 F   0  0  0  0  0  0  0  0  0  0  0  0
   -3.0099   -2.2947    0.0000 H   0  0  0  0  0  0  0  0  0  0  0  0
   -1.5075   -3.3881    0.0000 H   0  0  0  0  0  0  0  0  0  0  0  0
   -1.1273    0.3088    0.0000 H   0  0  0  0  0  0  0  0  0  0  0  0
   -2.8195   -0.4522    0.0000 H   0  0  0  0  0  0  0  0  0  0  0  0
    0.9926   -1.4445    0.0000 H   0  0  0  0  0  0  0  0  0  0  0  0
    1.8522    0.8960    0.0000 H   0  0  0  0  0  0  0  0  0  0  0  0
    2.0838    2.5816    0.0000 H   0  0  0  0  0  0  0  0  0  0  0  0
    2.5087    0.5980    0.0000 H   0  0  0  0  0  0  0  0  0  0  0  0
    2.8911    2.4114    0.0000 H   0  0  0  0  0  0  0  0  0  0  0  0
    3.2234    1.3944    0.0000 H   0  0  0  0  0  0  0  0  0  0  0  0
    1.8278    3.3657    0.0000 H   0  0  0  0  0  0  0  0  0  0  0  0
    0.0661    2.7904    0.0000 H   0  0  0  0  0  0  0  0  0  0  0  0
    0.7808    3.5866    0.0000 H   0  0  0  0  0  0  0  0  0  0  0  0
  1  2  2  0  0  0  0
  1 18  1  0  0  0  0
  2  3  1  0  0  0  0
  2 19  1  0  0  0  0
  3  4  2  0  0  0  0
  3 17  1  0  0  0  0
  4  5  1  0  0  0  0
  4  7  1  0  0  0  0
  5  6  2  0  0  0  0
  5 20  1  0  0  0  0
  6  1  1  0  0  0  0
  6 21  1  0  0  0  0
  7  8  1  0  0  0  0
  7 22  1  0  0  0  0
  8  9  1  0  0  0  0
  9 10  1  0  0  0  0
 10 11  1  0  0  0  0
 10 14  1  0  0  0  0
 10 23  1  6  0  0  0
 11 12  1  0  0  0  0
 11 13  2  0  0  0  0
 12  8  2  0  0  0  0
 14 15  1  0  0  0  0
 14 16  1  0  0  0  0
 14 24  1  0  0  0  0
 15 25  1  0  0  0  0
 15 26  1  0  0  0  0
 15 27  1  0  0  0  0
 16 28  1  0  0  0  0
 16 29  1  0  0  0  0
 16 30  1  0  0  0  0
M  END
>  <DRUGBANK_ID>
DB08771

>  <COMMON_NAME>
(5R)-2-[(2-Fluorophenyl)amino]-5-isopropyl-1,3-thiazol-4(5H)-one

$$$$
