
 OpenBabel10282417072D

 45 47  0  0  0  0  0  0  0  0999 V2000
    5.3071   -2.6919    0.0000 C   0  0  0  0  0  0  0  0  0  0  0  0
    4.4821   -2.6919    0.0000 C   0  0  0  0  0  0  0  0  0  0  0  0
    4.2272   -1.9072    0.0000 S   0  0  0  0  0  0  0  0  0  0  0  0
    4.8946   -1.4223    0.0000 C   0  0  0  0  0  0  0  0  0  0  0  0
    5.5620   -1.9072    0.0000 C   0  0  0  0  0  0  0  0  0  0  0  0
    4.8946   -0.5973    0.0000 C   0  0  0  0  0  0  0  0  0  0  0  0
    4.1801   -0.1848    0.0000 O   0  0  0  0  0  0  0  0  0  0  0  0
    5.6091   -0.1848    0.0000 N   0  0  0  0  0  0  0  0  0  0  0  0
    5.6091    0.6402    0.0000 C   0  0  0  0  0  0  0  0  0  0  0  0
    4.8946    1.0527    0.0000 C   0  0  0  0  0  0  0  0  0  0  0  0
    4.8946    1.8777    0.0000 C   0  0  0  0  0  0  0  0  0  0  0  0
    5.6091    2.2902    0.0000 C   0  0  0  0  0  0  0  0  0  0  0  0
    6.3235    1.8777    0.0000 C   0  0  0  0  0  0  0  0  0  0  0  0
    6.3235    1.0527    0.0000 C   0  0  0  0  0  0  0  0  0  0  0  0
    7.0380    0.6402    0.0000 C   0  0  0  0  0  0  0  0  0  0  0  0
    7.7525    1.0527    0.0000 N   0  0  0  0  0  0  0  0  0  0  0  0
    8.4669    0.6402    0.0000 C   0  0  1  0  0  0  0  0  0  0  0  0
    9.1814    1.0527    0.0000 C   0  0  0  0  0  0  0  0  0  0  0  0
    9.8959    0.6402    0.0000 C   0  0  0  0  0  0  0  0  0  0  0  0
    9.8959   -0.1848    0.0000 C   0  0  1  0  0  0  0  0  0  0  0  0
    9.1814   -0.5973    0.0000 C   0  0  0  0  0  0  0  0  0  0  0  0
    8.4669   -0.1848    0.0000 C   0  0  0  0  0  0  0  0  0  0  0  0
   10.6104   -0.5973    0.0000 O   0  0  0  0  0  0  0  0  0  0  0  0
    5.6091    3.1152    0.0000 Br  0  0  0  0  0  0  0  0  0  0  0  0
    4.1801    0.6402    0.0000 Br  0  0  0  0  0  0  0  0  0  0  0  0
    5.9137   -3.5268    0.0000 H   0  0  0  0  0  0  0  0  0  0  0  0
    3.8755   -3.5268    0.0000 H   0  0  0  0  0  0  0  0  0  0  0  0
    6.5435   -1.5883    0.0000 H   0  0  0  0  0  0  0  0  0  0  0  0
    6.4617   -0.6771    0.0000 H   0  0  0  0  0  0  0  0  0  0  0  0
    4.0009    2.3937    0.0000 H   0  0  0  0  0  0  0  0  0  0  0  0
    7.2172    2.3937    0.0000 H   0  0  0  0  0  0  0  0  0  0  0  0
    7.0380   -0.4298    0.0000 H   0  0  0  0  0  0  0  0  0  0  0  0
    7.9646    0.1052    0.0000 H   0  0  0  0  0  0  0  0  0  0  0  0
    7.7525    2.0727    0.0000 H   0  0  0  0  0  0  0  0  0  0  0  0
    8.4669    1.7102    0.0000 H   0  0  0  0  0  0  0  0  0  0  0  0
    9.1814    2.1227    0.0000 H   0  0  0  0  0  0  0  0  0  0  0  0
   10.1080    1.5877    0.0000 H   0  0  0  0  0  0  0  0  0  0  0  0
   10.8225    1.1752    0.0000 H   0  0  0  0  0  0  0  0  0  0  0  0
   10.8225    0.1052    0.0000 H   0  0  0  0  0  0  0  0  0  0  0  0
   10.8225    0.3502    0.0000 H   0  0  0  0  0  0  0  0  0  0  0  0
    9.1814   -1.6673    0.0000 H   0  0  0  0  0  0  0  0  0  0  0  0
    8.2548   -1.1323    0.0000 H   0  0  0  0  0  0  0  0  0  0  0  0
    7.5403   -0.7198    0.0000 H   0  0  0  0  0  0  0  0  0  0  0  0
    7.5403    0.3502    0.0000 H   0  0  0  0  0  0  0  0  0  0  0  0
   10.6104   -1.5673    0.0000 H   0  0  0  0  0  0  0  0  0  0  0  0
  1  2  2  0  0  0  0
  1  5  1  0  0  0  0
  1 26  1  0  0  0  0
  2  3  1  0  0  0  0
  2 27  1  0  0  0  0
  3  4  1  0  0  0  0
  4  5  2  0  0  0  0
  4  6  1  0  0  0  0
  5 28  1  0  0  0  0
  6  7  2  0  0  0  0
  6  8  1  0  0  0  0
  8  9  1  0  0  0  0
  8 29  1  0  0  0  0
  9 10  2  0  0  0  0
  9 14  1  0  0  0  0
 10 11  1  0  0  0  0
 10 25  1  0  0  0  0
 11 12  2  0  0  0  0
 11 30  1  0  0  0  0
 12 13  1  0  0  0  0
 12 24  1  0  0  0  0
 13 14  2  0  0  0  0
 13 31  1  0  0  0  0
 14 15  1  0  0  0  0
 15 16  1  0  0  0  0
 15 32  1  0  0  0  0
 15 33  1  0  0  0  0
 16 34  1  0  0  0  0
 17 16  1  0  0  0  0
 17 18  1  0  0  0  0
 17 22  1  0  0  0  0
 17 35  1  6  0  0  0
 18 19  1  0  0  0  0
 18 36  1  0  0  0  0
 18 37  1  0  0  0  0
 19 20  1  0  0  0  0
 19 38  1  0  0  0  0
 19 39  1  0  0  0  0
 20 21  1  0  0  0  0
 20 23  1  0  0  0  0
 20 40  1  1  0  0  0
 21 22  1  0  0  0  0
 21 41  1  0  0  0  0
 21 42  1  0  0  0  0
 22 43  1  0  0  0  0
 22 44  1  0  0  0  0
 23 45  1  0  0  0  0
M  END
>  <DRUGBANK_ID>
DB13239

>  <COMMON_NAME>
Neltenexine

>  <CAS_NUMBER>
99453-84-6

>  <UNII>
U942DGM90X

>  <SYNONYMS>
Neltenexine

$$$$
