1494
 OpenBabel10282417072D

 29 27  0  0  0  0  0  0  0  0999 V2000
    0.3572    0.3020    0.0000 Cl  0  0  0  0  0  0  0  0  0  0  0  0
    0.6592    1.4290    0.0000 Cl  0  0  0  0  0  0  0  0  0  0  0  0
    1.4842    0.0000    0.0000 Cl  0  0  0  0  0  0  0  0  0  0  0  0
    3.3009    5.4278    0.0000 O   0  5  0  0  0  0  0  0  0  0  0  0
    2.5864    4.1903    0.0000 O   0  0  0  0  0  0  0  0  0  0  0  0
    2.5007    0.7145    0.0000 O   0  0  0  0  0  0  0  0  0  0  0  0
    1.7862    1.9520    0.0000 O   0  0  0  0  0  0  0  0  0  0  0  0
    1.1575    5.0153    0.0000 N   0  3  0  0  0  0  0  0  0  0  0  0
    1.8720    5.4278    0.0000 C   0  0  0  0  0  0  0  0  0  0  0  0
    1.5700    4.3008    0.0000 C   0  0  0  0  0  0  0  0  0  0  0  0
    0.7450    5.7298    0.0000 C   0  0  0  0  0  0  0  0  0  0  0  0
    0.4430    4.6028    0.0000 C   0  0  0  0  0  0  0  0  0  0  0  0
    2.5864    5.0153    0.0000 C   0  0  0  0  0  0  0  0  0  0  0  0
    1.7862    1.1270    0.0000 C   0  0  0  0  0  0  0  0  0  0  0  0
    1.0717    0.7145    0.0000 C   0  0  0  0  0  0  0  0  0  0  0  0
    2.5007   -0.2225    0.0000 H   0  0  0  0  0  0  0  0  0  0  0  0
    2.5977    2.4205    0.0000 H   0  0  0  0  0  0  0  0  0  0  0  0
    1.8720    6.4978    0.0000 H   0  0  0  0  0  0  0  0  0  0  0  0
    2.7987    5.9628    0.0000 H   0  0  0  0  0  0  0  0  0  0  0  0
    1.0350    3.3742    0.0000 H   0  0  0  0  0  0  0  0  0  0  0  0
    2.6400    4.3008    0.0000 H   0  0  0  0  0  0  0  0  0  0  0  0
    2.1050    3.3741    0.0000 H   0  0  0  0  0  0  0  0  0  0  0  0
    1.2800    6.6564    0.0000 H   0  0  0  0  0  0  0  0  0  0  0  0
   -0.3250    5.7298    0.0000 H   0  0  0  0  0  0  0  0  0  0  0  0
    0.2100    6.6565    0.0000 H   0  0  0  0  0  0  0  0  0  0  0  0
   -0.4836    5.1378    0.0000 H   0  0  0  0  0  0  0  0  0  0  0  0
    0.4430    3.5328    0.0000 H   0  0  0  0  0  0  0  0  0  0  0  0
   -0.4837    4.0678    0.0000 H   0  0  0  0  0  0  0  0  0  0  0  0
    0.8596    1.6620    0.0000 H   0  0  0  0  0  0  0  0  0  0  0  0
  1 15  1  0  0  0  0
  2 15  1  0  0  0  0
  3 15  1  0  0  0  0
  4 13  1  0  0  0  0
  5 13  2  0  0  0  0
  6 14  1  0  0  0  0
  6 16  1  0  0  0  0
  7 14  1  0  0  0  0
  7 17  1  0  0  0  0
  8  9  1  0  0  0  0
  8 10  1  0  0  0  0
  8 11  1  0  0  0  0
  8 12  1  0  0  0  0
  9 13  1  0  0  0  0
  9 18  1  0  0  0  0
  9 19  1  0  0  0  0
 10 20  1  0  0  0  0
 10 21  1  0  0  0  0
 10 22  1  0  0  0  0
 11 23  1  0  0  0  0
 11 24  1  0  0  0  0
 11 25  1  0  0  0  0
 12 26  1  0  0  0  0
 12 27  1  0  0  0  0
 12 28  1  0  0  0  0
 14 15  1  0  0  0  0
 14 29  1  0  0  0  0
M  CHG  2   4  -1   8   1
M  END
>  <DRUGBANK_ID>
DB01494

>  <COMMON_NAME>
Chloral betaine

>  <CAS_NUMBER>
2218-68-0

>  <UNII>
8680278NRH

>  <SYNONYMS>
Chloral betaine; Cloral betaine

$$$$
