
 OpenBabel10282417072D

 37 38  0  0  0  0  0  0  0  0999 V2000
   -0.6666   -0.6529    0.0000 C   0  0  1  0  0  0  0  0  0  0  0  0
   -1.0791    0.0615    0.0000 C   0  0  0  0  0  0  0  0  0  0  0  0
   -2.3166    0.7759    0.0000 C   0  0  0  0  0  0  0  0  0  0  0  0
   -3.1416   -2.0818    0.0000 C   0  0  0  0  0  0  0  0  0  0  0  0
   -3.5541   -1.3674    0.0000 C   0  0  0  0  0  0  0  0  0  0  0  0
   -3.1416   -0.6529    0.0000 C   0  0  0  0  0  0  0  0  0  0  0  0
   -2.3166   -0.6529    0.0000 C   0  0  0  0  0  0  0  0  0  0  0  0
    1.8083    0.7759    0.0000 C   0  0  0  0  0  0  0  0  0  0  0  0
    2.8003    1.6692    0.0000 C   0  0  0  0  0  0  0  0  0  0  0  0
    2.0860    2.0818    0.0000 N   0  0  0  0  0  0  0  0  0  0  0  0
    1.4728    1.5296    0.0000 N   0  0  0  0  0  0  0  0  0  0  0  0
    2.6288    0.8622    0.0000 S   0  0  0  0  0  0  0  0  0  0  0  0
    3.5541    2.0047    0.0000 S   0  0  0  0  0  0  0  0  0  0  0  0
    1.3958    0.0615    0.0000 N   0  0  0  0  0  0  0  0  0  0  0  0
    0.5708    0.0615    0.0000 C   0  0  0  0  0  0  0  0  0  0  0  0
    0.1584    0.7759    0.0000 O   0  0  0  0  0  0  0  0  0  0  0  0
    0.1584   -0.6529    0.0000 N   0  0  0  0  0  0  0  0  0  0  0  0
   -0.6666    0.7759    0.0000 O   0  0  0  0  0  0  0  0  0  0  0  0
   -1.9041    0.0615    0.0000 N   0  0  0  0  0  0  0  0  0  0  0  0
   -1.0791   -1.3674    0.0000 C   0  0  0  0  0  0  0  0  0  0  0  0
   -1.9041   -1.3674    0.0000 C   0  0  0  0  0  0  0  0  0  0  0  0
   -2.3166   -2.0818    0.0000 C   0  0  0  0  0  0  0  0  0  0  0  0
   -0.1316    0.2738    0.0000 H   0  0  0  0  0  0  0  0  0  0  0  0
   -1.7816    1.7026    0.0000 H   0  0  0  0  0  0  0  0  0  0  0  0
   -3.3866    0.7759    0.0000 H   0  0  0  0  0  0  0  0  0  0  0  0
   -2.8516    1.7025    0.0000 H   0  0  0  0  0  0  0  0  0  0  0  0
   -3.6576   -2.9755    0.0000 H   0  0  0  0  0  0  0  0  0  0  0  0
   -4.5861   -1.3674    0.0000 H   0  0  0  0  0  0  0  0  0  0  0  0
   -3.6576    0.2408    0.0000 H   0  0  0  0  0  0  0  0  0  0  0  0
   -1.8006    0.2408    0.0000 H   0  0  0  0  0  0  0  0  0  0  0  0
    1.9832    3.0609    0.0000 H   0  0  0  0  0  0  0  0  0  0  0  0
    1.8880   -0.7911    0.0000 H   0  0  0  0  0  0  0  0  0  0  0  0
    0.6507   -1.5055    0.0000 H   0  0  0  0  0  0  0  0  0  0  0  0
   -2.3963   -0.7911    0.0000 H   0  0  0  0  0  0  0  0  0  0  0  0
   -0.5441   -2.2940    0.0000 H   0  0  0  0  0  0  0  0  0  0  0  0
   -1.6141   -2.2940    0.0000 H   0  0  0  0  0  0  0  0  0  0  0  0
   -1.8006   -2.9755    0.0000 H   0  0  0  0  0  0  0  0  0  0  0  0
  1  2  1  0  0  0  0
  1 17  1  0  0  0  0
  1 20  1  0  0  0  0
  1 23  1  6  0  0  0
  2 18  2  0  0  0  0
  2 19  1  0  0  0  0
  3 19  1  0  0  0  0
  3 24  1  0  0  0  0
  3 25  1  0  0  0  0
  3 26  1  0  0  0  0
  4  5  2  0  0  0  0
  4 27  1  0  0  0  0
  5  6  1  0  0  0  0
  5 28  1  0  0  0  0
  6 29  1  0  0  0  0
  7  6  2  0  0  0  0
  7 21  1  0  0  0  0
  7 30  1  0  0  0  0
  8 11  2  0  0  0  0
  8 12  1  0  0  0  0
  8 14  1  0  0  0  0
  9 10  1  0  0  0  0
  9 12  1  0  0  0  0
  9 13  2  0  0  0  0
 10 11  1  0  0  0  0
 10 31  1  0  0  0  0
 14 32  1  0  0  0  0
 15 14  1  0  0  0  0
 15 16  2  0  0  0  0
 15 17  1  0  0  0  0
 17 33  1  0  0  0  0
 19 34  1  0  0  0  0
 20 21  1  0  0  0  0
 20 35  1  0  0  0  0
 20 36  1  0  0  0  0
 21 22  2  0  0  0  0
 22  4  1  0  0  0  0
 22 37  1  0  0  0  0
M  END
>  <DRUGBANK_ID>
DB07390

>  <COMMON_NAME>
2-[3-(5-Mercapto-[1,3,4]thiadiazol-2-yl)-ureido]-N-methyl-3-phenyl-propionamide

$$$$
