NOX
 OpenBabel10282417072D

 50 51  0  0  0  0  0  0  0  0999 V2000
   -2.5671   -1.3398    0.0000 N   0  3  0  0  0  0  0  0  0  0  0  0
   -2.9544   -2.0682    0.0000 C   0  0  0  0  0  0  0  0  0  0  0  0
   -3.7789   -2.0970    0.0000 C   0  0  0  0  0  0  0  0  0  0  0  0
   -4.2161   -1.3974    0.0000 C   0  0  0  0  0  0  0  0  0  0  0  0
   -3.8288   -0.6690    0.0000 C   0  0  0  0  0  0  0  0  0  0  0  0
   -3.0043   -0.6402    0.0000 C   0  0  0  0  0  0  0  0  0  0  0  0
   -1.8256   -1.7015    0.0000 O   0  5  0  0  0  0  0  0  0  0  0  0
   -1.8526   -0.9273    0.0000 C   0  0  0  0  0  0  0  0  0  0  0  0
   -1.8526   -0.1023    0.0000 C   0  0  0  0  0  0  0  0  0  0  0  0
   -1.1381    0.3102    0.0000 C   0  0  0  0  0  0  0  0  0  0  0  0
   -1.1381    1.1352    0.0000 C   0  0  0  0  0  0  0  0  0  0  0  0
   -0.4237    1.5477    0.0000 C   0  0  0  0  0  0  0  0  0  0  0  0
    0.2908    1.1352    0.0000 C   0  0  0  0  0  0  0  0  0  0  0  0
    0.2908    0.3102    0.0000 C   0  0  0  0  0  0  0  0  0  0  0  0
   -0.4237   -0.1023    0.0000 C   0  0  0  0  0  0  0  0  0  0  0  0
    1.0053    1.5477    0.0000 N   0  0  0  0  0  0  0  0  0  0  0  0
    1.7198    1.1352    0.0000 C   0  0  0  0  0  0  0  0  0  0  0  0
    1.7198    0.3102    0.0000 O   0  0  0  0  0  0  0  0  0  0  0  0
    2.4342    1.5477    0.0000 C   0  0  0  0  0  0  0  0  0  0  0  0
    3.1487    1.1352    0.0000 C   0  0  0  0  0  0  0  0  0  0  0  0
    3.8632    1.5477    0.0000 C   0  0  0  0  0  0  0  0  0  0  0  0
    4.5776    1.1352    0.0000 C   0  0  0  0  0  0  0  0  0  0  0  0
    5.2921    1.5477    0.0000 O   0  0  0  0  0  0  0  0  0  0  0  0
    4.5776    0.3102    0.0000 O   0  0  0  0  0  0  0  0  0  0  0  0
   -2.3874   -2.9756    0.0000 H   0  0  0  0  0  0  0  0  0  0  0  0
   -3.4567   -3.0130    0.0000 H   0  0  0  0  0  0  0  0  0  0  0  0
   -4.2812   -3.0418    0.0000 H   0  0  0  0  0  0  0  0  0  0  0  0
   -4.8482   -2.1344    0.0000 H   0  0  0  0  0  0  0  0  0  0  0  0
   -5.2854   -1.4348    0.0000 H   0  0  0  0  0  0  0  0  0  0  0  0
   -4.7831   -0.4900    0.0000 H   0  0  0  0  0  0  0  0  0  0  0  0
   -4.3958    0.2384    0.0000 H   0  0  0  0  0  0  0  0  0  0  0  0
   -3.3265    0.2758    0.0000 H   0  0  0  0  0  0  0  0  0  0  0  0
   -2.5020    0.3046    0.0000 H   0  0  0  0  0  0  0  0  0  0  0  0
   -3.5713    0.2672    0.0000 H   0  0  0  0  0  0  0  0  0  0  0  0
   -0.9260   -1.4623    0.0000 H   0  0  0  0  0  0  0  0  0  0  0  0
   -0.9260   -0.3923    0.0000 H   0  0  0  0  0  0  0  0  0  0  0  0
   -2.7792    0.4327    0.0000 H   0  0  0  0  0  0  0  0  0  0  0  0
   -1.8526    0.9677    0.0000 H   0  0  0  0  0  0  0  0  0  0  0  0
   -2.0318    1.6512    0.0000 H   0  0  0  0  0  0  0  0  0  0  0  0
   -0.4237    2.5797    0.0000 H   0  0  0  0  0  0  0  0  0  0  0  0
    1.1845   -0.2058    0.0000 H   0  0  0  0  0  0  0  0  0  0  0  0
   -0.4237   -1.1343    0.0000 H   0  0  0  0  0  0  0  0  0  0  0  0
    1.0053    2.5322    0.0000 H   0  0  0  0  0  0  0  0  0  0  0  0
    2.4342    2.6177    0.0000 H   0  0  0  0  0  0  0  0  0  0  0  0
    3.3608    2.0827    0.0000 H   0  0  0  0  0  0  0  0  0  0  0  0
    3.1487    0.0652    0.0000 H   0  0  0  0  0  0  0  0  0  0  0  0
    4.0753    0.6002    0.0000 H   0  0  0  0  0  0  0  0  0  0  0  0
    3.8632    2.6177    0.0000 H   0  0  0  0  0  0  0  0  0  0  0  0
    4.7899    2.0827    0.0000 H   0  0  0  0  0  0  0  0  0  0  0  0
    6.1036    1.0792    0.0000 H   0  0  0  0  0  0  0  0  0  0  0  0
  1  2  1  0  0  0  0
  1  6  1  0  0  0  0
  1  7  1  0  0  0  0
  1  8  1  0  0  0  0
  2  3  1  0  0  0  0
  2 25  1  0  0  0  0
  2 26  1  0  0  0  0
  3  4  1  0  0  0  0
  3 27  1  0  0  0  0
  3 28  1  0  0  0  0
  4  5  1  0  0  0  0
  4 29  1  0  0  0  0
  4 30  1  0  0  0  0
  5  6  1  0  0  0  0
  5 31  1  0  0  0  0
  5 32  1  0  0  0  0
  6 33  1  0  0  0  0
  6 34  1  0  0  0  0
  8  9  1  0  0  0  0
  8 35  1  0  0  0  0
  8 36  1  0  0  0  0
  9 10  1  0  0  0  0
  9 37  1  0  0  0  0
  9 38  1  0  0  0  0
 10 11  2  0  0  0  0
 10 15  1  0  0  0  0
 11 12  1  0  0  0  0
 11 39  1  0  0  0  0
 12 13  2  0  0  0  0
 12 40  1  0  0  0  0
 13 14  1  0  0  0  0
 13 16  1  0  0  0  0
 14 15  2  0  0  0  0
 14 41  1  0  0  0  0
 15 42  1  0  0  0  0
 16 17  1  0  0  0  0
 16 43  1  0  0  0  0
 17 18  2  0  0  0  0
 17 19  1  0  0  0  0
 19 20  1  0  0  0  0
 19 44  1  0  0  0  0
 19 45  1  0  0  0  0
 20 21  1  0  0  0  0
 20 46  1  0  0  0  0
 20 47  1  0  0  0  0
 21 22  1  0  0  0  0
 21 48  1  0  0  0  0
 21 49  1  0  0  0  0
 22 23  1  0  0  0  0
 22 24  2  0  0  0  0
 23 50  1  0  0  0  0
M  CHG  2   1   1   7  -1
M  END
>  <DRUGBANK_ID>
DB08289

>  <COMMON_NAME>
N-(PARA-GLUTARAMIDOPHENYL-ETHYL)-PIPERIDINIUM-N-OXIDE

$$$$
