
 OpenBabel10282417072D

 52 54  0  0  0  0  0  0  0  0999 V2000
    2.0701   -2.7604    0.0000 C   0  0  0  0  0  0  0  0  0  0  0  0
    3.4990   -0.2854    0.0000 C   0  0  0  0  0  0  0  0  0  0  0  0
   -0.3984    0.7541    0.0000 C   0  0  0  0  0  0  0  0  0  0  0  0
   -5.5784   -2.1269    0.0000 C   0  0  0  0  0  0  0  0  0  0  0  0
   -5.1659   -2.8414    0.0000 C   0  0  0  0  0  0  0  0  0  0  0  0
    1.3556   -2.3479    0.0000 C   0  0  0  0  0  0  0  0  0  0  0  0
    2.7845    0.1271    0.0000 C   0  0  0  0  0  0  0  0  0  0  0  0
   -3.1034   -0.6979    0.0000 C   0  0  0  0  0  0  0  0  0  0  0  0
   -1.8659   -1.4124    0.0000 C   0  0  0  0  0  0  0  0  0  0  0  0
   -3.9284   -0.6979    0.0000 C   0  0  0  0  0  0  0  0  0  0  0  0
   -1.4534   -0.6979    0.0000 C   0  0  0  0  0  0  0  0  0  0  0  0
   -3.1034   -2.1269    0.0000 C   0  0  0  0  0  0  0  0  0  0  0  0
   -2.6909   -1.4124    0.0000 C   0  0  0  0  0  0  0  0  0  0  0  0
   -4.3409   -1.4124    0.0000 C   0  0  0  0  0  0  0  0  0  0  0  0
   -3.9284   -2.1269    0.0000 C   0  0  0  0  0  0  0  0  0  0  0  0
   -0.6284   -0.6979    0.0000 C   0  0  0  0  0  0  0  0  0  0  0  0
    0.6411   -0.2854    0.0000 C   0  0  0  0  0  0  0  0  0  0  0  0
    0.6411   -1.1104    0.0000 C   0  0  0  0  0  0  0  0  0  0  0  0
    1.3556    0.1271    0.0000 C   0  0  0  0  0  0  0  0  0  0  0  0
    2.0701   -1.1104    0.0000 C   0  0  0  0  0  0  0  0  0  0  0  0
   -0.1435   -1.3654    0.0000 N   0  0  0  0  0  0  0  0  0  0  0  0
   -0.1435   -0.0305    0.0000 N   0  0  0  0  0  0  0  0  0  0  0  0
    1.3556   -1.5229    0.0000 N   0  0  0  0  0  0  0  0  0  0  0  0
    2.0701   -0.2854    0.0000 N   0  0  0  0  0  0  0  0  0  0  0  0
    1.3556    0.9521    0.0000 O   0  0  0  0  0  0  0  0  0  0  0  0
    2.7845   -1.5229    0.0000 O   0  0  0  0  0  0  0  0  0  0  0  0
   -5.1659   -1.4124    0.0000 O   0  0  0  0  0  0  0  0  0  0  0  0
   -4.3409   -2.8414    0.0000 O   0  0  0  0  0  0  0  0  0  0  0  0
   -1.4534   -2.1269    0.0000 H   0  0  0  0  0  0  0  0  0  0  0  0
   -1.8659    0.0165    0.0000 H   0  0  0  0  0  0  0  0  0  0  0  0
    2.0701   -3.8304    0.0000 H   0  0  0  0  0  0  0  0  0  0  0  0
    2.9967   -2.2254    0.0000 H   0  0  0  0  0  0  0  0  0  0  0  0
    2.9968   -3.2954    0.0000 H   0  0  0  0  0  0  0  0  0  0  0  0
    3.4990   -1.3554    0.0000 H   0  0  0  0  0  0  0  0  0  0  0  0
    4.4256    0.2496    0.0000 H   0  0  0  0  0  0  0  0  0  0  0  0
    4.4257   -0.8204    0.0000 H   0  0  0  0  0  0  0  0  0  0  0  0
    0.3176    1.5492    0.0000 H   0  0  0  0  0  0  0  0  0  0  0  0
   -1.4450    0.9766    0.0000 H   0  0  0  0  0  0  0  0  0  0  0  0
   -0.7290    1.7717    0.0000 H   0  0  0  0  0  0  0  0  0  0  0  0
   -6.6484   -2.1269    0.0000 H   0  0  0  0  0  0  0  0  0  0  0  0
   -5.0434   -3.0535    0.0000 H   0  0  0  0  0  0  0  0  0  0  0  0
   -6.1134   -3.0536    0.0000 H   0  0  0  0  0  0  0  0  0  0  0  0
   -5.7009   -1.9148    0.0000 H   0  0  0  0  0  0  0  0  0  0  0  0
   -5.7009   -3.7680    0.0000 H   0  0  0  0  0  0  0  0  0  0  0  0
   -6.2359   -2.8414    0.0000 H   0  0  0  0  0  0  0  0  0  0  0  0
    0.4290   -2.8829    0.0000 H   0  0  0  0  0  0  0  0  0  0  0  0
    0.4290   -1.8129    0.0000 H   0  0  0  0  0  0  0  0  0  0  0  0
    2.7845    1.1971    0.0000 H   0  0  0  0  0  0  0  0  0  0  0  0
    1.8578    0.6621    0.0000 H   0  0  0  0  0  0  0  0  0  0  0  0
   -2.5874    0.1958    0.0000 H   0  0  0  0  0  0  0  0  0  0  0  0
   -4.4444    0.1958    0.0000 H   0  0  0  0  0  0  0  0  0  0  0  0
   -2.5874   -3.0206    0.0000 H   0  0  0  0  0  0  0  0  0  0  0  0
  1 31  1  0  0  0  0
  1 32  1  0  0  0  0
  1 33  1  0  0  0  0
  2 34  1  0  0  0  0
  2 35  1  0  0  0  0
  2 36  1  0  0  0  0
  3 37  1  0  0  0  0
  3 38  1  0  0  0  0
  3 39  1  0  0  0  0
  4 40  1  0  0  0  0
  4 41  1  0  0  0  0
  4 42  1  0  0  0  0
  5 43  1  0  0  0  0
  5 44  1  0  0  0  0
  5 45  1  0  0  0  0
  6  1  1  0  0  0  0
  6 46  1  0  0  0  0
  6 47  1  0  0  0  0
  7  2  1  0  0  0  0
  7 48  1  0  0  0  0
  7 49  1  0  0  0  0
  8 50  1  0  0  0  0
 10  8  2  0  0  0  0
 10 51  1  0  0  0  0
 11  9  2  0  0  0  0
 12 52  1  0  0  0  0
 13  8  1  0  0  0  0
 13  9  1  0  0  0  0
 13 12  2  0  0  0  0
 14 10  1  0  0  0  0
 15 12  1  0  0  0  0
 15 14  2  0  0  0  0
 16 11  1  0  0  0  0
 18 17  2  0  0  0  0
 19 17  1  0  0  0  0
 21 16  2  0  0  0  0
 21 18  1  0  0  0  0
 22  3  1  0  0  0  0
 22 16  1  0  0  0  0
 22 17  1  0  0  0  0
 23  6  1  0  0  0  0
 23 18  1  0  0  0  0
 23 20  1  0  0  0  0
 24  7  1  0  0  0  0
 24 19  1  0  0  0  0
 24 20  1  0  0  0  0
 25 19  2  0  0  0  0
 26 20  2  0  0  0  0
 27  4  1  0  0  0  0
 27 14  1  0  0  0  0
 28  5  1  0  0  0  0
 28 15  1  0  0  0  0
 29  9  1  0  0  0  0
 30 11  1  0  0  0  0
M  END
>  <DRUGBANK_ID>
DB11757

>  <COMMON_NAME>
Istradefylline

>  <CAS_NUMBER>
155270-99-8

>  <UNII>
2GZ0LIK7T4

>  <SYNONYMS>
Istradefylline

$$$$
