199
 OpenBabel10282417072D

 55 59  0  0  0  0  0  0  0  0999 V2000
   -0.5369   -1.1192    0.0000 C   0  0  0  0  0  0  0  0  0  0  0  0
    0.1775   -1.5317    0.0000 C   0  0  0  0  0  0  0  0  0  0  0  0
    0.1775   -2.3567    0.0000 C   0  0  0  0  0  0  0  0  0  0  0  0
   -0.5369   -2.7692    0.0000 N   0  0  0  0  0  0  0  0  0  0  0  0
   -1.2514   -2.3567    0.0000 C   0  0  0  0  0  0  0  0  0  0  0  0
   -2.0360   -2.6116    0.0000 N   0  0  0  0  0  0  0  0  0  0  0  0
   -2.5210   -1.9442    0.0000 C   0  0  0  0  0  0  0  0  0  0  0  0
   -2.0360   -1.2767    0.0000 C   0  0  0  0  0  0  0  0  0  0  0  0
   -1.2514   -1.5317    0.0000 C   0  0  0  0  0  0  0  0  0  0  0  0
   -2.2910   -0.4921    0.0000 N   0  0  0  0  0  0  0  0  0  0  0  0
    1.6065    0.1183    0.0000 C   0  0  0  0  0  0  0  0  0  0  0  0
    2.3209   -0.2942    0.0000 C   0  0  0  0  0  0  0  0  0  0  0  0
    2.3209   -1.1192    0.0000 C   0  0  0  0  0  0  0  0  0  0  0  0
    1.6065   -1.5317    0.0000 C   0  0  0  0  0  0  0  0  0  0  0  0
    0.8920   -1.1192    0.0000 C   0  0  0  0  0  0  0  0  0  0  0  0
    0.8920   -0.2942    0.0000 C   0  0  0  0  0  0  0  0  0  0  0  0
   -3.0979   -0.3206    0.0000 C   0  0  0  0  0  0  0  0  0  0  0  0
   -3.6500   -0.9337    0.0000 O   0  0  0  0  0  0  0  0  0  0  0  0
   -4.4148    1.4202    0.0000 C   0  0  0  0  0  0  0  0  0  0  0  0
   -3.8628    2.0333    0.0000 C   0  0  0  0  0  0  0  0  0  0  0  0
   -3.0558    1.8617    0.0000 N   0  0  0  0  0  0  0  0  0  0  0  0
   -2.8009    1.0771    0.0000 C   0  0  0  0  0  0  0  0  0  0  0  0
   -3.3529    0.4640    0.0000 C   0  0  0  0  0  0  0  0  0  0  0  0
   -4.1599    0.6356    0.0000 C   0  0  0  0  0  0  0  0  0  0  0  0
    3.0354    0.9433    0.0000 C   0  0  0  0  0  0  0  0  0  0  0  0
    3.7499    1.3558    0.0000 C   0  0  0  0  0  0  0  0  0  0  0  0
    4.4644    0.9433    0.0000 N   0  0  0  0  0  0  0  0  0  0  0  0
    4.4644    0.1183    0.0000 C   0  0  0  0  0  0  0  0  0  0  0  0
    3.7499   -0.2942    0.0000 C   0  0  0  0  0  0  0  0  0  0  0  0
    3.0354    0.1183    0.0000 N   0  0  0  0  0  0  0  0  0  0  0  0
    5.1788    1.3558    0.0000 C   0  0  0  0  0  0  0  0  0  0  0  0
   -0.5369   -0.0872    0.0000 H   0  0  0  0  0  0  0  0  0  0  0  0
    1.0712   -2.8727    0.0000 H   0  0  0  0  0  0  0  0  0  0  0  0
   -2.3402   -3.5479    0.0000 H   0  0  0  0  0  0  0  0  0  0  0  0
   -3.5530   -1.9442    0.0000 H   0  0  0  0  0  0  0  0  0  0  0  0
   -1.6323    0.2396    0.0000 H   0  0  0  0  0  0  0  0  0  0  0  0
    1.6065    1.1503    0.0000 H   0  0  0  0  0  0  0  0  0  0  0  0
    3.2146   -1.6352    0.0000 H   0  0  0  0  0  0  0  0  0  0  0  0
    1.6065   -2.5637    0.0000 H   0  0  0  0  0  0  0  0  0  0  0  0
   -0.0017    0.2218    0.0000 H   0  0  0  0  0  0  0  0  0  0  0  0
   -5.4242    1.6348    0.0000 H   0  0  0  0  0  0  0  0  0  0  0  0
   -4.1817    3.0148    0.0000 H   0  0  0  0  0  0  0  0  0  0  0  0
   -1.7915    0.8625    0.0000 H   0  0  0  0  0  0  0  0  0  0  0  0
   -4.8505   -0.1313    0.0000 H   0  0  0  0  0  0  0  0  0  0  0  0
    2.1088    1.4783    0.0000 H   0  0  0  0  0  0  0  0  0  0  0  0
    2.1088    0.4083    0.0000 H   0  0  0  0  0  0  0  0  0  0  0  0
    3.7499    2.4258    0.0000 H   0  0  0  0  0  0  0  0  0  0  0  0
    4.6765    1.8908    0.0000 H   0  0  0  0  0  0  0  0  0  0  0  0
    5.3910   -0.4167    0.0000 H   0  0  0  0  0  0  0  0  0  0  0  0
    4.4644   -0.9517    0.0000 H   0  0  0  0  0  0  0  0  0  0  0  0
    3.7499   -1.3642    0.0000 H   0  0  0  0  0  0  0  0  0  0  0  0
    2.8233   -0.8292    0.0000 H   0  0  0  0  0  0  0  0  0  0  0  0
    6.1055    0.8208    0.0000 H   0  0  0  0  0  0  0  0  0  0  0  0
    5.1788    2.4258    0.0000 H   0  0  0  0  0  0  0  0  0  0  0  0
    6.1054    1.8908    0.0000 H   0  0  0  0  0  0  0  0  0  0  0  0
  1  2  2  0  0  0  0
  1  9  1  0  0  0  0
  1 32  1  0  0  0  0
  2  3  1  0  0  0  0
  2 15  1  0  0  0  0
  3  4  2  0  0  0  0
  3 33  1  0  0  0  0
  4  5  1  0  0  0  0
  5  6  1  0  0  0  0
  5  9  2  0  0  0  0
  6  7  1  0  0  0  0
  6 34  1  0  0  0  0
  7  8  2  0  0  0  0
  7 35  1  0  0  0  0
  8  9  1  0  0  0  0
  8 10  1  0  0  0  0
 10 17  1  0  0  0  0
 10 36  1  0  0  0  0
 11 12  1  0  0  0  0
 11 16  2  0  0  0  0
 11 37  1  0  0  0  0
 12 13  2  0  0  0  0
 12 30  1  0  0  0  0
 13 14  1  0  0  0  0
 13 38  1  0  0  0  0
 14 15  2  0  0  0  0
 14 39  1  0  0  0  0
 15 16  1  0  0  0  0
 16 40  1  0  0  0  0
 17 18  2  0  0  0  0
 17 23  1  0  0  0  0
 19 20  1  0  0  0  0
 19 24  2  0  0  0  0
 19 41  1  0  0  0  0
 20 21  2  0  0  0  0
 20 42  1  0  0  0  0
 21 22  1  0  0  0  0
 22 23  2  0  0  0  0
 22 43  1  0  0  0  0
 23 24  1  0  0  0  0
 24 44  1  0  0  0  0
 25 26  1  0  0  0  0
 25 30  1  0  0  0  0
 25 45  1  0  0  0  0
 25 46  1  0  0  0  0
 26 27  1  0  0  0  0
 26 47  1  0  0  0  0
 26 48  1  0  0  0  0
 27 28  1  0  0  0  0
 27 31  1  0  0  0  0
 28 29  1  0  0  0  0
 28 49  1  0  0  0  0
 28 50  1  0  0  0  0
 29 30  1  0  0  0  0
 29 51  1  0  0  0  0
 29 52  1  0  0  0  0
 31 53  1  0  0  0  0
 31 54  1  0  0  0  0
 31 55  1  0  0  0  0
M  END
>  <DRUGBANK_ID>
DB06876

>  <COMMON_NAME>
N-{5-[4-(4-METHYLPIPERAZIN-1-YL)PHENYL]-1H-PYRROLO[2,3-B]PYRIDIN-3-YL}NICOTINAMIDE

$$$$
