
 OpenBabel10282417072D

 16 15  0  0  0  0  0  0  0  0999 V2000
   -0.3573    0.2062    0.0000 C   0  0  2  0  0  0  0  0  0  0  0  0
   -0.3573   -0.6188    0.0000 O   0  0  0  0  0  0  0  0  0  0  0  0
    0.3572    0.6188    0.0000 C   0  0  0  0  0  0  0  0  0  0  0  0
   -1.0717    0.6188    0.0000 C   0  0  0  0  0  0  0  0  0  0  0  0
    1.0717    0.2062    0.0000 C   0  0  0  0  0  0  0  0  0  0  0  0
    1.0717   -0.6187    0.0000 O   0  0  0  0  0  0  0  0  0  0  0  0
    0.5694   -0.3288    0.0000 H   0  0  0  0  0  0  0  0  0  0  0  0
   -1.1973   -1.1038    0.0000 H   0  0  0  0  0  0  0  0  0  0  0  0
    0.3572    1.6888    0.0000 H   0  0  0  0  0  0  0  0  0  0  0  0
    1.2839    1.1538    0.0000 H   0  0  0  0  0  0  0  0  0  0  0  0
   -1.0715    1.6888    0.0000 H   0  0  0  0  0  0  0  0  0  0  0  0
   -1.9984    0.0839    0.0000 H   0  0  0  0  0  0  0  0  0  0  0  0
   -1.9983    1.1539    0.0000 H   0  0  0  0  0  0  0  0  0  0  0  0
    1.9984    0.7412    0.0000 H   0  0  0  0  0  0  0  0  0  0  0  0
    1.9983   -0.3288    0.0000 H   0  0  0  0  0  0  0  0  0  0  0  0
    0.2317   -1.1037    0.0000 H   0  0  0  0  0  0  0  0  0  0  0  0
  1  2  1  0  0  0  0
  1  3  1  0  0  0  0
  1  4  1  0  0  0  0
  1  7  1  6  0  0  0
  2  8  1  0  0  0  0
  3  5  1  0  0  0  0
  3  9  1  0  0  0  0
  3 10  1  0  0  0  0
  4 11  1  0  0  0  0
  4 12  1  0  0  0  0
  4 13  1  0  0  0  0
  5  6  1  0  0  0  0
  5 14  1  0  0  0  0
  5 15  1  0  0  0  0
  6 16  1  0  0  0  0
M  END
>  <DRUGBANK_ID>
DB02202

>  <SECONDARY_ACCESSION_NUMBERS>
EXPT00772

>  <COMMON_NAME>
(S)-butane-1,3-diol

>  <CAS_NUMBER>
24621-61-2

>  <SYNONYMS>
(S)-(+)-Butane-1,3-diol

$$$$
