
 OpenBabel10282417072D

 49 50  0  0  0  0  0  0  0  0999 V2000
    0.8641    1.2895    0.0000 C   0  0  0  0  0  0  0  0  0  0  0  0
    1.5786    0.8770    0.0000 N   0  0  0  0  0  0  0  0  0  0  0  0
    2.2885    1.2847    0.0000 C   0  0  0  0  0  0  0  0  0  0  0  0
    2.2909    2.1110    0.0000 C   0  0  0  0  0  0  0  0  0  0  0  0
    1.5764    2.5234    0.0000 C   0  0  0  0  0  0  0  0  0  0  0  0
    0.8595    2.1097    0.0000 N   0  0  0  0  0  0  0  0  0  0  0  0
    1.5918   -0.2159    0.0000 C   0  0  1  0  0  0  0  0  0  0  0  0
    1.3746   -1.0149    0.0000 C   0  0  1  0  0  0  0  0  0  0  0  0
    2.1092   -1.3852    0.0000 C   0  0  0  0  0  0  0  0  0  0  0  0
    0.2562   -0.2855    0.0000 C   0  0  2  0  0  0  0  0  0  0  0  0
   -0.4785    0.0875    0.0000 C   0  0  0  0  0  0  0  0  0  0  0  0
   -1.1672   -0.3602    0.0000 O   0  0  0  0  0  0  0  0  0  0  0  0
    0.5506   -1.0583    0.0000 C   0  0  1  0  0  0  0  0  0  0  0  0
    0.1777   -1.7930    0.0000 O   0  0  0  0  0  0  0  0  0  0  0  0
   -0.6433   -1.8361    0.0000 C   0  0  0  0  0  0  0  0  0  0  0  0
   -1.0182   -2.5710    0.0000 C   0  0  2  0  0  0  0  0  0  0  0  0
    0.8978    0.2311    0.0000 O   0  0  0  0  0  0  0  0  0  0  0  0
   -1.8421   -2.6135    0.0000 C   0  0  0  0  0  0  0  0  0  0  0  0
   -0.5694   -3.2631    0.0000 N   0  0  0  0  0  0  0  0  0  0  0  0
    1.4148   -1.8390    0.0000 O   0  0  0  0  0  0  0  0  0  0  0  0
    0.1508    0.8750    0.0000 O   0  0  0  0  0  0  0  0  0  0  0  0
    1.5764    3.3484    0.0000 N   0  0  0  0  0  0  0  0  0  0  0  0
   -1.0923   -1.1441    0.0000 O   0  0  0  0  0  0  0  0  0  0  0  0
   -2.2170   -3.3484    0.0000 C   0  0  0  0  0  0  0  0  0  0  0  0
   -2.2909   -1.9214    0.0000 C   0  0  0  0  0  0  0  0  0  0  0  0
    3.1809    0.7664    0.0000 H   0  0  0  0  0  0  0  0  0  0  0  0
    3.1854    2.6258    0.0000 H   0  0  0  0  0  0  0  0  0  0  0  0
    0.5304   -0.0807    0.0000 H   0  0  0  0  0  0  0  0  0  0  0  0
    2.1698   -2.4535    0.0000 H   0  0  0  0  0  0  0  0  0  0  0  0
    3.0040   -0.7986    0.0000 H   0  0  0  0  0  0  0  0  0  0  0  0
    3.0647   -1.8668    0.0000 H   0  0  0  0  0  0  0  0  0  0  0  0
    0.1451    0.7787    0.0000 H   0  0  0  0  0  0  0  0  0  0  0  0
   -0.5355    1.1560    0.0000 H   0  0  0  0  0  0  0  0  0  0  0  0
   -1.4322    0.5726    0.0000 H   0  0  0  0  0  0  0  0  0  0  0  0
   -2.0317    0.0798    0.0000 H   0  0  0  0  0  0  0  0  0  0  0  0
    1.1342   -1.9551    0.0000 H   0  0  0  0  0  0  0  0  0  0  0  0
    0.0504   -2.5156    0.0000 H   0  0  0  0  0  0  0  0  0  0  0  0
   -2.9107   -2.6689    0.0000 H   0  0  0  0  0  0  0  0  0  0  0  0
   -1.0331   -4.1716    0.0000 H   0  0  0  0  0  0  0  0  0  0  0  0
    0.4492   -3.2104    0.0000 H   0  0  0  0  0  0  0  0  0  0  0  0
    0.5994   -2.3644    0.0000 H   0  0  0  0  0  0  0  0  0  0  0  0
    2.4290    3.8407    0.0000 H   0  0  0  0  0  0  0  0  0  0  0  0
    0.7238    3.8406    0.0000 H   0  0  0  0  0  0  0  0  0  0  0  0
   -3.2856   -3.4039    0.0000 H   0  0  0  0  0  0  0  0  0  0  0  0
   -1.6347   -4.2461    0.0000 H   0  0  0  0  0  0  0  0  0  0  0  0
   -2.7032   -4.3015    0.0000 H   0  0  0  0  0  0  0  0  0  0  0  0
   -1.8045   -0.9683    0.0000 H   0  0  0  0  0  0  0  0  0  0  0  0
   -3.3595   -1.9767    0.0000 H   0  0  0  0  0  0  0  0  0  0  0  0
   -2.8731   -1.0236    0.0000 H   0  0  0  0  0  0  0  0  0  0  0  0
  1  2  1  0  0  0  0
  1  6  1  0  0  0  0
  1 21  2  0  0  0  0
  2  3  1  0  0  0  0
  3  4  2  0  0  0  0
  3 26  1  0  0  0  0
  4  5  1  0  0  0  0
  4 27  1  0  0  0  0
  5 22  1  0  0  0  0
  5  6  2  0  0  0  0
  7  2  1  0  0  0  0
  7 17  1  0  0  0  0
  7 28  1  6  0  0  0
  8  7  1  0  0  0  0
  8  9  1  0  0  0  0
  8 20  1  6  0  0  0
  9 29  1  0  0  0  0
  9 30  1  0  0  0  0
  9 31  1  0  0  0  0
 10 13  1  0  0  0  0
 10 11  1  0  0  0  0
 10 32  1  6  0  0  0
 11 12  1  0  0  0  0
 11 33  1  0  0  0  0
 11 34  1  0  0  0  0
 12 35  1  0  0  0  0
 13 14  1  0  0  0  0
 13  8  1  0  0  0  0
 13 36  1  1  0  0  0
 14 15  1  0  0  0  0
 15 16  1  0  0  0  0
 15 23  2  0  0  0  0
 16 18  1  0  0  0  0
 16 19  1  0  0  0  0
 16 37  1  6  0  0  0
 17 10  1  0  0  0  0
 18 24  1  0  0  0  0
 18 25  1  0  0  0  0
 18 38  1  0  0  0  0
 19 39  1  0  0  0  0
 19 40  1  0  0  0  0
 20 41  1  0  0  0  0
 22 42  1  0  0  0  0
 22 43  1  0  0  0  0
 24 44  1  0  0  0  0
 24 45  1  0  0  0  0
 24 46  1  0  0  0  0
 25 47  1  0  0  0  0
 25 48  1  0  0  0  0
 25 49  1  0  0  0  0
M  END
>  <DRUGBANK_ID>
DB13920

>  <COMMON_NAME>
Valopicitabine

>  <CAS_NUMBER>
640281-90-9

>  <UNII>
I2T0B5G94M

>  <SYNONYMS>
2'-C-methylcytidine 3'-O-L-valinyl ester; Valopicitabina; Valopicitabine

$$$$
