
 OpenBabel10282417072D

 28 29  0  0  0  0  0  0  0  0999 V2000
   -0.0797    0.0430    0.0000 C   0  0  1  0  0  0  0  0  0  0  0  0
    0.6347    0.4555    0.0000 C   0  0  0  0  0  0  0  0  0  0  0  0
   -0.0797   -0.7820    0.0000 N   0  0  0  0  0  0  0  0  0  0  0  0
    1.3491    0.0430    0.0000 N   0  0  0  0  0  0  0  0  0  0  0  0
    1.3491   -0.7820    0.0000 C   0  0  0  0  0  0  0  0  0  0  0  0
    0.6347   -1.1944    0.0000 C   0  0  0  0  0  0  0  0  0  0  0  0
   -0.8643    0.2979    0.0000 C   0  0  0  0  0  0  0  0  0  0  0  0
   -1.3492   -0.3694    0.0000 C   0  0  0  0  0  0  0  0  0  0  0  0
   -0.8643   -1.0368    0.0000 C   0  0  0  0  0  0  0  0  0  0  0  0
    0.6347    1.2805    0.0000 O   0  0  0  0  0  0  0  0  0  0  0  0
    0.6347   -2.0195    0.0000 O   0  0  0  0  0  0  0  0  0  0  0  0
   -0.1659    0.8634    0.0000 C   0  0  0  0  0  0  0  0  0  0  0  0
   -0.9196    1.1990    0.0000 C   0  0  0  0  0  0  0  0  0  0  0  0
   -1.0058    2.0195    0.0000 C   0  0  0  0  0  0  0  0  0  0  0  0
    2.2017    0.5352    0.0000 H   0  0  0  0  0  0  0  0  0  0  0  0
    2.2757   -1.3170    0.0000 H   0  0  0  0  0  0  0  0  0  0  0  0
    1.3491   -1.8520    0.0000 H   0  0  0  0  0  0  0  0  0  0  0  0
   -1.1949    1.3155    0.0000 H   0  0  0  0  0  0  0  0  0  0  0  0
   -0.1077    1.0545    0.0000 H   0  0  0  0  0  0  0  0  0  0  0  0
   -2.4192   -0.3694    0.0000 H   0  0  0  0  0  0  0  0  0  0  0  0
   -1.8350   -1.3228    0.0000 H   0  0  0  0  0  0  0  0  0  0  0  0
   -1.1950   -2.0544    0.0000 H   0  0  0  0  0  0  0  0  0  0  0  0
   -0.1078   -1.7935    0.0000 H   0  0  0  0  0  0  0  0  0  0  0  0
    0.6998    1.4923    0.0000 H   0  0  0  0  0  0  0  0  0  0  0  0
    0.8116    0.4282    0.0000 H   0  0  0  0  0  0  0  0  0  0  0  0
   -1.7545    0.5924    0.0000 H   0  0  0  0  0  0  0  0  0  0  0  0
   -0.1709    2.6261    0.0000 H   0  0  0  0  0  0  0  0  0  0  0  0
   -1.9486    2.4393    0.0000 H   0  0  0  0  0  0  0  0  0  0  0  0
  1  2  1  0  0  0  0
  1  3  1  0  0  0  0
  1 12  1  6  0  0  0
  2  4  1  0  0  0  0
  2 10  2  0  0  0  0
  3  6  1  0  0  0  0
  4  5  1  0  0  0  0
  4 15  1  0  0  0  0
  5  6  1  0  0  0  0
  5 16  1  0  0  0  0
  5 17  1  0  0  0  0
  6 11  2  0  0  0  0
  7  8  1  0  0  0  0
  7  1  1  0  0  0  0
  7 18  1  0  0  0  0
  7 19  1  0  0  0  0
  8  9  1  0  0  0  0
  8 20  1  0  0  0  0
  8 21  1  0  0  0  0
  9  3  1  0  0  0  0
  9 22  1  0  0  0  0
  9 23  1  0  0  0  0
 12 13  1  0  0  0  0
 12 24  1  0  0  0  0
 12 25  1  0  0  0  0
 13 14  2  0  0  0  0
 13 26  1  0  0  0  0
 14 27  1  0  0  0  0
 14 28  1  0  0  0  0
M  END
>  <DRUGBANK_ID>
DB15601

>  <COMMON_NAME>
NNZ-2591

>  <CAS_NUMBER>
847952-38-9

>  <UNII>
2T1HU6069S

>  <SYNONYMS>
Cyclo(-L-glycyl-L-2-allylproline); Pyrrolo(1,2-a)pyrazine-1,4-dione, hexahydro-8a-(2-propenyl)-, (8aR)-

$$$$
