
 OpenBabel10282417072D

 28 29  0  0  0  0  0  0  0  0999 V2000
    2.9840   -4.8408    0.0000 C   0  0  0  0  0  0  0  0  0  0  0  0
    3.4689   -4.1734    0.0000 C   0  0  0  0  0  0  0  0  0  0  0  0
    2.1635   -4.7546    0.0000 C   0  0  0  0  0  0  0  0  0  0  0  0
    3.6183   -2.7523    0.0000 C   0  0  0  0  0  0  0  0  0  0  0  0
    3.2827   -1.9986    0.0000 C   0  0  0  0  0  0  0  0  0  0  0  0
    4.5926   -1.3312    0.0000 C   0  0  0  0  0  0  0  0  0  0  0  0
    4.8476   -0.5465    0.0000 C   0  0  0  0  0  0  0  0  0  0  0  0
    1.0074   -3.9147    0.0000 C   0  0  0  0  0  0  0  0  0  0  0  0
    3.1333   -3.4197    0.0000 C   0  0  0  0  0  0  0  0  0  0  0  0
    1.8279   -4.0009    0.0000 C   0  0  0  0  0  0  0  0  0  0  0  0
    3.7676   -1.3312    0.0000 C   0  0  0  0  0  0  0  0  0  0  0  0
    4.1801   -0.0616    0.0000 C   0  0  0  0  0  0  0  0  0  0  0  0
    2.3128   -3.3335    0.0000 N   0  0  0  0  0  0  0  0  0  0  0  0
    4.1801    0.7634    0.0000 N   0  3  0  0  0  0  0  0  0  0  0  0
    0.5225   -4.5820    0.0000 O   0  0  0  0  0  0  0  0  0  0  0  0
    3.4656    1.1759    0.0000 O   0  0  0  0  0  0  0  0  0  0  0  0
    4.8946    1.1759    0.0000 O   0  5  0  0  0  0  0  0  0  0  0  0
    3.5127   -0.5465    0.0000 O   0  0  0  0  0  0  0  0  0  0  0  0
    4.4387   -2.8384    0.0000 H   0  0  0  0  0  0  0  0  0  0  0  0
    2.4622   -1.9124    0.0000 H   0  0  0  0  0  0  0  0  0  0  0  0
    3.4038   -5.7836    0.0000 H   0  0  0  0  0  0  0  0  0  0  0  0
    4.4952   -4.2813    0.0000 H   0  0  0  0  0  0  0  0  0  0  0  0
    1.5569   -5.5895    0.0000 H   0  0  0  0  0  0  0  0  0  0  0  0
    5.1992   -2.1661    0.0000 H   0  0  0  0  0  0  0  0  0  0  0  0
    5.8291   -0.2276    0.0000 H   0  0  0  0  0  0  0  0  0  0  0  0
    0.5722   -2.9372    0.0000 H   0  0  0  0  0  0  0  0  0  0  0  0
   -0.0567   -3.8028    0.0000 H   0  0  0  0  0  0  0  0  0  0  0  0
   -0.4422   -4.4805    0.0000 H   0  0  0  0  0  0  0  0  0  0  0  0
  1 21  1  0  0  0  0
  2  1  2  0  0  0  0
  2 22  1  0  0  0  0
  3  1  1  0  0  0  0
  3 23  1  0  0  0  0
  5  4  2  0  0  0  0
  6 24  1  0  0  0  0
  7  6  1  0  0  0  0
  7 25  1  0  0  0  0
  8 26  1  0  0  0  0
  8 27  1  0  0  0  0
  9  2  1  0  0  0  0
  9  4  1  0  0  0  0
 10  3  2  0  0  0  0
 10  8  1  0  0  0  0
 11  5  1  0  0  0  0
 11  6  2  0  0  0  0
 12  7  2  0  0  0  0
 13  9  2  0  0  0  0
 13 10  1  0  0  0  0
 14 12  1  0  0  0  0
 15  8  1  0  0  0  0
 15 28  1  0  0  0  0
 16 14  2  0  0  0  0
 17 14  1  0  0  0  0
 18 11  1  0  0  0  0
 18 12  1  0  0  0  0
 19  4  1  0  0  0  0
 20  5  1  0  0  0  0
M  CHG  2  14   1  17  -1
M  END
>  <DRUGBANK_ID>
DB11436

>  <COMMON_NAME>
Nifurpirinol

>  <CAS_NUMBER>
13411-16-0

>  <UNII>
7O5A98XY8U

>  <SYNONYMS>
Furpyrinol; Nifurpirinol; Nifurpirinolum

$$$$
