
 OpenBabel10282417072D

 45 45  0  0  1  0  0  0  0  0999 V2000
    0.0000    0.0000    0.0000 N   0  0  0  0  0  0  0  0  0  0  0  0
   -2.0963    1.1651    0.0000 C   0  0  0  0  0  0  0  0  0  0  0  0
   -3.5253    1.1650    0.0000 C   0  0  0  0  0  0  0  0  0  0  0  0
   -2.8108   -0.0725    0.0000 C   0  0  1  0  0  0  0  0  0  0  0  0
   -2.0963   -0.4850    0.0000 C   0  0  0  0  0  0  0  0  0  0  0  0
   -3.5253   -0.4849    0.0000 C   0  0  0  0  0  0  0  0  0  0  0  0
   -2.8108    0.7525    0.0000 N   0  3  0  0  0  0  0  0  0  0  0  0
   -2.8108    1.5776    0.0000 C   0  0  0  0  0  0  0  0  0  0  0  0
    0.4125   -1.2695    0.0000 C   0  0  0  0  0  0  0  0  0  0  0  0
   -0.6674   -0.4849    0.0000 C   0  0  0  0  0  0  0  0  0  0  0  0
   -0.4124   -1.2695    0.0000 N   0  0  0  0  0  0  0  0  0  0  0  0
   -1.3819   -0.0724    0.0000 C   0  0  0  0  0  0  0  0  0  0  0  0
   -4.2397   -0.0724    0.0000 N   0  0  0  0  0  0  0  0  0  0  0  0
   -3.5253   -1.3099    0.0000 O   0  0  0  0  0  0  0  0  0  0  0  0
    0.6674   -0.4849    0.0000 C   0  0  0  0  0  0  0  0  0  0  0  0
    1.3819   -0.0724    0.0000 C   0  0  0  0  0  0  0  0  0  0  0  0
    2.0964   -0.4849    0.0000 C   0  0  2  0  0  0  0  0  0  0  0  0
    2.0964   -1.3098    0.0000 N   0  0  0  0  0  0  0  0  0  0  0  0
    3.5253   -0.4849    0.0000 O   0  0  0  0  0  0  0  0  0  0  0  0
    2.8108   -0.0724    0.0000 C   0  0  0  0  0  0  0  0  0  0  0  0
    2.8108    0.7526    0.0000 O   0  0  0  0  0  0  0  0  0  0  0  0
   -1.1696    0.6302    0.0000 H   0  0  0  0  0  0  0  0  0  0  0  0
   -2.0964    2.2351    0.0000 H   0  0  0  0  0  0  0  0  0  0  0  0
   -1.1697    1.7002    0.0000 H   0  0  0  0  0  0  0  0  0  0  0  0
   -3.5253    2.2350    0.0000 H   0  0  0  0  0  0  0  0  0  0  0  0
   -4.4519    0.6300    0.0000 H   0  0  0  0  0  0  0  0  0  0  0  0
   -4.4520    1.7000    0.0000 H   0  0  0  0  0  0  0  0  0  0  0  0
   -1.8842    0.4625    0.0000 H   0  0  0  0  0  0  0  0  0  0  0  0
   -2.0962   -1.5550    0.0000 H   0  0  0  0  0  0  0  0  0  0  0  0
   -1.1696   -1.0199    0.0000 H   0  0  0  0  0  0  0  0  0  0  0  0
   -1.8842    2.1126    0.0000 H   0  0  0  0  0  0  0  0  0  0  0  0
   -3.7374    2.1126    0.0000 H   0  0  0  0  0  0  0  0  0  0  0  0
   -2.8108    2.6476    0.0000 H   0  0  0  0  0  0  0  0  0  0  0  0
    1.0191   -2.1044    0.0000 H   0  0  0  0  0  0  0  0  0  0  0  0
   -0.9910   -2.0660    0.0000 H   0  0  0  0  0  0  0  0  0  0  0  0
   -1.3820    0.9976    0.0000 H   0  0  0  0  0  0  0  0  0  0  0  0
   -0.4553    0.4626    0.0000 H   0  0  0  0  0  0  0  0  0  0  0  0
   -4.2397    0.9121    0.0000 H   0  0  0  0  0  0  0  0  0  0  0  0
   -5.0923   -0.5646    0.0000 H   0  0  0  0  0  0  0  0  0  0  0  0
    1.3819    0.9976    0.0000 H   0  0  0  0  0  0  0  0  0  0  0  0
    2.3085    0.4626    0.0000 H   0  0  0  0  0  0  0  0  0  0  0  0
    1.1698   -1.0199    0.0000 H   0  0  0  0  0  0  0  0  0  0  0  0
    1.2131   -1.8198    0.0000 H   0  0  0  0  0  0  0  0  0  0  0  0
    2.9797   -1.8198    0.0000 H   0  0  0  0  0  0  0  0  0  0  0  0
    3.5253   -1.4219    0.0000 H   0  0  0  0  0  0  0  0  0  0  0  0
  2 22  1  0  0  0  0
  2 23  1  0  0  0  0
  2 24  1  0  0  0  0
  3 25  1  0  0  0  0
  3 26  1  0  0  0  0
  3 27  1  0  0  0  0
  4  7  1  0  0  0  0
  4  5  1  0  0  0  0
  4  6  1  0  0  0  0
  4 28  1  6  0  0  0
  5 12  1  0  0  0  0
  5 29  1  0  0  0  0
  5 30  1  0  0  0  0
  6 14  2  0  0  0  0
  6 13  1  0  0  0  0
  7  2  1  0  0  0  0
  7  3  1  0  0  0  0
  7  8  1  0  0  0  0
  8 31  1  0  0  0  0
  8 32  1  0  0  0  0
  8 33  1  0  0  0  0
  9 15  2  0  0  0  0
  9 34  1  0  0  0  0
 10  1  2  0  0  0  0
 10 11  1  0  0  0  0
 11  9  1  0  0  0  0
 11 35  1  0  0  0  0
 12 10  1  0  0  0  0
 12 36  1  0  0  0  0
 12 37  1  0  0  0  0
 13 38  1  0  0  0  0
 13 39  1  0  0  0  0
 15  1  1  0  0  0  0
 15 16  1  0  0  0  0
 16 17  1  0  0  0  0
 16 40  1  0  0  0  0
 16 41  1  0  0  0  0
 17 20  1  0  0  0  0
 17 18  1  0  0  0  0
 17 42  1  6  0  0  0
 18 43  1  0  0  0  0
 18 44  1  0  0  0  0
 19 45  1  0  0  0  0
 20 19  1  0  0  0  0
 20 21  2  0  0  0  0
M  CHG  1   7   1
M  END
>  <DRUGBANK_ID>
DB03223

>  <SECONDARY_ACCESSION_NUMBERS>
EXPT01142

>  <COMMON_NAME>
Diphthamide

>  <CAS_NUMBER>
75645-22-6

>  <UNII>
86L3ZZ4408

>  <SYNONYMS>
2-(3-Carboxyamido-3-(Trimethylammonio)Propyl)Histidine

$$$$
