
 OpenBabel10282417072D

 48 50  0  0  0  0  0  0  0  0999 V2000
   -0.3571    0.4124    0.0000 N   0  0  0  0  0  0  0  0  0  0  0  0
   -1.0716    0.8249    0.0000 C   0  0  0  0  0  0  0  0  0  0  0  0
    0.3572    0.8249    0.0000 C   0  0  0  0  0  0  0  0  0  0  0  0
   -0.3571   -0.4124    0.0000 C   0  0  0  0  0  0  0  0  0  0  0  0
   -1.0716    1.6499    0.0000 C   0  0  0  0  0  0  0  0  0  0  0  0
   -1.7860    0.4124    0.0000 C   0  0  0  0  0  0  0  0  0  0  0  0
    0.3572    1.6499    0.0000 C   0  0  0  0  0  0  0  0  0  0  0  0
    1.0717    0.4124    0.0000 C   0  0  0  0  0  0  0  0  0  0  0  0
    0.3572   -0.8249    0.0000 C   0  0  3  0  0  0  0  0  0  0  0  0
   -0.3571    2.0624    0.0000 S   0  0  0  0  0  0  0  0  0  0  0  0
   -1.7860    2.0623    0.0000 C   0  0  0  0  0  0  0  0  0  0  0  0
   -2.5005    0.8249    0.0000 C   0  0  0  0  0  0  0  0  0  0  0  0
    1.0716    2.0624    0.0000 C   0  0  0  0  0  0  0  0  0  0  0  0
    1.7861    0.8249    0.0000 C   0  0  0  0  0  0  0  0  0  0  0  0
    1.0717   -0.4124    0.0000 C   0  0  0  0  0  0  0  0  0  0  0  0
    0.3572   -1.6499    0.0000 N   0  0  0  0  0  0  0  0  0  0  0  0
   -2.5005    1.6498    0.0000 C   0  0  0  0  0  0  0  0  0  0  0  0
    1.7861    1.6499    0.0000 C   0  0  0  0  0  0  0  0  0  0  0  0
    1.7861   -0.8249    0.0000 N   0  0  0  0  0  0  0  0  0  0  0  0
    1.0717   -2.0624    0.0000 C   0  0  0  0  0  0  0  0  0  0  0  0
   -0.3571   -2.0624    0.0000 C   0  0  0  0  0  0  0  0  0  0  0  0
    2.5005   -0.4124    0.0000 C   0  0  0  0  0  0  0  0  0  0  0  0
    1.7861   -1.6499    0.0000 C   0  0  0  0  0  0  0  0  0  0  0  0
   -1.2838   -0.9474    0.0000 H   0  0  0  0  0  0  0  0  0  0  0  0
   -1.2837    0.1226    0.0000 H   0  0  0  0  0  0  0  0  0  0  0  0
   -1.7860   -0.6196    0.0000 H   0  0  0  0  0  0  0  0  0  0  0  0
    1.0717   -0.6196    0.0000 H   0  0  0  0  0  0  0  0  0  0  0  0
    0.3573    0.2451    0.0000 H   0  0  0  0  0  0  0  0  0  0  0  0
   -1.7860    3.0943    0.0000 H   0  0  0  0  0  0  0  0  0  0  0  0
   -3.3942    0.3089    0.0000 H   0  0  0  0  0  0  0  0  0  0  0  0
    1.0716    3.0944    0.0000 H   0  0  0  0  0  0  0  0  0  0  0  0
    2.6798    0.3089    0.0000 H   0  0  0  0  0  0  0  0  0  0  0  0
    1.0717    0.6576    0.0000 H   0  0  0  0  0  0  0  0  0  0  0  0
    1.9984    0.1226    0.0000 H   0  0  0  0  0  0  0  0  0  0  0  0
   -3.3942    2.1658    0.0000 H   0  0  0  0  0  0  0  0  0  0  0  0
    2.6798    2.1659    0.0000 H   0  0  0  0  0  0  0  0  0  0  0  0
    1.0717   -3.1324    0.0000 H   0  0  0  0  0  0  0  0  0  0  0  0
    1.9983   -1.5274    0.0000 H   0  0  0  0  0  0  0  0  0  0  0  0
    1.9984   -2.5974    0.0000 H   0  0  0  0  0  0  0  0  0  0  0  0
   -1.2838   -1.5275    0.0000 H   0  0  0  0  0  0  0  0  0  0  0  0
   -0.3570   -3.1324    0.0000 H   0  0  0  0  0  0  0  0  0  0  0  0
   -1.2837   -2.5975    0.0000 H   0  0  0  0  0  0  0  0  0  0  0  0
    3.4272   -0.9474    0.0000 H   0  0  0  0  0  0  0  0  0  0  0  0
    2.5005    0.6576    0.0000 H   0  0  0  0  0  0  0  0  0  0  0  0
    3.4271    0.1226    0.0000 H   0  0  0  0  0  0  0  0  0  0  0  0
    0.8595   -2.1849    0.0000 H   0  0  0  0  0  0  0  0  0  0  0  0
    2.7127   -2.1849    0.0000 H   0  0  0  0  0  0  0  0  0  0  0  0
    1.7861   -2.7199    0.0000 H   0  0  0  0  0  0  0  0  0  0  0  0
  1  2  1  0  0  0  0
  1  3  1  0  0  0  0
  1  4  1  0  0  0  0
  2  5  1  0  0  0  0
  2  6  2  0  0  0  0
  3  8  1  0  0  0  0
  3  7  2  0  0  0  0
  4  9  1  0  0  0  0
  4 24  1  0  0  0  0
  4 25  1  0  0  0  0
  5 10  1  0  0  0  0
  5 11  2  0  0  0  0
  6 12  1  0  0  0  0
  6 26  1  0  0  0  0
  7 13  1  0  0  0  0
  7 10  1  0  0  0  0
  8 14  2  0  0  0  0
  8 27  1  0  0  0  0
  9 15  1  0  0  0  0
  9 16  1  0  0  0  0
  9 28  1  0  0  0  0
 11 17  1  0  0  0  0
 11 29  1  0  0  0  0
 12 17  2  0  0  0  0
 12 30  1  0  0  0  0
 13 18  2  0  0  0  0
 13 31  1  0  0  0  0
 14 18  1  0  0  0  0
 14 32  1  0  0  0  0
 15 19  1  0  0  0  0
 15 33  1  0  0  0  0
 15 34  1  0  0  0  0
 16 20  1  0  0  0  0
 16 21  1  0  0  0  0
 17 35  1  0  0  0  0
 18 36  1  0  0  0  0
 19 22  1  0  0  0  0
 19 23  1  0  0  0  0
 20 37  1  0  0  0  0
 20 38  1  0  0  0  0
 20 39  1  0  0  0  0
 21 40  1  0  0  0  0
 21 41  1  0  0  0  0
 21 42  1  0  0  0  0
 22 43  1  0  0  0  0
 22 44  1  0  0  0  0
 22 45  1  0  0  0  0
 23 46  1  0  0  0  0
 23 47  1  0  0  0  0
 23 48  1  0  0  0  0
M  END
>  <DRUGBANK_ID>
DB15596

>  <COMMON_NAME>
Aminopromazine

>  <CAS_NUMBER>
58-37-7

>  <UNII>
S9SDD93U5U

>  <SYNONYMS>
Aminopromazina; Aminopromazine; Aminopromazinum; Proquamezine

$$$$
