
 OpenBabel10282417072D

 57 59  0  0  0  0  0  0  0  0999 V2000
   -4.2636   -0.8271    0.0000 C   0  0  0  0  0  0  0  0  0  0  0  0
   -4.2636   -1.6543    0.0000 C   0  0  0  0  0  0  0  0  0  0  0  0
   -3.5643   -2.0635    0.0000 C   0  0  0  0  0  0  0  0  0  0  0  0
   -2.8139   -1.6543    0.0000 C   0  0  0  0  0  0  0  0  0  0  0  0
   -2.8139   -0.8271    0.0000 C   0  0  0  0  0  0  0  0  0  0  0  0
   -3.5643   -0.4093    0.0000 C   0  0  0  0  0  0  0  0  0  0  0  0
   -1.4154   -1.6543    0.0000 C   0  0  0  0  0  0  0  0  0  0  0  0
   -1.4154   -0.8271    0.0000 C   0  0  0  0  0  0  0  0  0  0  0  0
   -2.1147   -0.4093    0.0000 C   0  0  0  0  0  0  0  0  0  0  0  0
   -0.6651   -2.0635    0.0000 C   0  0  0  0  0  0  0  0  0  0  0  0
    0.0341   -1.6543    0.0000 C   0  0  0  0  0  0  0  0  0  0  0  0
    0.0341   -0.8271    0.0000 C   0  0  0  0  0  0  0  0  0  0  0  0
   -0.6651   -0.4093    0.0000 C   0  0  0  0  0  0  0  0  0  0  0  0
   -2.1147    0.4177    0.0000 C   0  0  0  0  0  0  0  0  0  0  0  0
    0.7504   -2.0635    0.0000 O   0  0  0  0  0  0  0  0  0  0  0  0
    1.4580   -1.6543    0.0000 C   0  0  0  0  0  0  0  0  0  0  0  0
    2.1573   -2.0549    0.0000 C   0  0  0  0  0  0  0  0  0  0  0  0
    2.8565   -1.6457    0.0000 N   0  0  0  0  0  0  0  0  0  0  0  0
    3.5643   -2.0549    0.0000 C   0  0  0  0  0  0  0  0  0  0  0  0
    4.2636   -1.6457    0.0000 C   0  0  0  0  0  0  0  0  0  0  0  0
    2.8565   -0.8271    0.0000 C   0  0  0  0  0  0  0  0  0  0  0  0
    3.5643   -0.4093    0.0000 C   0  0  0  0  0  0  0  0  0  0  0  0
   -2.8310    0.8271    0.0000 Cl  0  0  0  0  0  0  0  0  0  0  0  0
   -1.3984    0.8271    0.0000 C   0  0  0  0  0  0  0  0  0  0  0  0
   -0.7077    0.4263    0.0000 C   0  0  0  0  0  0  0  0  0  0  0  0
    0.0084    0.8356    0.0000 C   0  0  0  0  0  0  0  0  0  0  0  0
    0.0084    1.6627    0.0000 C   0  0  0  0  0  0  0  0  0  0  0  0
   -0.6821    2.0635    0.0000 C   0  0  0  0  0  0  0  0  0  0  0  0
   -1.3984    1.6542    0.0000 C   0  0  0  0  0  0  0  0  0  0  0  0
   -5.1612   -0.3178    0.0000 H   0  0  0  0  0  0  0  0  0  0  0  0
   -5.1588   -2.1677    0.0000 H   0  0  0  0  0  0  0  0  0  0  0  0
   -3.5799   -3.0954    0.0000 H   0  0  0  0  0  0  0  0  0  0  0  0
   -1.9265   -2.1811    0.0000 H   0  0  0  0  0  0  0  0  0  0  0  0
   -3.5800    0.6226    0.0000 H   0  0  0  0  0  0  0  0  0  0  0  0
   -2.3028   -2.1811    0.0000 H   0  0  0  0  0  0  0  0  0  0  0  0
   -0.6495   -3.0954    0.0000 H   0  0  0  0  0  0  0  0  0  0  0  0
    0.9317   -0.3178    0.0000 H   0  0  0  0  0  0  0  0  0  0  0  0
   -0.6493    0.6226    0.0000 H   0  0  0  0  0  0  0  0  0  0  0  0
    1.4558   -0.5843    0.0000 H   0  0  0  0  0  0  0  0  0  0  0  0
    2.3832   -1.1168    0.0000 H   0  0  0  0  0  0  0  0  0  0  0  0
    2.1623   -3.1249    0.0000 H   0  0  0  0  0  0  0  0  0  0  0  0
    3.0868   -2.5850    0.0000 H   0  0  0  0  0  0  0  0  0  0  0  0
    3.5671   -3.1249    0.0000 H   0  0  0  0  0  0  0  0  0  0  0  0
    4.4932   -2.5860    0.0000 H   0  0  0  0  0  0  0  0  0  0  0  0
    5.1934   -2.1753    0.0000 H   0  0  0  0  0  0  0  0  0  0  0  0
    4.2574   -0.5757    0.0000 H   0  0  0  0  0  0  0  0  0  0  0  0
    5.1871   -1.1053    0.0000 H   0  0  0  0  0  0  0  0  0  0  0  0
    1.9273   -0.2966    0.0000 H   0  0  0  0  0  0  0  0  0  0  0  0
    2.8488    0.2429    0.0000 H   0  0  0  0  0  0  0  0  0  0  0  0
    4.4961   -0.9353    0.0000 H   0  0  0  0  0  0  0  0  0  0  0  0
    3.5540    0.6607    0.0000 H   0  0  0  0  0  0  0  0  0  0  0  0
    4.4857    0.1346    0.0000 H   0  0  0  0  0  0  0  0  0  0  0  0
   -0.7111   -0.6057    0.0000 H   0  0  0  0  0  0  0  0  0  0  0  0
    0.9010    0.3177    0.0000 H   0  0  0  0  0  0  0  0  0  0  0  0
    0.9027    2.1777    0.0000 H   0  0  0  0  0  0  0  0  0  0  0  0
   -0.6786    3.0955    0.0000 H   0  0  0  0  0  0  0  0  0  0  0  0
   -2.2910    2.1722    0.0000 H   0  0  0  0  0  0  0  0  0  0  0  0
  1  2  2  0  0  0  0
  1  6  1  0  0  0  0
  1 30  1  0  0  0  0
  2  3  1  0  0  0  0
  2 31  1  0  0  0  0
  3  4  2  0  0  0  0
  3 32  1  0  0  0  0
  4  5  1  0  0  0  0
  4 33  1  0  0  0  0
  5  6  2  0  0  0  0
  5  9  1  0  0  0  0
  6 34  1  0  0  0  0
  7  8  1  0  0  0  0
  7 10  2  0  0  0  0
  7 35  1  0  0  0  0
  8  9  1  0  0  0  0
  8 13  2  0  0  0  0
  9 14  2  3  0  0  0
 10 11  1  0  0  0  0
 10 36  1  0  0  0  0
 11 12  2  0  0  0  0
 11 15  1  0  0  0  0
 12 13  1  0  0  0  0
 12 37  1  0  0  0  0
 13 38  1  0  0  0  0
 14 23  1  0  0  0  0
 14 24  1  0  0  0  0
 15 16  1  0  0  0  0
 16 17  1  0  0  0  0
 16 39  1  0  0  0  0
 16 40  1  0  0  0  0
 17 18  1  0  0  0  0
 17 41  1  0  0  0  0
 17 42  1  0  0  0  0
 18 19  1  0  0  0  0
 18 21  1  0  0  0  0
 19 20  1  0  0  0  0
 19 43  1  0  0  0  0
 19 44  1  0  0  0  0
 20 45  1  0  0  0  0
 20 46  1  0  0  0  0
 20 47  1  0  0  0  0
 21 22  1  0  0  0  0
 21 48  1  0  0  0  0
 21 49  1  0  0  0  0
 22 50  1  0  0  0  0
 22 51  1  0  0  0  0
 22 52  1  0  0  0  0
 24 25  2  0  0  0  0
 24 29  1  0  0  0  0
 25 26  1  0  0  0  0
 25 53  1  0  0  0  0
 26 27  2  0  0  0  0
 26 54  1  0  0  0  0
 27 28  1  0  0  0  0
 27 55  1  0  0  0  0
 28 29  2  0  0  0  0
 28 56  1  0  0  0  0
 29 57  1  0  0  0  0
M  END
>  <DRUGBANK_ID>
DB00882

>  <SECONDARY_ACCESSION_NUMBERS>
APRD00880

>  <COMMON_NAME>
Clomifene

>  <CAS_NUMBER>
911-45-5

>  <UNII>
1HRS458QU2

>  <SYNONYMS>
2-(4-(2-chloro-1,2-diphenylethenyl)phenoxy)-N,N-diethylethanamine; 2-(p-(2-chloro-1,2-diphenylvinyl)phenoxy)triethylamine; 2-(p-(β-chloro-α-phenylstyryl)phenoxy)triethylamine; Clomifene; Clomifeno; Clomifenum; Clomiphene

$$$$
