F2B
 OpenBabel10282417072D

 34 35  0  0  0  0  0  0  0  0999 V2000
    0.6131   -0.6922    0.0000 C   0  0  0  0  0  0  0  0  0  0  0  0
    1.3275   -1.1047    0.0000 C   0  0  0  0  0  0  0  0  0  0  0  0
    1.3275   -1.9297    0.0000 C   0  0  0  0  0  0  0  0  0  0  0  0
    0.6131   -2.3422    0.0000 C   0  0  0  0  0  0  0  0  0  0  0  0
   -0.1014   -1.9297    0.0000 C   0  0  0  0  0  0  0  0  0  0  0  0
   -0.1014   -1.1047    0.0000 C   0  0  0  0  0  0  0  0  0  0  0  0
   -0.8159   -0.6922    0.0000 C   0  0  0  0  0  0  0  0  0  0  0  0
   -1.5303   -1.1047    0.0000 O   0  0  0  0  0  0  0  0  0  0  0  0
   -0.8159    0.1328    0.0000 N   0  0  0  0  0  0  0  0  0  0  0  0
   -1.5303    0.5453    0.0000 C   0  0  0  0  0  0  0  0  0  0  0  0
    2.0420   -2.3422    0.0000 S   0  0  0  0  0  0  0  0  0  0  0  0
    2.7565   -2.7547    0.0000 N   0  0  0  0  0  0  0  0  0  0  0  0
    2.4545   -1.6278    0.0000 O   0  0  0  0  0  0  0  0  0  0  0  0
    1.6295   -3.0567    0.0000 O   0  0  0  0  0  0  0  0  0  0  0  0
   -1.5303    1.3703    0.0000 C   0  0  0  0  0  0  0  0  0  0  0  0
   -2.2448    1.7828    0.0000 C   0  0  0  0  0  0  0  0  0  0  0  0
   -2.2448    2.6078    0.0000 C   0  0  0  0  0  0  0  0  0  0  0  0
   -1.5303    3.0203    0.0000 C   0  0  0  0  0  0  0  0  0  0  0  0
   -0.8159    2.6078    0.0000 C   0  0  0  0  0  0  0  0  0  0  0  0
   -0.8159    1.7828    0.0000 C   0  0  0  0  0  0  0  0  0  0  0  0
   -0.1014    3.0203    0.0000 F   0  0  0  0  0  0  0  0  0  0  0  0
   -0.1014    1.3703    0.0000 F   0  0  0  0  0  0  0  0  0  0  0  0
    0.6131    0.3398    0.0000 H   0  0  0  0  0  0  0  0  0  0  0  0
    2.2212   -0.5887    0.0000 H   0  0  0  0  0  0  0  0  0  0  0  0
    0.6131   -3.3742    0.0000 H   0  0  0  0  0  0  0  0  0  0  0  0
   -0.9951   -2.4457    0.0000 H   0  0  0  0  0  0  0  0  0  0  0  0
    0.0367    0.6250    0.0000 H   0  0  0  0  0  0  0  0  0  0  0  0
   -2.4570    0.0103    0.0000 H   0  0  0  0  0  0  0  0  0  0  0  0
   -2.4569    1.0803    0.0000 H   0  0  0  0  0  0  0  0  0  0  0  0
    2.7565   -3.7747    0.0000 H   0  0  0  0  0  0  0  0  0  0  0  0
    3.6398   -2.2447    0.0000 H   0  0  0  0  0  0  0  0  0  0  0  0
   -3.1385    1.2668    0.0000 H   0  0  0  0  0  0  0  0  0  0  0  0
   -3.1385    3.1238    0.0000 H   0  0  0  0  0  0  0  0  0  0  0  0
   -1.5303    4.0523    0.0000 H   0  0  0  0  0  0  0  0  0  0  0  0
  1  2  2  0  0  0  0
  1  6  1  0  0  0  0
  1 23  1  0  0  0  0
  2  3  1  0  0  0  0
  2 24  1  0  0  0  0
  3  4  2  0  0  0  0
  3 11  1  0  0  0  0
  4  5  1  0  0  0  0
  4 25  1  0  0  0  0
  5  6  2  0  0  0  0
  5 26  1  0  0  0  0
  6  7  1  0  0  0  0
  7  8  2  0  0  0  0
  7  9  1  0  0  0  0
  9 10  1  0  0  0  0
  9 27  1  0  0  0  0
 10 15  1  0  0  0  0
 10 28  1  0  0  0  0
 10 29  1  0  0  0  0
 11 12  1  0  0  0  0
 11 13  2  0  0  0  0
 11 14  2  0  0  0  0
 12 30  1  0  0  0  0
 12 31  1  0  0  0  0
 15 16  2  0  0  0  0
 15 20  1  0  0  0  0
 16 17  1  0  0  0  0
 16 32  1  0  0  0  0
 17 18  2  0  0  0  0
 17 33  1  0  0  0  0
 18 19  1  0  0  0  0
 18 34  1  0  0  0  0
 19 20  2  0  0  0  0
 19 21  1  0  0  0  0
 20 22  1  0  0  0  0
M  END
>  <DRUGBANK_ID>
DB07742

>  <COMMON_NAME>
N-(2,3-DIFLUORO-BENZYL)-4-SULFAMOYL-BENZAMIDE

>  <UNII>
T4Y7SN7BXW

$$$$
