
 OpenBabel10282417072D

 40 41  0  0  0  0  0  0  0  0999 V2000
   -2.0105    4.4393    0.0000 C   0  0  0  0  0  0  0  0  0  0  0  0
   -1.1594    6.1497    0.0000 C   0  0  0  0  0  0  0  0  0  0  0  0
   -1.4493    3.8346    0.0000 C   0  0  0  0  0  0  0  0  0  0  0  0
    0.8043    4.3489    0.0000 C   0  0  0  0  0  0  0  0  0  0  0  0
    0.8043    5.1739    0.0000 C   0  0  0  0  0  0  0  0  0  0  0  0
    0.0695    1.9556    0.0000 C   0  0  0  0  0  0  0  0  0  0  0  0
    0.0695    2.7806    0.0000 C   0  0  0  0  0  0  0  0  0  0  0  0
   -0.6450    1.5431    0.0000 C   0  0  0  0  0  0  0  0  0  0  0  0
    0.1593    3.8346    0.0000 C   0  0  0  0  0  0  0  0  0  0  0  0
    0.1593    5.6883    0.0000 C   0  0  0  0  0  0  0  0  0  0  0  0
   -1.3595    2.7806    0.0000 C   0  0  0  0  0  0  0  0  0  0  0  0
   -1.0030    4.7614    0.0000 C   0  0  0  0  0  0  0  0  0  0  0  0
   -0.6450    3.1931    0.0000 C   0  0  0  0  0  0  0  0  0  0  0  0
   -1.3595    1.9556    0.0000 C   0  0  0  0  0  0  0  0  0  0  0  0
   -0.6450    4.0181    0.0000 C   0  0  3  0  0  0  0  0  0  0  0  0
   -0.6450    5.5047    0.0000 N   0  0  0  0  0  0  0  0  0  0  0  0
   -2.0740    1.5431    0.0000 O   0  0  0  0  0  0  0  0  0  0  0  0
   -1.6952    5.4618    0.0000 H   0  0  0  0  0  0  0  0  0  0  0  0
   -3.0536    4.2011    0.0000 H   0  0  0  0  0  0  0  0  0  0  0  0
   -2.7384    5.2236    0.0000 H   0  0  0  0  0  0  0  0  0  0  0  0
   -0.7685    7.1457    0.0000 H   0  0  0  0  0  0  0  0  0  0  0  0
   -2.2174    5.9902    0.0000 H   0  0  0  0  0  0  0  0  0  0  0  0
   -1.8266    6.9862    0.0000 H   0  0  0  0  0  0  0  0  0  0  0  0
   -1.7647    2.8121    0.0000 H   0  0  0  0  0  0  0  0  0  0  0  0
   -0.7215    3.0502    0.0000 H   0  0  0  0  0  0  0  0  0  0  0  0
    1.7683    3.8846    0.0000 H   0  0  0  0  0  0  0  0  0  0  0  0
    0.9240    3.2856    0.0000 H   0  0  0  0  0  0  0  0  0  0  0  0
    1.7683    5.6381    0.0000 H   0  0  0  0  0  0  0  0  0  0  0  0
    0.9241    6.2372    0.0000 H   0  0  0  0  0  0  0  0  0  0  0  0
    0.9632    1.4396    0.0000 H   0  0  0  0  0  0  0  0  0  0  0  0
    0.9632    3.2966    0.0000 H   0  0  0  0  0  0  0  0  0  0  0  0
   -0.6450    0.5111    0.0000 H   0  0  0  0  0  0  0  0  0  0  0  0
    0.3974    2.7914    0.0000 H   0  0  0  0  0  0  0  0  0  0  0  0
   -0.5973    3.0780    0.0000 H   0  0  0  0  0  0  0  0  0  0  0  0
    0.3974    6.7315    0.0000 H   0  0  0  0  0  0  0  0  0  0  0  0
   -0.5973    6.4449    0.0000 H   0  0  0  0  0  0  0  0  0  0  0  0
   -2.2532    3.2966    0.0000 H   0  0  0  0  0  0  0  0  0  0  0  0
   -2.0730    4.7614    0.0000 H   0  0  0  0  0  0  0  0  0  0  0  0
   -1.5723    5.6674    0.0000 H   0  0  0  0  0  0  0  0  0  0  0  0
   -2.8855    2.0116    0.0000 H   0  0  0  0  0  0  0  0  0  0  0  0
  1 18  1  0  0  0  0
  1 19  1  0  0  0  0
  1 20  1  0  0  0  0
  2 21  1  0  0  0  0
  2 22  1  0  0  0  0
  2 23  1  0  0  0  0
  3  1  1  0  0  0  0
  3 24  1  0  0  0  0
  3 25  1  0  0  0  0
  4 26  1  0  0  0  0
  4 27  1  0  0  0  0
  5  4  1  0  0  0  0
  5 28  1  0  0  0  0
  5 29  1  0  0  0  0
  6 30  1  0  0  0  0
  7  6  2  0  0  0  0
  7 31  1  0  0  0  0
  8  6  1  0  0  0  0
  8 32  1  0  0  0  0
  9  4  1  0  0  0  0
  9 33  1  0  0  0  0
  9 34  1  0  0  0  0
 10  5  1  0  0  0  0
 10 35  1  0  0  0  0
 10 36  1  0  0  0  0
 11 37  1  0  0  0  0
 12 38  1  0  0  0  0
 12 39  1  0  0  0  0
 13  7  1  0  0  0  0
 13 11  2  0  0  0  0
 14  8  2  0  0  0  0
 14 11  1  0  0  0  0
 15  3  1  0  0  0  0
 15  9  1  0  0  0  0
 15 12  1  0  0  0  0
 15 13  1  0  0  0  0
 16  2  1  0  0  0  0
 16 10  1  0  0  0  0
 16 12  1  0  0  0  0
 17 14  1  0  0  0  0
 17 40  1  0  0  0  0
M  END
>  <DRUGBANK_ID>
DB13478

>  <COMMON_NAME>
Meptazinol

>  <CAS_NUMBER>
54340-58-8

>  <UNII>
18Y7S5JKZD

>  <SYNONYMS>
Meptazinol

$$$$
