
 OpenBabel10282417072D

 29 30  0  0  0  0  0  0  0  0999 V2000
    0.4188    0.5603    0.0000 S   0  0  0  0  0  0  0  0  0  0  0  0
    2.0265    1.9648    0.0000 S   0  0  0  0  0  0  0  0  0  0  0  0
    0.8313   -0.1542    0.0000 O   0  0  0  0  0  0  0  0  0  0  0  0
    0.0063    1.2747    0.0000 O   0  0  0  0  0  0  0  0  0  0  0  0
    0.7780    3.1523    0.0000 O   0  0  0  0  0  0  0  0  0  0  0  0
   -0.1781    2.0903    0.0000 O   0  0  0  0  0  0  0  0  0  0  0  0
   -1.7246   -3.1523    0.0000 O   0  5  0  0  0  0  0  0  0  0  0  0
   -2.4391   -1.9148    0.0000 O   0  0  0  0  0  0  0  0  0  0  0  0
   -0.2955    0.1477    0.0000 N   0  0  0  0  0  0  0  0  0  0  0  0
   -1.7246   -2.3272    0.0000 N   0  3  0  0  0  0  0  0  0  0  0  0
    1.1333    0.9727    0.0000 C   0  0  0  0  0  0  0  0  0  0  0  0
   -0.2955   -0.6772    0.0000 C   0  0  0  0  0  0  0  0  0  0  0  0
    1.2196    1.7933    0.0000 C   0  0  0  0  0  0  0  0  0  0  0  0
    1.8871    0.6372    0.0000 C   0  0  0  0  0  0  0  0  0  0  0  0
   -1.0100   -1.0897    0.0000 C   0  0  0  0  0  0  0  0  0  0  0  0
    0.4188   -1.0897    0.0000 C   0  0  0  0  0  0  0  0  0  0  0  0
    2.4391    1.2503    0.0000 C   0  0  0  0  0  0  0  0  0  0  0  0
   -1.0100   -1.9148    0.0000 C   0  0  0  0  0  0  0  0  0  0  0  0
    0.4188   -1.9148    0.0000 C   0  0  0  0  0  0  0  0  0  0  0  0
   -0.2955   -2.3272    0.0000 C   0  0  0  0  0  0  0  0  0  0  0  0
    0.6065    2.3452    0.0000 C   0  0  0  0  0  0  0  0  0  0  0  0
   -0.7386    0.4034    0.0000 H   0  0  0  0  0  0  0  0  0  0  0  0
    1.6691    3.4419    0.0000 H   0  0  0  0  0  0  0  0  0  0  0  0
    2.1017   -0.3722    0.0000 H   0  0  0  0  0  0  0  0  0  0  0  0
   -1.9037   -0.5737    0.0000 H   0  0  0  0  0  0  0  0  0  0  0  0
    1.3126   -0.5737    0.0000 H   0  0  0  0  0  0  0  0  0  0  0  0
    3.4655    1.1425    0.0000 H   0  0  0  0  0  0  0  0  0  0  0  0
    1.3125   -2.4308    0.0000 H   0  0  0  0  0  0  0  0  0  0  0  0
   -0.2954   -3.3592    0.0000 H   0  0  0  0  0  0  0  0  0  0  0  0
  1  3  2  0  0  0  0
  1  4  2  0  0  0  0
  1  9  1  0  0  0  0
  1 11  1  0  0  0  0
  2 13  1  0  0  0  0
  2 17  1  0  0  0  0
  5 21  1  0  0  0  0
  5 23  1  0  0  0  0
  6 21  2  0  0  0  0
  7 10  1  0  0  0  0
  8 10  2  0  0  0  0
  9 12  1  0  0  0  0
  9 22  1  0  0  0  0
 10 18  1  0  0  0  0
 11 13  2  0  0  0  0
 11 14  1  0  0  0  0
 12 15  2  0  0  0  0
 12 16  1  0  0  0  0
 13 21  1  0  0  0  0
 14 17  2  0  0  0  0
 14 24  1  0  0  0  0
 15 18  1  0  0  0  0
 15 25  1  0  0  0  0
 16 19  2  0  0  0  0
 16 26  1  0  0  0  0
 17 27  1  0  0  0  0
 18 20  2  0  0  0  0
 19 20  1  0  0  0  0
 19 28  1  0  0  0  0
 20 29  1  0  0  0  0
M  CHG  2   7  -1  10   1
M  END
>  <DRUGBANK_ID>
DB08306

>  <COMMON_NAME>
3-[(3-Nitrophenyl)sulfamoyl]-2-thiophenecarboxylic acid

>  <CAS_NUMBER>
850635-41-5

$$$$
