
 OpenBabel10282417072D

 26 26  0  0  0  0  0  0  0  0999 V2000
   -0.7029    1.6660    0.0000 C   0  0  0  0  0  0  0  0  0  0  0  0
   -0.7029    0.8410    0.0000 C   0  0  0  0  0  0  0  0  0  0  0  0
    0.0116    0.4285    0.0000 C   0  0  3  0  0  0  0  0  0  0  0  0
    0.0116   -0.3964    0.0000 N   0  0  0  0  0  0  0  0  0  0  0  0
    0.6790   -0.8813    0.0000 C   0  0  0  0  0  0  0  0  0  0  0  0
    0.4241   -1.6660    0.0000 C   0  0  0  0  0  0  0  0  0  0  0  0
   -0.4008   -1.6660    0.0000 C   0  0  0  0  0  0  0  0  0  0  0  0
   -0.6558   -0.8813    0.0000 C   0  0  0  0  0  0  0  0  0  0  0  0
   -1.4404   -0.6264    0.0000 O   0  0  0  0  0  0  0  0  0  0  0  0
    0.7260    0.8410    0.0000 C   0  0  0  0  0  0  0  0  0  0  0  0
    1.4404    0.4285    0.0000 N   0  0  0  0  0  0  0  0  0  0  0  0
    0.7260    1.6660    0.0000 O   0  0  0  0  0  0  0  0  0  0  0  0
    0.2237    2.2010    0.0000 H   0  0  0  0  0  0  0  0  0  0  0  0
   -1.6295    2.2010    0.0000 H   0  0  0  0  0  0  0  0  0  0  0  0
   -0.7029    2.7360    0.0000 H   0  0  0  0  0  0  0  0  0  0  0  0
   -1.6295    0.3060    0.0000 H   0  0  0  0  0  0  0  0  0  0  0  0
   -0.7029   -0.2290    0.0000 H   0  0  0  0  0  0  0  0  0  0  0  0
   -0.9150   -0.1065    0.0000 H   0  0  0  0  0  0  0  0  0  0  0  0
    1.6966   -0.5506    0.0000 H   0  0  0  0  0  0  0  0  0  0  0  0
    1.4356   -1.6379    0.0000 H   0  0  0  0  0  0  0  0  0  0  0  0
    1.0531   -2.5316    0.0000 H   0  0  0  0  0  0  0  0  0  0  0  0
   -0.0617   -2.6194    0.0000 H   0  0  0  0  0  0  0  0  0  0  0  0
   -1.0297   -2.5317    0.0000 H   0  0  0  0  0  0  0  0  0  0  0  0
   -1.4576   -1.4986    0.0000 H   0  0  0  0  0  0  0  0  0  0  0  0
    1.4404   -0.5560    0.0000 H   0  0  0  0  0  0  0  0  0  0  0  0
    2.2930    0.9207    0.0000 H   0  0  0  0  0  0  0  0  0  0  0  0
  1  2  1  0  0  0  0
  1 13  1  0  0  0  0
  1 14  1  0  0  0  0
  1 15  1  0  0  0  0
  2  3  1  0  0  0  0
  2 16  1  0  0  0  0
  2 17  1  0  0  0  0
  3  4  1  0  0  0  0
  3 10  1  0  0  0  0
  3 18  1  0  0  0  0
  4  5  1  0  0  0  0
  4  8  1  0  0  0  0
  5  6  1  0  0  0  0
  5 19  1  0  0  0  0
  5 20  1  0  0  0  0
  6  7  1  0  0  0  0
  6 21  1  0  0  0  0
  6 22  1  0  0  0  0
  7  8  1  0  0  0  0
  7 23  1  0  0  0  0
  7 24  1  0  0  0  0
  8  9  2  0  0  0  0
 10 11  1  0  0  0  0
 10 12  2  0  0  0  0
 11 25  1  0  0  0  0
 11 26  1  0  0  0  0
M  END
>  <DRUGBANK_ID>
DB11868

>  <COMMON_NAME>
Etiracetam

>  <CAS_NUMBER>
33996-58-6

>  <UNII>
230447L0GL

>  <SYNONYMS>
Etiracetam; étiracétam; Etiracetamum

$$$$
