
 OpenBabel10282417072D

 45 48  0  0  1  0  0  0  0  0999 V2000
    1.2460   -0.9505    0.0000 N   0  0  0  0  0  0  0  0  0  0  0  0
    1.7309   -1.6180    0.0000 C   0  0  0  0  0  0  0  0  0  0  0  0
    2.5559   -1.6180    0.0000 N   0  0  0  0  0  0  0  0  0  0  0  0
    2.8109   -2.4026    0.0000 N   0  0  0  0  0  0  0  0  0  0  0  0
    2.1434   -2.8875    0.0000 C   0  0  0  0  0  0  0  0  0  0  0  0
    2.1434   -3.7125    0.0000 C   0  0  0  0  0  0  0  0  0  0  0  0
    1.4289   -4.1250    0.0000 N   0  0  0  0  0  0  0  0  0  0  0  0
    1.4289   -4.9500    0.0000 C   0  0  2  0  0  0  0  0  0  0  0  0
    1.8414   -5.6645    0.0000 C   0  0  0  0  0  0  0  0  0  0  0  0
    1.0164   -5.6645    0.0000 C   0  0  1  0  0  0  0  0  0  0  0  0
    0.3020   -6.0770    0.0000 C   0  0  0  0  0  0  0  0  0  0  0  0
    0.3020   -6.9020    0.0000 C   0  0  0  0  0  0  0  0  0  0  0  0
   -0.4125   -7.3145    0.0000 C   0  0  0  0  0  0  0  0  0  0  0  0
   -1.1270   -6.9020    0.0000 C   0  0  0  0  0  0  0  0  0  0  0  0
   -1.8414   -7.3145    0.0000 O   0  0  0  0  0  0  0  0  0  0  0  0
   -1.8414   -8.1395    0.0000 C   0  0  0  0  0  0  0  0  0  0  0  0
   -2.5559   -8.5520    0.0000 C   0  0  0  0  0  0  0  0  0  0  0  0
   -2.5559   -9.3770    0.0000 C   0  0  0  0  0  0  0  0  0  0  0  0
   -3.2704   -9.7895    0.0000 C   0  0  0  0  0  0  0  0  0  0  0  0
   -3.9849   -9.3770    0.0000 C   0  0  0  0  0  0  0  0  0  0  0  0
   -3.9849   -8.5520    0.0000 C   0  0  0  0  0  0  0  0  0  0  0  0
   -3.2704   -8.1395    0.0000 C   0  0  0  0  0  0  0  0  0  0  0  0
   -1.1270   -6.0770    0.0000 C   0  0  0  0  0  0  0  0  0  0  0  0
   -0.4125   -5.6645    0.0000 C   0  0  0  0  0  0  0  0  0  0  0  0
    1.4760   -2.4026    0.0000 O   0  0  0  0  0  0  0  0  0  0  0  0
    1.6465   -0.0511    0.0000 H   0  0  0  0  0  0  0  0  0  0  0  0
    0.2669   -1.0533    0.0000 H   0  0  0  0  0  0  0  0  0  0  0  0
    3.0700   -4.2475    0.0000 H   0  0  0  0  0  0  0  0  0  0  0  0
    2.1434   -4.7825    0.0000 H   0  0  0  0  0  0  0  0  0  0  0  0
    0.5456   -3.6150    0.0000 H   0  0  0  0  0  0  0  0  0  0  0  0
    2.4624   -4.6731    0.0000 H   0  0  0  0  0  0  0  0  0  0  0  0
    2.7680   -6.1995    0.0000 H   0  0  0  0  0  0  0  0  0  0  0  0
    1.5645   -6.6980    0.0000 H   0  0  0  0  0  0  0  0  0  0  0  0
    1.2934   -6.6980    0.0000 H   0  0  0  0  0  0  0  0  0  0  0  0
    1.1957   -7.4180    0.0000 H   0  0  0  0  0  0  0  0  0  0  0  0
   -0.4125   -8.3465    0.0000 H   0  0  0  0  0  0  0  0  0  0  0  0
   -0.9148   -8.6745    0.0000 H   0  0  0  0  0  0  0  0  0  0  0  0
   -1.8414   -9.2095    0.0000 H   0  0  0  0  0  0  0  0  0  0  0  0
   -1.6622   -9.8930    0.0000 H   0  0  0  0  0  0  0  0  0  0  0  0
   -3.2704  -10.8215    0.0000 H   0  0  0  0  0  0  0  0  0  0  0  0
   -4.8786   -9.8930    0.0000 H   0  0  0  0  0  0  0  0  0  0  0  0
   -4.8786   -8.0360    0.0000 H   0  0  0  0  0  0  0  0  0  0  0  0
   -3.2704   -7.1075    0.0000 H   0  0  0  0  0  0  0  0  0  0  0  0
   -2.0207   -5.5610    0.0000 H   0  0  0  0  0  0  0  0  0  0  0  0
   -0.4125   -4.6325    0.0000 H   0  0  0  0  0  0  0  0  0  0  0  0
  1  2  1  0  0  0  0
  1 26  1  0  0  0  0
  1 27  1  0  0  0  0
  2  3  2  0  0  0  0
  2 25  1  0  0  0  0
  3  4  1  0  0  0  0
  4  5  2  0  0  0  0
  5  6  1  0  0  0  0
  5 25  1  0  0  0  0
  6  7  1  0  0  0  0
  6 28  1  0  0  0  0
  6 29  1  0  0  0  0
  7 30  1  0  0  0  0
  8  7  1  0  0  0  0
  8  9  1  0  0  0  0
  8 10  1  0  0  0  0
  8 31  1  1  0  0  0
  9 32  1  0  0  0  0
  9 33  1  0  0  0  0
 10  9  1  0  0  0  0
 10 11  1  0  0  0  0
 10 34  1  6  0  0  0
 11 12  2  0  0  0  0
 11 24  1  0  0  0  0
 12 13  1  0  0  0  0
 12 35  1  0  0  0  0
 13 14  2  0  0  0  0
 13 36  1  0  0  0  0
 14 15  1  0  0  0  0
 14 23  1  0  0  0  0
 15 16  1  0  0  0  0
 16 17  1  0  0  0  0
 16 37  1  0  0  0  0
 16 38  1  0  0  0  0
 17 18  2  0  0  0  0
 17 22  1  0  0  0  0
 18 19  1  0  0  0  0
 18 39  1  0  0  0  0
 19 20  2  0  0  0  0
 19 40  1  0  0  0  0
 20 21  1  0  0  0  0
 20 41  1  0  0  0  0
 21 22  2  0  0  0  0
 21 42  1  0  0  0  0
 22 43  1  0  0  0  0
 23 24  2  0  0  0  0
 23 44  1  0  0  0  0
 24 45  1  0  0  0  0
M  END
>  <DRUGBANK_ID>
DB16446

>  <COMMON_NAME>
Vafidemstat

>  <CAS_NUMBER>
1357362-02-7

>  <UNII>
LZ82JLT4UP

>  <SYNONYMS>
Vafidemstat

$$$$
