
 OpenBabel10282417072D

 29 30  0  0  0  0  0  0  0  0999 V2000
   -0.7144   -0.2062    0.0000 C   0  0  0  0  0  0  0  0  0  0  0  0
   -1.4289   -1.4438    0.0000 C   0  0  0  0  0  0  0  0  0  0  0  0
   -0.7144   -1.0312    0.0000 C   0  0  0  0  0  0  0  0  0  0  0  0
   -1.4289    0.2062    0.0000 C   0  0  0  0  0  0  0  0  0  0  0  0
   -2.1434   -0.2062    0.0000 C   0  0  0  0  0  0  0  0  0  0  0  0
   -2.1434   -1.0313    0.0000 C   0  0  0  0  0  0  0  0  0  0  0  0
    1.4289    0.2062    0.0000 N   0  0  0  0  0  0  0  0  0  0  0  0
    0.7144    1.4437    0.0000 N   0  0  0  0  0  0  0  0  0  0  0  0
    0.7144   -0.2061    0.0000 C   0  0  0  0  0  0  0  0  0  0  0  0
    0.7144   -1.0312    0.0000 O   0  0  0  0  0  0  0  0  0  0  0  0
    0.0000    1.0312    0.0000 C   0  0  0  0  0  0  0  0  0  0  0  0
   -0.7145    1.4437    0.0000 O   0  0  0  0  0  0  0  0  0  0  0  0
    1.4289    1.0312    0.0000 C   0  0  0  0  0  0  0  0  0  0  0  0
    2.1434    1.4438    0.0000 O   0  0  0  0  0  0  0  0  0  0  0  0
    0.0000    0.2063    0.0000 C   0  0  0  0  0  0  0  0  0  0  0  0
   -0.8249    0.2063    0.0000 C   0  0  0  0  0  0  0  0  0  0  0  0
   -1.2374    0.9207    0.0000 C   0  0  0  0  0  0  0  0  0  0  0  0
   -1.4288   -2.4758    0.0000 H   0  0  0  0  0  0  0  0  0  0  0  0
    0.1794   -1.5472    0.0000 H   0  0  0  0  0  0  0  0  0  0  0  0
   -1.4289    1.2382    0.0000 H   0  0  0  0  0  0  0  0  0  0  0  0
   -3.0371    0.3099    0.0000 H   0  0  0  0  0  0  0  0  0  0  0  0
   -3.0371   -1.5473    0.0000 H   0  0  0  0  0  0  0  0  0  0  0  0
    2.2814   -0.2861    0.0000 H   0  0  0  0  0  0  0  0  0  0  0  0
    0.7144    2.4282    0.0000 H   0  0  0  0  0  0  0  0  0  0  0  0
   -1.3599   -0.7204    0.0000 H   0  0  0  0  0  0  0  0  0  0  0  0
   -1.8949    0.2063    0.0000 H   0  0  0  0  0  0  0  0  0  0  0  0
   -0.7024    1.8474    0.0000 H   0  0  0  0  0  0  0  0  0  0  0  0
   -2.3074    0.9207    0.0000 H   0  0  0  0  0  0  0  0  0  0  0  0
   -1.7724    1.8473    0.0000 H   0  0  0  0  0  0  0  0  0  0  0  0
  1  4  2  0  0  0  0
  2  3  2  0  0  0  0
  2  6  1  0  0  0  0
  2 18  1  0  0  0  0
  3  1  1  0  0  0  0
  3 19  1  0  0  0  0
  4  5  1  0  0  0  0
  4 20  1  0  0  0  0
  5  6  2  0  0  0  0
  5 21  1  0  0  0  0
  6 22  1  0  0  0  0
  7 13  1  0  0  0  0
  7 23  1  0  0  0  0
  8 11  1  0  0  0  0
  8 24  1  0  0  0  0
  9  7  1  0  0  0  0
  9 15  1  0  0  0  0
  9 10  2  0  0  0  0
 11 15  1  0  0  0  0
 11 12  2  0  0  0  0
 13  8  1  0  0  0  0
 13 14  2  0  0  0  0
 15  1  1  0  0  0  0
 15 16  1  0  0  0  0
 16 17  1  0  0  0  0
 16 25  1  0  0  0  0
 16 26  1  0  0  0  0
 17 27  1  0  0  0  0
 17 28  1  0  0  0  0
 17 29  1  0  0  0  0
M  END
>  <DRUGBANK_ID>
DB01174

>  <SECONDARY_ACCESSION_NUMBERS>
APRD00184

>  <COMMON_NAME>
Phenobarbital

>  <CAS_NUMBER>
50-06-6

>  <UNII>
YQE403BP4D

>  <SYNONYMS>
5-ethyl-5-phenyl-2,4,6(1H,3H,5H)-pyrimidinetrione; 5-Ethyl-5-phenyl-pyrimidine-2,4,6-trione; 5-Ethyl-5-phenylbarbituric acid; 5-ethyl-5-phenylpyrimidine-2,4,6(1H,3H,5H)-trione; 5-Phenyl-5-ethylbarbituric acid; Fenobarbital; Phenobarbital; Phenobarbitol; Phenobarbitone; Phenobarbituric Acid; Phenyläthylbarbitursäure; Phenylethylbarbiturate; Phenylethylbarbituric Acid; Phenylethylbarbitursäure; Phenylethylmalonylurea

$$$$
