
 OpenBabel10282417072D

 60 62  0  0  1  0  0  0  0  0999 V2000
   -1.4289   -1.6500    0.0000 C   0  0  0  0  0  0  0  0  0  0  0  0
   -1.4289   -2.4750    0.0000 C   0  0  0  0  0  0  0  0  0  0  0  0
   -0.7145   -2.8875    0.0000 O   0  0  0  0  0  0  0  0  0  0  0  0
   -0.7145   -3.7125    0.0000 C   0  0  0  0  0  0  0  0  0  0  0  0
    0.0000   -4.1250    0.0000 C   0  0  0  0  0  0  0  0  0  0  0  0
    0.0000   -4.9500    0.0000 C   0  0  0  0  0  0  0  0  0  0  0  0
   -0.7145   -5.3625    0.0000 C   0  0  0  0  0  0  0  0  0  0  0  0
   -1.4289   -4.9500    0.0000 C   0  0  0  0  0  0  0  0  0  0  0  0
   -1.4289   -4.1250    0.0000 C   0  0  0  0  0  0  0  0  0  0  0  0
   -0.7145   -6.1875    0.0000 C   0  0  0  0  0  0  0  0  0  0  0  0
   -1.4289   -6.6000    0.0000 C   0  0  0  0  0  0  0  0  0  0  0  0
   -1.4289   -7.4250    0.0000 C   0  0  0  0  0  0  0  0  0  0  0  0
   -2.1434   -7.8375    0.0000 C   0  0  0  0  0  0  0  0  0  0  0  0
   -2.8579   -7.4250    0.0000 C   0  0  0  0  0  0  0  0  0  0  0  0
   -2.8579   -6.6000    0.0000 C   0  0  0  0  0  0  0  0  0  0  0  0
   -2.1434   -6.1875    0.0000 C   0  0  0  0  0  0  0  0  0  0  0  0
   -2.1434   -5.3625    0.0000 C   0  0  0  0  0  0  0  0  0  0  0  0
   -3.5724   -7.8375    0.0000 O   0  0  0  0  0  0  0  0  0  0  0  0
   -4.2868   -7.4250    0.0000 C   0  0  0  0  0  0  0  0  0  0  0  0
   -2.1434   -8.6625    0.0000 C   0  0  1  0  0  0  0  0  0  0  0  0
   -1.4289   -9.0750    0.0000 C   0  0  1  0  0  0  0  0  0  0  0  0
   -1.4289   -9.9000    0.0000 C   0  0  2  0  0  0  0  0  0  0  0  0
   -2.1434  -10.3125    0.0000 C   0  0  1  0  0  0  0  0  0  0  0  0
   -2.8579   -9.9000    0.0000 C   0  0  2  0  0  0  0  0  0  0  0  0
   -2.8579   -9.0750    0.0000 S   0  0  0  0  0  0  0  0  0  0  0  0
   -3.5724  -10.3125    0.0000 C   0  0  0  0  0  0  0  0  0  0  0  0
   -3.5724  -11.1375    0.0000 O   0  0  0  0  0  0  0  0  0  0  0  0
   -2.1434  -11.1375    0.0000 O   0  0  0  0  0  0  0  0  0  0  0  0
   -0.7145  -10.3125    0.0000 O   0  0  0  0  0  0  0  0  0  0  0  0
   -0.7145   -8.6625    0.0000 O   0  0  0  0  0  0  0  0  0  0  0  0
   -0.5023   -1.1150    0.0000 H   0  0  0  0  0  0  0  0  0  0  0  0
   -2.3555   -1.1150    0.0000 H   0  0  0  0  0  0  0  0  0  0  0  0
   -1.4289   -0.5800    0.0000 H   0  0  0  0  0  0  0  0  0  0  0  0
   -2.3556   -3.0100    0.0000 H   0  0  0  0  0  0  0  0  0  0  0  0
   -1.4289   -3.5450    0.0000 H   0  0  0  0  0  0  0  0  0  0  0  0
    0.8937   -3.6090    0.0000 H   0  0  0  0  0  0  0  0  0  0  0  0
    0.8937   -5.4660    0.0000 H   0  0  0  0  0  0  0  0  0  0  0  0
   -2.3226   -5.4660    0.0000 H   0  0  0  0  0  0  0  0  0  0  0  0
   -2.3226   -3.6090    0.0000 H   0  0  0  0  0  0  0  0  0  0  0  0
    0.2122   -6.7225    0.0000 H   0  0  0  0  0  0  0  0  0  0  0  0
   -0.7145   -7.2575    0.0000 H   0  0  0  0  0  0  0  0  0  0  0  0
   -0.5352   -7.9410    0.0000 H   0  0  0  0  0  0  0  0  0  0  0  0
   -3.7516   -6.0840    0.0000 H   0  0  0  0  0  0  0  0  0  0  0  0
   -1.2168   -4.8275    0.0000 H   0  0  0  0  0  0  0  0  0  0  0  0
   -3.0700   -4.8275    0.0000 H   0  0  0  0  0  0  0  0  0  0  0  0
   -2.1434   -4.2925    0.0000 H   0  0  0  0  0  0  0  0  0  0  0  0
   -4.2868   -6.3550    0.0000 H   0  0  0  0  0  0  0  0  0  0  0  0
   -5.2135   -7.9600    0.0000 H   0  0  0  0  0  0  0  0  0  0  0  0
   -5.2134   -6.8900    0.0000 H   0  0  0  0  0  0  0  0  0  0  0  0
   -1.2168   -8.1275    0.0000 H   0  0  0  0  0  0  0  0  0  0  0  0
   -1.4289   -8.0050    0.0000 H   0  0  0  0  0  0  0  0  0  0  0  0
   -0.5022   -9.3650    0.0000 H   0  0  0  0  0  0  0  0  0  0  0  0
   -1.2168  -10.8475    0.0000 H   0  0  0  0  0  0  0  0  0  0  0  0
   -2.8579  -10.9700    0.0000 H   0  0  0  0  0  0  0  0  0  0  0  0
   -4.4990   -9.7775    0.0000 H   0  0  0  0  0  0  0  0  0  0  0  0
   -4.4990  -10.8475    0.0000 H   0  0  0  0  0  0  0  0  0  0  0  0
   -4.4124  -11.6225    0.0000 H   0  0  0  0  0  0  0  0  0  0  0  0
   -2.9834  -11.6225    0.0000 H   0  0  0  0  0  0  0  0  0  0  0  0
   -0.7145  -11.2825    0.0000 H   0  0  0  0  0  0  0  0  0  0  0  0
    0.1256   -9.1475    0.0000 H   0  0  0  0  0  0  0  0  0  0  0  0
  1  2  1  0  0  0  0
  1 31  1  0  0  0  0
  1 32  1  0  0  0  0
  1 33  1  0  0  0  0
  2  3  1  0  0  0  0
  2 34  1  0  0  0  0
  2 35  1  0  0  0  0
  3  4  1  0  0  0  0
  4  5  2  0  0  0  0
  4  9  1  0  0  0  0
  5  6  1  0  0  0  0
  5 36  1  0  0  0  0
  6  7  2  0  0  0  0
  6 37  1  0  0  0  0
  7  8  1  0  0  0  0
  7 10  1  0  0  0  0
  8  9  2  0  0  0  0
  8 38  1  0  0  0  0
  9 39  1  0  0  0  0
 10 11  1  0  0  0  0
 10 40  1  0  0  0  0
 10 41  1  0  0  0  0
 11 12  2  0  0  0  0
 11 16  1  0  0  0  0
 12 13  1  0  0  0  0
 12 42  1  0  0  0  0
 13 14  2  0  0  0  0
 14 15  1  0  0  0  0
 14 18  1  0  0  0  0
 15 16  2  0  0  0  0
 15 43  1  0  0  0  0
 16 17  1  0  0  0  0
 17 44  1  0  0  0  0
 17 45  1  0  0  0  0
 17 46  1  0  0  0  0
 18 19  1  0  0  0  0
 19 47  1  0  0  0  0
 19 48  1  0  0  0  0
 19 49  1  0  0  0  0
 20 13  1  0  0  0  0
 20 21  1  0  0  0  0
 20 25  1  0  0  0  0
 20 50  1  6  0  0  0
 21 22  1  0  0  0  0
 21 30  1  0  0  0  0
 21 51  1  1  0  0  0
 22 23  1  0  0  0  0
 22 29  1  0  0  0  0
 22 52  1  6  0  0  0
 23 24  1  0  0  0  0
 23 28  1  0  0  0  0
 23 53  1  1  0  0  0
 24 25  1  0  0  0  0
 24 26  1  0  0  0  0
 24 54  1  6  0  0  0
 26 27  1  0  0  0  0
 26 55  1  0  0  0  0
 26 56  1  0  0  0  0
 27 57  1  0  0  0  0
 28 58  1  0  0  0  0
 29 59  1  0  0  0  0
 30 60  1  0  0  0  0
M  END
>  <DRUGBANK_ID>
DB12214

>  <COMMON_NAME>
Luseogliflozin

>  <CAS_NUMBER>
898537-18-3

>  <UNII>
C596HWF74Z

>  <SYNONYMS>
Luseogliflozin

$$$$
