CXM
 OpenBabel10282417072D

 23 22  0  0  0  0  0  0  0  0999 V2000
    1.3524    0.5508    0.0000 N   0  0  0  0  0  0  0  0  0  0  0  0
    0.6378    0.1383    0.0000 C   0  0  1  0  0  0  0  0  0  0  0  0
   -0.0767    0.5508    0.0000 C   0  0  0  0  0  0  0  0  0  0  0  0
   -0.7912    0.1383    0.0000 C   0  0  0  0  0  0  0  0  0  0  0  0
   -1.5057    0.5508    0.0000 S   0  0  0  0  0  0  0  0  0  0  0  0
   -2.2203    0.1383    0.0000 C   0  0  0  0  0  0  0  0  0  0  0  0
    0.6378   -0.6868    0.0000 C   0  0  0  0  0  0  0  0  0  0  0  0
   -0.0767   -1.0993    0.0000 O   0  0  0  0  0  0  0  0  0  0  0  0
    2.0669    0.1383    0.0000 C   0  0  0  0  0  0  0  0  0  0  0  0
    2.7814    0.5508    0.0000 O   0  0  0  0  0  0  0  0  0  0  0  0
    2.0669   -0.6868    0.0000 O   0  0  0  0  0  0  0  0  0  0  0  0
    1.3524   -1.0993    0.0000 O   0  0  0  0  0  0  0  0  0  0  0  0
    0.6378    0.7223    0.0000 H   0  0  0  0  0  0  0  0  0  0  0  0
    1.3524    1.5353    0.0000 H   0  0  0  0  0  0  0  0  0  0  0  0
   -0.0767    1.6208    0.0000 H   0  0  0  0  0  0  0  0  0  0  0  0
   -1.0033    1.0858    0.0000 H   0  0  0  0  0  0  0  0  0  0  0  0
   -0.7912   -0.9317    0.0000 H   0  0  0  0  0  0  0  0  0  0  0  0
   -1.7178   -0.3967    0.0000 H   0  0  0  0  0  0  0  0  0  0  0  0
   -3.1469    0.6734    0.0000 H   0  0  0  0  0  0  0  0  0  0  0  0
   -2.2204   -0.9317    0.0000 H   0  0  0  0  0  0  0  0  0  0  0  0
   -3.1470   -0.3966    0.0000 H   0  0  0  0  0  0  0  0  0  0  0  0
    1.2554   -1.1553    0.0000 H   0  0  0  0  0  0  0  0  0  0  0  0
    1.3525   -2.0363    0.0000 H   0  0  0  0  0  0  0  0  0  0  0  0
  1  9  1  0  0  0  0
  1 14  1  0  0  0  0
  2  1  1  0  0  0  0
  2  3  1  0  0  0  0
  2  7  1  0  0  0  0
  2 13  1  1  0  0  0
  3  4  1  0  0  0  0
  3 15  1  0  0  0  0
  3 16  1  0  0  0  0
  4  5  1  0  0  0  0
  4 17  1  0  0  0  0
  4 18  1  0  0  0  0
  5  6  1  0  0  0  0
  6 19  1  0  0  0  0
  6 20  1  0  0  0  0
  6 21  1  0  0  0  0
  7  8  2  0  0  0  0
  7 12  1  0  0  0  0
  9 10  2  0  0  0  0
  9 11  1  0  0  0  0
 11 22  1  0  0  0  0
 12 23  1  0  0  0  0
M  END
>  <DRUGBANK_ID>
DB02899

>  <SECONDARY_ACCESSION_NUMBERS>
EXPT01067

>  <COMMON_NAME>
N-Carboxymethionine

$$$$
