1PU
 OpenBabel10282417072D

 39 42  0  0  0  0  0  0  0  0999 V2000
    1.1473    0.8625    0.0000 C   0  0  0  0  0  0  0  0  0  0  0  0
    0.3225    0.8462    0.0000 C   0  0  1  0  0  0  0  0  0  0  0  0
    1.3867    1.6520    0.0000 C   0  0  0  0  0  0  0  0  0  0  0  0
    0.7099    2.1236    0.0000 C   0  0  0  0  0  0  0  0  0  0  0  0
   -0.3353    0.3482    0.0000 C   0  0  0  0  0  0  0  0  0  0  0  0
    1.7113    0.2604    0.0000 C   0  0  0  0  0  0  0  0  0  0  0  0
    0.0521    1.6257    0.0000 N   0  0  0  0  0  0  0  0  0  0  0  0
    2.1902    1.8394    0.0000 C   0  0  0  0  0  0  0  0  0  0  0  0
    2.5147    0.4478    0.0000 C   0  0  0  0  0  0  0  0  0  0  0  0
    1.4719   -0.5291    0.0000 N   0  0  0  0  0  0  0  0  0  0  0  0
   -0.7727    1.6094    0.0000 C   0  0  0  0  0  0  0  0  0  0  0  0
   -1.0122    0.8199    0.0000 C   0  0  0  0  0  0  0  0  0  0  0  0
    0.6936    2.9485    0.0000 O   0  0  0  0  0  0  0  0  0  0  0  0
    2.7542    1.2373    0.0000 C   0  0  0  0  0  0  0  0  0  0  0  0
    0.6685   -0.7165    0.0000 C   0  0  0  0  0  0  0  0  0  0  0  0
    0.4290   -1.5060    0.0000 N   0  0  0  0  0  0  0  0  0  0  0  0
    0.1044   -0.1144    0.0000 O   0  0  0  0  0  0  0  0  0  0  0  0
   -0.3744   -1.6934    0.0000 C   0  0  0  0  0  0  0  0  0  0  0  0
   -0.6138   -2.4829    0.0000 C   0  0  0  0  0  0  0  0  0  0  0  0
   -0.9384   -1.0913    0.0000 N   0  0  0  0  0  0  0  0  0  0  0  0
   -1.4173   -2.6703    0.0000 C   0  0  0  0  0  0  0  0  0  0  0  0
   -1.7418   -1.2787    0.0000 C   0  0  0  0  0  0  0  0  0  0  0  0
   -1.9813   -2.0682    0.0000 C   0  0  0  0  0  0  0  0  0  0  0  0
    0.5138    0.2945    0.0000 H   0  0  0  0  0  0  0  0  0  0  0  0
   -0.3142   -0.7216    0.0000 H   0  0  0  0  0  0  0  0  0  0  0  0
   -1.2789   -0.1563    0.0000 H   0  0  0  0  0  0  0  0  0  0  0  0
    2.4897    2.8270    0.0000 H   0  0  0  0  0  0  0  0  0  0  0  0
    3.2202   -0.3054    0.0000 H   0  0  0  0  0  0  0  0  0  0  0  0
    2.1450   -1.2476    0.0000 H   0  0  0  0  0  0  0  0  0  0  0  0
   -1.4186    2.4625    0.0000 H   0  0  0  0  0  0  0  0  0  0  0  0
   -1.8260    1.4213    0.0000 H   0  0  0  0  0  0  0  0  0  0  0  0
   -2.0231    0.4693    0.0000 H   0  0  0  0  0  0  0  0  0  0  0  0
   -1.7835    1.5615    0.0000 H   0  0  0  0  0  0  0  0  0  0  0  0
    3.7592    1.4717    0.0000 H   0  0  0  0  0  0  0  0  0  0  0  0
    1.1020   -2.2245    0.0000 H   0  0  0  0  0  0  0  0  0  0  0  0
    0.0917   -3.2361    0.0000 H   0  0  0  0  0  0  0  0  0  0  0  0
   -1.7168   -3.6579    0.0000 H   0  0  0  0  0  0  0  0  0  0  0  0
   -2.4473   -0.5255    0.0000 H   0  0  0  0  0  0  0  0  0  0  0  0
   -2.9863   -2.3026    0.0000 H   0  0  0  0  0  0  0  0  0  0  0  0
  1  2  1  0  0  0  0
  1  3  2  0  0  0  0
  1  6  1  0  0  0  0
  2  5  1  0  0  0  0
  2  7  1  0  0  0  0
  2 24  1  6  0  0  0
  3  4  1  0  0  0  0
  3  8  1  0  0  0  0
  4  7  1  0  0  0  0
  4 13  2  0  0  0  0
  5 12  1  0  0  0  0
  5 25  1  0  0  0  0
  5 26  1  0  0  0  0
  6  9  2  0  0  0  0
  6 10  1  0  0  0  0
  7 11  1  0  0  0  0
  8 14  2  0  0  0  0
  8 27  1  0  0  0  0
  9 14  1  0  0  0  0
  9 28  1  0  0  0  0
 10 15  1  0  0  0  0
 10 29  1  0  0  0  0
 11 12  1  0  0  0  0
 11 30  1  0  0  0  0
 11 31  1  0  0  0  0
 12 32  1  0  0  0  0
 12 33  1  0  0  0  0
 14 34  1  0  0  0  0
 15 16  1  0  0  0  0
 15 17  2  0  0  0  0
 16 18  1  0  0  0  0
 16 35  1  0  0  0  0
 18 19  2  0  0  0  0
 18 20  1  0  0  0  0
 19 21  1  0  0  0  0
 19 36  1  0  0  0  0
 20 22  2  0  0  0  0
 21 23  2  0  0  0  0
 21 37  1  0  0  0  0
 22 23  1  0  0  0  0
 22 38  1  0  0  0  0
 23 39  1  0  0  0  0
M  END
>  <DRUGBANK_ID>
DB04186

>  <SECONDARY_ACCESSION_NUMBERS>
EXPT00083

>  <COMMON_NAME>
N'-(Pyrrolidino[2,1-B]Isoindolin-4-On-8-Yl)-N-(Pyridin-2-Yl)Urea

$$$$
