
 OpenBabel10282417072D

124126  0  0  0  0  0  0  0  0999 V2000
   -1.3982   -0.8151    0.0000 O   0  0  0  0  0  0  0  0  0  0  0  0
   -1.3982   -1.6396    0.0000 C   0  0  2  0  0  0  0  0  0  0  0  0
   -2.2043   -0.3509    0.0000 C   0  0  1  0  0  0  0  0  0  0  0  0
   -0.1483   -1.6396    0.0000 C   0  0  1  0  0  0  0  0  0  0  0  0
   -2.2819   -2.5234    0.0000 C   0  0  1  0  0  0  0  0  0  0  0  0
   -2.9162   -0.7621    0.0000 C   0  0  2  0  0  0  0  0  0  0  0  0
   -2.2043    0.4735    0.0000 O   0  0  0  0  0  0  0  0  0  0  0  0
   -0.1483   -0.6474    0.0000 O   0  0  0  0  0  0  0  0  0  0  0  0
    0.7354   -2.5234    0.0000 C   0  0  2  0  0  0  0  0  0  0  0  0
   -2.9959   -2.1101    0.0000 C   0  0  0  0  0  0  0  0  0  0  0  0
   -2.2819   -3.7712    0.0000 C   0  0  0  0  0  0  0  0  0  0  0  0
   -2.9162   -1.5865    0.0000 O   0  0  0  0  0  0  0  0  0  0  0  0
   -3.6322   -0.3509    0.0000 C   0  0  1  0  0  0  0  0  0  0  0  0
   -2.9162    0.8867    0.0000 C   0  0  1  0  0  0  0  0  0  0  0  0
   -0.8623   -0.2342    0.0000 C   0  0  0  0  0  0  0  0  0  0  0  0
    0.8192   -1.5619    0.0000 O   0  0  0  0  0  0  0  0  0  0  0  0
    1.8155   -1.8974    0.0000 C   0  0  0  0  0  0  0  0  0  0  0  0
   -3.7099   -2.5234    0.0000 C   0  0  0  0  0  0  0  0  0  0  0  0
   -1.3982   -4.6551    0.0000 C   0  0  1  0  0  0  0  0  0  0  0  0
   -4.3462   -0.7621    0.0000 N   0  0  0  0  0  0  0  0  0  0  0  0
   -3.6322    0.4735    0.0000 C   0  0  1  0  0  0  0  0  0  0  0  0
   -2.9162    1.7111    0.0000 C   0  0  0  0  0  0  0  0  0  0  0  0
    1.5311   -1.1486    0.0000 C   0  0  0  0  0  0  0  0  0  0  0  0
    2.8977   -2.5234    0.0000 C   0  0  0  0  0  0  0  0  0  0  0  0
   -4.4238   -2.1101    0.0000 O   0  0  0  0  0  0  0  0  0  0  0  0
   -1.7194   -5.4159    0.0000 C   0  0  0  0  0  0  0  0  0  0  0  0
   -0.1483   -4.6551    0.0000 C   0  0  1  0  0  0  0  0  0  0  0  0
   -5.0601   -0.3509    0.0000 C   0  0  0  0  0  0  0  0  0  0  0  0
   -4.3462   -1.5865    0.0000 C   0  0  0  0  0  0  0  0  0  0  0  0
   -4.3441    0.8867    0.0000 O   0  0  0  0  0  0  0  0  0  0  0  0
    2.2451   -1.5619    0.0000 C   0  0  0  0  0  0  0  0  0  0  0  0
    1.5311   -0.3242    0.0000 O   0  0  0  0  0  0  0  0  0  0  0  0
    2.8977   -1.6990    0.0000 O   0  0  0  0  0  0  0  0  0  0  0  0
    3.9778   -1.8974    0.0000 O   0  0  0  0  0  0  0  0  0  0  0  0
    0.1605   -5.4200    0.0000 O   0  0  0  0  0  0  0  0  0  0  0  0
    0.7354   -3.7712    0.0000 C   0  0  0  0  0  0  0  0  0  0  0  0
   -4.3441    1.7111    0.0000 C   0  0  1  0  0  0  0  0  0  0  0  0
    2.9508   -1.1384    0.0000 C   0  0  0  0  0  0  0  0  0  0  0  0
    5.0580   -2.5234    0.0000 C   0  0  2  0  0  0  0  0  0  0  0  0
    1.8155   -4.3952    0.0000 C   0  0  0  0  0  0  0  0  0  0  0  0
   -3.6322    2.1223    0.0000 C   0  0  0  0  0  0  0  0  0  0  0  0
   -5.0580    2.1223    0.0000 O   0  0  0  0  0  0  0  0  0  0  0  0
    5.7720   -2.1101    0.0000 C   0  0  0  0  0  0  0  0  0  0  0  0
    5.0580   -3.7712    0.0000 C   0  0  0  0  0  0  0  0  0  0  0  0
    2.8977   -3.7712    0.0000 C   0  0  0  0  0  0  0  0  0  0  0  0
   -3.6302    2.9467    0.0000 C   0  0  1  0  0  0  0  0  0  0  0  0
   -5.0580    2.9467    0.0000 C   0  0  2  0  0  0  0  0  0  0  0  0
    3.9778   -4.3952    0.0000 C   0  0  0  0  0  0  0  0  0  0  0  0
   -2.9162    2.5356    0.0000 C   0  0  0  0  0  0  0  0  0  0  0  0
   -3.2190    3.6607    0.0000 O   0  0  0  0  0  0  0  0  0  0  0  0
   -4.3441    3.3600    0.0000 C   0  0  2  0  0  0  0  0  0  0  0  0
   -5.7720    3.3580    0.0000 C   0  0  0  0  0  0  0  0  0  0  0  0
   -4.3441    4.1844    0.0000 O   0  0  0  0  0  0  0  0  0  0  0  0
   -3.6302    4.5956    0.0000 C   0  0  0  0  0  0  0  0  0  0  0  0
   -2.9223    4.1722    0.0000 C   0  0  0  0  0  0  0  0  0  0  0  0
   -3.6302    5.4200    0.0000 O   0  0  0  0  0  0  0  0  0  0  0  0
   -2.2084    4.5833    0.0000 C   0  0  0  0  0  0  0  0  0  0  0  0
   -2.2043   -1.1753    0.0000 H   0  0  0  0  0  0  0  0  0  0  0  0
   -5.0519    1.2856    0.0000 H   0  0  0  0  0  0  0  0  0  0  0  0
    0.7354   -3.3171    0.0000 H   0  0  0  0  0  0  0  0  0  0  0  0
   -0.6416   -0.8830    0.0000 H   0  0  0  0  0  0  0  0  0  0  0  0
   -0.9049   -0.8830    0.0000 H   0  0  0  0  0  0  0  0  0  0  0  0
   -2.4210   -1.4625    0.0000 H   0  0  0  0  0  0  0  0  0  0  0  0
   -1.9895   -1.2970    0.0000 H   0  0  0  0  0  0  0  0  0  0  0  0
   -2.9959   -1.0401    0.0000 H   0  0  0  0  0  0  0  0  0  0  0  0
   -3.9228   -1.5756    0.0000 H   0  0  0  0  0  0  0  0  0  0  0  0
   -3.2705   -4.1806    0.0000 H   0  0  0  0  0  0  0  0  0  0  0  0
   -2.4907   -4.8206    0.0000 H   0  0  0  0  0  0  0  0  0  0  0  0
   -3.7562   -2.0715    0.0000 H   0  0  0  0  0  0  0  0  0  0  0  0
   -3.6316   -1.4209    0.0000 H   0  0  0  0  0  0  0  0  0  0  0  0
   -1.9889    1.4206    0.0000 H   0  0  0  0  0  0  0  0  0  0  0  0
   -0.8612    0.8358    0.0000 H   0  0  0  0  0  0  0  0  0  0  0  0
   -1.7895   -0.7683    0.0000 H   0  0  0  0  0  0  0  0  0  0  0  0
   -1.7884    0.3017    0.0000 H   0  0  0  0  0  0  0  0  0  0  0  0
    1.8150   -0.8274    0.0000 H   0  0  0  0  0  0  0  0  0  0  0  0
    2.7423   -1.3626    0.0000 H   0  0  0  0  0  0  0  0  0  0  0  0
   -3.7099   -3.5554    0.0000 H   0  0  0  0  0  0  0  0  0  0  0  0
   -2.4484   -4.8602    0.0000 H   0  0  0  0  0  0  0  0  0  0  0  0
   -4.5595   -0.0604    0.0000 H   0  0  0  0  0  0  0  0  0  0  0  0
   -1.9896    2.2461    0.0000 H   0  0  0  0  0  0  0  0  0  0  0  0
   -3.8428    2.2461    0.0000 H   0  0  0  0  0  0  0  0  0  0  0  0
   -2.9162    2.7811    0.0000 H   0  0  0  0  0  0  0  0  0  0  0  0
   -2.7812   -5.5484    0.0000 H   0  0  0  0  0  0  0  0  0  0  0  0
   -1.0738   -6.2692    0.0000 H   0  0  0  0  0  0  0  0  0  0  0  0
   -2.1356   -6.4016    0.0000 H   0  0  0  0  0  0  0  0  0  0  0  0
   -0.7468   -5.5421    0.0000 H   0  0  0  0  0  0  0  0  0  0  0  0
   -5.0612    0.7191    0.0000 H   0  0  0  0  0  0  0  0  0  0  0  0
   -5.9862   -0.8868    0.0000 H   0  0  0  0  0  0  0  0  0  0  0  0
   -5.9873    0.1832    0.0000 H   0  0  0  0  0  0  0  0  0  0  0  0
   -5.2728   -2.1215    0.0000 H   0  0  0  0  0  0  0  0  0  0  0  0
   -3.4196   -2.1215    0.0000 H   0  0  0  0  0  0  0  0  0  0  0  0
   -4.3462   -2.6565    0.0000 H   0  0  0  0  0  0  0  0  0  0  0  0
    2.2535   -2.6319    0.0000 H   0  0  0  0  0  0  0  0  0  0  0  0
    3.1783   -2.0854    0.0000 H   0  0  0  0  0  0  0  0  0  0  0  0
   -0.4369   -6.1842    0.0000 H   0  0  0  0  0  0  0  0  0  0  0  0
    0.6008   -2.7480    0.0000 H   0  0  0  0  0  0  0  0  0  0  0  0
    3.8864   -1.6577    0.0000 H   0  0  0  0  0  0  0  0  0  0  0  0
    2.9327   -0.0686    0.0000 H   0  0  0  0  0  0  0  0  0  0  0  0
    3.8683   -0.5878    0.0000 H   0  0  0  0  0  0  0  0  0  0  0  0
    5.0583   -1.4534    0.0000 H   0  0  0  0  0  0  0  0  0  0  0  0
    1.8151   -5.4272    0.0000 H   0  0  0  0  0  0  0  0  0  0  0  0
   -2.7062    1.5863    0.0000 H   0  0  0  0  0  0  0  0  0  0  0  0
   -2.7046    2.6557    0.0000 H   0  0  0  0  0  0  0  0  0  0  0  0
    6.6992   -2.6441    0.0000 H   0  0  0  0  0  0  0  0  0  0  0  0
    5.7708   -1.0401    0.0000 H   0  0  0  0  0  0  0  0  0  0  0  0
    6.6980   -1.5741    0.0000 H   0  0  0  0  0  0  0  0  0  0  0  0
    5.9847   -4.3061    0.0000 H   0  0  0  0  0  0  0  0  0  0  0  0
    5.0582   -4.8412    0.0000 H   0  0  0  0  0  0  0  0  0  0  0  0
    2.8981   -2.7392    0.0000 H   0  0  0  0  0  0  0  0  0  0  0  0
   -5.9844    2.4112    0.0000 H   0  0  0  0  0  0  0  0  0  0  0  0
    3.9778   -5.4272    0.0000 H   0  0  0  0  0  0  0  0  0  0  0  0
   -2.9149    1.4656    0.0000 H   0  0  0  0  0  0  0  0  0  0  0  0
   -1.9902    3.0717    0.0000 H   0  0  0  0  0  0  0  0  0  0  0  0
   -1.9889    2.0017    0.0000 H   0  0  0  0  0  0  0  0  0  0  0  0
   -2.2490    3.6617    0.0000 H   0  0  0  0  0  0  0  0  0  0  0  0
   -3.4171    3.8945    0.0000 H   0  0  0  0  0  0  0  0  0  0  0  0
   -5.7730    4.4280    0.0000 H   0  0  0  0  0  0  0  0  0  0  0  0
   -6.6981    2.8221    0.0000 H   0  0  0  0  0  0  0  0  0  0  0  0
   -6.6992    3.8921    0.0000 H   0  0  0  0  0  0  0  0  0  0  0  0
   -2.9312    3.1022    0.0000 H   0  0  0  0  0  0  0  0  0  0  0  0
   -1.9982    3.6328    0.0000 H   0  0  0  0  0  0  0  0  0  0  0  0
   -1.2824    4.0473    0.0000 H   0  0  0  0  0  0  0  0  0  0  0  0
   -2.2072    5.6533    0.0000 H   0  0  0  0  0  0  0  0  0  0  0  0
   -1.2812    5.1173    0.0000 H   0  0  0  0  0  0  0  0  0  0  0  0
  2  1  1  0  0  0  0
  2  5  1  0  0  0  0
  2 61  1  1  0  0  0
  3  1  1  0  0  0  0
  3  7  1  0  0  0  0
  3 58  1  6  0  0  0
  4  2  1  0  0  0  0
  4  8  1  0  0  0  0
  4 62  1  6  0  0  0
  5 10  1  0  0  0  0
  5 11  1  0  0  0  0
  5 63  1  1  0  0  0
  6  3  1  0  0  0  0
  6 12  1  0  0  0  0
  6 64  1  1  0  0  0
  8 15  1  0  0  0  0
  9  4  1  0  0  0  0
  9 16  1  0  0  0  0
  9 17  1  0  0  0  0
  9 60  1  1  0  0  0
 10 18  1  0  0  0  0
 10 65  1  0  0  0  0
 10 66  1  0  0  0  0
 11 67  1  0  0  0  0
 11 68  1  0  0  0  0
 12 69  1  0  0  0  0
 13  6  1  0  0  0  0
 13 20  1  0  0  0  0
 13 70  1  6  0  0  0
 14  7  1  0  0  0  0
 14 22  1  0  0  0  0
 14 71  1  6  0  0  0
 15 72  1  0  0  0  0
 15 73  1  0  0  0  0
 15 74  1  0  0  0  0
 16 23  1  0  0  0  0
 17 24  1  0  0  0  0
 17 75  1  0  0  0  0
 17 76  1  0  0  0  0
 18 25  2  0  0  0  0
 18 77  1  0  0  0  0
 19 11  1  0  0  0  0
 19 26  1  0  0  0  0
 19 78  1  1  0  0  0
 20 28  1  0  0  0  0
 20 29  1  0  0  0  0
 21 13  1  0  0  0  0
 21 14  1  0  0  0  0
 21 30  1  0  0  0  0
 21 79  1  1  0  0  0
 22 80  1  0  0  0  0
 22 81  1  0  0  0  0
 22 82  1  0  0  0  0
 23 31  1  0  0  0  0
 23 32  2  0  0  0  0
 24 33  2  0  0  0  0
 24 34  1  0  0  0  0
 26 83  1  0  0  0  0
 26 84  1  0  0  0  0
 26 85  1  0  0  0  0
 27 19  1  0  0  0  0
 27 35  1  0  0  0  0
 27 36  1  0  0  0  0
 27 86  1  1  0  0  0
 28 87  1  0  0  0  0
 28 88  1  0  0  0  0
 28 89  1  0  0  0  0
 29 90  1  0  0  0  0
 29 91  1  0  0  0  0
 29 92  1  0  0  0  0
 31 38  1  0  0  0  0
 31 93  1  0  0  0  0
 31 94  1  0  0  0  0
 35 95  1  0  0  0  0
 36 40  2  0  0  0  0
 36 96  1  0  0  0  0
 37 30  1  0  0  0  0
 37 41  1  0  0  0  0
 37 42  1  0  0  0  0
 37 59  1  1  0  0  0
 38 97  1  0  0  0  0
 38 98  1  0  0  0  0
 38 99  1  0  0  0  0
 39 34  1  0  0  0  0
 39 43  1  0  0  0  0
 39 44  1  0  0  0  0
 39100  1  1  0  0  0
 40 45  1  0  0  0  0
 40101  1  0  0  0  0
 41102  1  0  0  0  0
 41103  1  0  0  0  0
 43104  1  0  0  0  0
 43105  1  0  0  0  0
 43106  1  0  0  0  0
 44 48  1  0  0  0  0
 44107  1  0  0  0  0
 44108  1  0  0  0  0
 45 48  2  0  0  0  0
 45109  1  0  0  0  0
 46 41  1  0  0  0  0
 46 49  1  0  0  0  0
 46 50  1  6  0  0  0
 47 42  1  0  0  0  0
 47 52  1  0  0  0  0
 47110  1  6  0  0  0
 48111  1  0  0  0  0
 49112  1  0  0  0  0
 49113  1  0  0  0  0
 49114  1  0  0  0  0
 50115  1  0  0  0  0
 51 46  1  0  0  0  0
 51 47  1  0  0  0  0
 51 53  1  0  0  0  0
 51116  1  1  0  0  0
 52117  1  0  0  0  0
 52118  1  0  0  0  0
 52119  1  0  0  0  0
 53 54  1  0  0  0  0
 54 55  1  0  0  0  0
 54 56  2  0  0  0  0
 55 57  1  0  0  0  0
 55120  1  0  0  0  0
 55121  1  0  0  0  0
 57122  1  0  0  0  0
 57123  1  0  0  0  0
 57124  1  0  0  0  0
M  END
>  <DRUGBANK_ID>
DB13456

>  <COMMON_NAME>
Midecamycin

>  <CAS_NUMBER>
35457-80-8

>  <UNII>
N34Z0Y5UH7

>  <SYNONYMS>
Espinomycin A; Medecamycin A1; Medemycin A1; Midecamycin; Midecamycin A1; Momicine; Mydecamycin A1; Platenomycin B1; Rubimycin; Turimycin P3

$$$$
