NDH
 OpenBabel10282417072D

 22 23  0  0  0  0  0  0  0  0999 V2000
   -0.4602    1.4532    0.0000 O   0  0  0  0  0  0  0  0  0  0  0  0
   -0.4602    0.6282    0.0000 C   0  0  1  0  0  0  0  0  0  0  0  0
   -1.1747    0.2157    0.0000 C   0  0  1  0  0  0  0  0  0  0  0  0
   -1.8891    0.6282    0.0000 O   0  0  0  0  0  0  0  0  0  0  0  0
   -1.1747   -0.6093    0.0000 C   0  0  0  0  0  0  0  0  0  0  0  0
   -0.4602   -1.0218    0.0000 C   0  0  0  0  0  0  0  0  0  0  0  0
    0.2543   -0.6093    0.0000 C   0  0  0  0  0  0  0  0  0  0  0  0
    0.2543    0.2157    0.0000 C   0  0  0  0  0  0  0  0  0  0  0  0
    0.9687    0.6282    0.0000 C   0  0  0  0  0  0  0  0  0  0  0  0
    0.9687   -1.0218    0.0000 C   0  0  0  0  0  0  0  0  0  0  0  0
    1.6832   -0.6093    0.0000 C   0  0  0  0  0  0  0  0  0  0  0  0
    1.6832    0.2157    0.0000 C   0  0  0  0  0  0  0  0  0  0  0  0
   -1.0353    0.7296    0.0000 H   0  0  0  0  0  0  0  0  0  0  0  0
   -1.3744    0.7644    0.0000 H   0  0  0  0  0  0  0  0  0  0  0  0
    0.3798    1.9382    0.0000 H   0  0  0  0  0  0  0  0  0  0  0  0
   -1.8891    1.5982    0.0000 H   0  0  0  0  0  0  0  0  0  0  0  0
   -2.0684   -1.1253    0.0000 H   0  0  0  0  0  0  0  0  0  0  0  0
   -0.4602   -2.0538    0.0000 H   0  0  0  0  0  0  0  0  0  0  0  0
    0.9687    1.6602    0.0000 H   0  0  0  0  0  0  0  0  0  0  0  0
    0.9687   -2.0538    0.0000 H   0  0  0  0  0  0  0  0  0  0  0  0
    2.5769   -1.1253    0.0000 H   0  0  0  0  0  0  0  0  0  0  0  0
    2.5769    0.7317    0.0000 H   0  0  0  0  0  0  0  0  0  0  0  0
  1 15  1  0  0  0  0
  2  1  1  0  0  0  0
  2  3  1  0  0  0  0
  2  8  1  0  0  0  0
  2 13  1  1  0  0  0
  3  4  1  0  0  0  0
  3  5  1  0  0  0  0
  3 14  1  1  0  0  0
  4 16  1  0  0  0  0
  5  6  2  0  0  0  0
  5 17  1  0  0  0  0
  6  7  1  0  0  0  0
  6 18  1  0  0  0  0
  7  8  2  0  0  0  0
  7 10  1  0  0  0  0
  8  9  1  0  0  0  0
  9 12  2  0  0  0  0
  9 19  1  0  0  0  0
 10 11  2  0  0  0  0
 10 20  1  0  0  0  0
 11 12  1  0  0  0  0
 11 21  1  0  0  0  0
 12 22  1  0  0  0  0
M  END
>  <DRUGBANK_ID>
DB08264

>  <COMMON_NAME>
(1R, 2S)-cis 1,2 dihydroxy-1,2-dihydronaphthalene

>  <UNII>
E8MH7SV5YM

$$$$
