
 OpenBabel10282417072D

 74 76  0  0  0  0  0  0  0  0999 V2000
   -0.1965    0.0970    0.0000 C   0  0  1  0  0  0  0  0  0  0  0  0
    0.5169    1.3347    0.0000 C   0  0  2  0  0  0  0  0  0  0  0  0
    0.5169    0.5144    0.0000 C   0  0  2  0  0  0  0  0  0  0  0  0
   -1.3176   -1.8589    0.0000 C   0  0  1  0  0  0  0  0  0  0  0  0
   -0.9052   -1.1454    0.0000 C   0  0  1  0  0  0  0  0  0  0  0  0
   -2.1427   -1.8589    0.0000 C   0  0  2  0  0  0  0  0  0  0  0  0
   -0.1965   -0.7231    0.0000 O   0  0  0  0  0  0  0  0  0  0  0  0
    1.2352    1.7472    0.0000 O   0  0  0  0  0  0  0  0  0  0  0  0
    1.9485    1.3347    0.0000 C   0  0  1  0  0  0  0  0  0  0  0  0
   -2.5552   -1.1454    0.0000 C   0  0  2  0  0  0  0  0  0  0  0  0
    1.9485    0.5144    0.0000 O   0  0  0  0  0  0  0  0  0  0  0  0
   -0.9099    0.5144    0.0000 C   0  0  1  0  0  0  0  0  0  0  0  0
   -0.1965    1.7520    0.0000 C   0  0  2  0  0  0  0  0  0  0  0  0
   -1.3176   -0.4319    0.0000 O   0  0  0  0  0  0  0  0  0  0  0  0
   -0.9099    1.3347    0.0000 C   0  0  0  0  0  0  0  0  0  0  0  0
    2.6620    0.0970    0.0000 C   0  0  0  0  0  0  0  0  0  0  0  0
   -2.1427   -0.4319    0.0000 C   0  0  0  0  0  0  0  0  0  0  0  0
    3.3755    0.5144    0.0000 C   0  0  0  0  0  0  0  0  0  0  0  0
    2.6620    1.7520    0.0000 C   0  0  1  0  0  0  0  0  0  0  0  0
    3.3755    1.3347    0.0000 C   0  0  0  0  0  0  0  0  0  0  0  0
   -2.5505   -2.5722    0.0000 N   0  0  0  0  0  0  0  0  0  0  0  0
   -0.9052   -2.5722    0.0000 O   0  0  0  0  0  0  0  0  0  0  0  0
    1.2352    0.1019    0.0000 O   0  0  0  0  0  0  0  0  0  0  0  0
   -1.6233    0.1019    0.0000 N   0  0  0  0  0  0  0  0  0  0  0  0
   -0.1965    2.5722    0.0000 N   0  0  0  0  0  0  0  0  0  0  0  0
   -3.2785   -1.5530    0.0000 O   0  0  0  0  0  0  0  0  0  0  0  0
    2.6620    2.5722    0.0000 N   0  0  0  0  0  0  0  0  0  0  0  0
    1.9438   -1.1405    0.0000 N   0  0  0  0  0  0  0  0  0  0  0  0
   -3.2785   -0.7328    0.0000 C   0  0  0  0  0  0  0  0  0  0  0  0
    2.6620   -0.7231    0.0000 C   0  0  0  0  0  0  0  0  0  0  0  0
   -2.3368    0.5144    0.0000 C   0  0  0  0  0  0  0  0  0  0  0  0
   -3.3755   -2.5722    0.0000 C   0  0  0  0  0  0  0  0  0  0  0  0
   -3.0503    0.1019    0.0000 C   0  0  0  0  0  0  0  0  0  0  0  0
    0.7317   -0.4353    0.0000 H   0  0  0  0  0  0  0  0  0  0  0  0
    1.4429    0.7986    0.0000 H   0  0  0  0  0  0  0  0  0  0  0  0
    1.4429    1.0505    0.0000 H   0  0  0  0  0  0  0  0  0  0  0  0
   -0.2476   -1.8588    0.0000 H   0  0  0  0  0  0  0  0  0  0  0  0
   -0.1436   -1.8970    0.0000 H   0  0  0  0  0  0  0  0  0  0  0  0
   -1.6057   -2.7844    0.0000 H   0  0  0  0  0  0  0  0  0  0  0  0
    1.0217    0.8000    0.0000 H   0  0  0  0  0  0  0  0  0  0  0  0
   -0.9126   -0.5556    0.0000 H   0  0  0  0  0  0  0  0  0  0  0  0
    0.7317    2.2844    0.0000 H   0  0  0  0  0  0  0  0  0  0  0  0
   -1.8381    1.8671    0.0000 H   0  0  0  0  0  0  0  0  0  0  0  0
   -0.9145    2.4047    0.0000 H   0  0  0  0  0  0  0  0  0  0  0  0
   -2.6774    0.4949    0.0000 H   0  0  0  0  0  0  0  0  0  0  0  0
   -1.6076    0.4947    0.0000 H   0  0  0  0  0  0  0  0  0  0  0  0
    4.2707    0.0010    0.0000 H   0  0  0  0  0  0  0  0  0  0  0  0
    1.7339    2.2844    0.0000 H   0  0  0  0  0  0  0  0  0  0  0  0
    4.3036    1.8671    0.0000 H   0  0  0  0  0  0  0  0  0  0  0  0
    4.3014    0.7984    0.0000 H   0  0  0  0  0  0  0  0  0  0  0  0
   -2.0386   -3.4545    0.0000 H   0  0  0  0  0  0  0  0  0  0  0  0
   -1.3897   -3.4125    0.0000 H   0  0  0  0  0  0  0  0  0  0  0  0
    1.2374   -0.8681    0.0000 H   0  0  0  0  0  0  0  0  0  0  0  0
   -1.6233   -0.9181    0.0000 H   0  0  0  0  0  0  0  0  0  0  0  0
    0.6868    3.0822    0.0000 H   0  0  0  0  0  0  0  0  0  0  0  0
   -1.0798    3.0822    0.0000 H   0  0  0  0  0  0  0  0  0  0  0  0
   -4.1134   -1.0593    0.0000 H   0  0  0  0  0  0  0  0  0  0  0  0
    3.5453    3.0822    0.0000 H   0  0  0  0  0  0  0  0  0  0  0  0
    1.7787    3.0822    0.0000 H   0  0  0  0  0  0  0  0  0  0  0  0
    1.0590   -0.6330    0.0000 H   0  0  0  0  0  0  0  0  0  0  0  0
    1.9467   -2.1605    0.0000 H   0  0  0  0  0  0  0  0  0  0  0  0
   -3.2841    0.3372    0.0000 H   0  0  0  0  0  0  0  0  0  0  0  0
   -4.2024   -1.2726    0.0000 H   0  0  0  0  0  0  0  0  0  0  0  0
   -4.2079   -0.2026    0.0000 H   0  0  0  0  0  0  0  0  0  0  0  0
    3.5894   -1.2568    0.0000 H   0  0  0  0  0  0  0  0  0  0  0  0
    3.5883   -0.1874    0.0000 H   0  0  0  0  0  0  0  0  0  0  0  0
   -2.3368    1.5844    0.0000 H   0  0  0  0  0  0  0  0  0  0  0  0
   -3.2636    1.0491    0.0000 H   0  0  0  0  0  0  0  0  0  0  0  0
   -3.9105   -1.6456    0.0000 H   0  0  0  0  0  0  0  0  0  0  0  0
   -3.9105   -3.4988    0.0000 H   0  0  0  0  0  0  0  0  0  0  0  0
   -4.4455   -2.5722    0.0000 H   0  0  0  0  0  0  0  0  0  0  0  0
   -3.9773    0.6364    0.0000 H   0  0  0  0  0  0  0  0  0  0  0  0
   -3.0497   -0.9681    0.0000 H   0  0  0  0  0  0  0  0  0  0  0  0
   -3.9766   -0.4336    0.0000 H   0  0  0  0  0  0  0  0  0  0  0  0
  1  7  1  0  0  0  0
  1 34  1  6  0  0  0
  2  3  1  0  0  0  0
  2  8  1  0  0  0  0
  2 35  1  6  0  0  0
  3  1  1  0  0  0  0
  3 23  1  0  0  0  0
  3 36  1  1  0  0  0
  4  5  1  0  0  0  0
  4 22  1  0  0  0  0
  4 37  1  1  0  0  0
  5  7  1  0  0  0  0
  5 38  1  1  0  0  0
  6  4  1  0  0  0  0
  6 21  1  0  0  0  0
  6 39  1  6  0  0  0
  9  8  1  0  0  0  0
  9 40  1  1  0  0  0
 10 17  1  0  0  0  0
 10 26  1  1  0  0  0
 10  6  1  0  0  0  0
 11  9  1  0  0  0  0
 12  1  1  0  0  0  0
 12 24  1  0  0  0  0
 12 41  1  1  0  0  0
 13  2  1  0  0  0  0
 13 25  1  0  0  0  0
 13 15  1  0  0  0  0
 13 42  1  1  0  0  0
 14  5  1  0  0  0  0
 15 12  1  0  0  0  0
 15 43  1  0  0  0  0
 15 44  1  0  0  0  0
 16 11  1  0  0  0  0
 17 14  1  0  0  0  0
 17 45  1  0  0  0  0
 17 46  1  0  0  0  0
 18 16  2  0  0  0  0
 18 47  1  0  0  0  0
 19  9  1  0  0  0  0
 19 27  1  0  0  0  0
 19 48  1  1  0  0  0
 20 19  1  0  0  0  0
 20 18  1  0  0  0  0
 20 49  1  0  0  0  0
 20 50  1  0  0  0  0
 21 51  1  0  0  0  0
 22 52  1  0  0  0  0
 23 53  1  0  0  0  0
 24 54  1  0  0  0  0
 25 55  1  0  0  0  0
 25 56  1  0  0  0  0
 26 57  1  0  0  0  0
 27 58  1  0  0  0  0
 27 59  1  0  0  0  0
 28 30  1  0  0  0  0
 28 60  1  0  0  0  0
 28 61  1  0  0  0  0
 29 10  1  0  0  0  0
 29 62  1  0  0  0  0
 29 63  1  0  0  0  0
 29 64  1  0  0  0  0
 30 16  1  0  0  0  0
 30 65  1  0  0  0  0
 30 66  1  0  0  0  0
 31 24  1  0  0  0  0
 31 67  1  0  0  0  0
 31 68  1  0  0  0  0
 32 21  1  0  0  0  0
 32 69  1  0  0  0  0
 32 70  1  0  0  0  0
 32 71  1  0  0  0  0
 33 31  1  0  0  0  0
 33 72  1  0  0  0  0
 33 73  1  0  0  0  0
 33 74  1  0  0  0  0
M  END
>  <DRUGBANK_ID>
DB00955

>  <SECONDARY_ACCESSION_NUMBERS>
APRD00232

>  <COMMON_NAME>
Netilmicin

>  <CAS_NUMBER>
56391-56-1

>  <UNII>
4O5J85GJJB

>  <SYNONYMS>
1-N-Ethylsisomicin; Netilmicin; Netilmycin

$$$$
