
 OpenBabel10282417072D

 89 94  0  0  0  0  0  0  0  0999 V2000
    0.1850    3.2516    0.0000 O   0  0  0  0  0  0  0  0  0  0  0  0
   -0.1995    2.5212    0.0000 C   0  0  1  0  0  0  0  0  0  0  0  0
   -1.0243    2.4886    0.0000 O   0  0  0  0  0  0  0  0  0  0  0  0
   -1.4170    1.7707    0.0000 C   0  0  2  0  0  0  0  0  0  0  0  0
   -1.8982    2.4226    0.0000 C   0  0  0  0  0  0  0  0  0  0  0  0
   -2.6804    2.1719    0.0000 C   0  0  0  0  0  0  0  0  0  0  0  0
   -3.3924    2.5931    0.0000 C   0  0  0  0  0  0  0  0  0  0  0  0
   -4.1144    2.1719    0.0000 C   0  0  0  0  0  0  0  0  0  0  0  0
   -4.1144    1.3496    0.0000 C   0  0  0  0  0  0  0  0  0  0  0  0
   -3.3924    0.9285    0.0000 C   0  0  0  0  0  0  0  0  0  0  0  0
   -2.6804    1.3496    0.0000 C   0  0  0  0  0  0  0  0  0  0  0  0
   -1.8982    1.0990    0.0000 C   0  0  2  0  0  0  0  0  0  0  0  0
   -2.2120    0.3434    0.0000 C   0  0  1  0  0  0  0  0  0  0  0  0
   -1.4093    0.3984    0.0000 C   0  0  0  0  0  0  0  0  0  0  0  0
   -1.0489    0.9514    0.0000 O   0  0  0  0  0  0  0  0  0  0  0  0
   -1.1287   -0.3773    0.0000 C   0  0  2  0  0  0  0  0  0  0  0  0
   -1.7799   -0.8838    0.0000 N   0  0  0  0  0  0  0  0  0  0  0  0
   -2.4629   -0.4210    0.0000 C   0  0  0  0  0  0  0  0  0  0  0  0
   -0.6834   -1.0639    0.0000 C   0  0  0  0  0  0  0  0  0  0  0  0
   -1.0697   -1.7934    0.0000 C   0  0  0  0  0  0  0  0  0  0  0  0
   -0.6312   -2.4922    0.0000 C   0  0  0  0  0  0  0  0  0  0  0  0
   -1.0172   -3.2214    0.0000 C   0  0  0  0  0  0  0  0  0  0  0  0
   -1.8417   -3.2516    0.0000 C   0  0  0  0  0  0  0  0  0  0  0  0
   -2.2801   -2.5528    0.0000 C   0  0  0  0  0  0  0  0  0  0  0  0
   -1.8941   -1.8237    0.0000 C   0  0  0  0  0  0  0  0  0  0  0  0
   -0.5482    0.1990    0.0000 C   0  0  0  0  0  0  0  0  0  0  0  0
    0.2518   -0.0043    0.0000 C   0  0  2  0  0  0  0  0  0  0  0  0
    0.0223    0.8052    0.0000 O   0  0  0  0  0  0  0  0  0  0  0  0
    0.8283    0.5864    0.0000 C   0  0  1  0  0  0  0  0  0  0  0  0
    1.6283    0.3830    0.0000 N   0  0  0  0  0  0  0  0  0  0  0  0
    2.2049    0.9737    0.0000 C   0  0  0  0  0  0  0  0  0  0  0  0
    2.0261    1.6091    0.0000 O   0  0  0  0  0  0  0  0  0  0  0  0
    3.0049    0.7703    0.0000 O   0  0  0  0  0  0  0  0  0  0  0  0
    3.5814    1.3611    0.0000 C   0  0  2  0  0  0  0  0  0  0  0  0
    4.1021    1.9749    0.0000 C   0  0  0  0  0  0  0  0  0  0  0  0
    3.6443    2.6612    0.0000 O   0  0  0  0  0  0  0  0  0  0  0  0
    2.8501    2.4379    0.0000 C   0  0  0  0  0  0  0  0  0  0  0  0
    2.8171    1.6136    0.0000 C   0  0  0  0  0  0  0  0  0  0  0  0
    1.0578   -0.2231    0.0000 C   0  0  0  0  0  0  0  0  0  0  0  0
    1.8580   -0.4257    0.0000 C   0  0  0  0  0  0  0  0  0  0  0  0
    2.4332    0.1655    0.0000 C   0  0  0  0  0  0  0  0  0  0  0  0
    3.2330   -0.0369    0.0000 C   0  0  0  0  0  0  0  0  0  0  0  0
    3.4575   -0.8308    0.0000 C   0  0  0  0  0  0  0  0  0  0  0  0
    2.8822   -1.4222    0.0000 C   0  0  0  0  0  0  0  0  0  0  0  0
    2.0824   -1.2196    0.0000 C   0  0  0  0  0  0  0  0  0  0  0  0
    0.2408    1.8232    0.0000 N   0  0  0  0  0  0  0  0  0  0  0  0
   -0.4931    2.9864    0.0000 H   0  0  0  0  0  0  0  0  0  0  0  0
   -1.1460    1.2921    0.0000 H   0  0  0  0  0  0  0  0  0  0  0  0
   -1.3581    0.9954    0.0000 H   0  0  0  0  0  0  0  0  0  0  0  0
   -2.7562    0.2639    0.0000 H   0  0  0  0  0  0  0  0  0  0  0  0
   -1.7619   -1.4336    0.0000 H   0  0  0  0  0  0  0  0  0  0  0  0
    0.4007   -0.5337    0.0000 H   0  0  0  0  0  0  0  0  0  0  0  0
    0.6794    1.1158    0.0000 H   0  0  0  0  0  0  0  0  0  0  0  0
    1.7773   -0.1464    0.0000 H   0  0  0  0  0  0  0  0  0  0  0  0
    4.1144    1.2254    0.0000 H   0  0  0  0  0  0  0  0  0  0  0  0
   -0.0149    1.3363    0.0000 H   0  0  0  0  0  0  0  0  0  0  0  0
    0.7903    1.8449    0.0000 H   0  0  0  0  0  0  0  0  0  0  0  0
    1.1543    3.2895    0.0000 H   0  0  0  0  0  0  0  0  0  0  0  0
   -1.5694    3.4408    0.0000 H   0  0  0  0  0  0  0  0  0  0  0  0
   -2.6540    3.1800    0.0000 H   0  0  0  0  0  0  0  0  0  0  0  0
   -3.3893    3.6251    0.0000 H   0  0  0  0  0  0  0  0  0  0  0  0
   -5.0093    2.6859    0.0000 H   0  0  0  0  0  0  0  0  0  0  0  0
   -5.0093    0.8356    0.0000 H   0  0  0  0  0  0  0  0  0  0  0  0
   -3.3893   -0.1035    0.0000 H   0  0  0  0  0  0  0  0  0  0  0  0
   -3.4755   -0.7668    0.0000 H   0  0  0  0  0  0  0  0  0  0  0  0
   -2.6050   -1.4815    0.0000 H   0  0  0  0  0  0  0  0  0  0  0  0
    0.3856   -1.0166    0.0000 H   0  0  0  0  0  0  0  0  0  0  0  0
   -0.1114   -1.9682    0.0000 H   0  0  0  0  0  0  0  0  0  0  0  0
    0.4001   -2.4543    0.0000 H   0  0  0  0  0  0  0  0  0  0  0  0
   -0.4688   -4.0956    0.0000 H   0  0  0  0  0  0  0  0  0  0  0  0
   -2.3246   -4.1636    0.0000 H   0  0  0  0  0  0  0  0  0  0  0  0
   -3.3114   -2.5907    0.0000 H   0  0  0  0  0  0  0  0  0  0  0  0
   -2.4426   -0.9495    0.0000 H   0  0  0  0  0  0  0  0  0  0  0  0
   -0.8299    1.2312    0.0000 H   0  0  0  0  0  0  0  0  0  0  0  0
    0.2017    0.9622    0.0000 H   0  0  0  0  0  0  0  0  0  0  0  0
    0.6982    1.5009    0.0000 H   0  0  0  0  0  0  0  0  0  0  0  0
    5.1703    1.9133    0.0000 H   0  0  0  0  0  0  0  0  0  0  0  0
    4.6338    2.9034    0.0000 H   0  0  0  0  0  0  0  0  0  0  0  0
    2.0103    3.1010    0.0000 H   0  0  0  0  0  0  0  0  0  0  0  0
    1.8780    1.9907    0.0000 H   0  0  0  0  0  0  0  0  0  0  0  0
    1.9375    1.0043    0.0000 H   0  0  0  0  0  0  0  0  0  0  0  0
    1.8794    2.1289    0.0000 H   0  0  0  0  0  0  0  0  0  0  0  0
    0.3120   -0.9903    0.0000 H   0  0  0  0  0  0  0  0  0  0  0  0
    1.3492   -1.2527    0.0000 H   0  0  0  0  0  0  0  0  0  0  0  0
    2.1523    1.1585    0.0000 H   0  0  0  0  0  0  0  0  0  0  0  0
    3.9525    0.7029    0.0000 H   0  0  0  0  0  0  0  0  0  0  0  0
    4.4579   -1.0841    0.0000 H   0  0  0  0  0  0  0  0  0  0  0  0
    3.1630   -2.4153    0.0000 H   0  0  0  0  0  0  0  0  0  0  0  0
    1.3627   -1.9593    0.0000 H   0  0  0  0  0  0  0  0  0  0  0  0
  1 58  1  0  0  0  0
  2  1  1  0  0  0  0
  2  3  1  0  0  0  0
  2 46  1  0  0  0  0
  2 47  1  1  0  0  0
  4  3  1  0  0  0  0
  4  5  1  0  0  0  0
  4 48  1  6  0  0  0
  5  6  1  0  0  0  0
  5 59  1  0  0  0  0
  5 60  1  0  0  0  0
  6  7  2  0  0  0  0
  6 11  1  0  0  0  0
  7  8  1  0  0  0  0
  7 61  1  0  0  0  0
  8  9  2  0  0  0  0
  8 62  1  0  0  0  0
  9 10  1  0  0  0  0
  9 63  1  0  0  0  0
 10 11  2  0  0  0  0
 10 64  1  0  0  0  0
 12  4  1  0  0  0  0
 12 11  1  0  0  0  0
 12 13  1  0  0  0  0
 12 49  1  6  0  0  0
 13 50  1  6  0  0  0
 14 13  1  0  0  0  0
 14 15  2  0  0  0  0
 16 14  1  0  0  0  0
 16 17  1  0  0  0  0
 16 19  1  1  0  0  0
 18 13  1  0  0  0  0
 18 17  1  0  0  0  0
 18 65  1  0  0  0  0
 18 66  1  0  0  0  0
 19 20  1  0  0  0  0
 19 67  1  0  0  0  0
 19 68  1  0  0  0  0
 20 21  2  0  0  0  0
 20 25  1  0  0  0  0
 21 22  1  0  0  0  0
 21 69  1  0  0  0  0
 22 23  2  0  0  0  0
 22 70  1  0  0  0  0
 23 24  1  0  0  0  0
 23 71  1  0  0  0  0
 24 25  2  0  0  0  0
 24 72  1  0  0  0  0
 25 73  1  0  0  0  0
 26 16  1  0  0  0  0
 26 74  1  0  0  0  0
 26 75  1  0  0  0  0
 27 26  1  0  0  0  0
 27 28  1  0  0  0  0
 27 52  1  1  0  0  0
 28 76  1  0  0  0  0
 29 27  1  0  0  0  0
 29 30  1  0  0  0  0
 29 39  1  0  0  0  0
 29 53  1  6  0  0  0
 31 30  1  0  0  0  0
 31 32  2  0  0  0  0
 31 33  1  0  0  0  0
 34 33  1  0  0  0  0
 34 35  1  0  0  0  0
 34 38  1  0  0  0  0
 34 55  1  6  0  0  0
 35 36  1  0  0  0  0
 35 77  1  0  0  0  0
 35 78  1  0  0  0  0
 37 36  1  0  0  0  0
 37 38  1  0  0  0  0
 37 79  1  0  0  0  0
 37 80  1  0  0  0  0
 38 81  1  0  0  0  0
 38 82  1  0  0  0  0
 39 40  1  0  0  0  0
 39 83  1  0  0  0  0
 39 84  1  0  0  0  0
 40 41  2  0  0  0  0
 40 45  1  0  0  0  0
 41 42  1  0  0  0  0
 41 85  1  0  0  0  0
 42 43  2  0  0  0  0
 42 86  1  0  0  0  0
 43 44  1  0  0  0  0
 43 87  1  0  0  0  0
 44 45  2  0  0  0  0
 44 88  1  0  0  0  0
 45 89  1  0  0  0  0
 51 17  1  0  0  0  0
 54 30  1  0  0  0  0
 56 46  1  0  0  0  0
 57 46  1  0  0  0  0
M  END
>  <DRUGBANK_ID>
DB01824

>  <SECONDARY_ACCESSION_NUMBERS>
EXPT00182

>  <COMMON_NAME>
(3S)-Tetrahydro-3-furanyl {(2S,3S)-4-[(2S,4R)-4-{(1S,2R)-2-[(S)-amino(hydroxy)methoxy]-2,3-dihydro-1H-inden-1-yl}-2-benzyl-3-oxo-2-pyrrolidinyl]-3-hydroxy-1-phenyl-2-butanyl}carbamate

$$$$
