378
 OpenBabel10282417072D

 51 54  0  0  1  0  0  0  0  0999 V2000
    6.5848    2.1027    0.0000 O   0  0  0  0  0  0  0  0  0  0  0  0
    1.6499   -2.0649    0.0000 O   0  0  0  0  0  0  0  0  0  0  0  0
    6.0989    0.4532    0.0000 C   0  0  1  0  0  0  0  0  0  0  0  0
    6.0989   -0.3718    0.0000 C   0  0  2  0  0  0  0  0  0  0  0  0
    5.3846   -0.7843    0.0000 C   0  0  1  0  0  0  0  0  0  0  0  0
    4.6700   -0.3718    0.0000 C   0  0  1  0  0  0  0  0  0  0  0  0
    6.8795    0.7046    0.0000 C   0  0  2  0  0  0  0  0  0  0  0  0
    5.3846    0.8656    0.0000 C   0  0  0  0  0  0  0  0  0  0  0  0
    6.8795   -0.6232    0.0000 C   0  0  0  0  0  0  0  0  0  0  0  0
    4.6700    0.4532    0.0000 C   0  0  0  0  0  0  0  0  0  0  0  0
    3.9194   -0.7899    0.0000 C   0  0  1  0  0  0  0  0  0  0  0  0
    7.3609    0.0407    0.0000 C   0  0  0  0  0  0  0  0  0  0  0  0
    6.0989    1.2781    0.0000 C   0  0  0  0  0  0  0  0  0  0  0  0
    5.3978   -1.6435    0.0000 C   0  0  0  0  0  0  0  0  0  0  0  0
    3.9128   -1.6492    0.0000 C   0  0  0  0  0  0  0  0  0  0  0  0
    3.1548   -0.3246    0.0000 C   0  0  0  0  0  0  0  0  0  0  0  0
    7.1359    1.4887    0.0000 C   0  0  0  0  0  0  0  0  0  0  0  0
    3.9257    0.0350    0.0000 C   0  0  0  0  0  0  0  0  0  0  0  0
    4.6569   -2.0789    0.0000 C   0  0  0  0  0  0  0  0  0  0  0  0
    2.3728   -0.7602    0.0000 C   0  0  0  0  0  0  0  0  0  0  0  0
    3.1411   -2.1027    0.0000 C   0  0  0  0  0  0  0  0  0  0  0  0
    2.3659   -1.6552    0.0000 C   0  0  0  0  0  0  0  0  0  0  0  0
    7.9430    1.6588    0.0000 C   0  0  0  0  0  0  0  0  0  0  0  0
    6.1687   -1.0280    0.0000 H   0  0  0  0  0  0  0  0  0  0  0  0
    5.9585   -1.1098    0.0000 H   0  0  0  0  0  0  0  0  0  0  0  0
    5.2417   -0.0418    0.0000 H   0  0  0  0  0  0  0  0  0  0  0  0
    6.1246    1.4629    0.0000 H   0  0  0  0  0  0  0  0  0  0  0  0
    5.3847    1.9356    0.0000 H   0  0  0  0  0  0  0  0  0  0  0  0
    4.4580    1.4007    0.0000 H   0  0  0  0  0  0  0  0  0  0  0  0
    7.2119   -1.6402    0.0000 H   0  0  0  0  0  0  0  0  0  0  0  0
    7.9366   -0.7892    0.0000 H   0  0  0  0  0  0  0  0  0  0  0  0
    3.7434    0.9883    0.0000 H   0  0  0  0  0  0  0  0  0  0  0  0
    4.6701    1.5232    0.0000 H   0  0  0  0  0  0  0  0  0  0  0  0
    8.4309    0.0407    0.0000 H   0  0  0  0  0  0  0  0  0  0  0  0
    7.8471   -0.9124    0.0000 H   0  0  0  0  0  0  0  0  0  0  0  0
    7.0255    1.8131    0.0000 H   0  0  0  0  0  0  0  0  0  0  0  0
    5.1723    1.8131    0.0000 H   0  0  0  0  0  0  0  0  0  0  0  0
    6.0989    2.3481    0.0000 H   0  0  0  0  0  0  0  0  0  0  0  0
    6.2974   -2.1492    0.0000 H   0  0  0  0  0  0  0  0  0  0  0  0
    3.1754    0.7452    0.0000 H   0  0  0  0  0  0  0  0  0  0  0  0
    2.2375    0.2264    0.0000 H   0  0  0  0  0  0  0  0  0  0  0  0
    4.8564    0.5629    0.0000 H   0  0  0  0  0  0  0  0  0  0  0  0
    3.0032    0.5771    0.0000 H   0  0  0  0  0  0  0  0  0  0  0  0
    3.9339    1.1050    0.0000 H   0  0  0  0  0  0  0  0  0  0  0  0
    4.6608   -3.1109    0.0000 H   0  0  0  0  0  0  0  0  0  0  0  0
    1.4524   -0.2145    0.0000 H   0  0  0  0  0  0  0  0  0  0  0  0
    1.4410   -1.2863    0.0000 H   0  0  0  0  0  0  0  0  0  0  0  0
    3.1451   -3.1347    0.0000 H   0  0  0  0  0  0  0  0  0  0  0  0
    8.6576    0.8624    0.0000 H   0  0  0  0  0  0  0  0  0  0  0  0
    8.2754    2.6759    0.0000 H   0  0  0  0  0  0  0  0  0  0  0  0
    8.9900    1.8795    0.0000 H   0  0  0  0  0  0  0  0  0  0  0  0
  1 17  2  0  0  0  0
  2 22  2  0  0  0  0
  3  4  1  0  0  0  0
  3  7  1  0  0  0  0
  3  8  1  0  0  0  0
  3 13  1  1  0  0  0
  4  5  1  0  0  0  0
  4  9  1  0  0  0  0
  4 24  1  6  0  0  0
  5  6  1  0  0  0  0
  5 14  1  0  0  0  0
  5 25  1  1  0  0  0
  6 10  1  0  0  0  0
  6 11  1  0  0  0  0
  6 26  1  1  0  0  0
  7 12  1  0  0  0  0
  7 17  1  0  0  0  0
  7 27  1  6  0  0  0
  8 10  1  0  0  0  0
  8 28  1  0  0  0  0
  8 29  1  0  0  0  0
  9 12  1  0  0  0  0
  9 30  1  0  0  0  0
  9 31  1  0  0  0  0
 10 32  1  0  0  0  0
 10 33  1  0  0  0  0
 11 15  1  0  0  0  0
 11 16  1  0  0  0  0
 11 18  1  6  0  0  0
 12 34  1  0  0  0  0
 12 35  1  0  0  0  0
 13 36  1  0  0  0  0
 13 37  1  0  0  0  0
 13 38  1  0  0  0  0
 14 19  2  0  0  0  0
 14 39  1  0  0  0  0
 15 19  1  0  0  0  0
 15 21  2  0  0  0  0
 16 20  1  0  0  0  0
 16 40  1  0  0  0  0
 16 41  1  0  0  0  0
 17 23  1  0  0  0  0
 18 42  1  0  0  0  0
 18 43  1  0  0  0  0
 18 44  1  0  0  0  0
 19 45  1  0  0  0  0
 20 22  1  0  0  0  0
 20 46  1  0  0  0  0
 20 47  1  0  0  0  0
 21 22  1  0  0  0  0
 21 48  1  0  0  0  0
 23 49  1  0  0  0  0
 23 50  1  0  0  0  0
 23 51  1  0  0  0  0
M  END
>  <DRUGBANK_ID>
DB00378

>  <SECONDARY_ACCESSION_NUMBERS>
APRD00941

>  <COMMON_NAME>
Dydrogesterone

>  <CAS_NUMBER>
152-62-5

>  <UNII>
90I02KLE8K

>  <SYNONYMS>
(9β,10α)-pregna-4,6-diene-3,20-dione; 10α-Isopregnenone; 6-Dehydro-retro-progesterone; 9β,10α-pregna-4,6-diene-3,20-dione; delta(6)-Retroprogesterone; delta(sup 6)-Retroprogesterone; Didrogesterona; Didrogesterone; Dydrogesterona; Dydrogestérone; Dydrogesterone; Dydrogesteronum; Gestatron; Hydrogesterone; Hydrogestrone; Isopregnenone; Retro-6-dehydroprogesterone

$$$$
