
 OpenBabel10282417072D

 33 34  0  0  0  0  0  0  0  0999 V2000
   -3.5724    2.0625    0.0000 C   0  0  0  0  0  0  0  0  0  0  0  0
   -0.7145   -2.8875    0.0000 C   0  0  0  0  0  0  0  0  0  0  0  0
    0.0000   -2.4750    0.0000 C   0  0  0  0  0  0  0  0  0  0  0  0
   -1.4289   -2.4750    0.0000 C   0  0  0  0  0  0  0  0  0  0  0  0
    0.0000   -1.6500    0.0000 C   0  0  0  0  0  0  0  0  0  0  0  0
   -1.4289   -1.6500    0.0000 C   0  0  0  0  0  0  0  0  0  0  0  0
   -2.1434   -0.4125    0.0000 C   0  0  0  0  0  0  0  0  0  0  0  0
   -2.1434    1.2375    0.0000 C   0  0  0  0  0  0  0  0  0  0  0  0
   -0.7145   -1.2375    0.0000 C   0  0  0  0  0  0  0  0  0  0  0  0
   -1.4289   -0.0000    0.0000 C   0  0  0  0  0  0  0  0  0  0  0  0
   -1.4289    0.8250    0.0000 C   0  0  0  0  0  0  0  0  0  0  0  0
   -2.8579    0.8250    0.0000 C   0  0  0  0  0  0  0  0  0  0  0  0
   -2.8579   -0.0000    0.0000 C   0  0  0  0  0  0  0  0  0  0  0  0
   -0.7145   -0.4125    0.0000 C   0  0  0  0  0  0  0  0  0  0  0  0
   -0.7145    1.2375    0.0000 O   0  0  0  0  0  0  0  0  0  0  0  0
    0.0000   -0.0000    0.0000 O   0  0  0  0  0  0  0  0  0  0  0  0
   -4.2868   -0.8250    0.0000 O   0  0  0  0  0  0  0  0  0  0  0  0
   -3.9849    0.3020    0.0000 O   0  0  0  0  0  0  0  0  0  0  0  0
   -3.1599   -1.1270    0.0000 O   0  0  0  0  0  0  0  0  0  0  0  0
   -3.5724    1.2375    0.0000 O   0  0  0  0  0  0  0  0  0  0  0  0
   -3.5724   -0.4125    0.0000 S   0  0  0  0  0  0  0  0  0  0  0  0
   -2.6458    2.5975    0.0000 H   0  0  0  0  0  0  0  0  0  0  0  0
   -4.4990    2.5975    0.0000 H   0  0  0  0  0  0  0  0  0  0  0  0
   -3.5724    3.1325    0.0000 H   0  0  0  0  0  0  0  0  0  0  0  0
   -0.7145   -3.9195    0.0000 H   0  0  0  0  0  0  0  0  0  0  0  0
    0.8937   -2.9910    0.0000 H   0  0  0  0  0  0  0  0  0  0  0  0
   -2.3226   -2.9910    0.0000 H   0  0  0  0  0  0  0  0  0  0  0  0
    0.8937   -1.1340    0.0000 H   0  0  0  0  0  0  0  0  0  0  0  0
   -2.3226   -1.1340    0.0000 H   0  0  0  0  0  0  0  0  0  0  0  0
   -2.1434   -1.4445    0.0000 H   0  0  0  0  0  0  0  0  0  0  0  0
   -2.1434    2.2695    0.0000 H   0  0  0  0  0  0  0  0  0  0  0  0
    0.0970    0.7690    0.0000 H   0  0  0  0  0  0  0  0  0  0  0  0
   -5.1269   -0.3400    0.0000 H   0  0  0  0  0  0  0  0  0  0  0  0
  1 22  1  0  0  0  0
  1 23  1  0  0  0  0
  1 24  1  0  0  0  0
  2 25  1  0  0  0  0
  3  2  2  0  0  0  0
  3 26  1  0  0  0  0
  4  2  1  0  0  0  0
  4 27  1  0  0  0  0
  5  3  1  0  0  0  0
  5 28  1  0  0  0  0
  6  4  2  0  0  0  0
  6 29  1  0  0  0  0
  7 30  1  0  0  0  0
  8 31  1  0  0  0  0
  9  5  2  0  0  0  0
  9  6  1  0  0  0  0
 10  7  2  0  0  0  0
 11  8  2  0  0  0  0
 11 10  1  0  0  0  0
 12  8  1  0  0  0  0
 13  7  1  0  0  0  0
 13 12  2  0  0  0  0
 14  9  1  0  0  0  0
 14 10  1  0  0  0  0
 15 11  1  0  0  0  0
 15 32  1  0  0  0  0
 16 14  2  0  0  0  0
 17 33  1  0  0  0  0
 20  1  1  0  0  0  0
 20 12  1  0  0  0  0
 21 13  1  0  0  0  0
 21 17  1  0  0  0  0
 21 18  2  0  0  0  0
 21 19  2  0  0  0  0
M  END
>  <DRUGBANK_ID>
DB11185

>  <COMMON_NAME>
Sulisobenzone

>  <CAS_NUMBER>
4065-45-6

>  <UNII>
1W6L629B4K

>  <SYNONYMS>
2-benzoyl-5-methoxy-1-phenol-4-sulfonic acid; 2-hydroxy-4-methoxybenzophenone-5-sulfonic acid; 3-benzoyl-4-hydroxy-6-methoxybenzenesulfonic acid; 5-benzoyl-4-hydroxy-2-methoxybenzenesulfonic acid; Benzophenone-4; Sulfisobenzone; Sulisobenzone

$$$$
