PD7
 OpenBabel10282417072D

 59 58  0  0  0  0  0  0  0  0999 V2000
    1.9489    0.9744    0.0000 O   0  0  0  0  0  0  0  0  0  0  0  0
    1.9489    0.1494    0.0000 C   0  0  0  0  0  0  0  0  0  0  0  0
    2.6634   -0.2631    0.0000 C   0  0  0  0  0  0  0  0  0  0  0  0
    3.3779    0.1494    0.0000 C   0  0  0  0  0  0  0  0  0  0  0  0
    4.0923   -0.2631    0.0000 C   0  0  0  0  0  0  0  0  0  0  0  0
    4.8068    0.1494    0.0000 C   0  0  0  0  0  0  0  0  0  0  0  0
    5.5213   -0.2631    0.0000 C   0  0  0  0  0  0  0  0  0  0  0  0
    6.2357    0.1494    0.0000 C   0  0  0  0  0  0  0  0  0  0  0  0
    1.2344   -0.2631    0.0000 O   0  0  0  0  0  0  0  0  0  0  0  0
    0.5200    0.1494    0.0000 C   0  0  0  0  0  0  0  0  0  0  0  0
   -0.1945   -0.2631    0.0000 C   0  0  2  0  0  0  0  0  0  0  0  0
   -0.1945   -1.0881    0.0000 C   0  0  0  0  0  0  0  0  0  0  0  0
   -0.9090   -1.5006    0.0000 O   0  0  0  0  0  0  0  0  0  0  0  0
   -0.9090   -2.3256    0.0000 P   0  0  0  0  0  0  0  0  0  0  0  0
   -0.0840   -2.3256    0.0000 O   0  0  0  0  0  0  0  0  0  0  0  0
   -0.9090   -3.1506    0.0000 O   0  0  0  0  0  0  0  0  0  0  0  0
   -1.7340   -2.3256    0.0000 O   0  0  0  0  0  0  0  0  0  0  0  0
   -0.9090    0.1494    0.0000 O   0  0  0  0  0  0  0  0  0  0  0  0
   -1.6234   -0.2631    0.0000 C   0  0  0  0  0  0  0  0  0  0  0  0
   -1.6234   -1.0881    0.0000 O   0  0  0  0  0  0  0  0  0  0  0  0
   -2.3379    0.1494    0.0000 C   0  0  0  0  0  0  0  0  0  0  0  0
   -3.0524   -0.2631    0.0000 C   0  0  0  0  0  0  0  0  0  0  0  0
   -3.7668    0.1494    0.0000 C   0  0  0  0  0  0  0  0  0  0  0  0
   -4.4813   -0.2631    0.0000 C   0  0  0  0  0  0  0  0  0  0  0  0
   -5.1958    0.1494    0.0000 C   0  0  0  0  0  0  0  0  0  0  0  0
   -5.9103   -0.2631    0.0000 C   0  0  0  0  0  0  0  0  0  0  0  0
    0.3112   -0.5551    0.0000 H   0  0  0  0  0  0  0  0  0  0  0  0
    2.6634   -1.3331    0.0000 H   0  0  0  0  0  0  0  0  0  0  0  0
    3.5900   -0.7981    0.0000 H   0  0  0  0  0  0  0  0  0  0  0  0
    3.3779    1.2194    0.0000 H   0  0  0  0  0  0  0  0  0  0  0  0
    4.3046    0.6844    0.0000 H   0  0  0  0  0  0  0  0  0  0  0  0
    4.0923   -1.3331    0.0000 H   0  0  0  0  0  0  0  0  0  0  0  0
    5.0189   -0.7981    0.0000 H   0  0  0  0  0  0  0  0  0  0  0  0
    4.8068    1.2194    0.0000 H   0  0  0  0  0  0  0  0  0  0  0  0
    5.7334    0.6844    0.0000 H   0  0  0  0  0  0  0  0  0  0  0  0
    5.5213   -1.3331    0.0000 H   0  0  0  0  0  0  0  0  0  0  0  0
    6.4480   -0.7981    0.0000 H   0  0  0  0  0  0  0  0  0  0  0  0
    7.1624   -0.3856    0.0000 H   0  0  0  0  0  0  0  0  0  0  0  0
    6.2357    1.2194    0.0000 H   0  0  0  0  0  0  0  0  0  0  0  0
    7.1623    0.6844    0.0000 H   0  0  0  0  0  0  0  0  0  0  0  0
    0.5200    1.2194    0.0000 H   0  0  0  0  0  0  0  0  0  0  0  0
   -0.4066    0.6844    0.0000 H   0  0  0  0  0  0  0  0  0  0  0  0
    0.7321   -1.6231    0.0000 H   0  0  0  0  0  0  0  0  0  0  0  0
   -0.1945   -2.1581    0.0000 H   0  0  0  0  0  0  0  0  0  0  0  0
    0.4010   -3.1656    0.0000 H   0  0  0  0  0  0  0  0  0  0  0  0
   -2.2190   -1.4856    0.0000 H   0  0  0  0  0  0  0  0  0  0  0  0
   -2.3379    1.2194    0.0000 H   0  0  0  0  0  0  0  0  0  0  0  0
   -3.2645    0.6844    0.0000 H   0  0  0  0  0  0  0  0  0  0  0  0
   -3.0524   -1.3331    0.0000 H   0  0  0  0  0  0  0  0  0  0  0  0
   -3.9791   -0.7981    0.0000 H   0  0  0  0  0  0  0  0  0  0  0  0
   -3.7668    1.2194    0.0000 H   0  0  0  0  0  0  0  0  0  0  0  0
   -4.6934    0.6844    0.0000 H   0  0  0  0  0  0  0  0  0  0  0  0
   -4.4813   -1.3331    0.0000 H   0  0  0  0  0  0  0  0  0  0  0  0
   -5.4079   -0.7981    0.0000 H   0  0  0  0  0  0  0  0  0  0  0  0
   -5.1958    1.2194    0.0000 H   0  0  0  0  0  0  0  0  0  0  0  0
   -6.1224    0.6844    0.0000 H   0  0  0  0  0  0  0  0  0  0  0  0
   -6.8369    0.2719    0.0000 H   0  0  0  0  0  0  0  0  0  0  0  0
   -5.9103   -1.3331    0.0000 H   0  0  0  0  0  0  0  0  0  0  0  0
   -6.8370   -0.7981    0.0000 H   0  0  0  0  0  0  0  0  0  0  0  0
  2  1  2  0  0  0  0
  2  9  1  0  0  0  0
  3  2  1  0  0  0  0
  3 28  1  0  0  0  0
  3 29  1  0  0  0  0
  4  3  1  0  0  0  0
  4  5  1  0  0  0  0
  4 30  1  0  0  0  0
  4 31  1  0  0  0  0
  5 32  1  0  0  0  0
  5 33  1  0  0  0  0
  6  5  1  0  0  0  0
  6  7  1  0  0  0  0
  6 34  1  0  0  0  0
  6 35  1  0  0  0  0
  7 36  1  0  0  0  0
  7 37  1  0  0  0  0
  8  7  1  0  0  0  0
  8 38  1  0  0  0  0
  8 39  1  0  0  0  0
  8 40  1  0  0  0  0
  9 10  1  0  0  0  0
 10 41  1  0  0  0  0
 10 42  1  0  0  0  0
 11 10  1  0  0  0  0
 11 12  1  0  0  0  0
 11 27  1  1  0  0  0
 11 18  1  0  0  0  0
 12 13  1  0  0  0  0
 12 43  1  0  0  0  0
 12 44  1  0  0  0  0
 13 14  1  0  0  0  0
 14 17  1  0  0  0  0
 14 15  1  0  0  0  0
 15 45  1  0  0  0  0
 16 14  2  0  0  0  0
 17 46  1  0  0  0  0
 19 18  1  0  0  0  0
 20 19  2  0  0  0  0
 21 19  1  0  0  0  0
 21 47  1  0  0  0  0
 21 48  1  0  0  0  0
 22 21  1  0  0  0  0
 22 49  1  0  0  0  0
 22 50  1  0  0  0  0
 23 22  1  0  0  0  0
 23 51  1  0  0  0  0
 23 52  1  0  0  0  0
 24 23  1  0  0  0  0
 24 53  1  0  0  0  0
 24 54  1  0  0  0  0
 25 24  1  0  0  0  0
 25 55  1  0  0  0  0
 25 56  1  0  0  0  0
 26 25  1  0  0  0  0
 26 57  1  0  0  0  0
 26 58  1  0  0  0  0
 26 59  1  0  0  0  0
M  END
>  <DRUGBANK_ID>
DB08376

>  <COMMON_NAME>
(2R)-3-(phosphonooxy)propane-1,2-diyl diheptanoate

$$$$
