
 OpenBabel10282417072D

 39 38  0  0  0  0  0  0  0  0999 V2000
    1.2375    0.7145    0.0000 C   0  0  0  0  0  0  0  0  0  0  0  0
    0.5230    1.1270    0.0000 C   0  0  0  0  0  0  0  0  0  0  0  0
    1.9520    1.1270    0.0000 C   0  0  0  0  0  0  0  0  0  0  0  0
   -2.3349    1.1270    0.0000 C   0  0  0  0  0  0  0  0  0  0  0  0
   -4.4783   -0.1105    0.0000 C   0  0  0  0  0  0  0  0  0  0  0  0
   -0.1914    0.7145    0.0000 C   0  0  0  0  0  0  0  0  0  0  0  0
   -1.6204    0.7145    0.0000 C   0  0  0  0  0  0  0  0  0  0  0  0
   -3.0493    0.7145    0.0000 C   0  0  0  0  0  0  0  0  0  0  0  0
   -4.4783    0.7145    0.0000 C   0  0  0  0  0  0  0  0  0  0  0  0
    2.6664    0.7145    0.0000 C   0  0  0  0  0  0  0  0  0  0  0  0
   -5.1927   -0.5230    0.0000 C   0  0  0  0  0  0  0  0  0  0  0  0
   -0.9059    1.9520    0.0000 C   0  0  0  0  0  0  0  0  0  0  0  0
   -3.7638    1.9520    0.0000 C   0  0  0  0  0  0  0  0  0  0  0  0
   -0.9059    1.1270    0.0000 C   0  0  0  0  0  0  0  0  0  0  0  0
   -3.7638    1.1270    0.0000 C   0  0  0  0  0  0  0  0  0  0  0  0
    3.3809    1.1270    0.0000 O   0  0  0  0  0  0  0  0  0  0  0  0
   -5.1927   -1.3480    0.0000 O   0  0  0  0  0  0  0  0  0  0  0  0
   -1.6204    2.3645    0.0000 O   0  0  0  0  0  0  0  0  0  0  0  0
   -4.4783    2.3645    0.0000 O   0  0  0  0  0  0  0  0  0  0  0  0
    1.2375   -0.3555    0.0000 H   0  0  0  0  0  0  0  0  0  0  0  0
    2.1641    0.1795    0.0000 H   0  0  0  0  0  0  0  0  0  0  0  0
    0.5230    2.1970    0.0000 H   0  0  0  0  0  0  0  0  0  0  0  0
   -0.4037    1.6620    0.0000 H   0  0  0  0  0  0  0  0  0  0  0  0
    1.9520    2.1970    0.0000 H   0  0  0  0  0  0  0  0  0  0  0  0
    2.8787    1.6620    0.0000 H   0  0  0  0  0  0  0  0  0  0  0  0
   -2.3349    2.1970    0.0000 H   0  0  0  0  0  0  0  0  0  0  0  0
   -3.2616    1.6620    0.0000 H   0  0  0  0  0  0  0  0  0  0  0  0
   -3.5516   -0.6455    0.0000 H   0  0  0  0  0  0  0  0  0  0  0  0
   -4.4783   -1.1805    0.0000 H   0  0  0  0  0  0  0  0  0  0  0  0
   -0.1914   -0.3175    0.0000 H   0  0  0  0  0  0  0  0  0  0  0  0
   -1.6204   -0.3555    0.0000 H   0  0  0  0  0  0  0  0  0  0  0  0
   -0.6938    0.1795    0.0000 H   0  0  0  0  0  0  0  0  0  0  0  0
   -3.0493   -0.3175    0.0000 H   0  0  0  0  0  0  0  0  0  0  0  0
   -5.4049    1.2495    0.0000 H   0  0  0  0  0  0  0  0  0  0  0  0
   -4.4783    1.7845    0.0000 H   0  0  0  0  0  0  0  0  0  0  0  0
    2.6664   -0.3175    0.0000 H   0  0  0  0  0  0  0  0  0  0  0  0
   -6.0864   -0.0070    0.0000 H   0  0  0  0  0  0  0  0  0  0  0  0
   -0.0122    2.4680    0.0000 H   0  0  0  0  0  0  0  0  0  0  0  0
   -2.8701    2.4680    0.0000 H   0  0  0  0  0  0  0  0  0  0  0  0
  1 20  1  0  0  0  0
  1 21  1  0  0  0  0
  2  1  1  0  0  0  0
  2 22  1  0  0  0  0
  2 23  1  0  0  0  0
  3  1  1  0  0  0  0
  3 24  1  0  0  0  0
  3 25  1  0  0  0  0
  4 26  1  0  0  0  0
  4 27  1  0  0  0  0
  5 28  1  0  0  0  0
  5 29  1  0  0  0  0
  6  2  1  0  0  0  0
  6 30  1  0  0  0  0
  7  4  1  0  0  0  0
  7 31  1  0  0  0  0
  7 32  1  0  0  0  0
  8  4  1  0  0  0  0
  8 33  1  0  0  0  0
  9  5  1  0  0  0  0
  9 34  1  0  0  0  0
  9 35  1  0  0  0  0
 10  3  1  0  0  0  0
 10 36  1  0  0  0  0
 11  5  1  0  0  0  0
 11 37  1  0  0  0  0
 12 38  1  0  0  0  0
 13 39  1  0  0  0  0
 14  6  2  3  0  0  0
 14  7  1  0  0  0  0
 14 12  1  0  0  0  0
 15  8  2  3  0  0  0
 15  9  1  0  0  0  0
 15 13  1  0  0  0  0
 16 10  2  0  0  0  0
 17 11  2  0  0  0  0
 18 12  2  0  0  0  0
 19 13  2  0  0  0  0
M  END
>  <DRUGBANK_ID>
DB06912

>  <COMMON_NAME>
UNDECA-3,7-DIENE-1,3,7,11-TETRACARBALDEHYDE

$$$$
