
 OpenBabel10282417072D

  1  0  0  0  0  0  0  0  0  0999 V2000
    0.0000    0.0000    0.0000 Fe  0  1  0  0  0  0  0  0  0  0  0  0
M  CHG  1   1   3
M  END
>  <DRUGBANK_ID>
DB13949

>  <COMMON_NAME>
Ferric cation

>  <CAS_NUMBER>
20074-52-6

>  <UNII>
91O4LML611

>  <SYNONYMS>
FE (III) ION; Fe(III); Ferric ion; iron(3+)

$$$$
