
 OpenBabel10282417072D

 14 14  0  0  0  0  0  0  0  0999 V2000
   -0.0022    0.6604    0.0000 N   0  0  0  0  0  0  0  0  0  0  0  0
    0.6674    0.1734    0.0000 C   0  0  0  0  0  0  0  0  0  0  0  0
    0.4104   -0.6111    0.0000 C   0  0  1  0  0  0  0  0  0  0  0  0
    0.8943   -1.2787    0.0000 N   0  0  0  0  0  0  0  0  0  0  0  0
   -0.4150   -0.6111    0.0000 C   0  0  0  0  0  0  0  0  0  0  0  0
   -0.6676    0.1734    0.0000 C   0  0  0  0  0  0  0  0  0  0  0  0
    1.4518    0.4272    0.0000 O   0  0  0  0  0  0  0  0  0  0  0  0
   -1.4518    0.4280    0.0000 O   0  0  0  0  0  0  0  0  0  0  0  0
   -0.0022    1.2787    0.0000 H   0  0  0  0  0  0  0  0  0  0  0  0
    1.4675   -0.4456    0.0000 H   0  0  0  0  0  0  0  0  0  0  0  0
    0.4784   -2.2101    0.0000 H   0  0  0  0  0  0  0  0  0  0  0  0
    1.9088   -1.1732    0.0000 H   0  0  0  0  0  0  0  0  0  0  0  0
   -1.0451   -1.4759    0.0000 H   0  0  0  0  0  0  0  0  0  0  0  0
   -1.4715   -0.4416    0.0000 H   0  0  0  0  0  0  0  0  0  0  0  0
  1  2  1  0  0  0  0
  1  6  1  0  0  0  0
  1  9  1  0  0  0  0
  2  3  1  0  0  0  0
  2  7  2  0  0  0  0
  3  4  1  0  0  0  0
  3  5  1  0  0  0  0
  3 10  1  6  0  0  0
  4 11  1  0  0  0  0
  4 12  1  0  0  0  0
  5  6  1  0  0  0  0
  5 13  1  0  0  0  0
  5 14  1  0  0  0  0
  6  8  2  0  0  0  0
M  END
>  <DRUGBANK_ID>
DB03487

>  <SECONDARY_ACCESSION_NUMBERS>
EXPT02930

>  <COMMON_NAME>
(S)-Aspartimide

>  <CAS_NUMBER>
73537-92-5

>  <SYNONYMS>
3-aminosuccinimide

$$$$
