
 OpenBabel10282417072D

 18 18  0  0  0  0  0  0  0  0999 V2000
    0.3779    0.0014    0.0000 C   0  0  0  0  0  0  0  0  0  0  0  0
    1.0807    0.4067    0.0000 C   0  0  0  0  0  0  0  0  0  0  0  0
    0.3779   -0.8321    0.0000 C   0  0  0  0  0  0  0  0  0  0  0  0
   -0.3564    0.4181    0.0000 C   0  0  0  0  0  0  0  0  0  0  0  0
    1.7993    0.0014    0.0000 C   0  0  0  0  0  0  0  0  0  0  0  0
    1.0807   -1.2345    0.0000 C   0  0  0  0  0  0  0  0  0  0  0  0
   -1.0807   -0.0100    0.0000 O   0  0  0  0  0  0  0  0  0  0  0  0
    1.7993   -0.8321    0.0000 C   0  0  0  0  0  0  0  0  0  0  0  0
   -1.7993    0.4009    0.0000 C   0  0  0  0  0  0  0  0  0  0  0  0
   -1.7993    1.2345    0.0000 O   0  0  0  0  0  0  0  0  0  0  0  0
    1.0758    1.4387    0.0000 H   0  0  0  0  0  0  0  0  0  0  0  0
   -0.5149   -1.3497    0.0000 H   0  0  0  0  0  0  0  0  0  0  0  0
   -0.3658    1.4881    0.0000 H   0  0  0  0  0  0  0  0  0  0  0  0
   -1.2881    0.9443    0.0000 H   0  0  0  0  0  0  0  0  0  0  0  0
    2.6904    0.5219    0.0000 H   0  0  0  0  0  0  0  0  0  0  0  0
    1.0758   -2.2665    0.0000 H   0  0  0  0  0  0  0  0  0  0  0  0
    2.6896   -1.3540    0.0000 H   0  0  0  0  0  0  0  0  0  0  0  0
   -2.6920   -0.1170    0.0000 H   0  0  0  0  0  0  0  0  0  0  0  0
  1  2  2  0  0  0  0
  1  3  1  0  0  0  0
  1  4  1  0  0  0  0
  2  5  1  0  0  0  0
  2 11  1  0  0  0  0
  3  6  2  0  0  0  0
  3 12  1  0  0  0  0
  4  7  1  0  0  0  0
  4 13  1  0  0  0  0
  4 14  1  0  0  0  0
  5  8  2  0  0  0  0
  5 15  1  0  0  0  0
  6  8  1  0  0  0  0
  6 16  1  0  0  0  0
  7  9  1  0  0  0  0
  8 17  1  0  0  0  0
  9 10  2  0  0  0  0
  9 18  1  0  0  0  0
M  END
>  <DRUGBANK_ID>
DB04569

>  <SECONDARY_ACCESSION_NUMBERS>
EXPT02593

>  <COMMON_NAME>
Benzyl formate

>  <CAS_NUMBER>
104-57-4

>  <UNII>
79GJF97O0Y

>  <SYNONYMS>
Phenylmethyl formate

$$$$
