
 OpenBabel10282417072D

 59 63  0  0  0  0  0  0  0  0999 V2000
   -3.5498    1.2430    0.0000 C   0  0  0  0  0  0  0  0  0  0  0  0
   -3.5498    0.4105    0.0000 C   0  0  0  0  0  0  0  0  0  0  0  0
   -2.8331    0.0029    0.0000 C   0  0  0  0  0  0  0  0  0  0  0  0
   -2.1229    0.4142    0.0000 C   0  0  0  0  0  0  0  0  0  0  0  0
   -2.1229    1.2433    0.0000 C   0  0  0  0  0  0  0  0  0  0  0  0
   -2.8350    1.6549    0.0000 C   0  0  0  0  0  0  0  0  0  0  0  0
   -1.4099    1.6539    0.0000 C   0  0  0  0  0  0  0  0  0  0  0  0
   -0.6901    1.2417    0.0000 N   0  0  0  0  0  0  0  0  0  0  0  0
   -0.6901    0.4170    0.0000 N   0  0  0  0  0  0  0  0  0  0  0  0
   -1.4047    0.0004    0.0000 C   0  0  0  0  0  0  0  0  0  0  0  0
   -1.4047   -0.8235    0.0000 C   0  0  0  0  0  0  0  0  0  0  0  0
   -0.6863   -1.2407    0.0000 C   0  0  0  0  0  0  0  0  0  0  0  0
   -0.6863   -2.0624    0.0000 C   0  0  0  0  0  0  0  0  0  0  0  0
   -1.4058   -2.4746    0.0000 C   0  0  0  0  0  0  0  0  0  0  0  0
   -2.1178   -2.0659    0.0000 C   0  0  0  0  0  0  0  0  0  0  0  0
   -2.1178   -1.2422    0.0000 C   0  0  0  0  0  0  0  0  0  0  0  0
   -2.8323   -2.4780    0.0000 F   0  0  0  0  0  0  0  0  0  0  0  0
    0.0245    1.6539    0.0000 C   0  0  0  0  0  0  0  0  0  0  0  0
    0.7391    1.2417    0.0000 C   0  0  0  0  0  0  0  0  0  0  0  0
    1.4539    1.6539    0.0000 N   0  0  0  0  0  0  0  0  0  0  0  0
    2.1685    1.2417    0.0000 C   0  0  0  0  0  0  0  0  0  0  0  0
    2.8880    1.6537    0.0000 C   0  0  0  0  0  0  0  0  0  0  0  0
    3.6002    1.2421    0.0000 C   0  0  0  0  0  0  0  0  0  0  0  0
    3.6002    0.4130    0.0000 C   0  0  0  0  0  0  0  0  0  0  0  0
    2.8898    0.0015    0.0000 C   0  0  0  0  0  0  0  0  0  0  0  0
    2.1685    0.4092    0.0000 C   0  0  0  0  0  0  0  0  0  0  0  0
    4.3874    0.1589    0.0000 N   0  0  0  0  0  0  0  0  0  0  0  0
    4.8698    0.8253    0.0000 C   0  0  0  0  0  0  0  0  0  0  0  0
    4.3873    1.4961    0.0000 O   0  0  0  0  0  0  0  0  0  0  0  0
    5.6985    0.8253    0.0000 C   0  0  0  0  0  0  0  0  0  0  0  0
    1.4539    2.4780    0.0000 C   0  0  0  0  0  0  0  0  0  0  0  0
    0.7391    0.4128    0.0000 O   0  0  0  0  0  0  0  0  0  0  0  0
   -1.4099    2.4780    0.0000 O   0  0  0  0  0  0  0  0  0  0  0  0
   -4.2645    1.6551    0.0000 O   0  0  0  0  0  0  0  0  0  0  0  0
   -4.9838    1.2430    0.0000 C   0  0  0  0  0  0  0  0  0  0  0  0
   -5.6985    1.6551    0.0000 C   0  0  0  0  0  0  0  0  0  0  0  0
   -4.4419   -0.1084    0.0000 H   0  0  0  0  0  0  0  0  0  0  0  0
   -2.8291   -1.0291    0.0000 H   0  0  0  0  0  0  0  0  0  0  0  0
   -2.8343    2.6869    0.0000 H   0  0  0  0  0  0  0  0  0  0  0  0
    0.2081   -0.7258    0.0000 H   0  0  0  0  0  0  0  0  0  0  0  0
    0.2066   -2.5799    0.0000 H   0  0  0  0  0  0  0  0  0  0  0  0
   -1.4062   -3.5066    0.0000 H   0  0  0  0  0  0  0  0  0  0  0  0
   -3.0134   -0.7295    0.0000 H   0  0  0  0  0  0  0  0  0  0  0  0
    0.0245    2.7239    0.0000 H   0  0  0  0  0  0  0  0  0  0  0  0
    0.9510    2.1891    0.0000 H   0  0  0  0  0  0  0  0  0  0  0  0
    2.8901    2.6857    0.0000 H   0  0  0  0  0  0  0  0  0  0  0  0
    2.8953   -1.0305    0.0000 H   0  0  0  0  0  0  0  0  0  0  0  0
    1.2771   -0.1109    0.0000 H   0  0  0  0  0  0  0  0  0  0  0  0
    6.2335   -0.1013    0.0000 H   0  0  0  0  0  0  0  0  0  0  0  0
    6.2335    1.7519    0.0000 H   0  0  0  0  0  0  0  0  0  0  0  0
    6.7685    0.8253    0.0000 H   0  0  0  0  0  0  0  0  0  0  0  0
    2.3805    3.0130    0.0000 H   0  0  0  0  0  0  0  0  0  0  0  0
    0.5273    3.0130    0.0000 H   0  0  0  0  0  0  0  0  0  0  0  0
    1.4539    3.5480    0.0000 H   0  0  0  0  0  0  0  0  0  0  0  0
   -4.9853    0.1730    0.0000 H   0  0  0  0  0  0  0  0  0  0  0  0
   -5.9107    0.7084    0.0000 H   0  0  0  0  0  0  0  0  0  0  0  0
   -5.6991    2.7251    0.0000 H   0  0  0  0  0  0  0  0  0  0  0  0
   -6.6248    1.1196    0.0000 H   0  0  0  0  0  0  0  0  0  0  0  0
   -6.6254    2.1896    0.0000 H   0  0  0  0  0  0  0  0  0  0  0  0
  1  2  1  0  0  0  0
  1 34  1  0  0  0  0
  2  3  2  0  0  0  0
  2 37  1  0  0  0  0
  3  4  1  0  0  0  0
  3 38  1  0  0  0  0
  4  5  2  0  0  0  0
  4 10  1  0  0  0  0
  5  6  1  0  0  0  0
  5  7  1  0  0  0  0
  6  1  2  0  0  0  0
  6 39  1  0  0  0  0
  7 33  2  0  0  0  0
  8  7  1  0  0  0  0
  8 18  1  0  0  0  0
  9  8  1  0  0  0  0
 10  9  2  0  0  0  0
 10 11  1  0  0  0  0
 11 16  1  0  0  0  0
 12 11  2  0  0  0  0
 12 40  1  0  0  0  0
 13 12  1  0  0  0  0
 13 41  1  0  0  0  0
 14 13  2  0  0  0  0
 14 42  1  0  0  0  0
 15 14  1  0  0  0  0
 15 17  1  0  0  0  0
 16 15  2  0  0  0  0
 16 43  1  0  0  0  0
 18 19  1  0  0  0  0
 18 44  1  0  0  0  0
 18 45  1  0  0  0  0
 19 20  1  0  0  0  0
 19 32  2  0  0  0  0
 20 21  1  0  0  0  0
 20 31  1  0  0  0  0
 21 26  1  0  0  0  0
 22 21  2  0  0  0  0
 22 46  1  0  0  0  0
 23 22  1  0  0  0  0
 23 29  1  0  0  0  0
 24 23  2  0  0  0  0
 24 27  1  0  0  0  0
 25 24  1  0  0  0  0
 25 47  1  0  0  0  0
 26 25  2  0  0  0  0
 26 48  1  0  0  0  0
 27 28  2  0  0  0  0
 28 29  1  0  0  0  0
 28 30  1  0  0  0  0
 30 49  1  0  0  0  0
 30 50  1  0  0  0  0
 30 51  1  0  0  0  0
 31 52  1  0  0  0  0
 31 53  1  0  0  0  0
 31 54  1  0  0  0  0
 34 35  1  0  0  0  0
 35 36  1  0  0  0  0
 35 55  1  0  0  0  0
 35 56  1  0  0  0  0
 36 57  1  0  0  0  0
 36 58  1  0  0  0  0
 36 59  1  0  0  0  0
M  END
>  <DRUGBANK_ID>
DB16878

>  <COMMON_NAME>
FDL169

>  <CAS_NUMBER>
1628416-28-3

>  <UNII>
49PN4S4FDH

>  <SYNONYMS>
2-(7-ethoxy-4-(3-fluorophenyl)-1-oxophthalazin-2(1H)-yl)-N-methyl-N-(2-methylbenzo(D)oxazol-6-yl)acetamide; 2-(7-ethoxy-4-(3-fluorophenyl)-1-oxophthalazin-2(1H)-yl)-N-methyl-N-(2-methylbenzo[D]oxazol-6-yl)acetamide

$$$$
