
 OpenBabel10282417072D

 65 69  0  0  0  0  0  0  0  0999 V2000
    2.4965    0.0000    0.0000 C   0  0  0  0  0  0  0  0  0  0  0  0
    1.7786   -0.4071    0.0000 N   0  0  0  0  0  0  0  0  0  0  0  0
    1.0714    0.0000    0.0000 C   0  0  0  0  0  0  0  0  0  0  0  0
    0.3535   -0.4071    0.0000 C   0  0  0  0  0  0  0  0  0  0  0  0
    0.3535   -1.2321    0.0000 C   0  0  0  0  0  0  0  0  0  0  0  0
   -0.3535   -1.6501    0.0000 C   0  0  0  0  0  0  0  0  0  0  0  0
   -1.0714   -1.2321    0.0000 C   0  0  0  0  0  0  0  0  0  0  0  0
   -1.7894   -1.6501    0.0000 N   0  0  0  0  0  0  0  0  0  0  0  0
   -2.4965   -1.2321    0.0000 C   0  0  0  0  0  0  0  0  0  0  0  0
   -3.2145   -1.6501    0.0000 C   0  0  0  0  0  0  0  0  0  0  0  0
   -3.9323   -1.2321    0.0000 C   0  0  0  0  0  0  0  0  0  0  0  0
   -3.9323   -0.4071    0.0000 C   0  0  0  0  0  0  0  0  0  0  0  0
   -4.6502    0.0000    0.0000 C   0  0  0  0  0  0  0  0  0  0  0  0
   -4.6502    0.8249    0.0000 C   0  0  0  0  0  0  0  0  0  0  0  0
   -3.9323    1.2429    0.0000 C   0  0  0  0  0  0  0  0  0  0  0  0
   -3.9323    2.0679    0.0000 C   0  0  0  0  0  0  0  0  0  0  0  0
   -3.2145    2.4751    0.0000 F   0  0  0  0  0  0  0  0  0  0  0  0
   -4.6502    2.4751    0.0000 F   0  0  0  0  0  0  0  0  0  0  0  0
   -3.9323    2.8822    0.0000 F   0  0  0  0  0  0  0  0  0  0  0  0
   -3.2145    0.8249    0.0000 C   0  0  0  0  0  0  0  0  0  0  0  0
   -3.2145    0.0000    0.0000 C   0  0  0  0  0  0  0  0  0  0  0  0
   -4.6502   -1.6501    0.0000 C   0  0  0  0  0  0  0  0  0  0  0  0
   -5.3573   -1.2321    0.0000 O   0  0  0  0  0  0  0  0  0  0  0  0
   -5.3573   -0.4071    0.0000 C   0  0  0  0  0  0  0  0  0  0  0  0
   -4.6502   -2.4751    0.0000 C   0  0  0  0  0  0  0  0  0  0  0  0
   -3.9323   -2.8822    0.0000 C   0  0  0  0  0  0  0  0  0  0  0  0
   -3.2145   -2.4751    0.0000 C   0  0  0  0  0  0  0  0  0  0  0  0
   -2.4965   -0.4071    0.0000 O   0  0  0  0  0  0  0  0  0  0  0  0
   -1.0714   -0.4071    0.0000 C   0  0  0  0  0  0  0  0  0  0  0  0
   -0.3535    0.0000    0.0000 C   0  0  0  0  0  0  0  0  0  0  0  0
    1.0714   -1.6501    0.0000 C   0  0  0  0  0  0  0  0  0  0  0  0
    1.7786   -1.2321    0.0000 C   0  0  0  0  0  0  0  0  0  0  0  0
    3.2145   -0.4071    0.0000 O   0  0  0  0  0  0  0  0  0  0  0  0
    3.9323    0.0000    0.0000 C   0  0  0  0  0  0  0  0  0  0  0  0
    4.6395   -0.4071    0.0000 C   0  0  0  0  0  0  0  0  0  0  0  0
    5.3573    0.0000    0.0000 C   0  0  0  0  0  0  0  0  0  0  0  0
    5.3573    0.8249    0.0000 C   0  0  0  0  0  0  0  0  0  0  0  0
    4.6395    1.2429    0.0000 C   0  0  0  0  0  0  0  0  0  0  0  0
    3.9323    0.8249    0.0000 C   0  0  0  0  0  0  0  0  0  0  0  0
    2.4965    0.8249    0.0000 O   0  0  0  0  0  0  0  0  0  0  0  0
    1.0749    1.0700    0.0000 H   0  0  0  0  0  0  0  0  0  0  0  0
    0.1477    0.5401    0.0000 H   0  0  0  0  0  0  0  0  0  0  0  0
   -0.3501   -2.6821    0.0000 H   0  0  0  0  0  0  0  0  0  0  0  0
   -1.7927   -2.6346    0.0000 H   0  0  0  0  0  0  0  0  0  0  0  0
   -5.5419   -0.5195    0.0000 H   0  0  0  0  0  0  0  0  0  0  0  0
   -5.5449    1.3393    0.0000 H   0  0  0  0  0  0  0  0  0  0  0  0
   -2.3198    1.3392    0.0000 H   0  0  0  0  0  0  0  0  0  0  0  0
   -2.3228   -0.5194    0.0000 H   0  0  0  0  0  0  0  0  0  0  0  0
   -4.4307    0.1279    0.0000 H   0  0  0  0  0  0  0  0  0  0  0  0
   -6.2839    0.1279    0.0000 H   0  0  0  0  0  0  0  0  0  0  0  0
   -5.3573    0.6629    0.0000 H   0  0  0  0  0  0  0  0  0  0  0  0
   -5.5419   -2.9946    0.0000 H   0  0  0  0  0  0  0  0  0  0  0  0
   -3.9323   -3.9142    0.0000 H   0  0  0  0  0  0  0  0  0  0  0  0
   -2.3228   -2.9945    0.0000 H   0  0  0  0  0  0  0  0  0  0  0  0
   -1.9631    0.1124    0.0000 H   0  0  0  0  0  0  0  0  0  0  0  0
   -0.3501    1.0320    0.0000 H   0  0  0  0  0  0  0  0  0  0  0  0
    1.0749   -2.7201    0.0000 H   0  0  0  0  0  0  0  0  0  0  0  0
    2.0016   -2.1788    0.0000 H   0  0  0  0  0  0  0  0  0  0  0  0
    2.7080   -1.7624    0.0000 H   0  0  0  0  0  0  0  0  0  0  0  0
    1.7868   -2.3021    0.0000 H   0  0  0  0  0  0  0  0  0  0  0  0
    4.6362   -1.4391    0.0000 H   0  0  0  0  0  0  0  0  0  0  0  0
    6.2490   -0.5194    0.0000 H   0  0  0  0  0  0  0  0  0  0  0  0
    6.2520    1.3392    0.0000 H   0  0  0  0  0  0  0  0  0  0  0  0
    4.6361    2.2749    0.0000 H   0  0  0  0  0  0  0  0  0  0  0  0
    3.0359    1.3363    0.0000 H   0  0  0  0  0  0  0  0  0  0  0  0
  1  2  1  0  0  0  0
  1 33  1  0  0  0  0
  1 40  2  0  0  0  0
  2  3  1  0  0  0  0
  2 32  1  0  0  0  0
  3  4  1  0  0  0  0
  3 41  1  0  0  0  0
  3 42  1  0  0  0  0
  4  5  2  0  0  0  0
  4 30  1  0  0  0  0
  5  6  1  0  0  0  0
  5 31  1  0  0  0  0
  6  7  2  0  0  0  0
  6 43  1  0  0  0  0
  7  8  1  0  0  0  0
  7 29  1  0  0  0  0
  8  9  1  0  0  0  0
  8 44  1  0  0  0  0
  9 10  1  0  0  0  0
  9 28  2  0  0  0  0
 10 11  2  0  0  0  0
 10 27  1  0  0  0  0
 11 12  1  0  0  0  0
 11 22  1  0  0  0  0
 12 13  2  0  0  0  0
 12 21  1  0  0  0  0
 13 14  1  0  0  0  0
 13 45  1  0  0  0  0
 14 15  2  0  0  0  0
 14 46  1  0  0  0  0
 15 16  1  0  0  0  0
 15 20  1  0  0  0  0
 16 17  1  0  0  0  0
 16 18  1  0  0  0  0
 16 19  1  0  0  0  0
 20 21  2  0  0  0  0
 20 47  1  0  0  0  0
 21 48  1  0  0  0  0
 22 23  1  0  0  0  0
 22 25  2  0  0  0  0
 23 24  1  0  0  0  0
 24 49  1  0  0  0  0
 24 50  1  0  0  0  0
 24 51  1  0  0  0  0
 25 26  1  0  0  0  0
 25 52  1  0  0  0  0
 26 27  2  0  0  0  0
 26 53  1  0  0  0  0
 27 54  1  0  0  0  0
 29 30  2  0  0  0  0
 29 55  1  0  0  0  0
 30 56  1  0  0  0  0
 31 32  1  0  0  0  0
 31 57  1  0  0  0  0
 31 58  1  0  0  0  0
 32 59  1  0  0  0  0
 32 60  1  0  0  0  0
 33 34  1  0  0  0  0
 34 35  2  0  0  0  0
 34 39  1  0  0  0  0
 35 36  1  0  0  0  0
 35 61  1  0  0  0  0
 36 37  2  0  0  0  0
 36 62  1  0  0  0  0
 37 38  1  0  0  0  0
 37 63  1  0  0  0  0
 38 39  2  0  0  0  0
 38 64  1  0  0  0  0
 39 65  1  0  0  0  0
M  END
>  <DRUGBANK_ID>
DB05678

>  <COMMON_NAME>
SLx-4090

>  <CAS_NUMBER>
913541-47-6

>  <UNII>
F84YQX13FV

$$$$
