
 OpenBabel10282417072D

 52 55  0  0  0  0  0  0  0  0999 V2000
   -2.5006   -0.8250    0.0000 C   0  0  0  0  0  0  0  0  0  0  0  0
   -3.2151   -0.4125    0.0000 C   0  0  0  0  0  0  0  0  0  0  0  0
   -3.9296   -0.8250    0.0000 C   0  0  0  0  0  0  0  0  0  0  0  0
   -3.9296   -1.6500    0.0000 C   0  0  0  0  0  0  0  0  0  0  0  0
   -3.2151   -2.0625    0.0000 C   0  0  0  0  0  0  0  0  0  0  0  0
   -2.5006   -1.6500    0.0000 C   0  0  0  0  0  0  0  0  0  0  0  0
   -1.7862   -2.0625    0.0000 S   0  0  0  0  0  0  0  0  0  0  0  0
   -1.0716   -1.6500    0.0000 C   0  0  0  0  0  0  0  0  0  0  0  0
   -1.0716   -0.8250    0.0000 C   0  0  0  0  0  0  0  0  0  0  0  0
   -1.7862   -0.4125    0.0000 C   0  0  0  0  0  0  0  0  0  0  0  0
   -0.3572   -0.4125    0.0000 C   0  0  0  0  0  0  0  0  0  0  0  0
   -0.3572   -2.0625    0.0000 C   0  0  0  0  0  0  0  0  0  0  0  0
    0.3572   -1.6500    0.0000 C   0  0  0  0  0  0  0  0  0  0  0  0
    0.3572   -0.8250    0.0000 C   0  0  0  0  0  0  0  0  0  0  0  0
   -1.7862    0.4125    0.0000 C   0  0  0  0  0  0  0  0  0  0  0  0
   -1.0716    0.8250    0.0000 C   0  0  0  0  0  0  0  0  0  0  0  0
   -0.3573    0.4125    0.0000 C   0  0  0  0  0  0  0  0  0  0  0  0
    0.3571    0.8250    0.0000 N   0  0  0  0  0  0  0  0  0  0  0  0
    1.0716    2.0625    0.0000 C   0  0  0  0  0  0  0  0  0  0  0  0
    0.3571    1.6500    0.0000 C   0  0  0  0  0  0  0  0  0  0  0  0
    1.0716    0.4125    0.0000 C   0  0  0  0  0  0  0  0  0  0  0  0
    1.7860    0.8250    0.0000 C   0  0  0  0  0  0  0  0  0  0  0  0
    1.7860    1.6500    0.0000 N   0  0  0  0  0  0  0  0  0  0  0  0
    2.5005    2.0625    0.0000 C   0  0  0  0  0  0  0  0  0  0  0  0
    3.2151    1.6500    0.0000 C   0  0  0  0  0  0  0  0  0  0  0  0
    3.9296    2.0625    0.0000 O   0  0  0  0  0  0  0  0  0  0  0  0
    1.0716   -0.4125    0.0000 Cl  0  0  0  0  0  0  0  0  0  0  0  0
   -2.5007    0.8250    0.0000 H   0  0  0  0  0  0  0  0  0  0  0  0
   -3.2151    0.6195    0.0000 H   0  0  0  0  0  0  0  0  0  0  0  0
   -4.8233   -0.3090    0.0000 H   0  0  0  0  0  0  0  0  0  0  0  0
   -4.8233   -2.1660    0.0000 H   0  0  0  0  0  0  0  0  0  0  0  0
   -3.2151   -3.0945    0.0000 H   0  0  0  0  0  0  0  0  0  0  0  0
   -0.3572    0.6195    0.0000 H   0  0  0  0  0  0  0  0  0  0  0  0
   -0.3572   -3.0945    0.0000 H   0  0  0  0  0  0  0  0  0  0  0  0
    1.2509   -2.1660    0.0000 H   0  0  0  0  0  0  0  0  0  0  0  0
   -1.0715    1.8950    0.0000 H   0  0  0  0  0  0  0  0  0  0  0  0
   -0.1449    1.3599    0.0000 H   0  0  0  0  0  0  0  0  0  0  0  0
   -0.3573   -0.6575    0.0000 H   0  0  0  0  0  0  0  0  0  0  0  0
    0.5694   -0.1225    0.0000 H   0  0  0  0  0  0  0  0  0  0  0  0
    1.0716    3.1325    0.0000 H   0  0  0  0  0  0  0  0  0  0  0  0
    1.9983    2.5975    0.0000 H   0  0  0  0  0  0  0  0  0  0  0  0
   -0.5695    2.1850    0.0000 H   0  0  0  0  0  0  0  0  0  0  0  0
    0.3571    2.7200    0.0000 H   0  0  0  0  0  0  0  0  0  0  0  0
    1.0716   -0.6575    0.0000 H   0  0  0  0  0  0  0  0  0  0  0  0
    1.9983   -0.1225    0.0000 H   0  0  0  0  0  0  0  0  0  0  0  0
    2.7127    0.2900    0.0000 H   0  0  0  0  0  0  0  0  0  0  0  0
    2.7126    1.3600    0.0000 H   0  0  0  0  0  0  0  0  0  0  0  0
    2.5005    3.1325    0.0000 H   0  0  0  0  0  0  0  0  0  0  0  0
    3.4271    2.5976    0.0000 H   0  0  0  0  0  0  0  0  0  0  0  0
    3.2151    0.5800    0.0000 H   0  0  0  0  0  0  0  0  0  0  0  0
    4.1418    1.1150    0.0000 H   0  0  0  0  0  0  0  0  0  0  0  0
    4.7696    1.5775    0.0000 H   0  0  0  0  0  0  0  0  0  0  0  0
  1  2  1  0  0  0  0
  1  6  2  0  0  0  0
  1 10  1  0  0  0  0
  2  3  2  0  0  0  0
  2 29  1  0  0  0  0
  3  4  1  0  0  0  0
  3 30  1  0  0  0  0
  4  5  2  0  0  0  0
  4 31  1  0  0  0  0
  5  6  1  0  0  0  0
  5 32  1  0  0  0  0
  6  7  1  0  0  0  0
  7  8  1  0  0  0  0
  8  9  2  0  0  0  0
  8 12  1  0  0  0  0
  9 10  1  0  0  0  0
 10 15  2  3  0  0  0
 11  9  1  0  0  0  0
 11 14  2  0  0  0  0
 11 33  1  0  0  0  0
 12 13  2  0  0  0  0
 12 34  1  0  0  0  0
 13 14  1  0  0  0  0
 13 35  1  0  0  0  0
 14 27  1  0  0  0  0
 15 16  1  0  0  0  0
 15 28  1  0  0  0  0
 16 17  1  0  0  0  0
 16 36  1  0  0  0  0
 16 37  1  0  0  0  0
 17 18  1  0  0  0  0
 17 38  1  0  0  0  0
 17 39  1  0  0  0  0
 18 21  1  0  0  0  0
 19 20  1  0  0  0  0
 19 23  1  0  0  0  0
 19 40  1  0  0  0  0
 19 41  1  0  0  0  0
 20 18  1  0  0  0  0
 20 42  1  0  0  0  0
 20 43  1  0  0  0  0
 21 22  1  0  0  0  0
 21 44  1  0  0  0  0
 21 45  1  0  0  0  0
 22 23  1  0  0  0  0
 22 46  1  0  0  0  0
 22 47  1  0  0  0  0
 23 24  1  0  0  0  0
 24 25  1  0  0  0  0
 24 48  1  0  0  0  0
 24 49  1  0  0  0  0
 25 26  1  0  0  0  0
 25 50  1  0  0  0  0
 25 51  1  0  0  0  0
 26 52  1  0  0  0  0
M  END
>  <DRUGBANK_ID>
DB13841

>  <COMMON_NAME>
Clopenthixol

>  <CAS_NUMBER>
982-24-1

>  <UNII>
0A432D932A

>  <SYNONYMS>
4-(3-(2-Chloro-9H-thioxanthen-9-ylidene)propyl)-1-piperazineethanol; 4-(3-(2-Chlorothioxanthen-9-ylidene)propyl)-1-piperazineethanol; Chlorpenthixol; Clopenthixol; Clopenthixolum; Clopentixol; Sordinol

$$$$
