369
 OpenBabel10282417072D

 32 32  0  0  1  0  0  0  0  0999 V2000
    4.5080   -2.4751    0.0000 P   0  0  0  0  0  0  0  0  0  0  0  0
    3.7935   -1.2375    0.0000 O   0  0  0  0  0  0  0  0  0  0  0  0
    5.2224   -0.4125    0.0000 O   0  0  0  0  0  0  0  0  0  0  0  0
    4.5080   -3.3001    0.0000 O   0  0  0  0  0  0  0  0  0  0  0  0
    5.3330   -2.4751    0.0000 O   0  0  0  0  0  0  0  0  0  0  0  0
    3.6830   -2.4751    0.0000 O   0  0  0  0  0  0  0  0  0  0  0  0
    1.6500    0.8250    0.0000 O   0  0  0  0  0  0  0  0  0  0  0  0
    3.0791    0.8250    0.0000 N   0  0  0  0  0  0  0  0  0  0  0  0
    2.3645    2.0625    0.0000 N   0  0  0  0  0  0  0  0  0  0  0  0
    3.0791    3.3001    0.0000 N   0  0  0  0  0  0  0  0  0  0  0  0
    3.7935   -0.4125    0.0000 C   0  0  1  0  0  0  0  0  0  0  0  0
    3.0791    0.0000    0.0000 C   0  0  0  0  0  0  0  0  0  0  0  0
    4.5080    0.0000    0.0000 C   0  0  0  0  0  0  0  0  0  0  0  0
    4.5080   -1.6500    0.0000 C   0  0  0  0  0  0  0  0  0  0  0  0
    3.7935    1.2375    0.0000 C   0  0  0  0  0  0  0  0  0  0  0  0
    2.3645    1.2375    0.0000 C   0  0  0  0  0  0  0  0  0  0  0  0
    3.7935    2.0625    0.0000 C   0  0  0  0  0  0  0  0  0  0  0  0
    3.0791    2.4751    0.0000 C   0  0  0  0  0  0  0  0  0  0  0  0
    5.2224   -1.3825    0.0000 H   0  0  0  0  0  0  0  0  0  0  0  0
    3.6680   -3.7851    0.0000 H   0  0  0  0  0  0  0  0  0  0  0  0
    5.8180   -3.3151    0.0000 H   0  0  0  0  0  0  0  0  0  0  0  0
    3.9317    3.7923    0.0000 H   0  0  0  0  0  0  0  0  0  0  0  0
    2.2265    3.7923    0.0000 H   0  0  0  0  0  0  0  0  0  0  0  0
    2.8668   -0.9475    0.0000 H   0  0  0  0  0  0  0  0  0  0  0  0
    2.1524   -0.5350    0.0000 H   0  0  0  0  0  0  0  0  0  0  0  0
    3.0791   -1.0700    0.0000 H   0  0  0  0  0  0  0  0  0  0  0  0
    4.5080    1.0700    0.0000 H   0  0  0  0  0  0  0  0  0  0  0  0
    3.5814    0.5350    0.0000 H   0  0  0  0  0  0  0  0  0  0  0  0
    5.4346   -1.1150    0.0000 H   0  0  0  0  0  0  0  0  0  0  0  0
    4.5080   -0.5800    0.0000 H   0  0  0  0  0  0  0  0  0  0  0  0
    4.6872    0.7215    0.0000 H   0  0  0  0  0  0  0  0  0  0  0  0
    4.6873    2.5784    0.0000 H   0  0  0  0  0  0  0  0  0  0  0  0
  1  4  1  0  0  0  0
  1  5  1  0  0  0  0
  1  6  2  0  0  0  0
  1 14  1  0  0  0  0
  2 14  1  0  0  0  0
  3 13  1  0  0  0  0
  3 19  1  0  0  0  0
  4 20  1  0  0  0  0
  5 21  1  0  0  0  0
  7 16  2  0  0  0  0
  8 12  1  0  0  0  0
  8 15  1  0  0  0  0
  8 16  1  0  0  0  0
  9 16  1  0  0  0  0
  9 18  2  0  0  0  0
 10 18  1  0  0  0  0
 10 22  1  0  0  0  0
 10 23  1  0  0  0  0
 11  2  1  0  0  0  0
 11 12  1  0  0  0  0
 11 13  1  0  0  0  0
 11 24  1  6  0  0  0
 12 25  1  0  0  0  0
 12 26  1  0  0  0  0
 13 27  1  0  0  0  0
 13 28  1  0  0  0  0
 14 29  1  0  0  0  0
 14 30  1  0  0  0  0
 15 17  2  0  0  0  0
 15 31  1  0  0  0  0
 17 18  1  0  0  0  0
 17 32  1  0  0  0  0
M  END
>  <DRUGBANK_ID>
DB00369

>  <SECONDARY_ACCESSION_NUMBERS>
APRD00148

>  <COMMON_NAME>
Cidofovir

>  <CAS_NUMBER>
113852-37-2

>  <UNII>
768M1V522C

>  <SYNONYMS>
({[(S)-1-(4-amino-2-oxo-1,2-dihydropyrimidin-1-yl)-3-hydroxypropan-2-yl]oxy}methyl)phosphonic acid; (S)-(3-(4-amino-2-Oxopyrimidin-1(2H)-yl)-1-hydroxypropan-2-yloxy)methylphosphonic acid; (S)-1-(3-Hydroxy-2-phosphonomethoxypropyl)cytosine; (S)-1-[3-Hydroxy-2-(phosphonomethoxy)propyl]cytosine; (S)-1-[3-Hydroxy-2-(phosphonylmethoxy)propyl]cytosine; (S)-HPMPC; [(S)-2-(4-Amino-2-oxo-2H-pyrimidin-1-yl)-1-hydroxymethyl-ethoxymethyl]-phosphonic acid; [[(S)-2-(4-amino-2-oxo-1(2H)-pyrimidinyl)-1-(hydroxymethyl)ethoxy]methyl]phosphonic acid; 1-(S)-[3-Hydroxy-2-(phosphonomethoxy)propyl]cytosine; 1-[(S)-3-Hydroxy-2-(phosphonomethoxy)propyl]cytosine; CDV; Cidofovir; Cidofovir anhydrous; Cidofovirum

$$$$
