
 OpenBabel10282417072D

 51 51  0  0  0  0  0  0  0  0999 V2000
   -2.0373    3.0512    0.0000 C   0  0  0  0  0  0  0  0  0  0  0  0
   -1.3228    2.6387    0.0000 C   0  0  0  0  0  0  0  0  0  0  0  0
   -1.3228    1.8137    0.0000 N   0  3  0  0  0  0  0  0  0  0  0  0
   -2.1478    1.8137    0.0000 C   0  0  0  0  0  0  0  0  0  0  0  0
   -0.4978    1.8137    0.0000 C   0  0  0  0  0  0  0  0  0  0  0  0
   -0.0853    1.0993    0.0000 C   0  0  0  0  0  0  0  0  0  0  0  0
   -1.3228    0.9887    0.0000 C   0  0  0  0  0  0  0  0  0  0  0  0
   -0.6083    0.5762    0.0000 C   0  0  0  0  0  0  0  0  0  0  0  0
   -0.6083   -0.2488    0.0000 O   0  0  0  0  0  0  0  0  0  0  0  0
    0.1061   -0.6613    0.0000 C   0  0  0  0  0  0  0  0  0  0  0  0
    0.1061   -1.4863    0.0000 C   0  0  0  0  0  0  0  0  0  0  0  0
    0.8206   -1.8988    0.0000 C   0  0  0  0  0  0  0  0  0  0  0  0
    0.8206   -2.7238    0.0000 C   0  0  0  0  0  0  0  0  0  0  0  0
    0.1061   -3.1363    0.0000 C   0  0  0  0  0  0  0  0  0  0  0  0
   -0.6083   -2.7238    0.0000 C   0  0  0  0  0  0  0  0  0  0  0  0
   -0.6083   -1.8988    0.0000 C   0  0  0  0  0  0  0  0  0  0  0  0
    0.8206   -0.2488    0.0000 C   0  0  0  0  0  0  0  0  0  0  0  0
    0.8206    0.5762    0.0000 C   0  0  0  0  0  0  0  0  0  0  0  0
    1.5351    0.9887    0.0000 C   0  0  0  0  0  0  0  0  0  0  0  0
    2.2495    0.5762    0.0000 C   0  0  0  0  0  0  0  0  0  0  0  0
    2.2495   -0.2488    0.0000 C   0  0  0  0  0  0  0  0  0  0  0  0
    1.5351   -0.6613    0.0000 C   0  0  0  0  0  0  0  0  0  0  0  0
    4.4888    0.0000    0.0000 I   0  5  0  0  0  0  0  0  0  0  0  0
   -2.0373    4.1212    0.0000 H   0  0  0  0  0  0  0  0  0  0  0  0
   -2.9639    2.5162    0.0000 H   0  0  0  0  0  0  0  0  0  0  0  0
   -2.9640    3.5862    0.0000 H   0  0  0  0  0  0  0  0  0  0  0  0
   -0.3962    3.1737    0.0000 H   0  0  0  0  0  0  0  0  0  0  0  0
   -0.3962    2.1037    0.0000 H   0  0  0  0  0  0  0  0  0  0  0  0
   -2.6828    2.7403    0.0000 H   0  0  0  0  0  0  0  0  0  0  0  0
   -2.6828    0.8871    0.0000 H   0  0  0  0  0  0  0  0  0  0  0  0
   -3.2178    1.8137    0.0000 H   0  0  0  0  0  0  0  0  0  0  0  0
    0.0372    2.7404    0.0000 H   0  0  0  0  0  0  0  0  0  0  0  0
    0.5722    1.8137    0.0000 H   0  0  0  0  0  0  0  0  0  0  0  0
   -0.6203    0.1726    0.0000 H   0  0  0  0  0  0  0  0  0  0  0  0
    0.9847    1.0993    0.0000 H   0  0  0  0  0  0  0  0  0  0  0  0
    0.4497    0.1727    0.0000 H   0  0  0  0  0  0  0  0  0  0  0  0
   -2.2494    0.4537    0.0000 H   0  0  0  0  0  0  0  0  0  0  0  0
   -1.3228   -0.0813    0.0000 H   0  0  0  0  0  0  0  0  0  0  0  0
    0.3183    1.1112    0.0000 H   0  0  0  0  0  0  0  0  0  0  0  0
    0.3183    0.0412    0.0000 H   0  0  0  0  0  0  0  0  0  0  0  0
    1.0327   -1.1963    0.0000 H   0  0  0  0  0  0  0  0  0  0  0  0
    1.7143   -1.3828    0.0000 H   0  0  0  0  0  0  0  0  0  0  0  0
    1.7143   -3.2398    0.0000 H   0  0  0  0  0  0  0  0  0  0  0  0
    0.1061   -4.1683    0.0000 H   0  0  0  0  0  0  0  0  0  0  0  0
   -1.5020   -3.2398    0.0000 H   0  0  0  0  0  0  0  0  0  0  0  0
   -1.5020   -1.3828    0.0000 H   0  0  0  0  0  0  0  0  0  0  0  0
   -0.0731    1.0922    0.0000 H   0  0  0  0  0  0  0  0  0  0  0  0
    1.5351    2.0207    0.0000 H   0  0  0  0  0  0  0  0  0  0  0  0
    3.1432    1.0922    0.0000 H   0  0  0  0  0  0  0  0  0  0  0  0
    3.1432   -0.7648    0.0000 H   0  0  0  0  0  0  0  0  0  0  0  0
    1.5351   -1.6933    0.0000 H   0  0  0  0  0  0  0  0  0  0  0  0
  1  2  1  0  0  0  0
  1 24  1  0  0  0  0
  1 25  1  0  0  0  0
  1 26  1  0  0  0  0
  2  3  1  0  0  0  0
  2 27  1  0  0  0  0
  2 28  1  0  0  0  0
  3  4  1  0  0  0  0
  3  5  1  0  0  0  0
  3  7  1  0  0  0  0
  4 29  1  0  0  0  0
  4 30  1  0  0  0  0
  4 31  1  0  0  0  0
  5  6  1  0  0  0  0
  5 32  1  0  0  0  0
  5 33  1  0  0  0  0
  6 34  1  0  0  0  0
  6 35  1  0  0  0  0
  6 36  1  0  0  0  0
  7  8  1  0  0  0  0
  7 37  1  0  0  0  0
  7 38  1  0  0  0  0
  8  9  1  0  0  0  0
  8 39  1  0  0  0  0
  8 40  1  0  0  0  0
  9 10  1  0  0  0  0
 10 11  1  0  0  0  0
 10 17  1  0  0  0  0
 10 41  1  0  0  0  0
 11 12  2  0  0  0  0
 11 16  1  0  0  0  0
 12 13  1  0  0  0  0
 12 42  1  0  0  0  0
 13 14  2  0  0  0  0
 13 43  1  0  0  0  0
 14 15  1  0  0  0  0
 14 44  1  0  0  0  0
 15 16  2  0  0  0  0
 15 45  1  0  0  0  0
 16 46  1  0  0  0  0
 17 18  2  0  0  0  0
 17 22  1  0  0  0  0
 18 19  1  0  0  0  0
 18 47  1  0  0  0  0
 19 20  2  0  0  0  0
 19 48  1  0  0  0  0
 20 21  1  0  0  0  0
 20 49  1  0  0  0  0
 21 22  2  0  0  0  0
 21 50  1  0  0  0  0
 22 51  1  0  0  0  0
M  CHG  2   3   1  23  -1
M  END
>  <DRUGBANK_ID>
DB13769

>  <COMMON_NAME>
Emetonium iodide

>  <CAS_NUMBER>
5982-52-5

>  <UNII>
CW3OT0Y51W

>  <SYNONYMS>
(2-benzhydryloxyethyl)diethyl-methylammonium iodide; Ethylbenzhydramine methyl iodide

$$$$
