
 OpenBabel10282417072D

 26 28  0  0  0  0  0  0  0  0999 V2000
    0.7145   -0.4125    0.0000 O   0  0  0  0  0  0  0  0  0  0  0  0
    0.7145   -1.2375    0.0000 C   0  0  0  0  0  0  0  0  0  0  0  0
    1.1270   -1.9520    0.0000 C   0  0  0  0  0  0  0  0  0  0  0  0
    0.3020   -1.9520    0.0000 C   0  0  0  0  0  0  0  0  0  0  0  0
   -0.4125   -2.3645    0.0000 C   0  0  0  0  0  0  0  0  0  0  0  0
   -0.4125   -3.1895    0.0000 C   0  0  0  0  0  0  0  0  0  0  0  0
   -1.1270   -3.6020    0.0000 C   0  0  0  0  0  0  0  0  0  0  0  0
   -1.8414   -3.1895    0.0000 C   0  0  0  0  0  0  0  0  0  0  0  0
   -1.8414   -2.3645    0.0000 C   0  0  0  0  0  0  0  0  0  0  0  0
   -1.1270   -1.9520    0.0000 C   0  0  0  0  0  0  0  0  0  0  0  0
    1.8414   -2.3645    0.0000 C   0  0  0  0  0  0  0  0  0  0  0  0
    2.5559   -1.9520    0.0000 C   0  0  0  0  0  0  0  0  0  0  0  0
    3.2704   -2.3645    0.0000 C   0  0  0  0  0  0  0  0  0  0  0  0
    3.2704   -3.1895    0.0000 C   0  0  0  0  0  0  0  0  0  0  0  0
    2.5559   -3.6020    0.0000 C   0  0  0  0  0  0  0  0  0  0  0  0
    1.8414   -3.1895    0.0000 C   0  0  0  0  0  0  0  0  0  0  0  0
    0.4812   -3.7055    0.0000 H   0  0  0  0  0  0  0  0  0  0  0  0
   -1.1270   -4.6340    0.0000 H   0  0  0  0  0  0  0  0  0  0  0  0
   -2.7351   -3.7055    0.0000 H   0  0  0  0  0  0  0  0  0  0  0  0
   -2.7351   -1.8485    0.0000 H   0  0  0  0  0  0  0  0  0  0  0  0
   -1.1270   -0.9200    0.0000 H   0  0  0  0  0  0  0  0  0  0  0  0
    2.5559   -0.9200    0.0000 H   0  0  0  0  0  0  0  0  0  0  0  0
    4.1641   -1.8485    0.0000 H   0  0  0  0  0  0  0  0  0  0  0  0
    4.1641   -3.7055    0.0000 H   0  0  0  0  0  0  0  0  0  0  0  0
    2.5559   -4.6340    0.0000 H   0  0  0  0  0  0  0  0  0  0  0  0
    0.9477   -3.7055    0.0000 H   0  0  0  0  0  0  0  0  0  0  0  0
  1  2  2  0  0  0  0
  2  3  1  0  0  0  0
  2  4  1  0  0  0  0
  3  4  2  0  0  0  0
  3 11  1  0  0  0  0
  4  5  1  0  0  0  0
  5  6  2  0  0  0  0
  5 10  1  0  0  0  0
  6  7  1  0  0  0  0
  6 17  1  0  0  0  0
  7  8  2  0  0  0  0
  7 18  1  0  0  0  0
  8  9  1  0  0  0  0
  8 19  1  0  0  0  0
  9 10  2  0  0  0  0
  9 20  1  0  0  0  0
 10 21  1  0  0  0  0
 11 12  2  0  0  0  0
 11 16  1  0  0  0  0
 12 13  1  0  0  0  0
 12 22  1  0  0  0  0
 13 14  2  0  0  0  0
 13 23  1  0  0  0  0
 14 15  1  0  0  0  0
 14 24  1  0  0  0  0
 15 16  2  0  0  0  0
 15 25  1  0  0  0  0
 16 26  1  0  0  0  0
M  END
>  <DRUGBANK_ID>
DB12173

>  <COMMON_NAME>
Diphencyprone

>  <CAS_NUMBER>
886-38-4

>  <UNII>
I7G14NW5EC

>  <SYNONYMS>
Diphenylcyclopropenone

$$$$
