
 OpenBabel10282417072D

 20 19  0  0  1  0  0  0  0  0999 V2000
   26.8621  -12.7411    0.0000 O   0  0  0  0  0  0  0  0  0  0  0  0
   26.1477  -11.5036    0.0000 O   0  0  0  0  0  0  0  0  0  0  0  0
   25.4332  -15.2161    0.0000 O   0  0  0  0  0  0  0  0  0  0  0  0
   24.7187  -12.3286    0.0000 N   0  0  0  0  0  0  0  0  0  0  0  0
   24.0042  -15.2161    0.0000 N   0  0  0  0  0  0  0  0  0  0  0  0
   25.4332  -12.7411    0.0000 C   0  0  2  0  0  0  0  0  0  0  0  0
   25.4332  -13.5661    0.0000 C   0  0  0  0  0  0  0  0  0  0  0  0
   24.7187  -13.9786    0.0000 C   0  0  0  0  0  0  0  0  0  0  0  0
   26.1477  -12.3286    0.0000 C   0  0  0  0  0  0  0  0  0  0  0  0
   24.7187  -14.8036    0.0000 C   0  0  0  0  0  0  0  0  0  0  0  0
   26.8621  -13.6781    0.0000 H   0  0  0  0  0  0  0  0  0  0  0  0
   24.7187  -11.3086    0.0000 H   0  0  0  0  0  0  0  0  0  0  0  0
   23.8354  -12.8386    0.0000 H   0  0  0  0  0  0  0  0  0  0  0  0
   23.1516  -14.7238    0.0000 H   0  0  0  0  0  0  0  0  0  0  0  0
   24.0042  -16.2006    0.0000 H   0  0  0  0  0  0  0  0  0  0  0  0
   24.5066  -13.2761    0.0000 H   0  0  0  0  0  0  0  0  0  0  0  0
   26.3598  -14.1011    0.0000 H   0  0  0  0  0  0  0  0  0  0  0  0
   25.4332  -14.6361    0.0000 H   0  0  0  0  0  0  0  0  0  0  0  0
   23.7921  -13.4436    0.0000 H   0  0  0  0  0  0  0  0  0  0  0  0
   23.7921  -14.5136    0.0000 H   0  0  0  0  0  0  0  0  0  0  0  0
  1  9  1  0  0  0  0
  1 11  1  0  0  0  0
  2  9  2  0  0  0  0
  3 10  2  0  0  0  0
  4 12  1  0  0  0  0
  4 13  1  0  0  0  0
  5 10  1  0  0  0  0
  5 14  1  0  0  0  0
  5 15  1  0  0  0  0
  6  4  1  0  0  0  0
  6  7  1  0  0  0  0
  6  9  1  0  0  0  0
  6 16  1  6  0  0  0
  7  8  1  0  0  0  0
  7 17  1  0  0  0  0
  7 18  1  0  0  0  0
  8 10  1  0  0  0  0
  8 19  1  0  0  0  0
  8 20  1  0  0  0  0
M  END
>  <DRUGBANK_ID>
DB02174

>  <SECONDARY_ACCESSION_NUMBERS>
EXPT01181

>  <COMMON_NAME>
D-Glutamine

>  <CAS_NUMBER>
5959-95-5

>  <UNII>
63HB36CA2Y

>  <SYNONYMS>
(2R)-2-amino-4-carbamoylbutanoic acid; (2R)-2,5-diamino-5-oxopentanoic acid; (R)-2,5-diamino-5-oxopentanoic acid; D-2-Aminoglutaramic acid; D-Glutamin; D-Glutamins√§ure-5-amid

$$$$
