327
 OpenBabel10282417072D

 42 46  0  0  1  0  0  0  0  0999 V2000
    2.1326   -0.2369    0.0000 O   0  0  0  0  0  0  0  0  0  0  0  0
    1.9319   -2.3664    0.0000 O   0  0  0  0  0  0  0  0  0  0  0  0
    1.9319    1.8010    0.0000 O   0  0  0  0  0  0  0  0  0  0  0  0
    5.5409   -1.1076    0.0000 N   0  0  0  0  0  0  0  0  0  0  0  0
    3.3976   -0.6952    0.0000 C   0  0  1  0  0  0  0  0  0  0  0  0
    4.1120   -1.1076    0.0000 C   0  0  2  0  0  0  0  0  0  0  0  0
    4.8265   -0.6952    0.0000 C   0  0  1  0  0  0  0  0  0  0  0  0
    2.6831   -1.1076    0.0000 C   0  0  2  0  0  0  0  0  0  0  0  0
    3.8742   -0.0902    0.0000 C   0  0  0  0  0  0  0  0  0  0  0  0
    3.3976    0.1297    0.0000 C   0  0  0  0  0  0  0  0  0  0  0  0
    4.1120   -1.9327    0.0000 C   0  0  0  0  0  0  0  0  0  0  0  0
    4.8265    0.1297    0.0000 C   0  0  0  0  0  0  0  0  0  0  0  0
    5.0475   -0.0902    0.0000 C   0  0  0  0  0  0  0  0  0  0  0  0
    4.1120    0.5422    0.0000 C   0  0  0  0  0  0  0  0  0  0  0  0
    3.3976   -2.3452    0.0000 C   0  0  0  0  0  0  0  0  0  0  0  0
    2.6831   -1.9327    0.0000 C   0  0  2  0  0  0  0  0  0  0  0  0
    2.6831    0.5422    0.0000 C   0  0  0  0  0  0  0  0  0  0  0  0
    6.1318   -1.7427    0.0000 C   0  0  0  0  0  0  0  0  0  0  0  0
    4.1120    1.3672    0.0000 C   0  0  0  0  0  0  0  0  0  0  0  0
    2.6831    1.3672    0.0000 C   0  0  0  0  0  0  0  0  0  0  0  0
    3.3976    1.7796    0.0000 C   0  0  0  0  0  0  0  0  0  0  0  0
    4.5580   -1.6392    0.0000 H   0  0  0  0  0  0  0  0  0  0  0  0
    5.0644   -1.3471    0.0000 H   0  0  0  0  0  0  0  0  0  0  0  0
    2.0166   -1.3007    0.0000 H   0  0  0  0  0  0  0  0  0  0  0  0
    1.0919   -1.8814    0.0000 H   0  0  0  0  0  0  0  0  0  0  0  0
    1.9320    2.7380    0.0000 H   0  0  0  0  0  0  0  0  0  0  0  0
    3.4071    0.8724    0.0000 H   0  0  0  0  0  0  0  0  0  0  0  0
    4.4421    0.8166    0.0000 H   0  0  0  0  0  0  0  0  0  0  0  0
    5.0387   -2.4677    0.0000 H   0  0  0  0  0  0  0  0  0  0  0  0
    4.1120   -3.0027    0.0000 H   0  0  0  0  0  0  0  0  0  0  0  0
    5.7531    0.6647    0.0000 H   0  0  0  0  0  0  0  0  0  0  0  0
    4.8265    1.1997    0.0000 H   0  0  0  0  0  0  0  0  0  0  0  0
    5.6155    0.8166    0.0000 H   0  0  0  0  0  0  0  0  0  0  0  0
    4.5293    0.8459    0.0000 H   0  0  0  0  0  0  0  0  0  0  0  0
    3.3976   -3.4152    0.0000 H   0  0  0  0  0  0  0  0  0  0  0  0
    2.4710   -2.8802    0.0000 H   0  0  0  0  0  0  0  0  0  0  0  0
    1.7565   -1.3977    0.0000 H   0  0  0  0  0  0  0  0  0  0  0  0
    5.8178   -2.7656    0.0000 H   0  0  0  0  0  0  0  0  0  0  0  0
    7.1746   -1.5032    0.0000 H   0  0  0  0  0  0  0  0  0  0  0  0
    6.8607   -2.5261    0.0000 H   0  0  0  0  0  0  0  0  0  0  0  0
    5.0057    1.8832    0.0000 H   0  0  0  0  0  0  0  0  0  0  0  0
    3.3976    2.8116    0.0000 H   0  0  0  0  0  0  0  0  0  0  0  0
  1 17  1  0  0  0  0
  2 25  1  0  0  0  0
  3 20  1  0  0  0  0
  3 26  1  0  0  0  0
  4  7  1  0  0  0  0
  4 13  1  0  0  0  0
  4 18  1  0  0  0  0
  5  6  1  0  0  0  0
  5  8  1  0  0  0  0
  5  9  1  0  0  0  0
  5 10  1  6  0  0  0
  6  7  1  0  0  0  0
  6 11  1  0  0  0  0
  6 22  1  1  0  0  0
  7 12  1  0  0  0  0
  7 23  1  6  0  0  0
  8 16  1  0  0  0  0
  8 24  1  1  0  0  0
  8  1  1  0  0  0  0
  9 13  1  0  0  0  0
  9 27  1  0  0  0  0
  9 28  1  0  0  0  0
 10 14  2  0  0  0  0
 10 17  1  0  0  0  0
 11 15  1  0  0  0  0
 11 29  1  0  0  0  0
 11 30  1  0  0  0  0
 12 14  1  0  0  0  0
 12 31  1  0  0  0  0
 12 32  1  0  0  0  0
 13 33  1  0  0  0  0
 13 34  1  0  0  0  0
 14 19  1  0  0  0  0
 15 16  1  0  0  0  0
 15 35  1  0  0  0  0
 15 36  1  0  0  0  0
 16  2  1  0  0  0  0
 16 37  1  1  0  0  0
 17 20  2  0  0  0  0
 18 38  1  0  0  0  0
 18 39  1  0  0  0  0
 18 40  1  0  0  0  0
 19 21  2  0  0  0  0
 19 41  1  0  0  0  0
 20 21  1  0  0  0  0
 21 42  1  0  0  0  0
M  END
>  <DRUGBANK_ID>
DB01565

>  <COMMON_NAME>
Dihydromorphine

>  <CAS_NUMBER>
509-60-4

>  <UNII>
C3S5FRP6JW

>  <SYNONYMS>
Dihydromorphine

$$$$
