
 OpenBabel10282417072D

 40 42  0  0  0  0  0  0  0  0999 V2000
   -1.4203   -1.1455    0.0000 C   0  0  0  0  0  0  0  0  0  0  0  0
   -1.4203   -0.3205    0.0000 C   0  0  0  0  0  0  0  0  0  0  0  0
   -2.1347    0.0919    0.0000 C   0  0  0  0  0  0  0  0  0  0  0  0
   -2.8492   -0.3205    0.0000 C   0  0  0  0  0  0  0  0  0  0  0  0
   -2.8492   -1.1455    0.0000 C   0  0  0  0  0  0  0  0  0  0  0  0
   -2.1347   -1.5580    0.0000 C   0  0  0  0  0  0  0  0  0  0  0  0
   -0.7058    0.0919    0.0000 N   0  0  0  0  0  0  0  0  0  0  0  0
   -0.7058   -1.5580    0.0000 C   0  0  0  0  0  0  0  0  0  0  0  0
    0.0086   -1.1455    0.0000 C   0  0  0  0  0  0  0  0  0  0  0  0
    0.0086   -0.3205    0.0000 C   0  0  0  0  0  0  0  0  0  0  0  0
    0.7231   -1.5580    0.0000 C   0  0  0  0  0  0  0  0  0  0  0  0
    1.4375   -1.1455    0.0000 O   0  0  0  0  0  0  0  0  0  0  0  0
    0.7231   -2.3830    0.0000 O   0  0  0  0  0  0  0  0  0  0  0  0
    0.8093    0.9124    0.0000 N   0  0  0  0  0  0  0  0  0  0  0  0
    0.7231    0.0919    0.0000 C   0  0  0  0  0  0  0  0  0  0  0  0
    1.4767   -0.2436    0.0000 N   0  0  0  0  0  0  0  0  0  0  0  0
    2.0288    0.3694    0.0000 C   0  0  0  0  0  0  0  0  0  0  0  0
    1.6163    1.0839    0.0000 C   0  0  1  0  0  0  0  0  0  0  0  0
    2.8492    0.2832    0.0000 O   0  0  0  0  0  0  0  0  0  0  0  0
    1.5386    1.9052    0.0000 C   0  0  0  0  0  0  0  0  0  0  0  0
    2.2786    1.5758    0.0000 C   0  0  0  0  0  0  0  0  0  0  0  0
    0.7885    2.2487    0.0000 C   0  0  0  0  0  0  0  0  0  0  0  0
    2.2111    2.3831    0.0000 C   0  0  0  0  0  0  0  0  0  0  0  0
   -2.1347    1.1239    0.0000 H   0  0  0  0  0  0  0  0  0  0  0  0
   -3.7429    0.1956    0.0000 H   0  0  0  0  0  0  0  0  0  0  0  0
   -3.7429   -1.6615    0.0000 H   0  0  0  0  0  0  0  0  0  0  0  0
   -2.1347   -2.5900    0.0000 H   0  0  0  0  0  0  0  0  0  0  0  0
   -0.7058   -2.5900    0.0000 H   0  0  0  0  0  0  0  0  0  0  0  0
    2.2490   -1.6140    0.0000 H   0  0  0  0  0  0  0  0  0  0  0  0
    1.6813   -1.2066    0.0000 H   0  0  0  0  0  0  0  0  0  0  0  0
    1.4380    2.9705    0.0000 H   0  0  0  0  0  0  0  0  0  0  0  0
    3.2606    1.1509    0.0000 H   0  0  0  0  0  0  0  0  0  0  0  0
    2.1556    2.6387    0.0000 H   0  0  0  0  0  0  0  0  0  0  0  0
    3.1376    2.2138    0.0000 H   0  0  0  0  0  0  0  0  0  0  0  0
    0.6879    3.3140    0.0000 H   0  0  0  0  0  0  0  0  0  0  0  0
   -0.0837    1.6289    0.0000 H   0  0  0  0  0  0  0  0  0  0  0  0
   -0.1843    2.6942    0.0000 H   0  0  0  0  0  0  0  0  0  0  0  0
    3.1840    1.9377    0.0000 H   0  0  0  0  0  0  0  0  0  0  0  0
    2.1104    3.4484    0.0000 H   0  0  0  0  0  0  0  0  0  0  0  0
    3.0833    3.0029    0.0000 H   0  0  0  0  0  0  0  0  0  0  0  0
  1  2  1  0  0  0  0
  1  6  2  0  0  0  0
  2  3  2  0  0  0  0
  2  7  1  0  0  0  0
  3  4  1  0  0  0  0
  3 24  1  0  0  0  0
  4  5  2  0  0  0  0
  4 25  1  0  0  0  0
  5  6  1  0  0  0  0
  5 26  1  0  0  0  0
  6 27  1  0  0  0  0
  8  1  1  0  0  0  0
  8 28  1  0  0  0  0
  9  8  2  0  0  0  0
  9 11  1  0  0  0  0
 10  7  2  0  0  0  0
 10  9  1  0  0  0  0
 11 12  1  0  0  0  0
 11 13  2  0  0  0  0
 12 29  1  0  0  0  0
 15 10  1  0  0  0  0
 15 14  2  0  0  0  0
 15 16  1  0  0  0  0
 16 30  1  0  0  0  0
 17 16  1  0  0  0  0
 17 19  2  0  0  0  0
 18 14  1  0  0  0  0
 18 17  1  0  0  0  0
 18 20  1  6  0  0  0
 18 21  1  0  0  0  0
 20 23  1  0  0  0  0
 20 31  1  0  0  0  0
 21 32  1  0  0  0  0
 21 33  1  0  0  0  0
 21 34  1  0  0  0  0
 22 20  1  0  0  0  0
 22 35  1  0  0  0  0
 22 36  1  0  0  0  0
 22 37  1  0  0  0  0
 23 38  1  0  0  0  0
 23 39  1  0  0  0  0
 23 40  1  0  0  0  0
M  END
>  <DRUGBANK_ID>
DB04582

>  <COMMON_NAME>
Imazaquin

>  <UNII>
8LZY7C31XA

>  <SYNONYMS>
(R)-imazaquin

$$$$
