967
 OpenBabel10282417072D

 41 44  0  0  0  0  0  0  0  0999 V2000
    1.6500    1.6844    0.0000 Cl  0  0  0  0  0  0  0  0  0  0  0  0
    4.8159   -1.8854    0.0000 N   0  0  0  0  0  0  0  0  0  0  0  0
    6.1800    0.3534    0.0000 N   0  0  0  0  0  0  0  0  0  0  0  0
    4.8159   -0.2354    0.0000 C   0  0  0  0  0  0  0  0  0  0  0  0
    4.8159    0.5896    0.0000 C   0  0  0  0  0  0  0  0  0  0  0  0
    4.1014   -0.6479    0.0000 C   0  0  0  0  0  0  0  0  0  0  0  0
    5.5303   -0.6479    0.0000 C   0  0  0  0  0  0  0  0  0  0  0  0
    4.1014   -1.4729    0.0000 C   0  0  0  0  0  0  0  0  0  0  0  0
    5.5303   -1.4729    0.0000 C   0  0  0  0  0  0  0  0  0  0  0  0
    4.0726    0.9476    0.0000 C   0  0  0  0  0  0  0  0  0  0  0  0
    5.5592    0.9476    0.0000 C   0  0  0  0  0  0  0  0  0  0  0  0
    4.4034    2.3969    0.0000 C   0  0  0  0  0  0  0  0  0  0  0  0
    3.8890    1.7519    0.0000 C   0  0  0  0  0  0  0  0  0  0  0  0
    5.2284    2.3969    0.0000 C   0  0  0  0  0  0  0  0  0  0  0  0
    5.7427    1.7519    0.0000 C   0  0  0  0  0  0  0  0  0  0  0  0
    3.4517    0.3534    0.0000 C   0  0  0  0  0  0  0  0  0  0  0  0
    3.0718    2.0178    0.0000 C   0  0  0  0  0  0  0  0  0  0  0  0
    6.5599    2.0178    0.0000 C   0  0  0  0  0  0  0  0  0  0  0  0
    2.6286    0.6004    0.0000 C   0  0  0  0  0  0  0  0  0  0  0  0
    2.4374    1.4382    0.0000 C   0  0  0  0  0  0  0  0  0  0  0  0
    7.1943    1.4381    0.0000 C   0  0  0  0  0  0  0  0  0  0  0  0
    7.0031    0.6004    0.0000 C   0  0  0  0  0  0  0  0  0  0  0  0
    4.8159   -2.9054    0.0000 H   0  0  0  0  0  0  0  0  0  0  0  0
    3.1748   -0.1129    0.0000 H   0  0  0  0  0  0  0  0  0  0  0  0
    3.1748   -1.1829    0.0000 H   0  0  0  0  0  0  0  0  0  0  0  0
    6.4570   -0.1129    0.0000 H   0  0  0  0  0  0  0  0  0  0  0  0
    6.4569   -1.1829    0.0000 H   0  0  0  0  0  0  0  0  0  0  0  0
    3.1748   -2.0079    0.0000 H   0  0  0  0  0  0  0  0  0  0  0  0
    3.1748   -0.9379    0.0000 H   0  0  0  0  0  0  0  0  0  0  0  0
    6.4570   -2.0079    0.0000 H   0  0  0  0  0  0  0  0  0  0  0  0
    6.4569   -0.9379    0.0000 H   0  0  0  0  0  0  0  0  0  0  0  0
    3.9392    3.3609    0.0000 H   0  0  0  0  0  0  0  0  0  0  0  0
    4.9727    3.3029    0.0000 H   0  0  0  0  0  0  0  0  0  0  0  0
    5.6927    3.3609    0.0000 H   0  0  0  0  0  0  0  0  0  0  0  0
    6.2917    2.5166    0.0000 H   0  0  0  0  0  0  0  0  0  0  0  0
    3.6929   -0.6500    0.0000 H   0  0  0  0  0  0  0  0  0  0  0  0
    2.8538    3.0265    0.0000 H   0  0  0  0  0  0  0  0  0  0  0  0
    6.7780    3.0265    0.0000 H   0  0  0  0  0  0  0  0  0  0  0  0
    1.8748   -0.1044    0.0000 H   0  0  0  0  0  0  0  0  0  0  0  0
    8.1793    1.7460    0.0000 H   0  0  0  0  0  0  0  0  0  0  0  0
    7.7569   -0.1044    0.0000 H   0  0  0  0  0  0  0  0  0  0  0  0
  1 20  1  0  0  0  0
  2  8  1  0  0  0  0
  2  9  1  0  0  0  0
  2 23  1  0  0  0  0
  3 11  1  0  0  0  0
  3 22  2  0  0  0  0
  4  5  2  0  0  0  0
  4  6  1  0  0  0  0
  4  7  1  0  0  0  0
  5 10  1  0  0  0  0
  5 11  1  0  0  0  0
  6  8  1  0  0  0  0
  6 24  1  0  0  0  0
  6 25  1  0  0  0  0
  7  9  1  0  0  0  0
  7 26  1  0  0  0  0
  7 27  1  0  0  0  0
  8 28  1  0  0  0  0
  8 29  1  0  0  0  0
  9 30  1  0  0  0  0
  9 31  1  0  0  0  0
 10 13  2  0  0  0  0
 10 16  1  0  0  0  0
 11 15  2  0  0  0  0
 12 13  1  0  0  0  0
 12 14  1  0  0  0  0
 12 32  1  0  0  0  0
 12 33  1  0  0  0  0
 13 17  1  0  0  0  0
 14 15  1  0  0  0  0
 14 34  1  0  0  0  0
 14 35  1  0  0  0  0
 15 18  1  0  0  0  0
 16 19  2  0  0  0  0
 16 36  1  0  0  0  0
 17 20  2  0  0  0  0
 17 37  1  0  0  0  0
 18 21  2  0  0  0  0
 18 38  1  0  0  0  0
 19 20  1  0  0  0  0
 19 39  1  0  0  0  0
 21 22  1  0  0  0  0
 21 40  1  0  0  0  0
 22 41  1  0  0  0  0
M  END
>  <DRUGBANK_ID>
DB00967

>  <SECONDARY_ACCESSION_NUMBERS>
APRD00324

>  <COMMON_NAME>
Desloratadine

>  <CAS_NUMBER>
100643-71-8

>  <UNII>
FVF865388R

>  <SYNONYMS>
8-Chloro-11-piperidin-4-ylidene-6,11-dihydro-5H-benzo[5,6]cyclohepta[1,2-b]pyridine; 8-chloro-6,11-dihydro-11-(4-piperidinylidene)-5H-benzo(5,6)cyclohepta(1,2-b)pyridine; Descarboethoxyloratadine; Desloratadina; Desloratadine

$$$$
