
 OpenBabel10282417072D

 28 27  0  0  0  0  0  0  0  0999 V2000
    2.1464    0.2107    0.0000 C   0  0  0  0  0  0  0  0  0  0  0  0
    2.1464    1.0348    0.0000 O   0  0  0  0  0  0  0  0  0  0  0  0
    1.4181   -0.2107    0.0000 C   0  0  1  0  0  0  0  0  0  0  0  0
    1.4181   -1.0348    0.0000 N   0  0  0  0  0  0  0  0  0  0  0  0
    0.7090    0.2107    0.0000 C   0  0  0  0  0  0  0  0  0  0  0  0
   -0.0191   -0.2107    0.0000 C   0  0  0  0  0  0  0  0  0  0  0  0
   -0.7281    0.2107    0.0000 C   0  0  0  0  0  0  0  0  0  0  0  0
   -1.4373   -0.2107    0.0000 N   0  0  0  0  0  0  0  0  0  0  0  0
   -2.1656    0.1917    0.0000 C   0  0  0  0  0  0  0  0  0  0  0  0
   -2.8747   -0.2299    0.0000 N   0  0  0  0  0  0  0  0  0  0  0  0
   -2.1656    1.0348    0.0000 N   0  3  0  0  0  0  0  0  0  0  0  0
    2.8747   -0.2107    0.0000 N   0  0  0  0  0  0  0  0  0  0  0  0
    2.3450   -0.7453    0.0000 H   0  0  0  0  0  0  0  0  0  0  0  0
    0.5348   -1.5448    0.0000 H   0  0  0  0  0  0  0  0  0  0  0  0
    2.3014   -1.5448    0.0000 H   0  0  0  0  0  0  0  0  0  0  0  0
    0.7152    1.2807    0.0000 H   0  0  0  0  0  0  0  0  0  0  0  0
   -0.2164    0.7479    0.0000 H   0  0  0  0  0  0  0  0  0  0  0  0
   -0.0253   -1.2807    0.0000 H   0  0  0  0  0  0  0  0  0  0  0  0
   -0.9506   -0.7371    0.0000 H   0  0  0  0  0  0  0  0  0  0  0  0
   -0.7280    1.2807    0.0000 H   0  0  0  0  0  0  0  0  0  0  0  0
   -1.6581    0.7399    0.0000 H   0  0  0  0  0  0  0  0  0  0  0  0
   -1.4219   -1.1951    0.0000 H   0  0  0  0  0  0  0  0  0  0  0  0
   -3.7335    0.2514    0.0000 H   0  0  0  0  0  0  0  0  0  0  0  0
   -2.8621   -1.2143    0.0000 H   0  0  0  0  0  0  0  0  0  0  0  0
   -1.3130    1.5271    0.0000 H   0  0  0  0  0  0  0  0  0  0  0  0
   -3.0182    1.5271    0.0000 H   0  0  0  0  0  0  0  0  0  0  0  0
    2.8738   -1.1952    0.0000 H   0  0  0  0  0  0  0  0  0  0  0  0
    3.7278    0.2807    0.0000 H   0  0  0  0  0  0  0  0  0  0  0  0
  2  1  2  0  0  0  0
  3  1  1  0  0  0  0
  3  4  1  0  0  0  0
  3 13  1  6  0  0  0
  4 14  1  0  0  0  0
  4 15  1  0  0  0  0
  5  3  1  0  0  0  0
  5 16  1  0  0  0  0
  5 17  1  0  0  0  0
  6  5  1  0  0  0  0
  6 18  1  0  0  0  0
  6 19  1  0  0  0  0
  7  6  1  0  0  0  0
  7 20  1  0  0  0  0
  7 21  1  0  0  0  0
  8  7  1  0  0  0  0
  8 22  1  0  0  0  0
  9  8  1  0  0  0  0
 10  9  1  0  0  0  0
 10 23  1  0  0  0  0
 10 24  1  0  0  0  0
 11  9  2  0  0  0  0
 11 25  1  0  0  0  0
 11 26  1  0  0  0  0
 12  1  1  0  0  0  0
 12 27  1  0  0  0  0
 12 28  1  0  0  0  0
M  CHG  1  11   1
M  END
>  <DRUGBANK_ID>
DB02299

>  <SECONDARY_ACCESSION_NUMBERS>
EXPT00385

>  <COMMON_NAME>
Arginineamide

>  <SYNONYMS>
L-arginine amide(1+)

$$$$
