Malic acid.mol
 OpenBabel10282417072D

 15 14  0  0  0  0  0  0  0  0999 V2000
   -1.0717    0.2063    0.0000 C   0  0  0  0  0  0  0  0  0  0  0  0
   -0.3572   -0.2062    0.0000 C   0  0  3  0  0  0  0  0  0  0  0  0
   -0.3572   -1.0313    0.0000 O   0  0  0  0  0  0  0  0  0  0  0  0
    0.3572    0.2063    0.0000 C   0  0  0  0  0  0  0  0  0  0  0  0
    1.0717   -0.2062    0.0000 C   0  0  0  0  0  0  0  0  0  0  0  0
   -1.0717    1.0313    0.0000 O   0  0  0  0  0  0  0  0  0  0  0  0
   -1.7862   -0.2062    0.0000 O   0  0  0  0  0  0  0  0  0  0  0  0
    1.0717   -1.0312    0.0000 O   0  0  0  0  0  0  0  0  0  0  0  0
    1.7862    0.2063    0.0000 O   0  0  0  0  0  0  0  0  0  0  0  0
   -1.2838   -0.7412    0.0000 H   0  0  0  0  0  0  0  0  0  0  0  0
   -1.1972   -1.5163    0.0000 H   0  0  0  0  0  0  0  0  0  0  0  0
    0.3572    1.2763    0.0000 H   0  0  0  0  0  0  0  0  0  0  0  0
    1.2838    0.7413    0.0000 H   0  0  0  0  0  0  0  0  0  0  0  0
   -2.5977    0.2623    0.0000 H   0  0  0  0  0  0  0  0  0  0  0  0
    2.5977   -0.2622    0.0000 H   0  0  0  0  0  0  0  0  0  0  0  0
  1  2  1  0  0  0  0
  1  6  2  0  0  0  0
  1  7  1  0  0  0  0
  2  3  1  0  0  0  0
  2  4  1  0  0  0  0
  2 10  1  0  0  0  0
  3 11  1  0  0  0  0
  4  5  1  0  0  0  0
  4 12  1  0  0  0  0
  4 13  1  0  0  0  0
  5  8  2  0  0  0  0
  5  9  1  0  0  0  0
  7 14  1  0  0  0  0
  9 15  1  0  0  0  0
M  END
>  <DRUGBANK_ID>
DB12751

>  <COMMON_NAME>
Malic acid

>  <CAS_NUMBER>
6915-15-7

>  <UNII>
817L1N4CKP

>  <SYNONYMS>
Malic acid

$$$$
