
 OpenBabel10282417072D

 53 54  0  0  1  0  0  0  0  0999 V2000
    6.9269  -17.7973    0.0000 C   0  0  0  0  0  0  0  0  0  0  0  0
    6.9269  -18.6223    0.0000 N   0  0  0  0  0  0  0  0  0  0  0  0
    6.2124  -17.3848    0.0000 C   0  0  0  0  0  0  0  0  0  0  0  0
    6.2124  -19.0348    0.0000 C   0  0  0  0  0  0  0  0  0  0  0  0
    5.4979  -17.7973    0.0000 N   0  0  0  0  0  0  0  0  0  0  0  0
    5.4979  -18.6223    0.0000 C   0  0  0  0  0  0  0  0  0  0  0  0
    7.6414  -17.3848    0.0000 C   0  0  0  0  0  0  0  0  0  0  0  0
    8.3558  -17.7973    0.0000 N   0  0  0  0  0  0  0  0  0  0  0  0
    7.6414  -16.5598    0.0000 O   0  0  0  0  0  0  0  0  0  0  0  0
    9.0703  -17.3848    0.0000 C   0  0  2  0  0  0  0  0  0  0  0  0
    9.7848  -17.7973    0.0000 C   0  0  0  0  0  0  0  0  0  0  0  0
    9.0703  -16.5598    0.0000 C   0  0  0  0  0  0  0  0  0  0  0  0
    9.7848  -16.1473    0.0000 C   0  0  0  0  0  0  0  0  0  0  0  0
    9.7848  -15.3222    0.0000 C   0  0  0  0  0  0  0  0  0  0  0  0
   10.4993  -16.5598    0.0000 C   0  0  0  0  0  0  0  0  0  0  0  0
   10.4994  -14.9097    0.0000 C   0  0  0  0  0  0  0  0  0  0  0  0
   11.2138  -16.1473    0.0000 C   0  0  0  0  0  0  0  0  0  0  0  0
   11.2138  -15.3222    0.0000 C   0  0  0  0  0  0  0  0  0  0  0  0
    9.7848  -18.6223    0.0000 O   0  0  0  0  0  0  0  0  0  0  0  0
   10.4993  -17.3848    0.0000 N   0  0  0  0  0  0  0  0  0  0  0  0
   11.2138  -17.7973    0.0000 C   0  0  1  0  0  0  0  0  0  0  0  0
   11.9282  -17.3848    0.0000 C   0  0  0  0  0  0  0  0  0  0  0  0
   12.6427  -17.7973    0.0000 C   0  0  0  0  0  0  0  0  0  0  0  0
   13.3572  -17.3848    0.0000 C   0  0  0  0  0  0  0  0  0  0  0  0
   12.6427  -18.6223    0.0000 C   0  0  0  0  0  0  0  0  0  0  0  0
   11.2138  -18.6223    0.0000 B   0  0  0  0  0  0  0  0  0  0  0  0
   10.4993  -19.0348    0.0000 O   0  0  0  0  0  0  0  0  0  0  0  0
   11.9282  -19.0348    0.0000 O   0  0  0  0  0  0  0  0  0  0  0  0
    6.2124  -16.3528    0.0000 H   0  0  0  0  0  0  0  0  0  0  0  0
    6.2124  -20.0668    0.0000 H   0  0  0  0  0  0  0  0  0  0  0  0
    4.6042  -19.1383    0.0000 H   0  0  0  0  0  0  0  0  0  0  0  0
    8.3558  -18.7818    0.0000 H   0  0  0  0  0  0  0  0  0  0  0  0
    9.0703  -18.4548    0.0000 H   0  0  0  0  0  0  0  0  0  0  0  0
    8.1437  -16.0248    0.0000 H   0  0  0  0  0  0  0  0  0  0  0  0
    9.0703  -15.4898    0.0000 H   0  0  0  0  0  0  0  0  0  0  0  0
    8.8911  -14.8062    0.0000 H   0  0  0  0  0  0  0  0  0  0  0  0
   10.4993  -17.5918    0.0000 H   0  0  0  0  0  0  0  0  0  0  0  0
   10.4995  -13.8777    0.0000 H   0  0  0  0  0  0  0  0  0  0  0  0
   12.1075  -16.6633    0.0000 H   0  0  0  0  0  0  0  0  0  0  0  0
   12.1075  -14.8062    0.0000 H   0  0  0  0  0  0  0  0  0  0  0  0
   10.4993  -16.4003    0.0000 H   0  0  0  0  0  0  0  0  0  0  0  0
   10.2872  -18.3323    0.0000 H   0  0  0  0  0  0  0  0  0  0  0  0
   11.9282  -16.3148    0.0000 H   0  0  0  0  0  0  0  0  0  0  0  0
   12.8548  -16.8498    0.0000 H   0  0  0  0  0  0  0  0  0  0  0  0
   13.5693  -18.3323    0.0000 H   0  0  0  0  0  0  0  0  0  0  0  0
   14.2838  -17.9198    0.0000 H   0  0  0  0  0  0  0  0  0  0  0  0
   13.3572  -16.3148    0.0000 H   0  0  0  0  0  0  0  0  0  0  0  0
   14.2839  -16.8498    0.0000 H   0  0  0  0  0  0  0  0  0  0  0  0
   11.7161  -19.1573    0.0000 H   0  0  0  0  0  0  0  0  0  0  0  0
   13.5693  -19.1573    0.0000 H   0  0  0  0  0  0  0  0  0  0  0  0
   12.6427  -19.6923    0.0000 H   0  0  0  0  0  0  0  0  0  0  0  0
    9.6593  -18.5498    0.0000 H   0  0  0  0  0  0  0  0  0  0  0  0
   11.9282  -20.0048    0.0000 H   0  0  0  0  0  0  0  0  0  0  0  0
  1  7  1  0  0  0  0
  2  1  1  0  0  0  0
  3  1  2  0  0  0  0
  3 29  1  0  0  0  0
  4  2  2  0  0  0  0
  4 30  1  0  0  0  0
  5  3  1  0  0  0  0
  6  4  1  0  0  0  0
  6  5  2  0  0  0  0
  6 31  1  0  0  0  0
  7  8  1  0  0  0  0
  7  9  2  0  0  0  0
  8 32  1  0  0  0  0
 10  8  1  0  0  0  0
 10 11  1  0  0  0  0
 10 12  1  0  0  0  0
 10 33  1  6  0  0  0
 11 19  2  0  0  0  0
 11 20  1  0  0  0  0
 12 13  1  0  0  0  0
 12 34  1  0  0  0  0
 12 35  1  0  0  0  0
 14 13  1  0  0  0  0
 14 36  1  0  0  0  0
 15 13  2  0  0  0  0
 15 37  1  0  0  0  0
 16 14  2  0  0  0  0
 16 38  1  0  0  0  0
 17 15  1  0  0  0  0
 17 39  1  0  0  0  0
 18 16  1  0  0  0  0
 18 17  2  0  0  0  0
 18 40  1  0  0  0  0
 20 21  1  0  0  0  0
 20 41  1  0  0  0  0
 21 22  1  0  0  0  0
 21 26  1  0  0  0  0
 21 42  1  6  0  0  0
 22 23  1  0  0  0  0
 22 43  1  0  0  0  0
 22 44  1  0  0  0  0
 23 24  1  0  0  0  0
 23 25  1  0  0  0  0
 23 45  1  0  0  0  0
 24 46  1  0  0  0  0
 24 47  1  0  0  0  0
 24 48  1  0  0  0  0
 25 49  1  0  0  0  0
 25 50  1  0  0  0  0
 25 51  1  0  0  0  0
 26 27  1  0  0  0  0
 26 28  1  0  0  0  0
 27 52  1  0  0  0  0
 28 53  1  0  0  0  0
M  END
>  <DRUGBANK_ID>
DB00188

>  <SECONDARY_ACCESSION_NUMBERS>
APRD00828; DB07475

>  <COMMON_NAME>
Bortezomib

>  <CAS_NUMBER>
179324-69-7

>  <UNII>
69G8BD63PP

>  <SYNONYMS>
[(1R)-3-methyl-1-({(2S)-3-phenyl-2-[(pyrazin-2-ylcarbonyl)amino]propanoyl}amino)butyl]boronic acid; Bortezomib; N-[(1R)-1-(DIHYDROXYBORYL)-3-methylbutyl]-N-(pyrazin-2-ylcarbonyl)-L-phenylalaninamide

$$$$
