
 OpenBabel10282417072D

180185  0  0  0  0  0  0  0  0999 V2000
   -4.7853   -0.4979    0.0000 C   0  0  1  0  0  0  0  0  0  0  0  0
   -4.7853    0.3286    0.0000 C   0  0  2  0  0  0  0  0  0  0  0  0
   -5.4764   -0.9135    0.0000 O   0  0  0  0  0  0  0  0  0  0  0  0
   -4.0699   -0.9135    0.0000 C   0  0  0  0  0  0  0  0  0  0  0  0
   -5.4764    0.7395    0.0000 N   0  0  0  0  0  0  0  0  0  0  0  0
   -4.0699    0.7395    0.0000 C   0  0  0  0  0  0  0  0  0  0  0  0
   -5.4427   -1.7062    0.0000 C   0  0  3  0  0  0  0  0  0  0  0  0
   -4.0699   -1.7062    0.0000 C   0  0  0  0  0  0  0  0  0  0  0  0
   -3.3158   -0.6380    0.0000 N   0  0  0  0  0  0  0  0  0  0  0  0
   -5.4764    1.5659    0.0000 C   0  0  0  0  0  0  0  0  0  0  0  0
   -3.3835    0.3286    0.0000 N   0  0  0  0  0  0  0  0  0  0  0  0
   -4.0699    1.5659    0.0000 O   0  0  0  0  0  0  0  0  0  0  0  0
   -5.8923   -2.4942    0.0000 C   0  0  3  0  0  0  0  0  0  0  0  0
   -6.2981   -2.0108    0.0000 O   0  0  0  0  0  0  0  0  0  0  0  0
   -3.3158   -1.9383    0.0000 N   0  0  0  0  0  0  0  0  0  0  0  0
   -2.8277   -1.2905    0.0000 C   0  0  0  0  0  0  0  0  0  0  0  0
   -6.1725    1.9720    0.0000 C   0  0  0  0  0  0  0  0  0  0  0  0
   -4.7853    1.9720    0.0000 O   0  0  0  0  0  0  0  0  0  0  0  0
   -2.6536    0.7395    0.0000 C   0  0  1  0  0  0  0  0  0  0  0  0
   -5.1380   -2.2912    0.0000 O   0  0  0  0  0  0  0  0  0  0  0  0
   -6.7187   -2.3249    0.0000 C   0  0  3  0  0  0  0  0  0  0  0  0
   -7.1005   -1.8464    0.0000 C   0  0  3  0  0  0  0  0  0  0  0  0
   -6.1725    2.7744    0.0000 N   0  0  0  0  0  0  0  0  0  0  0  0
   -6.8878    1.5659    0.0000 C   0  0  0  0  0  0  0  0  0  0  0  0
   -2.6536    1.5659    0.0000 C   0  0  2  0  0  0  0  0  0  0  0  0
   -1.9286    0.3286    0.0000 C   0  0  0  0  0  0  0  0  0  0  0  0
   -5.1380   -3.1515    0.0000 C   0  0  3  0  0  0  0  0  0  0  0  0
   -7.5017   -2.5715    0.0000 C   0  0  3  0  0  0  0  0  0  0  0  0
   -6.7187   -1.3631    0.0000 O   0  0  0  0  0  0  0  0  0  0  0  0
   -7.8934   -2.0108    0.0000 C   0  0  0  0  0  0  0  0  0  0  0  0
   -6.8878    3.1756    0.0000 C   0  0  0  0  0  0  0  0  0  0  0  0
   -7.5791    1.9720    0.0000 C   0  0  0  0  0  0  0  0  0  0  0  0
   -6.8878    0.7395    0.0000 C   0  0  0  0  0  0  0  0  0  0  0  0
   -1.9286    1.9720    0.0000 C   0  0  1  0  0  0  0  0  0  0  0  0
   -3.3835    1.9720    0.0000 O   0  0  0  0  0  0  0  0  0  0  0  0
   -4.7321   -3.8668    0.0000 C   0  0  3  0  0  0  0  0  0  0  0  0
   -4.3357   -3.3883    0.0000 O   0  0  0  0  0  0  0  0  0  0  0  0
   -7.5017   -3.3883    0.0000 O   0  0  0  0  0  0  0  0  0  0  0  0
   -8.6037   -1.7401    0.0000 O   0  0  0  0  0  0  0  0  0  0  0  0
   -6.8878    4.0070    0.0000 C   0  0  1  0  0  0  0  0  0  0  0  0
   -7.6129    2.7744    0.0000 N   0  0  0  0  0  0  0  0  0  0  0  0
   -8.3139    1.5659    0.0000 N   0  0  0  0  0  0  0  0  0  0  0  0
   -1.2809    1.5659    0.0000 C   0  0  0  0  0  0  0  0  0  0  0  0
   -1.9286    2.7744    0.0000 C   0  0  0  0  0  0  0  0  0  0  0  0
   -3.9297   -3.7026    0.0000 C   0  0  3  0  0  0  0  0  0  0  0  0
   -4.7321   -4.6741    0.0000 O   0  0  0  0  0  0  0  0  0  0  0  0
   -3.5479   -3.2193    0.0000 C   0  0  3  0  0  0  0  0  0  0  0  0
   -6.1725    4.4227    0.0000 N   0  0  0  0  0  0  0  0  0  0  0  0
   -7.5791    4.4227    0.0000 C   0  0  0  0  0  0  0  0  0  0  0  0
   -0.5510    1.9720    0.0000 N   0  0  0  0  0  0  0  0  0  0  0  0
   -1.2809    0.7395    0.0000 O   0  0  0  0  0  0  0  0  0  0  0  0
   -3.1322   -3.9008    0.0000 C   0  0  3  0  0  0  0  0  0  0  0  0
   -3.5817   -4.4228    0.0000 O   0  0  0  0  0  0  0  0  0  0  0  0
   -2.7600   -3.4707    0.0000 C   0  0  0  0  0  0  0  0  0  0  0  0
   -5.4427    4.0070    0.0000 C   0  0  0  0  0  0  0  0  0  0  0  0
   -7.5791    5.2492    0.0000 C   0  0  0  0  0  0  0  0  0  0  0  0
    0.1305    1.5659    0.0000 C   0  0  2  0  0  0  0  0  0  0  0  0
   -2.3492   -3.8137    0.0000 O   0  0  0  0  0  0  0  0  0  0  0  0
   -3.5817   -5.2155    0.0000 C   0  0  0  0  0  0  0  0  0  0  0  0
   -1.9673   -3.2530    0.0000 O   0  0  0  0  0  0  0  0  0  0  0  0
   -4.7853    4.4227    0.0000 C   0  0  1  0  0  0  0  0  0  0  0  0
   -6.8878    5.6311    0.0000 N   0  0  0  0  0  0  0  0  0  0  0  0
   -8.3139    5.6311    0.0000 O   0  0  0  0  0  0  0  0  0  0  0  0
    0.8554    1.9720    0.0000 C   0  0  0  0  0  0  0  0  0  0  0  0
    0.1305    0.7395    0.0000 C   0  0  1  0  0  0  0  0  0  0  0  0
   -2.8566   -5.6311    0.0000 N   0  0  0  0  0  0  0  0  0  0  0  0
   -4.2776   -5.6311    0.0000 O   0  0  0  0  0  0  0  0  0  0  0  0
   -4.0699    4.0070    0.0000 C   0  0  0  0  0  0  0  0  0  0  0  0
   -4.7853    5.2492    0.0000 N   0  0  0  0  0  0  0  0  0  0  0  0
    1.5806    1.5659    0.0000 N   0  0  0  0  0  0  0  0  0  0  0  0
    0.8554    2.7744    0.0000 O   0  0  0  0  0  0  0  0  0  0  0  0
    0.8554    0.3286    0.0000 C   0  0  0  0  0  0  0  0  0  0  0  0
   -0.5510    0.3286    0.0000 O   0  0  0  0  0  0  0  0  0  0  0  0
   -3.3835    4.4227    0.0000 N   0  0  0  0  0  0  0  0  0  0  0  0
   -4.0699    3.1756    0.0000 O   0  0  0  0  0  0  0  0  0  0  0  0
    1.5806    0.7395    0.0000 C   0  0  0  0  0  0  0  0  0  0  0  0
    2.2330    0.3286    0.0000 C   0  0  0  0  0  0  0  0  0  0  0  0
    2.9532    0.7395    0.0000 C   0  0  0  0  0  0  0  0  0  0  0  0
    3.7122    0.4592    0.0000 N   0  0  0  0  0  0  0  0  0  0  0  0
    2.9532    1.5659    0.0000 S   0  0  0  0  0  0  0  0  0  0  0  0
    4.2196    1.1164    0.0000 C   0  0  0  0  0  0  0  0  0  0  0  0
    3.7122    1.8125    0.0000 C   0  0  0  0  0  0  0  0  0  0  0  0
    5.0559    1.1164    0.0000 C   0  0  0  0  0  0  0  0  0  0  0  0
    5.5055    1.8125    0.0000 N   0  0  0  0  0  0  0  0  0  0  0  0
    5.5055    0.4592    0.0000 S   0  0  0  0  0  0  0  0  0  0  0  0
    6.2933    1.5659    0.0000 C   0  0  0  0  0  0  0  0  0  0  0  0
    6.2933    0.7395    0.0000 C   0  0  0  0  0  0  0  0  0  0  0  0
    6.9893    1.9720    0.0000 C   0  0  0  0  0  0  0  0  0  0  0  0
    7.7143    1.5659    0.0000 N   0  0  0  0  0  0  0  0  0  0  0  0
    6.9893    2.7406    0.0000 O   0  0  0  0  0  0  0  0  0  0  0  0
    8.4249    1.9720    0.0000 C   0  0  0  0  0  0  0  0  0  0  0  0
    8.4249    2.7406    0.0000 C   0  0  0  0  0  0  0  0  0  0  0  0
    7.7143    3.1465    0.0000 C   0  0  0  0  0  0  0  0  0  0  0  0
    7.7143    3.9829    0.0000 S   0  3  0  0  0  0  0  0  0  0  0  0
    6.8106    4.4903    0.0000 C   0  0  0  0  0  0  0  0  0  0  0  0
    8.6037    4.5242    0.0000 C   0  0  0  0  0  0  0  0  0  0  0  0
   -4.7853   -1.2905    0.0000 H   0  0  0  0  0  0  0  0  0  0  0  0
   -4.7853    1.1503    0.0000 H   0  0  0  0  0  0  0  0  0  0  0  0
   -2.6536   -0.0821    0.0000 H   0  0  0  0  0  0  0  0  0  0  0  0
    0.1305    2.3588    0.0000 H   0  0  0  0  0  0  0  0  0  0  0  0
    0.1305   -0.0821    0.0000 H   0  0  0  0  0  0  0  0  0  0  0  0
   -6.3321    0.2527    0.0000 H   0  0  0  0  0  0  0  0  0  0  0  0
   -6.4825   -1.4539    0.0000 H   0  0  0  0  0  0  0  0  0  0  0  0
   -4.9001   -2.3193    0.0000 H   0  0  0  0  0  0  0  0  0  0  0  0
   -3.3966   -0.6558    0.0000 H   0  0  0  0  0  0  0  0  0  0  0  0
   -5.0454   -1.8402    0.0000 H   0  0  0  0  0  0  0  0  0  0  0  0
   -3.0124   -2.8749    0.0000 H   0  0  0  0  0  0  0  0  0  0  0  0
   -1.7957   -1.2923    0.0000 H   0  0  0  0  0  0  0  0  0  0  0  0
   -6.6636   -3.3935    0.0000 H   0  0  0  0  0  0  0  0  0  0  0  0
   -7.0992   -2.9164    0.0000 H   0  0  0  0  0  0  0  0  0  0  0  0
   -3.5760    1.0236    0.0000 H   0  0  0  0  0  0  0  0  0  0  0  0
   -1.9201   -0.7414    0.0000 H   0  0  0  0  0  0  0  0  0  0  0  0
   -1.0063    0.8710    0.0000 H   0  0  0  0  0  0  0  0  0  0  0  0
   -0.9977   -0.1990    0.0000 H   0  0  0  0  0  0  0  0  0  0  0  0
   -4.1034   -2.8784    0.0000 H   0  0  0  0  0  0  0  0  0  0  0  0
   -6.6389   -3.2043    0.0000 H   0  0  0  0  0  0  0  0  0  0  0  0
   -5.8787   -0.8781    0.0000 H   0  0  0  0  0  0  0  0  0  0  0  0
   -7.9787   -3.0774    0.0000 H   0  0  0  0  0  0  0  0  0  0  0  0
   -8.7980   -2.5823    0.0000 H   0  0  0  0  0  0  0  0  0  0  0  0
   -7.8144    0.2045    0.0000 H   0  0  0  0  0  0  0  0  0  0  0  0
   -5.9612    0.2045    0.0000 H   0  0  0  0  0  0  0  0  0  0  0  0
   -6.8878   -0.3305    0.0000 H   0  0  0  0  0  0  0  0  0  0  0  0
   -2.8517    2.5130    0.0000 H   0  0  0  0  0  0  0  0  0  0  0  0
   -3.3989    2.9419    0.0000 H   0  0  0  0  0  0  0  0  0  0  0  0
   -4.2896   -2.8926    0.0000 H   0  0  0  0  0  0  0  0  0  0  0  0
   -8.3417   -3.8733    0.0000 H   0  0  0  0  0  0  0  0  0  0  0  0
   -8.7577   -0.7824    0.0000 H   0  0  0  0  0  0  0  0  0  0  0  0
   -7.8192    3.4803    0.0000 H   0  0  0  0  0  0  0  0  0  0  0  0
   -9.1571    2.0740    0.0000 H   0  0  0  0  0  0  0  0  0  0  0  0
   -8.3323    0.5816    0.0000 H   0  0  0  0  0  0  0  0  0  0  0  0
   -1.0020    3.3094    0.0000 H   0  0  0  0  0  0  0  0  0  0  0  0
   -2.8552    3.3094    0.0000 H   0  0  0  0  0  0  0  0  0  0  0  0
   -1.9286    3.8444    0.0000 H   0  0  0  0  0  0  0  0  0  0  0  0
   -3.9520   -4.7724    0.0000 H   0  0  0  0  0  0  0  0  0  0  0  0
   -5.5721   -5.1591    0.0000 H   0  0  0  0  0  0  0  0  0  0  0  0
   -3.6001   -4.2880    0.0000 H   0  0  0  0  0  0  0  0  0  0  0  0
   -6.1769    5.4427    0.0000 H   0  0  0  0  0  0  0  0  0  0  0  0
   -8.5105    3.8960    0.0000 H   0  0  0  0  0  0  0  0  0  0  0  0
   -8.5034    4.9618    0.0000 H   0  0  0  0  0  0  0  0  0  0  0  0
   -0.5364    2.9564    0.0000 H   0  0  0  0  0  0  0  0  0  0  0  0
   -3.0612   -2.8332    0.0000 H   0  0  0  0  0  0  0  0  0  0  0  0
   -2.7818   -4.5405    0.0000 H   0  0  0  0  0  0  0  0  0  0  0  0
   -1.9158   -4.1281    0.0000 H   0  0  0  0  0  0  0  0  0  0  0  0
   -5.4180    2.9373    0.0000 H   0  0  0  0  0  0  0  0  0  0  0  0
   -4.4996    3.5016    0.0000 H   0  0  0  0  0  0  0  0  0  0  0  0
   -1.7743   -4.5950    0.0000 H   0  0  0  0  0  0  0  0  0  0  0  0
   -1.2772   -3.9346    0.0000 H   0  0  0  0  0  0  0  0  0  0  0  0
   -5.7225    4.9389    0.0000 H   0  0  0  0  0  0  0  0  0  0  0  0
   -6.0446    5.1228    0.0000 H   0  0  0  0  0  0  0  0  0  0  0  0
   -6.8692    6.6154    0.0000 H   0  0  0  0  0  0  0  0  0  0  0  0
   -2.8535   -6.6156    0.0000 H   0  0  0  0  0  0  0  0  0  0  0  0
   -2.0056   -5.1362    0.0000 H   0  0  0  0  0  0  0  0  0  0  0  0
   -3.9020    5.7592    0.0000 H   0  0  0  0  0  0  0  0  0  0  0  0
   -5.6686    5.7592    0.0000 H   0  0  0  0  0  0  0  0  0  0  0  0
    2.4300    2.0637    0.0000 H   0  0  0  0  0  0  0  0  0  0  0  0
    0.8639   -0.7414    0.0000 H   0  0  0  0  0  0  0  0  0  0  0  0
    1.7778    0.8709    0.0000 H   0  0  0  0  0  0  0  0  0  0  0  0
    1.7863   -0.1990    0.0000 H   0  0  0  0  0  0  0  0  0  0  0  0
   -1.4001    0.7976    0.0000 H   0  0  0  0  0  0  0  0  0  0  0  0
   -2.5208    3.9484    0.0000 H   0  0  0  0  0  0  0  0  0  0  0  0
   -3.4041    5.4070    0.0000 H   0  0  0  0  0  0  0  0  0  0  0  0
    0.6438    0.2224    0.0000 H   0  0  0  0  0  0  0  0  0  0  0  0
    1.5497   -0.3301    0.0000 H   0  0  0  0  0  0  0  0  0  0  0  0
    2.2097   -0.7411    0.0000 H   0  0  0  0  0  0  0  0  0  0  0  0
    3.1524   -0.2188    0.0000 H   0  0  0  0  0  0  0  0  0  0  0  0
    4.0304    2.7942    0.0000 H   0  0  0  0  0  0  0  0  0  0  0  0
    7.1365    0.1445    0.0000 H   0  0  0  0  0  0  0  0  0  0  0  0
    7.7185    0.5814    0.0000 H   0  0  0  0  0  0  0  0  0  0  0  0
    9.3504    1.4350    0.0000 H   0  0  0  0  0  0  0  0  0  0  0  0
    9.3521    2.5060    0.0000 H   0  0  0  0  0  0  0  0  0  0  0  0
    9.3503    3.2777    0.0000 H   0  0  0  0  0  0  0  0  0  0  0  0
    8.4212    3.8106    0.0000 H   0  0  0  0  0  0  0  0  0  0  0  0
    6.7889    2.6094    0.0000 H   0  0  0  0  0  0  0  0  0  0  0  0
    6.7870    3.6804    0.0000 H   0  0  0  0  0  0  0  0  0  0  0  0
    6.7978    5.5602    0.0000 H   0  0  0  0  0  0  0  0  0  0  0  0
    5.8904    3.9442    0.0000 H   0  0  0  0  0  0  0  0  0  0  0  0
    5.8776    5.0141    0.0000 H   0  0  0  0  0  0  0  0  0  0  0  0
    9.5425    4.0108    0.0000 H   0  0  0  0  0  0  0  0  0  0  0  0
    8.5790    5.5939    0.0000 H   0  0  0  0  0  0  0  0  0  0  0  0
    9.5177    5.0805    0.0000 H   0  0  0  0  0  0  0  0  0  0  0  0
  1  2  1  0  0  0  0
  1  3  1  0  0  0  0
  1  4  1  0  0  0  0
  1 97  1  1  0  0  0
  2  5  1  0  0  0  0
  2  6  1  0  0  0  0
  2 98  1  1  0  0  0
  3  7  1  0  0  0  0
  4  8  2  0  0  0  0
  4  9  1  0  0  0  0
  5 10  1  0  0  0  0
  5102  1  0  0  0  0
  6 11  1  0  0  0  0
  6 12  2  0  0  0  0
  7 13  1  0  0  0  0
  7 14  1  0  0  0  0
  7103  1  0  0  0  0
  8 15  1  0  0  0  0
  8104  1  0  0  0  0
  9 16  2  0  0  0  0
 10 17  1  0  0  0  0
 10 18  2  0  0  0  0
 11 19  1  0  0  0  0
 11105  1  0  0  0  0
 13 20  1  0  0  0  0
 13 21  1  0  0  0  0
 13106  1  0  0  0  0
 14 22  1  0  0  0  0
 15 16  1  0  0  0  0
 15107  1  0  0  0  0
 16108  1  0  0  0  0
 17 23  2  0  0  0  0
 17 24  1  0  0  0  0
 19 25  1  0  0  0  0
 19 26  1  0  0  0  0
 19 99  1  6  0  0  0
 20 27  1  0  0  0  0
 21 28  1  0  0  0  0
 21 29  1  0  0  0  0
 21109  1  0  0  0  0
 22 30  1  0  0  0  0
 22 28  1  0  0  0  0
 22110  1  0  0  0  0
 23 31  1  0  0  0  0
 24 32  2  0  0  0  0
 24 33  1  0  0  0  0
 25 34  1  0  0  0  0
 25 35  1  0  0  0  0
 25111  1  6  0  0  0
 26112  1  0  0  0  0
 26113  1  0  0  0  0
 26114  1  0  0  0  0
 27 36  1  0  0  0  0
 27 37  1  0  0  0  0
 27115  1  0  0  0  0
 28 38  1  0  0  0  0
 28116  1  0  0  0  0
 29117  1  0  0  0  0
 30 39  1  0  0  0  0
 30118  1  0  0  0  0
 30119  1  0  0  0  0
 31 40  1  0  0  0  0
 31 41  2  0  0  0  0
 32 42  1  0  0  0  0
 32 41  1  0  0  0  0
 33120  1  0  0  0  0
 33121  1  0  0  0  0
 33122  1  0  0  0  0
 34 43  1  0  0  0  0
 34 44  1  0  0  0  0
 34123  1  1  0  0  0
 35124  1  0  0  0  0
 36 45  1  0  0  0  0
 36 46  1  0  0  0  0
 36125  1  0  0  0  0
 37 47  1  0  0  0  0
 38126  1  0  0  0  0
 39127  1  0  0  0  0
 40 48  1  0  0  0  0
 40 49  1  0  0  0  0
 40128  1  1  0  0  0
 42129  1  0  0  0  0
 42130  1  0  0  0  0
 43 50  1  0  0  0  0
 43 51  2  0  0  0  0
 44131  1  0  0  0  0
 44132  1  0  0  0  0
 44133  1  0  0  0  0
 45 52  1  0  0  0  0
 45 53  1  0  0  0  0
 45134  1  0  0  0  0
 46135  1  0  0  0  0
 47 54  1  0  0  0  0
 47 52  1  0  0  0  0
 47136  1  0  0  0  0
 48 55  1  0  0  0  0
 48137  1  0  0  0  0
 49 56  1  0  0  0  0
 49138  1  0  0  0  0
 49139  1  0  0  0  0
 50 57  1  0  0  0  0
 50140  1  0  0  0  0
 52 58  1  0  0  0  0
 52141  1  0  0  0  0
 53 59  1  0  0  0  0
 54 60  1  0  0  0  0
 54142  1  0  0  0  0
 54143  1  0  0  0  0
 55 61  1  0  0  0  0
 55144  1  0  0  0  0
 55145  1  0  0  0  0
 56 62  1  0  0  0  0
 56 63  2  0  0  0  0
 57 64  1  0  0  0  0
 57 65  1  0  0  0  0
 57100  1  1  0  0  0
 58146  1  0  0  0  0
 59 66  1  0  0  0  0
 59 67  2  0  0  0  0
 60147  1  0  0  0  0
 61 68  1  0  0  0  0
 61 69  1  0  0  0  0
 61148  1  1  0  0  0
 62149  1  0  0  0  0
 62150  1  0  0  0  0
 64 70  1  0  0  0  0
 64 71  2  0  0  0  0
 65 72  1  0  0  0  0
 65 73  1  0  0  0  0
 65101  1  6  0  0  0
 66151  1  0  0  0  0
 66152  1  0  0  0  0
 68 74  1  0  0  0  0
 68 75  2  0  0  0  0
 69153  1  0  0  0  0
 69154  1  0  0  0  0
 70 76  1  0  0  0  0
 70155  1  0  0  0  0
 72156  1  0  0  0  0
 72157  1  0  0  0  0
 72158  1  0  0  0  0
 73159  1  0  0  0  0
 74160  1  0  0  0  0
 74161  1  0  0  0  0
 76 77  1  0  0  0  0
 76162  1  0  0  0  0
 76163  1  0  0  0  0
 77 78  1  0  0  0  0
 77164  1  0  0  0  0
 77165  1  0  0  0  0
 78 79  2  0  0  0  0
 78 80  1  0  0  0  0
 79 81  1  0  0  0  0
 80 82  1  0  0  0  0
 81 83  1  0  0  0  0
 81 82  2  0  0  0  0
 82166  1  0  0  0  0
 83 84  2  0  0  0  0
 83 85  1  0  0  0  0
 84 86  1  0  0  0  0
 85 87  1  0  0  0  0
 86 88  1  0  0  0  0
 86 87  2  0  0  0  0
 87167  1  0  0  0  0
 88 89  1  0  0  0  0
 88 90  2  0  0  0  0
 89 91  1  0  0  0  0
 89168  1  0  0  0  0
 91 92  1  0  0  0  0
 91169  1  0  0  0  0
 91170  1  0  0  0  0
 92 93  1  0  0  0  0
 92171  1  0  0  0  0
 92172  1  0  0  0  0
 93 94  1  0  0  0  0
 93173  1  0  0  0  0
 93174  1  0  0  0  0
 94 95  1  0  0  0  0
 94 96  1  0  0  0  0
 95175  1  0  0  0  0
 95176  1  0  0  0  0
 95177  1  0  0  0  0
 96178  1  0  0  0  0
 96179  1  0  0  0  0
 96180  1  0  0  0  0
M  CHG  1  94   1
M  END
>  <DRUGBANK_ID>
DB00290

>  <SECONDARY_ACCESSION_NUMBERS>
APRD00453; EXPT00718

>  <COMMON_NAME>
Bleomycin

>  <CAS_NUMBER>
11056-06-7

>  <UNII>
40S1VHN69B

>  <SYNONYMS>
Bleocin; Bleomicin; Bleomicina; Bleomycin; Bleomycine; Bleomycinum

$$$$
