
 OpenBabel10282417072D

 50 53  0  0  0  0  0  0  0  0999 V2000
    7.9200   -9.6525    0.0000 N   0  0  0  0  0  0  0  0  0  0  0  0
    7.9200  -10.4775    0.0000 C   0  0  0  0  0  0  0  0  0  0  0  0
    8.6213  -10.8900    0.0000 N   0  0  0  0  0  0  0  0  0  0  0  0
    9.3638  -10.4775    0.0000 C   0  0  0  0  0  0  0  0  0  0  0  0
    9.3638   -9.6525    0.0000 C   0  0  0  0  0  0  0  0  0  0  0  0
    8.6213   -9.2400    0.0000 C   0  0  0  0  0  0  0  0  0  0  0  0
    8.6213   -8.4150    0.0000 N   0  0  0  0  0  0  0  0  0  0  0  0
   10.0649   -9.2400    0.0000 N   0  0  0  0  0  0  0  0  0  0  0  0
   10.0649  -10.8900    0.0000 N   0  0  0  0  0  0  0  0  0  0  0  0
   10.7663   -9.6525    0.0000 C   0  0  0  0  0  0  0  0  0  0  0  0
   11.4675   -9.2400    0.0000 O   0  0  0  0  0  0  0  0  0  0  0  0
   10.7663  -10.4775    0.0000 O   0  0  0  0  0  0  0  0  0  0  0  0
   12.1688   -9.6525    0.0000 C   0  0  0  0  0  0  0  0  0  0  0  0
   10.0649   -8.4150    0.0000 C   0  0  0  0  0  0  0  0  0  0  0  0
    7.2188  -10.8900    0.0000 C   0  0  0  0  0  0  0  0  0  0  0  0
    5.8988  -10.9313    0.0000 N   0  0  0  0  0  0  0  0  0  0  0  0
    6.1463  -11.6738    0.0000 C   0  0  0  0  0  0  0  0  0  0  0  0
    6.9713  -11.6738    0.0000 C   0  0  0  0  0  0  0  0  0  0  0  0
    6.5588  -10.3950    0.0000 N   0  0  0  0  0  0  0  0  0  0  0  0
    5.7750  -12.4163    0.0000 N   0  0  0  0  0  0  0  0  0  0  0  0
    6.1875  -13.1175    0.0000 C   0  0  0  0  0  0  0  0  0  0  0  0
    7.0125  -13.1175    0.0000 C   0  0  0  0  0  0  0  0  0  0  0  0
    7.4250  -12.3750    0.0000 C   0  0  0  0  0  0  0  0  0  0  0  0
    5.1975  -10.5188    0.0000 C   0  0  0  0  0  0  0  0  0  0  0  0
    4.4963  -10.9313    0.0000 C   0  0  0  0  0  0  0  0  0  0  0  0
    3.7950  -10.5188    0.0000 C   0  0  0  0  0  0  0  0  0  0  0  0
    3.0525  -10.9313    0.0000 C   0  0  0  0  0  0  0  0  0  0  0  0
    3.0525  -11.7563    0.0000 C   0  0  0  0  0  0  0  0  0  0  0  0
    3.7538  -12.1688    0.0000 C   0  0  0  0  0  0  0  0  0  0  0  0
    4.4963  -11.7563    0.0000 C   0  0  0  0  0  0  0  0  0  0  0  0
    5.1975  -12.1688    0.0000 F   0  0  0  0  0  0  0  0  0  0  0  0
    9.4739   -7.9227    0.0000 H   0  0  0  0  0  0  0  0  0  0  0  0
    7.7687   -7.9227    0.0000 H   0  0  0  0  0  0  0  0  0  0  0  0
   10.0568  -11.8745    0.0000 H   0  0  0  0  0  0  0  0  0  0  0  0
   10.9215  -10.4048    0.0000 H   0  0  0  0  0  0  0  0  0  0  0  0
   12.1601  -10.7225    0.0000 H   0  0  0  0  0  0  0  0  0  0  0  0
   13.0997   -9.1250    0.0000 H   0  0  0  0  0  0  0  0  0  0  0  0
   13.0911  -10.1950    0.0000 H   0  0  0  0  0  0  0  0  0  0  0  0
   10.9915   -7.8800    0.0000 H   0  0  0  0  0  0  0  0  0  0  0  0
    9.1383   -7.8800    0.0000 H   0  0  0  0  0  0  0  0  0  0  0  0
   10.0649   -7.3450    0.0000 H   0  0  0  0  0  0  0  0  0  0  0  0
    5.6751  -14.0133    0.0000 H   0  0  0  0  0  0  0  0  0  0  0  0
    7.5359  -14.0070    0.0000 H   0  0  0  0  0  0  0  0  0  0  0  0
    8.4564  -12.3403    0.0000 H   0  0  0  0  0  0  0  0  0  0  0  0
    5.1975   -9.4488    0.0000 H   0  0  0  0  0  0  0  0  0  0  0  0
    4.2687   -9.9876    0.0000 H   0  0  0  0  0  0  0  0  0  0  0  0
    3.8077   -9.4869    0.0000 H   0  0  0  0  0  0  0  0  0  0  0  0
    2.1630  -10.4079    0.0000 H   0  0  0  0  0  0  0  0  0  0  0  0
    2.1567  -12.2687    0.0000 H   0  0  0  0  0  0  0  0  0  0  0  0
    3.7411  -13.2007    0.0000 H   0  0  0  0  0  0  0  0  0  0  0  0
  1  2  1  0  0  0  0
  1  6  2  0  0  0  0
  2  3  2  0  0  0  0
  2 15  1  0  0  0  0
  3  4  1  0  0  0  0
  4  5  2  0  0  0  0
  4  9  1  0  0  0  0
  5  6  1  0  0  0  0
  5  8  1  0  0  0  0
  6  7  1  0  0  0  0
  7 32  1  0  0  0  0
  7 33  1  0  0  0  0
  8 10  1  0  0  0  0
  8 14  1  0  0  0  0
  9 34  1  0  0  0  0
  9 35  1  0  0  0  0
 10 11  1  0  0  0  0
 10 12  2  0  0  0  0
 11 13  1  0  0  0  0
 13 36  1  0  0  0  0
 13 37  1  0  0  0  0
 13 38  1  0  0  0  0
 14 39  1  0  0  0  0
 14 40  1  0  0  0  0
 14 41  1  0  0  0  0
 15 19  2  0  0  0  0
 16 17  1  0  0  0  0
 16 19  1  0  0  0  0
 17 18  2  0  0  0  0
 17 20  1  0  0  0  0
 18 15  1  0  0  0  0
 18 23  1  0  0  0  0
 20 21  2  0  0  0  0
 21 22  1  0  0  0  0
 21 42  1  0  0  0  0
 22 23  2  0  0  0  0
 22 43  1  0  0  0  0
 23 44  1  0  0  0  0
 24 16  1  0  0  0  0
 24 25  1  0  0  0  0
 24 45  1  0  0  0  0
 24 46  1  0  0  0  0
 25 26  1  0  0  0  0
 25 30  2  0  0  0  0
 26 27  2  0  0  0  0
 26 47  1  0  0  0  0
 27 28  1  0  0  0  0
 27 48  1  0  0  0  0
 28 29  2  0  0  0  0
 28 49  1  0  0  0  0
 29 30  1  0  0  0  0
 29 50  1  0  0  0  0
 30 31  1  0  0  0  0
M  END
>  <DRUGBANK_ID>
DB08931

>  <COMMON_NAME>
Riociguat

>  <CAS_NUMBER>
625115-55-1

>  <UNII>
RU3FE2Y4XI

>  <SYNONYMS>
Methyl N-[4,6-Diamino-2-[1-[(2-fluorophenyl)methyl]-1H-pyrazolo[3,4-b]pyridin-3-yl]-5-pyrimidinyl]-N-methyl-carbaminate; Riociguat; Riociguatum

$$$$
