
 OpenBabel10282417072D

 42 44  0  0  1  0  0  0  0  0999 V2000
   -0.7145    9.2411    0.0000 C   0  0  0  0  0  0  0  0  0  0  0  0
   -0.0000    9.6536    0.0000 C   0  0  0  0  0  0  0  0  0  0  0  0
    0.7145    9.2411    0.0000 C   0  0  0  0  0  0  0  0  0  0  0  0
    0.7145    8.4161    0.0000 C   0  0  0  0  0  0  0  0  0  0  0  0
   -0.0000    8.0036    0.0000 C   0  0  0  0  0  0  0  0  0  0  0  0
   -0.7145    8.4161    0.0000 C   0  0  0  0  0  0  0  0  0  0  0  0
   -0.0000    7.1786    0.0000 C   0  0  0  0  0  0  0  0  0  0  0  0
    0.7145    6.7661    0.0000 O   0  0  0  0  0  0  0  0  0  0  0  0
    0.7145    5.9411    0.0000 C   0  0  0  0  0  0  0  0  0  0  0  0
    1.4289    5.5286    0.0000 C   0  0  0  0  0  0  0  0  0  0  0  0
    1.4289    4.7036    0.0000 C   0  0  0  0  0  0  0  0  0  0  0  0
    0.7145    4.2911    0.0000 C   0  0  0  0  0  0  0  0  0  0  0  0
    0.0000    4.7036    0.0000 C   0  0  0  0  0  0  0  0  0  0  0  0
   -0.0000    5.5286    0.0000 C   0  0  0  0  0  0  0  0  0  0  0  0
    0.7145    3.4661    0.0000 C   0  0  1  0  0  0  0  0  0  0  0  0
    1.3819    2.9812    0.0000 C   0  0  0  0  0  0  0  0  0  0  0  0
    1.1270    2.1965    0.0000 C   0  0  0  0  0  0  0  0  0  0  0  0
    0.3020    2.1965    0.0000 C   0  0  2  0  0  0  0  0  0  0  0  0
    0.0470    2.9812    0.0000 N   0  0  0  0  0  0  0  0  0  0  0  0
   -0.1830    1.5291    0.0000 C   0  0  0  0  0  0  0  0  0  0  0  0
    0.1526    0.7754    0.0000 O   0  0  0  0  0  0  0  0  0  0  0  0
   -1.0034    1.6153    0.0000 N   0  0  0  0  0  0  0  0  0  0  0  0
    1.4289    8.0036    0.0000 F   0  0  0  0  0  0  0  0  0  0  0  0
   -1.6082    9.7571    0.0000 H   0  0  0  0  0  0  0  0  0  0  0  0
    0.0000   10.6856    0.0000 H   0  0  0  0  0  0  0  0  0  0  0  0
    1.6082    9.7571    0.0000 H   0  0  0  0  0  0  0  0  0  0  0  0
   -1.6082    7.9001    0.0000 H   0  0  0  0  0  0  0  0  0  0  0  0
   -0.9266    6.6436    0.0000 H   0  0  0  0  0  0  0  0  0  0  0  0
    0.0000    6.1086    0.0000 H   0  0  0  0  0  0  0  0  0  0  0  0
    2.3226    6.0446    0.0000 H   0  0  0  0  0  0  0  0  0  0  0  0
    2.3226    4.1876    0.0000 H   0  0  0  0  0  0  0  0  0  0  0  0
   -0.8937    4.1876    0.0000 H   0  0  0  0  0  0  0  0  0  0  0  0
   -0.8937    6.0446    0.0000 H   0  0  0  0  0  0  0  0  0  0  0  0
    1.6679    3.9519    0.0000 H   0  0  0  0  0  0  0  0  0  0  0  0
    2.3995    3.3119    0.0000 H   0  0  0  0  0  0  0  0  0  0  0  0
    2.1385    2.2246    0.0000 H   0  0  0  0  0  0  0  0  0  0  0  0
    1.7560    1.3309    0.0000 H   0  0  0  0  0  0  0  0  0  0  0  0
    0.6412    1.2431    0.0000 H   0  0  0  0  0  0  0  0  0  0  0  0
    0.7877    1.2431    0.0000 H   0  0  0  0  0  0  0  0  0  0  0  0
   -0.9231    3.2964    0.0000 H   0  0  0  0  0  0  0  0  0  0  0  0
   -1.4039    2.5147    0.0000 H   0  0  0  0  0  0  0  0  0  0  0  0
   -1.5820    0.8188    0.0000 H   0  0  0  0  0  0  0  0  0  0  0  0
  1  2  2  0  0  0  0
  1  6  1  0  0  0  0
  1 24  1  0  0  0  0
  2  3  1  0  0  0  0
  2 25  1  0  0  0  0
  3  4  2  0  0  0  0
  3 26  1  0  0  0  0
  4  5  1  0  0  0  0
  4 23  1  0  0  0  0
  5  6  2  0  0  0  0
  5  7  1  0  0  0  0
  6 27  1  0  0  0  0
  7  8  1  0  0  0  0
  7 28  1  0  0  0  0
  7 29  1  0  0  0  0
  8  9  1  0  0  0  0
  9 10  2  0  0  0  0
  9 14  1  0  0  0  0
 10 11  1  0  0  0  0
 10 30  1  0  0  0  0
 11 12  2  0  0  0  0
 11 31  1  0  0  0  0
 12 13  1  0  0  0  0
 13 14  2  0  0  0  0
 13 32  1  0  0  0  0
 14 33  1  0  0  0  0
 15 12  1  0  0  0  0
 15 16  1  0  0  0  0
 15 19  1  0  0  0  0
 15 34  1  6  0  0  0
 16 17  1  0  0  0  0
 16 35  1  0  0  0  0
 16 36  1  0  0  0  0
 17 18  1  0  0  0  0
 17 37  1  0  0  0  0
 17 38  1  0  0  0  0
 18 19  1  0  0  0  0
 18 20  1  0  0  0  0
 18 39  1  6  0  0  0
 19 40  1  0  0  0  0
 20 21  2  0  0  0  0
 20 22  1  0  0  0  0
 22 41  1  0  0  0  0
 22 42  1  0  0  0  0
M  END
>  <DRUGBANK_ID>
DB11706

>  <COMMON_NAME>
Vixotrigine

>  <CAS_NUMBER>
934240-30-9

>  <UNII>
QQS4J85K6Y

>  <SYNONYMS>
Raxatrigine; Vixotrigine

$$$$
