
 OpenBabel10282417072D

 60 63  0  0  0  0  0  0  0  0999 V2000
   -1.3960   -0.8258    0.0000 C   0  0  0  0  0  0  0  0  0  0  0  0
   -1.3960   -1.6508    0.0000 C   0  0  1  0  0  0  0  0  0  0  0  0
   -0.6816   -2.0633    0.0000 C   0  0  0  0  0  0  0  0  0  0  0  0
    0.0327   -1.6508    0.0000 C   0  0  0  0  0  0  0  0  0  0  0  0
    0.0327   -0.8258    0.0000 C   0  0  2  0  0  0  0  0  0  0  0  0
   -0.6816   -0.4134    0.0000 C   0  0  0  0  0  0  0  0  0  0  0  0
    0.7472   -2.0633    0.0000 C   0  0  0  0  0  0  0  0  0  0  0  0
    1.4615   -1.6508    0.0000 C   0  0  0  0  0  0  0  0  0  0  0  0
    1.4615   -0.8258    0.0000 C   0  0  2  0  0  0  0  0  0  0  0  0
    0.7472   -0.4134    0.0000 C   0  0  2  0  0  0  0  0  0  0  0  0
    2.1760   -0.4134    0.0000 C   0  0  1  0  0  0  0  0  0  0  0  0
    2.1760    0.4114    0.0000 C   0  0  2  0  0  0  0  0  0  0  0  0
    1.4615    0.8238    0.0000 C   0  0  0  0  0  0  0  0  0  0  0  0
    0.7472    0.4114    0.0000 C   0  0  0  0  0  0  0  0  0  0  0  0
    3.6047   -0.4134    0.0000 C   0  0  0  0  0  0  0  0  0  0  0  0
    3.6047    0.4114    0.0000 C   0  0  0  0  0  0  0  0  0  0  0  0
    2.8903    0.8238    0.0000 C   0  0  2  0  0  0  0  0  0  0  0  0
    0.7487   -1.2384    0.0000 H   0  0  0  0  0  0  0  0  0  0  0  0
    2.1924   -1.2384    0.0000 H   0  0  0  0  0  0  0  0  0  0  0  0
    1.4924   -0.0010    0.0000 H   0  0  0  0  0  0  0  0  0  0  0  0
    2.1924    1.2363    0.0000 C   0  0  0  0  0  0  0  0  0  0  0  0
    2.8934    1.6488    0.0000 C   0  0  0  0  0  0  0  0  0  0  0  0
    0.0309    0.0227    0.0000 C   0  0  0  0  0  0  0  0  0  0  0  0
    3.6111    2.0594    0.0000 C   0  0  0  0  0  0  0  0  0  0  0  0
   -2.1255   -2.0721    0.0000 O   0  0  0  0  0  0  0  0  0  0  0  0
    2.1668    2.0721    0.0000 O   0  0  0  0  0  0  0  0  0  0  0  0
   -2.8696   -1.6423    0.0000 C   0  0  0  0  0  0  0  0  0  0  0  0
   -3.6111   -2.0700    0.0000 C   0  0  0  0  0  0  0  0  0  0  0  0
   -2.8693   -0.8134    0.0000 O   0  0  0  0  0  0  0  0  0  0  0  0
   -2.3226   -0.2908    0.0000 H   0  0  0  0  0  0  0  0  0  0  0  0
   -1.3960    0.2442    0.0000 H   0  0  0  0  0  0  0  0  0  0  0  0
   -2.3227   -1.1159    0.0000 H   0  0  0  0  0  0  0  0  0  0  0  0
   -0.6816   -3.1333    0.0000 H   0  0  0  0  0  0  0  0  0  0  0  0
    0.2451   -2.5982    0.0000 H   0  0  0  0  0  0  0  0  0  0  0  0
   -0.6816    0.6566    0.0000 H   0  0  0  0  0  0  0  0  0  0  0  0
   -1.6082    0.1216    0.0000 H   0  0  0  0  0  0  0  0  0  0  0  0
    0.7473   -3.0953    0.0000 H   0  0  0  0  0  0  0  0  0  0  0  0
    2.3882   -2.1858    0.0000 H   0  0  0  0  0  0  0  0  0  0  0  0
    2.3881   -1.1158    0.0000 H   0  0  0  0  0  0  0  0  0  0  0  0
    1.4614    1.8938    0.0000 H   0  0  0  0  0  0  0  0  0  0  0  0
    0.5348    1.3588    0.0000 H   0  0  0  0  0  0  0  0  0  0  0  0
   -0.1794    0.9464    0.0000 H   0  0  0  0  0  0  0  0  0  0  0  0
   -0.1794   -0.1236    0.0000 H   0  0  0  0  0  0  0  0  0  0  0  0
    4.3613   -1.1700    0.0000 H   0  0  0  0  0  0  0  0  0  0  0  0
    4.5933   -0.0039    0.0000 H   0  0  0  0  0  0  0  0  0  0  0  0
    4.5313    0.9464    0.0000 H   0  0  0  0  0  0  0  0  0  0  0  0
    3.6047    1.4814    0.0000 H   0  0  0  0  0  0  0  0  0  0  0  0
    3.8179    1.3571    0.0000 H   0  0  0  0  0  0  0  0  0  0  0  0
    3.1295    1.7528    0.0000 H   0  0  0  0  0  0  0  0  0  0  0  0
    1.2766    1.7896    0.0000 H   0  0  0  0  0  0  0  0  0  0  0  0
    2.2137    2.3061    0.0000 H   0  0  0  0  0  0  0  0  0  0  0  0
    0.9564    0.5597    0.0000 H   0  0  0  0  0  0  0  0  0  0  0  0
   -0.8969    0.5557    0.0000 H   0  0  0  0  0  0  0  0  0  0  0  0
    0.0286    1.0927    0.0000 H   0  0  0  0  0  0  0  0  0  0  0  0
    4.5356    1.5208    0.0000 H   0  0  0  0  0  0  0  0  0  0  0  0
    3.6153    3.1294    0.0000 H   0  0  0  0  0  0  0  0  0  0  0  0
    4.5398    2.5907    0.0000 H   0  0  0  0  0  0  0  0  0  0  0  0
   -4.5375   -1.5346    0.0000 H   0  0  0  0  0  0  0  0  0  0  0  0
   -3.6115   -3.1400    0.0000 H   0  0  0  0  0  0  0  0  0  0  0  0
   -4.5380   -2.6046    0.0000 H   0  0  0  0  0  0  0  0  0  0  0  0
  1  2  1  0  0  0  0
  1  6  1  0  0  0  0
  1 30  1  0  0  0  0
  1 31  1  0  0  0  0
  2  3  1  0  0  0  0
  2 25  1  0  0  0  0
  2 32  1  6  0  0  0
  3  4  1  0  0  0  0
  3 33  1  0  0  0  0
  3 34  1  0  0  0  0
  4  5  1  0  0  0  0
  4  7  2  0  0  0  0
  5  6  1  0  0  0  0
  5 10  1  0  0  0  0
  5 23  1  1  0  0  0
  6 35  1  0  0  0  0
  6 36  1  0  0  0  0
  7  8  1  0  0  0  0
  7 37  1  0  0  0  0
  8  9  1  0  0  0  0
  8 38  1  0  0  0  0
  8 39  1  0  0  0  0
  9 10  1  0  0  0  0
  9 11  1  0  0  0  0
  9 20  1  1  0  0  0
 10 14  1  0  0  0  0
 10 18  1  6  0  0  0
 11 12  1  0  0  0  0
 11 15  1  0  0  0  0
 11 19  1  6  0  0  0
 12 13  1  0  0  0  0
 12 17  1  0  0  0  0
 12 21  1  1  0  0  0
 13 14  1  0  0  0  0
 13 40  1  0  0  0  0
 13 41  1  0  0  0  0
 14 42  1  0  0  0  0
 14 43  1  0  0  0  0
 15 16  1  0  0  0  0
 15 44  1  0  0  0  0
 15 45  1  0  0  0  0
 16 17  1  0  0  0  0
 16 46  1  0  0  0  0
 16 47  1  0  0  0  0
 17 22  1  0  0  0  0
 17 48  1  6  0  0  0
 21 49  1  0  0  0  0
 21 50  1  0  0  0  0
 21 51  1  0  0  0  0
 22 24  1  0  0  0  0
 22 26  2  0  0  0  0
 23 52  1  0  0  0  0
 23 53  1  0  0  0  0
 23 54  1  0  0  0  0
 24 55  1  0  0  0  0
 24 56  1  0  0  0  0
 24 57  1  0  0  0  0
 25 27  1  0  0  0  0
 27 28  1  0  0  0  0
 27 29  2  0  0  0  0
 28 58  1  0  0  0  0
 28 59  1  0  0  0  0
 28 60  1  0  0  0  0
M  END
>  <DRUGBANK_ID>
DB14626

>  <SECONDARY_ACCESSION_NUMBERS>
DBSALT002259

>  <COMMON_NAME>
Pregnenolone acetate

>  <CAS_NUMBER>
1778-02-5

>  <UNII>
0G0WWV404B

>  <SYNONYMS>
3beta-Hydroxypregn-5-en-20-one acetate

$$$$
