
 OpenBabel10282417072D

 55 56  0  0  1  0  0  0  0  0999 V2000
    9.1805   -4.8012    0.0000 N   0  0  0  0  0  0  0  0  0  0  0  0
    8.4673   -5.2160    0.0000 C   0  0  0  0  0  0  0  0  0  0  0  0
    9.9336   -5.1331    0.0000 C   0  0  2  0  0  0  0  0  0  0  0  0
    7.0381   -5.2203    0.0000 N   0  0  0  0  0  0  0  0  0  0  0  0
    7.7512   -4.8054    0.0000 C   0  0  1  0  0  0  0  0  0  0  0  0
   10.1057   -5.9430    0.0000 C   0  0  0  0  0  0  0  0  0  0  0  0
    6.3219   -3.9891    0.0000 C   0  0  0  0  0  0  0  0  0  0  0  0
    6.3297   -4.8116    0.0000 C   0  0  2  0  0  0  0  0  0  0  0  0
    8.4675   -6.0368    0.0000 O   0  0  0  0  0  0  0  0  0  0  0  0
    9.4971   -6.4941    0.0000 O   0  0  0  0  0  0  0  0  0  0  0  0
    7.0252   -3.5620    0.0000 O   0  0  0  0  0  0  0  0  0  0  0  0
    5.6166   -5.2265    0.0000 C   0  0  0  0  0  0  0  0  0  0  0  0
    9.2616   -3.9778    0.0000 C   0  0  0  0  0  0  0  0  0  0  0  0
   10.8928   -6.1914    0.0000 O   0  0  0  0  0  0  0  0  0  0  0  0
    5.6010   -3.5880    0.0000 O   0  0  0  0  0  0  0  0  0  0  0  0
    4.9035   -4.8207    0.0000 C   0  0  0  0  0  0  0  0  0  0  0  0
   10.4815   -4.5217    0.0000 C   0  0  0  0  0  0  0  0  0  0  0  0
    4.1903   -5.2355    0.0000 C   0  0  0  0  0  0  0  0  0  0  0  0
   10.0667   -3.8085    0.0000 C   0  0  0  0  0  0  0  0  0  0  0  0
    7.7512   -3.9848    0.0000 C   0  0  0  0  0  0  0  0  0  0  0  0
    5.5882   -2.7624    0.0000 C   0  0  0  0  0  0  0  0  0  0  0  0
    3.4742   -4.8250    0.0000 C   0  0  0  0  0  0  0  0  0  0  0  0
    4.1903   -6.0561    0.0000 C   0  0  0  0  0  0  0  0  0  0  0  0
    2.7611   -5.2399    0.0000 C   0  0  0  0  0  0  0  0  0  0  0  0
    3.4772   -6.4710    0.0000 C   0  0  0  0  0  0  0  0  0  0  0  0
    2.7639   -6.0653    0.0000 C   0  0  0  0  0  0  0  0  0  0  0  0
    4.8674   -2.3612    0.0000 C   0  0  0  0  0  0  0  0  0  0  0  0
    9.1033   -5.8080    0.0000 H   0  0  0  0  0  0  0  0  0  0  0  0
    7.0400   -6.2403    0.0000 H   0  0  0  0  0  0  0  0  0  0  0  0
    8.6770   -4.2690    0.0000 H   0  0  0  0  0  0  0  0  0  0  0  0
    7.2537   -4.2721    0.0000 H   0  0  0  0  0  0  0  0  0  0  0  0
    5.6217   -6.2965    0.0000 H   0  0  0  0  0  0  0  0  0  0  0  0
    4.6929   -5.7666    0.0000 H   0  0  0  0  0  0  0  0  0  0  0  0
    8.4649   -3.2636    0.0000 H   0  0  0  0  0  0  0  0  0  0  0  0
    9.5385   -2.9443    0.0000 H   0  0  0  0  0  0  0  0  0  0  0  0
   11.0954   -7.1062    0.0000 H   0  0  0  0  0  0  0  0  0  0  0  0
    4.8985   -3.7507    0.0000 H   0  0  0  0  0  0  0  0  0  0  0  0
    3.9747   -4.2894    0.0000 H   0  0  0  0  0  0  0  0  0  0  0  0
   11.5459   -4.6306    0.0000 H   0  0  0  0  0  0  0  0  0  0  0  0
   11.0616   -3.6226    0.0000 H   0  0  0  0  0  0  0  0  0  0  0  0
   10.5014   -2.8308    0.0000 H   0  0  0  0  0  0  0  0  0  0  0  0
   11.1351   -3.7505    0.0000 H   0  0  0  0  0  0  0  0  0  0  0  0
    8.6778   -3.4498    0.0000 H   0  0  0  0  0  0  0  0  0  0  0  0
    6.8246   -3.4498    0.0000 H   0  0  0  0  0  0  0  0  0  0  0  0
    7.7512   -2.9148    0.0000 H   0  0  0  0  0  0  0  0  0  0  0  0
    6.5064   -2.2130    0.0000 H   0  0  0  0  0  0  0  0  0  0  0  0
    5.5715   -1.6925    0.0000 H   0  0  0  0  0  0  0  0  0  0  0  0
    3.4709   -3.7930    0.0000 H   0  0  0  0  0  0  0  0  0  0  0  0
    5.0849   -6.5706    0.0000 H   0  0  0  0  0  0  0  0  0  0  0  0
    1.8656   -4.7269    0.0000 H   0  0  0  0  0  0  0  0  0  0  0  0
    3.4823   -7.5030    0.0000 H   0  0  0  0  0  0  0  0  0  0  0  0
    1.8727   -6.5857    0.0000 H   0  0  0  0  0  0  0  0  0  0  0  0
    4.8506   -1.2913    0.0000 H   0  0  0  0  0  0  0  0  0  0  0  0
    3.9493   -2.9107    0.0000 H   0  0  0  0  0  0  0  0  0  0  0  0
    3.9325   -1.8408    0.0000 H   0  0  0  0  0  0  0  0  0  0  0  0
  2  1  1  0  0  0  0
  3  1  1  0  0  0  0
  3  6  1  0  0  0  0
  3 28  1  6  0  0  0
  4 29  1  0  0  0  0
  5  2  1  0  0  0  0
  5  4  1  0  0  0  0
  5 20  1  0  0  0  0
  5 30  1  6  0  0  0
  8  4  1  0  0  0  0
  8  7  1  0  0  0  0
  8 31  1  6  0  0  0
  9  2  2  0  0  0  0
 10  6  2  0  0  0  0
 11  7  2  0  0  0  0
 12  8  1  0  0  0  0
 12 32  1  0  0  0  0
 12 33  1  0  0  0  0
 13  1  1  0  0  0  0
 13 34  1  0  0  0  0
 13 35  1  0  0  0  0
 14  6  1  0  0  0  0
 14 36  1  0  0  0  0
 15  7  1  0  0  0  0
 16 12  1  0  0  0  0
 16 37  1  0  0  0  0
 16 38  1  0  0  0  0
 17  3  1  0  0  0  0
 17 39  1  0  0  0  0
 17 40  1  0  0  0  0
 18 16  1  0  0  0  0
 19 13  1  0  0  0  0
 19 17  1  0  0  0  0
 19 41  1  0  0  0  0
 19 42  1  0  0  0  0
 20 43  1  0  0  0  0
 20 44  1  0  0  0  0
 20 45  1  0  0  0  0
 21 15  1  0  0  0  0
 21 27  1  0  0  0  0
 21 46  1  0  0  0  0
 21 47  1  0  0  0  0
 22 18  2  0  0  0  0
 22 48  1  0  0  0  0
 23 18  1  0  0  0  0
 23 49  1  0  0  0  0
 24 22  1  0  0  0  0
 24 50  1  0  0  0  0
 25 23  2  0  0  0  0
 25 51  1  0  0  0  0
 26 24  2  0  0  0  0
 26 25  1  0  0  0  0
 26 52  1  0  0  0  0
 27 53  1  0  0  0  0
 27 54  1  0  0  0  0
 27 55  1  0  0  0  0
M  END
>  <DRUGBANK_ID>
DB00584

>  <SECONDARY_ACCESSION_NUMBERS>
APRD00510

>  <COMMON_NAME>
Enalapril

>  <CAS_NUMBER>
75847-73-3

>  <UNII>
69PN84IO1A

>  <SYNONYMS>
(S)-1-(N-(1-(ethoxycarbonyl)-3-phenylpropyl)-L-alanyl)-L-proline; (S)-1-{(S)-2-[1-((S)-Ethoxycarbonyl)-3-phenyl-propylamino]-propionyl}-pyrrolidine-2-carboxylic acid; 1-(N-((S)-1-carboxy-3-phenylpropyl)-L-alanyl)-L-proline 1'-ethyl ester; Ã¡nalapril; Enalapril; Enalaprila; Enalaprilum

$$$$
