B2Y
 OpenBabel10282417072D

 27 28  0  0  0  0  0  0  0  0999 V2000
   -0.2468    1.8314    0.0000 N   0  0  0  0  0  0  0  0  0  0  0  0
    1.1821    1.0064    0.0000 C   0  0  0  0  0  0  0  0  0  0  0  0
    1.8966    0.5939    0.0000 C   0  0  0  0  0  0  0  0  0  0  0  0
    1.8966   -0.2311    0.0000 C   0  0  0  0  0  0  0  0  0  0  0  0
    1.1821   -0.6436    0.0000 C   0  0  0  0  0  0  0  0  0  0  0  0
    0.4676   -0.2311    0.0000 C   0  0  0  0  0  0  0  0  0  0  0  0
   -0.9613   -0.2311    0.0000 C   0  0  0  0  0  0  0  0  0  0  0  0
   -0.9613   -1.8811    0.0000 C   0  0  0  0  0  0  0  0  0  0  0  0
   -0.2468    1.0064    0.0000 C   0  0  0  0  0  0  0  0  0  0  0  0
    0.4676    0.5939    0.0000 C   0  0  0  0  0  0  0  0  0  0  0  0
   -0.2468   -0.6436    0.0000 C   0  0  0  0  0  0  0  0  0  0  0  0
   -1.6758   -0.6436    0.0000 C   0  0  0  0  0  0  0  0  0  0  0  0
   -1.6758   -1.4686    0.0000 C   0  0  0  0  0  0  0  0  0  0  0  0
   -0.2468   -1.4686    0.0000 C   0  0  0  0  0  0  0  0  0  0  0  0
    0.6365    2.3414    0.0000 H   0  0  0  0  0  0  0  0  0  0  0  0
   -1.1301    2.3414    0.0000 H   0  0  0  0  0  0  0  0  0  0  0  0
    1.1821    2.0384    0.0000 H   0  0  0  0  0  0  0  0  0  0  0  0
    2.7903    1.1099    0.0000 H   0  0  0  0  0  0  0  0  0  0  0  0
    2.7903   -0.7471    0.0000 H   0  0  0  0  0  0  0  0  0  0  0  0
    1.1821   -1.6756    0.0000 H   0  0  0  0  0  0  0  0  0  0  0  0
   -0.9613    0.8009    0.0000 H   0  0  0  0  0  0  0  0  0  0  0  0
   -0.9613   -2.9131    0.0000 H   0  0  0  0  0  0  0  0  0  0  0  0
   -1.1735    0.4714    0.0000 H   0  0  0  0  0  0  0  0  0  0  0  0
   -0.2468   -0.0636    0.0000 H   0  0  0  0  0  0  0  0  0  0  0  0
   -2.5695   -0.1276    0.0000 H   0  0  0  0  0  0  0  0  0  0  0  0
   -2.5695   -1.9846    0.0000 H   0  0  0  0  0  0  0  0  0  0  0  0
    0.6469   -1.9846    0.0000 H   0  0  0  0  0  0  0  0  0  0  0  0
  1  9  1  0  0  0  0
  1 15  1  0  0  0  0
  1 16  1  0  0  0  0
  2  3  2  0  0  0  0
  2 10  1  0  0  0  0
  2 17  1  0  0  0  0
  3  4  1  0  0  0  0
  3 18  1  0  0  0  0
  4  5  2  0  0  0  0
  4 19  1  0  0  0  0
  5  6  1  0  0  0  0
  5 20  1  0  0  0  0
  6 10  2  0  0  0  0
  6 11  1  0  0  0  0
  7 11  2  0  0  0  0
  7 12  1  0  0  0  0
  7 21  1  0  0  0  0
  8 13  1  0  0  0  0
  8 14  2  0  0  0  0
  8 22  1  0  0  0  0
  9 10  1  0  0  0  0
  9 23  1  0  0  0  0
  9 24  1  0  0  0  0
 11 14  1  0  0  0  0
 12 13  2  0  0  0  0
 12 25  1  0  0  0  0
 13 26  1  0  0  0  0
 14 27  1  0  0  0  0
M  END
>  <DRUGBANK_ID>
DB07412

>  <COMMON_NAME>
1-biphenyl-2-ylmethanamine

$$$$
