
 OpenBabel10282417072D

114122  0  0  1  0  0  0  0  0999 V2000
    8.0082   -0.6736    0.0000 C   0  0  0  0  0  0  0  0  0  0  0  0
    7.4433   -0.0724    0.0000 C   0  0  0  0  0  0  0  0  0  0  0  0
    6.6401   -0.2610    0.0000 C   0  0  0  0  0  0  0  0  0  0  0  0
    6.0235    0.3319    0.0000 C   0  0  0  0  0  0  0  0  0  0  0  0
    5.1639    0.1672    0.0000 C   0  0  1  0  0  0  0  0  0  0  0  0
    4.3135    0.3761    0.0000 C   0  0  0  0  0  0  0  0  0  0  0  0
    3.5069    0.0761    0.0000 C   0  0  1  0  0  0  0  0  0  0  0  0
    3.1092   -0.6656    0.0000 C   0  0  0  0  0  0  0  0  0  0  0  0
    3.2979   -1.4687    0.0000 C   0  0  0  0  0  0  0  0  0  0  0  0
    2.5924   -1.8963    0.0000 C   0  0  0  0  0  0  0  0  0  0  0  0
    2.4381   -2.7068    0.0000 C   0  0  0  0  0  0  0  0  0  0  0  0
    1.6591   -2.9784    0.0000 C   0  0  0  0  0  0  0  0  0  0  0  0
    1.0344   -2.4395    0.0000 C   0  0  0  0  0  0  0  0  0  0  0  0
    1.1887   -1.6291    0.0000 C   0  0  0  0  0  0  0  0  0  0  0  0
    1.9677   -1.3575    0.0000 C   0  0  0  0  0  0  0  0  0  0  0  0
    2.2871   -0.5968    0.0000 N   0  0  0  0  0  0  0  0  0  0  0  0
    3.9848   -1.9580    0.0000 C   0  0  0  0  0  0  0  0  0  0  0  0
    4.8406   -1.8675    0.0000 C   0  0  0  0  0  0  0  0  0  0  0  0
    5.5090   -1.3018    0.0000 N   0  0  2  0  0  0  0  0  0  0  0  0
    5.2641   -0.5843    0.0000 C   0  0  0  0  0  0  0  0  0  0  0  0
    6.3520   -1.0665    0.0000 C   0  0  0  0  0  0  0  0  0  0  0  0
    3.2896    0.8719    0.0000 C   0  0  0  0  0  0  0  0  0  0  0  0
    2.4448    0.9749    0.0000 C   0  0  0  0  0  0  0  0  0  0  0  0
    2.2744    1.8775    0.0000 C   0  0  0  0  0  0  0  0  0  0  0  0
    2.8550    2.4637    0.0000 C   0  0  0  0  0  0  0  0  0  0  0  0
    3.6529    2.2539    0.0000 C   0  0  0  0  0  0  0  0  0  0  0  0
    3.8702    1.4581    0.0000 C   0  0  0  0  0  0  0  0  0  0  0  0
    4.6681    1.2483    0.0000 O   0  0  0  0  0  0  0  0  0  0  0  0
    5.2487    1.8344    0.0000 C   0  0  0  0  0  0  0  0  0  0  0  0
    2.4770    3.1970    0.0000 N   0  0  0  0  0  0  0  0  0  0  0  0
    1.6628    3.0640    0.0000 C   0  0  2  0  0  0  0  0  0  0  0  0
    1.5376    2.2486    0.0000 C   0  0  2  0  0  0  0  0  0  0  0  0
    2.0598    1.6099    0.0000 C   0  0  0  0  0  0  0  0  0  0  0  0
    1.6138    0.9159    0.0000 C   0  0  0  0  0  0  0  0  0  0  0  0
    0.6436    1.1339    0.0000 N   0  0  3  0  0  0  0  0  0  0  0  0
    0.7688    1.9493    0.0000 C   0  0  1  0  0  0  0  0  0  0  0  0
    0.1252    2.4654    0.0000 C   0  0  1  0  0  0  0  0  0  0  0  0
   -0.6436    2.1661    0.0000 C   0  0  0  0  0  0  0  0  0  0  0  0
   -0.7688    1.3507    0.0000 C   0  0  0  0  0  0  0  0  0  0  0  0
   -0.1252    0.8346    0.0000 C   0  0  0  0  0  0  0  0  0  0  0  0
    0.2504    3.2809    0.0000 C   0  0  2  0  0  0  0  0  0  0  0  0
    1.0192    3.5802    0.0000 C   0  0  2  0  0  0  0  0  0  0  0  0
    0.7469    4.3590    0.0000 C   0  0  0  0  0  0  0  0  0  0  0  0
   -0.0637    4.5125    0.0000 O   0  0  0  0  0  0  0  0  0  0  0  0
    1.2852    4.9842    0.0000 O   0  0  0  0  0  0  0  0  0  0  0  0
    1.0129    5.7629    0.0000 C   0  0  0  0  0  0  0  0  0  0  0  0
    1.5126    4.2414    0.0000 O   0  0  0  0  0  0  0  0  0  0  0  0
   -0.3932    3.7970    0.0000 O   0  0  0  0  0  0  0  0  0  0  0  0
   -1.1620    3.4977    0.0000 C   0  0  0  0  0  0  0  0  0  0  0  0
   -0.9668    2.5414    0.0000 O   0  0  0  0  0  0  0  0  0  0  0  0
   -1.8056    4.0139    0.0000 C   0  0  0  0  0  0  0  0  0  0  0  0
   -0.5184    2.9816    0.0000 C   0  0  0  0  0  0  0  0  0  0  0  0
   -1.2872    2.6823    0.0000 C   0  0  0  0  0  0  0  0  0  0  0  0
    2.8481    3.9338    0.0000 C   0  0  0  0  0  0  0  0  0  0  0  0
    2.7479    0.3993    0.0000 C   0  0  0  0  0  0  0  0  0  0  0  0
    2.6484    1.2183    0.0000 O   0  0  0  0  0  0  0  0  0  0  0  0
    2.0884   -0.0964    0.0000 O   0  0  0  0  0  0  0  0  0  0  0  0
    1.3294    0.2269    0.0000 C   0  0  0  0  0  0  0  0  0  0  0  0
    7.6992   -1.6980    0.0000 H   0  0  0  0  0  0  0  0  0  0  0  0
    9.0499   -0.4290    0.0000 H   0  0  0  0  0  0  0  0  0  0  0  0
    8.7409   -1.4534    0.0000 H   0  0  0  0  0  0  0  0  0  0  0  0
    7.7523    0.9520    0.0000 H   0  0  0  0  0  0  0  0  0  0  0  0
    6.7106    0.7074    0.0000 H   0  0  0  0  0  0  0  0  0  0  0  0
    6.3169    1.3213    0.0000 H   0  0  0  0  0  0  0  0  0  0  0  0
    6.0320   -0.4584    0.0000 H   0  0  0  0  0  0  0  0  0  0  0  0
    4.2519    1.4443    0.0000 H   0  0  0  0  0  0  0  0  0  0  0  0
    3.4176    0.9612    0.0000 H   0  0  0  0  0  0  0  0  0  0  0  0
    3.2196   -3.3808    0.0000 H   0  0  0  0  0  0  0  0  0  0  0  0
    1.4661   -3.9922    0.0000 H   0  0  0  0  0  0  0  0  0  0  0  0
    0.0599   -2.7792    0.0000 H   0  0  0  0  0  0  0  0  0  0  0  0
    0.4072   -0.9551    0.0000 H   0  0  0  0  0  0  0  0  0  0  0  0
    1.7768    0.2451    0.0000 H   0  0  0  0  0  0  0  0  0  0  0  0
    3.7130   -2.9929    0.0000 H   0  0  0  0  0  0  0  0  0  0  0  0
    4.6820   -2.7697    0.0000 H   0  0  0  0  0  0  0  0  0  0  0  0
    5.2611   -2.8514    0.0000 H   0  0  0  0  0  0  0  0  0  0  0  0
    5.8819   -2.1138    0.0000 H   0  0  0  0  0  0  0  0  0  0  0  0
    4.2225   -0.8290    0.0000 H   0  0  0  0  0  0  0  0  0  0  0  0
    4.3833    0.0232    0.0000 H   0  0  0  0  0  0  0  0  0  0  0  0
    7.0812   -1.8496    0.0000 H   0  0  0  0  0  0  0  0  0  0  0  0
    7.4000   -0.8506    0.0000 H   0  0  0  0  0  0  0  0  0  0  0  0
    1.7393    0.2217    0.0000 H   0  0  0  0  0  0  0  0  0  0  0  0
    4.3792    2.9871    0.0000 H   0  0  0  0  0  0  0  0  0  0  0  0
    6.2835    1.5623    0.0000 H   0  0  0  0  0  0  0  0  0  0  0  0
    4.9669    2.8666    0.0000 H   0  0  0  0  0  0  0  0  0  0  0  0
    6.0017    2.5946    0.0000 H   0  0  0  0  0  0  0  0  0  0  0  0
    2.4230    2.3110    0.0000 H   0  0  0  0  0  0  0  0  0  0  0  0
    3.1281    1.6710    0.0000 H   0  0  0  0  0  0  0  0  0  0  0  0
    2.5992    0.6858    0.0000 H   0  0  0  0  0  0  0  0  0  0  0  0
    2.0199   -0.0740    0.0000 H   0  0  0  0  0  0  0  0  0  0  0  0
    0.9235    0.0984    0.0000 H   0  0  0  0  0  0  0  0  0  0  0  0
    1.6035    1.2799    0.0000 H   0  0  0  0  0  0  0  0  0  0  0  0
   -1.4487    2.8118    0.0000 H   0  0  0  0  0  0  0  0  0  0  0  0
   -1.7305    0.9763    0.0000 H   0  0  0  0  0  0  0  0  0  0  0  0
   -0.2876   -0.2230    0.0000 H   0  0  0  0  0  0  0  0  0  0  0  0
    0.7095    0.1652    0.0000 H   0  0  0  0  0  0  0  0  0  0  0  0
   -0.7467    2.8927    0.0000 H   0  0  0  0  0  0  0  0  0  0  0  0
    1.7110    6.5738    0.0000 H   0  0  0  0  0  0  0  0  0  0  0  0
   -0.0384    5.9620    0.0000 H   0  0  0  0  0  0  0  0  0  0  0  0
    0.6597    6.7729    0.0000 H   0  0  0  0  0  0  0  0  0  0  0  0
    2.4759    4.1277    0.0000 H   0  0  0  0  0  0  0  0  0  0  0  0
   -1.6432    5.0715    0.0000 H   0  0  0  0  0  0  0  0  0  0  0  0
   -2.8027    3.6258    0.0000 H   0  0  0  0  0  0  0  0  0  0  0  0
   -2.6403    4.6834    0.0000 H   0  0  0  0  0  0  0  0  0  0  0  0
   -0.3560    4.0392    0.0000 H   0  0  0  0  0  0  0  0  0  0  0  0
   -1.3531    3.6510    0.0000 H   0  0  0  0  0  0  0  0  0  0  0  0
   -2.1219    3.3517    0.0000 H   0  0  0  0  0  0  0  0  0  0  0  0
   -1.4496    1.6247    0.0000 H   0  0  0  0  0  0  0  0  0  0  0  0
   -2.2843    2.2941    0.0000 H   0  0  0  0  0  0  0  0  0  0  0  0
    3.9164    3.9948    0.0000 H   0  0  0  0  0  0  0  0  0  0  0  0
    2.2612    4.8284    0.0000 H   0  0  0  0  0  0  0  0  0  0  0  0
    3.3294    4.8894    0.0000 H   0  0  0  0  0  0  0  0  0  0  0  0
    1.2003    1.2891    0.0000 H   0  0  0  0  0  0  0  0  0  0  0  0
    0.4741   -0.4160    0.0000 H   0  0  0  0  0  0  0  0  0  0  0  0
    0.3450    0.6462    0.0000 H   0  0  0  0  0  0  0  0  0  0  0  0
  1  2  1  0  0  0  0
  1 59  1  0  0  0  0
  1 60  1  0  0  0  0
  1 61  1  0  0  0  0
  2  3  1  0  0  0  0
  2 62  1  0  0  0  0
  2 63  1  0  0  0  0
  3  4  2  0  0  0  0
  3 21  1  0  0  0  0
  4  5  1  0  0  0  0
  4 64  1  0  0  0  0
  5  6  1  0  0  0  0
  5 20  1  0  0  0  0
  5 65  1  1  0  0  0
  6  7  1  0  0  0  0
  6 66  1  0  0  0  0
  6 67  1  0  0  0  0
  7  8  1  0  0  0  0
  7 22  1  0  0  0  0
  7 55  1  6  0  0  0
  8  9  2  0  0  0  0
  8 16  1  0  0  0  0
  9 10  1  0  0  0  0
  9 17  1  0  0  0  0
 10 11  2  0  0  0  0
 10 15  1  0  0  0  0
 11 12  1  0  0  0  0
 11 68  1  0  0  0  0
 12 13  2  0  0  0  0
 12 69  1  0  0  0  0
 13 14  1  0  0  0  0
 13 70  1  0  0  0  0
 14 15  2  0  0  0  0
 14 71  1  0  0  0  0
 15 16  1  0  0  0  0
 16 72  1  0  0  0  0
 17 18  1  0  0  0  0
 17 73  1  0  0  0  0
 17 74  1  0  0  0  0
 18 75  1  0  0  0  0
 18 76  1  0  0  0  0
 19 18  1  6  0  0  0
 19 20  1  0  0  0  0
 19 21  1  0  0  0  0
 20 77  1  0  0  0  0
 20 78  1  0  0  0  0
 21 79  1  0  0  0  0
 21 80  1  0  0  0  0
 22 23  2  0  0  0  0
 22 27  1  0  0  0  0
 23 24  1  0  0  0  0
 23 81  1  0  0  0  0
 24 25  2  0  0  0  0
 25 26  1  0  0  0  0
 25 30  1  0  0  0  0
 26 27  2  0  0  0  0
 26 82  1  0  0  0  0
 27 28  1  0  0  0  0
 28 29  1  0  0  0  0
 29 83  1  0  0  0  0
 29 84  1  0  0  0  0
 29 85  1  0  0  0  0
 30 54  1  0  0  0  0
 31 30  1  0  0  0  0
 31 32  1  0  0  0  0
 31 42  1  0  0  0  0
 31 86  1  1  0  0  0
 32 24  1  6  0  0  0
 32 33  1  0  0  0  0
 32 36  1  0  0  0  0
 33 34  1  0  0  0  0
 33 87  1  0  0  0  0
 33 88  1  0  0  0  0
 34 35  1  0  0  0  0
 34 89  1  0  0  0  0
 34 90  1  0  0  0  0
 35 40  1  0  0  0  0
 36 35  1  0  0  0  0
 36 37  1  0  0  0  0
 36 91  1  6  0  0  0
 37 38  1  0  0  0  0
 37 41  1  0  0  0  0
 37 52  1  6  0  0  0
 38 39  2  0  0  0  0
 38 92  1  0  0  0  0
 39 40  1  0  0  0  0
 39 93  1  0  0  0  0
 40 94  1  0  0  0  0
 40 95  1  0  0  0  0
 41 42  1  0  0  0  0
 41 48  1  0  0  0  0
 41 96  1  6  0  0  0
 42 43  1  6  0  0  0
 42 47  1  0  0  0  0
 43 44  2  0  0  0  0
 43 45  1  0  0  0  0
 45 46  1  0  0  0  0
 46 97  1  0  0  0  0
 46 98  1  0  0  0  0
 46 99  1  0  0  0  0
 47100  1  0  0  0  0
 48 49  1  0  0  0  0
 49 50  2  0  0  0  0
 49 51  1  0  0  0  0
 51101  1  0  0  0  0
 51102  1  0  0  0  0
 51103  1  0  0  0  0
 52 53  1  0  0  0  0
 52104  1  0  0  0  0
 52105  1  0  0  0  0
 53106  1  0  0  0  0
 53107  1  0  0  0  0
 53108  1  0  0  0  0
 54109  1  0  0  0  0
 54110  1  0  0  0  0
 54111  1  0  0  0  0
 55 56  2  0  0  0  0
 55 57  1  0  0  0  0
 57 58  1  0  0  0  0
 58112  1  0  0  0  0
 58113  1  0  0  0  0
 58114  1  0  0  0  0
M  END
>  <DRUGBANK_ID>
DB12586

>  <COMMON_NAME>
Anhydrovinblastine

>  <CAS_NUMBER>
38390-45-3

>  <UNII>
5B622U08B3

$$$$
