
 OpenBabel10282417072D

 47 48  0  0  1  0  0  0  0  0999 V2000
    0.0000   -1.6500    0.0000 C   0  0  0  0  0  0  0  0  0  0  0  0
   -0.7145   -3.7125    0.0000 C   0  0  0  0  0  0  0  0  0  0  0  0
   -0.7145   -1.2375    0.0000 C   0  0  1  0  0  0  0  0  0  0  0  0
    0.0000   -2.4750    0.0000 C   0  0  0  0  0  0  0  0  0  0  0  0
   -1.4289   -4.1250    0.0000 C   0  0  2  0  0  0  0  0  0  0  0  0
   -2.8579   -4.9500    0.0000 C   0  0  2  0  0  0  0  0  0  0  0  0
   -2.8579   -4.1250    0.0000 C   0  0  2  0  0  0  0  0  0  0  0  0
   -1.4289   -1.6500    0.0000 C   0  0  2  0  0  0  0  0  0  0  0  0
   -2.1434   -3.7125    0.0000 C   0  0  2  0  0  0  0  0  0  0  0  0
    0.7145   -2.8875    0.0000 C   0  0  0  0  0  0  0  0  0  0  0  0
   -2.1434   -5.3625    0.0000 C   0  0  1  0  0  0  0  0  0  0  0  0
   -1.4289   -2.4750    0.0000 C   0  0  1  0  0  0  0  0  0  0  0  0
   -3.5724   -5.3625    0.0000 N   0  0  0  0  0  0  0  0  0  0  0  0
    0.0000   -4.1250    0.0000 O   0  0  0  0  0  0  0  0  0  0  0  0
   -0.7145   -0.4125    0.0000 O   0  0  0  0  0  0  0  0  0  0  0  0
   -3.5724   -3.7125    0.0000 O   0  0  0  0  0  0  0  0  0  0  0  0
    1.4289   -2.4750    0.0000 O   0  0  0  0  0  0  0  0  0  0  0  0
    0.7145   -3.7125    0.0000 O   0  5  0  0  0  0  0  0  0  0  0  0
   -2.1434   -6.1875    0.0000 O   0  0  0  0  0  0  0  0  0  0  0  0
   -3.5724   -7.0125    0.0000 O   0  5  0  0  0  0  0  0  0  0  0  0
   -4.3974   -6.1875    0.0000 O   0  0  0  0  0  0  0  0  0  0  0  0
   -2.7474   -6.1875    0.0000 O   0  0  0  0  0  0  0  0  0  0  0  0
   -1.3184   -0.4125    0.0000 O   0  5  0  0  0  0  0  0  0  0  0  0
   -2.9684   -0.4125    0.0000 O   0  0  0  0  0  0  0  0  0  0  0  0
   -2.1434    0.4125    0.0000 O   0  0  0  0  0  0  0  0  0  0  0  0
   -1.4289   -4.9500    0.0000 O   0  0  0  0  0  0  0  0  0  0  0  0
   -0.7145   -2.8875    0.0000 O   0  0  0  0  0  0  0  0  0  0  0  0
   -2.1434   -2.8875    0.0000 O   0  0  0  0  0  0  0  0  0  0  0  0
   -2.1434   -1.2375    0.0000 O   0  0  0  0  0  0  0  0  0  0  0  0
   -3.5724   -6.1875    0.0000 S   0  0  0  0  0  0  0  0  0  0  0  0
   -2.1434   -0.4125    0.0000 S   0  0  0  0  0  0  0  0  0  0  0  0
    0.0000   -0.8250    0.0000 H   0  0  0  0  0  0  0  0  0  0  0  0
   -1.7111   -3.3498    0.0000 H   0  0  0  0  0  0  0  0  0  0  0  0
   -3.6704   -4.8067    0.0000 H   0  0  0  0  0  0  0  0  0  0  0  0
   -3.6704   -4.2683    0.0000 H   0  0  0  0  0  0  0  0  0  0  0  0
   -1.4289   -0.8250    0.0000 H   0  0  0  0  0  0  0  0  0  0  0  0
   -1.6131   -3.0805    0.0000 H   0  0  0  0  0  0  0  0  0  0  0  0
   -2.8579   -5.7750    0.0000 H   0  0  0  0  0  0  0  0  0  0  0  0
   -2.1434   -2.0625    0.0000 H   0  0  0  0  0  0  0  0  0  0  0  0
    0.8937   -1.1340    0.0000 H   0  0  0  0  0  0  0  0  0  0  0  0
   -0.7145   -2.6425    0.0000 H   0  0  0  0  0  0  0  0  0  0  0  0
    0.2121   -3.1775    0.0000 H   0  0  0  0  0  0  0  0  0  0  0  0
   -4.4557   -4.8525    0.0000 H   0  0  0  0  0  0  0  0  0  0  0  0
    0.0000   -5.0950    0.0000 H   0  0  0  0  0  0  0  0  0  0  0  0
    0.1255    0.0725    0.0000 H   0  0  0  0  0  0  0  0  0  0  0  0
   -3.5724   -2.7425    0.0000 H   0  0  0  0  0  0  0  0  0  0  0  0
   -2.9834   -6.6725    0.0000 H   0  0  0  0  0  0  0  0  0  0  0  0
  1 40  1  0  0  0  0
  2 41  1  0  0  0  0
  2 42  1  0  0  0  0
  3  1  1  0  0  0  0
  3 15  1  0  0  0  0
  3 32  1  6  0  0  0
  4  1  2  0  0  0  0
  5  2  1  0  0  0  0
  5 33  1  6  0  0  0
  6 13  1  0  0  0  0
  6 34  1  1  0  0  0
  7  6  1  0  0  0  0
  7 16  1  0  0  0  0
  7 35  1  6  0  0  0
  8  3  1  0  0  0  0
  8 29  1  0  0  0  0
  8 36  1  1  0  0  0
  9  5  1  0  0  0  0
  9  7  1  0  0  0  0
  9 28  1  0  0  0  0
  9 37  1  1  0  0  0
 10  4  1  0  0  0  0
 11  6  1  0  0  0  0
 11 19  1  0  0  0  0
 11 38  1  1  0  0  0
 12  8  1  0  0  0  0
 12 28  1  0  0  0  0
 12 39  1  6  0  0  0
 13 43  1  0  0  0  0
 14  2  1  0  0  0  0
 14 44  1  0  0  0  0
 15 45  1  0  0  0  0
 16 46  1  0  0  0  0
 17 10  2  0  0  0  0
 18 10  1  0  0  0  0
 19 47  1  0  0  0  0
 26  5  1  0  0  0  0
 26 11  1  0  0  0  0
 27  4  1  0  0  0  0
 27 12  1  0  0  0  0
 30 13  1  0  0  0  0
 30 20  1  0  0  0  0
 30 21  2  0  0  0  0
 30 22  2  0  0  0  0
 31 23  1  0  0  0  0
 31 24  2  0  0  0  0
 31 25  2  0  0  0  0
 31 29  1  0  0  0  0
M  CHG  3  18  -1  20  -1  23  -1
M  END
>  <DRUGBANK_ID>
DB02353

>  <SECONDARY_ACCESSION_NUMBERS>
EXPT01679

>  <COMMON_NAME>
Heparin Disaccharide Iii-S

$$$$
