
 OpenBabel10282417072D

 49 51  0  0  1  0  0  0  0  0999 V2000
    2.3435   -5.5590    0.0000 O   0  0  0  0  0  0  0  0  0  0  0  0
    1.5365   -5.3875    0.0000 C   0  0  2  0  0  0  0  0  0  0  0  0
    0.9234   -5.9395    0.0000 C   0  0  1  0  0  0  0  0  0  0  0  0
    1.0097   -6.7600    0.0000 C   0  0  0  0  0  0  0  0  0  0  0  0
    1.7634   -7.0956    0.0000 O   0  0  0  0  0  0  0  0  0  0  0  0
    1.8496   -7.9161    0.0000 P   0  0  0  0  0  0  0  0  0  0  0  0
    1.9358   -8.7365    0.0000 O   0  0  0  0  0  0  0  0  0  0  0  0
    2.6701   -7.8298    0.0000 O   0  0  0  0  0  0  0  0  0  0  0  0
    1.0291   -8.0023    0.0000 O   0  0  0  0  0  0  0  0  0  0  0  0
    0.2090   -5.5270    0.0000 O   0  0  0  0  0  0  0  0  0  0  0  0
    0.3805   -4.7201    0.0000 C   0  0  2  0  0  0  0  0  0  0  0  0
    1.2010   -4.6338    0.0000 C   0  0  2  0  0  0  0  0  0  0  0  0
    1.6135   -3.9194    0.0000 O   0  0  0  0  0  0  0  0  0  0  0  0
   -0.1715   -4.1070    0.0000 N   0  0  0  0  0  0  0  0  0  0  0  0
   -0.9920   -4.1932    0.0000 C   0  0  0  0  0  0  0  0  0  0  0  0
   -1.3276   -3.4395    0.0000 N   0  0  0  0  0  0  0  0  0  0  0  0
   -0.7145   -2.8875    0.0000 C   0  0  0  0  0  0  0  0  0  0  0  0
   -0.7145   -2.0625    0.0000 C   0  0  0  0  0  0  0  0  0  0  0  0
   -1.4289   -1.6500    0.0000 N   0  0  0  0  0  0  0  0  0  0  0  0
   -1.4289   -0.8250    0.0000 C   0  0  1  0  0  0  0  0  0  0  0  0
   -2.1434   -0.4125    0.0000 C   0  0  0  0  0  0  0  0  0  0  0  0
   -2.1434    0.4125    0.0000 C   0  0  0  0  0  0  0  0  0  0  0  0
   -2.8579    0.8250    0.0000 O   0  0  0  0  0  0  0  0  0  0  0  0
   -1.4289    0.8250    0.0000 O   0  0  0  0  0  0  0  0  0  0  0  0
   -0.7145   -0.4125    0.0000 C   0  0  0  0  0  0  0  0  0  0  0  0
   -0.7145    0.4125    0.0000 O   0  0  0  0  0  0  0  0  0  0  0  0
    0.0000   -0.8250    0.0000 O   0  0  0  0  0  0  0  0  0  0  0  0
    0.0000   -1.6500    0.0000 N   0  0  0  0  0  0  0  0  0  0  0  0
    0.7145   -2.0625    0.0000 C   0  0  0  0  0  0  0  0  0  0  0  0
    0.7145   -2.8875    0.0000 N   0  0  0  0  0  0  0  0  0  0  0  0
    0.0000   -3.3000    0.0000 C   0  0  0  0  0  0  0  0  0  0  0  0
    2.6433   -6.4815    0.0000 H   0  0  0  0  0  0  0  0  0  0  0  0
    1.8134   -6.4210    0.0000 H   0  0  0  0  0  0  0  0  0  0  0  0
    1.9223   -6.3229    0.0000 H   0  0  0  0  0  0  0  0  0  0  0  0
    0.1441   -7.3889    0.0000 H   0  0  0  0  0  0  0  0  0  0  0  0
    1.1215   -7.8241    0.0000 H   0  0  0  0  0  0  0  0  0  0  0  0
    1.1510   -9.3066    0.0000 H   0  0  0  0  0  0  0  0  0  0  0  0
    3.2403   -8.6145    0.0000 H   0  0  0  0  0  0  0  0  0  0  0  0
   -0.6530   -4.9970    0.0000 H   0  0  0  0  0  0  0  0  0  0  0  0
    0.6182   -3.7364    0.0000 H   0  0  0  0  0  0  0  0  0  0  0  0
    2.5835   -3.9194    0.0000 H   0  0  0  0  0  0  0  0  0  0  0  0
   -1.5080   -5.0869    0.0000 H   0  0  0  0  0  0  0  0  0  0  0  0
   -2.2815   -2.1422    0.0000 H   0  0  0  0  0  0  0  0  0  0  0  0
   -2.3555   -1.3600    0.0000 H   0  0  0  0  0  0  0  0  0  0  0  0
   -3.0700   -0.9475    0.0000 H   0  0  0  0  0  0  0  0  0  0  0  0
   -3.0700    0.1225    0.0000 H   0  0  0  0  0  0  0  0  0  0  0  0
   -2.8579    1.7620    0.0000 H   0  0  0  0  0  0  0  0  0  0  0  0
    0.0970    0.8810    0.0000 H   0  0  0  0  0  0  0  0  0  0  0  0
    1.6082   -1.5465    0.0000 H   0  0  0  0  0  0  0  0  0  0  0  0
  1 32  1  0  0  0  0
  2  1  1  0  0  0  0
  2  3  1  0  0  0  0
  2 12  1  0  0  0  0
  2 33  1  1  0  0  0
  3  4  1  0  0  0  0
  3 10  1  0  0  0  0
  3 34  1  6  0  0  0
  4  5  1  0  0  0  0
  4 35  1  0  0  0  0
  4 36  1  0  0  0  0
  5  6  1  0  0  0  0
  6  7  1  0  0  0  0
  6  8  1  0  0  0  0
  6  9  2  0  0  0  0
  7 37  1  0  0  0  0
  8 38  1  0  0  0  0
 10 11  1  0  0  0  0
 11 12  1  0  0  0  0
 11 14  1  0  0  0  0
 11 39  1  6  0  0  0
 12 13  1  0  0  0  0
 12 40  1  1  0  0  0
 13 41  1  0  0  0  0
 14 15  1  0  0  0  0
 14 31  1  0  0  0  0
 15 16  2  0  0  0  0
 15 42  1  0  0  0  0
 16 17  1  0  0  0  0
 17 18  2  0  0  0  0
 17 31  1  0  0  0  0
 18 19  1  0  0  0  0
 18 28  1  0  0  0  0
 19 43  1  0  0  0  0
 20 19  1  0  0  0  0
 20 21  1  0  0  0  0
 20 25  1  0  0  0  0
 20 44  1  6  0  0  0
 21 22  1  0  0  0  0
 21 45  1  0  0  0  0
 21 46  1  0  0  0  0
 22 23  1  0  0  0  0
 22 24  2  0  0  0  0
 23 47  1  0  0  0  0
 25 26  1  0  0  0  0
 25 27  2  0  0  0  0
 26 48  1  0  0  0  0
 28 29  2  0  0  0  0
 29 30  1  0  0  0  0
 29 49  1  0  0  0  0
 30 31  2  0  0  0  0
M  END
>  <DRUGBANK_ID>
DB04418

>  <SECONDARY_ACCESSION_NUMBERS>
EXPT00146

>  <COMMON_NAME>
Adenylosuccinic acid

>  <CAS_NUMBER>
19046-78-7

>  <UNII>
X1B4ZJ0IIV

>  <SYNONYMS>
Aspartyl adenylate; Succinyl AMP

$$$$
