
 OpenBabel10282417072D

 30 31  0  0  0  0  0  0  0  0999 V2000
   -0.3081    0.5844    0.0000 N   0  0  0  0  0  0  0  0  0  0  0  0
    0.4063   -0.6530    0.0000 N   0  0  0  0  0  0  0  0  0  0  0  0
   -0.3081   -1.8905    0.0000 N   0  0  0  0  0  0  0  0  0  0  0  0
    1.1870   -0.4016    0.0000 N   0  0  0  0  0  0  0  0  0  0  0  0
    1.1870   -1.7294    0.0000 N   0  0  0  0  0  0  0  0  0  0  0  0
   -0.3081   -0.2405    0.0000 C   0  0  0  0  0  0  0  0  0  0  0  0
   -1.0225    0.9969    0.0000 C   0  0  0  0  0  0  0  0  0  0  0  0
    0.4063    0.9969    0.0000 C   0  0  0  0  0  0  0  0  0  0  0  0
   -1.0225   -0.6530    0.0000 C   0  0  0  0  0  0  0  0  0  0  0  0
    0.4063   -1.4780    0.0000 C   0  0  0  0  0  0  0  0  0  0  0  0
   -1.0225   -1.4780    0.0000 C   0  0  0  0  0  0  0  0  0  0  0  0
   -1.0225    1.8219    0.0000 C   0  0  0  0  0  0  0  0  0  0  0  0
    0.4063    1.8219    0.0000 C   0  0  0  0  0  0  0  0  0  0  0  0
   -1.7370   -1.8905    0.0000 C   0  0  0  0  0  0  0  0  0  0  0  0
    1.6684   -1.0655    0.0000 C   0  0  0  0  0  0  0  0  0  0  0  0
   -1.9492    0.4619    0.0000 H   0  0  0  0  0  0  0  0  0  0  0  0
   -1.9491    1.5319    0.0000 H   0  0  0  0  0  0  0  0  0  0  0  0
    1.3330    0.4619    0.0000 H   0  0  0  0  0  0  0  0  0  0  0  0
    1.3329    1.5319    0.0000 H   0  0  0  0  0  0  0  0  0  0  0  0
   -1.9162   -0.1370    0.0000 H   0  0  0  0  0  0  0  0  0  0  0  0
   -0.0959    2.3569    0.0000 H   0  0  0  0  0  0  0  0  0  0  0  0
   -1.9491    2.3569    0.0000 H   0  0  0  0  0  0  0  0  0  0  0  0
   -1.0225    2.8919    0.0000 H   0  0  0  0  0  0  0  0  0  0  0  0
    1.3329    2.3569    0.0000 H   0  0  0  0  0  0  0  0  0  0  0  0
   -0.5203    2.3569    0.0000 H   0  0  0  0  0  0  0  0  0  0  0  0
    0.4063    2.8919    0.0000 H   0  0  0  0  0  0  0  0  0  0  0  0
   -2.6636   -1.3555    0.0000 H   0  0  0  0  0  0  0  0  0  0  0  0
   -1.7370   -2.9605    0.0000 H   0  0  0  0  0  0  0  0  0  0  0  0
   -2.6637   -2.4255    0.0000 H   0  0  0  0  0  0  0  0  0  0  0  0
    2.7004   -1.0655    0.0000 H   0  0  0  0  0  0  0  0  0  0  0  0
  1  6  1  0  0  0  0
  1  7  1  0  0  0  0
  1  8  1  0  0  0  0
  2  4  1  0  0  0  0
  2  6  1  0  0  0  0
  2 10  1  0  0  0  0
  3 10  1  0  0  0  0
  3 11  2  0  0  0  0
  4 15  2  0  0  0  0
  5 10  2  0  0  0  0
  5 15  1  0  0  0  0
  6  9  2  0  0  0  0
  7 12  1  0  0  0  0
  7 16  1  0  0  0  0
  7 17  1  0  0  0  0
  8 13  1  0  0  0  0
  8 18  1  0  0  0  0
  8 19  1  0  0  0  0
  9 11  1  0  0  0  0
  9 20  1  0  0  0  0
 11 14  1  0  0  0  0
 12 21  1  0  0  0  0
 12 22  1  0  0  0  0
 12 23  1  0  0  0  0
 13 24  1  0  0  0  0
 13 25  1  0  0  0  0
 13 26  1  0  0  0  0
 14 27  1  0  0  0  0
 14 28  1  0  0  0  0
 14 29  1  0  0  0  0
 15 30  1  0  0  0  0
M  END
>  <DRUGBANK_ID>
DB09283

>  <COMMON_NAME>
Trapidil

>  <CAS_NUMBER>
15421-84-8

>  <UNII>
EYG5Y6355E

>  <SYNONYMS>
Trapidil

$$$$
