1493
 OpenBabel10282417072D

 53 56  0  0  1  0  0  0  0  0999 V2000
    6.8323    1.1889    0.0000 O   0  0  0  0  0  0  0  0  0  0  0  0
    5.3833    0.4537    0.0000 C   0  0  1  0  0  0  0  0  0  0  0  0
    5.3833   -0.3713    0.0000 C   0  0  2  0  0  0  0  0  0  0  0  0
    4.6689   -0.7838    0.0000 C   0  0  1  0  0  0  0  0  0  0  0  0
    3.9544   -0.3713    0.0000 C   0  0  2  0  0  0  0  0  0  0  0  0
    6.1640    0.7051    0.0000 C   0  0  2  0  0  0  0  0  0  0  0  0
    4.6689    0.8662    0.0000 C   0  0  0  0  0  0  0  0  0  0  0  0
    6.1640   -0.6227    0.0000 C   0  0  0  0  0  0  0  0  0  0  0  0
    3.9544    0.4537    0.0000 C   0  0  0  0  0  0  0  0  0  0  0  0
    6.6455    0.0412    0.0000 C   0  0  0  0  0  0  0  0  0  0  0  0
    3.2036   -0.7895    0.0000 C   0  0  2  0  0  0  0  0  0  0  0  0
    4.6821   -1.6431    0.0000 C   0  0  0  0  0  0  0  0  0  0  0  0
    5.3833    1.2787    0.0000 C   0  0  0  0  0  0  0  0  0  0  0  0
    5.9104    1.4902    0.0000 C   0  0  0  0  0  0  0  0  0  0  0  0
    3.9412   -2.0785    0.0000 C   0  0  0  0  0  0  0  0  0  0  0  0
    3.1970   -1.6488    0.0000 C   0  0  0  0  0  0  0  0  0  0  0  0
    2.4389   -0.3241    0.0000 C   0  0  0  0  0  0  0  0  0  0  0  0
    1.6570   -0.7597    0.0000 C   0  0  0  0  0  0  0  0  0  0  0  0
    2.4252   -2.1023    0.0000 C   0  0  0  0  0  0  0  0  0  0  0  0
    6.4635    2.1023    0.0000 C   0  0  0  0  0  0  0  0  0  0  0  0
    1.6500   -1.6547    0.0000 C   0  0  0  0  0  0  0  0  0  0  0  0
    5.4532   -1.0276    0.0000 H   0  0  0  0  0  0  0  0  0  0  0  0
    5.2430   -1.1094    0.0000 H   0  0  0  0  0  0  0  0  0  0  0  0
    4.5260   -0.0413    0.0000 H   0  0  0  0  0  0  0  0  0  0  0  0
    3.2163   -0.1296    0.0000 H   0  0  0  0  0  0  0  0  0  0  0  0
    7.7178    0.7928    0.0000 H   0  0  0  0  0  0  0  0  0  0  0  0
    4.6689    1.9362    0.0000 H   0  0  0  0  0  0  0  0  0  0  0  0
    3.7423    1.4012    0.0000 H   0  0  0  0  0  0  0  0  0  0  0  0
    6.4964   -1.6398    0.0000 H   0  0  0  0  0  0  0  0  0  0  0  0
    7.2210   -0.7887    0.0000 H   0  0  0  0  0  0  0  0  0  0  0  0
    3.0278    0.9887    0.0000 H   0  0  0  0  0  0  0  0  0  0  0  0
    3.9544    1.5237    0.0000 H   0  0  0  0  0  0  0  0  0  0  0  0
    7.7155    0.0412    0.0000 H   0  0  0  0  0  0  0  0  0  0  0  0
    7.1317   -0.9120    0.0000 H   0  0  0  0  0  0  0  0  0  0  0  0
    5.6149   -2.1674    0.0000 H   0  0  0  0  0  0  0  0  0  0  0  0
    4.6924   -2.7131    0.0000 H   0  0  0  0  0  0  0  0  0  0  0  0
    6.3099    1.8137    0.0000 H   0  0  0  0  0  0  0  0  0  0  0  0
    4.4567    1.8137    0.0000 H   0  0  0  0  0  0  0  0  0  0  0  0
    5.3833    2.3487    0.0000 H   0  0  0  0  0  0  0  0  0  0  0  0
    4.8642    1.7145    0.0000 H   0  0  0  0  0  0  0  0  0  0  0  0
    5.5815    2.5084    0.0000 H   0  0  0  0  0  0  0  0  0  0  0  0
    3.9453   -3.1485    0.0000 H   0  0  0  0  0  0  0  0  0  0  0  0
    3.0156   -2.6153    0.0000 H   0  0  0  0  0  0  0  0  0  0  0  0
    2.4595    0.7457    0.0000 H   0  0  0  0  0  0  0  0  0  0  0  0
    1.5216    0.2268    0.0000 H   0  0  0  0  0  0  0  0  0  0  0  0
    0.7366   -0.2140    0.0000 H   0  0  0  0  0  0  0  0  0  0  0  0
    0.7252   -1.2857    0.0000 H   0  0  0  0  0  0  0  0  0  0  0  0
    2.4291   -3.1343    0.0000 H   0  0  0  0  0  0  0  0  0  0  0  0
    7.5097    1.8780    0.0000 H   0  0  0  0  0  0  0  0  0  0  0  0
    6.1347    3.1205    0.0000 H   0  0  0  0  0  0  0  0  0  0  0  0
    7.1809    2.8962    0.0000 H   0  0  0  0  0  0  0  0  0  0  0  0
    0.7213   -2.1861    0.0000 H   0  0  0  0  0  0  0  0  0  0  0  0
    1.6479   -2.7247    0.0000 H   0  0  0  0  0  0  0  0  0  0  0  0
  1 26  1  0  0  0  0
  2  3  1  0  0  0  0
  2  6  1  0  0  0  0
  2  7  1  0  0  0  0
  2 13  1  1  0  0  0
  3  4  1  0  0  0  0
  3  8  1  0  0  0  0
  3 22  1  6  0  0  0
  4  5  1  0  0  0  0
  4 12  1  0  0  0  0
  4 23  1  1  0  0  0
  5  9  1  0  0  0  0
  5 11  1  0  0  0  0
  5 24  1  6  0  0  0
  6  1  1  1  0  0  0
  6 10  1  0  0  0  0
  6 14  1  0  0  0  0
  7  9  1  0  0  0  0
  7 27  1  0  0  0  0
  7 28  1  0  0  0  0
  8 10  1  0  0  0  0
  8 29  1  0  0  0  0
  8 30  1  0  0  0  0
  9 31  1  0  0  0  0
  9 32  1  0  0  0  0
 10 33  1  0  0  0  0
 10 34  1  0  0  0  0
 11 16  1  0  0  0  0
 11 17  1  0  0  0  0
 11 25  1  1  0  0  0
 12 15  1  0  0  0  0
 12 35  1  0  0  0  0
 12 36  1  0  0  0  0
 13 37  1  0  0  0  0
 13 38  1  0  0  0  0
 13 39  1  0  0  0  0
 14 20  1  0  0  0  0
 14 40  1  0  0  0  0
 14 41  1  0  0  0  0
 15 16  1  0  0  0  0
 15 42  1  0  0  0  0
 15 43  1  0  0  0  0
 16 19  2  0  0  0  0
 17 18  1  0  0  0  0
 17 44  1  0  0  0  0
 17 45  1  0  0  0  0
 18 21  1  0  0  0  0
 18 46  1  0  0  0  0
 18 47  1  0  0  0  0
 19 21  1  0  0  0  0
 19 48  1  0  0  0  0
 20 49  1  0  0  0  0
 20 50  1  0  0  0  0
 20 51  1  0  0  0  0
 21 52  1  0  0  0  0
 21 53  1  0  0  0  0
M  END
>  <DRUGBANK_ID>
DB01493

>  <COMMON_NAME>
Ethylestrenol

>  <CAS_NUMBER>
965-90-2

>  <UNII>
ADC79EK5Q8

>  <SYNONYMS>
Ethylestrenol; etilestrenol

$$$$
