
 OpenBabel10282417072D

 36 37  0  0  0  0  0  0  0  0999 V2000
    1.6761   -2.7030    0.0000 P   0  0  0  0  0  0  0  0  0  0  0  0
    0.1408   -0.6699    0.0000 O   0  0  0  0  0  0  0  0  0  0  0  0
   -1.4238   -2.1219    0.0000 O   0  0  0  0  0  0  0  0  0  0  0  0
    1.1912   -2.0356    0.0000 O   0  0  0  0  0  0  0  0  0  0  0  0
    0.9023    0.6399    0.0000 O   0  0  0  0  0  0  0  0  0  0  0  0
    2.1610   -3.3704    0.0000 O   0  0  0  0  0  0  0  0  0  0  0  0
    2.3435   -2.2181    0.0000 O   0  0  0  0  0  0  0  0  0  0  0  0
    1.0088   -3.1878    0.0000 O   0  0  0  0  0  0  0  0  0  0  0  0
   -2.6697    1.8773    0.0000 O   0  0  0  0  0  0  0  0  0  0  0  0
   -0.5264    0.6399    0.0000 N   0  0  0  0  0  0  0  0  0  0  0  0
    0.1879    1.8773    0.0000 N   0  0  0  0  0  0  0  0  0  0  0  0
   -0.5264    3.1147    0.0000 N   0  0  0  0  0  0  0  0  0  0  0  0
   -0.9389   -1.4545    0.0000 C   0  0  2  0  0  0  0  0  0  0  0  0
   -0.1140   -1.4545    0.0000 C   0  0  1  0  0  0  0  0  0  0  0  0
   -1.1938   -0.6699    0.0000 C   0  0  0  0  0  0  0  0  0  0  0  0
   -0.5264   -0.1850    0.0000 C   0  0  1  0  0  0  0  0  0  0  0  0
    0.3708   -2.1219    0.0000 C   0  0  0  0  0  0  0  0  0  0  0  0
   -1.2409    1.0523    0.0000 C   0  0  0  0  0  0  0  0  0  0  0  0
    0.1879    1.0523    0.0000 C   0  0  0  0  0  0  0  0  0  0  0  0
   -1.2409    1.8773    0.0000 C   0  0  0  0  0  0  0  0  0  0  0  0
   -0.5264    2.2897    0.0000 C   0  0  0  0  0  0  0  0  0  0  0  0
   -1.9553    2.2897    0.0000 C   0  0  0  0  0  0  0  0  0  0  0  0
   -2.3885   -2.0205    0.0000 H   0  0  0  0  0  0  0  0  0  0  0  0
    1.7665   -4.2565    0.0000 H   0  0  0  0  0  0  0  0  0  0  0  0
    3.2296   -2.6126    0.0000 H   0  0  0  0  0  0  0  0  0  0  0  0
    0.3262    3.6070    0.0000 H   0  0  0  0  0  0  0  0  0  0  0  0
   -1.3790    3.6069    0.0000 H   0  0  0  0  0  0  0  0  0  0  0  0
   -0.4531   -2.4079    0.0000 H   0  0  0  0  0  0  0  0  0  0  0  0
    0.9428   -1.2871    0.0000 H   0  0  0  0  0  0  0  0  0  0  0  0
   -2.2114   -0.3392    0.0000 H   0  0  0  0  0  0  0  0  0  0  0  0
   -1.3612    0.3869    0.0000 H   0  0  0  0  0  0  0  0  0  0  0  0
    0.4270    0.3007    0.0000 H   0  0  0  0  0  0  0  0  0  0  0  0
   -0.0644   -3.0994    0.0000 H   0  0  0  0  0  0  0  0  0  0  0  0
   -0.6933   -2.2337    0.0000 H   0  0  0  0  0  0  0  0  0  0  0  0
   -2.1346    0.5362    0.0000 H   0  0  0  0  0  0  0  0  0  0  0  0
   -1.9553    3.3217    0.0000 H   0  0  0  0  0  0  0  0  0  0  0  0
  1  4  1  0  0  0  0
  1  6  1  0  0  0  0
  1  7  1  0  0  0  0
  1  8  2  0  0  0  0
  2 14  1  0  0  0  0
  2 16  1  0  0  0  0
  3 23  1  0  0  0  0
  4 17  1  0  0  0  0
  5 19  2  0  0  0  0
  6 24  1  0  0  0  0
  7 25  1  0  0  0  0
  9 22  2  0  0  0  0
 10 18  1  0  0  0  0
 10 19  1  0  0  0  0
 11 19  1  0  0  0  0
 11 21  2  0  0  0  0
 12 21  1  0  0  0  0
 12 26  1  0  0  0  0
 12 27  1  0  0  0  0
 13  3  1  0  0  0  0
 13 14  1  0  0  0  0
 13 15  1  0  0  0  0
 13 28  1  6  0  0  0
 14 17  1  0  0  0  0
 14 29  1  1  0  0  0
 15 16  1  0  0  0  0
 15 30  1  0  0  0  0
 15 31  1  0  0  0  0
 16 10  1  0  0  0  0
 16 32  1  1  0  0  0
 17 33  1  0  0  0  0
 17 34  1  0  0  0  0
 18 20  2  0  0  0  0
 18 35  1  0  0  0  0
 20 21  1  0  0  0  0
 20 22  1  0  0  0  0
 22 36  1  0  0  0  0
M  END
>  <DRUGBANK_ID>
DB04603

>  <COMMON_NAME>
5-Formyl-2'-deoxy-cytidine-5'-monophosphate

$$$$
