617
 OpenBabel10282417072D

 33 34  0  0  0  0  0  0  0  0999 V2000
   -1.9629    0.9246    0.0000 C   0  0  0  0  0  0  0  0  0  0  0  0
   -2.6774   -1.1379    0.0000 C   0  0  0  0  0  0  0  0  0  0  0  0
    0.1805   -0.3129    0.0000 C   0  0  0  0  0  0  0  0  0  0  0  0
   -1.2484    1.3371    0.0000 O   0  0  0  0  0  0  0  0  0  0  0  0
   -2.6774    1.3371    0.0000 O   0  0  0  0  0  0  0  0  0  0  0  0
   -1.2484   -1.1379    0.0000 C   0  0  0  0  0  0  0  0  0  0  0  0
   -0.5340    0.0996    0.0000 N   0  0  0  0  0  0  0  0  0  0  0  0
   -1.9629   -1.5504    0.0000 C   0  0  0  0  0  0  0  0  0  0  0  0
    0.1805   -1.1379    0.0000 O   0  0  0  0  0  0  0  0  0  0  0  0
   -1.2484   -0.3129    0.0000 C   0  0  0  0  0  0  0  0  0  0  0  0
   -1.9629    0.0996    0.0000 C   0  0  0  0  0  0  0  0  0  0  0  0
   -2.6774   -0.3129    0.0000 C   0  0  0  0  0  0  0  0  0  0  0  0
    0.8950    0.0996    0.0000 C   0  0  0  0  0  0  0  0  0  0  0  0
    1.6094   -0.3129    0.0000 O   0  0  0  0  0  0  0  0  0  0  0  0
    2.3239    0.0996    0.0000 C   0  0  0  0  0  0  0  0  0  0  0  0
    3.0384   -0.3129    0.0000 C   0  0  0  0  0  0  0  0  0  0  0  0
    3.7529    0.0996    0.0000 C   0  0  0  0  0  0  0  0  0  0  0  0
    3.7529    0.9246    0.0000 C   0  0  0  0  0  0  0  0  0  0  0  0
    3.0384    1.3371    0.0000 C   0  0  0  0  0  0  0  0  0  0  0  0
    2.3239    0.9246    0.0000 C   0  0  0  0  0  0  0  0  0  0  0  0
    4.4673    1.3371    0.0000 Cl  0  0  0  0  0  0  0  0  0  0  0  0
   -3.5711   -1.6539    0.0000 H   0  0  0  0  0  0  0  0  0  0  0  0
   -0.4369    0.8686    0.0000 H   0  0  0  0  0  0  0  0  0  0  0  0
   -0.3547   -1.6539    0.0000 H   0  0  0  0  0  0  0  0  0  0  0  0
   -0.5340    1.0841    0.0000 H   0  0  0  0  0  0  0  0  0  0  0  0
   -1.9629   -2.5824    0.0000 H   0  0  0  0  0  0  0  0  0  0  0  0
   -3.5711    0.2031    0.0000 H   0  0  0  0  0  0  0  0  0  0  0  0
    0.8950    1.1696    0.0000 H   0  0  0  0  0  0  0  0  0  0  0  0
    1.8217    0.6346    0.0000 H   0  0  0  0  0  0  0  0  0  0  0  0
    3.0384   -1.3449    0.0000 H   0  0  0  0  0  0  0  0  0  0  0  0
    4.6466   -0.4164    0.0000 H   0  0  0  0  0  0  0  0  0  0  0  0
    3.0384    2.3691    0.0000 H   0  0  0  0  0  0  0  0  0  0  0  0
    1.4302    1.4406    0.0000 H   0  0  0  0  0  0  0  0  0  0  0  0
  1  5  2  0  0  0  0
  1 11  1  0  0  0  0
  1  4  1  0  0  0  0
  2 12  2  0  0  0  0
  2  8  1  0  0  0  0
  2 22  1  0  0  0  0
  3  7  1  0  0  0  0
  3  9  2  0  0  0  0
  3 13  1  0  0  0  0
  4 23  1  0  0  0  0
  6  8  2  0  0  0  0
  6 10  1  0  0  0  0
  6 24  1  0  0  0  0
  7 10  1  0  0  0  0
  7 25  1  0  0  0  0
  8 26  1  0  0  0  0
 10 11  2  0  0  0  0
 11 12  1  0  0  0  0
 12 27  1  0  0  0  0
 13 14  1  0  0  0  0
 13 28  1  0  0  0  0
 13 29  1  0  0  0  0
 14 15  1  0  0  0  0
 15 20  2  0  0  0  0
 15 16  1  0  0  0  0
 16 17  2  0  0  0  0
 16 30  1  0  0  0  0
 17 18  1  0  0  0  0
 17 31  1  0  0  0  0
 18 19  2  0  0  0  0
 18 21  1  0  0  0  0
 19 20  1  0  0  0  0
 19 32  1  0  0  0  0
 20 33  1  0  0  0  0
M  END
>  <DRUGBANK_ID>
DB07185

>  <COMMON_NAME>
2-{[(4-CHLOROPHENOXY)ACETYL]AMINO}BENZOIC ACID

$$$$
