
 OpenBabel10282417072D

 45 47  0  0  1  0  0  0  0  0999 V2000
    0.0915   -0.2689    0.0000 O   0  0  0  0  0  0  0  0  0  0  0  0
    0.8059    0.1434    0.0000 C   0  0  0  0  0  0  0  0  0  0  0  0
    0.8059    0.9685    0.0000 N   0  0  0  0  0  0  0  0  0  0  0  0
    1.5204    1.3810    0.0000 C   0  0  0  0  0  0  0  0  0  0  0  0
    1.5204    2.2060    0.0000 C   0  0  0  0  0  0  0  0  0  0  0  0
    2.2349    2.6185    0.0000 F   0  0  0  0  0  0  0  0  0  0  0  0
    1.5204    3.0310    0.0000 F   0  0  0  0  0  0  0  0  0  0  0  0
    0.8059    2.6185    0.0000 F   0  0  0  0  0  0  0  0  0  0  0  0
    2.2349    0.9685    0.0000 C   0  0  0  0  0  0  0  0  0  0  0  0
    2.2349    0.1435    0.0000 C   0  0  0  0  0  0  0  0  0  0  0  0
    1.5204   -0.2689    0.0000 C   0  0  0  0  0  0  0  0  0  0  0  0
    2.9494   -0.2689    0.0000 C   0  0  0  0  0  0  0  0  0  0  0  0
    3.6638    0.1435    0.0000 N   0  0  0  0  0  0  0  0  0  0  0  0
   -0.6230    0.1434    0.0000 C   0  0  0  0  0  0  0  0  0  0  0  0
   -1.3374   -0.2689    0.0000 C   0  0  0  0  0  0  0  0  0  0  0  0
   -2.0519    0.1434    0.0000 C   0  0  0  0  0  0  0  0  0  0  0  0
   -2.7664   -0.2689    0.0000 C   0  0  0  0  0  0  0  0  0  0  0  0
   -3.4808    0.1434    0.0000 O   0  0  0  0  0  0  0  0  0  0  0  0
   -2.7664   -1.0939    0.0000 N   0  0  0  0  0  0  0  0  0  0  0  0
   -2.0988   -1.5789    0.0000 C   0  0  0  0  0  0  0  0  0  0  0  0
   -2.3538   -2.3635    0.0000 C   0  0  2  0  0  0  0  0  0  0  0  0
   -3.1789   -2.3635    0.0000 C   0  0  1  0  0  0  0  0  0  0  0  0
   -3.4337   -1.5789    0.0000 C   0  0  0  0  0  0  0  0  0  0  0  0
   -3.6638   -3.0310    0.0000 O   0  0  0  0  0  0  0  0  0  0  0  0
   -1.8690   -3.0310    0.0000 F   0  0  0  0  0  0  0  0  0  0  0  0
   -2.0519    0.9685    0.0000 C   0  0  0  0  0  0  0  0  0  0  0  0
   -1.3374    1.3810    0.0000 C   0  0  0  0  0  0  0  0  0  0  0  0
   -0.6230    0.9685    0.0000 C   0  0  0  0  0  0  0  0  0  0  0  0
    3.1286    1.4845    0.0000 H   0  0  0  0  0  0  0  0  0  0  0  0
    1.5205   -1.3009    0.0000 H   0  0  0  0  0  0  0  0  0  0  0  0
    2.9494   -1.3389    0.0000 H   0  0  0  0  0  0  0  0  0  0  0  0
    3.8760   -0.8039    0.0000 H   0  0  0  0  0  0  0  0  0  0  0  0
    4.5471   -0.3666    0.0000 H   0  0  0  0  0  0  0  0  0  0  0  0
    3.6639    1.1635    0.0000 H   0  0  0  0  0  0  0  0  0  0  0  0
   -1.3374   -1.3009    0.0000 H   0  0  0  0  0  0  0  0  0  0  0  0
   -1.0812   -1.2483    0.0000 H   0  0  0  0  0  0  0  0  0  0  0  0
   -1.3422   -2.3355    0.0000 H   0  0  0  0  0  0  0  0  0  0  0  0
   -1.2970   -2.1962    0.0000 H   0  0  0  0  0  0  0  0  0  0  0  0
   -2.6931   -3.3169    0.0000 H   0  0  0  0  0  0  0  0  0  0  0  0
   -4.4513   -1.2483    0.0000 H   0  0  0  0  0  0  0  0  0  0  0  0
   -3.6012   -0.5221    0.0000 H   0  0  0  0  0  0  0  0  0  0  0  0
   -4.6285   -2.9297    0.0000 H   0  0  0  0  0  0  0  0  0  0  0  0
   -2.9456    1.4845    0.0000 H   0  0  0  0  0  0  0  0  0  0  0  0
   -1.3374    2.4130    0.0000 H   0  0  0  0  0  0  0  0  0  0  0  0
    0.2707    1.4845    0.0000 H   0  0  0  0  0  0  0  0  0  0  0  0
  1  2  1  0  0  0  0
  1 14  1  0  0  0  0
  2  3  1  0  0  0  0
  2 11  2  0  0  0  0
  3  4  2  0  0  0  0
  4  5  1  0  0  0  0
  4  9  1  0  0  0  0
  5  6  1  0  0  0  0
  5  7  1  0  0  0  0
  5  8  1  0  0  0  0
  9 29  1  0  0  0  0
 10  9  2  0  0  0  0
 10 12  1  0  0  0  0
 11 10  1  0  0  0  0
 11 30  1  0  0  0  0
 12 13  1  0  0  0  0
 12 31  1  0  0  0  0
 12 32  1  0  0  0  0
 13 33  1  0  0  0  0
 13 34  1  0  0  0  0
 14 15  2  0  0  0  0
 14 28  1  0  0  0  0
 15 16  1  0  0  0  0
 15 35  1  0  0  0  0
 16 17  1  0  0  0  0
 16 26  2  0  0  0  0
 17 18  2  0  0  0  0
 17 19  1  0  0  0  0
 19 20  1  0  0  0  0
 19 23  1  0  0  0  0
 20 21  1  0  0  0  0
 20 36  1  0  0  0  0
 20 37  1  0  0  0  0
 21 22  1  0  0  0  0
 21 25  1  0  0  0  0
 21 38  1  6  0  0  0
 22 24  1  0  0  0  0
 22 39  1  1  0  0  0
 23 22  1  0  0  0  0
 23 40  1  0  0  0  0
 23 41  1  0  0  0  0
 24 42  1  0  0  0  0
 26 43  1  0  0  0  0
 27 26  1  0  0  0  0
 27 44  1  0  0  0  0
 28 27  2  0  0  0  0
 28 45  1  0  0  0  0
M  END
>  <DRUGBANK_ID>
DB16735

>  <COMMON_NAME>
PAT-1251

>  <CAS_NUMBER>
2098884-52-5

>  <UNII>
Y3HMF6G24B

$$$$
