
 OpenBabel10282417072D

 40 40  0  0  0  0  0  0  0  0999 V2000
   -2.1324   -0.0017    0.0000 C   0  0  0  0  0  0  0  0  0  0  0  0
   -1.4152    0.4070    0.0000 C   0  0  0  0  0  0  0  0  0  0  0  0
   -2.8045    0.4381    0.0000 C   0  0  0  0  0  0  0  0  0  0  0  0
   -2.1186   -0.8194    0.0000 C   0  0  0  0  0  0  0  0  0  0  0  0
   -0.7119   -0.0190    0.0000 O   0  0  0  0  0  0  0  0  0  0  0  0
   -1.4152    1.2386    0.0000 O   0  0  0  0  0  0  0  0  0  0  0  0
   -3.5600    0.0051    0.0000 C   0  0  0  0  0  0  0  0  0  0  0  0
   -2.8045    1.1865    0.0000 O   0  0  0  0  0  0  0  0  0  0  0  0
   -2.8844   -1.2214    0.0000 C   0  0  0  0  0  0  0  0  0  0  0  0
    0.0087    0.4000    0.0000 C   0  0  0  0  0  0  0  0  0  0  0  0
   -3.5600   -0.8194    0.0000 C   0  0  0  0  0  0  0  0  0  0  0  0
    0.6981   -0.0155    0.0000 C   0  0  3  0  0  0  0  0  0  0  0  0
    1.4222    0.4000    0.0000 C   0  0  0  0  0  0  0  0  0  0  0  0
    0.6981   -0.8229    0.0000 C   0  0  0  0  0  0  0  0  0  0  0  0
    2.1256   -0.0190    0.0000 C   0  0  0  0  0  0  0  0  0  0  0  0
    1.4154   -1.2386    0.0000 C   0  0  0  0  0  0  0  0  0  0  0  0
    2.8428    0.4000    0.0000 C   0  0  0  0  0  0  0  0  0  0  0  0
    3.5600   -0.0329    0.0000 C   0  0  0  0  0  0  0  0  0  0  0  0
   -1.2309   -1.3458    0.0000 H   0  0  0  0  0  0  0  0  0  0  0  0
   -4.4529    0.5225    0.0000 H   0  0  0  0  0  0  0  0  0  0  0  0
   -1.9930    1.6550    0.0000 H   0  0  0  0  0  0  0  0  0  0  0  0
   -2.9119   -2.2530    0.0000 H   0  0  0  0  0  0  0  0  0  0  0  0
    0.0171    1.4700    0.0000 H   0  0  0  0  0  0  0  0  0  0  0  0
    0.9424    0.9226    0.0000 H   0  0  0  0  0  0  0  0  0  0  0  0
   -4.4571   -1.3295    0.0000 H   0  0  0  0  0  0  0  0  0  0  0  0
    0.7096    1.0544    0.0000 H   0  0  0  0  0  0  0  0  0  0  0  0
    1.4309    1.4700    0.0000 H   0  0  0  0  0  0  0  0  0  0  0  0
    2.3546    0.9249    0.0000 H   0  0  0  0  0  0  0  0  0  0  0  0
   -0.2290   -1.3571    0.0000 H   0  0  0  0  0  0  0  0  0  0  0  0
    0.6968   -1.8929    0.0000 H   0  0  0  0  0  0  0  0  0  0  0  0
    2.1211   -1.0890    0.0000 H   0  0  0  0  0  0  0  0  0  0  0  0
    3.0525   -0.5536    0.0000 H   0  0  0  0  0  0  0  0  0  0  0  0
    1.4136   -2.3086    0.0000 H   0  0  0  0  0  0  0  0  0  0  0  0
    2.3429   -0.7051    0.0000 H   0  0  0  0  0  0  0  0  0  0  0  0
    2.3412   -1.7751    0.0000 H   0  0  0  0  0  0  0  0  0  0  0  0
    2.8505    1.4700    0.0000 H   0  0  0  0  0  0  0  0  0  0  0  0
    3.7765    0.9226    0.0000 H   0  0  0  0  0  0  0  0  0  0  0  0
    3.5392   -1.1027    0.0000 H   0  0  0  0  0  0  0  0  0  0  0  0
    4.4969    0.4840    0.0000 H   0  0  0  0  0  0  0  0  0  0  0  0
    4.4761   -0.5858    0.0000 H   0  0  0  0  0  0  0  0  0  0  0  0
  1  2  1  0  0  0  0
  1  3  2  0  0  0  0
  1  4  1  0  0  0  0
  2  5  1  0  0  0  0
  2  6  2  0  0  0  0
  3  7  1  0  0  0  0
  3  8  1  0  0  0  0
  4  9  2  0  0  0  0
  4 19  1  0  0  0  0
  5 10  1  0  0  0  0
  7 11  2  0  0  0  0
  7 20  1  0  0  0  0
  8 21  1  0  0  0  0
  9 11  1  0  0  0  0
  9 22  1  0  0  0  0
 10 12  1  0  0  0  0
 10 23  1  0  0  0  0
 10 24  1  0  0  0  0
 11 25  1  0  0  0  0
 12 13  1  0  0  0  0
 12 14  1  0  0  0  0
 12 26  1  0  0  0  0
 13 15  1  0  0  0  0
 13 27  1  0  0  0  0
 13 28  1  0  0  0  0
 14 16  1  0  0  0  0
 14 29  1  0  0  0  0
 14 30  1  0  0  0  0
 15 17  1  0  0  0  0
 15 31  1  0  0  0  0
 15 32  1  0  0  0  0
 16 33  1  0  0  0  0
 16 34  1  0  0  0  0
 16 35  1  0  0  0  0
 17 18  1  0  0  0  0
 17 36  1  0  0  0  0
 17 37  1  0  0  0  0
 18 38  1  0  0  0  0
 18 39  1  0  0  0  0
 18 40  1  0  0  0  0
M  END
>  <DRUGBANK_ID>
DB11062

>  <COMMON_NAME>
Octisalate

>  <CAS_NUMBER>
118-60-5

>  <UNII>
4X49Y0596W

>  <SYNONYMS>
2-Ethylhexyl 2-hydroxybenzoate; 2-Ethylhexyl salicylate; Octisalate; Octyl salicylate

$$$$
