
 OpenBabel10282417072D

 31 29  0  0  0  0  0  0  0  0999 V2000
    5.3625    0.7145    0.0000 Cu  0  2  0  0  0  0  0  0  0  0  0  0
    4.5375    3.5724    0.0000 C   0  0  0  0  0  0  0  0  0  0  0  0
    4.9500    2.8579    0.0000 N   0  0  0  0  0  0  0  0  0  0  0  0
    4.5375    2.1434    0.0000 C   0  0  0  0  0  0  0  0  0  0  0  0
    4.9500    1.4289    0.0000 S   0  5  0  0  0  0  0  0  0  0  0  0
    3.7125    2.1434    0.0000 N   0  0  0  0  0  0  0  0  0  0  0  0
    3.3000    1.4289    0.0000 N   0  0  0  0  0  0  0  0  0  0  0  0
    2.4750    1.4289    0.0000 C   0  0  0  0  0  0  0  0  0  0  0  0
    2.0625    2.1434    0.0000 C   0  0  0  0  0  0  0  0  0  0  0  0
    2.0625    0.7145    0.0000 C   0  0  0  0  0  0  0  0  0  0  0  0
    2.4750    0.0000    0.0000 C   0  0  0  0  0  0  0  0  0  0  0  0
    1.2375    0.7145    0.0000 N   0  0  0  0  0  0  0  0  0  0  0  0
    0.8250    0.0000    0.0000 N   0  0  0  0  0  0  0  0  0  0  0  0
    0.0000    0.0000    0.0000 C   0  0  0  0  0  0  0  0  0  0  0  0
   -0.4125    0.7145    0.0000 S   0  5  0  0  0  0  0  0  0  0  0  0
   -0.4125   -0.7145    0.0000 N   0  0  0  0  0  0  0  0  0  0  0  0
    0.0000   -1.4289    0.0000 C   0  0  0  0  0  0  0  0  0  0  0  0
    5.0725    4.4990    0.0000 H   0  0  0  0  0  0  0  0  0  0  0  0
    3.4675    3.5724    0.0000 H   0  0  0  0  0  0  0  0  0  0  0  0
    4.0025    4.4991    0.0000 H   0  0  0  0  0  0  0  0  0  0  0  0
    5.9345    2.8579    0.0000 H   0  0  0  0  0  0  0  0  0  0  0  0
    2.5975    3.0700    0.0000 H   0  0  0  0  0  0  0  0  0  0  0  0
    0.9925    2.1434    0.0000 H   0  0  0  0  0  0  0  0  0  0  0  0
    1.5275    3.0701    0.0000 H   0  0  0  0  0  0  0  0  0  0  0  0
    1.9400   -0.9266    0.0000 H   0  0  0  0  0  0  0  0  0  0  0  0
    3.5450   -0.0000    0.0000 H   0  0  0  0  0  0  0  0  0  0  0  0
    3.0100   -0.9267    0.0000 H   0  0  0  0  0  0  0  0  0  0  0  0
   -1.3970   -0.7145    0.0000 H   0  0  0  0  0  0  0  0  0  0  0  0
   -0.5350   -2.3556    0.0000 H   0  0  0  0  0  0  0  0  0  0  0  0
    1.0700   -1.4289    0.0000 H   0  0  0  0  0  0  0  0  0  0  0  0
    0.5350   -2.3555    0.0000 H   0  0  0  0  0  0  0  0  0  0  0  0
  2  3  1  0  0  0  0
  2 18  1  0  0  0  0
  2 19  1  0  0  0  0
  2 20  1  0  0  0  0
  3  4  1  0  0  0  0
  3 21  1  0  0  0  0
  4  5  1  0  0  0  0
  4  6  2  0  0  0  0
  6  7  1  0  0  0  0
  7  8  2  0  0  0  0
  8  9  1  0  0  0  0
  8 10  1  0  0  0  0
  9 22  1  0  0  0  0
  9 23  1  0  0  0  0
  9 24  1  0  0  0  0
 10 11  1  0  0  0  0
 10 12  2  0  0  0  0
 11 25  1  0  0  0  0
 11 26  1  0  0  0  0
 11 27  1  0  0  0  0
 12 13  1  0  0  0  0
 13 14  2  0  0  0  0
 14 15  1  0  0  0  0
 14 16  1  0  0  0  0
 16 17  1  0  0  0  0
 16 28  1  0  0  0  0
 17 29  1  0  0  0  0
 17 30  1  0  0  0  0
 17 31  1  0  0  0  0
M  CHG  3   1   2   5  -1  15  -1
M  END
>  <DRUGBANK_ID>
DB16963

>  <COMMON_NAME>
Copper(II) dithiosemicarbazone

>  <CAS_NUMBER>
68341-09-3

>  <UNII>
0YDK1H9L3A

>  <SYNONYMS>
Atsm copper (ii); Copper, ((2,2'-(1,2-dimethyl-1,2-ethanediylidene)bis(n-methylhydrazinecarbothioamidato-.kappa.n2,.kappa.s))(2-))-, (sp-4-2)-; Copper(ii) diacetyl-di(n4-methyl)thiosemicarbazone; Cu-atsm; Cu(ii)atsm; Diacetyl(n(4)-methylthiosemicarbazonato) copper (ii)

$$$$
