
 OpenBabel10282417072D

 36 38  0  0  1  0  0  0  0  0999 V2000
   -0.7604    1.6190    0.0000 O   0  0  0  0  0  0  0  0  0  0  0  0
   -0.0459    1.2076    0.0000 C   0  0  0  0  0  0  0  0  0  0  0  0
   -0.0459    0.3826    0.0000 N   0  0  0  0  0  0  0  0  0  0  0  0
    1.3829    0.3826    0.0000 C   0  0  0  0  0  0  0  0  0  0  0  0
    1.3829    1.2076    0.0000 C   0  0  0  0  0  0  0  0  0  0  0  0
    0.6663    1.6190    0.0000 S   0  0  0  0  0  0  0  0  0  0  0  0
    2.0951    1.6190    0.0000 C   0  0  0  0  0  0  0  0  0  0  0  0
    2.8116    1.2076    0.0000 N   0  0  0  0  0  0  0  0  0  0  0  0
    2.8116    0.3826    0.0000 C   0  0  0  0  0  0  0  0  0  0  0  0
    2.0951   -0.0308    0.0000 N   0  0  0  0  0  0  0  0  0  0  0  0
    3.5260   -0.0308    0.0000 N   0  0  0  0  0  0  0  0  0  0  0  0
   -0.7604   -0.0308    0.0000 C   0  0  1  0  0  0  0  0  0  0  0  0
   -0.9998   -0.8025    0.0000 C   0  0  2  0  0  0  0  0  0  0  0  0
   -0.2607   -1.5562    0.0000 O   0  0  0  0  0  0  0  0  0  0  0  0
    0.4711   -1.1765    0.0000 C   0  0  0  0  0  0  0  0  0  0  0  0
    1.1667   -1.6190    0.0000 C   0  0  0  0  0  0  0  0  0  0  0  0
    0.4600   -0.3518    0.0000 O   0  0  0  0  0  0  0  0  0  0  0  0
   -1.8311   -0.8025    0.0000 C   0  0  0  0  0  0  0  0  0  0  0  0
   -2.0972   -0.0308    0.0000 C   0  0  2  0  0  0  0  0  0  0  0  0
   -1.4441    0.4747    0.0000 O   0  0  0  0  0  0  0  0  0  0  0  0
   -2.8117    0.3826    0.0000 C   0  0  0  0  0  0  0  0  0  0  0  0
   -3.5261   -0.0308    0.0000 O   0  0  0  0  0  0  0  0  0  0  0  0
    2.0938    2.6510    0.0000 H   0  0  0  0  0  0  0  0  0  0  0  0
    3.5250   -1.0153    0.0000 H   0  0  0  0  0  0  0  0  0  0  0  0
    4.3791    0.4606    0.0000 H   0  0  0  0  0  0  0  0  0  0  0  0
    0.0759   -0.6982    0.0000 H   0  0  0  0  0  0  0  0  0  0  0  0
    0.0402   -0.5509    0.0000 H   0  0  0  0  0  0  0  0  0  0  0  0
    1.1207   -2.6880    0.0000 H   0  0  0  0  0  0  0  0  0  0  0  0
    2.1155   -1.1243    0.0000 H   0  0  0  0  0  0  0  0  0  0  0  0
    2.0695   -2.1933    0.0000 H   0  0  0  0  0  0  0  0  0  0  0  0
   -2.4523   -1.6737    0.0000 H   0  0  0  0  0  0  0  0  0  0  0  0
   -1.3411   -1.7537    0.0000 H   0  0  0  0  0  0  0  0  0  0  0  0
   -2.1689    1.0368    0.0000 H   0  0  0  0  0  0  0  0  0  0  0  0
   -2.8117    1.4526    0.0000 H   0  0  0  0  0  0  0  0  0  0  0  0
   -3.7386    0.9171    0.0000 H   0  0  0  0  0  0  0  0  0  0  0  0
   -4.3666    0.4534    0.0000 H   0  0  0  0  0  0  0  0  0  0  0  0
  1  2  2  0  0  0  0
  2  3  1  0  0  0  0
  2  6  1  0  0  0  0
  3  4  1  0  0  0  0
  4  5  1  0  0  0  0
  4 10  2  0  0  0  0
  5  7  2  0  0  0  0
  6  5  1  0  0  0  0
  7  8  1  0  0  0  0
  7 23  1  0  0  0  0
  9  8  2  0  0  0  0
  9 11  1  0  0  0  0
 10  9  1  0  0  0  0
 11 24  1  0  0  0  0
 11 25  1  0  0  0  0
 12 13  1  0  0  0  0
 12 20  1  0  0  0  0
 12  3  1  0  0  0  0
 12 26  1  6  0  0  0
 13 18  1  0  0  0  0
 13 14  1  0  0  0  0
 13 27  1  1  0  0  0
 14 15  1  0  0  0  0
 15 16  1  0  0  0  0
 15 17  2  0  0  0  0
 16 28  1  0  0  0  0
 16 29  1  0  0  0  0
 16 30  1  0  0  0  0
 18 19  1  0  0  0  0
 18 31  1  0  0  0  0
 18 32  1  0  0  0  0
 19 21  1  0  0  0  0
 19 33  1  6  0  0  0
 20 19  1  0  0  0  0
 21 22  1  0  0  0  0
 21 34  1  0  0  0  0
 21 35  1  0  0  0  0
 22 36  1  0  0  0  0
M  END
>  <DRUGBANK_ID>
DB06329

>  <COMMON_NAME>
RG-7795

>  <CAS_NUMBER>
892498-64-5

>  <UNII>
QTI86134YL

$$$$
