TRR
 OpenBabel10282417072D

 40 41  0  0  0  0  0  0  0  0999 V2000
    2.0947    0.7105    0.0000 N   0  3  0  0  0  0  0  0  0  0  0  0
    2.8092    0.2980    0.0000 C   0  0  0  0  0  0  0  0  0  0  0  0
    3.5237    0.7105    0.0000 N   0  0  0  0  0  0  0  0  0  0  0  0
    2.8092   -0.5270    0.0000 N   0  0  0  0  0  0  0  0  0  0  0  0
    2.0947   -0.9395    0.0000 C   0  0  0  0  0  0  0  0  0  0  0  0
    2.0947   -1.7645    0.0000 N   0  0  0  0  0  0  0  0  0  0  0  0
    1.3802   -0.5270    0.0000 C   0  0  0  0  0  0  0  0  0  0  0  0
    1.3802    0.2980    0.0000 C   0  0  0  0  0  0  0  0  0  0  0  0
    0.6658   -0.9395    0.0000 C   0  0  0  0  0  0  0  0  0  0  0  0
   -0.0487   -0.5270    0.0000 C   0  0  0  0  0  0  0  0  0  0  0  0
   -0.7632   -0.9395    0.0000 C   0  0  0  0  0  0  0  0  0  0  0  0
   -1.4776   -0.5270    0.0000 C   0  0  0  0  0  0  0  0  0  0  0  0
   -1.4776    0.2980    0.0000 C   0  0  0  0  0  0  0  0  0  0  0  0
   -0.7632    0.7105    0.0000 C   0  0  0  0  0  0  0  0  0  0  0  0
   -0.0487    0.2980    0.0000 C   0  0  0  0  0  0  0  0  0  0  0  0
   -2.1921   -0.9395    0.0000 O   0  0  0  0  0  0  0  0  0  0  0  0
   -2.1921    0.7105    0.0000 O   0  0  0  0  0  0  0  0  0  0  0  0
   -0.7632    1.5355    0.0000 O   0  0  0  0  0  0  0  0  0  0  0  0
   -2.9066   -0.5270    0.0000 C   0  0  0  0  0  0  0  0  0  0  0  0
   -2.9066    0.2980    0.0000 C   0  0  0  0  0  0  0  0  0  0  0  0
   -0.0487    1.9480    0.0000 C   0  0  0  0  0  0  0  0  0  0  0  0
    2.0947    1.6950    0.0000 H   0  0  0  0  0  0  0  0  0  0  0  0
    4.3763    0.2182    0.0000 H   0  0  0  0  0  0  0  0  0  0  0  0
    3.5237    1.6950    0.0000 H   0  0  0  0  0  0  0  0  0  0  0  0
    1.2421   -2.2568    0.0000 H   0  0  0  0  0  0  0  0  0  0  0  0
    2.9473   -2.2567    0.0000 H   0  0  0  0  0  0  0  0  0  0  0  0
    0.4865    0.8140    0.0000 H   0  0  0  0  0  0  0  0  0  0  0  0
    0.6658   -2.0095    0.0000 H   0  0  0  0  0  0  0  0  0  0  0  0
   -0.2608   -1.4745    0.0000 H   0  0  0  0  0  0  0  0  0  0  0  0
   -0.7632   -1.9715    0.0000 H   0  0  0  0  0  0  0  0  0  0  0  0
    0.8450    0.8140    0.0000 H   0  0  0  0  0  0  0  0  0  0  0  0
   -2.9066    0.5430    0.0000 H   0  0  0  0  0  0  0  0  0  0  0  0
   -3.8332   -1.0620    0.0000 H   0  0  0  0  0  0  0  0  0  0  0  0
   -3.8333    0.0080    0.0000 H   0  0  0  0  0  0  0  0  0  0  0  0
   -3.8332    0.8330    0.0000 H   0  0  0  0  0  0  0  0  0  0  0  0
   -2.9066   -0.7720    0.0000 H   0  0  0  0  0  0  0  0  0  0  0  0
   -3.8333   -0.2370    0.0000 H   0  0  0  0  0  0  0  0  0  0  0  0
    0.8779    1.4130    0.0000 H   0  0  0  0  0  0  0  0  0  0  0  0
   -0.0487    3.0180    0.0000 H   0  0  0  0  0  0  0  0  0  0  0  0
    0.8780    2.4830    0.0000 H   0  0  0  0  0  0  0  0  0  0  0  0
  1  2  2  0  0  0  0
  1  8  1  0  0  0  0
  1 22  1  0  0  0  0
  2  3  1  0  0  0  0
  2  4  1  0  0  0  0
  3 23  1  0  0  0  0
  3 24  1  0  0  0  0
  4  5  2  0  0  0  0
  5  6  1  0  0  0  0
  5  7  1  0  0  0  0
  6 25  1  0  0  0  0
  6 26  1  0  0  0  0
  7  8  2  0  0  0  0
  7  9  1  0  0  0  0
  8 27  1  0  0  0  0
  9 10  1  0  0  0  0
  9 28  1  0  0  0  0
  9 29  1  0  0  0  0
 10 11  2  0  0  0  0
 10 15  1  0  0  0  0
 11 12  1  0  0  0  0
 11 30  1  0  0  0  0
 12 13  2  0  0  0  0
 12 16  1  0  0  0  0
 13 14  1  0  0  0  0
 13 17  1  0  0  0  0
 14 15  2  0  0  0  0
 14 18  1  0  0  0  0
 15 31  1  0  0  0  0
 16 19  1  0  0  0  0
 17 20  1  0  0  0  0
 18 21  1  0  0  0  0
 19 32  1  0  0  0  0
 19 33  1  0  0  0  0
 19 34  1  0  0  0  0
 20 35  1  0  0  0  0
 20 36  1  0  0  0  0
 20 37  1  0  0  0  0
 21 38  1  0  0  0  0
 21 39  1  0  0  0  0
 21 40  1  0  0  0  0
M  CHG  1   1   1
M  END
>  <DRUGBANK_ID>
DB03125

>  <SECONDARY_ACCESSION_NUMBERS>
EXPT03114

>  <COMMON_NAME>
2,4-Diamino-5-(3,4,5-Trimethoxy-Benzyl)-Pyrimidin-1-Ium

$$$$
