
 OpenBabel10282417072D

 66 65  0  0  0  0  0  0  0  0999 V2000
    0.3593   -0.0501    0.0000 C   0  0  3  0  0  0  0  0  0  0  0  0
    1.0746   -0.4612    0.0000 C   0  0  0  0  0  0  0  0  0  0  0  0
   -0.3558   -0.4612    0.0000 C   0  0  0  0  0  0  0  0  0  0  0  0
    0.3593    0.7757    0.0000 S   0  0  0  0  0  0  0  0  0  0  0  0
    1.7863   -0.0501    0.0000 O   0  0  0  0  0  0  0  0  0  0  0  0
    1.0746   -1.2870    0.0000 O   0  0  0  0  0  0  0  0  0  0  0  0
   -1.0710   -0.0501    0.0000 C   0  0  0  0  0  0  0  0  0  0  0  0
    0.3594    1.6982    0.0000 O   0  0  0  0  0  0  0  0  0  0  0  0
   -0.4767    0.7410    0.0000 O   0  0  0  0  0  0  0  0  0  0  0  0
    1.2335    0.7444    0.0000 O   0  0  0  0  0  0  0  0  0  0  0  0
    2.4981   -0.4612    0.0000 C   0  0  0  0  0  0  0  0  0  0  0  0
   -1.7863   -0.4612    0.0000 O   0  0  0  0  0  0  0  0  0  0  0  0
   -1.0710    0.7757    0.0000 O   0  0  0  0  0  0  0  0  0  0  0  0
    3.2134   -0.0501    0.0000 C   0  0  3  0  0  0  0  0  0  0  0  0
   -2.4980   -0.0501    0.0000 C   0  0  0  0  0  0  0  0  0  0  0  0
    3.9286   -0.4612    0.0000 C   0  0  0  0  0  0  0  0  0  0  0  0
    3.2134    0.7757    0.0000 C   0  0  0  0  0  0  0  0  0  0  0  0
   -3.2132   -0.4612    0.0000 C   0  0  3  0  0  0  0  0  0  0  0  0
    4.6438   -0.0501    0.0000 C   0  0  0  0  0  0  0  0  0  0  0  0
    3.9286    1.1903    0.0000 C   0  0  0  0  0  0  0  0  0  0  0  0
   -3.9285   -0.0501    0.0000 C   0  0  0  0  0  0  0  0  0  0  0  0
   -3.2132   -1.2870    0.0000 C   0  0  0  0  0  0  0  0  0  0  0  0
    5.3591   -0.4612    0.0000 C   0  0  0  0  0  0  0  0  0  0  0  0
   -4.6403   -0.4612    0.0000 C   0  0  0  0  0  0  0  0  0  0  0  0
   -3.9285   -1.6982    0.0000 C   0  0  0  0  0  0  0  0  0  0  0  0
    6.0742   -0.0501    0.0000 C   0  0  0  0  0  0  0  0  0  0  0  0
   -5.3589   -0.0501    0.0000 C   0  0  0  0  0  0  0  0  0  0  0  0
   -6.0742   -0.4612    0.0000 C   0  0  0  0  0  0  0  0  0  0  0  0
    0.3594   -1.1201    0.0000 H   0  0  0  0  0  0  0  0  0  0  0  0
   -0.3558   -1.5312    0.0000 H   0  0  0  0  0  0  0  0  0  0  0  0
   -1.2819   -0.9971    0.0000 H   0  0  0  0  0  0  0  0  0  0  0  0
    1.1995    2.1831    0.0000 H   0  0  0  0  0  0  0  0  0  0  0  0
    2.4970   -1.5312    0.0000 H   0  0  0  0  0  0  0  0  0  0  0  0
    3.4239   -0.9976    0.0000 H   0  0  0  0  0  0  0  0  0  0  0  0
    3.2134   -1.1201    0.0000 H   0  0  0  0  0  0  0  0  0  0  0  0
   -2.4969    1.0199    0.0000 H   0  0  0  0  0  0  0  0  0  0  0  0
   -3.4239    0.4863    0.0000 H   0  0  0  0  0  0  0  0  0  0  0  0
    3.9286   -1.5312    0.0000 H   0  0  0  0  0  0  0  0  0  0  0  0
    4.8547   -0.9971    0.0000 H   0  0  0  0  0  0  0  0  0  0  0  0
    2.2863    1.3099    0.0000 H   0  0  0  0  0  0  0  0  0  0  0  0
    3.2120    1.8457    0.0000 H   0  0  0  0  0  0  0  0  0  0  0  0
   -3.2132    0.6088    0.0000 H   0  0  0  0  0  0  0  0  0  0  0  0
    4.6438    1.0199    0.0000 H   0  0  0  0  0  0  0  0  0  0  0  0
    5.5699    0.4858    0.0000 H   0  0  0  0  0  0  0  0  0  0  0  0
    4.8562    0.6569    0.0000 H   0  0  0  0  0  0  0  0  0  0  0  0
    3.9267    2.2603    0.0000 H   0  0  0  0  0  0  0  0  0  0  0  0
    4.8543    1.7269    0.0000 H   0  0  0  0  0  0  0  0  0  0  0  0
   -3.9296    1.0199    0.0000 H   0  0  0  0  0  0  0  0  0  0  0  0
   -4.8555    0.4843    0.0000 H   0  0  0  0  0  0  0  0  0  0  0  0
   -2.2871   -1.8229    0.0000 H   0  0  0  0  0  0  0  0  0  0  0  0
   -3.2147   -2.3570    0.0000 H   0  0  0  0  0  0  0  0  0  0  0  0
    5.3592   -1.5312    0.0000 H   0  0  0  0  0  0  0  0  0  0  0  0
    6.2853   -0.9970    0.0000 H   0  0  0  0  0  0  0  0  0  0  0  0
   -4.6381   -1.5312    0.0000 H   0  0  0  0  0  0  0  0  0  0  0  0
   -5.5653   -0.9990    0.0000 H   0  0  0  0  0  0  0  0  0  0  0  0
   -4.8541   -1.1615    0.0000 H   0  0  0  0  0  0  0  0  0  0  0  0
   -3.9305   -2.7682    0.0000 H   0  0  0  0  0  0  0  0  0  0  0  0
   -4.8561   -2.2315    0.0000 H   0  0  0  0  0  0  0  0  0  0  0  0
    6.9999   -0.5868    0.0000 H   0  0  0  0  0  0  0  0  0  0  0  0
    6.0762    1.0199    0.0000 H   0  0  0  0  0  0  0  0  0  0  0  0
    7.0018    0.4832    0.0000 H   0  0  0  0  0  0  0  0  0  0  0  0
   -5.3600    1.0199    0.0000 H   0  0  0  0  0  0  0  0  0  0  0  0
   -6.2853    0.4854    0.0000 H   0  0  0  0  0  0  0  0  0  0  0  0
   -6.9998    0.0756    0.0000 H   0  0  0  0  0  0  0  0  0  0  0  0
   -6.0763   -1.5312    0.0000 H   0  0  0  0  0  0  0  0  0  0  0  0
   -7.0019   -0.9944    0.0000 H   0  0  0  0  0  0  0  0  0  0  0  0
  1  2  1  0  0  0  0
  1  3  1  0  0  0  0
  1  4  1  0  0  0  0
  1 29  1  0  0  0  0
  2  5  1  0  0  0  0
  2  6  2  0  0  0  0
  3  7  1  0  0  0  0
  3 30  1  0  0  0  0
  3 31  1  0  0  0  0
  4  8  1  0  0  0  0
  4  9  2  0  0  0  0
  4 10  2  0  0  0  0
  5 11  1  0  0  0  0
  7 12  1  0  0  0  0
  7 13  2  0  0  0  0
  8 32  1  0  0  0  0
 11 14  1  0  0  0  0
 11 33  1  0  0  0  0
 11 34  1  0  0  0  0
 12 15  1  0  0  0  0
 14 16  1  0  0  0  0
 14 17  1  0  0  0  0
 14 35  1  0  0  0  0
 15 18  1  0  0  0  0
 15 36  1  0  0  0  0
 15 37  1  0  0  0  0
 16 19  1  0  0  0  0
 16 38  1  0  0  0  0
 16 39  1  0  0  0  0
 17 20  1  0  0  0  0
 17 40  1  0  0  0  0
 17 41  1  0  0  0  0
 18 21  1  0  0  0  0
 18 22  1  0  0  0  0
 18 42  1  0  0  0  0
 19 23  1  0  0  0  0
 19 43  1  0  0  0  0
 19 44  1  0  0  0  0
 20 45  1  0  0  0  0
 20 46  1  0  0  0  0
 20 47  1  0  0  0  0
 21 24  1  0  0  0  0
 21 48  1  0  0  0  0
 21 49  1  0  0  0  0
 22 25  1  0  0  0  0
 22 50  1  0  0  0  0
 22 51  1  0  0  0  0
 23 26  1  0  0  0  0
 23 52  1  0  0  0  0
 23 53  1  0  0  0  0
 24 27  1  0  0  0  0
 24 54  1  0  0  0  0
 24 55  1  0  0  0  0
 25 56  1  0  0  0  0
 25 57  1  0  0  0  0
 25 58  1  0  0  0  0
 26 59  1  0  0  0  0
 26 60  1  0  0  0  0
 26 61  1  0  0  0  0
 27 28  1  0  0  0  0
 27 62  1  0  0  0  0
 27 63  1  0  0  0  0
 28 64  1  0  0  0  0
 28 65  1  0  0  0  0
 28 66  1  0  0  0  0
M  END
>  <DRUGBANK_ID>
DB11089

>  <COMMON_NAME>
Docusate

>  <CAS_NUMBER>
10041-19-7

>  <UNII>
M7P27195AG

>  <SYNONYMS>
Dioctyl sulfosuccinate; Docusate hydrogen

$$$$
