
 OpenBabel10282417072D

 68 68  0  0  0  0  0  0  0  0999 V2000
    5.0013    9.4875    0.0000 C   0  0  0  0  0  0  0  0  0  0  0  0
    5.7158    9.0750    0.0000 C   0  0  0  0  0  0  0  0  0  0  0  0
    6.4302    9.4875    0.0000 C   0  0  0  0  0  0  0  0  0  0  0  0
    7.1447    9.0750    0.0000 C   0  0  0  0  0  0  0  0  0  0  0  0
    7.8592    9.4875    0.0000 C   0  0  0  0  0  0  0  0  0  0  0  0
    8.5737    9.0750    0.0000 C   0  0  0  0  0  0  0  0  0  0  0  0
    9.2881    9.4875    0.0000 C   0  0  0  0  0  0  0  0  0  0  0  0
   10.0026    9.0750    0.0000 C   0  0  0  0  0  0  0  0  0  0  0  0
   10.7171    9.4875    0.0000 C   0  0  0  0  0  0  0  0  0  0  0  0
   11.4315    9.0750    0.0000 C   0  0  0  0  0  0  0  0  0  0  0  0
   16.4328    8.6625    0.0000 C   0  0  0  0  0  0  0  0  0  0  0  0
   16.4328    9.4875    0.0000 C   0  0  0  0  0  0  0  0  0  0  0  0
   15.7184    8.2500    0.0000 C   0  0  0  0  0  0  0  0  0  0  0  0
   12.1460    9.4875    0.0000 C   0  0  0  0  0  0  0  0  0  0  0  0
   15.7184    9.9000    0.0000 C   0  0  0  0  0  0  0  0  0  0  0  0
   15.0039    8.6625    0.0000 C   0  0  0  0  0  0  0  0  0  0  0  0
   12.8605    9.0750    0.0000 C   0  0  0  0  0  0  0  0  0  0  0  0
   13.9874    8.7730    0.0000 C   0  0  0  0  0  0  0  0  0  0  0  0
   13.1624   10.2020    0.0000 C   0  0  0  0  0  0  0  0  0  0  0  0
   13.5749    8.0586    0.0000 C   0  0  0  0  0  0  0  0  0  0  0  0
   13.5749   10.9164    0.0000 C   0  0  0  0  0  0  0  0  0  0  0  0
   14.2894    9.9000    0.0000 C   0  0  0  0  0  0  0  0  0  0  0  0
   15.0039    9.4875    0.0000 C   0  0  0  0  0  0  0  0  0  0  0  0
   13.5749    9.4875    0.0000 N   0  3  0  0  0  0  0  0  0  0  0  0
   13.9874    7.3441    0.0000 O   0  0  0  0  0  0  0  0  0  0  0  0
   13.1624   11.6309    0.0000 O   0  0  0  0  0  0  0  0  0  0  0  0
    5.0013   10.5575    0.0000 H   0  0  0  0  0  0  0  0  0  0  0  0
    4.0747    8.9525    0.0000 H   0  0  0  0  0  0  0  0  0  0  0  0
    4.0746   10.0225    0.0000 H   0  0  0  0  0  0  0  0  0  0  0  0
    5.7158    8.0050    0.0000 H   0  0  0  0  0  0  0  0  0  0  0  0
    6.6425    8.5400    0.0000 H   0  0  0  0  0  0  0  0  0  0  0  0
    6.4302   10.5575    0.0000 H   0  0  0  0  0  0  0  0  0  0  0  0
    7.3568   10.0225    0.0000 H   0  0  0  0  0  0  0  0  0  0  0  0
    7.1447    8.0050    0.0000 H   0  0  0  0  0  0  0  0  0  0  0  0
    8.0713    8.5400    0.0000 H   0  0  0  0  0  0  0  0  0  0  0  0
    7.8592   10.5575    0.0000 H   0  0  0  0  0  0  0  0  0  0  0  0
    8.7858   10.0225    0.0000 H   0  0  0  0  0  0  0  0  0  0  0  0
    8.5737    8.0050    0.0000 H   0  0  0  0  0  0  0  0  0  0  0  0
    9.5004    8.5400    0.0000 H   0  0  0  0  0  0  0  0  0  0  0  0
    9.2881   10.5575    0.0000 H   0  0  0  0  0  0  0  0  0  0  0  0
   10.2147   10.0225    0.0000 H   0  0  0  0  0  0  0  0  0  0  0  0
   10.0026    8.0050    0.0000 H   0  0  0  0  0  0  0  0  0  0  0  0
   10.9292    8.5400    0.0000 H   0  0  0  0  0  0  0  0  0  0  0  0
   10.7171   10.5575    0.0000 H   0  0  0  0  0  0  0  0  0  0  0  0
   11.6438   10.0225    0.0000 H   0  0  0  0  0  0  0  0  0  0  0  0
   11.4315    8.0050    0.0000 H   0  0  0  0  0  0  0  0  0  0  0  0
   12.3581    8.5400    0.0000 H   0  0  0  0  0  0  0  0  0  0  0  0
   17.3265    8.1465    0.0000 H   0  0  0  0  0  0  0  0  0  0  0  0
   17.3265   10.0035    0.0000 H   0  0  0  0  0  0  0  0  0  0  0  0
   15.7184    7.2180    0.0000 H   0  0  0  0  0  0  0  0  0  0  0  0
   12.1460   10.5575    0.0000 H   0  0  0  0  0  0  0  0  0  0  0  0
   13.0726   10.0225    0.0000 H   0  0  0  0  0  0  0  0  0  0  0  0
   15.7184   10.9320    0.0000 H   0  0  0  0  0  0  0  0  0  0  0  0
   14.1102    8.1465    0.0000 H   0  0  0  0  0  0  0  0  0  0  0  0
   12.8605    8.0050    0.0000 H   0  0  0  0  0  0  0  0  0  0  0  0
   13.7872    8.5400    0.0000 H   0  0  0  0  0  0  0  0  0  0  0  0
   15.0574    8.7730    0.0000 H   0  0  0  0  0  0  0  0  0  0  0  0
   14.5224    9.6996    0.0000 H   0  0  0  0  0  0  0  0  0  0  0  0
   12.0924   10.2020    0.0000 H   0  0  0  0  0  0  0  0  0  0  0  0
   12.6274    9.2754    0.0000 H   0  0  0  0  0  0  0  0  0  0  0  0
   12.5049    8.0586    0.0000 H   0  0  0  0  0  0  0  0  0  0  0  0
   13.0399    7.1320    0.0000 H   0  0  0  0  0  0  0  0  0  0  0  0
   14.6449   10.9164    0.0000 H   0  0  0  0  0  0  0  0  0  0  0  0
   14.1099   11.8430    0.0000 H   0  0  0  0  0  0  0  0  0  0  0  0
   14.2894   10.9700    0.0000 H   0  0  0  0  0  0  0  0  0  0  0  0
   13.3628   10.4350    0.0000 H   0  0  0  0  0  0  0  0  0  0  0  0
   13.5024    6.5041    0.0000 H   0  0  0  0  0  0  0  0  0  0  0  0
   13.6474   12.4709    0.0000 H   0  0  0  0  0  0  0  0  0  0  0  0
  1 27  1  0  0  0  0
  1 28  1  0  0  0  0
  1 29  1  0  0  0  0
  2  1  1  0  0  0  0
  2 30  1  0  0  0  0
  2 31  1  0  0  0  0
  3  2  1  0  0  0  0
  3 32  1  0  0  0  0
  3 33  1  0  0  0  0
  4  3  1  0  0  0  0
  4 34  1  0  0  0  0
  4 35  1  0  0  0  0
  5  4  1  0  0  0  0
  5 36  1  0  0  0  0
  5 37  1  0  0  0  0
  6  5  1  0  0  0  0
  6 38  1  0  0  0  0
  6 39  1  0  0  0  0
  7  6  1  0  0  0  0
  7 40  1  0  0  0  0
  7 41  1  0  0  0  0
  8  7  1  0  0  0  0
  8 42  1  0  0  0  0
  8 43  1  0  0  0  0
  9  8  1  0  0  0  0
  9 44  1  0  0  0  0
  9 45  1  0  0  0  0
 10  9  1  0  0  0  0
 10 46  1  0  0  0  0
 10 47  1  0  0  0  0
 11 48  1  0  0  0  0
 12 11  2  0  0  0  0
 12 49  1  0  0  0  0
 13 11  1  0  0  0  0
 13 50  1  0  0  0  0
 14 10  1  0  0  0  0
 14 51  1  0  0  0  0
 14 52  1  0  0  0  0
 15 12  1  0  0  0  0
 15 53  1  0  0  0  0
 16 13  2  0  0  0  0
 16 54  1  0  0  0  0
 17 14  1  0  0  0  0
 17 55  1  0  0  0  0
 17 56  1  0  0  0  0
 18 57  1  0  0  0  0
 18 58  1  0  0  0  0
 19 59  1  0  0  0  0
 19 60  1  0  0  0  0
 20 18  1  0  0  0  0
 20 61  1  0  0  0  0
 20 62  1  0  0  0  0
 21 19  1  0  0  0  0
 21 63  1  0  0  0  0
 21 64  1  0  0  0  0
 22 65  1  0  0  0  0
 22 66  1  0  0  0  0
 23 15  2  0  0  0  0
 23 16  1  0  0  0  0
 23 22  1  0  0  0  0
 24 17  1  0  0  0  0
 24 18  1  0  0  0  0
 24 19  1  0  0  0  0
 24 22  1  0  0  0  0
 25 20  1  0  0  0  0
 25 67  1  0  0  0  0
 26 21  1  0  0  0  0
 26 68  1  0  0  0  0
M  CHG  1  24   1
M  END
>  <DRUGBANK_ID>
DB13565

>  <COMMON_NAME>
Benzoxonium

>  <CAS_NUMBER>
23884-64-2

>  <UNII>
D95EHT6Y2L

$$$$
