
 OpenBabel10282417072D

 35 37  0  0  0  0  0  0  0  0999 V2000
   -3.1787    0.2959    0.0000 C   0  0  0  0  0  0  0  0  0  0  0  0
   -3.1946   -0.5288    0.0000 C   0  0  0  0  0  0  0  0  0  0  0  0
   -2.4881   -0.9550    0.0000 C   0  0  0  0  0  0  0  0  0  0  0  0
   -1.7659   -0.5564    0.0000 C   0  0  0  0  0  0  0  0  0  0  0  0
   -1.7500    0.2683    0.0000 C   0  0  0  0  0  0  0  0  0  0  0  0
   -2.4564    0.6946    0.0000 C   0  0  0  0  0  0  0  0  0  0  0  0
   -1.0277    0.6669    0.0000 C   0  0  3  0  0  0  0  0  0  0  0  0
   -0.3213    0.2407    0.0000 C   0  0  0  0  0  0  0  0  0  0  0  0
    0.4009    0.6393    0.0000 C   0  0  0  0  0  0  0  0  0  0  0  0
    1.1073    0.2131    0.0000 C   0  0  0  0  0  0  0  0  0  0  0  0
    1.0913   -0.6117    0.0000 C   0  0  0  0  0  0  0  0  0  0  0  0
    0.3690   -1.0103    0.0000 C   0  0  0  0  0  0  0  0  0  0  0  0
   -0.3373   -0.5840    0.0000 C   0  0  0  0  0  0  0  0  0  0  0  0
    1.7977   -1.0379    0.0000 N   0  0  0  0  0  0  0  0  0  0  0  0
    1.7817   -1.8628    0.0000 C   0  0  0  0  0  0  0  0  0  0  0  0
    2.4881   -2.2890    0.0000 N   0  0  0  0  0  0  0  0  0  0  0  0
    3.2104   -1.8903    0.0000 C   0  0  0  0  0  0  0  0  0  0  0  0
    3.2264   -1.0655    0.0000 C   0  0  0  0  0  0  0  0  0  0  0  0
    2.5200   -0.6393    0.0000 N   0  0  0  0  0  0  0  0  0  0  0  0
   -3.9168   -0.9274    0.0000 Cl  0  0  0  0  0  0  0  0  0  0  0  0
   -1.0117    1.4918    0.0000 C   0  0  0  0  0  0  0  0  0  0  0  0
   -0.9958    2.3166    0.0000 N   0  0  0  0  0  0  0  0  0  0  0  0
   -1.0596   -0.9826    0.0000 Cl  0  0  0  0  0  0  0  0  0  0  0  0
    0.4168    1.4642    0.0000 Cl  0  0  0  0  0  0  0  0  0  0  0  0
    1.0594   -2.2614    0.0000 O   0  0  0  0  0  0  0  0  0  0  0  0
    3.9168   -2.3166    0.0000 O   0  0  0  0  0  0  0  0  0  0  0  0
   -4.0623    0.8290    0.0000 H   0  0  0  0  0  0  0  0  0  0  0  0
   -2.5080   -1.9868    0.0000 H   0  0  0  0  0  0  0  0  0  0  0  0
   -0.8823   -1.0895    0.0000 H   0  0  0  0  0  0  0  0  0  0  0  0
   -2.4365    1.7264    0.0000 H   0  0  0  0  0  0  0  0  0  0  0  0
   -1.0484   -0.4029    0.0000 H   0  0  0  0  0  0  0  0  0  0  0  0
    2.0108    0.7117    0.0000 H   0  0  0  0  0  0  0  0  0  0  0  0
    0.3490   -2.0421    0.0000 H   0  0  0  0  0  0  0  0  0  0  0  0
    2.4691   -3.2733    0.0000 H   0  0  0  0  0  0  0  0  0  0  0  0
    4.1299   -0.5669    0.0000 H   0  0  0  0  0  0  0  0  0  0  0  0
  1  2  2  0  0  0  0
  1 27  1  0  0  0  0
  2 20  1  0  0  0  0
  2  3  1  0  0  0  0
  3  4  2  0  0  0  0
  3 28  1  0  0  0  0
  4  5  1  0  0  0  0
  4 29  1  0  0  0  0
  5  7  1  0  0  0  0
  5  6  2  0  0  0  0
  6  1  1  0  0  0  0
  6 30  1  0  0  0  0
  7  8  1  0  0  0  0
  7 21  1  0  0  0  0
  7 31  1  0  0  0  0
  8  9  2  0  0  0  0
  9 10  1  0  0  0  0
  9 24  1  0  0  0  0
 10 11  2  0  0  0  0
 10 32  1  0  0  0  0
 11 12  1  0  0  0  0
 12 13  2  0  0  0  0
 12 33  1  0  0  0  0
 13  8  1  0  0  0  0
 13 23  1  0  0  0  0
 14 15  1  0  0  0  0
 14 19  1  0  0  0  0
 14 11  1  0  0  0  0
 15 16  1  0  0  0  0
 15 25  2  0  0  0  0
 16 17  1  0  0  0  0
 16 34  1  0  0  0  0
 17 18  1  0  0  0  0
 17 26  2  0  0  0  0
 18 19  2  0  0  0  0
 18 35  1  0  0  0  0
 21 22  3  0  0  0  0
M  END
>  <DRUGBANK_ID>
DB11398

>  <COMMON_NAME>
Diclazuril

>  <CAS_NUMBER>
101831-37-2

>  <UNII>
K110K1B1VE

>  <SYNONYMS>
Diclazuril; Diclazurilo; Diclazurilum

$$$$
