
 OpenBabel10282417072D

 32 35  0  0  0  0  0  0  0  0999 V2000
   -0.4964   -0.9423    0.0000 N   0  0  0  0  0  0  0  0  0  0  0  0
   -0.0101   -0.2938    0.0000 C   0  0  0  0  0  0  0  0  0  0  0  0
   -1.2666   -0.7195    0.0000 C   0  0  0  0  0  0  0  0  0  0  0  0
   -1.2666    0.1316    0.0000 C   0  0  0  0  0  0  0  0  0  0  0  0
   -0.4964    0.3749    0.0000 C   0  0  0  0  0  0  0  0  0  0  0  0
   -1.9962   -1.1046    0.0000 C   0  0  0  0  0  0  0  0  0  0  0  0
   -1.9962    0.5369    0.0000 C   0  0  0  0  0  0  0  0  0  0  0  0
   -2.6852    0.1316    0.0000 C   0  0  0  0  0  0  0  0  0  0  0  0
   -2.6852   -0.7195    0.0000 C   0  0  0  0  0  0  0  0  0  0  0  0
    2.0570   -0.6991    0.0000 N   0  0  0  0  0  0  0  0  0  0  0  0
    1.2869   -0.9626    0.0000 C   0  0  0  0  0  0  0  0  0  0  0  0
    2.0975    0.1114    0.0000 C   0  0  0  0  0  0  0  0  0  0  0  0
    1.2869    0.3749    0.0000 C   0  0  0  0  0  0  0  0  0  0  0  0
    0.8207   -0.2938    0.0000 C   0  0  0  0  0  0  0  0  0  0  0  0
    2.6852    0.6789    0.0000 C   0  0  0  0  0  0  0  0  0  0  0  0
    1.1246    1.1856    0.0000 C   0  0  0  0  0  0  0  0  0  0  0  0
    1.7124    1.7124    0.0000 C   0  0  0  0  0  0  0  0  0  0  0  0
    2.5231    1.4489    0.0000 C   0  0  0  0  0  0  0  0  0  0  0  0
    1.0233   -1.7530    0.0000 O   0  0  0  0  0  0  0  0  0  0  0  0
   -0.2330    1.1450    0.0000 N   0  0  0  0  0  0  0  0  0  0  0  0
   -0.8005    1.7530    0.0000 O   0  0  0  0  0  0  0  0  0  0  0  0
   -0.1840   -1.8759    0.0000 H   0  0  0  0  0  0  0  0  0  0  0  0
   -2.0086   -2.1365    0.0000 H   0  0  0  0  0  0  0  0  0  0  0  0
   -2.0089    1.5688    0.0000 H   0  0  0  0  0  0  0  0  0  0  0  0
   -3.5810    0.6440    0.0000 H   0  0  0  0  0  0  0  0  0  0  0  0
   -3.5753   -1.2417    0.0000 H   0  0  0  0  0  0  0  0  0  0  0  0
    2.8434   -1.2914    0.0000 H   0  0  0  0  0  0  0  0  0  0  0  0
    3.6718    0.3762    0.0000 H   0  0  0  0  0  0  0  0  0  0  0  0
    0.1454    1.5115    0.0000 H   0  0  0  0  0  0  0  0  0  0  0  0
    1.4991    2.7221    0.0000 H   0  0  0  0  0  0  0  0  0  0  0  0
    3.2907    2.1387    0.0000 H   0  0  0  0  0  0  0  0  0  0  0  0
   -0.5270    2.6492    0.0000 H   0  0  0  0  0  0  0  0  0  0  0  0
  1 22  1  0  0  0  0
  2  1  1  0  0  0  0
  3  1  1  0  0  0  0
  4  3  2  0  0  0  0
  5  2  1  0  0  0  0
  5  4  1  0  0  0  0
  6  3  1  0  0  0  0
  6 23  1  0  0  0  0
  7  4  1  0  0  0  0
  7 24  1  0  0  0  0
  8  7  2  0  0  0  0
  8 25  1  0  0  0  0
  9  6  2  0  0  0  0
  9  8  1  0  0  0  0
  9 26  1  0  0  0  0
 10 27  1  0  0  0  0
 11 10  1  0  0  0  0
 12 10  1  0  0  0  0
 13 12  2  0  0  0  0
 14  2  2  0  0  0  0
 14 11  1  0  0  0  0
 14 13  1  0  0  0  0
 15 12  1  0  0  0  0
 15 28  1  0  0  0  0
 16 13  1  0  0  0  0
 16 29  1  0  0  0  0
 17 16  2  0  0  0  0
 17 30  1  0  0  0  0
 18 15  2  0  0  0  0
 18 17  1  0  0  0  0
 18 31  1  0  0  0  0
 19 11  2  0  0  0  0
 20  5  2  0  0  0  0
 21 20  1  0  0  0  0
 21 32  1  0  0  0  0
M  END
>  <DRUGBANK_ID>
DB02052

>  <SECONDARY_ACCESSION_NUMBERS>
EXPT01949

>  <COMMON_NAME>
Indirubin-3'-monoxime

>  <UNII>
X6CSG51MBQ

>  <SYNONYMS>
1H,1'H-[2,3']biindolylidene3,2'-dione-3-oxime

$$$$
