RPN
 OpenBabel10282417072D

 23 23  0  0  0  0  0  0  0  0999 V2000
    0.8080    1.0128    0.0000 C   0  0  0  0  0  0  0  0  0  0  0  0
    0.8080    0.1878    0.0000 C   0  0  2  0  0  0  0  0  0  0  0  0
    1.5225   -0.2247    0.0000 O   0  0  0  0  0  0  0  0  0  0  0  0
    0.0935   -0.2247    0.0000 C   0  0  0  0  0  0  0  0  0  0  0  0
    1.5225    1.4253    0.0000 N   0  0  0  0  0  0  0  0  0  0  0  0
    1.5225    2.2503    0.0000 N   0  3  0  0  0  0  0  0  0  0  0  0
    1.5225    3.0753    0.0000 N   0  5  0  0  0  0  0  0  0  0  0  0
    0.0935   -1.0497    0.0000 C   0  0  0  0  0  0  0  0  0  0  0  0
   -0.6209   -1.4622    0.0000 C   0  0  0  0  0  0  0  0  0  0  0  0
   -1.3354   -1.0497    0.0000 C   0  0  0  0  0  0  0  0  0  0  0  0
   -1.3354   -0.2247    0.0000 C   0  0  0  0  0  0  0  0  0  0  0  0
   -0.6209    0.1878    0.0000 C   0  0  0  0  0  0  0  0  0  0  0  0
   -2.0499   -1.4622    0.0000 N   0  3  0  0  0  0  0  0  0  0  0  0
   -2.0499   -2.2872    0.0000 O   0  5  0  0  0  0  0  0  0  0  0  0
   -2.7644   -1.0497    0.0000 O   0  0  0  0  0  0  0  0  0  0  0  0
    1.3137    0.4798    0.0000 H   0  0  0  0  0  0  0  0  0  0  0  0
   -0.1186    1.5478    0.0000 H   0  0  0  0  0  0  0  0  0  0  0  0
    0.8080    2.0828    0.0000 H   0  0  0  0  0  0  0  0  0  0  0  0
    1.5225   -1.1947    0.0000 H   0  0  0  0  0  0  0  0  0  0  0  0
    0.9872   -1.5657    0.0000 H   0  0  0  0  0  0  0  0  0  0  0  0
   -0.6209   -2.4942    0.0000 H   0  0  0  0  0  0  0  0  0  0  0  0
   -2.2291    0.2913    0.0000 H   0  0  0  0  0  0  0  0  0  0  0  0
   -0.6209    1.2198    0.0000 H   0  0  0  0  0  0  0  0  0  0  0  0
  1  2  1  0  0  0  0
  1  5  1  0  0  0  0
  1 17  1  0  0  0  0
  1 18  1  0  0  0  0
  2  3  1  0  0  0  0
  2  4  1  0  0  0  0
  2 16  1  1  0  0  0
  3 19  1  0  0  0  0
  4  8  2  0  0  0  0
  4 12  1  0  0  0  0
  5  6  2  0  0  0  0
  6  7  2  0  0  0  0
  8  9  1  0  0  0  0
  8 20  1  0  0  0  0
  9 10  2  0  0  0  0
  9 21  1  0  0  0  0
 10 11  1  0  0  0  0
 10 13  1  0  0  0  0
 11 12  2  0  0  0  0
 11 22  1  0  0  0  0
 12 23  1  0  0  0  0
 13 14  1  0  0  0  0
 13 15  2  0  0  0  0
M  CHG  4   6   1   7  -1  13   1  14  -1
M  END
>  <DRUGBANK_ID>
DB04472

>  <SECONDARY_ACCESSION_NUMBERS>
EXPT02812

>  <COMMON_NAME>
(R)-1-Para-Nitro-Phenyl-2-Azido-Ethanol

$$$$
