DFZ
 OpenBabel10282417072D

 43 46  0  0  0  0  0  0  0  0999 V2000
    2.6593   -1.5753    0.0000 C   0  0  0  0  0  0  0  0  0  0  0  0
   -0.0392   -1.1628    0.0000 C   0  0  0  0  0  0  0  0  0  0  0  0
   -0.8642   -1.1628    0.0000 C   0  0  0  0  0  0  0  0  0  0  0  0
   -1.2767   -1.8772    0.0000 C   0  0  0  0  0  0  0  0  0  0  0  0
   -2.1017   -1.8772    0.0000 C   0  0  0  0  0  0  0  0  0  0  0  0
   -2.5142   -1.1628    0.0000 C   0  0  0  0  0  0  0  0  0  0  0  0
   -2.1017   -0.4483    0.0000 C   0  0  0  0  0  0  0  0  0  0  0  0
   -1.2767   -0.4483    0.0000 C   0  0  0  0  0  0  0  0  0  0  0  0
   -0.6162    0.4608    0.0000 C   0  0  0  0  0  0  0  0  0  0  0  0
   -0.8711    1.2454    0.0000 C   0  0  0  0  0  0  0  0  0  0  0  0
   -0.3191    1.8585    0.0000 C   0  0  0  0  0  0  0  0  0  0  0  0
    0.4879    1.6870    0.0000 C   0  0  0  0  0  0  0  0  0  0  0  0
    1.9448   -1.9878    0.0000 N   0  0  0  0  0  0  0  0  0  0  0  0
    1.2304   -1.5753    0.0000 C   0  0  0  0  0  0  0  0  0  0  0  0
    1.2304   -0.7503    0.0000 C   0  0  0  0  0  0  0  0  0  0  0  0
    1.9448    0.4872    0.0000 N   0  0  0  0  0  0  0  0  0  0  0  0
    1.9448   -0.3378    0.0000 C   0  0  0  0  0  0  0  0  0  0  0  0
    2.6593   -0.7503    0.0000 N   0  0  0  0  0  0  0  0  0  0  0  0
    0.4458   -1.8302    0.0000 N   0  0  0  0  0  0  0  0  0  0  0  0
    0.7428    0.9024    0.0000 C   0  0  0  0  0  0  0  0  0  0  0  0
    0.4458   -0.4953    0.0000 C   0  0  0  0  0  0  0  0  0  0  0  0
    0.1908    0.2893    0.0000 C   0  0  0  0  0  0  0  0  0  0  0  0
    1.2304    1.7247    0.0000 C   0  0  0  0  0  0  0  0  0  0  0  0
    1.2304    0.8997    0.0000 C   0  0  0  0  0  0  0  0  0  0  0  0
    0.5159    2.1372    0.0000 O   0  0  0  0  0  0  0  0  0  0  0  0
    3.5530   -2.0913    0.0000 H   0  0  0  0  0  0  0  0  0  0  0  0
   -0.7607   -2.7709    0.0000 H   0  0  0  0  0  0  0  0  0  0  0  0
   -2.6177   -2.7709    0.0000 H   0  0  0  0  0  0  0  0  0  0  0  0
   -3.5462   -1.1628    0.0000 H   0  0  0  0  0  0  0  0  0  0  0  0
   -2.6177    0.4454    0.0000 H   0  0  0  0  0  0  0  0  0  0  0  0
   -0.7607    0.4454    0.0000 H   0  0  0  0  0  0  0  0  0  0  0  0
   -1.3067   -0.3061    0.0000 H   0  0  0  0  0  0  0  0  0  0  0  0
   -1.8805    1.4600    0.0000 H   0  0  0  0  0  0  0  0  0  0  0  0
   -0.6380    2.8400    0.0000 H   0  0  0  0  0  0  0  0  0  0  0  0
    1.1784    2.4539    0.0000 H   0  0  0  0  0  0  0  0  0  0  0  0
    2.7974    0.9794    0.0000 H   0  0  0  0  0  0  0  0  0  0  0  0
    0.1416   -2.7665    0.0000 H   0  0  0  0  0  0  0  0  0  0  0  0
    1.7522    0.6878    0.0000 H   0  0  0  0  0  0  0  0  0  0  0  0
    2.1570    2.2597    0.0000 H   0  0  0  0  0  0  0  0  0  0  0  0
    1.2304    2.7947    0.0000 H   0  0  0  0  0  0  0  0  0  0  0  0
    0.3037    0.3647    0.0000 H   0  0  0  0  0  0  0  0  0  0  0  0
    0.3038    1.4347    0.0000 H   0  0  0  0  0  0  0  0  0  0  0  0
    0.5159    3.1072    0.0000 H   0  0  0  0  0  0  0  0  0  0  0  0
  1 13  2  0  0  0  0
  1 18  1  0  0  0  0
  1 26  1  0  0  0  0
  2  3  1  0  0  0  0
  2 19  1  0  0  0  0
  2 21  2  0  0  0  0
  3  4  2  0  0  0  0
  3  8  1  0  0  0  0
  4  5  1  0  0  0  0
  4 27  1  0  0  0  0
  5  6  2  0  0  0  0
  5 28  1  0  0  0  0
  6  7  1  0  0  0  0
  6 29  1  0  0  0  0
  7  8  2  0  0  0  0
  7 30  1  0  0  0  0
  8 31  1  0  0  0  0
  9 10  2  0  0  0  0
  9 22  1  0  0  0  0
  9 32  1  0  0  0  0
 10 11  1  0  0  0  0
 10 33  1  0  0  0  0
 11 12  2  0  0  0  0
 11 34  1  0  0  0  0
 12 20  1  0  0  0  0
 12 35  1  0  0  0  0
 13 14  1  0  0  0  0
 14 15  2  0  0  0  0
 14 19  1  0  0  0  0
 15 17  1  0  0  0  0
 15 21  1  0  0  0  0
 16 17  1  0  0  0  0
 16 24  1  0  0  0  0
 16 36  1  0  0  0  0
 17 18  2  0  0  0  0
 19 37  1  0  0  0  0
 20 22  2  0  0  0  0
 20 38  1  0  0  0  0
 21 22  1  0  0  0  0
 23 24  1  0  0  0  0
 23 25  1  0  0  0  0
 23 39  1  0  0  0  0
 23 40  1  0  0  0  0
 24 41  1  0  0  0  0
 24 42  1  0  0  0  0
 25 43  1  0  0  0  0
M  END
>  <DRUGBANK_ID>
DB07655

>  <COMMON_NAME>
3-AMINO-3-BENZYL-[4.3.0]BICYCLO-1,6-DIAZANONAN-2-ONE

$$$$
