
 OpenBabel10282417072D

 30 32  0  0  1  0  0  0  0  0999 V2000
    3.2789    2.0625    0.0000 N   0  0  0  0  0  0  0  0  0  0  0  0
    3.2789    1.2375    0.0000 C   0  0  0  0  0  0  0  0  0  0  0  0
    3.9934    0.8250    0.0000 N   0  0  0  0  0  0  0  0  0  0  0  0
    3.9934    0.0000    0.0000 C   0  0  0  0  0  0  0  0  0  0  0  0
    3.2789   -0.4125    0.0000 N   0  0  0  0  0  0  0  0  0  0  0  0
    2.5645    0.0000    0.0000 C   0  0  0  0  0  0  0  0  0  0  0  0
    1.7798   -0.2549    0.0000 N   0  0  0  0  0  0  0  0  0  0  0  0
    1.2949    0.4125    0.0000 C   0  0  0  0  0  0  0  0  0  0  0  0
    1.7798    1.0799    0.0000 N   0  0  0  0  0  0  0  0  0  0  0  0
    2.5645    0.8250    0.0000 C   0  0  0  0  0  0  0  0  0  0  0  0
    1.5249   -1.0396    0.0000 C   0  0  1  0  0  0  0  0  0  0  0  0
    2.0098   -1.7070    0.0000 C   0  0  0  0  0  0  0  0  0  0  0  0
    1.5249   -2.3744    0.0000 C   0  0  0  0  0  0  0  0  0  0  0  0
    0.7403   -2.1195    0.0000 C   0  0  1  0  0  0  0  0  0  0  0  0
    0.0728   -2.6044    0.0000 C   0  0  0  0  0  0  0  0  0  0  0  0
    0.1591   -3.4249    0.0000 O   0  0  0  0  0  0  0  0  0  0  0  0
    0.7403   -1.2945    0.0000 O   0  0  0  0  0  0  0  0  0  0  0  0
    4.1315    2.5548    0.0000 H   0  0  0  0  0  0  0  0  0  0  0  0
    2.4263    2.5548    0.0000 H   0  0  0  0  0  0  0  0  0  0  0  0
    4.8871   -0.5160    0.0000 H   0  0  0  0  0  0  0  0  0  0  0  0
    0.2629    0.4125    0.0000 H   0  0  0  0  0  0  0  0  0  0  0  0
    2.5817   -0.8722    0.0000 H   0  0  0  0  0  0  0  0  0  0  0  0
    3.0798   -1.7070    0.0000 H   0  0  0  0  0  0  0  0  0  0  0  0
    2.4956   -2.6604    0.0000 H   0  0  0  0  0  0  0  0  0  0  0  0
    1.8556   -3.3920    0.0000 H   0  0  0  0  0  0  0  0  0  0  0  0
    0.7683   -3.1310    0.0000 H   0  0  0  0  0  0  0  0  0  0  0  0
    0.9077   -3.1763    0.0000 H   0  0  0  0  0  0  0  0  0  0  0  0
   -0.9047   -2.1692    0.0000 H   0  0  0  0  0  0  0  0  0  0  0  0
   -0.7928   -3.2334    0.0000 H   0  0  0  0  0  0  0  0  0  0  0  0
   -0.6256   -3.9951    0.0000 H   0  0  0  0  0  0  0  0  0  0  0  0
  1  2  1  0  0  0  0
  1 18  1  0  0  0  0
  1 19  1  0  0  0  0
  2  3  1  0  0  0  0
  2 10  2  0  0  0  0
  3  4  2  0  0  0  0
  4  5  1  0  0  0  0
  4 20  1  0  0  0  0
  5  6  2  0  0  0  0
  6  7  1  0  0  0  0
  6 10  1  0  0  0  0
  7  8  1  0  0  0  0
  8  9  2  0  0  0  0
  8 21  1  0  0  0  0
  9 10  1  0  0  0  0
 11  7  1  0  0  0  0
 11 12  1  0  0  0  0
 11 17  1  0  0  0  0
 11 22  1  6  0  0  0
 12 13  1  0  0  0  0
 12 23  1  0  0  0  0
 12 24  1  0  0  0  0
 13 25  1  0  0  0  0
 13 26  1  0  0  0  0
 14 13  1  0  0  0  0
 14 15  1  0  0  0  0
 14 17  1  0  0  0  0
 14 27  1  6  0  0  0
 15 16  1  0  0  0  0
 15 28  1  0  0  0  0
 15 29  1  0  0  0  0
 16 30  1  0  0  0  0
M  END
>  <DRUGBANK_ID>
DB17756

>  <COMMON_NAME>
Dideoxyadenosine

>  <CAS_NUMBER>
4097-22-7

>  <UNII>
4Q86AH641A

>  <SYNONYMS>
2'-3'-dideoxyadenosine; 2',3'-dideoxyadenosine; 6-amino-9-(2',3'-dideoxy-.beta.-d-glycero-pentofuranosyl)purine; 9-(2,3-dideoxy-.beta.-d-glycero-pentofuranosyl)-9h-purin-6-amine; Dideoxyadenosine

$$$$
