
 OpenBabel10282417072D

 39 40  0  0  0  0  0  0  0  0999 V2000
    3.2251    0.4423    0.0000 C   0  0  0  0  0  0  0  0  0  0  0  0
   -1.0223    2.0915    0.0000 C   0  0  0  0  0  0  0  0  0  0  0  0
    2.4405    0.1874    0.0000 C   0  0  0  0  0  0  0  0  0  0  0  0
   -2.8896   -2.0053    0.0000 C   0  0  0  0  0  0  0  0  0  0  0  0
   -2.0691   -2.0915    0.0000 C   0  0  0  0  0  0  0  0  0  0  0  0
   -3.2251   -1.2516    0.0000 C   0  0  0  0  0  0  0  0  0  0  0  0
   -1.5841   -1.4241    0.0000 C   0  0  0  0  0  0  0  0  0  0  0  0
   -2.7402   -0.5841    0.0000 C   0  0  0  0  0  0  0  0  0  0  0  0
    0.4297    1.0365    0.0000 C   0  0  0  0  0  0  0  0  0  0  0  0
   -0.3548    0.7816    0.0000 C   0  0  0  0  0  0  0  0  0  0  0  0
    1.0428    0.4845    0.0000 C   0  0  0  0  0  0  0  0  0  0  0  0
   -1.6897    0.7816    0.0000 C   0  0  0  0  0  0  0  0  0  0  0  0
   -1.4348   -0.0029    0.0000 C   0  0  3  0  0  0  0  0  0  0  0  0
   -1.0223    1.2665    0.0000 N   0  0  0  0  0  0  0  0  0  0  0  0
   -1.9197   -0.6704    0.0000 N   0  0  0  0  0  0  0  0  0  0  0  0
    0.8712   -0.3224    0.0000 O   0  0  0  0  0  0  0  0  0  0  0  0
   -2.4743    1.0365    0.0000 O   0  0  0  0  0  0  0  0  0  0  0  0
    1.8274    0.7394    0.0000 O   0  0  0  0  0  0  0  0  0  0  0  0
   -0.6098   -0.0029    0.0000 S   0  0  0  0  0  0  0  0  0  0  0  0
    0.6012    1.8435    0.0000 H   0  0  0  0  0  0  0  0  0  0  0  0
    4.0202   -0.2737    0.0000 H   0  0  0  0  0  0  0  0  0  0  0  0
    3.4476    1.4889    0.0000 H   0  0  0  0  0  0  0  0  0  0  0  0
    4.2427    0.7729    0.0000 H   0  0  0  0  0  0  0  0  0  0  0  0
   -0.0957    2.6265    0.0000 H   0  0  0  0  0  0  0  0  0  0  0  0
   -1.9489    2.6265    0.0000 H   0  0  0  0  0  0  0  0  0  0  0  0
   -1.0223    3.1615    0.0000 H   0  0  0  0  0  0  0  0  0  0  0  0
    2.2180   -0.8592    0.0000 H   0  0  0  0  0  0  0  0  0  0  0  0
    1.4229   -0.1433    0.0000 H   0  0  0  0  0  0  0  0  0  0  0  0
   -3.5185   -2.8709    0.0000 H   0  0  0  0  0  0  0  0  0  0  0  0
   -3.9537   -1.8934    0.0000 H   0  0  0  0  0  0  0  0  0  0  0  0
   -1.6339   -3.0690    0.0000 H   0  0  0  0  0  0  0  0  0  0  0  0
   -1.0050   -2.2034    0.0000 H   0  0  0  0  0  0  0  0  0  0  0  0
   -4.2892   -1.1397    0.0000 H   0  0  0  0  0  0  0  0  0  0  0  0
   -3.6603   -0.2741    0.0000 H   0  0  0  0  0  0  0  0  0  0  0  0
   -0.5200   -1.5360    0.0000 H   0  0  0  0  0  0  0  0  0  0  0  0
   -0.9552   -0.5585    0.0000 H   0  0  0  0  0  0  0  0  0  0  0  0
   -3.1754    0.3934    0.0000 H   0  0  0  0  0  0  0  0  0  0  0  0
   -2.1112    0.2815    0.0000 H   0  0  0  0  0  0  0  0  0  0  0  0
   -2.4916    0.1644    0.0000 H   0  0  0  0  0  0  0  0  0  0  0  0
  1 21  1  0  0  0  0
  1 22  1  0  0  0  0
  1 23  1  0  0  0  0
  2 24  1  0  0  0  0
  2 25  1  0  0  0  0
  2 26  1  0  0  0  0
  3  1  1  0  0  0  0
  3 27  1  0  0  0  0
  3 28  1  0  0  0  0
  4 29  1  0  0  0  0
  4 30  1  0  0  0  0
  5  4  1  0  0  0  0
  5 31  1  0  0  0  0
  5 32  1  0  0  0  0
  6  4  1  0  0  0  0
  6 33  1  0  0  0  0
  6 34  1  0  0  0  0
  7  5  1  0  0  0  0
  7 35  1  0  0  0  0
  7 36  1  0  0  0  0
  8  6  1  0  0  0  0
  8 37  1  0  0  0  0
  8 38  1  0  0  0  0
 10  9  2  0  0  0  0
 11  9  1  0  0  0  0
 13 12  1  0  0  0  0
 13 39  1  0  0  0  0
 14  2  1  0  0  0  0
 14 10  1  0  0  0  0
 14 12  1  0  0  0  0
 15  7  1  0  0  0  0
 15  8  1  0  0  0  0
 15 13  1  0  0  0  0
 16 11  2  0  0  0  0
 17 12  2  0  0  0  0
 18  3  1  0  0  0  0
 18 11  1  0  0  0  0
 19 10  1  0  0  0  0
 19 13  1  0  0  0  0
 20  9  1  0  0  0  0
M  END
>  <DRUGBANK_ID>
DB08982

>  <COMMON_NAME>
Etozoline

>  <CAS_NUMBER>
73-09-6

>  <UNII>
UEO8UW9V1Z

$$$$
