4RB
 OpenBabel10282417072D

 42 44  0  0  0  0  0  0  0  0999 V2000
   -1.0791   -0.9089    0.0000 C   0  0  0  0  0  0  0  0  0  0  0  0
   -1.3340   -1.6935    0.0000 C   0  0  0  0  0  0  0  0  0  0  0  0
   -2.1410   -1.8650    0.0000 C   0  0  0  0  0  0  0  0  0  0  0  0
   -2.3959   -2.6497    0.0000 C   0  0  0  0  0  0  0  0  0  0  0  0
   -3.2029   -2.8212    0.0000 O   0  0  0  0  0  0  0  0  0  0  0  0
   -1.8439   -3.2628    0.0000 O   0  0  0  0  0  0  0  0  0  0  0  0
   -2.6930   -1.2519    0.0000 C   0  0  0  0  0  0  0  0  0  0  0  0
   -2.4381   -0.4673    0.0000 C   0  0  0  0  0  0  0  0  0  0  0  0
   -1.6311   -0.2958    0.0000 C   0  0  0  0  0  0  0  0  0  0  0  0
   -1.3762    0.4888    0.0000 C   0  0  0  0  0  0  0  0  0  0  0  0
   -1.8611    1.1563    0.0000 C   0  0  0  0  0  0  0  0  0  0  0  0
   -1.3762    1.8237    0.0000 N   0  0  0  0  0  0  0  0  0  0  0  0
   -0.5916    1.5688    0.0000 C   0  0  0  0  0  0  0  0  0  0  0  0
    0.1229    1.9813    0.0000 C   0  0  0  0  0  0  0  0  0  0  0  0
    0.8374    1.5688    0.0000 C   0  0  0  0  0  0  0  0  0  0  0  0
   -0.5916    0.7438    0.0000 N   0  0  0  0  0  0  0  0  0  0  0  0
    0.1229    0.3313    0.0000 N   0  0  0  0  0  0  0  0  0  0  0  0
    0.8374    0.7438    0.0000 C   0  0  0  0  0  0  0  0  0  0  0  0
    1.5519    0.3313    0.0000 N   0  0  0  0  0  0  0  0  0  0  0  0
    2.2663    0.7438    0.0000 C   0  0  2  0  0  0  0  0  0  0  0  0
    2.9808    0.3313    0.0000 C   0  0  0  0  0  0  0  0  0  0  0  0
    3.6953    0.7438    0.0000 C   0  0  0  0  0  0  0  0  0  0  0  0
    2.2663    1.5688    0.0000 C   0  0  0  0  0  0  0  0  0  0  0  0
    2.9808    1.9813    0.0000 O   0  0  0  0  0  0  0  0  0  0  0  0
    2.2663    0.1598    0.0000 H   0  0  0  0  0  0  0  0  0  0  0  0
   -0.0697   -0.6943    0.0000 H   0  0  0  0  0  0  0  0  0  0  0  0
   -0.6435   -2.4604    0.0000 H   0  0  0  0  0  0  0  0  0  0  0  0
   -3.8298   -2.1248    0.0000 H   0  0  0  0  0  0  0  0  0  0  0  0
   -3.7024   -1.4665    0.0000 H   0  0  0  0  0  0  0  0  0  0  0  0
   -3.1286    0.2996    0.0000 H   0  0  0  0  0  0  0  0  0  0  0  0
   -2.8931    1.1563    0.0000 H   0  0  0  0  0  0  0  0  0  0  0  0
    0.1229    3.0133    0.0000 H   0  0  0  0  0  0  0  0  0  0  0  0
    1.7311    2.0848    0.0000 H   0  0  0  0  0  0  0  0  0  0  0  0
    1.5519   -0.6532    0.0000 H   0  0  0  0  0  0  0  0  0  0  0  0
    2.9808   -0.7387    0.0000 H   0  0  0  0  0  0  0  0  0  0  0  0
    3.9074   -0.2037    0.0000 H   0  0  0  0  0  0  0  0  0  0  0  0
    4.6219    0.2088    0.0000 H   0  0  0  0  0  0  0  0  0  0  0  0
    3.6953    1.8138    0.0000 H   0  0  0  0  0  0  0  0  0  0  0  0
    4.6220    1.2788    0.0000 H   0  0  0  0  0  0  0  0  0  0  0  0
    1.3397    2.1038    0.0000 H   0  0  0  0  0  0  0  0  0  0  0  0
    2.2663    2.6388    0.0000 H   0  0  0  0  0  0  0  0  0  0  0  0
    3.8208    1.4963    0.0000 H   0  0  0  0  0  0  0  0  0  0  0  0
  1  2  2  0  0  0  0
  1  9  1  0  0  0  0
  1 26  1  0  0  0  0
  2  3  1  0  0  0  0
  2 27  1  0  0  0  0
  3  4  1  0  0  0  0
  3  7  2  0  0  0  0
  4  5  1  0  0  0  0
  4  6  2  0  0  0  0
  5 28  1  0  0  0  0
  7  8  1  0  0  0  0
  7 29  1  0  0  0  0
  8  9  2  0  0  0  0
  8 30  1  0  0  0  0
  9 10  1  0  0  0  0
 10 11  2  0  0  0  0
 10 16  1  0  0  0  0
 11 12  1  0  0  0  0
 11 31  1  0  0  0  0
 12 13  2  0  0  0  0
 13 14  1  0  0  0  0
 13 16  1  0  0  0  0
 14 15  2  0  0  0  0
 14 32  1  0  0  0  0
 15 18  1  0  0  0  0
 15 33  1  0  0  0  0
 16 17  1  0  0  0  0
 17 18  2  0  0  0  0
 18 19  1  0  0  0  0
 19 34  1  0  0  0  0
 20 19  1  0  0  0  0
 20 21  1  0  0  0  0
 20 23  1  0  0  0  0
 20 25  1  6  0  0  0
 21 22  1  0  0  0  0
 21 35  1  0  0  0  0
 21 36  1  0  0  0  0
 22 37  1  0  0  0  0
 22 38  1  0  0  0  0
 22 39  1  0  0  0  0
 23 24  1  0  0  0  0
 23 40  1  0  0  0  0
 23 41  1  0  0  0  0
 24 42  1  0  0  0  0
M  END
>  <DRUGBANK_ID>
DB07125

>  <COMMON_NAME>
4-(6-{[(1R)-1-(hydroxymethyl)propyl]amino}imidazo[1,2-b]pyridazin-3-yl)benzoic acid

$$$$
