CMZ
 OpenBabel10282417072D

 42 43  0  0  0  0  0  0  0  0999 V2000
   -2.1803   -0.3491    0.0000 C   0  0  0  0  0  0  0  0  0  0  0  0
   -1.4659    0.0634    0.0000 C   0  0  0  0  0  0  0  0  0  0  0  0
   -1.4659    0.8884    0.0000 C   0  0  0  0  0  0  0  0  0  0  0  0
   -0.7514    1.3009    0.0000 C   0  0  0  0  0  0  0  0  0  0  0  0
   -0.0369    0.8884    0.0000 C   0  0  0  0  0  0  0  0  0  0  0  0
    0.6775    1.3009    0.0000 C   0  0  0  0  0  0  0  0  0  0  0  0
   -0.0369    0.0634    0.0000 C   0  0  0  0  0  0  0  0  0  0  0  0
    0.6775   -0.3491    0.0000 O   0  0  0  0  0  0  0  0  0  0  0  0
    1.3920    0.0634    0.0000 C   0  0  0  0  0  0  0  0  0  0  0  0
    2.1065   -0.3491    0.0000 C   0  0  1  0  0  0  0  0  0  0  0  0
    2.1065   -1.1741    0.0000 O   0  0  0  0  0  0  0  0  0  0  0  0
    2.8210    0.0634    0.0000 C   0  0  0  0  0  0  0  0  0  0  0  0
    3.5354   -0.3491    0.0000 N   0  0  0  0  0  0  0  0  0  0  0  0
    4.2499    0.0634    0.0000 C   0  0  0  0  0  0  0  0  0  0  0  0
    4.9644   -0.3491    0.0000 C   0  0  0  0  0  0  0  0  0  0  0  0
    4.9644   -1.1741    0.0000 O   0  0  0  0  0  0  0  0  0  0  0  0
    4.2499   -1.5866    0.0000 C   0  0  0  0  0  0  0  0  0  0  0  0
    3.5354   -1.1741    0.0000 C   0  0  0  0  0  0  0  0  0  0  0  0
   -0.7514   -0.3491    0.0000 C   0  0  0  0  0  0  0  0  0  0  0  0
    2.1065    0.2348    0.0000 H   0  0  0  0  0  0  0  0  0  0  0  0
   -3.1070    0.1859    0.0000 H   0  0  0  0  0  0  0  0  0  0  0  0
   -2.1803   -1.4191    0.0000 H   0  0  0  0  0  0  0  0  0  0  0  0
   -3.1069   -0.8841    0.0000 H   0  0  0  0  0  0  0  0  0  0  0  0
   -2.3596    1.4044    0.0000 H   0  0  0  0  0  0  0  0  0  0  0  0
   -0.7514    2.3329    0.0000 H   0  0  0  0  0  0  0  0  0  0  0  0
    1.6042    0.7659    0.0000 H   0  0  0  0  0  0  0  0  0  0  0  0
    0.6775    2.3709    0.0000 H   0  0  0  0  0  0  0  0  0  0  0  0
    1.6041    1.8359    0.0000 H   0  0  0  0  0  0  0  0  0  0  0  0
    1.3920    1.1334    0.0000 H   0  0  0  0  0  0  0  0  0  0  0  0
    0.4654    0.5984    0.0000 H   0  0  0  0  0  0  0  0  0  0  0  0
    1.2665   -1.6591    0.0000 H   0  0  0  0  0  0  0  0  0  0  0  0
    2.8210    1.1334    0.0000 H   0  0  0  0  0  0  0  0  0  0  0  0
    3.7477    0.5984    0.0000 H   0  0  0  0  0  0  0  0  0  0  0  0
    4.2499    1.1334    0.0000 H   0  0  0  0  0  0  0  0  0  0  0  0
    5.1765    0.5984    0.0000 H   0  0  0  0  0  0  0  0  0  0  0  0
    5.8910    0.1859    0.0000 H   0  0  0  0  0  0  0  0  0  0  0  0
    5.8910   -0.8841    0.0000 H   0  0  0  0  0  0  0  0  0  0  0  0
    4.2499   -2.6566    0.0000 H   0  0  0  0  0  0  0  0  0  0  0  0
    5.1765   -2.1216    0.0000 H   0  0  0  0  0  0  0  0  0  0  0  0
    2.6088   -1.7091    0.0000 H   0  0  0  0  0  0  0  0  0  0  0  0
    3.5354   -2.2441    0.0000 H   0  0  0  0  0  0  0  0  0  0  0  0
   -0.7514   -1.3811    0.0000 H   0  0  0  0  0  0  0  0  0  0  0  0
  1  2  1  0  0  0  0
  1 21  1  0  0  0  0
  1 22  1  0  0  0  0
  1 23  1  0  0  0  0
  2  3  1  0  0  0  0
  3  4  2  0  0  0  0
  3 24  1  0  0  0  0
  4 25  1  0  0  0  0
  5  4  1  0  0  0  0
  5  6  1  0  0  0  0
  6 26  1  0  0  0  0
  6 27  1  0  0  0  0
  6 28  1  0  0  0  0
  7  5  2  0  0  0  0
  8  7  1  0  0  0  0
  9 10  1  0  0  0  0
  9  8  1  0  0  0  0
  9 29  1  0  0  0  0
  9 30  1  0  0  0  0
 10 12  1  0  0  0  0
 10 20  1  1  0  0  0
 10 11  1  0  0  0  0
 11 31  1  0  0  0  0
 12 32  1  0  0  0  0
 12 33  1  0  0  0  0
 13 12  1  0  0  0  0
 13 14  1  0  0  0  0
 13 18  1  0  0  0  0
 14 34  1  0  0  0  0
 14 35  1  0  0  0  0
 15 14  1  0  0  0  0
 15 16  1  0  0  0  0
 15 36  1  0  0  0  0
 15 37  1  0  0  0  0
 17 18  1  0  0  0  0
 17 16  1  0  0  0  0
 17 38  1  0  0  0  0
 17 39  1  0  0  0  0
 18 40  1  0  0  0  0
 18 41  1  0  0  0  0
 19  2  2  0  0  0  0
 19  7  1  0  0  0  0
 19 42  1  0  0  0  0
M  END
>  <DRUGBANK_ID>
DB07573

>  <COMMON_NAME>
(2S)-1-(2,5-dimethylphenoxy)-3-morpholin-4-ylpropan-2-ol

$$$$
