
 OpenBabel10282417072D

 89 91  0  0  0  0  0  0  0  0999 V2000
    4.4084    2.3827    0.0000 O   0  0  0  0  0  0  0  0  0  0  0  0
    3.6805    1.9987    0.0000 O   0  0  0  0  0  0  0  0  0  0  0  0
   -3.4644   -0.4762    0.0000 O   0  0  0  0  0  0  0  0  0  0  0  0
   -5.6079   -2.5388    0.0000 O   0  0  0  0  0  0  0  0  0  0  0  0
   -2.7499   -2.5388    0.0000 O   0  0  0  0  0  0  0  0  0  0  0  0
   -2.0354    1.1737    0.0000 O   0  0  0  0  0  0  0  0  0  0  0  0
   -4.8934    1.9987    0.0000 O   0  0  0  0  0  0  0  0  0  0  0  0
   -6.3224   -1.3013    0.0000 O   0  0  0  0  0  0  0  0  0  0  0  0
   -4.1789    3.2363    0.0000 O   0  0  0  0  0  0  0  0  0  0  0  0
   -2.0354   -5.4264    0.0000 O   0  0  0  0  0  0  0  0  0  0  0  0
   -3.4644   -5.4264    0.0000 O   0  0  0  0  0  0  0  0  0  0  0  0
    0.1079   -4.1889    0.0000 O   0  0  0  0  0  0  0  0  0  0  0  0
   -0.6064   -2.9513    0.0000 O   0  0  0  0  0  0  0  0  0  0  0  0
    2.9659    3.2363    0.0000 N   0  0  0  0  0  0  0  0  0  0  0  0
    2.9659    4.8863    0.0000 N   0  0  0  0  0  0  0  0  0  0  0  0
    0.8225    3.6488    0.0000 N   0  0  0  0  0  0  0  0  0  0  0  0
    4.4180    4.9150    0.0000 N   0  0  0  0  0  0  0  0  0  0  0  0
    5.1655    3.6316    0.0000 N   0  0  0  0  0  0  0  0  0  0  0  0
   -4.8934   -0.4762    0.0000 N   0  0  0  0  0  0  0  0  0  0  0  0
   -2.7499    2.4113    0.0000 N   0  0  0  0  0  0  0  0  0  0  0  0
   -3.4644   -3.7763    0.0000 N   0  0  0  0  0  0  0  0  0  0  0  0
    5.8784    4.9062    0.0000 N   0  0  0  0  0  0  0  0  0  0  0  0
    2.2514    3.6488    0.0000 C   0  0  2  0  0  0  0  0  0  0  0  0
    2.2514    4.4738    0.0000 C   0  0  0  0  0  0  0  0  0  0  0  0
    1.5370    3.2363    0.0000 C   0  0  0  0  0  0  0  0  0  0  0  0
    3.6805    3.6488    0.0000 C   0  0  0  0  0  0  0  0  0  0  0  0
    3.6805    4.4738    0.0000 C   0  0  0  0  0  0  0  0  0  0  0  0
    4.4180    3.2077    0.0000 C   0  0  0  0  0  0  0  0  0  0  0  0
    2.9659    2.4113    0.0000 C   0  0  0  0  0  0  0  0  0  0  0  0
    0.1079    3.2363    0.0000 C   0  0  0  0  0  0  0  0  0  0  0  0
    5.1655    4.4910    0.0000 C   0  0  0  0  0  0  0  0  0  0  0  0
   -4.8934   -1.3013    0.0000 C   0  0  1  0  0  0  0  0  0  0  0  0
   -4.1789   -1.7138    0.0000 C   0  0  0  0  0  0  0  0  0  0  0  0
   -3.4644    1.1737    0.0000 C   0  0  0  0  0  0  0  0  0  0  0  0
   -3.4644    1.9987    0.0000 C   0  0  1  0  0  0  0  0  0  0  0  0
   -4.1789    0.7612    0.0000 C   0  0  0  0  0  0  0  0  0  0  0  0
   -4.1789   -2.5388    0.0000 C   0  0  0  0  0  0  0  0  0  0  0  0
   -0.6064    3.6488    0.0000 C   0  0  0  0  0  0  0  0  0  0  0  0
    0.1079    2.4113    0.0000 C   0  0  0  0  0  0  0  0  0  0  0  0
   -1.3209    2.4113    0.0000 C   0  0  0  0  0  0  0  0  0  0  0  0
   -4.1789   -0.0637    0.0000 C   0  0  0  0  0  0  0  0  0  0  0  0
   -2.7499   -4.1889    0.0000 C   0  0  1  0  0  0  0  0  0  0  0  0
   -1.3209    3.2363    0.0000 C   0  0  0  0  0  0  0  0  0  0  0  0
   -0.6064    1.9987    0.0000 C   0  0  0  0  0  0  0  0  0  0  0  0
   -3.4644   -2.9513    0.0000 C   0  0  0  0  0  0  0  0  0  0  0  0
   -2.0354   -3.7763    0.0000 C   0  0  0  0  0  0  0  0  0  0  0  0
   -2.0354    1.9987    0.0000 C   0  0  0  0  0  0  0  0  0  0  0  0
   -5.6079   -1.7138    0.0000 C   0  0  0  0  0  0  0  0  0  0  0  0
   -4.1789    2.4113    0.0000 C   0  0  0  0  0  0  0  0  0  0  0  0
   -1.3209   -4.1889    0.0000 C   0  0  0  0  0  0  0  0  0  0  0  0
   -2.7499   -5.0139    0.0000 C   0  0  0  0  0  0  0  0  0  0  0  0
   -0.6064   -3.7763    0.0000 C   0  0  0  0  0  0  0  0  0  0  0  0
    2.9659    5.3979    0.0000 H   0  0  0  0  0  0  0  0  0  0  0  0
    0.8225    4.1603    0.0000 H   0  0  0  0  0  0  0  0  0  0  0  0
    4.4120    5.4264    0.0000 H   0  0  0  0  0  0  0  0  0  0  0  0
   -5.3364   -0.2205    0.0000 H   0  0  0  0  0  0  0  0  0  0  0  0
   -2.7499    2.9228    0.0000 H   0  0  0  0  0  0  0  0  0  0  0  0
   -3.9074   -4.0321    0.0000 H   0  0  0  0  0  0  0  0  0  0  0  0
    5.8765    5.4177    0.0000 H   0  0  0  0  0  0  0  0  0  0  0  0
    6.3224    4.6522    0.0000 H   0  0  0  0  0  0  0  0  0  0  0  0
   -6.4194   -3.0073    0.0000 H   0  0  0  0  0  0  0  0  0  0  0  0
   -5.7049    2.4671    0.0000 H   0  0  0  0  0  0  0  0  0  0  0  0
   -2.0354   -6.3634    0.0000 H   0  0  0  0  0  0  0  0  0  0  0  0
    0.1077   -5.1259    0.0000 H   0  0  0  0  0  0  0  0  0  0  0  0
    2.2514    2.5788    0.0000 H   0  0  0  0  0  0  0  0  0  0  0  0
    1.3248    5.0088    0.0000 H   0  0  0  0  0  0  0  0  0  0  0  0
    1.3248    3.9388    0.0000 H   0  0  0  0  0  0  0  0  0  0  0  0
    1.5370    2.1663    0.0000 H   0  0  0  0  0  0  0  0  0  0  0  0
    2.4637    2.7013    0.0000 H   0  0  0  0  0  0  0  0  0  0  0  0
    2.0722    1.8953    0.0000 H   0  0  0  0  0  0  0  0  0  0  0  0
   -3.9668   -0.7663    0.0000 H   0  0  0  0  0  0  0  0  0  0  0  0
   -3.2523   -1.1788    0.0000 H   0  0  0  0  0  0  0  0  0  0  0  0
   -3.2523   -2.2488    0.0000 H   0  0  0  0  0  0  0  0  0  0  0  0
   -2.5378    0.6387    0.0000 H   0  0  0  0  0  0  0  0  0  0  0  0
   -3.4644    0.1037    0.0000 H   0  0  0  0  0  0  0  0  0  0  0  0
   -2.5377    1.4637    0.0000 H   0  0  0  0  0  0  0  0  0  0  0  0
   -5.1055    1.2962    0.0000 H   0  0  0  0  0  0  0  0  0  0  0  0
   -5.1055    0.2262    0.0000 H   0  0  0  0  0  0  0  0  0  0  0  0
   -5.1055   -3.0738    0.0000 H   0  0  0  0  0  0  0  0  0  0  0  0
   -4.1789   -3.6088    0.0000 H   0  0  0  0  0  0  0  0  0  0  0  0
   -0.6063    4.6808    0.0000 H   0  0  0  0  0  0  0  0  0  0  0  0
    1.0017    1.8954    0.0000 H   0  0  0  0  0  0  0  0  0  0  0  0
   -2.7499   -3.1189    0.0000 H   0  0  0  0  0  0  0  0  0  0  0  0
   -2.2146    3.7523    0.0000 H   0  0  0  0  0  0  0  0  0  0  0  0
   -0.6063    0.9667    0.0000 H   0  0  0  0  0  0  0  0  0  0  0  0
   -2.0354   -2.7063    0.0000 H   0  0  0  0  0  0  0  0  0  0  0  0
   -1.1087   -3.2413    0.0000 H   0  0  0  0  0  0  0  0  0  0  0  0
   -1.3209   -5.2589    0.0000 H   0  0  0  0  0  0  0  0  0  0  0  0
   -0.3942   -4.7239    0.0000 H   0  0  0  0  0  0  0  0  0  0  0  0
  1 28  2  0  0  0  0
  2 29  2  0  0  0  0
  3 41  2  0  0  0  0
  4 48  1  0  0  0  0
  4 61  1  0  0  0  0
  5 45  2  0  0  0  0
  6 47  2  0  0  0  0
  7 49  1  0  0  0  0
  7 62  1  0  0  0  0
  8 48  2  0  0  0  0
  9 49  2  0  0  0  0
 10 51  1  0  0  0  0
 10 63  1  0  0  0  0
 11 51  2  0  0  0  0
 12 52  1  0  0  0  0
 12 64  1  0  0  0  0
 13 52  2  0  0  0  0
 14 23  1  0  0  0  0
 14 26  1  0  0  0  0
 14 29  1  0  0  0  0
 15 24  1  0  0  0  0
 15 27  1  0  0  0  0
 15 53  1  0  0  0  0
 16 25  1  0  0  0  0
 16 30  1  0  0  0  0
 16 54  1  0  0  0  0
 17 27  1  0  0  0  0
 17 31  1  0  0  0  0
 17 55  1  0  0  0  0
 18 28  1  0  0  0  0
 18 31  2  0  0  0  0
 19 41  1  0  0  0  0
 19 56  1  0  0  0  0
 20 47  1  0  0  0  0
 20 57  1  0  0  0  0
 21 45  1  0  0  0  0
 21 58  1  0  0  0  0
 22 31  1  0  0  0  0
 22 59  1  0  0  0  0
 22 60  1  0  0  0  0
 23 24  1  0  0  0  0
 23 25  1  0  0  0  0
 23 65  1  6  0  0  0
 24 66  1  0  0  0  0
 24 67  1  0  0  0  0
 25 68  1  0  0  0  0
 25 69  1  0  0  0  0
 26 27  2  0  0  0  0
 26 28  1  0  0  0  0
 29 70  1  0  0  0  0
 30 38  2  0  0  0  0
 30 39  1  0  0  0  0
 32 19  1  0  0  0  0
 32 33  1  0  0  0  0
 32 48  1  0  0  0  0
 32 71  1  6  0  0  0
 33 37  1  0  0  0  0
 33 72  1  0  0  0  0
 33 73  1  0  0  0  0
 34 35  1  0  0  0  0
 34 36  1  0  0  0  0
 34 74  1  0  0  0  0
 34 75  1  0  0  0  0
 35 20  1  0  0  0  0
 35 49  1  0  0  0  0
 35 76  1  6  0  0  0
 36 41  1  0  0  0  0
 36 77  1  0  0  0  0
 36 78  1  0  0  0  0
 37 45  1  0  0  0  0
 37 79  1  0  0  0  0
 37 80  1  0  0  0  0
 38 43  1  0  0  0  0
 38 81  1  0  0  0  0
 39 44  2  0  0  0  0
 39 82  1  0  0  0  0
 40 43  2  0  0  0  0
 40 44  1  0  0  0  0
 40 47  1  0  0  0  0
 42 21  1  0  0  0  0
 42 46  1  0  0  0  0
 42 51  1  0  0  0  0
 42 83  1  6  0  0  0
 43 84  1  0  0  0  0
 44 85  1  0  0  0  0
 46 50  1  0  0  0  0
 46 86  1  0  0  0  0
 46 87  1  0  0  0  0
 50 52  1  0  0  0  0
 50 88  1  0  0  0  0
 50 89  1  0  0  0  0
M  END
>  <DRUGBANK_ID>
DB02067

>  <SECONDARY_ACCESSION_NUMBERS>
EXPT03045

>  <COMMON_NAME>
Triglu-5-formyl-tetrahydrofolate

$$$$
