
 OpenBabel10282417072D

 64 68  0  0  0  0  0  0  0  0999 V2000
    0.5757    1.2039    0.0000 P   0  0  2  0  0  0  0  0  0  0  0  0
    0.0436   -1.6451    0.0000 O   0  0  0  0  0  0  0  0  0  0  0  0
    1.4203    3.8197    0.0000 O   0  0  0  0  0  0  0  0  0  0  0  0
    0.3221    1.9889    0.0000 O   0  0  0  0  0  0  0  0  0  0  0  0
    0.8292    0.4188    0.0000 O   0  0  0  0  0  0  0  0  0  0  0  0
    1.9822   -0.7510    0.0000 O   0  0  0  0  0  0  0  0  0  0  0  0
    2.1069    1.7983    0.0000 O   0  0  0  0  0  0  0  0  0  0  0  0
    1.9792   -2.5460    0.0000 O   0  0  0  0  0  0  0  0  0  0  0  0
    3.0961    4.2211    0.0000 O   0  0  0  0  0  0  0  0  0  0  0  0
    1.3608    1.4574    0.0000 O   0  0  0  0  0  0  0  0  0  0  0  0
   -0.2094    0.9503    0.0000 O   0  0  0  0  0  0  0  0  0  0  0  0
    0.5354    5.0498    0.0000 O   0  0  0  0  0  0  0  0  0  0  0  0
   -1.2240   -5.4118    0.0000 O   0  0  0  0  0  0  0  0  0  0  0  0
   -2.3075    4.7560    0.0000 O   0  0  0  0  0  0  0  0  0  0  0  0
    0.2711   -3.0977    0.0000 N   0  0  0  0  0  0  0  0  0  0  0  0
   -0.0480    3.7454    0.0000 N   0  0  0  0  0  0  0  0  0  0  0  0
   -1.2240   -2.9366    0.0000 N   0  0  0  0  0  0  0  0  0  0  0  0
    0.2711   -4.4256    0.0000 N   0  0  0  0  0  0  0  0  0  0  0  0
   -0.8860    4.9030    0.0000 N   0  0  0  0  0  0  0  0  0  0  0  0
   -1.9385   -4.1742    0.0000 N   0  0  0  0  0  0  0  0  0  0  0  0
   -2.6531   -2.9366    0.0000 N   0  0  0  0  0  0  0  0  0  0  0  0
    0.8752    2.6011    0.0000 C   0  0  2  0  0  0  0  0  0  0  0  0
    0.5297   -0.9785    0.0000 C   0  0  1  0  0  0  0  0  0  0  0  0
    1.3139   -1.2348    0.0000 C   0  0  2  0  0  0  0  0  0  0  0  0
    1.6956    2.5135    0.0000 C   0  0  1  0  0  0  0  0  0  0  0  0
    1.3125   -2.0599    0.0000 C   0  0  2  0  0  0  0  0  0  0  0  0
    0.5274   -2.3134    0.0000 C   0  0  1  0  0  0  0  0  0  0  0  0
    0.7050    3.4085    0.0000 C   0  0  1  0  0  0  0  0  0  0  0  0
    2.0325    3.2666    0.0000 C   0  0  1  0  0  0  0  0  0  0  0  0
    0.2761   -0.1933    0.0000 C   0  0  0  0  0  0  0  0  0  0  0  0
    2.8398    3.4368    0.0000 C   0  0  0  0  0  0  0  0  0  0  0  0
   -0.5095   -3.3491    0.0000 C   0  0  0  0  0  0  0  0  0  0  0  0
    0.7526   -3.7617    0.0000 C   0  0  0  0  0  0  0  0  0  0  0  0
   -0.1329    4.5661    0.0000 C   0  0  0  0  0  0  0  0  0  0  0  0
   -0.7164    3.2616    0.0000 C   0  0  0  0  0  0  0  0  0  0  0  0
   -0.5095   -4.1742    0.0000 C   0  0  0  0  0  0  0  0  0  0  0  0
   -1.4695    3.5985    0.0000 C   0  0  0  0  0  0  0  0  0  0  0  0
   -1.2240   -4.5867    0.0000 C   0  0  0  0  0  0  0  0  0  0  0  0
   -1.5543    4.4192    0.0000 C   0  0  0  0  0  0  0  0  0  0  0  0
   -1.9385   -3.3491    0.0000 C   0  0  0  0  0  0  0  0  0  0  0  0
   -1.2240   -2.4251    0.0000 H   0  0  0  0  0  0  0  0  0  0  0  0
   -0.9385    5.4118    0.0000 H   0  0  0  0  0  0  0  0  0  0  0  0
   -2.6531   -2.4251    0.0000 H   0  0  0  0  0  0  0  0  0  0  0  0
   -3.0961   -3.1924    0.0000 H   0  0  0  0  0  0  0  0  0  0  0  0
    2.8677   -1.1471    0.0000 H   0  0  0  0  0  0  0  0  0  0  0  0
    1.6205    0.9591    0.0000 H   0  0  0  0  0  0  0  0  0  0  0  0
    1.8762   -3.5105    0.0000 H   0  0  0  0  0  0  0  0  0  0  0  0
    4.0452    4.4212    0.0000 H   0  0  0  0  0  0  0  0  0  0  0  0
    2.0805    0.8070    0.0000 H   0  0  0  0  0  0  0  0  0  0  0  0
    1.2570    1.6015    0.0000 H   0  0  0  0  0  0  0  0  0  0  0  0
   -0.5268   -0.8093    0.0000 H   0  0  0  0  0  0  0  0  0  0  0  0
    1.1483   -0.1777    0.0000 H   0  0  0  0  0  0  0  0  0  0  0  0
    1.1113    1.6171    0.0000 H   0  0  0  0  0  0  0  0  0  0  0  0
    2.2667   -1.5757    0.0000 H   0  0  0  0  0  0  0  0  0  0  0  0
   -0.5297   -2.4790    0.0000 H   0  0  0  0  0  0  0  0  0  0  0  0
    0.6510    4.4771    0.0000 H   0  0  0  0  0  0  0  0  0  0  0  0
    2.3112    4.2997    0.0000 H   0  0  0  0  0  0  0  0  0  0  0  0
   -0.7701    0.0310    0.0000 H   0  0  0  0  0  0  0  0  0  0  0  0
   -0.4413   -0.9872    0.0000 H   0  0  0  0  0  0  0  0  0  0  0  0
    3.5544    2.6404    0.0000 H   0  0  0  0  0  0  0  0  0  0  0  0
    2.5075    2.4197    0.0000 H   0  0  0  0  0  0  0  0  0  0  0  0
    1.7846   -3.7617    0.0000 H   0  0  0  0  0  0  0  0  0  0  0  0
   -0.6104    2.2351    0.0000 H   0  0  0  0  0  0  0  0  0  0  0  0
   -2.3055    2.9934    0.0000 H   0  0  0  0  0  0  0  0  0  0  0  0
  1  4  1  0  0  0  0
  1  5  1  0  0  0  0
  1 10  1  0  0  0  0
  1 11  2  6  0  0  0
  2 23  1  0  0  0  0
  2 27  1  0  0  0  0
  3 28  1  0  0  0  0
  3 29  1  0  0  0  0
  5 30  1  0  0  0  0
  6 45  1  0  0  0  0
  7 46  1  0  0  0  0
  8 47  1  0  0  0  0
  9 31  1  0  0  0  0
  9 48  1  0  0  0  0
 10 49  1  0  0  0  0
 12 34  2  0  0  0  0
 13 38  2  0  0  0  0
 14 39  2  0  0  0  0
 15 32  1  0  0  0  0
 15 33  1  0  0  0  0
 16 34  1  0  0  0  0
 16 35  1  0  0  0  0
 17 32  1  0  0  0  0
 17 40  1  0  0  0  0
 17 41  1  0  0  0  0
 18 33  2  0  0  0  0
 18 36  1  0  0  0  0
 19 34  1  0  0  0  0
 19 39  1  0  0  0  0
 19 42  1  0  0  0  0
 20 38  1  0  0  0  0
 20 40  2  0  0  0  0
 21 40  1  0  0  0  0
 21 43  1  0  0  0  0
 21 44  1  0  0  0  0
 22  4  1  0  0  0  0
 22 25  1  0  0  0  0
 22 28  1  0  0  0  0
 22 50  1  6  0  0  0
 23 24  1  0  0  0  0
 23 30  1  0  0  0  0
 23 51  1  1  0  0  0
 24  6  1  0  0  0  0
 24 26  1  0  0  0  0
 24 52  1  6  0  0  0
 25  7  1  0  0  0  0
 25 29  1  0  0  0  0
 25 53  1  6  0  0  0
 26  8  1  0  0  0  0
 26 27  1  0  0  0  0
 26 54  1  6  0  0  0
 27 15  1  0  0  0  0
 27 55  1  1  0  0  0
 28 16  1  0  0  0  0
 28 56  1  1  0  0  0
 29 31  1  0  0  0  0
 29 57  1  1  0  0  0
 30 58  1  0  0  0  0
 30 59  1  0  0  0  0
 31 60  1  0  0  0  0
 31 61  1  0  0  0  0
 32 36  2  0  0  0  0
 33 62  1  0  0  0  0
 35 37  2  0  0  0  0
 35 63  1  0  0  0  0
 36 38  1  0  0  0  0
 37 39  1  0  0  0  0
 37 64  1  0  0  0  0
M  END
>  <DRUGBANK_ID>
DB04514

>  <SECONDARY_ACCESSION_NUMBERS>
EXPT03158

>  <COMMON_NAME>
Uridylyl-2'-5'-phospho-guanosine

>  <UNII>
HEM972VB27

$$$$
