
 OpenBabel10282417072D

 49 51  0  0  0  0  0  0  0  0999 V2000
   -2.1449   -0.0035    0.0000 C   0  0  0  0  0  0  0  0  0  0  0  0
   -1.4299   -0.4091    0.0000 C   0  0  0  0  0  0  0  0  0  0  0  0
   -2.8564   -0.4160    0.0000 C   0  0  0  0  0  0  0  0  0  0  0  0
   -2.1449    0.8250    0.0000 C   0  0  0  0  0  0  0  0  0  0  0  0
   -1.4264   -1.2410    0.0000 C   0  0  0  0  0  0  0  0  0  0  0  0
   -0.7150    0.0034    0.0000 C   0  0  0  0  0  0  0  0  0  0  0  0
   -2.8530   -1.2444    0.0000 C   0  0  0  0  0  0  0  0  0  0  0  0
   -3.5715   -0.0035    0.0000 C   0  0  0  0  0  0  0  0  0  0  0  0
   -2.8564    1.2409    0.0000 C   0  0  0  0  0  0  0  0  0  0  0  0
   -2.1415   -1.6535    0.0000 O   0  0  0  0  0  0  0  0  0  0  0  0
   -0.7115   -1.6500    0.0000 C   0  0  0  0  0  0  0  0  0  0  0  0
    0.0034   -0.4091    0.0000 C   0  0  0  0  0  0  0  0  0  0  0  0
   -0.7150    0.8284    0.0000 O   0  0  0  0  0  0  0  0  0  0  0  0
   -2.8599   -2.0659    0.0000 C   0  0  0  0  0  0  0  0  0  0  0  0
   -3.5715   -0.8250    0.0000 C   0  0  0  0  0  0  0  0  0  0  0  0
   -3.5715    0.8250    0.0000 C   0  0  0  0  0  0  0  0  0  0  0  0
   -2.8530    2.0659    0.0000 C   0  0  0  0  0  0  0  0  0  0  0  0
    0.0034   -1.2341    0.0000 C   0  0  0  0  0  0  0  0  0  0  0  0
    0.7185   -1.6431    0.0000 C   0  0  0  0  0  0  0  0  0  0  0  0
    1.4334   -1.2272    0.0000 C   0  0  0  0  0  0  0  0  0  0  0  0
    2.1450   -1.6397    0.0000 C   0  0  0  0  0  0  0  0  0  0  0  0
    2.8565   -1.2237    0.0000 C   0  0  0  0  0  0  0  0  0  0  0  0
    3.5715   -1.6328    0.0000 C   0  0  0  0  0  0  0  0  0  0  0  0
   -1.2498    1.3386    0.0000 H   0  0  0  0  0  0  0  0  0  0  0  0
   -4.4651   -0.5197    0.0000 H   0  0  0  0  0  0  0  0  0  0  0  0
   -0.7078   -2.6820    0.0000 H   0  0  0  0  0  0  0  0  0  0  0  0
    0.8965    0.1080    0.0000 H   0  0  0  0  0  0  0  0  0  0  0  0
    0.0965    1.2969    0.0000 H   0  0  0  0  0  0  0  0  0  0  0  0
   -3.7910   -2.5931    0.0000 H   0  0  0  0  0  0  0  0  0  0  0  0
   -1.9378   -2.6087    0.0000 H   0  0  0  0  0  0  0  0  0  0  0  0
   -2.8689   -3.1359    0.0000 H   0  0  0  0  0  0  0  0  0  0  0  0
   -3.5664    0.2450    0.0000 H   0  0  0  0  0  0  0  0  0  0  0  0
   -4.5007   -1.3556    0.0000 H   0  0  0  0  0  0  0  0  0  0  0  0
   -4.4956   -0.2856    0.0000 H   0  0  0  0  0  0  0  0  0  0  0  0
   -4.4661    1.3396    0.0000 H   0  0  0  0  0  0  0  0  0  0  0  0
   -1.9242    2.5971    0.0000 H   0  0  0  0  0  0  0  0  0  0  0  0
   -3.7774    2.6047    0.0000 H   0  0  0  0  0  0  0  0  0  0  0  0
   -2.8486    3.1359    0.0000 H   0  0  0  0  0  0  0  0  0  0  0  0
    0.7224   -2.7131    0.0000 H   0  0  0  0  0  0  0  0  0  0  0  0
    1.6470   -2.1749    0.0000 H   0  0  0  0  0  0  0  0  0  0  0  0
    1.4326   -0.1572    0.0000 H   0  0  0  0  0  0  0  0  0  0  0  0
    2.3603   -0.6926    0.0000 H   0  0  0  0  0  0  0  0  0  0  0  0
    2.1470   -2.7097    0.0000 H   0  0  0  0  0  0  0  0  0  0  0  0
    3.0736   -2.1713    0.0000 H   0  0  0  0  0  0  0  0  0  0  0  0
    2.8515   -0.1537    0.0000 H   0  0  0  0  0  0  0  0  0  0  0  0
    3.7808   -0.6847    0.0000 H   0  0  0  0  0  0  0  0  0  0  0  0
    3.5757   -2.7028    0.0000 H   0  0  0  0  0  0  0  0  0  0  0  0
    4.4961   -1.0942    0.0000 H   0  0  0  0  0  0  0  0  0  0  0  0
    4.5002   -2.1642    0.0000 H   0  0  0  0  0  0  0  0  0  0  0  0
  1  2  1  0  0  0  0
  1  3  2  0  0  0  0
  1  4  1  0  0  0  0
  2  5  2  0  0  0  0
  2  6  1  0  0  0  0
  3  7  1  0  0  0  0
  3  8  1  0  0  0  0
  4  9  2  0  0  0  0
  4 24  1  0  0  0  0
  5 10  1  0  0  0  0
  5 11  1  0  0  0  0
  6 12  2  0  0  0  0
  6 13  1  0  0  0  0
  7 14  1  0  0  0  0
  7 15  1  0  0  0  0
  7 10  1  0  0  0  0
  8 16  2  0  0  0  0
  8 25  1  0  0  0  0
  9 17  1  0  0  0  0
  9 16  1  0  0  0  0
 11 18  2  0  0  0  0
 11 26  1  0  0  0  0
 12 18  1  0  0  0  0
 12 27  1  0  0  0  0
 13 28  1  0  0  0  0
 14 29  1  0  0  0  0
 14 30  1  0  0  0  0
 14 31  1  0  0  0  0
 15 32  1  0  0  0  0
 15 33  1  0  0  0  0
 15 34  1  0  0  0  0
 16 35  1  0  0  0  0
 17 36  1  0  0  0  0
 17 37  1  0  0  0  0
 17 38  1  0  0  0  0
 18 19  1  0  0  0  0
 19 20  1  0  0  0  0
 19 39  1  0  0  0  0
 19 40  1  0  0  0  0
 20 21  1  0  0  0  0
 20 41  1  0  0  0  0
 20 42  1  0  0  0  0
 21 22  1  0  0  0  0
 21 43  1  0  0  0  0
 21 44  1  0  0  0  0
 22 23  1  0  0  0  0
 22 45  1  0  0  0  0
 22 46  1  0  0  0  0
 23 47  1  0  0  0  0
 23 48  1  0  0  0  0
 23 49  1  0  0  0  0
M  END
>  <DRUGBANK_ID>
DB14737

>  <COMMON_NAME>
Cannabinol

>  <CAS_NUMBER>
521-35-7

>  <UNII>
7UYP6MC9GH

>  <SYNONYMS>
6,6,9-Trimethyl-3-pentyl-6H-dibenzo(b,d)pyran-1-ol; Cannabinol; Cannabinolo; Cannabinolum; CBN

$$$$
