
 OpenBabel10282417072D

 54 56  0  0  0  0  0  0  0  0999 V2000
   -1.4289    0.8250    0.0000 C   0  0  0  0  0  0  0  0  0  0  0  0
   -1.4289    0.0000    0.0000 C   0  0  0  0  0  0  0  0  0  0  0  0
   -2.1434   -0.4125    0.0000 C   0  0  0  0  0  0  0  0  0  0  0  0
   -2.8579    0.0000    0.0000 C   0  0  0  0  0  0  0  0  0  0  0  0
   -3.5724   -0.4125    0.0000 C   0  0  0  0  0  0  0  0  0  0  0  0
   -4.2868    0.0000    0.0000 C   0  0  0  0  0  0  0  0  0  0  0  0
   -4.2868    0.8250    0.0000 C   0  0  0  0  0  0  0  0  0  0  0  0
   -3.5724    1.2375    0.0000 C   0  0  0  0  0  0  0  0  0  0  0  0
   -2.8579    0.8250    0.0000 C   0  0  0  0  0  0  0  0  0  0  0  0
   -5.0013    1.2375    0.0000 C   0  0  0  0  0  0  0  0  0  0  0  0
   -5.0013    2.0625    0.0000 O   0  0  0  0  0  0  0  0  0  0  0  0
   -5.7158    0.8250    0.0000 O   0  0  0  0  0  0  0  0  0  0  0  0
   -0.7145   -0.4125    0.0000 C   0  0  0  0  0  0  0  0  0  0  0  0
   -0.7145   -1.2375    0.0000 C   0  0  0  0  0  0  0  0  0  0  0  0
    0.0000   -1.6500    0.0000 C   0  0  0  0  0  0  0  0  0  0  0  0
    0.7145   -1.2375    0.0000 C   0  0  0  0  0  0  0  0  0  0  0  0
    0.7145   -0.4125    0.0000 C   0  0  0  0  0  0  0  0  0  0  0  0
    0.0000    0.0000    0.0000 C   0  0  0  0  0  0  0  0  0  0  0  0
    1.4289    0.0000    0.0000 C   0  0  0  0  0  0  0  0  0  0  0  0
    0.8986    0.6320    0.0000 C   0  0  0  0  0  0  0  0  0  0  0  0
    1.9592    0.6320    0.0000 C   0  0  0  0  0  0  0  0  0  0  0  0
    2.1434   -0.4125    0.0000 C   0  0  0  0  0  0  0  0  0  0  0  0
    2.1434   -1.2375    0.0000 C   0  0  0  0  0  0  0  0  0  0  0  0
    1.4289   -1.6500    0.0000 C   0  0  0  0  0  0  0  0  0  0  0  0
    1.8163   -2.3784    0.0000 C   0  0  0  0  0  0  0  0  0  0  0  0
    1.0416   -2.3784    0.0000 C   0  0  0  0  0  0  0  0  0  0  0  0
   -0.5023    1.3600    0.0000 H   0  0  0  0  0  0  0  0  0  0  0  0
   -2.3555    1.3600    0.0000 H   0  0  0  0  0  0  0  0  0  0  0  0
   -1.4289    1.8950    0.0000 H   0  0  0  0  0  0  0  0  0  0  0  0
   -2.1434   -1.4445    0.0000 H   0  0  0  0  0  0  0  0  0  0  0  0
   -3.5724   -1.4445    0.0000 H   0  0  0  0  0  0  0  0  0  0  0  0
   -5.1805   -0.5160    0.0000 H   0  0  0  0  0  0  0  0  0  0  0  0
   -3.5724    2.2695    0.0000 H   0  0  0  0  0  0  0  0  0  0  0  0
   -1.9642    1.3410    0.0000 H   0  0  0  0  0  0  0  0  0  0  0  0
   -4.1898    2.5310    0.0000 H   0  0  0  0  0  0  0  0  0  0  0  0
   -1.6082   -1.7535    0.0000 H   0  0  0  0  0  0  0  0  0  0  0  0
    0.0000   -2.6820    0.0000 H   0  0  0  0  0  0  0  0  0  0  0  0
    0.0000    1.0320    0.0000 H   0  0  0  0  0  0  0  0  0  0  0  0
    1.2646    1.6375    0.0000 H   0  0  0  0  0  0  0  0  0  0  0  0
   -0.1551    0.4462    0.0000 H   0  0  0  0  0  0  0  0  0  0  0  0
    0.2108    1.4517    0.0000 H   0  0  0  0  0  0  0  0  0  0  0  0
    3.0129    0.4462    0.0000 H   0  0  0  0  0  0  0  0  0  0  0  0
    1.5932    1.6375    0.0000 H   0  0  0  0  0  0  0  0  0  0  0  0
    2.6470    1.4517    0.0000 H   0  0  0  0  0  0  0  0  0  0  0  0
    3.0700    0.1225    0.0000 H   0  0  0  0  0  0  0  0  0  0  0  0
    3.0700   -0.9475    0.0000 H   0  0  0  0  0  0  0  0  0  0  0  0
    3.0700   -1.7725    0.0000 H   0  0  0  0  0  0  0  0  0  0  0  0
    2.1434   -2.3075    0.0000 H   0  0  0  0  0  0  0  0  0  0  0  0
    1.2494   -3.2859    0.0000 H   0  0  0  0  0  0  0  0  0  0  0  0
    2.8857   -2.4156    0.0000 H   0  0  0  0  0  0  0  0  0  0  0  0
    2.3187   -3.3231    0.0000 H   0  0  0  0  0  0  0  0  0  0  0  0
   -0.0277   -2.4157    0.0000 H   0  0  0  0  0  0  0  0  0  0  0  0
    1.6086   -3.2858    0.0000 H   0  0  0  0  0  0  0  0  0  0  0  0
    0.5393   -3.3232    0.0000 H   0  0  0  0  0  0  0  0  0  0  0  0
  1  2  1  0  0  0  0
  1 27  1  0  0  0  0
  1 28  1  0  0  0  0
  1 29  1  0  0  0  0
  2  3  2  0  0  0  0
  2 13  1  0  0  0  0
  3  4  1  0  0  0  0
  3 30  1  0  0  0  0
  4  5  2  0  0  0  0
  4  9  1  0  0  0  0
  5  6  1  0  0  0  0
  5 31  1  0  0  0  0
  6  7  2  0  0  0  0
  6 32  1  0  0  0  0
  7  8  1  0  0  0  0
  7 10  1  0  0  0  0
  8  9  2  0  0  0  0
  8 33  1  0  0  0  0
  9 34  1  0  0  0  0
 10 11  1  0  0  0  0
 10 12  2  0  0  0  0
 11 35  1  0  0  0  0
 13 14  2  0  0  0  0
 13 18  1  0  0  0  0
 14 15  1  0  0  0  0
 14 36  1  0  0  0  0
 15 16  2  0  0  0  0
 15 37  1  0  0  0  0
 16 17  1  0  0  0  0
 16 24  1  0  0  0  0
 17 18  2  0  0  0  0
 17 19  1  0  0  0  0
 18 38  1  0  0  0  0
 19 20  1  0  0  0  0
 19 21  1  0  0  0  0
 19 22  1  0  0  0  0
 20 39  1  0  0  0  0
 20 40  1  0  0  0  0
 20 41  1  0  0  0  0
 21 42  1  0  0  0  0
 21 43  1  0  0  0  0
 21 44  1  0  0  0  0
 22 23  1  0  0  0  0
 22 45  1  0  0  0  0
 22 46  1  0  0  0  0
 23 24  1  0  0  0  0
 23 47  1  0  0  0  0
 23 48  1  0  0  0  0
 24 25  1  0  0  0  0
 24 26  1  0  0  0  0
 25 49  1  0  0  0  0
 25 50  1  0  0  0  0
 25 51  1  0  0  0  0
 26 52  1  0  0  0  0
 26 53  1  0  0  0  0
 26 54  1  0  0  0  0
M  END
>  <DRUGBANK_ID>
DB02877

>  <SECONDARY_ACCESSION_NUMBERS>
EXPT03128

>  <COMMON_NAME>
Arotinoid acid

>  <CAS_NUMBER>
71441-28-6

>  <UNII>
673M8C29UR

>  <SYNONYMS>
(E)-4-(2-(5,6,7,8-Tetrahydro-5,5,8,8-tetramethyl-2-naphthalenyl)-1-propen-1-yl)benzoic acid; Arotinoic acid; Arotinoid acid; TTNPB

$$$$
