
 OpenBabel10282417072D

214213  0  0  1  0  0  0  0  0999 V2000
   -5.0014   -0.2062    0.0000 C   0  0  0  0  0  0  0  0  0  0  0  0
   -4.2868    0.2062    0.0000 C   0  0  3  0  0  0  0  0  0  0  0  0
   -3.5724   -0.2062    0.0000 C   0  0  0  0  0  0  0  0  0  0  0  0
   -2.8579    0.2062    0.0000 S   0  0  0  0  0  0  0  0  0  0  0  0
   -2.1435   -0.2062    0.0000 C   0  0  0  0  0  0  0  0  0  0  0  0
   -1.4290    0.2062    0.0000 C   0  0  1  0  0  0  0  0  0  0  0  0
   -0.7145   -0.2062    0.0000 C   0  0  0  0  0  0  0  0  0  0  0  0
    0.0000    0.2062    0.0000 N   0  0  0  0  0  0  0  0  0  0  0  0
    0.7145   -0.2062    0.0000 C   0  0  2  0  0  0  0  0  0  0  0  0
    1.4290    0.2062    0.0000 C   0  0  0  0  0  0  0  0  0  0  0  0
    2.1435   -0.2062    0.0000 N   0  0  0  0  0  0  0  0  0  0  0  0
    2.8579    0.2062    0.0000 C   0  0  2  0  0  0  0  0  0  0  0  0
    3.5724   -0.2062    0.0000 C   0  0  0  0  0  0  0  0  0  0  0  0
    4.2869    0.2062    0.0000 N   0  0  0  0  0  0  0  0  0  0  0  0
    5.0014   -0.2062    0.0000 C   0  0  2  0  0  0  0  0  0  0  0  0
    5.7160    0.2062    0.0000 C   0  0  0  0  0  0  0  0  0  0  0  0
    6.4304   -0.2062    0.0000 N   0  0  0  0  0  0  0  0  0  0  0  0
    7.1450    0.2062    0.0000 C   0  0  2  0  0  0  0  0  0  0  0  0
    7.8595   -0.2062    0.0000 C   0  0  0  0  0  0  0  0  0  0  0  0
    8.5739    0.2062    0.0000 N   0  0  0  0  0  0  0  0  0  0  0  0
    9.2884   -0.2062    0.0000 C   0  0  2  0  0  0  0  0  0  0  0  0
   10.0029    0.2062    0.0000 C   0  0  0  0  0  0  0  0  0  0  0  0
   10.7174   -0.2062    0.0000 O   0  0  0  0  0  0  0  0  0  0  0  0
   -5.0014   -1.0312    0.0000 O   0  0  0  0  0  0  0  0  0  0  0  0
   -5.7159   -1.4437    0.0000 C   0  0  0  0  0  0  0  0  0  0  0  0
   -5.7159   -2.2688    0.0000 C   0  0  0  0  0  0  0  0  0  0  0  0
   -6.4304   -2.6813    0.0000 C   0  0  0  0  0  0  0  0  0  0  0  0
   -6.4304   -3.5063    0.0000 C   0  0  0  0  0  0  0  0  0  0  0  0
   -7.1449   -3.9188    0.0000 C   0  0  0  0  0  0  0  0  0  0  0  0
   -7.1449   -4.7439    0.0000 C   0  0  0  0  0  0  0  0  0  0  0  0
   -7.8595   -5.1564    0.0000 C   0  0  0  0  0  0  0  0  0  0  0  0
   -7.8595   -5.9814    0.0000 C   0  0  0  0  0  0  0  0  0  0  0  0
   -8.5739   -6.3939    0.0000 C   0  0  0  0  0  0  0  0  0  0  0  0
   -8.5739   -7.2189    0.0000 C   0  0  0  0  0  0  0  0  0  0  0  0
   -9.2884   -7.6315    0.0000 C   0  0  0  0  0  0  0  0  0  0  0  0
   -9.2884   -8.4565    0.0000 C   0  0  0  0  0  0  0  0  0  0  0  0
  -10.0029   -8.8690    0.0000 C   0  0  0  0  0  0  0  0  0  0  0  0
  -10.0029   -9.6940    0.0000 C   0  0  0  0  0  0  0  0  0  0  0  0
  -10.7174  -10.1065    0.0000 C   0  0  0  0  0  0  0  0  0  0  0  0
  -10.7174  -10.9316    0.0000 C   0  0  0  0  0  0  0  0  0  0  0  0
   -6.4304   -1.0312    0.0000 O   0  0  0  0  0  0  0  0  0  0  0  0
   -4.2868    1.0312    0.0000 O   0  0  0  0  0  0  0  0  0  0  0  0
   -3.5724    1.4439    0.0000 C   0  0  0  0  0  0  0  0  0  0  0  0
   -3.5724    2.2689    0.0000 C   0  0  0  0  0  0  0  0  0  0  0  0
   -2.8579    2.6813    0.0000 C   0  0  0  0  0  0  0  0  0  0  0  0
   -2.8579    3.5063    0.0000 C   0  0  0  0  0  0  0  0  0  0  0  0
   -2.1435    3.9189    0.0000 C   0  0  0  0  0  0  0  0  0  0  0  0
   -2.1435    4.7440    0.0000 C   0  0  0  0  0  0  0  0  0  0  0  0
   -1.4290    5.1564    0.0000 C   0  0  0  0  0  0  0  0  0  0  0  0
   -1.4290    5.9814    0.0000 C   0  0  0  0  0  0  0  0  0  0  0  0
   -0.7145    6.3940    0.0000 C   0  0  0  0  0  0  0  0  0  0  0  0
   -0.7145    7.2190    0.0000 C   0  0  0  0  0  0  0  0  0  0  0  0
    0.0000    7.6315    0.0000 C   0  0  0  0  0  0  0  0  0  0  0  0
    0.0000    8.4565    0.0000 C   0  0  0  0  0  0  0  0  0  0  0  0
    0.7145    8.8691    0.0000 C   0  0  0  0  0  0  0  0  0  0  0  0
    0.7145    9.6941    0.0000 C   0  0  0  0  0  0  0  0  0  0  0  0
    1.4290   10.1065    0.0000 C   0  0  0  0  0  0  0  0  0  0  0  0
    1.4290   10.9316    0.0000 C   0  0  0  0  0  0  0  0  0  0  0  0
   -2.8579    1.0312    0.0000 O   0  0  0  0  0  0  0  0  0  0  0  0
   -0.7145   -1.0312    0.0000 O   0  0  0  0  0  0  0  0  0  0  0  0
   -1.4290    1.0312    0.0000 N   0  0  0  0  0  0  0  0  0  0  0  0
    0.7145   -1.0312    0.0000 C   0  0  0  0  0  0  0  0  0  0  0  0
    1.4290   -1.4437    0.0000 O   0  0  0  0  0  0  0  0  0  0  0  0
    1.4290    1.0312    0.0000 O   0  0  0  0  0  0  0  0  0  0  0  0
    2.8579    1.0312    0.0000 C   0  0  0  0  0  0  0  0  0  0  0  0
    3.5724    1.4439    0.0000 C   0  0  0  0  0  0  0  0  0  0  0  0
    3.5724    2.2689    0.0000 C   0  0  0  0  0  0  0  0  0  0  0  0
    4.2869    2.6813    0.0000 C   0  0  0  0  0  0  0  0  0  0  0  0
    4.2869    3.5063    0.0000 N   0  0  0  0  0  0  0  0  0  0  0  0
    3.5724   -1.0312    0.0000 O   0  0  0  0  0  0  0  0  0  0  0  0
    5.0014   -1.0312    0.0000 C   0  0  0  0  0  0  0  0  0  0  0  0
    5.7160   -1.4437    0.0000 C   0  0  0  0  0  0  0  0  0  0  0  0
    5.7160   -2.2688    0.0000 C   0  0  0  0  0  0  0  0  0  0  0  0
    6.4304   -2.6813    0.0000 C   0  0  0  0  0  0  0  0  0  0  0  0
    6.4304   -3.5063    0.0000 N   0  0  0  0  0  0  0  0  0  0  0  0
    5.7160    1.0312    0.0000 O   0  0  0  0  0  0  0  0  0  0  0  0
    7.1450    1.0312    0.0000 C   0  0  0  0  0  0  0  0  0  0  0  0
    7.8595    1.4439    0.0000 C   0  0  0  0  0  0  0  0  0  0  0  0
    7.8595    2.2689    0.0000 C   0  0  0  0  0  0  0  0  0  0  0  0
    8.5739    2.6813    0.0000 C   0  0  0  0  0  0  0  0  0  0  0  0
    8.5739    3.5063    0.0000 N   0  0  0  0  0  0  0  0  0  0  0  0
    7.8595   -1.0312    0.0000 O   0  0  0  0  0  0  0  0  0  0  0  0
    9.2884   -1.0312    0.0000 C   0  0  0  0  0  0  0  0  0  0  0  0
   10.0029   -1.4437    0.0000 C   0  0  0  0  0  0  0  0  0  0  0  0
   10.0029   -2.2688    0.0000 C   0  0  0  0  0  0  0  0  0  0  0  0
   10.7174   -2.6813    0.0000 C   0  0  0  0  0  0  0  0  0  0  0  0
   10.7174   -3.5063    0.0000 N   0  0  0  0  0  0  0  0  0  0  0  0
   10.0029    1.0312    0.0000 O   0  0  0  0  0  0  0  0  0  0  0  0
   -5.9280    0.3289    0.0000 H   0  0  0  0  0  0  0  0  0  0  0  0
   -5.9281   -0.7412    0.0000 H   0  0  0  0  0  0  0  0  0  0  0  0
   -4.2869   -0.8638    0.0000 H   0  0  0  0  0  0  0  0  0  0  0  0
   -3.5724   -1.2762    0.0000 H   0  0  0  0  0  0  0  0  0  0  0  0
   -2.6458   -0.7413    0.0000 H   0  0  0  0  0  0  0  0  0  0  0  0
   -2.1435   -1.2762    0.0000 H   0  0  0  0  0  0  0  0  0  0  0  0
   -1.2169   -0.7413    0.0000 H   0  0  0  0  0  0  0  0  0  0  0  0
   -2.3556    0.7413    0.0000 H   0  0  0  0  0  0  0  0  0  0  0  0
    0.0000    1.1907    0.0000 H   0  0  0  0  0  0  0  0  0  0  0  0
   -0.2121   -0.7413    0.0000 H   0  0  0  0  0  0  0  0  0  0  0  0
    2.1435   -1.1907    0.0000 H   0  0  0  0  0  0  0  0  0  0  0  0
    1.9313    0.7412    0.0000 H   0  0  0  0  0  0  0  0  0  0  0  0
    4.2869    1.1907    0.0000 H   0  0  0  0  0  0  0  0  0  0  0  0
    4.0748   -0.7413    0.0000 H   0  0  0  0  0  0  0  0  0  0  0  0
    6.4303   -1.1907    0.0000 H   0  0  0  0  0  0  0  0  0  0  0  0
    6.2184    0.7413    0.0000 H   0  0  0  0  0  0  0  0  0  0  0  0
    8.5739    1.1907    0.0000 H   0  0  0  0  0  0  0  0  0  0  0  0
    8.3618   -0.7413    0.0000 H   0  0  0  0  0  0  0  0  0  0  0  0
   10.7175   -1.1432    0.0000 H   0  0  0  0  0  0  0  0  0  0  0  0
   -4.7893   -2.8038    0.0000 H   0  0  0  0  0  0  0  0  0  0  0  0
   -5.7159   -3.3388    0.0000 H   0  0  0  0  0  0  0  0  0  0  0  0
   -7.3570   -2.1463    0.0000 H   0  0  0  0  0  0  0  0  0  0  0  0
   -7.3570   -3.2163    0.0000 H   0  0  0  0  0  0  0  0  0  0  0  0
   -5.5038   -4.0413    0.0000 H   0  0  0  0  0  0  0  0  0  0  0  0
   -6.4304   -4.5763    0.0000 H   0  0  0  0  0  0  0  0  0  0  0  0
   -8.0715   -3.3838    0.0000 H   0  0  0  0  0  0  0  0  0  0  0  0
   -8.0715   -4.4538    0.0000 H   0  0  0  0  0  0  0  0  0  0  0  0
   -6.2183   -5.2789    0.0000 H   0  0  0  0  0  0  0  0  0  0  0  0
   -7.1450   -5.8139    0.0000 H   0  0  0  0  0  0  0  0  0  0  0  0
   -8.7861   -4.6214    0.0000 H   0  0  0  0  0  0  0  0  0  0  0  0
   -8.7862   -5.6914    0.0000 H   0  0  0  0  0  0  0  0  0  0  0  0
   -6.9328   -6.5164    0.0000 H   0  0  0  0  0  0  0  0  0  0  0  0
   -7.8595   -7.0514    0.0000 H   0  0  0  0  0  0  0  0  0  0  0  0
   -9.5006   -5.8589    0.0000 H   0  0  0  0  0  0  0  0  0  0  0  0
   -9.5005   -6.9289    0.0000 H   0  0  0  0  0  0  0  0  0  0  0  0
   -7.6472   -7.7539    0.0000 H   0  0  0  0  0  0  0  0  0  0  0  0
   -8.5738   -8.2889    0.0000 H   0  0  0  0  0  0  0  0  0  0  0  0
  -10.2151   -7.0965    0.0000 H   0  0  0  0  0  0  0  0  0  0  0  0
  -10.2150   -8.1665    0.0000 H   0  0  0  0  0  0  0  0  0  0  0  0
   -8.3618   -8.9915    0.0000 H   0  0  0  0  0  0  0  0  0  0  0  0
   -9.2884   -9.5265    0.0000 H   0  0  0  0  0  0  0  0  0  0  0  0
  -10.9295   -8.3340    0.0000 H   0  0  0  0  0  0  0  0  0  0  0  0
  -10.9295   -9.4040    0.0000 H   0  0  0  0  0  0  0  0  0  0  0  0
   -9.0763  -10.2290    0.0000 H   0  0  0  0  0  0  0  0  0  0  0  0
  -10.0029  -10.7640    0.0000 H   0  0  0  0  0  0  0  0  0  0  0  0
  -11.6440   -9.5715    0.0000 H   0  0  0  0  0  0  0  0  0  0  0  0
  -11.6440  -10.6415    0.0000 H   0  0  0  0  0  0  0  0  0  0  0  0
  -11.6440  -11.4666    0.0000 H   0  0  0  0  0  0  0  0  0  0  0  0
   -9.7908  -11.4666    0.0000 H   0  0  0  0  0  0  0  0  0  0  0  0
  -10.7174  -12.0016    0.0000 H   0  0  0  0  0  0  0  0  0  0  0  0
   -4.4990    2.8040    0.0000 H   0  0  0  0  0  0  0  0  0  0  0  0
   -3.5723    3.3389    0.0000 H   0  0  0  0  0  0  0  0  0  0  0  0
   -1.9313    2.1462    0.0000 H   0  0  0  0  0  0  0  0  0  0  0  0
   -1.9312    3.2163    0.0000 H   0  0  0  0  0  0  0  0  0  0  0  0
   -3.7846    4.0412    0.0000 H   0  0  0  0  0  0  0  0  0  0  0  0
   -2.8580    4.5763    0.0000 H   0  0  0  0  0  0  0  0  0  0  0  0
   -1.2168    3.3840    0.0000 H   0  0  0  0  0  0  0  0  0  0  0  0
   -1.2169    4.4539    0.0000 H   0  0  0  0  0  0  0  0  0  0  0  0
   -3.0701    5.2791    0.0000 H   0  0  0  0  0  0  0  0  0  0  0  0
   -2.1434    5.8140    0.0000 H   0  0  0  0  0  0  0  0  0  0  0  0
   -0.5024    4.6213    0.0000 H   0  0  0  0  0  0  0  0  0  0  0  0
   -0.5023    5.6914    0.0000 H   0  0  0  0  0  0  0  0  0  0  0  0
   -2.3557    6.5164    0.0000 H   0  0  0  0  0  0  0  0  0  0  0  0
   -1.4291    7.0514    0.0000 H   0  0  0  0  0  0  0  0  0  0  0  0
    0.2122    5.8590    0.0000 H   0  0  0  0  0  0  0  0  0  0  0  0
    0.2121    6.9290    0.0000 H   0  0  0  0  0  0  0  0  0  0  0  0
   -1.6411    7.7540    0.0000 H   0  0  0  0  0  0  0  0  0  0  0  0
   -0.7145    8.2890    0.0000 H   0  0  0  0  0  0  0  0  0  0  0  0
    0.9266    7.0965    0.0000 H   0  0  0  0  0  0  0  0  0  0  0  0
    0.9266    8.1665    0.0000 H   0  0  0  0  0  0  0  0  0  0  0  0
   -0.9267    8.9915    0.0000 H   0  0  0  0  0  0  0  0  0  0  0  0
   -0.0001    9.5265    0.0000 H   0  0  0  0  0  0  0  0  0  0  0  0
    1.6412    8.3341    0.0000 H   0  0  0  0  0  0  0  0  0  0  0  0
    1.6411    9.4041    0.0000 H   0  0  0  0  0  0  0  0  0  0  0  0
   -0.2121   10.2292    0.0000 H   0  0  0  0  0  0  0  0  0  0  0  0
    0.7146   10.7641    0.0000 H   0  0  0  0  0  0  0  0  0  0  0  0
    2.3556    9.5714    0.0000 H   0  0  0  0  0  0  0  0  0  0  0  0
    2.3557   10.6415    0.0000 H   0  0  0  0  0  0  0  0  0  0  0  0
    2.3556   11.4666    0.0000 H   0  0  0  0  0  0  0  0  0  0  0  0
    0.5024   11.4666    0.0000 H   0  0  0  0  0  0  0  0  0  0  0  0
    1.4290   12.0016    0.0000 H   0  0  0  0  0  0  0  0  0  0  0  0
   -0.5457    1.5412    0.0000 H   0  0  0  0  0  0  0  0  0  0  0  0
   -2.3123    1.5412    0.0000 H   0  0  0  0  0  0  0  0  0  0  0  0
   -0.2121   -1.5662    0.0000 H   0  0  0  0  0  0  0  0  0  0  0  0
    0.7145   -2.1012    0.0000 H   0  0  0  0  0  0  0  0  0  0  0  0
    1.4290   -2.4137    0.0000 H   0  0  0  0  0  0  0  0  0  0  0  0
    1.9312    1.5661    0.0000 H   0  0  0  0  0  0  0  0  0  0  0  0
    2.8577    2.1012    0.0000 H   0  0  0  0  0  0  0  0  0  0  0  0
    4.4991    0.9090    0.0000 H   0  0  0  0  0  0  0  0  0  0  0  0
    4.4990    1.9789    0.0000 H   0  0  0  0  0  0  0  0  0  0  0  0
    2.6458    2.8040    0.0000 H   0  0  0  0  0  0  0  0  0  0  0  0
    3.5725    3.3389    0.0000 H   0  0  0  0  0  0  0  0  0  0  0  0
    5.2135    2.1462    0.0000 H   0  0  0  0  0  0  0  0  0  0  0  0
    5.2136    3.2163    0.0000 H   0  0  0  0  0  0  0  0  0  0  0  0
    5.1702    4.0163    0.0000 H   0  0  0  0  0  0  0  0  0  0  0  0
    3.4036    4.0163    0.0000 H   0  0  0  0  0  0  0  0  0  0  0  0
    4.0748   -1.5662    0.0000 H   0  0  0  0  0  0  0  0  0  0  0  0
    5.0015   -2.1012    0.0000 H   0  0  0  0  0  0  0  0  0  0  0  0
    6.6426   -0.9087    0.0000 H   0  0  0  0  0  0  0  0  0  0  0  0
    6.6427   -1.9787    0.0000 H   0  0  0  0  0  0  0  0  0  0  0  0
    4.7893   -2.8038    0.0000 H   0  0  0  0  0  0  0  0  0  0  0  0
    5.7160   -3.3388    0.0000 H   0  0  0  0  0  0  0  0  0  0  0  0
    7.3571   -2.1463    0.0000 H   0  0  0  0  0  0  0  0  0  0  0  0
    7.3570   -3.2163    0.0000 H   0  0  0  0  0  0  0  0  0  0  0  0
    5.5471   -4.0163    0.0000 H   0  0  0  0  0  0  0  0  0  0  0  0
    7.3137   -4.0163    0.0000 H   0  0  0  0  0  0  0  0  0  0  0  0
    6.2183    1.5661    0.0000 H   0  0  0  0  0  0  0  0  0  0  0  0
    7.1448    2.1012    0.0000 H   0  0  0  0  0  0  0  0  0  0  0  0
    8.7862    0.9090    0.0000 H   0  0  0  0  0  0  0  0  0  0  0  0
    8.7861    1.9789    0.0000 H   0  0  0  0  0  0  0  0  0  0  0  0
    6.9329    2.8039    0.0000 H   0  0  0  0  0  0  0  0  0  0  0  0
    7.8595    3.3389    0.0000 H   0  0  0  0  0  0  0  0  0  0  0  0
    9.5005    2.1463    0.0000 H   0  0  0  0  0  0  0  0  0  0  0  0
    9.5006    3.2163    0.0000 H   0  0  0  0  0  0  0  0  0  0  0  0
    9.4572    4.0163    0.0000 H   0  0  0  0  0  0  0  0  0  0  0  0
    7.6906    4.0163    0.0000 H   0  0  0  0  0  0  0  0  0  0  0  0
    8.3618   -1.5662    0.0000 H   0  0  0  0  0  0  0  0  0  0  0  0
    9.2884   -2.1012    0.0000 H   0  0  0  0  0  0  0  0  0  0  0  0
   10.9295   -0.9087    0.0000 H   0  0  0  0  0  0  0  0  0  0  0  0
   10.9295   -1.9787    0.0000 H   0  0  0  0  0  0  0  0  0  0  0  0
    9.0763   -2.8038    0.0000 H   0  0  0  0  0  0  0  0  0  0  0  0
   10.0029   -3.3388    0.0000 H   0  0  0  0  0  0  0  0  0  0  0  0
   11.6440   -2.1463    0.0000 H   0  0  0  0  0  0  0  0  0  0  0  0
   11.6440   -3.2163    0.0000 H   0  0  0  0  0  0  0  0  0  0  0  0
    9.8341   -4.0163    0.0000 H   0  0  0  0  0  0  0  0  0  0  0  0
   11.6007   -4.0163    0.0000 H   0  0  0  0  0  0  0  0  0  0  0  0
  1  2  1  0  0  0  0
  1 24  1  0  0  0  0
  1 89  1  0  0  0  0
  1 90  1  0  0  0  0
  2  3  1  0  0  0  0
  2 42  1  0  0  0  0
  2 91  1  0  0  0  0
  3  4  1  0  0  0  0
  3 92  1  0  0  0  0
  3 93  1  0  0  0  0
  4  5  1  0  0  0  0
  5  6  1  0  0  0  0
  5 94  1  0  0  0  0
  5 95  1  0  0  0  0
  6  7  1  0  0  0  0
  6 61  1  0  0  0  0
  6 96  1  1  0  0  0
  7  8  1  0  0  0  0
  7 60  2  0  0  0  0
  8  9  1  0  0  0  0
  8 97  1  0  0  0  0
  9 10  1  0  0  0  0
  9 62  1  0  0  0  0
  9 98  1  1  0  0  0
 10 11  1  0  0  0  0
 10 64  2  0  0  0  0
 11 12  1  0  0  0  0
 11 99  1  0  0  0  0
 12 13  1  0  0  0  0
 12 65  1  0  0  0  0
 12100  1  6  0  0  0
 13 14  1  0  0  0  0
 13 70  2  0  0  0  0
 14 15  1  0  0  0  0
 14101  1  0  0  0  0
 15 16  1  0  0  0  0
 15 71  1  0  0  0  0
 15102  1  1  0  0  0
 16 17  1  0  0  0  0
 16 76  2  0  0  0  0
 17 18  1  0  0  0  0
 17103  1  0  0  0  0
 18 19  1  0  0  0  0
 18 77  1  0  0  0  0
 18104  1  6  0  0  0
 19 20  1  0  0  0  0
 19 82  2  0  0  0  0
 20 21  1  0  0  0  0
 20105  1  0  0  0  0
 21 22  1  0  0  0  0
 21 83  1  0  0  0  0
 21106  1  1  0  0  0
 22 23  1  0  0  0  0
 22 88  2  0  0  0  0
 23107  1  0  0  0  0
 24 25  1  0  0  0  0
 25 26  1  0  0  0  0
 25 41  2  0  0  0  0
 26 27  1  0  0  0  0
 26108  1  0  0  0  0
 26109  1  0  0  0  0
 27 28  1  0  0  0  0
 27110  1  0  0  0  0
 27111  1  0  0  0  0
 28 29  1  0  0  0  0
 28112  1  0  0  0  0
 28113  1  0  0  0  0
 29 30  1  0  0  0  0
 29114  1  0  0  0  0
 29115  1  0  0  0  0
 30 31  1  0  0  0  0
 30116  1  0  0  0  0
 30117  1  0  0  0  0
 31 32  1  0  0  0  0
 31118  1  0  0  0  0
 31119  1  0  0  0  0
 32 33  1  0  0  0  0
 32120  1  0  0  0  0
 32121  1  0  0  0  0
 33 34  1  0  0  0  0
 33122  1  0  0  0  0
 33123  1  0  0  0  0
 34 35  1  0  0  0  0
 34124  1  0  0  0  0
 34125  1  0  0  0  0
 35 36  1  0  0  0  0
 35126  1  0  0  0  0
 35127  1  0  0  0  0
 36 37  1  0  0  0  0
 36128  1  0  0  0  0
 36129  1  0  0  0  0
 37 38  1  0  0  0  0
 37130  1  0  0  0  0
 37131  1  0  0  0  0
 38 39  1  0  0  0  0
 38132  1  0  0  0  0
 38133  1  0  0  0  0
 39 40  1  0  0  0  0
 39134  1  0  0  0  0
 39135  1  0  0  0  0
 40136  1  0  0  0  0
 40137  1  0  0  0  0
 40138  1  0  0  0  0
 42 43  1  0  0  0  0
 43 44  1  0  0  0  0
 43 59  2  0  0  0  0
 44 45  1  0  0  0  0
 44139  1  0  0  0  0
 44140  1  0  0  0  0
 45 46  1  0  0  0  0
 45141  1  0  0  0  0
 45142  1  0  0  0  0
 46 47  1  0  0  0  0
 46143  1  0  0  0  0
 46144  1  0  0  0  0
 47 48  1  0  0  0  0
 47145  1  0  0  0  0
 47146  1  0  0  0  0
 48 49  1  0  0  0  0
 48147  1  0  0  0  0
 48148  1  0  0  0  0
 49 50  1  0  0  0  0
 49149  1  0  0  0  0
 49150  1  0  0  0  0
 50 51  1  0  0  0  0
 50151  1  0  0  0  0
 50152  1  0  0  0  0
 51 52  1  0  0  0  0
 51153  1  0  0  0  0
 51154  1  0  0  0  0
 52 53  1  0  0  0  0
 52155  1  0  0  0  0
 52156  1  0  0  0  0
 53 54  1  0  0  0  0
 53157  1  0  0  0  0
 53158  1  0  0  0  0
 54 55  1  0  0  0  0
 54159  1  0  0  0  0
 54160  1  0  0  0  0
 55 56  1  0  0  0  0
 55161  1  0  0  0  0
 55162  1  0  0  0  0
 56 57  1  0  0  0  0
 56163  1  0  0  0  0
 56164  1  0  0  0  0
 57 58  1  0  0  0  0
 57165  1  0  0  0  0
 57166  1  0  0  0  0
 58167  1  0  0  0  0
 58168  1  0  0  0  0
 58169  1  0  0  0  0
 61170  1  0  0  0  0
 61171  1  0  0  0  0
 62 63  1  0  0  0  0
 62172  1  0  0  0  0
 62173  1  0  0  0  0
 63174  1  0  0  0  0
 65 66  1  0  0  0  0
 65175  1  0  0  0  0
 65176  1  0  0  0  0
 66 67  1  0  0  0  0
 66177  1  0  0  0  0
 66178  1  0  0  0  0
 67 68  1  0  0  0  0
 67179  1  0  0  0  0
 67180  1  0  0  0  0
 68 69  1  0  0  0  0
 68181  1  0  0  0  0
 68182  1  0  0  0  0
 69183  1  0  0  0  0
 69184  1  0  0  0  0
 71 72  1  0  0  0  0
 71185  1  0  0  0  0
 71186  1  0  0  0  0
 72 73  1  0  0  0  0
 72187  1  0  0  0  0
 72188  1  0  0  0  0
 73 74  1  0  0  0  0
 73189  1  0  0  0  0
 73190  1  0  0  0  0
 74 75  1  0  0  0  0
 74191  1  0  0  0  0
 74192  1  0  0  0  0
 75193  1  0  0  0  0
 75194  1  0  0  0  0
 77 78  1  0  0  0  0
 77195  1  0  0  0  0
 77196  1  0  0  0  0
 78 79  1  0  0  0  0
 78197  1  0  0  0  0
 78198  1  0  0  0  0
 79 80  1  0  0  0  0
 79199  1  0  0  0  0
 79200  1  0  0  0  0
 80 81  1  0  0  0  0
 80201  1  0  0  0  0
 80202  1  0  0  0  0
 81203  1  0  0  0  0
 81204  1  0  0  0  0
 83 84  1  0  0  0  0
 83205  1  0  0  0  0
 83206  1  0  0  0  0
 84 85  1  0  0  0  0
 84207  1  0  0  0  0
 84208  1  0  0  0  0
 85 86  1  0  0  0  0
 85209  1  0  0  0  0
 85210  1  0  0  0  0
 86 87  1  0  0  0  0
 86211  1  0  0  0  0
 86212  1  0  0  0  0
 87213  1  0  0  0  0
 87214  1  0  0  0  0
M  END
>  <DRUGBANK_ID>
DB16474

>  <COMMON_NAME>
Pam2csk4

>  <CAS_NUMBER>
574741-81-4

>  <UNII>
L33ZW7BO91

>  <SYNONYMS>
Pam2; Pam2CSK4; Pam2CSK4 acetate

$$$$
