VC3
 OpenBabel10282417072D

 21 22  0  0  0  0  0  0  0  0999 V2000
   42.8491   33.3269    0.0000 N   0  3  0  0  0  0  0  0  0  0  0  0
   41.1643   36.7813    0.0000 N   0  0  0  0  0  0  0  0  0  0  0  0
   40.9094   35.9967    0.0000 C   0  0  0  0  0  0  0  0  0  0  0  0
   40.4969   37.2662    0.0000 N   0  0  0  0  0  0  0  0  0  0  0  0
   42.3641   33.9944    0.0000 C   0  0  0  0  0  0  0  0  0  0  0  0
   40.0844   35.9967    0.0000 C   0  0  0  0  0  0  0  0  0  0  0  0
   43.6695   33.4132    0.0000 O   0  5  0  0  0  0  0  0  0  0  0  0
   42.5135   32.5732    0.0000 O   0  0  0  0  0  0  0  0  0  0  0  0
   41.3943   35.3292    0.0000 C   0  0  0  0  0  0  0  0  0  0  0  0
   39.8294   36.7813    0.0000 C   0  0  0  0  0  0  0  0  0  0  0  0
   41.5436   33.9081    0.0000 C   0  0  0  0  0  0  0  0  0  0  0  0
   42.6997   34.7480    0.0000 C   0  0  0  0  0  0  0  0  0  0  0  0
   41.0587   34.5756    0.0000 C   0  0  0  0  0  0  0  0  0  0  0  0
   42.2148   35.4155    0.0000 C   0  0  0  0  0  0  0  0  0  0  0  0
   40.4969   38.2507    0.0000 H   0  0  0  0  0  0  0  0  0  0  0  0
   39.4778   35.1618    0.0000 H   0  0  0  0  0  0  0  0  0  0  0  0
   38.8479   37.1002    0.0000 H   0  0  0  0  0  0  0  0  0  0  0  0
   41.1239   32.9653    0.0000 H   0  0  0  0  0  0  0  0  0  0  0  0
   43.7261   34.8558    0.0000 H   0  0  0  0  0  0  0  0  0  0  0  0
   40.0323   34.4678    0.0000 H   0  0  0  0  0  0  0  0  0  0  0  0
   42.6345   36.3583    0.0000 H   0  0  0  0  0  0  0  0  0  0  0  0
  1  5  1  0  0  0  0
  1  7  1  0  0  0  0
  1  8  2  0  0  0  0
  2  3  2  0  0  0  0
  2  4  1  0  0  0  0
  3  6  1  0  0  0  0
  3  9  1  0  0  0  0
  4 10  1  0  0  0  0
  4 15  1  0  0  0  0
  5 11  1  0  0  0  0
  5 12  2  0  0  0  0
  6 10  2  0  0  0  0
  6 16  1  0  0  0  0
  9 13  1  0  0  0  0
  9 14  2  0  0  0  0
 10 17  1  0  0  0  0
 11 13  2  0  0  0  0
 11 18  1  0  0  0  0
 12 14  1  0  0  0  0
 12 19  1  0  0  0  0
 13 20  1  0  0  0  0
 14 21  1  0  0  0  0
M  CHG  2   1   1   7  -1
M  END
>  <DRUGBANK_ID>
DB08695

>  <COMMON_NAME>
3-(4-nitrophenyl)-1H-pyrazole

>  <UNII>
K0B6P40GV5

$$$$
