1628
 OpenBabel10282417072D

 39 41  0  0  0  0  0  0  0  0999 V2000
    6.6513   -2.8875    0.0000 Cl  0  0  0  0  0  0  0  0  0  0  0  0
    5.2223    2.0625    0.0000 S   0  0  0  0  0  0  0  0  0  0  0  0
    4.3973    2.0625    0.0000 O   0  0  0  0  0  0  0  0  0  0  0  0
    6.0473    2.0625    0.0000 O   0  0  0  0  0  0  0  0  0  0  0  0
    4.5079   -2.4750    0.0000 N   0  0  0  0  0  0  0  0  0  0  0  0
    3.0790    0.0000    0.0000 N   0  0  0  0  0  0  0  0  0  0  0  0
    5.2223   -0.4125    0.0000 C   0  0  0  0  0  0  0  0  0  0  0  0
    5.2223   -1.2375    0.0000 C   0  0  0  0  0  0  0  0  0  0  0  0
    5.2223    1.2375    0.0000 C   0  0  0  0  0  0  0  0  0  0  0  0
    4.5079   -1.6500    0.0000 C   0  0  0  0  0  0  0  0  0  0  0  0
    4.5079    0.0000    0.0000 C   0  0  0  0  0  0  0  0  0  0  0  0
    5.9369    0.0000    0.0000 C   0  0  0  0  0  0  0  0  0  0  0  0
    4.5079    0.8250    0.0000 C   0  0  0  0  0  0  0  0  0  0  0  0
    5.9369    0.8250    0.0000 C   0  0  0  0  0  0  0  0  0  0  0  0
    3.7934   -1.2375    0.0000 C   0  0  0  0  0  0  0  0  0  0  0  0
    5.9369   -1.6500    0.0000 C   0  0  0  0  0  0  0  0  0  0  0  0
    5.2223    2.8875    0.0000 C   0  0  0  0  0  0  0  0  0  0  0  0
    3.0790   -1.6500    0.0000 C   0  0  0  0  0  0  0  0  0  0  0  0
    5.9369   -2.4750    0.0000 C   0  0  0  0  0  0  0  0  0  0  0  0
    3.7934   -0.4125    0.0000 C   0  0  0  0  0  0  0  0  0  0  0  0
    5.2223   -2.8875    0.0000 C   0  0  0  0  0  0  0  0  0  0  0  0
    2.3644   -1.2375    0.0000 C   0  0  0  0  0  0  0  0  0  0  0  0
    2.3644   -0.4125    0.0000 C   0  0  0  0  0  0  0  0  0  0  0  0
    1.6500    0.0000    0.0000 C   0  0  0  0  0  0  0  0  0  0  0  0
    3.6142   -0.5160    0.0000 H   0  0  0  0  0  0  0  0  0  0  0  0
    6.8306   -0.5160    0.0000 H   0  0  0  0  0  0  0  0  0  0  0  0
    3.6142    1.3410    0.0000 H   0  0  0  0  0  0  0  0  0  0  0  0
    6.8306    1.3410    0.0000 H   0  0  0  0  0  0  0  0  0  0  0  0
    6.8306   -1.1340    0.0000 H   0  0  0  0  0  0  0  0  0  0  0  0
    6.1489    3.4225    0.0000 H   0  0  0  0  0  0  0  0  0  0  0  0
    4.2957    3.4225    0.0000 H   0  0  0  0  0  0  0  0  0  0  0  0
    5.2223    3.9575    0.0000 H   0  0  0  0  0  0  0  0  0  0  0  0
    3.0791   -2.6820    0.0000 H   0  0  0  0  0  0  0  0  0  0  0  0
    4.6871    0.1035    0.0000 H   0  0  0  0  0  0  0  0  0  0  0  0
    5.2222   -3.9195    0.0000 H   0  0  0  0  0  0  0  0  0  0  0  0
    1.4707   -1.7535    0.0000 H   0  0  0  0  0  0  0  0  0  0  0  0
    1.6500    1.0700    0.0000 H   0  0  0  0  0  0  0  0  0  0  0  0
    0.7233   -0.5350    0.0000 H   0  0  0  0  0  0  0  0  0  0  0  0
    0.7234    0.5350    0.0000 H   0  0  0  0  0  0  0  0  0  0  0  0
  1 19  1  0  0  0  0
  2  3  2  0  0  0  0
  2  4  2  0  0  0  0
  2  9  1  0  0  0  0
  2 17  1  0  0  0  0
  5 10  1  0  0  0  0
  5 21  2  0  0  0  0
  6 20  1  0  0  0  0
  6 23  2  0  0  0  0
  7  8  1  0  0  0  0
  7 11  2  0  0  0  0
  7 12  1  0  0  0  0
  8 10  2  0  0  0  0
  8 16  1  0  0  0  0
  9 13  2  0  0  0  0
  9 14  1  0  0  0  0
 10 15  1  0  0  0  0
 11 13  1  0  0  0  0
 11 25  1  0  0  0  0
 12 14  2  0  0  0  0
 12 26  1  0  0  0  0
 13 27  1  0  0  0  0
 14 28  1  0  0  0  0
 15 18  1  0  0  0  0
 15 20  2  0  0  0  0
 16 19  2  0  0  0  0
 16 29  1  0  0  0  0
 17 30  1  0  0  0  0
 17 31  1  0  0  0  0
 17 32  1  0  0  0  0
 18 22  2  0  0  0  0
 18 33  1  0  0  0  0
 19 21  1  0  0  0  0
 20 34  1  0  0  0  0
 21 35  1  0  0  0  0
 22 23  1  0  0  0  0
 22 36  1  0  0  0  0
 23 24  1  0  0  0  0
 24 37  1  0  0  0  0
 24 38  1  0  0  0  0
 24 39  1  0  0  0  0
M  END
>  <DRUGBANK_ID>
DB01628

>  <SECONDARY_ACCESSION_NUMBERS>
DB07166

>  <COMMON_NAME>
Etoricoxib

>  <CAS_NUMBER>
202409-33-4

>  <UNII>
WRX4NFY03R

>  <SYNONYMS>
5-chloro-2-(6-methylpyridin-3-yl)-3-(4-(methylsulfonyl)phenyl)pyridine; 5-Chloro-3-(4-methanesulfonyl-phenyl)-6'-methyl-[2,3']bipyridinyl; 5-chloro-6'-methyl-3-(p-(methylsulfonyl)phenyl)-2,3'-bipyridine; Ã©toricoxib; Etoricoxib; Etoricoxibum

$$$$
