FTA
 OpenBabel10282417072D

 36 38  0  0  0  0  0  0  0  0999 V2000
    2.2756    0.5346    0.0000 N   0  0  0  0  0  0  0  0  0  0  0  0
    2.2756    1.3596    0.0000 C   0  0  0  0  0  0  0  0  0  0  0  0
    1.5612    1.7721    0.0000 C   0  0  0  0  0  0  0  0  0  0  0  0
    1.5612    2.5971    0.0000 C   0  0  0  0  0  0  0  0  0  0  0  0
    2.2756    3.0096    0.0000 C   0  0  0  0  0  0  0  0  0  0  0  0
    2.9901    2.5971    0.0000 C   0  0  0  0  0  0  0  0  0  0  0  0
    2.9901    1.7721    0.0000 C   0  0  0  0  0  0  0  0  0  0  0  0
    1.5612    0.1221    0.0000 C   0  0  0  0  0  0  0  0  0  0  0  0
    1.5612   -0.7029    0.0000 C   0  0  0  0  0  0  0  0  0  0  0  0
    0.8467   -1.1154    0.0000 C   0  0  0  0  0  0  0  0  0  0  0  0
    0.8467    0.5346    0.0000 C   0  0  0  0  0  0  0  0  0  0  0  0
    0.1322    0.1221    0.0000 C   0  0  0  0  0  0  0  0  0  0  0  0
    0.1322   -0.7029    0.0000 C   0  0  0  0  0  0  0  0  0  0  0  0
   -0.5822   -1.1154    0.0000 N   0  0  0  0  0  0  0  0  0  0  0  0
   -1.2967   -0.7029    0.0000 C   0  0  0  0  0  0  0  0  0  0  0  0
   -2.0112   -1.1154    0.0000 C   0  0  0  0  0  0  0  0  0  0  0  0
   -2.7257   -0.7029    0.0000 C   0  0  0  0  0  0  0  0  0  0  0  0
   -3.4401   -0.2904    0.0000 N   0  0  0  0  0  0  0  0  0  0  0  0
   -2.0112   -1.9404    0.0000 C   0  0  0  0  0  0  0  0  0  0  0  0
   -1.3437   -2.4253    0.0000 N   0  0  0  0  0  0  0  0  0  0  0  0
   -1.5987   -3.2099    0.0000 N   0  0  0  0  0  0  0  0  0  0  0  0
   -2.4237   -3.2099    0.0000 N   0  0  0  0  0  0  0  0  0  0  0  0
   -2.6786   -2.4253    0.0000 N   0  0  0  0  0  0  0  0  0  0  0  0
    3.1282    0.0424    0.0000 H   0  0  0  0  0  0  0  0  0  0  0  0
    0.6675    1.2561    0.0000 H   0  0  0  0  0  0  0  0  0  0  0  0
    0.6675    3.1131    0.0000 H   0  0  0  0  0  0  0  0  0  0  0  0
    2.2756    4.0416    0.0000 H   0  0  0  0  0  0  0  0  0  0  0  0
    3.8838    3.1131    0.0000 H   0  0  0  0  0  0  0  0  0  0  0  0
    3.8838    1.2561    0.0000 H   0  0  0  0  0  0  0  0  0  0  0  0
    2.4549   -1.2189    0.0000 H   0  0  0  0  0  0  0  0  0  0  0  0
    0.8467   -2.1474    0.0000 H   0  0  0  0  0  0  0  0  0  0  0  0
    0.8467    1.5666    0.0000 H   0  0  0  0  0  0  0  0  0  0  0  0
   -0.7615    0.6381    0.0000 H   0  0  0  0  0  0  0  0  0  0  0  0
   -0.5822   -2.0999    0.0000 H   0  0  0  0  0  0  0  0  0  0  0  0
   -1.2967    0.3291    0.0000 H   0  0  0  0  0  0  0  0  0  0  0  0
   -1.0201   -4.0064    0.0000 H   0  0  0  0  0  0  0  0  0  0  0  0
  1  2  1  0  0  0  0
  1  8  1  0  0  0  0
  1 24  1  0  0  0  0
  2  3  2  0  0  0  0
  2  7  1  0  0  0  0
  3  4  1  0  0  0  0
  3 25  1  0  0  0  0
  4  5  2  0  0  0  0
  4 26  1  0  0  0  0
  5  6  1  0  0  0  0
  5 27  1  0  0  0  0
  6  7  2  0  0  0  0
  6 28  1  0  0  0  0
  7 29  1  0  0  0  0
  8  9  2  0  0  0  0
  8 11  1  0  0  0  0
  9 10  1  0  0  0  0
  9 30  1  0  0  0  0
 10 13  2  0  0  0  0
 10 31  1  0  0  0  0
 11 12  2  0  0  0  0
 11 32  1  0  0  0  0
 12 13  1  0  0  0  0
 12 33  1  0  0  0  0
 13 14  1  0  0  0  0
 14 15  1  0  0  0  0
 14 34  1  0  0  0  0
 15 16  2  0  0  0  0
 15 35  1  0  0  0  0
 16 17  1  0  0  0  0
 16 19  1  0  0  0  0
 17 18  3  0  0  0  0
 19 20  2  0  0  0  0
 19 23  1  0  0  0  0
 20 21  1  0  0  0  0
 21 22  1  0  0  0  0
 21 36  1  0  0  0  0
 22 23  2  0  0  0  0
M  END
>  <DRUGBANK_ID>
DB04430

>  <SECONDARY_ACCESSION_NUMBERS>
EXPT01502

>  <COMMON_NAME>
3-(4-Phenylamino-Phenylamino)-2-(1h-Tetrazol-5-Yl)-Acrylonitrile

$$$$
