
 OpenBabel10282417072D

 40 41  0  0  0  0  0  0  0  0999 V2000
   -0.3619   -0.2070    0.0000 C   0  0  0  0  0  0  0  0  0  0  0  0
    0.3680    0.2048    0.0000 N   0  0  0  0  0  0  0  0  0  0  0  0
    1.0837   -0.2206    0.0000 C   0  0  0  0  0  0  0  0  0  0  0  0
   -1.0843    1.0327    0.0000 N   0  0  0  0  0  0  0  0  0  0  0  0
   -1.0907    0.2149    0.0000 C   0  0  3  0  0  0  0  0  0  0  0  0
   -0.3619   -1.0362    0.0000 O   0  0  0  0  0  0  0  0  0  0  0  0
    1.8052    0.1863    0.0000 C   0  0  0  0  0  0  0  0  0  0  0  0
    1.0699   -1.0388    0.0000 C   0  0  0  0  0  0  0  0  0  0  0  0
   -0.3571    1.4429    0.0000 C   0  0  0  0  0  0  0  0  0  0  0  0
   -1.7892    1.4528    0.0000 C   0  0  0  0  0  0  0  0  0  0  0  0
    2.5004   -1.0457    0.0000 C   0  0  0  0  0  0  0  0  0  0  0  0
   -1.8093   -0.1905    0.0000 C   0  0  0  0  0  0  0  0  0  0  0  0
    1.7789   -1.4528    0.0000 C   0  0  0  0  0  0  0  0  0  0  0  0
    2.5127   -0.2246    0.0000 C   0  0  0  0  0  0  0  0  0  0  0  0
    1.8176    1.0342    0.0000 C   0  0  0  0  0  0  0  0  0  0  0  0
    0.3513   -1.4442    0.0000 C   0  0  0  0  0  0  0  0  0  0  0  0
   -2.5078    1.0474    0.0000 C   0  0  0  0  0  0  0  0  0  0  0  0
   -2.5127    0.2267    0.0000 C   0  0  0  0  0  0  0  0  0  0  0  0
    0.3791    1.1892    0.0000 H   0  0  0  0  0  0  0  0  0  0  0  0
   -0.1617    0.7457    0.0000 H   0  0  0  0  0  0  0  0  0  0  0  0
    0.5641    0.8987    0.0000 H   0  0  0  0  0  0  0  0  0  0  0  0
   -0.3464    2.5128    0.0000 H   0  0  0  0  0  0  0  0  0  0  0  0
    0.5749    1.9686    0.0000 H   0  0  0  0  0  0  0  0  0  0  0  0
   -1.7765    2.5227    0.0000 H   0  0  0  0  0  0  0  0  0  0  0  0
   -2.7099    1.9979    0.0000 H   0  0  0  0  0  0  0  0  0  0  0  0
    3.3877   -1.5728    0.0000 H   0  0  0  0  0  0  0  0  0  0  0  0
   -1.8209   -1.2604    0.0000 H   0  0  0  0  0  0  0  0  0  0  0  0
   -2.7419   -0.7150    0.0000 H   0  0  0  0  0  0  0  0  0  0  0  0
    1.7713   -2.4848    0.0000 H   0  0  0  0  0  0  0  0  0  0  0  0
    3.4109    0.2835    0.0000 H   0  0  0  0  0  0  0  0  0  0  0  0
    2.7520    1.5556    0.0000 H   0  0  0  0  0  0  0  0  0  0  0  0
    0.8989    1.5827    0.0000 H   0  0  0  0  0  0  0  0  0  0  0  0
    1.8332    2.1041    0.0000 H   0  0  0  0  0  0  0  0  0  0  0  0
   -0.5700   -0.9000    0.0000 H   0  0  0  0  0  0  0  0  0  0  0  0
    0.3406   -2.5141    0.0000 H   0  0  0  0  0  0  0  0  0  0  0  0
   -0.5806   -1.9699    0.0000 H   0  0  0  0  0  0  0  0  0  0  0  0
   -3.4302    1.5898    0.0000 H   0  0  0  0  0  0  0  0  0  0  0  0
   -2.4982    2.1174    0.0000 H   0  0  0  0  0  0  0  0  0  0  0  0
   -3.4440   -0.3001    0.0000 H   0  0  0  0  0  0  0  0  0  0  0  0
   -2.5237   -0.8432    0.0000 H   0  0  0  0  0  0  0  0  0  0  0  0
  2  1  1  0  0  0  0
  2 19  1  0  0  0  0
  3  2  1  0  0  0  0
  4  5  1  0  0  0  0
  5  1  1  0  0  0  0
  5 20  1  0  0  0  0
  6  1  2  0  0  0  0
  7  3  2  0  0  0  0
  8  3  1  0  0  0  0
  9  4  1  0  0  0  0
  9 21  1  0  0  0  0
  9 22  1  0  0  0  0
  9 23  1  0  0  0  0
 10  4  1  0  0  0  0
 10 24  1  0  0  0  0
 10 25  1  0  0  0  0
 11 13  1  0  0  0  0
 11 26  1  0  0  0  0
 12  5  1  0  0  0  0
 12 27  1  0  0  0  0
 12 28  1  0  0  0  0
 13  8  2  0  0  0  0
 13 29  1  0  0  0  0
 14  7  1  0  0  0  0
 14 11  2  0  0  0  0
 14 30  1  0  0  0  0
 15  7  1  0  0  0  0
 15 31  1  0  0  0  0
 15 32  1  0  0  0  0
 15 33  1  0  0  0  0
 16  8  1  0  0  0  0
 16 34  1  0  0  0  0
 16 35  1  0  0  0  0
 16 36  1  0  0  0  0
 17 18  1  0  0  0  0
 17 10  1  0  0  0  0
 17 37  1  0  0  0  0
 17 38  1  0  0  0  0
 18 12  1  0  0  0  0
 18 39  1  0  0  0  0
 18 40  1  0  0  0  0
M  END
>  <DRUGBANK_ID>
DB00961

>  <SECONDARY_ACCESSION_NUMBERS>
APRD01094

>  <COMMON_NAME>
Mepivacaine

>  <CAS_NUMBER>
96-88-8

>  <UNII>
B6E06QE59J

>  <SYNONYMS>
(+-)-1-Methyl-2',6'-pipecoloxylidide; 1-methyl-2',6'-pipecoloxylidide; DL-Mepivacaine; Mepivacaina; Mepivacaine; Mepivacainum; N-(2,6-Dimethylphenyl)-1-methyl-2-piperidinecarboxamide; N-(2,6-Dimethylphenyl)-1-methylpiperidine-2-carboxamide

$$$$
