MAJ
 OpenBabel10282417072D

 24 25  0  0  0  0  0  0  0  0999 V2000
   -0.2882    0.7143    0.0000 C   0  0  0  0  0  0  0  0  0  0  0  0
    0.4263    0.3018    0.0000 C   0  0  0  0  0  0  0  0  0  0  0  0
    0.4263   -0.5232    0.0000 C   0  0  0  0  0  0  0  0  0  0  0  0
   -0.2882   -0.9357    0.0000 C   0  0  0  0  0  0  0  0  0  0  0  0
   -1.0026    0.3018    0.0000 C   0  0  0  0  0  0  0  0  0  0  0  0
   -1.0026   -0.5232    0.0000 C   0  0  0  0  0  0  0  0  0  0  0  0
   -1.7873   -0.7781    0.0000 C   0  0  0  0  0  0  0  0  0  0  0  0
   -2.2722   -0.1107    0.0000 C   0  0  0  0  0  0  0  0  0  0  0  0
   -1.7873    0.5568    0.0000 C   0  0  0  0  0  0  0  0  0  0  0  0
    1.1408    0.7143    0.0000 S   0  0  0  0  0  0  0  0  0  0  0  0
    1.8552    1.1268    0.0000 O   0  0  0  0  0  0  0  0  0  0  0  0
    0.7283    1.4288    0.0000 O   0  0  0  0  0  0  0  0  0  0  0  0
    1.5533   -0.0001    0.0000 N   0  0  0  0  0  0  0  0  0  0  0  0
   -0.2882    1.7463    0.0000 H   0  0  0  0  0  0  0  0  0  0  0  0
    1.3200   -1.0392    0.0000 H   0  0  0  0  0  0  0  0  0  0  0  0
   -0.2882   -1.9677    0.0000 H   0  0  0  0  0  0  0  0  0  0  0  0
   -2.1180   -1.7957    0.0000 H   0  0  0  0  0  0  0  0  0  0  0  0
   -1.0307   -1.5347    0.0000 H   0  0  0  0  0  0  0  0  0  0  0  0
   -3.3422   -0.1107    0.0000 H   0  0  0  0  0  0  0  0  0  0  0  0
   -2.7580    0.8427    0.0000 H   0  0  0  0  0  0  0  0  0  0  0  0
   -2.1180    1.5744    0.0000 H   0  0  0  0  0  0  0  0  0  0  0  0
   -1.0307    1.3134    0.0000 H   0  0  0  0  0  0  0  0  0  0  0  0
    1.0433   -0.8835    0.0000 H   0  0  0  0  0  0  0  0  0  0  0  0
    2.5733   -0.0001    0.0000 H   0  0  0  0  0  0  0  0  0  0  0  0
  1  2  1  0  0  0  0
  1 14  1  0  0  0  0
  2 10  1  0  0  0  0
  3  2  2  0  0  0  0
  3 15  1  0  0  0  0
  4  3  1  0  0  0  0
  4 16  1  0  0  0  0
  5  1  2  0  0  0  0
  6  4  2  0  0  0  0
  6  5  1  0  0  0  0
  7  8  1  0  0  0  0
  7  6  1  0  0  0  0
  7 17  1  0  0  0  0
  7 18  1  0  0  0  0
  8  9  1  0  0  0  0
  8 19  1  0  0  0  0
  8 20  1  0  0  0  0
  9  5  1  0  0  0  0
  9 21  1  0  0  0  0
  9 22  1  0  0  0  0
 10 11  2  0  0  0  0
 10 13  1  0  0  0  0
 12 10  2  0  0  0  0
 13 23  1  0  0  0  0
 13 24  1  0  0  0  0
M  END
>  <DRUGBANK_ID>
DB08165

>  <COMMON_NAME>
indane-5-sulfonamide

>  <UNII>
XJL3C99615

$$$$
