
 OpenBabel10282417072D

 75 78  0  0  0  0  0  0  0  0999 V2000
   -2.8575    2.6275    0.0000 C   0  0  0  0  0  0  0  0  0  0  0  0
   -2.8583    1.8025    0.0000 C   0  0  0  0  0  0  0  0  0  0  0  0
   -2.1441    1.3893    0.0000 C   0  0  0  0  0  0  0  0  0  0  0  0
   -1.4294    1.8011    0.0000 C   0  0  0  0  0  0  0  0  0  0  0  0
   -1.4284    2.6261    0.0000 C   0  0  0  0  0  0  0  0  0  0  0  0
   -2.1426    3.0393    0.0000 C   0  0  0  0  0  0  0  0  0  0  0  0
   -0.7152    1.3879    0.0000 C   0  0  0  0  0  0  0  0  0  0  0  0
   -2.1451    0.5643    0.0000 F   0  0  0  0  0  0  0  0  0  0  0  0
   -3.5732    1.3907    0.0000 O   0  0  0  0  0  0  0  0  0  0  0  0
   -4.2872    1.8039    0.0000 C   0  0  0  0  0  0  0  0  0  0  0  0
   -0.7160    0.5629    0.0000 C   0  0  0  0  0  0  0  0  0  0  0  0
   -0.0019    0.1497    0.0000 N   0  0  0  0  0  0  0  0  0  0  0  0
    0.7128    0.5615    0.0000 C   0  0  0  0  0  0  0  0  0  0  0  0
    0.7136    1.3865    0.0000 N   0  0  0  0  0  0  0  0  0  0  0  0
   -0.0003    1.7997    0.0000 C   0  0  0  0  0  0  0  0  0  0  0  0
    0.0004    2.6247    0.0000 O   0  0  0  0  0  0  0  0  0  0  0  0
    1.4284    1.7983    0.0000 C   0  0  0  0  0  0  0  0  0  0  0  0
    1.4269    0.1483    0.0000 O   0  0  0  0  0  0  0  0  0  0  0  0
   -0.0028   -0.6752    0.0000 C   0  0  0  0  0  0  0  0  0  0  0  0
   -1.0603    0.3804    0.0000 C   0  0  0  0  0  0  0  0  0  0  0  0
   -0.7176   -1.0870    0.0000 C   0  0  0  0  0  0  0  0  0  0  0  0
    2.1426    1.3851    0.0000 C   0  0  2  0  0  0  0  0  0  0  0  0
    2.1418    0.5601    0.0000 N   0  0  0  0  0  0  0  0  0  0  0  0
    2.8558    0.1469    0.0000 C   0  0  0  0  0  0  0  0  0  0  0  0
    2.8550   -0.6780    0.0000 C   0  0  0  0  0  0  0  0  0  0  0  0
    3.5691   -1.0912    0.0000 C   0  0  0  0  0  0  0  0  0  0  0  0
    3.5683   -1.9162    0.0000 C   0  0  0  0  0  0  0  0  0  0  0  0
    4.2822   -2.3295    0.0000 O   0  0  0  0  0  0  0  0  0  0  0  0
    2.8534   -2.3280    0.0000 O   0  0  0  0  0  0  0  0  0  0  0  0
    2.8575    1.7969    0.0000 C   0  0  0  0  0  0  0  0  0  0  0  0
    2.8583    2.6219    0.0000 C   0  0  0  0  0  0  0  0  0  0  0  0
    3.5732    3.0337    0.0000 C   0  0  0  0  0  0  0  0  0  0  0  0
    4.2872    2.6204    0.0000 C   0  0  0  0  0  0  0  0  0  0  0  0
    4.2863    1.7954    0.0000 C   0  0  0  0  0  0  0  0  0  0  0  0
    3.5715    1.3837    0.0000 C   0  0  0  0  0  0  0  0  0  0  0  0
   -0.7185   -1.9120    0.0000 C   0  0  0  0  0  0  0  0  0  0  0  0
   -1.4333   -2.3238    0.0000 C   0  0  0  0  0  0  0  0  0  0  0  0
   -2.1475   -1.9106    0.0000 C   0  0  0  0  0  0  0  0  0  0  0  0
   -2.1466   -1.0856    0.0000 C   0  0  0  0  0  0  0  0  0  0  0  0
   -1.4318   -0.6738    0.0000 C   0  0  0  0  0  0  0  0  0  0  0  0
   -1.4176   -0.1074    0.0000 F   0  0  0  0  0  0  0  0  0  0  0  0
   -0.0044   -2.3252    0.0000 C   0  0  0  0  0  0  0  0  0  0  0  0
    0.7096   -2.7384    0.0000 F   0  0  0  0  0  0  0  0  0  0  0  0
   -0.4176   -3.0393    0.0000 F   0  0  0  0  0  0  0  0  0  0  0  0
    0.4087   -1.6112    0.0000 F   0  0  0  0  0  0  0  0  0  0  0  0
   -3.7507    3.1444    0.0000 H   0  0  0  0  0  0  0  0  0  0  0  0
   -0.5341    3.1412    0.0000 H   0  0  0  0  0  0  0  0  0  0  0  0
   -2.1416    4.0713    0.0000 H   0  0  0  0  0  0  0  0  0  0  0  0
   -4.2861    2.8739    0.0000 H   0  0  0  0  0  0  0  0  0  0  0  0
   -5.2144    1.2698    0.0000 H   0  0  0  0  0  0  0  0  0  0  0  0
   -5.2133    2.3398    0.0000 H   0  0  0  0  0  0  0  0  0  0  0  0
    1.4294    2.8683    0.0000 H   0  0  0  0  0  0  0  0  0  0  0  0
    0.5022    2.3342    0.0000 H   0  0  0  0  0  0  0  0  0  0  0  0
    0.9233   -1.2111    0.0000 H   0  0  0  0  0  0  0  0  0  0  0  0
   -0.0038   -1.7452    0.0000 H   0  0  0  0  0  0  0  0  0  0  0  0
   -1.9670    0.9486    0.0000 H   0  0  0  0  0  0  0  0  0  0  0  0
   -1.0990   -0.6889    0.0000 H   0  0  0  0  0  0  0  0  0  0  0  0
   -2.0057   -0.1207    0.0000 H   0  0  0  0  0  0  0  0  0  0  0  0
    2.1436    2.4551    0.0000 H   0  0  0  0  0  0  0  0  0  0  0  0
    1.2579    0.0510    0.0000 H   0  0  0  0  0  0  0  0  0  0  0  0
    3.7830    0.6810    0.0000 H   0  0  0  0  0  0  0  0  0  0  0  0
    3.7819   -0.3890    0.0000 H   0  0  0  0  0  0  0  0  0  0  0  0
    1.9278   -1.2121    0.0000 H   0  0  0  0  0  0  0  0  0  0  0  0
    2.8540   -1.7480    0.0000 H   0  0  0  0  0  0  0  0  0  0  0  0
    4.4963   -0.5571    0.0000 H   0  0  0  0  0  0  0  0  0  0  0  0
    4.4952   -1.6271    0.0000 H   0  0  0  0  0  0  0  0  0  0  0  0
    4.2811   -3.2665    0.0000 H   0  0  0  0  0  0  0  0  0  0  0  0
    1.9651    3.1388    0.0000 H   0  0  0  0  0  0  0  0  0  0  0  0
    3.5743    4.0657    0.0000 H   0  0  0  0  0  0  0  0  0  0  0  0
    5.1815    3.1354    0.0000 H   0  0  0  0  0  0  0  0  0  0  0  0
    5.1795    1.2784    0.0000 H   0  0  0  0  0  0  0  0  0  0  0  0
    3.5704    0.3517    0.0000 H   0  0  0  0  0  0  0  0  0  0  0  0
   -1.4342   -3.3558    0.0000 H   0  0  0  0  0  0  0  0  0  0  0  0
   -3.0418   -2.4257    0.0000 H   0  0  0  0  0  0  0  0  0  0  0  0
   -3.0398   -0.5687    0.0000 H   0  0  0  0  0  0  0  0  0  0  0  0
  1  2  2  0  0  0  0
  1 46  1  0  0  0  0
  2  3  1  0  0  0  0
  2  9  1  0  0  0  0
  3  4  2  0  0  0  0
  3  8  1  0  0  0  0
  4  7  1  0  0  0  0
  4  5  1  0  0  0  0
  5  6  2  0  0  0  0
  5 47  1  0  0  0  0
  6  1  1  0  0  0  0
  6 48  1  0  0  0  0
  7 15  1  0  0  0  0
  7 11  2  0  0  0  0
  9 10  1  0  0  0  0
 10 49  1  0  0  0  0
 10 50  1  0  0  0  0
 10 51  1  0  0  0  0
 11 12  1  0  0  0  0
 11 20  1  0  0  0  0
 12 13  1  0  0  0  0
 12 19  1  0  0  0  0
 13 14  1  0  0  0  0
 13 18  2  0  0  0  0
 14 15  1  0  0  0  0
 14 17  1  0  0  0  0
 15 16  2  0  0  0  0
 17 22  1  0  0  0  0
 17 52  1  0  0  0  0
 17 53  1  0  0  0  0
 19 21  1  0  0  0  0
 19 54  1  0  0  0  0
 19 55  1  0  0  0  0
 20 56  1  0  0  0  0
 20 57  1  0  0  0  0
 20 58  1  0  0  0  0
 21 36  2  0  0  0  0
 22 23  1  0  0  0  0
 22 30  1  0  0  0  0
 22 59  1  6  0  0  0
 23 24  1  0  0  0  0
 23 60  1  0  0  0  0
 24 25  1  0  0  0  0
 24 61  1  0  0  0  0
 24 62  1  0  0  0  0
 25 26  1  0  0  0  0
 25 63  1  0  0  0  0
 25 64  1  0  0  0  0
 26 27  1  0  0  0  0
 26 65  1  0  0  0  0
 26 66  1  0  0  0  0
 27 28  1  0  0  0  0
 27 29  2  0  0  0  0
 28 67  1  0  0  0  0
 30 31  2  0  0  0  0
 31 32  1  0  0  0  0
 31 68  1  0  0  0  0
 32 33  2  0  0  0  0
 32 69  1  0  0  0  0
 33 34  1  0  0  0  0
 33 70  1  0  0  0  0
 34 35  2  0  0  0  0
 34 71  1  0  0  0  0
 35 30  1  0  0  0  0
 35 72  1  0  0  0  0
 36 37  1  0  0  0  0
 36 42  1  0  0  0  0
 37 38  2  0  0  0  0
 37 73  1  0  0  0  0
 38 39  1  0  0  0  0
 38 74  1  0  0  0  0
 39 40  2  0  0  0  0
 39 75  1  0  0  0  0
 40 21  1  0  0  0  0
 40 41  1  0  0  0  0
 42 43  1  0  0  0  0
 42 44  1  0  0  0  0
 42 45  1  0  0  0  0
M  END
>  <DRUGBANK_ID>
DB11979

>  <SECONDARY_ACCESSION_NUMBERS>
DB05694

>  <COMMON_NAME>
Elagolix

>  <CAS_NUMBER>
834153-87-6

>  <UNII>
5B2546MB5Z

>  <SYNONYMS>
Elagolix

$$$$
