
 OpenBabel10282417072D

 62 64  0  0  0  0  0  0  0  0999 V2000
   -0.3571    0.2062    0.0000 C   0  0  0  0  0  0  0  0  0  0  0  0
   -0.3571    1.0312    0.0000 C   0  0  0  0  0  0  0  0  0  0  0  0
   -1.0716    1.4437    0.0000 C   0  0  0  0  0  0  0  0  0  0  0  0
   -1.0716    2.2687    0.0000 C   0  0  0  0  0  0  0  0  0  0  0  0
   -0.3571    2.6812    0.0000 C   0  0  0  0  0  0  0  0  0  0  0  0
    0.3573    2.2687    0.0000 C   0  0  0  0  0  0  0  0  0  0  0  0
    0.3573    1.4437    0.0000 C   0  0  0  0  0  0  0  0  0  0  0  0
   -1.0716   -0.2060    0.0000 C   0  0  0  0  0  0  0  0  0  0  0  0
   -1.0716   -1.0310    0.0000 C   0  0  0  0  0  0  0  0  0  0  0  0
   -1.7861   -1.4437    0.0000 C   0  0  0  0  0  0  0  0  0  0  0  0
   -2.5005   -1.0310    0.0000 C   0  0  0  0  0  0  0  0  0  0  0  0
   -2.5005   -0.2060    0.0000 C   0  0  0  0  0  0  0  0  0  0  0  0
   -1.7861    0.2062    0.0000 C   0  0  0  0  0  0  0  0  0  0  0  0
    0.3573   -0.2060    0.0000 C   0  0  0  0  0  0  0  0  0  0  0  0
    1.0716    0.2062    0.0000 C   0  0  0  0  0  0  0  0  0  0  0  0
    1.7862   -0.2060    0.0000 C   0  0  0  0  0  0  0  0  0  0  0  0
    1.7862   -1.0310    0.0000 C   0  0  0  0  0  0  0  0  0  0  0  0
    1.0716   -1.4437    0.0000 C   0  0  0  0  0  0  0  0  0  0  0  0
    0.3573   -1.0310    0.0000 C   0  0  0  0  0  0  0  0  0  0  0  0
   -3.9295   -1.0310    0.0000 C   0  0  0  0  0  0  0  0  0  0  0  0
   -3.2151   -2.2687    0.0000 C   0  0  0  0  0  0  0  0  0  0  0  0
    3.2151   -1.0310    0.0000 C   0  0  0  0  0  0  0  0  0  0  0  0
    2.5006   -2.2687    0.0000 C   0  0  0  0  0  0  0  0  0  0  0  0
   -3.2151   -1.4437    0.0000 N   0  0  0  0  0  0  0  0  0  0  0  0
    2.5006   -1.4437    0.0000 N   0  3  0  0  0  0  0  0  0  0  0  0
   -3.9293   -0.2060    0.0000 C   0  0  0  0  0  0  0  0  0  0  0  0
   -3.9295   -2.6812    0.0000 C   0  0  0  0  0  0  0  0  0  0  0  0
    1.7861   -2.6812    0.0000 C   0  0  0  0  0  0  0  0  0  0  0  0
    3.9295   -1.4434    0.0000 C   0  0  0  0  0  0  0  0  0  0  0  0
   -1.9653    0.9277    0.0000 H   0  0  0  0  0  0  0  0  0  0  0  0
   -1.9653    2.7847    0.0000 H   0  0  0  0  0  0  0  0  0  0  0  0
   -0.3571    3.7132    0.0000 H   0  0  0  0  0  0  0  0  0  0  0  0
    1.2510    2.7847    0.0000 H   0  0  0  0  0  0  0  0  0  0  0  0
    1.2510    0.9277    0.0000 H   0  0  0  0  0  0  0  0  0  0  0  0
   -0.1778   -1.5469    0.0000 H   0  0  0  0  0  0  0  0  0  0  0  0
   -1.7861   -2.4757    0.0000 H   0  0  0  0  0  0  0  0  0  0  0  0
   -3.3942    0.3101    0.0000 H   0  0  0  0  0  0  0  0  0  0  0  0
   -1.7861    1.2382    0.0000 H   0  0  0  0  0  0  0  0  0  0  0  0
    1.0715    1.2382    0.0000 H   0  0  0  0  0  0  0  0  0  0  0  0
    2.6798    0.3102    0.0000 H   0  0  0  0  0  0  0  0  0  0  0  0
    1.0715   -2.4757    0.0000 H   0  0  0  0  0  0  0  0  0  0  0  0
   -0.5365   -1.5469    0.0000 H   0  0  0  0  0  0  0  0  0  0  0  0
   -4.8563   -1.5658    0.0000 H   0  0  0  0  0  0  0  0  0  0  0  0
   -4.8560   -0.4958    0.0000 H   0  0  0  0  0  0  0  0  0  0  0  0
   -2.2884   -2.8037    0.0000 H   0  0  0  0  0  0  0  0  0  0  0  0
   -3.2151   -3.3387    0.0000 H   0  0  0  0  0  0  0  0  0  0  0  0
    3.2150    0.0390    0.0000 H   0  0  0  0  0  0  0  0  0  0  0  0
    4.1417   -0.4959    0.0000 H   0  0  0  0  0  0  0  0  0  0  0  0
    3.4272   -2.8037    0.0000 H   0  0  0  0  0  0  0  0  0  0  0  0
    2.5006   -3.3387    0.0000 H   0  0  0  0  0  0  0  0  0  0  0  0
   -3.0025    0.3288    0.0000 H   0  0  0  0  0  0  0  0  0  0  0  0
   -4.8558    0.3292    0.0000 H   0  0  0  0  0  0  0  0  0  0  0  0
   -3.9290    0.8640    0.0000 H   0  0  0  0  0  0  0  0  0  0  0  0
   -4.8562   -2.1462    0.0000 H   0  0  0  0  0  0  0  0  0  0  0  0
   -3.9295   -3.7512    0.0000 H   0  0  0  0  0  0  0  0  0  0  0  0
   -4.8561   -3.2162    0.0000 H   0  0  0  0  0  0  0  0  0  0  0  0
    0.8595   -2.1462    0.0000 H   0  0  0  0  0  0  0  0  0  0  0  0
    1.7861   -3.7512    0.0000 H   0  0  0  0  0  0  0  0  0  0  0  0
    0.8594   -3.2162    0.0000 H   0  0  0  0  0  0  0  0  0  0  0  0
    3.9296   -2.5134    0.0000 H   0  0  0  0  0  0  0  0  0  0  0  0
    4.8561   -0.9083    0.0000 H   0  0  0  0  0  0  0  0  0  0  0  0
    4.8562   -1.9783    0.0000 H   0  0  0  0  0  0  0  0  0  0  0  0
  1  2  1  0  0  0  0
  1  8  1  0  0  0  0
  1 14  2  0  0  0  0
  2  3  1  0  0  0  0
  2  7  2  0  0  0  0
  3  4  2  0  0  0  0
  3 30  1  0  0  0  0
  4  5  1  0  0  0  0
  4 31  1  0  0  0  0
  5  6  2  0  0  0  0
  5 32  1  0  0  0  0
  6  7  1  0  0  0  0
  6 33  1  0  0  0  0
  7 34  1  0  0  0  0
  8  9  1  0  0  0  0
  8 13  2  0  0  0  0
  9 10  2  0  0  0  0
  9 35  1  0  0  0  0
 10 11  1  0  0  0  0
 10 36  1  0  0  0  0
 11 12  2  0  0  0  0
 11 24  1  0  0  0  0
 12 13  1  0  0  0  0
 12 37  1  0  0  0  0
 13 38  1  0  0  0  0
 14 15  1  0  0  0  0
 14 19  1  0  0  0  0
 15 16  2  0  0  0  0
 15 39  1  0  0  0  0
 16 17  1  0  0  0  0
 16 40  1  0  0  0  0
 17 18  1  0  0  0  0
 17 25  2  0  0  0  0
 18 19  2  0  0  0  0
 18 41  1  0  0  0  0
 19 42  1  0  0  0  0
 20 24  1  0  0  0  0
 20 26  1  0  0  0  0
 20 43  1  0  0  0  0
 20 44  1  0  0  0  0
 21 24  1  0  0  0  0
 21 27  1  0  0  0  0
 21 45  1  0  0  0  0
 21 46  1  0  0  0  0
 22 25  1  0  0  0  0
 22 29  1  0  0  0  0
 22 47  1  0  0  0  0
 22 48  1  0  0  0  0
 23 25  1  0  0  0  0
 23 28  1  0  0  0  0
 23 49  1  0  0  0  0
 23 50  1  0  0  0  0
 26 51  1  0  0  0  0
 26 52  1  0  0  0  0
 26 53  1  0  0  0  0
 27 54  1  0  0  0  0
 27 55  1  0  0  0  0
 27 56  1  0  0  0  0
 28 57  1  0  0  0  0
 28 58  1  0  0  0  0
 28 59  1  0  0  0  0
 29 60  1  0  0  0  0
 29 61  1  0  0  0  0
 29 62  1  0  0  0  0
M  CHG  1  25   1
M  END
>  <DRUGBANK_ID>
DB11279

>  <COMMON_NAME>
Brilliant green cation

>  <CAS_NUMBER>
18198-35-1

>  <UNII>
S85JD8CLBH

>  <SYNONYMS>
Brilliant green ion; Brilliant green, free form; Brilliant green(1+)

$$$$
