C4E
 OpenBabel10282417072D

 27 29  0  0  0  0  0  0  0  0999 V2000
   -0.1012    0.5398    0.0000 N   0  0  0  0  0  0  0  0  0  0  0  0
   -0.9082    0.7113    0.0000 C   0  0  0  0  0  0  0  0  0  0  0  0
   -1.4602    0.0982    0.0000 C   0  0  0  0  0  0  0  0  0  0  0  0
   -2.2672    0.2698    0.0000 C   0  0  0  0  0  0  0  0  0  0  0  0
   -2.5221    1.0544    0.0000 C   0  0  0  0  0  0  0  0  0  0  0  0
   -1.9701    1.6675    0.0000 C   0  0  0  0  0  0  0  0  0  0  0  0
   -1.1631    1.4960    0.0000 C   0  0  0  0  0  0  0  0  0  0  0  0
    0.1537   -0.2448    0.0000 C   0  0  0  0  0  0  0  0  0  0  0  0
   -0.3312   -0.9123    0.0000 C   0  0  0  0  0  0  0  0  0  0  0  0
    0.9384   -0.4998    0.0000 C   0  0  0  0  0  0  0  0  0  0  0  0
    1.6528   -0.0873    0.0000 C   0  0  0  0  0  0  0  0  0  0  0  0
    0.9384   -1.3248    0.0000 C   0  0  0  0  0  0  0  0  0  0  0  0
    0.1537   -1.5797    0.0000 N   0  0  0  0  0  0  0  0  0  0  0  0
    1.6528   -1.7373    0.0000 N   0  0  0  0  0  0  0  0  0  0  0  0
    2.3673   -1.3248    0.0000 C   0  0  0  0  0  0  0  0  0  0  0  0
    2.3673   -0.4998    0.0000 C   0  0  0  0  0  0  0  0  0  0  0  0
    0.5576    1.2714    0.0000 H   0  0  0  0  0  0  0  0  0  0  0  0
   -1.1413   -0.8833    0.0000 H   0  0  0  0  0  0  0  0  0  0  0  0
   -2.9578   -0.4971    0.0000 H   0  0  0  0  0  0  0  0  0  0  0  0
   -3.5315    1.2690    0.0000 H   0  0  0  0  0  0  0  0  0  0  0  0
   -2.2890    2.6490    0.0000 H   0  0  0  0  0  0  0  0  0  0  0  0
   -0.4725    2.2629    0.0000 H   0  0  0  0  0  0  0  0  0  0  0  0
   -1.3632   -0.9123    0.0000 H   0  0  0  0  0  0  0  0  0  0  0  0
    1.6528    0.9447    0.0000 H   0  0  0  0  0  0  0  0  0  0  0  0
   -0.1506   -2.5160    0.0000 H   0  0  0  0  0  0  0  0  0  0  0  0
    3.2610   -1.8408    0.0000 H   0  0  0  0  0  0  0  0  0  0  0  0
    3.2610    0.0162    0.0000 H   0  0  0  0  0  0  0  0  0  0  0  0
  1  2  1  0  0  0  0
  1  8  1  0  0  0  0
  1 17  1  0  0  0  0
  2  3  2  0  0  0  0
  2  7  1  0  0  0  0
  3  4  1  0  0  0  0
  3 18  1  0  0  0  0
  4  5  2  0  0  0  0
  4 19  1  0  0  0  0
  5  6  1  0  0  0  0
  5 20  1  0  0  0  0
  6  7  2  0  0  0  0
  6 21  1  0  0  0  0
  7 22  1  0  0  0  0
  8  9  2  0  0  0  0
  8 10  1  0  0  0  0
  9 13  1  0  0  0  0
  9 23  1  0  0  0  0
 10 11  2  0  0  0  0
 10 12  1  0  0  0  0
 11 16  1  0  0  0  0
 11 24  1  0  0  0  0
 12 13  1  0  0  0  0
 12 14  2  0  0  0  0
 13 25  1  0  0  0  0
 14 15  1  0  0  0  0
 15 16  2  0  0  0  0
 15 26  1  0  0  0  0
 16 27  1  0  0  0  0
M  END
>  <DRUGBANK_ID>
DB07524

>  <COMMON_NAME>
N-phenyl-1H-pyrrolo[2,3-b]pyridin-3-amine

>  <UNII>
B1XYZ89TUA

$$$$
