
 OpenBabel10282417072D

 38 39  0  0  1  0  0  0  0  0999 V2000
    1.3222    7.2402    0.0000 C   0  0  0  0  0  0  0  0  0  0  0  0
    2.0367    6.8277    0.0000 C   0  0  0  0  0  0  0  0  0  0  0  0
    2.7512    7.2402    0.0000 N   0  0  0  0  0  0  0  0  0  0  0  0
    3.4656    6.8277    0.0000 C   0  0  0  0  0  0  0  0  0  0  0  0
    3.4656    6.0027    0.0000 C   0  0  0  0  0  0  0  0  0  0  0  0
    4.1801    5.5902    0.0000 C   0  0  0  0  0  0  0  0  0  0  0  0
    4.8946    6.0027    0.0000 O   0  0  0  0  0  0  0  0  0  0  0  0
    5.6091    5.5902    0.0000 P   0  0  0  0  0  0  0  0  0  0  0  0
    6.3235    5.1777    0.0000 O   0  0  0  0  0  0  0  0  0  0  0  0
    6.0216    6.3047    0.0000 O   0  0  0  0  0  0  0  0  0  0  0  0
    5.1966    4.8757    0.0000 O   0  0  0  0  0  0  0  0  0  0  0  0
    2.7512    5.5902    0.0000 C   0  0  0  0  0  0  0  0  0  0  0  0
    2.7512    4.7652    0.0000 C   0  0  0  0  0  0  0  0  0  0  0  0
    3.4656    4.3527    0.0000 N   0  0  0  0  0  0  0  0  0  0  0  0
    3.4656    3.5277    0.0000 C   0  0  2  0  0  0  0  0  0  0  0  0
    4.1331    3.0428    0.0000 C   0  0  0  0  0  0  0  0  0  0  0  0
    3.8781    2.2581    0.0000 O   0  0  0  0  0  0  0  0  0  0  0  0
    3.0531    2.2581    0.0000 N   0  0  0  0  0  0  0  0  0  0  0  0
    2.7982    3.0428    0.0000 C   0  0  0  0  0  0  0  0  0  0  0  0
    2.0136    3.2977    0.0000 O   0  0  0  0  0  0  0  0  0  0  0  0
    2.0367    6.0027    0.0000 C   0  0  0  0  0  0  0  0  0  0  0  0
    1.3222    5.5902    0.0000 O   0  0  0  0  0  0  0  0  0  0  0  0
    1.3222    8.3102    0.0000 H   0  0  0  0  0  0  0  0  0  0  0  0
    0.3956    6.7052    0.0000 H   0  0  0  0  0  0  0  0  0  0  0  0
    0.3955    7.7752    0.0000 H   0  0  0  0  0  0  0  0  0  0  0  0
    4.3593    7.3437    0.0000 H   0  0  0  0  0  0  0  0  0  0  0  0
    4.1801    4.5202    0.0000 H   0  0  0  0  0  0  0  0  0  0  0  0
    5.1067    5.0552    0.0000 H   0  0  0  0  0  0  0  0  0  0  0  0
    6.3235    4.2077    0.0000 H   0  0  0  0  0  0  0  0  0  0  0  0
    6.9916    6.3047    0.0000 H   0  0  0  0  0  0  0  0  0  0  0  0
    1.8245    4.2302    0.0000 H   0  0  0  0  0  0  0  0  0  0  0  0
    2.7512    3.6952    0.0000 H   0  0  0  0  0  0  0  0  0  0  0  0
    4.3490    4.8627    0.0000 H   0  0  0  0  0  0  0  0  0  0  0  0
    4.4190    4.0135    0.0000 H   0  0  0  0  0  0  0  0  0  0  0  0
    5.1507    3.3735    0.0000 H   0  0  0  0  0  0  0  0  0  0  0  0
    4.8897    2.2862    0.0000 H   0  0  0  0  0  0  0  0  0  0  0  0
    2.4744    1.4616    0.0000 H   0  0  0  0  0  0  0  0  0  0  0  0
    0.5107    6.0587    0.0000 H   0  0  0  0  0  0  0  0  0  0  0  0
  1  2  1  0  0  0  0
  1 23  1  0  0  0  0
  1 24  1  0  0  0  0
  1 25  1  0  0  0  0
  2  3  2  0  0  0  0
  2 21  1  0  0  0  0
  3  4  1  0  0  0  0
  4  5  2  0  0  0  0
  4 26  1  0  0  0  0
  5  6  1  0  0  0  0
  5 12  1  0  0  0  0
  6  7  1  0  0  0  0
  6 27  1  0  0  0  0
  6 28  1  0  0  0  0
  7  8  1  0  0  0  0
  8  9  1  0  0  0  0
  8 10  1  0  0  0  0
  8 11  2  0  0  0  0
  9 29  1  0  0  0  0
 10 30  1  0  0  0  0
 12 13  1  0  0  0  0
 12 21  2  0  0  0  0
 13 14  1  0  0  0  0
 13 31  1  0  0  0  0
 13 32  1  0  0  0  0
 14 33  1  0  0  0  0
 15 14  1  0  0  0  0
 15 16  1  0  0  0  0
 15 19  1  0  0  0  0
 15 34  1  1  0  0  0
 16 17  1  0  0  0  0
 16 35  1  0  0  0  0
 16 36  1  0  0  0  0
 17 18  1  0  0  0  0
 18 19  1  0  0  0  0
 18 37  1  0  0  0  0
 19 20  2  0  0  0  0
 21 22  1  0  0  0  0
 22 38  1  0  0  0  0
M  END
>  <DRUGBANK_ID>
DB02038

>  <SECONDARY_ACCESSION_NUMBERS>
EXPT01138; EXPT02870; DB03579

>  <COMMON_NAME>
D-[3-hydroxy-2-methyl-5-phosphonooxymethyl-pyridin-4-ylmethyl]-N,O-cycloserylamide

>  <SYNONYMS>
D-pyridoxyl-N,O-cycloserylamide-5-monophosphate

$$$$
