
 OpenBabel10282417072D

 60 64  0  0  0  0  0  0  0  0999 V2000
   -4.5312   -0.7045    0.0000 C   0  0  0  0  0  0  0  0  0  0  0  0
   -5.1987   -1.1894    0.0000 C   0  0  0  0  0  0  0  0  0  0  0  0
   -4.9438   -1.9740    0.0000 C   0  0  0  0  0  0  0  0  0  0  0  0
   -4.1187   -1.9740    0.0000 C   0  0  0  0  0  0  0  0  0  0  0  0
   -3.8638   -1.1894    0.0000 N   0  0  0  0  0  0  0  0  0  0  0  0
   -3.0792   -0.9345    0.0000 C   0  0  0  0  0  0  0  0  0  0  0  0
   -2.4661   -1.4865    0.0000 C   0  0  0  0  0  0  0  0  0  0  0  0
   -1.6815   -1.2316    0.0000 C   0  0  0  0  0  0  0  0  0  0  0  0
   -1.0684   -1.7836    0.0000 O   0  0  0  0  0  0  0  0  0  0  0  0
   -0.4850   -1.2003    0.0000 C   0  0  0  0  0  0  0  0  0  0  0  0
    0.9439   -0.3753    0.0000 C   0  0  0  0  0  0  0  0  0  0  0  0
    0.2295    0.0372    0.0000 C   0  0  0  0  0  0  0  0  0  0  0  0
   -0.4850   -0.3753    0.0000 C   0  0  0  0  0  0  0  0  0  0  0  0
    0.2295   -1.6128    0.0000 C   0  0  0  0  0  0  0  0  0  0  0  0
    0.9439   -1.2003    0.0000 C   0  0  0  0  0  0  0  0  0  0  0  0
    1.6584   -1.6128    0.0000 N   0  0  0  0  0  0  0  0  0  0  0  0
    2.3729   -1.2003    0.0000 C   0  0  0  0  0  0  0  0  0  0  0  0
    2.3729   -0.3753    0.0000 N   0  0  0  0  0  0  0  0  0  0  0  0
    1.6584    0.0372    0.0000 C   0  0  0  0  0  0  0  0  0  0  0  0
   -1.1995    0.0373    0.0000 O   0  0  0  0  0  0  0  0  0  0  0  0
   -1.9140   -0.3752    0.0000 C   0  0  0  0  0  0  0  0  0  0  0  0
    1.6584    0.8622    0.0000 O   0  0  0  0  0  0  0  0  0  0  0  0
    2.6626    1.3997    0.0000 C   0  0  0  0  0  0  0  0  0  0  0  0
    4.0916    2.2247    0.0000 C   0  0  0  0  0  0  0  0  0  0  0  0
    3.3772    2.6372    0.0000 C   0  0  0  0  0  0  0  0  0  0  0  0
    2.6626    2.2247    0.0000 C   0  0  0  0  0  0  0  0  0  0  0  0
    3.3772    0.9872    0.0000 C   0  0  0  0  0  0  0  0  0  0  0  0
    4.0916    1.3997    0.0000 C   0  0  0  0  0  0  0  0  0  0  0  0
    4.8762    2.4797    0.0000 N   0  0  0  0  0  0  0  0  0  0  0  0
    4.8763    1.1448    0.0000 C   0  0  0  0  0  0  0  0  0  0  0  0
    5.3612    1.8122    0.0000 C   0  0  0  0  0  0  0  0  0  0  0  0
    6.1862    1.8122    0.0000 C   0  0  0  0  0  0  0  0  0  0  0  0
    3.3772    0.1622    0.0000 F   0  0  0  0  0  0  0  0  0  0  0  0
   -4.5312    0.3655    0.0000 H   0  0  0  0  0  0  0  0  0  0  0  0
   -3.5778   -0.2187    0.0000 H   0  0  0  0  0  0  0  0  0  0  0  0
   -6.2163   -0.8587    0.0000 H   0  0  0  0  0  0  0  0  0  0  0  0
   -5.9553   -1.9460    0.0000 H   0  0  0  0  0  0  0  0  0  0  0  0
   -5.5727   -2.8396    0.0000 H   0  0  0  0  0  0  0  0  0  0  0  0
   -4.4580   -2.9274    0.0000 H   0  0  0  0  0  0  0  0  0  0  0  0
   -3.4898   -2.8396    0.0000 H   0  0  0  0  0  0  0  0  0  0  0  0
   -3.0619   -1.8066    0.0000 H   0  0  0  0  0  0  0  0  0  0  0  0
   -2.8567    0.1121    0.0000 H   0  0  0  0  0  0  0  0  0  0  0  0
   -2.0616   -0.6038    0.0000 H   0  0  0  0  0  0  0  0  0  0  0  0
   -2.6886   -2.5331    0.0000 H   0  0  0  0  0  0  0  0  0  0  0  0
   -1.6709   -2.2025    0.0000 H   0  0  0  0  0  0  0  0  0  0  0  0
   -1.4590   -0.1850    0.0000 H   0  0  0  0  0  0  0  0  0  0  0  0
   -0.6639   -0.9009    0.0000 H   0  0  0  0  0  0  0  0  0  0  0  0
    0.2295    1.0692    0.0000 H   0  0  0  0  0  0  0  0  0  0  0  0
    0.2295   -2.6448    0.0000 H   0  0  0  0  0  0  0  0  0  0  0  0
    3.2666   -1.7163    0.0000 H   0  0  0  0  0  0  0  0  0  0  0  0
   -2.8406    0.1598    0.0000 H   0  0  0  0  0  0  0  0  0  0  0  0
   -1.9140   -1.4452    0.0000 H   0  0  0  0  0  0  0  0  0  0  0  0
   -2.8407   -0.9102    0.0000 H   0  0  0  0  0  0  0  0  0  0  0  0
    3.3773    3.6692    0.0000 H   0  0  0  0  0  0  0  0  0  0  0  0
    1.7689    2.7407    0.0000 H   0  0  0  0  0  0  0  0  0  0  0  0
    5.1804    3.4160    0.0000 H   0  0  0  0  0  0  0  0  0  0  0  0
    5.1952    0.1633    0.0000 H   0  0  0  0  0  0  0  0  0  0  0  0
    6.7212    0.8856    0.0000 H   0  0  0  0  0  0  0  0  0  0  0  0
    6.7212    2.7388    0.0000 H   0  0  0  0  0  0  0  0  0  0  0  0
    7.2562    1.8122    0.0000 H   0  0  0  0  0  0  0  0  0  0  0  0
  1  2  1  0  0  0  0
  1  5  1  0  0  0  0
  1 34  1  0  0  0  0
  1 35  1  0  0  0  0
  2  3  1  0  0  0  0
  2 36  1  0  0  0  0
  2 37  1  0  0  0  0
  3  4  1  0  0  0  0
  3 38  1  0  0  0  0
  3 39  1  0  0  0  0
  4  5  1  0  0  0  0
  4 40  1  0  0  0  0
  4 41  1  0  0  0  0
  5  6  1  0  0  0  0
  6  7  1  0  0  0  0
  6 42  1  0  0  0  0
  6 43  1  0  0  0  0
  7  8  1  0  0  0  0
  7 44  1  0  0  0  0
  7 45  1  0  0  0  0
  8  9  1  0  0  0  0
  8 46  1  0  0  0  0
  8 47  1  0  0  0  0
  9 10  1  0  0  0  0
 10 14  2  0  0  0  0
 11 12  1  0  0  0  0
 11 15  2  0  0  0  0
 11 19  1  0  0  0  0
 12 13  2  0  0  0  0
 12 48  1  0  0  0  0
 13 10  1  0  0  0  0
 13 20  1  0  0  0  0
 14 15  1  0  0  0  0
 14 49  1  0  0  0  0
 15 16  1  0  0  0  0
 16 17  2  0  0  0  0
 17 18  1  0  0  0  0
 17 50  1  0  0  0  0
 18 19  2  0  0  0  0
 19 22  1  0  0  0  0
 20 21  1  0  0  0  0
 21 51  1  0  0  0  0
 21 52  1  0  0  0  0
 21 53  1  0  0  0  0
 22 23  1  0  0  0  0
 23 27  2  0  0  0  0
 24 25  1  0  0  0  0
 24 28  2  0  0  0  0
 24 29  1  0  0  0  0
 25 26  2  0  0  0  0
 25 54  1  0  0  0  0
 26 23  1  0  0  0  0
 26 55  1  0  0  0  0
 27 28  1  0  0  0  0
 27 33  1  0  0  0  0
 28 30  1  0  0  0  0
 29 56  1  0  0  0  0
 30 31  2  0  0  0  0
 30 57  1  0  0  0  0
 31 29  1  0  0  0  0
 31 32  1  0  0  0  0
 32 58  1  0  0  0  0
 32 59  1  0  0  0  0
 32 60  1  0  0  0  0
M  END
>  <DRUGBANK_ID>
DB04849

>  <SECONDARY_ACCESSION_NUMBERS>
DB12033

>  <COMMON_NAME>
Cediranib

>  <CAS_NUMBER>
288383-20-0

>  <UNII>
NQU9IPY4K9

>  <SYNONYMS>
Cediranib

$$$$
