LK5
 OpenBabel10282417072D

 49 50  0  0  0  0  0  0  0  0999 V2000
   -3.9748   -0.3547    0.0000 C   0  0  0  0  0  0  0  0  0  0  0  0
   -3.2603    0.0578    0.0000 C   0  0  0  0  0  0  0  0  0  0  0  0
   -2.5458   -0.3547    0.0000 C   0  0  0  0  0  0  0  0  0  0  0  0
   -1.8314    0.0578    0.0000 C   0  0  0  0  0  0  0  0  0  0  0  0
   -1.1169   -0.3547    0.0000 O   0  0  0  0  0  0  0  0  0  0  0  0
   -0.4024    0.0578    0.0000 C   0  0  2  0  0  0  0  0  0  0  0  0
   -0.4024    0.8828    0.0000 C   0  0  0  0  0  0  0  0  0  0  0  0
    0.3121    1.2953    0.0000 C   0  0  0  0  0  0  0  0  0  0  0  0
    1.0265    0.8828    0.0000 C   0  0  0  0  0  0  0  0  0  0  0  0
    1.0265    0.0578    0.0000 C   0  0  2  0  0  0  0  0  0  0  0  0
    0.3121   -0.3547    0.0000 C   0  0  0  0  0  0  0  0  0  0  0  0
    0.4836   -1.1616    0.0000 C   0  0  0  0  0  0  0  0  0  0  0  0
   -0.0684   -1.7747    0.0000 C   0  0  0  0  0  0  0  0  0  0  0  0
    0.1865   -2.5594    0.0000 O   0  0  0  0  0  0  0  0  0  0  0  0
   -0.8754   -1.6032    0.0000 O   0  0  0  0  0  0  0  0  0  0  0  0
    1.3041   -1.2479    0.0000 N   0  0  0  0  0  0  0  0  0  0  0  0
    1.6396   -0.4942    0.0000 C   0  0  2  0  0  0  0  0  0  0  0  0
    2.4466   -0.3227    0.0000 C   0  0  1  0  0  0  0  0  0  0  0  0
    2.9986   -0.9358    0.0000 C   0  0  0  0  0  0  0  0  0  0  0  0
    3.8056   -0.7642    0.0000 C   0  0  0  0  0  0  0  0  0  0  0  0
    2.7015    0.4620    0.0000 C   0  0  0  0  0  0  0  0  0  0  0  0
    3.5085    0.6335    0.0000 O   0  0  0  0  0  0  0  0  0  0  0  0
   -0.9081    0.3498    0.0000 H   0  0  0  0  0  0  0  0  0  0  0  0
    1.4466    0.4635    0.0000 H   0  0  0  0  0  0  0  0  0  0  0  0
    2.1179   -0.1593    0.0000 H   0  0  0  0  0  0  0  0  0  0  0  0
    2.2279    0.2187    0.0000 H   0  0  0  0  0  0  0  0  0  0  0  0
   -4.9014    0.1803    0.0000 H   0  0  0  0  0  0  0  0  0  0  0  0
   -3.9748   -1.4247    0.0000 H   0  0  0  0  0  0  0  0  0  0  0  0
   -4.9015   -0.8897    0.0000 H   0  0  0  0  0  0  0  0  0  0  0  0
   -3.2603    1.1278    0.0000 H   0  0  0  0  0  0  0  0  0  0  0  0
   -2.3337    0.5928    0.0000 H   0  0  0  0  0  0  0  0  0  0  0  0
   -2.5458   -1.4247    0.0000 H   0  0  0  0  0  0  0  0  0  0  0  0
   -1.6191   -0.8897    0.0000 H   0  0  0  0  0  0  0  0  0  0  0  0
   -1.8314    1.1278    0.0000 H   0  0  0  0  0  0  0  0  0  0  0  0
   -0.9048    0.5928    0.0000 H   0  0  0  0  0  0  0  0  0  0  0  0
   -1.3290    1.4178    0.0000 H   0  0  0  0  0  0  0  0  0  0  0  0
   -0.4024    1.9528    0.0000 H   0  0  0  0  0  0  0  0  0  0  0  0
    0.3121    2.3653    0.0000 H   0  0  0  0  0  0  0  0  0  0  0  0
    1.2388    1.8303    0.0000 H   0  0  0  0  0  0  0  0  0  0  0  0
    1.9532    1.4178    0.0000 H   0  0  0  0  0  0  0  0  0  0  0  0
    1.9531    0.3478    0.0000 H   0  0  0  0  0  0  0  0  0  0  0  0
   -1.1650   -0.7121    0.0000 H   0  0  0  0  0  0  0  0  0  0  0  0
    1.7964   -2.1005    0.0000 H   0  0  0  0  0  0  0  0  0  0  0  0
    2.6680   -1.9534    0.0000 H   0  0  0  0  0  0  0  0  0  0  0  0
    3.7146   -1.7309    0.0000 H   0  0  0  0  0  0  0  0  0  0  0  0
    4.5216   -1.5593    0.0000 H   0  0  0  0  0  0  0  0  0  0  0  0
    4.1362    0.2535    0.0000 H   0  0  0  0  0  0  0  0  0  0  0  0
    4.8522   -0.5417    0.0000 H   0  0  0  0  0  0  0  0  0  0  0  0
    2.0109    1.2289    0.0000 H   0  0  0  0  0  0  0  0  0  0  0  0
  1  2  1  0  0  0  0
  1 27  1  0  0  0  0
  1 28  1  0  0  0  0
  1 29  1  0  0  0  0
  2  3  1  0  0  0  0
  2 30  1  0  0  0  0
  2 31  1  0  0  0  0
  3  4  1  0  0  0  0
  3 32  1  0  0  0  0
  3 33  1  0  0  0  0
  4  5  1  0  0  0  0
  4 34  1  0  0  0  0
  4 35  1  0  0  0  0
  6  5  1  0  0  0  0
  6  7  1  0  0  0  0
  6 11  1  0  0  0  0
  6 23  1  1  0  0  0
  7  8  1  0  0  0  0
  7 36  1  0  0  0  0
  7 37  1  0  0  0  0
  8  9  1  0  0  0  0
  8 38  1  0  0  0  0
  8 39  1  0  0  0  0
  9 10  1  0  0  0  0
  9 40  1  0  0  0  0
  9 41  1  0  0  0  0
 10 17  1  0  0  0  0
 10 11  1  0  0  0  0
 10 24  1  6  0  0  0
 11 12  2  0  0  0  0
 12 16  1  0  0  0  0
 12 13  1  0  0  0  0
 13 14  2  0  0  0  0
 13 15  1  0  0  0  0
 15 42  1  0  0  0  0
 16 17  1  0  0  0  0
 16 43  1  0  0  0  0
 17 18  1  0  0  0  0
 17 25  1  6  0  0  0
 18 21  1  0  0  0  0
 18 19  1  0  0  0  0
 18 26  1  1  0  0  0
 19 20  1  0  0  0  0
 19 44  1  0  0  0  0
 19 45  1  0  0  0  0
 20 46  1  0  0  0  0
 20 47  1  0  0  0  0
 20 48  1  0  0  0  0
 21 22  2  0  0  0  0
 21 49  1  0  0  0  0
M  END
>  <DRUGBANK_ID>
DB08109

>  <COMMON_NAME>
(1S,4R,7AR)-4-BUTOXY-1-[(1R)-1-FORMYLPROPYL]-2,4,5,6,7,7A-HEXAHYDRO-1H-ISOINDOLE-3-CARBOXYLIC ACID

$$$$
