
 OpenBabel10282417072D

107113  0  0  1  0  0  0  0  0999 V2000
   -8.2024   -3.2525    0.0000 C   0  0  0  0  0  0  0  0  0  0  0  0
   -8.0465   -2.4423    0.0000 C   0  0  0  0  0  0  0  0  0  0  0  0
   -7.2669   -2.1723    0.0000 C   0  0  0  0  0  0  0  0  0  0  0  0
   -6.6433   -2.7124    0.0000 C   0  0  0  0  0  0  0  0  0  0  0  0
   -6.7992   -3.5225    0.0000 C   0  0  0  0  0  0  0  0  0  0  0  0
   -7.5788   -3.7926    0.0000 C   0  0  0  0  0  0  0  0  0  0  0  0
   -5.8637   -2.4423    0.0000 C   0  0  0  0  0  0  0  0  0  0  0  0
   -5.7078   -1.6322    0.0000 C   0  0  1  0  0  0  0  0  0  0  0  0
   -6.3315   -1.0921    0.0000 C   0  0  0  0  0  0  0  0  0  0  0  0
   -6.1756   -0.2820    0.0000 O   0  0  0  0  0  0  0  0  0  0  0  0
   -7.1110   -1.3622    0.0000 N   0  0  0  0  0  0  0  0  0  0  0  0
   -7.7347   -0.8221    0.0000 C   0  0  0  0  0  0  0  0  0  0  0  0
   -8.1360   -0.1012    0.0000 C   0  0  0  0  0  0  0  0  0  0  0  0
   -8.9609   -0.0884    0.0000 C   0  0  0  0  0  0  0  0  0  0  0  0
   -9.3845   -0.7963    0.0000 N   0  0  0  0  0  0  0  0  0  0  0  0
   -8.9832   -1.5172    0.0000 C   0  0  0  0  0  0  0  0  0  0  0  0
   -8.1583   -1.5300    0.0000 C   0  0  0  0  0  0  0  0  0  0  0  0
   -7.0945   -0.3017    0.0000 C   0  0  0  0  0  0  0  0  0  0  0  0
   -7.2251    0.5129    0.0000 O   0  0  0  0  0  0  0  0  0  0  0  0
   -6.4034    0.1489    0.0000 N   0  0  0  0  0  0  0  0  0  0  0  0
   -4.9283   -1.3622    0.0000 N   0  0  0  0  0  0  0  0  0  0  0  0
   -4.3046   -1.9022    0.0000 C   0  0  0  0  0  0  0  0  0  0  0  0
   -4.4605   -2.7124    0.0000 O   0  0  0  0  0  0  0  0  0  0  0  0
   -3.5251   -1.6322    0.0000 C   0  0  1  0  0  0  0  0  0  0  0  0
   -3.3692   -0.8221    0.0000 C   0  0  0  0  0  0  0  0  0  0  0  0
   -3.9928   -0.2820    0.0000 C   0  0  0  0  0  0  0  0  0  0  0  0
   -4.7963   -0.4691    0.0000 C   0  0  0  0  0  0  0  0  0  0  0  0
   -5.2225    0.2373    0.0000 N   0  0  0  0  0  0  0  0  0  0  0  0
   -4.6825    0.8610    0.0000 C   0  0  0  0  0  0  0  0  0  0  0  0
   -3.9224    0.5400    0.0000 C   0  0  0  0  0  0  0  0  0  0  0  0
   -3.2645    1.0377    0.0000 C   0  0  0  0  0  0  0  0  0  0  0  0
   -3.3666    1.8564    0.0000 C   0  0  0  0  0  0  0  0  0  0  0  0
   -4.1266    2.1773    0.0000 C   0  0  0  0  0  0  0  0  0  0  0  0
   -4.7845    1.6796    0.0000 C   0  0  0  0  0  0  0  0  0  0  0  0
   -2.9014   -2.1723    0.0000 N   0  0  0  0  0  0  0  0  0  0  0  0
   -2.1219   -1.9022    0.0000 C   0  0  0  0  0  0  0  0  0  0  0  0
   -1.9660   -1.0921    0.0000 O   0  0  0  0  0  0  0  0  0  0  0  0
   -1.4983   -2.4423    0.0000 C   0  0  1  0  0  0  0  0  0  0  0  0
   -1.6542   -3.2525    0.0000 C   0  0  0  0  0  0  0  0  0  0  0  0
   -1.0305   -3.7926    0.0000 C   0  0  0  0  0  0  0  0  0  0  0  0
   -1.1009   -4.6145    0.0000 C   0  0  0  0  0  0  0  0  0  0  0  0
   -0.3409   -4.9355    0.0000 S   0  0  0  0  0  0  0  0  0  0  0  0
    0.1992   -4.3118    0.0000 C   0  0  0  0  0  0  0  0  0  0  0  0
   -0.2270   -3.6055    0.0000 C   0  0  0  0  0  0  0  0  0  0  0  0
    0.1716   -2.8832    0.0000 C   0  0  0  0  0  0  0  0  0  0  0  0
    0.9965   -2.8672    0.0000 C   0  0  0  0  0  0  0  0  0  0  0  0
    1.4227   -3.5736    0.0000 C   0  0  0  0  0  0  0  0  0  0  0  0
    1.0241   -4.2959    0.0000 C   0  0  0  0  0  0  0  0  0  0  0  0
   -0.7187   -2.1723    0.0000 N   0  0  0  0  0  0  0  0  0  0  0  0
   -0.5628   -1.3622    0.0000 C   0  0  0  0  0  0  0  0  0  0  0  0
   -1.1864   -0.8221    0.0000 O   0  0  0  0  0  0  0  0  0  0  0  0
    0.2168   -1.0921    0.0000 C   0  0  0  0  0  0  0  0  0  0  0  0
    0.3727   -0.2820    0.0000 C   0  0  0  0  0  0  0  0  0  0  0  0
    1.1522   -0.0119    0.0000 C   0  0  0  0  0  0  0  0  0  0  0  0
    1.7759   -0.5520    0.0000 N   0  0  0  0  0  0  0  0  0  0  0  0
    1.6200   -1.3622    0.0000 C   0  0  0  0  0  0  0  0  0  0  0  0
    0.8404   -1.6322    0.0000 C   0  0  0  0  0  0  0  0  0  0  0  0
   -9.1776   -3.5903    0.0000 H   0  0  0  0  0  0  0  0  0  0  0  0
   -8.8266   -1.7667    0.0000 H   0  0  0  0  0  0  0  0  0  0  0  0
   -7.0718   -1.1589    0.0000 H   0  0  0  0  0  0  0  0  0  0  0  0
   -6.0191   -4.1981    0.0000 H   0  0  0  0  0  0  0  0  0  0  0  0
   -7.7738   -4.8060    0.0000 H   0  0  0  0  0  0  0  0  0  0  0  0
   -5.0548   -3.1428    0.0000 H   0  0  0  0  0  0  0  0  0  0  0  0
   -4.8527   -2.0920    0.0000 H   0  0  0  0  0  0  0  0  0  0  0  0
   -4.8990   -2.3327    0.0000 H   0  0  0  0  0  0  0  0  0  0  0  0
   -7.2970   -2.3290    0.0000 H   0  0  0  0  0  0  0  0  0  0  0  0
   -7.5866    0.8170    0.0000 H   0  0  0  0  0  0  0  0  0  0  0  0
   -8.6565    0.8337    0.0000 H   0  0  0  0  0  0  0  0  0  0  0  0
   -9.4814    0.8465    0.0000 H   0  0  0  0  0  0  0  0  0  0  0  0
  -10.0308   -0.0717    0.0000 H   0  0  0  0  0  0  0  0  0  0  0  0
  -10.4044   -0.7803    0.0000 H   0  0  0  0  0  0  0  0  0  0  0  0
   -9.5326   -2.4354    0.0000 H   0  0  0  0  0  0  0  0  0  0  0  0
   -8.4627   -2.4521    0.0000 H   0  0  0  0  0  0  0  0  0  0  0  0
   -7.6378   -2.4649    0.0000 H   0  0  0  0  0  0  0  0  0  0  0  0
   -7.0884   -1.5467    0.0000 H   0  0  0  0  0  0  0  0  0  0  0  0
   -5.5254   -0.2965    0.0000 H   0  0  0  0  0  0  0  0  0  0  0  0
   -6.4567    1.1320    0.0000 H   0  0  0  0  0  0  0  0  0  0  0  0
   -4.7423   -0.3954    0.0000 H   0  0  0  0  0  0  0  0  0  0  0  0
   -3.7273   -2.6829    0.0000 H   0  0  0  0  0  0  0  0  0  0  0  0
   -2.3581   -0.4719    0.0000 H   0  0  0  0  0  0  0  0  0  0  0  0
   -3.1670    0.2286    0.0000 H   0  0  0  0  0  0  0  0  0  0  0  0
   -5.1978   -1.4198    0.0000 H   0  0  0  0  0  0  0  0  0  0  0  0
   -6.2034    0.3212    0.0000 H   0  0  0  0  0  0  0  0  0  0  0  0
   -2.3138    0.6363    0.0000 H   0  0  0  0  0  0  0  0  0  0  0  0
   -2.5436    2.4790    0.0000 H   0  0  0  0  0  0  0  0  0  0  0  0
   -4.2543    3.2014    0.0000 H   0  0  0  0  0  0  0  0  0  0  0  0
   -5.7352    2.0811    0.0000 H   0  0  0  0  0  0  0  0  0  0  0  0
   -3.0874   -3.1391    0.0000 H   0  0  0  0  0  0  0  0  0  0  0  0
   -1.2960   -1.3916    0.0000 H   0  0  0  0  0  0  0  0  0  0  0  0
   -2.6652   -3.6028    0.0000 H   0  0  0  0  0  0  0  0  0  0  0  0
   -1.8564   -4.3032    0.0000 H   0  0  0  0  0  0  0  0  0  0  0  0
   -1.9845   -5.1476    0.0000 H   0  0  0  0  0  0  0  0  0  0  0  0
   -0.3616   -1.9996    0.0000 H   0  0  0  0  0  0  0  0  0  0  0  0
    1.4951   -1.9637    0.0000 H   0  0  0  0  0  0  0  0  0  0  0  0
    2.4545   -3.5537    0.0000 H   0  0  0  0  0  0  0  0  0  0  0  0
    1.5573   -5.1795    0.0000 H   0  0  0  0  0  0  0  0  0  0  0  0
    0.0255   -2.8168    0.0000 H   0  0  0  0  0  0  0  0  0  0  0  0
    1.2279   -0.7419    0.0000 H   0  0  0  0  0  0  0  0  0  0  0  0
   -0.4362    0.4184    0.0000 H   0  0  0  0  0  0  0  0  0  0  0  0
    0.5748    0.7687    0.0000 H   0  0  0  0  0  0  0  0  0  0  0  0
    1.3543    1.0388    0.0000 H   0  0  0  0  0  0  0  0  0  0  0  0
    2.1632    0.3384    0.0000 H   0  0  0  0  0  0  0  0  0  0  0  0
    2.7397   -0.2181    0.0000 H   0  0  0  0  0  0  0  0  0  0  0  0
    2.4288   -2.0627    0.0000 H   0  0  0  0  0  0  0  0  0  0  0  0
    1.4177   -2.4129    0.0000 H   0  0  0  0  0  0  0  0  0  0  0  0
    0.6381   -2.6829    0.0000 H   0  0  0  0  0  0  0  0  0  0  0  0
   -0.1707   -1.9824    0.0000 H   0  0  0  0  0  0  0  0  0  0  0  0
  1  2  2  0  0  0  0
  1  6  1  0  0  0  0
  1 58  1  0  0  0  0
  2  3  1  0  0  0  0
  2 59  1  0  0  0  0
  3  4  2  0  0  0  0
  3 60  1  0  0  0  0
  4  5  1  0  0  0  0
  4  7  1  0  0  0  0
  5  6  2  0  0  0  0
  5 61  1  0  0  0  0
  6 62  1  0  0  0  0
  7  8  1  0  0  0  0
  7 63  1  0  0  0  0
  7 64  1  0  0  0  0
  8  9  1  0  0  0  0
  8 21  1  0  0  0  0
  8 65  1  6  0  0  0
  9 10  2  0  0  0  0
  9 11  1  0  0  0  0
 11 12  1  0  0  0  0
 11 66  1  0  0  0  0
 12 13  1  0  0  0  0
 12 17  1  0  0  0  0
 12 18  1  0  0  0  0
 13 14  1  0  0  0  0
 13 67  1  0  0  0  0
 13 68  1  0  0  0  0
 14 15  1  0  0  0  0
 14 69  1  0  0  0  0
 14 70  1  0  0  0  0
 15 16  1  0  0  0  0
 15 71  1  0  0  0  0
 16 17  1  0  0  0  0
 16 72  1  0  0  0  0
 16 73  1  0  0  0  0
 17 74  1  0  0  0  0
 17 75  1  0  0  0  0
 18 19  2  0  0  0  0
 18 20  1  0  0  0  0
 20 76  1  0  0  0  0
 20 77  1  0  0  0  0
 21 22  1  0  0  0  0
 21 78  1  0  0  0  0
 22 23  2  0  0  0  0
 22 24  1  0  0  0  0
 24 25  1  0  0  0  0
 24 35  1  0  0  0  0
 24 79  1  6  0  0  0
 25 26  1  0  0  0  0
 25 80  1  0  0  0  0
 25 81  1  0  0  0  0
 26 27  2  0  0  0  0
 26 30  1  0  0  0  0
 27 28  1  0  0  0  0
 27 82  1  0  0  0  0
 28 29  1  0  0  0  0
 28 83  1  0  0  0  0
 29 30  1  0  0  0  0
 29 34  2  0  0  0  0
 30 31  2  0  0  0  0
 31 32  1  0  0  0  0
 31 84  1  0  0  0  0
 32 33  2  0  0  0  0
 32 85  1  0  0  0  0
 33 34  1  0  0  0  0
 33 86  1  0  0  0  0
 34 87  1  0  0  0  0
 35 36  1  0  0  0  0
 35 88  1  0  0  0  0
 36 37  2  0  0  0  0
 36 38  1  0  0  0  0
 38 39  1  0  0  0  0
 38 49  1  0  0  0  0
 38 89  1  1  0  0  0
 39 40  1  0  0  0  0
 39 90  1  0  0  0  0
 39 91  1  0  0  0  0
 40 41  2  0  0  0  0
 40 44  1  0  0  0  0
 41 42  1  0  0  0  0
 41 92  1  0  0  0  0
 42 43  1  0  0  0  0
 43 44  1  0  0  0  0
 43 48  2  0  0  0  0
 44 45  2  0  0  0  0
 45 46  1  0  0  0  0
 45 93  1  0  0  0  0
 46 47  2  0  0  0  0
 46 94  1  0  0  0  0
 47 48  1  0  0  0  0
 47 95  1  0  0  0  0
 48 96  1  0  0  0  0
 49 50  1  0  0  0  0
 49 97  1  0  0  0  0
 50 51  2  0  0  0  0
 50 52  1  0  0  0  0
 52 53  1  0  0  0  0
 52 57  1  0  0  0  0
 52 98  1  0  0  0  0
 53 54  1  0  0  0  0
 53 99  1  0  0  0  0
 53100  1  0  0  0  0
 54 55  1  0  0  0  0
 54101  1  0  0  0  0
 54102  1  0  0  0  0
 55 56  1  0  0  0  0
 55103  1  0  0  0  0
 56 57  1  0  0  0  0
 56104  1  0  0  0  0
 56105  1  0  0  0  0
 57106  1  0  0  0  0
 57107  1  0  0  0  0
M  END
>  <DRUGBANK_ID>
DB12678

>  <COMMON_NAME>
Relamorelin

>  <CAS_NUMBER>
661472-41-9

>  <UNII>
BIW199E18V

>  <SYNONYMS>
Relamorelin

$$$$
