
 OpenBabel10282417072D

 63 68  0  0  1  0  0  0  0  0999 V2000
   -1.9432   -3.8082    0.0000 C   0  0  0  0  0  0  0  0  0  0  0  0
   -1.6077   -3.0545    0.0000 N   0  0  0  0  0  0  0  0  0  0  0  0
   -0.8007   -2.8830    0.0000 C   0  0  0  0  0  0  0  0  0  0  0  0
   -0.7145   -2.0625    0.0000 C   0  0  0  0  0  0  0  0  0  0  0  0
   -1.4681   -1.7269    0.0000 C   0  0  0  0  0  0  0  0  0  0  0  0
   -2.0202   -2.3400    0.0000 N   0  0  0  0  0  0  0  0  0  0  0  0
    0.0000   -1.6500    0.0000 S   0  0  0  0  0  0  0  0  0  0  0  0
    0.4125   -2.3645    0.0000 O   0  0  0  0  0  0  0  0  0  0  0  0
   -0.4125   -0.9355    0.0000 O   0  0  0  0  0  0  0  0  0  0  0  0
    0.7145   -1.2375    0.0000 N   0  0  0  0  0  0  0  0  0  0  0  0
    0.7145   -0.4125    0.0000 C   0  0  0  0  0  0  0  0  0  0  0  0
    1.4289    0.0000    0.0000 C   0  0  0  0  0  0  0  0  0  0  0  0
    2.1434   -0.4125    0.0000 C   0  0  0  0  0  0  0  0  0  0  0  0
    2.8579    0.0000    0.0000 C   0  0  0  0  0  0  0  0  0  0  0  0
    3.5724   -0.4125    0.0000 C   0  0  0  0  0  0  0  0  0  0  0  0
    3.5724   -1.2375    0.0000 C   0  0  0  0  0  0  0  0  0  0  0  0
    2.8579   -1.6500    0.0000 C   0  0  0  0  0  0  0  0  0  0  0  0
    2.1434   -1.2375    0.0000 C   0  0  2  0  0  0  0  0  0  0  0  0
    1.4289   -1.6500    0.0000 C   0  0  0  0  0  0  0  0  0  0  0  0
    2.1434   -2.0625    0.0000 C   0  0  0  0  0  0  0  0  0  0  0  0
    1.4289   -2.4750    0.0000 O   0  0  0  0  0  0  0  0  0  0  0  0
    2.8579   -2.4750    0.0000 C   0  0  0  0  0  0  0  0  0  0  0  0
    2.8579   -3.3000    0.0000 C   0  0  0  0  0  0  0  0  0  0  0  0
    3.5724   -3.7125    0.0000 C   0  0  0  0  0  0  0  0  0  0  0  0
    4.2868   -3.3000    0.0000 C   0  0  0  0  0  0  0  0  0  0  0  0
    4.2868   -2.4750    0.0000 C   0  0  0  0  0  0  0  0  0  0  0  0
    3.5724   -2.0625    0.0000 N   0  0  0  0  0  0  0  0  0  0  0  0
    3.5724   -4.5375    0.0000 C   0  0  0  0  0  0  0  0  0  0  0  0
    3.5724   -5.3625    0.0000 F   0  0  0  0  0  0  0  0  0  0  0  0
    2.7474   -4.5375    0.0000 F   0  0  0  0  0  0  0  0  0  0  0  0
    4.3974   -4.5375    0.0000 F   0  0  0  0  0  0  0  0  0  0  0  0
    4.3570   -1.4924    0.0000 C   0  0  0  0  0  0  0  0  0  0  0  0
    4.8419   -0.8250    0.0000 N   0  0  0  0  0  0  0  0  0  0  0  0
    4.3570   -0.1576    0.0000 N   0  0  0  0  0  0  0  0  0  0  0  0
    4.6119    0.6271    0.0000 C   0  0  0  0  0  0  0  0  0  0  0  0
    4.0599    1.2402    0.0000 C   0  0  0  0  0  0  0  0  0  0  0  0
    4.3148    2.0248    0.0000 C   0  0  0  0  0  0  0  0  0  0  0  0
    5.1218    2.1963    0.0000 C   0  0  0  0  0  0  0  0  0  0  0  0
    5.3767    2.9809    0.0000 F   0  0  0  0  0  0  0  0  0  0  0  0
    5.6738    1.5832    0.0000 C   0  0  0  0  0  0  0  0  0  0  0  0
    5.4189    0.7986    0.0000 C   0  0  0  0  0  0  0  0  0  0  0  0
   -3.0073   -3.9201    0.0000 H   0  0  0  0  0  0  0  0  0  0  0  0
   -1.3142   -4.6738    0.0000 H   0  0  0  0  0  0  0  0  0  0  0  0
   -2.3783   -4.7857    0.0000 H   0  0  0  0  0  0  0  0  0  0  0  0
   -0.0338   -3.5735    0.0000 H   0  0  0  0  0  0  0  0  0  0  0  0
   -1.6826   -0.7174    0.0000 H   0  0  0  0  0  0  0  0  0  0  0  0
   -0.2122    0.1225    0.0000 H   0  0  0  0  0  0  0  0  0  0  0  0
    0.7145    0.6575    0.0000 H   0  0  0  0  0  0  0  0  0  0  0  0
    1.4289    1.0700    0.0000 H   0  0  0  0  0  0  0  0  0  0  0  0
    2.3555    0.5350    0.0000 H   0  0  0  0  0  0  0  0  0  0  0  0
    2.8579    1.0320    0.0000 H   0  0  0  0  0  0  0  0  0  0  0  0
    2.8579   -2.7200    0.0000 H   0  0  0  0  0  0  0  0  0  0  0  0
    1.9313   -2.1850    0.0000 H   0  0  0  0  0  0  0  0  0  0  0  0
    1.4289   -2.7200    0.0000 H   0  0  0  0  0  0  0  0  0  0  0  0
    0.5022   -2.1850    0.0000 H   0  0  0  0  0  0  0  0  0  0  0  0
    1.9642   -3.8160    0.0000 H   0  0  0  0  0  0  0  0  0  0  0  0
    5.1805   -3.8160    0.0000 H   0  0  0  0  0  0  0  0  0  0  0  0
    5.1805   -1.9590    0.0000 H   0  0  0  0  0  0  0  0  0  0  0  0
    4.6759   -2.4739    0.0000 H   0  0  0  0  0  0  0  0  0  0  0  0
    3.0505    1.0256    0.0000 H   0  0  0  0  0  0  0  0  0  0  0  0
    3.6243    2.7917    0.0000 H   0  0  0  0  0  0  0  0  0  0  0  0
    6.6832    1.7978    0.0000 H   0  0  0  0  0  0  0  0  0  0  0  0
    6.1094    0.0317    0.0000 H   0  0  0  0  0  0  0  0  0  0  0  0
  1  2  1  0  0  0  0
  1 42  1  0  0  0  0
  1 43  1  0  0  0  0
  1 44  1  0  0  0  0
  2  3  1  0  0  0  0
  2  6  1  0  0  0  0
  3  4  2  0  0  0  0
  3 45  1  0  0  0  0
  4  5  1  0  0  0  0
  4  7  1  0  0  0  0
  5  6  2  0  0  0  0
  5 46  1  0  0  0  0
  7  8  2  0  0  0  0
  7  9  2  0  0  0  0
  7 10  1  0  0  0  0
 10 11  1  0  0  0  0
 10 19  1  0  0  0  0
 11 12  1  0  0  0  0
 11 47  1  0  0  0  0
 11 48  1  0  0  0  0
 12 13  1  0  0  0  0
 12 49  1  0  0  0  0
 12 50  1  0  0  0  0
 13 14  2  0  0  0  0
 14 15  1  0  0  0  0
 14 51  1  0  0  0  0
 15 16  2  0  0  0  0
 15 34  1  0  0  0  0
 16 17  1  0  0  0  0
 16 32  1  0  0  0  0
 17 52  1  0  0  0  0
 17 53  1  0  0  0  0
 18 17  1  0  0  0  0
 18 13  1  0  0  0  0
 18 19  1  0  0  0  0
 18 20  1  1  0  0  0
 19 54  1  0  0  0  0
 19 55  1  0  0  0  0
 20 21  2  0  0  0  0
 20 22  1  0  0  0  0
 22 23  2  0  0  0  0
 22 27  1  0  0  0  0
 23 24  1  0  0  0  0
 23 56  1  0  0  0  0
 24 25  2  0  0  0  0
 24 28  1  0  0  0  0
 25 26  1  0  0  0  0
 25 57  1  0  0  0  0
 26 27  2  0  0  0  0
 26 58  1  0  0  0  0
 28 29  1  0  0  0  0
 28 30  1  0  0  0  0
 28 31  1  0  0  0  0
 32 33  2  0  0  0  0
 32 59  1  0  0  0  0
 33 34  1  0  0  0  0
 34 35  1  0  0  0  0
 35 36  2  0  0  0  0
 35 41  1  0  0  0  0
 36 37  1  0  0  0  0
 36 60  1  0  0  0  0
 37 38  2  0  0  0  0
 37 61  1  0  0  0  0
 38 39  1  0  0  0  0
 38 40  1  0  0  0  0
 40 41  2  0  0  0  0
 40 62  1  0  0  0  0
 41 63  1  0  0  0  0
M  END
>  <DRUGBANK_ID>
DB14976

>  <COMMON_NAME>
Relacorilant

>  <CAS_NUMBER>
1496510-51-0

>  <UNII>
2158753C7E

>  <SYNONYMS>
CORT125134; Relacorilant

$$$$
