
 OpenBabel10282417072D

 35 37  0  0  0  0  0  0  0  0999 V2000
   -1.4331   -0.4998    0.0000 C   0  0  0  0  0  0  0  0  0  0  0  0
   -1.4331   -1.3295    0.0000 C   0  0  0  0  0  0  0  0  0  0  0  0
   -0.6449   -0.2433    0.0000 C   0  0  0  0  0  0  0  0  0  0  0  0
   -2.1535   -0.0886    0.0000 C   0  0  0  0  0  0  0  0  0  0  0  0
   -0.6487   -1.5784    0.0000 N   0  0  0  0  0  0  0  0  0  0  0  0
   -2.1535   -1.7481    0.0000 N   0  0  0  0  0  0  0  0  0  0  0  0
   -0.1658   -0.9183    0.0000 C   0  0  0  0  0  0  0  0  0  0  0  0
   -0.3883    0.5336    0.0000 C   0  0  0  0  0  0  0  0  0  0  0  0
   -2.8664   -0.4998    0.0000 N   0  0  0  0  0  0  0  0  0  0  0  0
   -2.1573    0.7298    0.0000 O   0  0  0  0  0  0  0  0  0  0  0  0
   -2.8664   -1.3295    0.0000 C   0  0  0  0  0  0  0  0  0  0  0  0
    0.5506    0.8429    0.0000 N   0  0  0  0  0  0  0  0  0  0  0  0
   -3.6169   -1.7481    0.0000 N   0  0  0  0  0  0  0  0  0  0  0  0
    1.5124    0.4507    0.0000 C   0  0  2  0  0  0  0  0  0  0  0  0
    2.1724    0.9259    0.0000 C   0  0  2  0  0  0  0  0  0  0  0  0
    1.7613   -0.3337    0.0000 C   0  0  0  0  0  0  0  0  0  0  0  0
    2.8400    0.4507    0.0000 C   0  0  2  0  0  0  0  0  0  0  0  0
    2.1687    1.7481    0.0000 O   0  0  0  0  0  0  0  0  0  0  0  0
    2.5873   -0.3337    0.0000 C   0  0  0  0  0  0  0  0  0  0  0  0
    3.6169    0.7071    0.0000 O   0  0  0  0  0  0  0  0  0  0  0  0
   -0.3428   -2.5142    0.0000 H   0  0  0  0  0  0  0  0  0  0  0  0
    0.8662   -0.9257    0.0000 H   0  0  0  0  0  0  0  0  0  0  0  0
   -1.1446    1.2905    0.0000 H   0  0  0  0  0  0  0  0  0  0  0  0
   -0.1404    1.5745    0.0000 H   0  0  0  0  0  0  0  0  0  0  0  0
   -3.7189   -0.0074    0.0000 H   0  0  0  0  0  0  0  0  0  0  0  0
    0.5858    1.8623    0.0000 H   0  0  0  0  0  0  0  0  0  0  0  0
   -4.4621   -1.2433    0.0000 H   0  0  0  0  0  0  0  0  0  0  0  0
   -3.6315   -2.7325    0.0000 H   0  0  0  0  0  0  0  0  0  0  0  0
    1.3860    1.5132    0.0000 H   0  0  0  0  0  0  0  0  0  0  0  0
    1.2190    1.4116    0.0000 H   0  0  0  0  0  0  0  0  0  0  0  0
    1.1518   -1.1665    0.0000 H   0  0  0  0  0  0  0  0  0  0  0  0
    2.9998    1.5087    0.0000 H   0  0  0  0  0  0  0  0  0  0  0  0
    3.0066    2.2369    0.0000 H   0  0  0  0  0  0  0  0  0  0  0  0
    3.1949   -1.1678    0.0000 H   0  0  0  0  0  0  0  0  0  0  0  0
    4.3407    0.0614    0.0000 H   0  0  0  0  0  0  0  0  0  0  0  0
  1  2  2  0  0  0  0
  1  3  1  0  0  0  0
  1  4  1  0  0  0  0
  2  5  1  0  0  0  0
  2  6  1  0  0  0  0
  3  7  2  0  0  0  0
  3  8  1  0  0  0  0
  4  9  1  0  0  0  0
  4 10  2  0  0  0  0
  5  7  1  0  0  0  0
  5 21  1  0  0  0  0
  6 11  2  0  0  0  0
  7 22  1  0  0  0  0
  8 12  1  0  0  0  0
  8 23  1  0  0  0  0
  8 24  1  0  0  0  0
  9 11  1  0  0  0  0
  9 25  1  0  0  0  0
 11 13  1  0  0  0  0
 12 26  1  0  0  0  0
 13 27  1  0  0  0  0
 13 28  1  0  0  0  0
 14 12  1  0  0  0  0
 14 15  1  0  0  0  0
 14 16  1  0  0  0  0
 14 29  1  1  0  0  0
 15 17  1  0  0  0  0
 15 18  1  0  0  0  0
 15 30  1  6  0  0  0
 16 19  2  0  0  0  0
 16 31  1  0  0  0  0
 17 20  1  0  0  0  0
 17 19  1  0  0  0  0
 17 32  1  6  0  0  0
 18 33  1  0  0  0  0
 19 34  1  0  0  0  0
 20 35  1  0  0  0  0
M  END
>  <DRUGBANK_ID>
DB14732

>  <COMMON_NAME>
Queuine

>  <CAS_NUMBER>
72496-59-4

>  <UNII>
DAK6EYX2BZ

>  <SYNONYMS>
7-(3,4-trans-4,5-cis-dihydroxy-1-cyclopenten-3-ylaminomethyl)-7-deazaguanine; Base Q; Q Base

$$$$
