
 OpenBabel10282417072D

 85 91  0  0  1  0  0  0  0  0999 V2000
    1.5846   -1.5797    0.0000 H   0  0  0  0  0  0  0  0  0  0  0  0
    0.8099   -1.2959    0.0000 C   0  0  1  0  0  0  0  0  0  0  0  0
    1.3409   -0.6167    0.0000 C   0  0  0  0  0  0  0  0  0  0  0  0
    2.0507   -0.1383    0.0000 C   0  0  0  0  0  0  0  0  0  0  0  0
    2.5010   -0.8403    0.0000 C   0  0  0  0  0  0  0  0  0  0  0  0
    3.3230   -0.8296    0.0000 C   0  0  0  0  0  0  0  0  0  0  0  0
    3.7413   -0.0995    0.0000 C   0  0  0  0  0  0  0  0  0  0  0  0
    4.5351   -0.4236    0.0000 O   0  0  0  0  0  0  0  0  0  0  0  0
    5.1635   -1.0139    0.0000 C   0  0  0  0  0  0  0  0  0  0  0  0
    4.8446   -1.7953    0.0000 C   0  0  0  0  0  0  0  0  0  0  0  0
    5.3213   -2.4904    0.0000 C   0  0  0  0  0  0  0  0  0  0  0  0
    4.8296   -3.2122    0.0000 C   0  0  0  0  0  0  0  0  0  0  0  0
    4.4934   -4.0212    0.0000 C   0  0  1  0  0  0  0  0  0  0  0  0
    3.8285   -3.5328    0.0000 H   0  0  0  0  0  0  0  0  0  0  0  0
    5.2751   -4.3314    0.0000 N   0  0  0  0  0  0  0  0  0  0  0  0
    5.9094   -3.8039    0.0000 C   0  0  0  0  0  0  0  0  0  0  0  0
    5.4350   -5.1434    0.0000 C   0  0  0  0  0  0  0  0  0  0  0  0
    4.8088   -5.6835    0.0000 C   0  0  0  0  0  0  0  0  0  0  0  0
    4.0149   -5.4130    0.0000 C   0  0  0  0  0  0  0  0  0  0  0  0
    3.4258   -6.0117    0.0000 C   0  0  0  0  0  0  0  0  0  0  0  0
    2.6240   -5.8083    0.0000 C   0  0  0  0  0  0  0  0  0  0  0  0
    2.0481   -6.3990    0.0000 O   0  0  0  0  0  0  0  0  0  0  0  0
    2.2717   -7.1931    0.0000 C   0  0  0  0  0  0  0  0  0  0  0  0
    2.4013   -5.0152    0.0000 C   0  0  0  0  0  0  0  0  0  0  0  0
    1.5976   -4.8289    0.0000 O   0  0  0  0  0  0  0  0  0  0  0  0
    1.0344   -5.4318    0.0000 C   0  0  0  0  0  0  0  0  0  0  0  0
    2.9629   -4.3867    0.0000 C   0  0  0  0  0  0  0  0  0  0  0  0
    2.2595   -3.8504    0.0000 O   0  0  0  0  0  0  0  0  0  0  0  0
    1.4657   -3.4852    0.0000 C   0  0  0  0  0  0  0  0  0  0  0  0
    1.4742   -2.6417    0.0000 C   0  0  0  0  0  0  0  0  0  0  0  0
    0.7766   -2.1558    0.0000 C   0  0  0  0  0  0  0  0  0  0  0  0
    0.0304   -2.5414    0.0000 C   0  0  0  0  0  0  0  0  0  0  0  0
   -0.6743   -2.0770    0.0000 C   0  0  0  0  0  0  0  0  0  0  0  0
   -0.6443   -1.2473    0.0000 C   0  0  0  0  0  0  0  0  0  0  0  0
    0.0890   -0.8647    0.0000 N   0  0  0  0  0  0  0  0  0  0  0  0
    0.1129   -0.0401    0.0000 C   0  0  0  0  0  0  0  0  0  0  0  0
   -0.0059   -3.3821    0.0000 C   0  0  0  0  0  0  0  0  0  0  0  0
    0.6955   -3.8344    0.0000 C   0  0  0  0  0  0  0  0  0  0  0  0
    0.6349   -4.6572    0.0000 O   0  0  0  0  0  0  0  0  0  0  0  0
   -0.1080   -5.0161    0.0000 C   0  0  0  0  0  0  0  0  0  0  0  0
    3.8174   -4.5878    0.0000 C   0  0  0  0  0  0  0  0  0  0  0  0
    6.1550   -2.3609    0.0000 C   0  0  0  0  0  0  0  0  0  0  0  0
    6.4950   -1.5960    0.0000 C   0  0  0  0  0  0  0  0  0  0  0  0
    5.9967   -0.9257    0.0000 C   0  0  0  0  0  0  0  0  0  0  0  0
    6.3279   -0.1701    0.0000 O   0  0  0  0  0  0  0  0  0  0  0  0
    3.3044    0.6199    0.0000 C   0  0  0  0  0  0  0  0  0  0  0  0
    2.4655    0.5997    0.0000 C   0  0  0  0  0  0  0  0  0  0  0  0
    0.6114    0.1661    0.0000 H   0  0  0  0  0  0  0  0  0  0  0  0
    1.4624    0.4464    0.0000 H   0  0  0  0  0  0  0  0  0  0  0  0
    2.0119   -1.7491    0.0000 H   0  0  0  0  0  0  0  0  0  0  0  0
    3.8463   -1.7191    0.0000 H   0  0  0  0  0  0  0  0  0  0  0  0
    3.8185   -1.9053    0.0000 H   0  0  0  0  0  0  0  0  0  0  0  0
    3.8885   -2.7030    0.0000 H   0  0  0  0  0  0  0  0  0  0  0  0
    3.8210   -3.5695    0.0000 H   0  0  0  0  0  0  0  0  0  0  0  0
    6.9133   -4.1743    0.0000 H   0  0  0  0  0  0  0  0  0  0  0  0
    5.7282   -2.7493    0.0000 H   0  0  0  0  0  0  0  0  0  0  0  0
    6.7321   -3.1197    0.0000 H   0  0  0  0  0  0  0  0  0  0  0  0
    6.4465   -5.4925    0.0000 H   0  0  0  0  0  0  0  0  0  0  0  0
    5.6368   -6.1942    0.0000 H   0  0  0  0  0  0  0  0  0  0  0  0
    5.0126   -6.7339    0.0000 H   0  0  0  0  0  0  0  0  0  0  0  0
    4.0023   -6.3867    0.0000 H   0  0  0  0  0  0  0  0  0  0  0  0
    3.7036   -7.0056    0.0000 H   0  0  0  0  0  0  0  0  0  0  0  0
    1.5247   -7.9592    0.0000 H   0  0  0  0  0  0  0  0  0  0  0  0
    3.3087   -7.4569    0.0000 H   0  0  0  0  0  0  0  0  0  0  0  0
    2.5617   -8.2230    0.0000 H   0  0  0  0  0  0  0  0  0  0  0  0
   -0.0080   -5.1902    0.0000 H   0  0  0  0  0  0  0  0  0  0  0  0
    1.3463   -6.4553    0.0000 H   0  0  0  0  0  0  0  0  0  0  0  0
    0.3040   -6.2137    0.0000 H   0  0  0  0  0  0  0  0  0  0  0  0
    2.3914   -2.1687    0.0000 H   0  0  0  0  0  0  0  0  0  0  0  0
   -1.6254   -2.5673    0.0000 H   0  0  0  0  0  0  0  0  0  0  0  0
   -1.5777   -1.5037    0.0000 H   0  0  0  0  0  0  0  0  0  0  0  0
   -1.5491   -0.6762    0.0000 H   0  0  0  0  0  0  0  0  0  0  0  0
   -0.6004   -0.1782    0.0000 H   0  0  0  0  0  0  0  0  0  0  0  0
    1.0547    0.4678    0.0000 H   0  0  0  0  0  0  0  0  0  0  0  0
   -0.7979    0.5215    0.0000 H   0  0  0  0  0  0  0  0  0  0  0  0
    0.1439    1.0295    0.0000 H   0  0  0  0  0  0  0  0  0  0  0  0
   -0.9225   -3.8563    0.0000 H   0  0  0  0  0  0  0  0  0  0  0  0
   -0.9928   -4.4144    0.0000 H   0  0  0  0  0  0  0  0  0  0  0  0
   -0.1866   -6.0832    0.0000 H   0  0  0  0  0  0  0  0  0  0  0  0
   -1.0715   -5.4816    0.0000 H   0  0  0  0  0  0  0  0  0  0  0  0
    6.7823   -3.1804    0.0000 H   0  0  0  0  0  0  0  0  0  0  0  0
    7.5207   -1.4822    0.0000 H   0  0  0  0  0  0  0  0  0  0  0  0
    7.2592   -0.0668    0.0000 H   0  0  0  0  0  0  0  0  0  0  0  0
    3.7996    1.5253    0.0000 H   0  0  0  0  0  0  0  0  0  0  0  0
    1.9337    1.4841    0.0000 H   0  0  0  0  0  0  0  0  0  0  0  0
  2  1  1  6  0  0  0
  2  3  1  0  0  0  0
  2 31  1  0  0  0  0
  2 35  1  0  0  0  0
  3  4  1  0  0  0  0
  3 48  1  0  0  0  0
  3 49  1  0  0  0  0
  4  5  2  0  0  0  0
  4 47  1  0  0  0  0
  5  6  1  0  0  0  0
  5 50  1  0  0  0  0
  6  7  2  0  0  0  0
  6 51  1  0  0  0  0
  7  8  1  0  0  0  0
  7 46  1  0  0  0  0
  8  9  1  0  0  0  0
  9 10  2  0  0  0  0
  9 44  1  0  0  0  0
 10 11  1  0  0  0  0
 10 52  1  0  0  0  0
 11 12  1  0  0  0  0
 11 42  2  0  0  0  0
 12 53  1  0  0  0  0
 12 54  1  0  0  0  0
 13 12  1  0  0  0  0
 13 14  1  6  0  0  0
 13 15  1  0  0  0  0
 13 41  1  0  0  0  0
 15 16  1  0  0  0  0
 15 17  1  0  0  0  0
 16 55  1  0  0  0  0
 16 56  1  0  0  0  0
 16 57  1  0  0  0  0
 17 18  1  0  0  0  0
 17 58  1  0  0  0  0
 17 59  1  0  0  0  0
 18 19  1  0  0  0  0
 18 60  1  0  0  0  0
 18 61  1  0  0  0  0
 19 20  2  0  0  0  0
 19 41  1  0  0  0  0
 20 21  1  0  0  0  0
 20 62  1  0  0  0  0
 21 22  1  0  0  0  0
 21 24  2  0  0  0  0
 22 23  1  0  0  0  0
 23 63  1  0  0  0  0
 23 64  1  0  0  0  0
 23 65  1  0  0  0  0
 24 25  1  0  0  0  0
 24 27  1  0  0  0  0
 25 26  1  0  0  0  0
 26 66  1  0  0  0  0
 26 67  1  0  0  0  0
 26 68  1  0  0  0  0
 27 28  1  0  0  0  0
 27 41  2  0  0  0  0
 28 29  1  0  0  0  0
 29 30  2  0  0  0  0
 29 38  1  0  0  0  0
 30 31  1  0  0  0  0
 30 69  1  0  0  0  0
 31 32  2  0  0  0  0
 32 33  1  0  0  0  0
 32 37  1  0  0  0  0
 33 34  1  0  0  0  0
 33 70  1  0  0  0  0
 33 71  1  0  0  0  0
 34 35  1  0  0  0  0
 34 72  1  0  0  0  0
 34 73  1  0  0  0  0
 35 36  1  0  0  0  0
 36 74  1  0  0  0  0
 36 75  1  0  0  0  0
 36 76  1  0  0  0  0
 37 38  2  0  0  0  0
 37 77  1  0  0  0  0
 38 39  1  0  0  0  0
 39 40  1  0  0  0  0
 40 78  1  0  0  0  0
 40 79  1  0  0  0  0
 40 80  1  0  0  0  0
 42 43  1  0  0  0  0
 42 81  1  0  0  0  0
 43 44  2  0  0  0  0
 43 82  1  0  0  0  0
 44 45  1  0  0  0  0
 45 83  1  0  0  0  0
 46 47  2  0  0  0  0
 46 84  1  0  0  0  0
 47 85  1  0  0  0  0
M  END
>  <DRUGBANK_ID>
DB18146

>  <COMMON_NAME>
Berbamine

>  <CAS_NUMBER>
478-61-5

>  <UNII>
V5KM4XJ0WM

>  <SYNONYMS>
(+)-berbamine; 16h-1,24:6,9-dietheno-11,15-metheno-2h-pyrido(2',3':17,18)(1,11)dioxacycloeicosino(2,3,4-ij)isoquinolin-12-ol, 3,4,4a,5,16a,17,18,19-octahydro-21,22,26-trimethoxy-4,17-dimethyl-, (4as-(4ar*,16as*))-; 16h-1,24:6,9-dietheno-11,15-metheno-2h-pyrido(2',3':17,18)(1,11)dioxacycloeicosino(2,3,4-ij)isoquinolin-12-ol, 3,4,4a,5,16a,17,18,19-octahydro-21,22,26-trimethoxy-4,17-dimethyl-, (4as,16ar)-; 6,6',7-trimethoxy-2,2'-dimethylberbaman-12-ol; Berbaman-12-ol, 6,6',7-trimethoxy-2,2'-dimethyl-; Berbamine, (+)-; Berbenine; D-berbamine

$$$$
