246
 OpenBabel10282417072D

 49 53  0  0  0  0  0  0  0  0999 V2000
    5.8073    3.0921    0.0000 Cl  0  0  0  0  0  0  0  0  0  0  0  0
    1.6500   -1.3068    0.0000 S   0  0  0  0  0  0  0  0  0  0  0  0
   10.0379    2.2671    0.0000 O   0  0  0  0  0  0  0  0  0  0  0  0
    5.0928    0.2045    0.0000 N   0  0  0  0  0  0  0  0  0  0  0  0
    3.6638   -0.6205    0.0000 N   0  0  0  0  0  0  0  0  0  0  0  0
    2.2004   -0.6988    0.0000 N   0  0  0  0  0  0  0  0  0  0  0  0
    8.7314    2.9310    0.0000 N   0  0  0  0  0  0  0  0  0  0  0  0
    5.0928   -0.6205    0.0000 C   0  0  0  0  0  0  0  0  0  0  0  0
    4.3783    0.6170    0.0000 C   0  0  0  0  0  0  0  0  0  0  0  0
    4.3783   -1.0330    0.0000 C   0  0  0  0  0  0  0  0  0  0  0  0
    3.6638    0.2045    0.0000 C   0  0  0  0  0  0  0  0  0  0  0  0
    5.8073    0.6170    0.0000 C   0  0  0  0  0  0  0  0  0  0  0  0
    5.8073    1.4420    0.0000 C   0  0  0  0  0  0  0  0  0  0  0  0
    2.9494   -1.0330    0.0000 C   0  0  0  0  0  0  0  0  0  0  0  0
    6.5218    1.8546    0.0000 C   0  0  0  0  0  0  0  0  0  0  0  0
    2.8643   -1.8488    0.0000 C   0  0  0  0  0  0  0  0  0  0  0  0
    7.9507    1.8546    0.0000 C   0  0  0  0  0  0  0  0  0  0  0  0
    7.2362    1.4420    0.0000 C   0  0  0  0  0  0  0  0  0  0  0  0
    7.9507    2.6796    0.0000 C   0  0  0  0  0  0  0  0  0  0  0  0
    6.5218    2.6796    0.0000 C   0  0  0  0  0  0  0  0  0  0  0  0
    8.7314    1.6031    0.0000 C   0  0  0  0  0  0  0  0  0  0  0  0
    2.0570   -2.0189    0.0000 C   0  0  0  0  0  0  0  0  0  0  0  0
    7.2362    3.0921    0.0000 C   0  0  0  0  0  0  0  0  0  0  0  0
    9.2129    2.2671    0.0000 C   0  0  0  0  0  0  0  0  0  0  0  0
    3.4153   -2.4628    0.0000 C   0  0  0  0  0  0  0  0  0  0  0  0
    1.8007   -2.8031    0.0000 C   0  0  0  0  0  0  0  0  0  0  0  0
    3.1590   -3.2470    0.0000 C   0  0  0  0  0  0  0  0  0  0  0  0
    2.3517   -3.4171    0.0000 C   0  0  0  0  0  0  0  0  0  0  0  0
    9.0372    3.8668    0.0000 H   0  0  0  0  0  0  0  0  0  0  0  0
    6.0194   -1.1555    0.0000 H   0  0  0  0  0  0  0  0  0  0  0  0
    5.0928   -1.6905    0.0000 H   0  0  0  0  0  0  0  0  0  0  0  0
    4.3783    1.6870    0.0000 H   0  0  0  0  0  0  0  0  0  0  0  0
    3.4517    1.1520    0.0000 H   0  0  0  0  0  0  0  0  0  0  0  0
    4.3783   -2.1030    0.0000 H   0  0  0  0  0  0  0  0  0  0  0  0
    5.3049   -1.5680    0.0000 H   0  0  0  0  0  0  0  0  0  0  0  0
    2.7372    0.7395    0.0000 H   0  0  0  0  0  0  0  0  0  0  0  0
    3.6638    1.2745    0.0000 H   0  0  0  0  0  0  0  0  0  0  0  0
    6.7339    0.0820    0.0000 H   0  0  0  0  0  0  0  0  0  0  0  0
    6.7339    1.1520    0.0000 H   0  0  0  0  0  0  0  0  0  0  0  0
    4.8806    1.9770    0.0000 H   0  0  0  0  0  0  0  0  0  0  0  0
    5.8072    2.5120    0.0000 H   0  0  0  0  0  0  0  0  0  0  0  0
    7.2362    0.4100    0.0000 H   0  0  0  0  0  0  0  0  0  0  0  0
    9.0638    0.5860    0.0000 H   0  0  0  0  0  0  0  0  0  0  0  0
    9.7884    1.4371    0.0000 H   0  0  0  0  0  0  0  0  0  0  0  0
    7.2362    4.1241    0.0000 H   0  0  0  0  0  0  0  0  0  0  0  0
    4.4251   -2.2499    0.0000 H   0  0  0  0  0  0  0  0  0  0  0  0
    0.7909   -3.0160    0.0000 H   0  0  0  0  0  0  0  0  0  0  0  0
    3.8482   -4.0151    0.0000 H   0  0  0  0  0  0  0  0  0  0  0  0
    2.0311   -4.3980    0.0000 H   0  0  0  0  0  0  0  0  0  0  0  0
  1 20  1  0  0  0  0
  2  6  1  0  0  0  0
  2 22  1  0  0  0  0
  3 24  2  0  0  0  0
  4  8  1  0  0  0  0
  4  9  1  0  0  0  0
  4 12  1  0  0  0  0
  5 10  1  0  0  0  0
  5 11  1  0  0  0  0
  5 14  1  0  0  0  0
  6 14  2  0  0  0  0
  7 19  1  0  0  0  0
  7 24  1  0  0  0  0
  7 29  1  0  0  0  0
  8 10  1  0  0  0  0
  8 30  1  0  0  0  0
  8 31  1  0  0  0  0
  9 11  1  0  0  0  0
  9 32  1  0  0  0  0
  9 33  1  0  0  0  0
 10 34  1  0  0  0  0
 10 35  1  0  0  0  0
 11 36  1  0  0  0  0
 11 37  1  0  0  0  0
 12 13  1  0  0  0  0
 12 38  1  0  0  0  0
 12 39  1  0  0  0  0
 13 15  1  0  0  0  0
 13 40  1  0  0  0  0
 13 41  1  0  0  0  0
 14 16  1  0  0  0  0
 15 18  1  0  0  0  0
 15 20  2  0  0  0  0
 16 22  1  0  0  0  0
 16 25  2  0  0  0  0
 17 18  2  0  0  0  0
 17 19  1  0  0  0  0
 17 21  1  0  0  0  0
 18 42  1  0  0  0  0
 19 23  2  0  0  0  0
 20 23  1  0  0  0  0
 21 24  1  0  0  0  0
 21 43  1  0  0  0  0
 21 44  1  0  0  0  0
 22 26  2  0  0  0  0
 23 45  1  0  0  0  0
 25 27  1  0  0  0  0
 25 46  1  0  0  0  0
 26 28  1  0  0  0  0
 26 47  1  0  0  0  0
 27 28  2  0  0  0  0
 27 48  1  0  0  0  0
 28 49  1  0  0  0  0
M  END
>  <DRUGBANK_ID>
DB00246

>  <SECONDARY_ACCESSION_NUMBERS>
APRD00540

>  <COMMON_NAME>
Ziprasidone

>  <CAS_NUMBER>
146939-27-7

>  <UNII>
6UKA5VEJ6X

>  <SYNONYMS>
Ziprasidona; Ziprasidone; Ziprasidonum

$$$$
