
 OpenBabel10282417072D

 45 44  0  0  0  0  0  0  0  0999 V2000
    7.9480    5.4138    0.0000 O   0  0  0  0  0  0  0  0  0  0  0  0
    8.6625    5.0013    0.0000 C   0  0  0  0  0  0  0  0  0  0  0  0
    9.3770    5.4138    0.0000 C   0  0  0  0  0  0  0  0  0  0  0  0
   10.0914    5.0013    0.0000 N   0  0  0  0  0  0  0  0  0  0  0  0
   10.8059    5.4138    0.0000 C   0  0  0  0  0  0  0  0  0  0  0  0
   10.8059    6.2388    0.0000 O   0  0  0  0  0  0  0  0  0  0  0  0
   11.5204    5.0013    0.0000 C   0  0  0  0  0  0  0  0  0  0  0  0
   12.2349    5.4138    0.0000 C   0  0  0  0  0  0  0  0  0  0  0  0
   12.9493    5.0013    0.0000 C   0  0  0  0  0  0  0  0  0  0  0  0
   13.6638    5.4138    0.0000 C   0  0  0  0  0  0  0  0  0  0  0  0
   14.3783    5.0013    0.0000 C   0  0  0  0  0  0  0  0  0  0  0  0
   15.0927    5.4138    0.0000 C   0  0  0  0  0  0  0  0  0  0  0  0
   15.8072    5.0013    0.0000 C   0  0  0  0  0  0  0  0  0  0  0  0
   16.5217    5.4138    0.0000 C   0  0  0  0  0  0  0  0  0  0  0  0
   16.5217    6.2388    0.0000 O   0  0  0  0  0  0  0  0  0  0  0  0
   17.2362    5.0013    0.0000 N   0  0  0  0  0  0  0  0  0  0  0  0
   17.9506    5.4138    0.0000 C   0  0  0  0  0  0  0  0  0  0  0  0
   18.6651    5.0013    0.0000 C   0  0  0  0  0  0  0  0  0  0  0  0
   19.3796    5.4138    0.0000 O   0  0  0  0  0  0  0  0  0  0  0  0
    7.9480    6.3838    0.0000 H   0  0  0  0  0  0  0  0  0  0  0  0
    8.6625    3.9313    0.0000 H   0  0  0  0  0  0  0  0  0  0  0  0
    9.5891    4.4663    0.0000 H   0  0  0  0  0  0  0  0  0  0  0  0
    9.3770    6.4838    0.0000 H   0  0  0  0  0  0  0  0  0  0  0  0
   10.3037    5.9488    0.0000 H   0  0  0  0  0  0  0  0  0  0  0  0
   10.0914    4.0168    0.0000 H   0  0  0  0  0  0  0  0  0  0  0  0
   11.5204    3.9313    0.0000 H   0  0  0  0  0  0  0  0  0  0  0  0
   12.4470    4.4663    0.0000 H   0  0  0  0  0  0  0  0  0  0  0  0
   12.2349    6.4838    0.0000 H   0  0  0  0  0  0  0  0  0  0  0  0
   13.1616    5.9488    0.0000 H   0  0  0  0  0  0  0  0  0  0  0  0
   12.9493    3.9313    0.0000 H   0  0  0  0  0  0  0  0  0  0  0  0
   13.8759    4.4663    0.0000 H   0  0  0  0  0  0  0  0  0  0  0  0
   13.6638    6.4838    0.0000 H   0  0  0  0  0  0  0  0  0  0  0  0
   14.5904    5.9488    0.0000 H   0  0  0  0  0  0  0  0  0  0  0  0
   14.3783    3.9313    0.0000 H   0  0  0  0  0  0  0  0  0  0  0  0
   15.3050    4.4663    0.0000 H   0  0  0  0  0  0  0  0  0  0  0  0
   15.0927    6.4838    0.0000 H   0  0  0  0  0  0  0  0  0  0  0  0
   16.0193    5.9488    0.0000 H   0  0  0  0  0  0  0  0  0  0  0  0
   15.8072    3.9313    0.0000 H   0  0  0  0  0  0  0  0  0  0  0  0
   16.7338    4.4663    0.0000 H   0  0  0  0  0  0  0  0  0  0  0  0
   17.2362    4.0168    0.0000 H   0  0  0  0  0  0  0  0  0  0  0  0
   17.9506    6.4838    0.0000 H   0  0  0  0  0  0  0  0  0  0  0  0
   18.8772    5.9488    0.0000 H   0  0  0  0  0  0  0  0  0  0  0  0
   18.6651    3.9313    0.0000 H   0  0  0  0  0  0  0  0  0  0  0  0
   19.5917    4.4663    0.0000 H   0  0  0  0  0  0  0  0  0  0  0  0
   20.2196    4.9288    0.0000 H   0  0  0  0  0  0  0  0  0  0  0  0
  1  2  1  0  0  0  0
  1 20  1  0  0  0  0
  2  3  1  0  0  0  0
  2 21  1  0  0  0  0
  2 22  1  0  0  0  0
  3  4  1  0  0  0  0
  3 23  1  0  0  0  0
  3 24  1  0  0  0  0
  4  5  1  0  0  0  0
  4 25  1  0  0  0  0
  5  6  2  0  0  0  0
  5  7  1  0  0  0  0
  7  8  1  0  0  0  0
  7 26  1  0  0  0  0
  7 27  1  0  0  0  0
  8  9  1  0  0  0  0
  8 28  1  0  0  0  0
  8 29  1  0  0  0  0
  9 10  1  0  0  0  0
  9 30  1  0  0  0  0
  9 31  1  0  0  0  0
 10 11  1  0  0  0  0
 10 32  1  0  0  0  0
 10 33  1  0  0  0  0
 11 12  1  0  0  0  0
 11 34  1  0  0  0  0
 11 35  1  0  0  0  0
 12 13  1  0  0  0  0
 12 36  1  0  0  0  0
 12 37  1  0  0  0  0
 13 14  1  0  0  0  0
 13 38  1  0  0  0  0
 13 39  1  0  0  0  0
 14 15  2  0  0  0  0
 14 16  1  0  0  0  0
 16 17  1  0  0  0  0
 16 40  1  0  0  0  0
 17 18  1  0  0  0  0
 17 41  1  0  0  0  0
 17 42  1  0  0  0  0
 18 19  1  0  0  0  0
 18 43  1  0  0  0  0
 18 44  1  0  0  0  0
 19 45  1  0  0  0  0
M  END
>  <DRUGBANK_ID>
DB16083

>  <COMMON_NAME>
Adelmidrol

>  <CAS_NUMBER>
1675-66-7

>  <UNII>
1BUC3685QU

>  <SYNONYMS>
Adelmidrol

$$$$
