IOE
 OpenBabel10282417072D

 34 35  0  0  0  0  0  0  0  0999 V2000
    0.7066   -0.5960    0.0000 C   0  0  0  0  0  0  0  0  0  0  0  0
    1.4211   -1.0085    0.0000 C   0  0  0  0  0  0  0  0  0  0  0  0
    1.4211   -1.8335    0.0000 C   0  0  0  0  0  0  0  0  0  0  0  0
    0.7066   -2.2460    0.0000 C   0  0  0  0  0  0  0  0  0  0  0  0
   -0.0078   -1.8335    0.0000 C   0  0  0  0  0  0  0  0  0  0  0  0
   -0.0078   -1.0085    0.0000 C   0  0  0  0  0  0  0  0  0  0  0  0
   -0.7223   -0.5960    0.0000 C   0  0  0  0  0  0  0  0  0  0  0  0
   -1.4368   -1.0085    0.0000 O   0  0  0  0  0  0  0  0  0  0  0  0
   -0.7223    0.2290    0.0000 N   0  0  0  0  0  0  0  0  0  0  0  0
   -1.4368    0.6415    0.0000 C   0  0  0  0  0  0  0  0  0  0  0  0
    2.1356   -2.2460    0.0000 S   0  0  0  0  0  0  0  0  0  0  0  0
    2.8500   -2.6585    0.0000 N   0  0  0  0  0  0  0  0  0  0  0  0
    2.5481   -1.5316    0.0000 O   0  0  0  0  0  0  0  0  0  0  0  0
    1.7231   -2.9605    0.0000 O   0  0  0  0  0  0  0  0  0  0  0  0
   -1.4368    1.4665    0.0000 C   0  0  0  0  0  0  0  0  0  0  0  0
   -2.1513    1.8790    0.0000 C   0  0  0  0  0  0  0  0  0  0  0  0
   -2.1513    2.7040    0.0000 C   0  0  0  0  0  0  0  0  0  0  0  0
   -1.4368    3.1165    0.0000 C   0  0  0  0  0  0  0  0  0  0  0  0
   -0.7223    2.7040    0.0000 C   0  0  0  0  0  0  0  0  0  0  0  0
   -0.7223    1.8790    0.0000 C   0  0  0  0  0  0  0  0  0  0  0  0
   -0.0078    1.4665    0.0000 F   0  0  0  0  0  0  0  0  0  0  0  0
   -1.4368    3.9415    0.0000 F   0  0  0  0  0  0  0  0  0  0  0  0
   -2.8657    1.4665    0.0000 F   0  0  0  0  0  0  0  0  0  0  0  0
    0.7066    0.4360    0.0000 H   0  0  0  0  0  0  0  0  0  0  0  0
    2.3148   -0.4925    0.0000 H   0  0  0  0  0  0  0  0  0  0  0  0
    0.7066   -3.2780    0.0000 H   0  0  0  0  0  0  0  0  0  0  0  0
   -0.9015   -2.3495    0.0000 H   0  0  0  0  0  0  0  0  0  0  0  0
    0.1303    0.7213    0.0000 H   0  0  0  0  0  0  0  0  0  0  0  0
   -2.3634    0.1065    0.0000 H   0  0  0  0  0  0  0  0  0  0  0  0
   -2.3634    1.1765    0.0000 H   0  0  0  0  0  0  0  0  0  0  0  0
    2.8500   -3.6785    0.0000 H   0  0  0  0  0  0  0  0  0  0  0  0
    3.7334   -2.1485    0.0000 H   0  0  0  0  0  0  0  0  0  0  0  0
   -3.0450    3.2200    0.0000 H   0  0  0  0  0  0  0  0  0  0  0  0
    0.1714    3.2200    0.0000 H   0  0  0  0  0  0  0  0  0  0  0  0
  1  2  2  0  0  0  0
  1  6  1  0  0  0  0
  1 24  1  0  0  0  0
  2  3  1  0  0  0  0
  2 25  1  0  0  0  0
  3  4  2  0  0  0  0
  3 11  1  0  0  0  0
  4  5  1  0  0  0  0
  4 26  1  0  0  0  0
  5  6  2  0  0  0  0
  5 27  1  0  0  0  0
  6  7  1  0  0  0  0
  7  8  2  0  0  0  0
  7  9  1  0  0  0  0
  9 10  1  0  0  0  0
  9 28  1  0  0  0  0
 10 15  1  0  0  0  0
 10 29  1  0  0  0  0
 10 30  1  0  0  0  0
 11 12  1  0  0  0  0
 11 13  2  0  0  0  0
 11 14  2  0  0  0  0
 12 31  1  0  0  0  0
 12 32  1  0  0  0  0
 15 16  2  0  0  0  0
 15 20  1  0  0  0  0
 16 17  1  0  0  0  0
 16 23  1  0  0  0  0
 17 18  2  0  0  0  0
 17 33  1  0  0  0  0
 18 19  1  0  0  0  0
 18 22  1  0  0  0  0
 19 20  2  0  0  0  0
 19 34  1  0  0  0  0
 20 21  1  0  0  0  0
M  END
>  <DRUGBANK_ID>
DB02221

>  <SECONDARY_ACCESSION_NUMBERS>
EXPT01903

>  <COMMON_NAME>
4-(Aminosulfonyl)-N-[(2,4,6-Trifluorophenyl)Methyl]-Benzamide

$$$$
