
 OpenBabel10282417072D

  9  9  0  0  0  0  0  0  0  0999 V2000
    0.0000    0.3572    0.0000 C   0  0  0  0  0  0  0  0  0  0  0  0
    0.4125   -0.3572    0.0000 C   0  0  0  0  0  0  0  0  0  0  0  0
   -0.4125   -0.3572    0.0000 C   0  0  0  0  0  0  0  0  0  0  0  0
    0.0000    1.4272    0.0000 H   0  0  0  0  0  0  0  0  0  0  0  0
   -1.0335    0.6342    0.0000 H   0  0  0  0  0  0  0  0  0  0  0  0
    1.3392   -0.8922    0.0000 H   0  0  0  0  0  0  0  0  0  0  0  0
    0.1356   -1.3907    0.0000 H   0  0  0  0  0  0  0  0  0  0  0  0
   -1.3392   -0.8922    0.0000 H   0  0  0  0  0  0  0  0  0  0  0  0
   -1.1691    0.3994    0.0000 H   0  0  0  0  0  0  0  0  0  0  0  0
  1  2  1  0  0  0  0
  1  3  1  0  0  0  0
  1  4  1  0  0  0  0
  1  5  1  0  0  0  0
  2  3  1  0  0  0  0
  2  6  1  0  0  0  0
  2  7  1  0  0  0  0
  3  8  1  0  0  0  0
  3  9  1  0  0  0  0
M  END
>  <DRUGBANK_ID>
DB13984

>  <COMMON_NAME>
Cyclopropane

>  <CAS_NUMBER>
75-19-4

>  <UNII>
99TB643425

>  <SYNONYMS>
Ciclopropano; Cyclopropan; Cyclopropane; Cyclopropanum; Trimethylene; Zyklopropan

$$$$
