1425
 OpenBabel10282417072D

 44 46  0  0  1  0  0  0  0  0999 V2000
    4.4999   -0.8410    0.0000 O   0  0  0  0  0  0  0  0  0  0  0  0
    5.2144   -2.0786    0.0000 O   0  0  0  0  0  0  0  0  0  0  0  0
    3.8325    2.1190    0.0000 N   0  0  0  0  0  0  0  0  0  0  0  0
    5.2144    0.3965    0.0000 N   0  0  0  0  0  0  0  0  0  0  0  0
    8.1385   -0.5896    0.0000 N   0  0  0  0  0  0  0  0  0  0  0  0
    8.1385   -1.9175    0.0000 N   0  0  0  0  0  0  0  0  0  0  0  0
    8.6200   -1.2535    0.0000 N   0  0  0  0  0  0  0  0  0  0  0  0
    4.4999    1.6340    0.0000 C   0  0  3  0  0  0  0  0  0  0  0  0
    5.1673    2.1190    0.0000 C   0  0  0  0  0  0  0  0  0  0  0  0
    4.9124    2.9036    0.0000 C   0  0  0  0  0  0  0  0  0  0  0  0
    4.0874    2.9036    0.0000 C   0  0  0  0  0  0  0  0  0  0  0  0
    4.4999    0.8090    0.0000 C   0  0  0  0  0  0  0  0  0  0  0  0
    3.0478    1.8640    0.0000 C   0  0  0  0  0  0  0  0  0  0  0  0
    2.4347    2.4161    0.0000 C   0  0  0  0  0  0  0  0  0  0  0  0
    5.2144   -0.4285    0.0000 C   0  0  0  0  0  0  0  0  0  0  0  0
    5.9288   -0.8410    0.0000 C   0  0  0  0  0  0  0  0  0  0  0  0
    1.6500    2.1611    0.0000 C   0  0  0  0  0  0  0  0  0  0  0  0
    5.9288   -1.6660    0.0000 C   0  0  0  0  0  0  0  0  0  0  0  0
    6.6434   -0.4285    0.0000 C   0  0  0  0  0  0  0  0  0  0  0  0
    7.3578   -0.8410    0.0000 C   0  0  0  0  0  0  0  0  0  0  0  0
    6.6434   -2.0786    0.0000 C   0  0  0  0  0  0  0  0  0  0  0  0
    7.3578   -1.6660    0.0000 C   0  0  0  0  0  0  0  0  0  0  0  0
    5.2144   -2.9036    0.0000 C   0  0  0  0  0  0  0  0  0  0  0  0
    6.0670    0.8888    0.0000 H   0  0  0  0  0  0  0  0  0  0  0  0
    9.6045   -1.2535    0.0000 H   0  0  0  0  0  0  0  0  0  0  0  0
    4.4999    2.7040    0.0000 H   0  0  0  0  0  0  0  0  0  0  0  0
    6.1849    1.7884    0.0000 H   0  0  0  0  0  0  0  0  0  0  0  0
    5.9239    2.8756    0.0000 H   0  0  0  0  0  0  0  0  0  0  0  0
    5.5413    3.7692    0.0000 H   0  0  0  0  0  0  0  0  0  0  0  0
    4.4266    3.8570    0.0000 H   0  0  0  0  0  0  0  0  0  0  0  0
    3.4585    3.7692    0.0000 H   0  0  0  0  0  0  0  0  0  0  0  0
    4.5732    3.8570    0.0000 H   0  0  0  0  0  0  0  0  0  0  0  0
    3.5733    0.2740    0.0000 H   0  0  0  0  0  0  0  0  0  0  0  0
    3.5733    1.3440    0.0000 H   0  0  0  0  0  0  0  0  0  0  0  0
    2.8253    0.8174    0.0000 H   0  0  0  0  0  0  0  0  0  0  0  0
    2.0302    1.5334    0.0000 H   0  0  0  0  0  0  0  0  0  0  0  0
    2.6493    3.4255    0.0000 H   0  0  0  0  0  0  0  0  0  0  0  0
    0.8830    2.8516    0.0000 H   0  0  0  0  0  0  0  0  0  0  0  0
    1.4355    1.1516    0.0000 H   0  0  0  0  0  0  0  0  0  0  0  0
    6.6435    0.6035    0.0000 H   0  0  0  0  0  0  0  0  0  0  0  0
    6.6435   -3.1106    0.0000 H   0  0  0  0  0  0  0  0  0  0  0  0
    4.2878   -3.4386    0.0000 H   0  0  0  0  0  0  0  0  0  0  0  0
    6.1410   -3.4386    0.0000 H   0  0  0  0  0  0  0  0  0  0  0  0
    5.2144   -3.9736    0.0000 H   0  0  0  0  0  0  0  0  0  0  0  0
  1 15  2  0  0  0  0
  2 18  1  0  0  0  0
  2 23  1  0  0  0  0
  3  8  1  0  0  0  0
  3 11  1  0  0  0  0
  3 13  1  0  0  0  0
  4 12  1  0  0  0  0
  4 15  1  0  0  0  0
  4 24  1  0  0  0  0
  5  7  1  0  0  0  0
  5 20  2  0  0  0  0
  6  7  1  0  0  0  0
  6 22  2  0  0  0  0
  7 25  1  0  0  0  0
  8  9  1  0  0  0  0
  8 12  1  0  0  0  0
  8 26  1  0  0  0  0
  9 10  1  0  0  0  0
  9 27  1  0  0  0  0
  9 28  1  0  0  0  0
 10 11  1  0  0  0  0
 10 29  1  0  0  0  0
 10 30  1  0  0  0  0
 11 31  1  0  0  0  0
 11 32  1  0  0  0  0
 12 33  1  0  0  0  0
 12 34  1  0  0  0  0
 13 14  1  0  0  0  0
 13 35  1  0  0  0  0
 13 36  1  0  0  0  0
 14 17  2  0  0  0  0
 14 37  1  0  0  0  0
 15 16  1  0  0  0  0
 16 18  1  0  0  0  0
 16 19  2  0  0  0  0
 17 38  1  0  0  0  0
 17 39  1  0  0  0  0
 18 21  2  0  0  0  0
 19 20  1  0  0  0  0
 19 40  1  0  0  0  0
 20 22  1  0  0  0  0
 21 22  1  0  0  0  0
 21 41  1  0  0  0  0
 23 42  1  0  0  0  0
 23 43  1  0  0  0  0
 23 44  1  0  0  0  0
M  END
>  <DRUGBANK_ID>
DB01425

>  <COMMON_NAME>
Alizapride

>  <CAS_NUMBER>
59338-93-1

>  <UNII>
P55703ZRZY

>  <SYNONYMS>
Alizaprida; Alizapride; Alizapridum

$$$$
