
 OpenBabel10282417072D

 67 68  0  0  1  0  0  0  0  0999 V2000
    5.0771   -5.2722    0.0000 C   0  0  0  0  0  0  0  0  0  0  0  0
    4.3626   -4.8597    0.0000 C   0  0  0  0  0  0  0  0  0  0  0  0
    3.6481   -5.2722    0.0000 C   0  0  0  0  0  0  0  0  0  0  0  0
    4.3626   -4.0347    0.0000 C   0  0  1  0  0  0  0  0  0  0  0  0
    3.6481   -3.6222    0.0000 N   0  0  0  0  0  0  0  0  0  0  0  0
    2.9337   -4.0347    0.0000 C   0  0  0  0  0  0  0  0  0  0  0  0
    2.9337   -4.8597    0.0000 O   0  0  0  0  0  0  0  0  0  0  0  0
    2.2192   -3.6222    0.0000 N   0  0  0  0  0  0  0  0  0  0  0  0
    2.2192   -2.7972    0.0000 C   0  0  0  0  0  0  0  0  0  0  0  0
    2.9337   -2.3847    0.0000 C   0  0  0  0  0  0  0  0  0  0  0  0
    3.6481   -1.9722    0.0000 C   0  0  0  0  0  0  0  0  0  0  0  0
    2.5212   -1.6702    0.0000 C   0  0  0  0  0  0  0  0  0  0  0  0
    3.3462   -3.0992    0.0000 O   0  0  0  0  0  0  0  0  0  0  0  0
    5.0771   -3.6222    0.0000 C   0  0  0  0  0  0  0  0  0  0  0  0
    5.0771   -2.7972    0.0000 O   0  0  0  0  0  0  0  0  0  0  0  0
    5.7915   -4.0347    0.0000 N   0  0  0  0  0  0  0  0  0  0  0  0
    6.5060   -3.6222    0.0000 C   0  0  0  0  0  0  0  0  0  0  0  0
    7.2205   -4.0347    0.0000 C   0  0  0  0  0  0  0  0  0  0  0  0
    7.2205   -4.8597    0.0000 C   0  0  2  0  0  0  0  0  0  0  0  0
    8.0330   -4.7164    0.0000 O   0  0  0  0  0  0  0  0  0  0  0  0
    7.5027   -5.6349    0.0000 C   0  0  0  0  0  0  0  0  0  0  0  0
    8.3151   -5.7782    0.0000 C   0  0  0  0  0  0  0  0  0  0  0  0
    8.5973   -6.5534    0.0000 C   0  0  0  0  0  0  0  0  0  0  0  0
    8.0670   -7.1854    0.0000 C   0  0  0  0  0  0  0  0  0  0  0  0
    8.3492   -7.9607    0.0000 Cl  0  0  0  0  0  0  0  0  0  0  0  0
    7.2545   -7.0422    0.0000 C   0  0  0  0  0  0  0  0  0  0  0  0
    6.9724   -6.2669    0.0000 C   0  0  0  0  0  0  0  0  0  0  0  0
    6.5060   -5.2722    0.0000 C   0  0  0  0  0  0  0  0  0  0  0  0
    7.0363   -5.9042    0.0000 C   0  0  0  0  0  0  0  0  0  0  0  0
    5.9757   -5.9042    0.0000 C   0  0  0  0  0  0  0  0  0  0  0  0
    5.7915   -4.8597    0.0000 C   0  0  0  0  0  0  0  0  0  0  0  0
    5.0771   -6.3422    0.0000 H   0  0  0  0  0  0  0  0  0  0  0  0
    6.0037   -4.7372    0.0000 H   0  0  0  0  0  0  0  0  0  0  0  0
    6.0038   -5.8072    0.0000 H   0  0  0  0  0  0  0  0  0  0  0  0
    3.4360   -4.3247    0.0000 H   0  0  0  0  0  0  0  0  0  0  0  0
    2.7215   -4.7372    0.0000 H   0  0  0  0  0  0  0  0  0  0  0  0
    3.6481   -6.3422    0.0000 H   0  0  0  0  0  0  0  0  0  0  0  0
    2.7214   -5.8072    0.0000 H   0  0  0  0  0  0  0  0  0  0  0  0
    3.4360   -4.5697    0.0000 H   0  0  0  0  0  0  0  0  0  0  0  0
    3.6481   -2.6377    0.0000 H   0  0  0  0  0  0  0  0  0  0  0  0
    1.3666   -4.1145    0.0000 H   0  0  0  0  0  0  0  0  0  0  0  0
    1.2926   -2.2622    0.0000 H   0  0  0  0  0  0  0  0  0  0  0  0
    2.2192   -1.7272    0.0000 H   0  0  0  0  0  0  0  0  0  0  0  0
    4.5748   -2.5072    0.0000 H   0  0  0  0  0  0  0  0  0  0  0  0
    3.6481   -0.9022    0.0000 H   0  0  0  0  0  0  0  0  0  0  0  0
    4.5747   -1.4372    0.0000 H   0  0  0  0  0  0  0  0  0  0  0  0
    3.0562   -0.7436    0.0000 H   0  0  0  0  0  0  0  0  0  0  0  0
    1.4512   -1.6702    0.0000 H   0  0  0  0  0  0  0  0  0  0  0  0
    1.9862   -0.7435    0.0000 H   0  0  0  0  0  0  0  0  0  0  0  0
    2.8612   -3.9392    0.0000 H   0  0  0  0  0  0  0  0  0  0  0  0
    6.5060   -2.5522    0.0000 H   0  0  0  0  0  0  0  0  0  0  0  0
    7.4326   -3.0872    0.0000 H   0  0  0  0  0  0  0  0  0  0  0  0
    8.1471   -3.4997    0.0000 H   0  0  0  0  0  0  0  0  0  0  0  0
    8.1471   -4.5697    0.0000 H   0  0  0  0  0  0  0  0  0  0  0  0
    8.6565   -5.4594    0.0000 H   0  0  0  0  0  0  0  0  0  0  0  0
    8.9785   -4.9876    0.0000 H   0  0  0  0  0  0  0  0  0  0  0  0
    9.6136   -6.7326    0.0000 H   0  0  0  0  0  0  0  0  0  0  0  0
    6.5911   -7.8328    0.0000 H   0  0  0  0  0  0  0  0  0  0  0  0
    5.9561   -6.0877    0.0000 H   0  0  0  0  0  0  0  0  0  0  0  0
    6.6703   -6.9097    0.0000 H   0  0  0  0  0  0  0  0  0  0  0  0
    8.0900   -5.7184    0.0000 H   0  0  0  0  0  0  0  0  0  0  0  0
    7.7241   -6.7239    0.0000 H   0  0  0  0  0  0  0  0  0  0  0  0
    4.9220   -5.7184    0.0000 H   0  0  0  0  0  0  0  0  0  0  0  0
    6.3417   -6.9097    0.0000 H   0  0  0  0  0  0  0  0  0  0  0  0
    5.2879   -6.7239    0.0000 H   0  0  0  0  0  0  0  0  0  0  0  0
    4.8649   -5.3947    0.0000 H   0  0  0  0  0  0  0  0  0  0  0  0
    4.8649   -4.3247    0.0000 H   0  0  0  0  0  0  0  0  0  0  0  0
  1  2  1  0  0  0  0
  1 32  1  0  0  0  0
  1 33  1  0  0  0  0
  1 34  1  0  0  0  0
  2  3  1  0  0  0  0
  2 35  1  0  0  0  0
  3 36  1  0  0  0  0
  3 37  1  0  0  0  0
  3 38  1  0  0  0  0
  4  2  1  0  0  0  0
  4  5  1  0  0  0  0
  4 14  1  0  0  0  0
  4 39  1  6  0  0  0
  5  6  1  0  0  0  0
  5 40  1  0  0  0  0
  6  7  2  0  0  0  0
  6  8  1  0  0  0  0
  8  9  1  0  0  0  0
  8 41  1  0  0  0  0
  9 10  1  0  0  0  0
  9 42  1  0  0  0  0
  9 43  1  0  0  0  0
 10 11  1  0  0  0  0
 10 12  1  0  0  0  0
 10 13  1  0  0  0  0
 11 44  1  0  0  0  0
 11 45  1  0  0  0  0
 11 46  1  0  0  0  0
 12 47  1  0  0  0  0
 12 48  1  0  0  0  0
 12 49  1  0  0  0  0
 13 50  1  0  0  0  0
 14 15  2  0  0  0  0
 14 16  1  0  0  0  0
 16 17  1  0  0  0  0
 16 31  1  0  0  0  0
 17 18  1  0  0  0  0
 17 51  1  0  0  0  0
 17 52  1  0  0  0  0
 18 53  1  0  0  0  0
 18 54  1  0  0  0  0
 19 18  1  0  0  0  0
 19 20  1  1  0  0  0
 19 21  1  0  0  0  0
 19 28  1  0  0  0  0
 20 55  1  0  0  0  0
 21 22  2  0  0  0  0
 21 27  1  0  0  0  0
 22 23  1  0  0  0  0
 22 56  1  0  0  0  0
 23 24  2  0  0  0  0
 23 57  1  0  0  0  0
 24 25  1  0  0  0  0
 24 26  1  0  0  0  0
 26 27  2  0  0  0  0
 26 58  1  0  0  0  0
 27 59  1  0  0  0  0
 28 29  1  0  0  0  0
 28 30  1  0  0  0  0
 28 31  1  0  0  0  0
 29 60  1  0  0  0  0
 29 61  1  0  0  0  0
 29 62  1  0  0  0  0
 30 63  1  0  0  0  0
 30 64  1  0  0  0  0
 30 65  1  0  0  0  0
 31 66  1  0  0  0  0
 31 67  1  0  0  0  0
M  END
>  <DRUGBANK_ID>
DB14941

>  <COMMON_NAME>
BMS-817399

>  <CAS_NUMBER>
1202400-18-7

>  <UNII>
AKQ3X6FEH0

$$$$
