
 OpenBabel10282417072D

 49 51  0  0  0  0  0  0  0  0999 V2000
   -2.2334   -0.5317    0.0000 O   0  0  0  0  0  0  0  0  0  0  0  0
   -2.2334    0.8032    0.0000 O   0  0  0  0  0  0  0  0  0  0  0  0
    1.9641   -0.5787    0.0000 O   0  0  0  0  0  0  0  0  0  0  0  0
   -4.4393   -0.4261    0.0000 O   0  0  0  0  0  0  0  0  0  0  0  0
    3.2017    0.1357    0.0000 O   0  0  0  0  0  0  0  0  0  0  0  0
    2.7892    0.8502    0.0000 N   0  0  0  0  0  0  0  0  0  0  0  0
    2.7892    2.2793    0.0000 N   0  0  0  0  0  0  0  0  0  0  0  0
    4.0268    1.5647    0.0000 N   0  0  0  0  0  0  0  0  0  0  0  0
    3.2017   -2.7222    0.0000 N   0  0  0  0  0  0  0  0  0  0  0  0
   -3.0181   -0.2767    0.0000 C   0  0  1  0  0  0  0  0  0  0  0  0
   -3.0181    0.5482    0.0000 C   0  0  0  0  0  0  0  0  0  0  0  0
    1.5516    0.1357    0.0000 C   0  0  2  0  0  0  0  0  0  0  0  0
    0.7266    0.1357    0.0000 C   0  0  0  0  0  0  0  0  0  0  0  0
   -0.9234    0.1357    0.0000 C   0  0  0  0  0  0  0  0  0  0  0  0
   -3.6856   -0.7617    0.0000 C   0  0  0  0  0  0  0  0  0  0  0  0
    0.3140    0.8502    0.0000 C   0  0  0  0  0  0  0  0  0  0  0  0
    0.3140   -0.5787    0.0000 C   0  0  0  0  0  0  0  0  0  0  0  0
   -0.5109    0.8502    0.0000 C   0  0  0  0  0  0  0  0  0  0  0  0
   -0.5109   -0.5787    0.0000 C   0  0  0  0  0  0  0  0  0  0  0  0
    1.9641    0.8502    0.0000 C   0  0  0  0  0  0  0  0  0  0  0  0
    2.7892   -0.5787    0.0000 C   0  0  0  0  0  0  0  0  0  0  0  0
    3.2017   -1.2933    0.0000 C   0  0  0  0  0  0  0  0  0  0  0  0
    3.2017    1.5647    0.0000 C   0  0  0  0  0  0  0  0  0  0  0  0
    4.0268   -1.2933    0.0000 C   0  0  0  0  0  0  0  0  0  0  0  0
    2.7892   -2.0077    0.0000 C   0  0  0  0  0  0  0  0  0  0  0  0
    4.4393   -2.0077    0.0000 C   0  0  0  0  0  0  0  0  0  0  0  0
    4.0268   -2.7222    0.0000 C   0  0  0  0  0  0  0  0  0  0  0  0
   -1.7485    0.1357    0.0000 B   0  0  0  0  0  0  0  0  0  0  0  0
    2.2777    2.2793    0.0000 H   0  0  0  0  0  0  0  0  0  0  0  0
    3.0450    2.7222    0.0000 H   0  0  0  0  0  0  0  0  0  0  0  0
    4.2825    1.1217    0.0000 H   0  0  0  0  0  0  0  0  0  0  0  0
    4.2825    2.0077    0.0000 H   0  0  0  0  0  0  0  0  0  0  0  0
   -4.5407    0.5386    0.0000 H   0  0  0  0  0  0  0  0  0  0  0  0
   -2.8507   -1.3335    0.0000 H   0  0  0  0  0  0  0  0  0  0  0  0
   -3.8838    1.1771    0.0000 H   0  0  0  0  0  0  0  0  0  0  0  0
   -3.9715    0.0624    0.0000 H   0  0  0  0  0  0  0  0  0  0  0  0
    1.0166   -0.7910    0.0000 H   0  0  0  0  0  0  0  0  0  0  0  0
   -3.5738   -1.8258    0.0000 H   0  0  0  0  0  0  0  0  0  0  0  0
   -2.7081   -1.1969    0.0000 H   0  0  0  0  0  0  0  0  0  0  0  0
    0.8300    1.7440    0.0000 H   0  0  0  0  0  0  0  0  0  0  0  0
    0.8299   -1.4725    0.0000 H   0  0  0  0  0  0  0  0  0  0  0  0
   -1.0269    1.7439    0.0000 H   0  0  0  0  0  0  0  0  0  0  0  0
   -1.0269   -1.4724    0.0000 H   0  0  0  0  0  0  0  0  0  0  0  0
    1.4291    1.7768    0.0000 H   0  0  0  0  0  0  0  0  0  0  0  0
    0.8941    0.8502    0.0000 H   0  0  0  0  0  0  0  0  0  0  0  0
    4.5428   -0.3996    0.0000 H   0  0  0  0  0  0  0  0  0  0  0  0
    1.7572   -2.0077    0.0000 H   0  0  0  0  0  0  0  0  0  0  0  0
    5.4713   -2.0077    0.0000 H   0  0  0  0  0  0  0  0  0  0  0  0
    4.5428   -3.6159    0.0000 H   0  0  0  0  0  0  0  0  0  0  0  0
  1 10  1  0  0  0  0
  1 28  1  0  0  0  0
  2 11  1  0  0  0  0
  2 28  1  0  0  0  0
  3 21  1  0  0  0  0
  4 15  1  0  0  0  0
  4 33  1  0  0  0  0
  5 21  2  0  0  0  0
  6 20  1  0  0  0  0
  6 23  2  0  0  0  0
  7 23  1  0  0  0  0
  7 29  1  0  0  0  0
  7 30  1  0  0  0  0
  8 23  1  0  0  0  0
  8 31  1  0  0  0  0
  8 32  1  0  0  0  0
  9 25  1  0  0  0  0
  9 27  2  0  0  0  0
 10 11  1  0  0  0  0
 10 15  1  0  0  0  0
 10 34  1  1  0  0  0
 11 35  1  0  0  0  0
 11 36  1  0  0  0  0
 12  3  1  0  0  0  0
 12 13  1  0  0  0  0
 12 20  1  0  0  0  0
 12 37  1  1  0  0  0
 13 16  2  0  0  0  0
 13 17  1  0  0  0  0
 14 18  2  0  0  0  0
 14 19  1  0  0  0  0
 14 28  1  0  0  0  0
 15 38  1  0  0  0  0
 15 39  1  0  0  0  0
 16 18  1  0  0  0  0
 16 40  1  0  0  0  0
 17 19  2  0  0  0  0
 17 41  1  0  0  0  0
 18 42  1  0  0  0  0
 19 43  1  0  0  0  0
 20 44  1  0  0  0  0
 20 45  1  0  0  0  0
 21 22  1  0  0  0  0
 22 24  1  0  0  0  0
 22 25  2  0  0  0  0
 24 26  2  0  0  0  0
 24 46  1  0  0  0  0
 25 47  1  0  0  0  0
 26 27  1  0  0  0  0
 26 48  1  0  0  0  0
 27 49  1  0  0  0  0
M  END
>  <DRUGBANK_ID>
DB07023

>  <COMMON_NAME>
(1R)-2-[(Diaminomethylene)amino]-1-{4-[(4R)-4-(hydroxymethyl)-1,3,2-dioxaborolan-2-yl]phenyl}ethyl nicotinate

$$$$
