
 OpenBabel10282417072D

 33 33  0  0  0  0  0  0  0  0999 V2000
    0.0000   -0.4125    0.0000 C   0  0  0  0  0  0  0  0  0  0  0  0
   -0.7145    0.0000    0.0000 C   0  0  0  0  0  0  0  0  0  0  0  0
    0.7145    0.8250    0.0000 C   0  0  0  0  0  0  0  0  0  0  0  0
    0.7145    0.0000    0.0000 C   0  0  0  0  0  0  0  0  0  0  0  0
    0.0000    1.2374    0.0000 C   0  0  0  0  0  0  0  0  0  0  0  0
   -0.7145    0.8250    0.0000 C   0  0  0  0  0  0  0  0  0  0  0  0
    1.4289   -0.4125    0.0000 C   0  0  1  0  0  0  0  0  0  0  0  0
    2.1434    0.0000    0.0000 C   0  0  0  0  0  0  0  0  0  0  0  0
    2.1434    0.8250    0.0000 O   0  0  0  0  0  0  0  0  0  0  0  0
    2.8579   -0.4125    0.0000 O   0  0  0  0  0  0  0  0  0  0  0  0
    1.4289   -1.2374    0.0000 C   0  0  0  0  0  0  0  0  0  0  0  0
   -1.4289    1.2374    0.0000 C   0  0  0  0  0  0  0  0  0  0  0  0
   -2.8579    1.2374    0.0000 C   0  0  0  0  0  0  0  0  0  0  0  0
   -2.1434    0.8250    0.0000 C   0  0  0  0  0  0  0  0  0  0  0  0
   -2.1434    0.0000    0.0000 C   0  0  0  0  0  0  0  0  0  0  0  0
    0.0000   -1.4445    0.0000 H   0  0  0  0  0  0  0  0  0  0  0  0
   -1.6082   -0.5160    0.0000 H   0  0  0  0  0  0  0  0  0  0  0  0
    1.6082    1.3411    0.0000 H   0  0  0  0  0  0  0  0  0  0  0  0
    0.0000    2.2694    0.0000 H   0  0  0  0  0  0  0  0  0  0  0  0
    0.5022   -0.9475    0.0000 H   0  0  0  0  0  0  0  0  0  0  0  0
    2.8579   -1.3495    0.0000 H   0  0  0  0  0  0  0  0  0  0  0  0
    0.5023   -1.7724    0.0000 H   0  0  0  0  0  0  0  0  0  0  0  0
    2.3555   -1.7724    0.0000 H   0  0  0  0  0  0  0  0  0  0  0  0
    1.4289   -2.3074    0.0000 H   0  0  0  0  0  0  0  0  0  0  0  0
   -1.4289    2.3074    0.0000 H   0  0  0  0  0  0  0  0  0  0  0  0
   -2.3555    1.7725    0.0000 H   0  0  0  0  0  0  0  0  0  0  0  0
   -2.8580    2.3074    0.0000 H   0  0  0  0  0  0  0  0  0  0  0  0
   -3.7845    0.7023    0.0000 H   0  0  0  0  0  0  0  0  0  0  0  0
   -3.7846    1.7723    0.0000 H   0  0  0  0  0  0  0  0  0  0  0  0
   -3.0700    0.2899    0.0000 H   0  0  0  0  0  0  0  0  0  0  0  0
   -3.0700   -0.5350    0.0000 H   0  0  0  0  0  0  0  0  0  0  0  0
   -1.2168   -0.5350    0.0000 H   0  0  0  0  0  0  0  0  0  0  0  0
   -2.1434   -1.0700    0.0000 H   0  0  0  0  0  0  0  0  0  0  0  0
  1  4  2  0  0  0  0
  1 16  1  0  0  0  0
  2  1  1  0  0  0  0
  2  6  2  0  0  0  0
  2 17  1  0  0  0  0
  3 18  1  0  0  0  0
  4  3  1  0  0  0  0
  5  3  2  0  0  0  0
  5 19  1  0  0  0  0
  6  5  1  0  0  0  0
  7  4  1  0  0  0  0
  7  8  1  0  0  0  0
  7 11  1  0  0  0  0
  7 20  1  6  0  0  0
  9  8  2  0  0  0  0
 10  8  1  0  0  0  0
 10 21  1  0  0  0  0
 11 22  1  0  0  0  0
 11 23  1  0  0  0  0
 11 24  1  0  0  0  0
 12  6  1  0  0  0  0
 12 14  1  0  0  0  0
 12 25  1  0  0  0  0
 12 26  1  0  0  0  0
 13 27  1  0  0  0  0
 13 28  1  0  0  0  0
 13 29  1  0  0  0  0
 14 13  1  0  0  0  0
 14 15  1  0  0  0  0
 14 30  1  0  0  0  0
 15 31  1  0  0  0  0
 15 32  1  0  0  0  0
 15 33  1  0  0  0  0
M  END
>  <DRUGBANK_ID>
DB09213

>  <COMMON_NAME>
Dexibuprofen

>  <CAS_NUMBER>
51146-56-6

>  <UNII>
671DKG7P5S

>  <SYNONYMS>
(+)-(S)-p-isobutylhydratropic acid; (2S)-2-(4-isobutylphenyl)propanoic acid; (S)-Î±-methyl-4-(2-methylpropyl)benzeneacetic acid; d-ibuproten; Dexibuprofen; Dexibuprofeno

$$$$
