ZZ1
 OpenBabel10282417072D

 20 21  0  0  0  0  0  0  0  0999 V2000
   -2.2519    1.4353    0.0000 O   0  0  0  0  0  0  0  0  0  0  0  0
   -1.5374    1.0228    0.0000 C   0  0  0  0  0  0  0  0  0  0  0  0
   -0.8230    1.4353    0.0000 O   0  0  0  0  0  0  0  0  0  0  0  0
   -0.1085    1.0228    0.0000 C   0  0  0  0  0  0  0  0  0  0  0  0
    0.6060    1.4353    0.0000 C   0  0  0  0  0  0  0  0  0  0  0  0
    1.3205    1.0228    0.0000 C   0  0  0  0  0  0  0  0  0  0  0  0
    1.3205    0.1978    0.0000 C   0  0  0  0  0  0  0  0  0  0  0  0
    0.6060   -0.2147    0.0000 C   0  0  0  0  0  0  0  0  0  0  0  0
   -0.1085    0.1978    0.0000 C   0  0  0  0  0  0  0  0  0  0  0  0
   -0.8230   -0.2147    0.0000 C   0  0  0  0  0  0  0  0  0  0  0  0
   -0.8230   -1.0397    0.0000 C   0  0  0  0  0  0  0  0  0  0  0  0
   -1.5374    0.1978    0.0000 C   0  0  0  0  0  0  0  0  0  0  0  0
    0.6060    2.4673    0.0000 H   0  0  0  0  0  0  0  0  0  0  0  0
    2.2142    1.5388    0.0000 H   0  0  0  0  0  0  0  0  0  0  0  0
    2.2142   -0.3182    0.0000 H   0  0  0  0  0  0  0  0  0  0  0  0
    0.6060   -1.2467    0.0000 H   0  0  0  0  0  0  0  0  0  0  0  0
   -1.7496   -1.5747    0.0000 H   0  0  0  0  0  0  0  0  0  0  0  0
    0.1036   -1.5747    0.0000 H   0  0  0  0  0  0  0  0  0  0  0  0
   -0.8230   -2.1097    0.0000 H   0  0  0  0  0  0  0  0  0  0  0  0
   -2.4311   -0.3182    0.0000 H   0  0  0  0  0  0  0  0  0  0  0  0
  1  2  2  0  0  0  0
  2  3  1  0  0  0  0
  2 12  1  0  0  0  0
  3  4  1  0  0  0  0
  4  5  2  0  0  0  0
  4  9  1  0  0  0  0
  5  6  1  0  0  0  0
  5 13  1  0  0  0  0
  6  7  2  0  0  0  0
  6 14  1  0  0  0  0
  7  8  1  0  0  0  0
  7 15  1  0  0  0  0
  8  9  2  0  0  0  0
  8 16  1  0  0  0  0
  9 10  1  0  0  0  0
 10 11  1  0  0  0  0
 10 12  2  0  0  0  0
 11 17  1  0  0  0  0
 11 18  1  0  0  0  0
 11 19  1  0  0  0  0
 12 20  1  0  0  0  0
M  END
>  <DRUGBANK_ID>
DB08785

>  <COMMON_NAME>
4-Methylcoumarin

>  <CAS_NUMBER>
607-71-6

>  <UNII>
2YZ8R79U9H

>  <SYNONYMS>
4-Methyl-2H-1-benzopyran-2-one

$$$$
