
 OpenBabel10282417072D

 35 36  0  0  1  0  0  0  0  0999 V2000
    0.1067    4.7652    0.0000 C   0  0  0  0  0  0  0  0  0  0  0  0
   -0.6078    4.3527    0.0000 C   0  0  0  0  0  0  0  0  0  0  0  0
   -0.6078    3.5277    0.0000 C   0  0  0  0  0  0  0  0  0  0  0  0
   -1.3222    3.1152    0.0000 N   0  0  0  0  0  0  0  0  0  0  0  0
   -1.3222    2.2902    0.0000 C   0  0  1  0  0  0  0  0  0  0  0  0
   -0.6548    1.8053    0.0000 C   0  0  0  0  0  0  0  0  0  0  0  0
   -0.9097    1.0206    0.0000 C   0  0  0  0  0  0  0  0  0  0  0  0
   -1.7347    1.0206    0.0000 C   0  0  1  0  0  0  0  0  0  0  0  0
   -2.2197    0.3532    0.0000 C   0  0  0  0  0  0  0  0  0  0  0  0
   -1.8841   -0.4005    0.0000 O   0  0  0  0  0  0  0  0  0  0  0  0
   -2.3690   -1.0679    0.0000 P   0  0  0  0  0  0  0  0  0  0  0  0
   -2.8539   -1.7354    0.0000 O   0  0  0  0  0  0  0  0  0  0  0  0
   -1.7016   -1.5528    0.0000 O   0  0  0  0  0  0  0  0  0  0  0  0
   -3.0365   -0.5830    0.0000 O   0  0  0  0  0  0  0  0  0  0  0  0
   -1.9897    1.8053    0.0000 O   0  0  0  0  0  0  0  0  0  0  0  0
   -2.0367    3.5277    0.0000 C   0  0  0  0  0  0  0  0  0  0  0  0
   -2.7512    3.1152    0.0000 O   0  0  0  0  0  0  0  0  0  0  0  0
   -2.0367    4.3527    0.0000 N   0  0  0  0  0  0  0  0  0  0  0  0
   -1.3222    4.7652    0.0000 C   0  0  0  0  0  0  0  0  0  0  0  0
   -1.3222    5.5902    0.0000 O   0  0  0  0  0  0  0  0  0  0  0  0
    1.0333    4.2302    0.0000 H   0  0  0  0  0  0  0  0  0  0  0  0
    0.1067    5.8352    0.0000 H   0  0  0  0  0  0  0  0  0  0  0  0
    1.0334    5.3002    0.0000 H   0  0  0  0  0  0  0  0  0  0  0  0
    0.2859    3.0117    0.0000 H   0  0  0  0  0  0  0  0  0  0  0  0
   -0.3688    2.7760    0.0000 H   0  0  0  0  0  0  0  0  0  0  0  0
    0.3628    2.1360    0.0000 H   0  0  0  0  0  0  0  0  0  0  0  0
    0.1018    1.0487    0.0000 H   0  0  0  0  0  0  0  0  0  0  0  0
   -0.2807    0.1550    0.0000 H   0  0  0  0  0  0  0  0  0  0  0  0
   -1.3955    0.0672    0.0000 H   0  0  0  0  0  0  0  0  0  0  0  0
   -1.2490    0.0672    0.0000 H   0  0  0  0  0  0  0  0  0  0  0  0
   -3.2838    0.4651    0.0000 H   0  0  0  0  0  0  0  0  0  0  0  0
   -2.8486   -0.5124    0.0000 H   0  0  0  0  0  0  0  0  0  0  0  0
   -3.8186   -1.6341    0.0000 H   0  0  0  0  0  0  0  0  0  0  0  0
   -1.8030   -2.5175    0.0000 H   0  0  0  0  0  0  0  0  0  0  0  0
   -2.8893    4.8450    0.0000 H   0  0  0  0  0  0  0  0  0  0  0  0
  1  2  1  0  0  0  0
  1 21  1  0  0  0  0
  1 22  1  0  0  0  0
  1 23  1  0  0  0  0
  2  3  2  0  0  0  0
  2 19  1  0  0  0  0
  3  4  1  0  0  0  0
  3 24  1  0  0  0  0
  4 16  1  0  0  0  0
  5  4  1  0  0  0  0
  5  6  1  0  0  0  0
  5 15  1  0  0  0  0
  5 25  1  6  0  0  0
  6  7  1  0  0  0  0
  6 26  1  0  0  0  0
  6 27  1  0  0  0  0
  7  8  1  0  0  0  0
  7 28  1  0  0  0  0
  7 29  1  0  0  0  0
  8  9  1  0  0  0  0
  8 15  1  0  0  0  0
  8 30  1  6  0  0  0
  9 10  1  0  0  0  0
  9 31  1  0  0  0  0
  9 32  1  0  0  0  0
 10 11  1  0  0  0  0
 11 12  1  0  0  0  0
 11 13  1  0  0  0  0
 11 14  2  0  0  0  0
 12 33  1  0  0  0  0
 13 34  1  0  0  0  0
 16 17  2  0  0  0  0
 16 18  1  0  0  0  0
 18 19  1  0  0  0  0
 18 35  1  0  0  0  0
 19 20  2  0  0  0  0
M  END
>  <DRUGBANK_ID>
DB03150

>  <SECONDARY_ACCESSION_NUMBERS>
EXPT00113

>  <COMMON_NAME>
2',3'-Dideoxythymidine-5'-Monophosphate

>  <UNII>
R6VJB6HJ6Y

$$$$
