J88
 OpenBabel10282417072D

 47 51  0  0  0  0  0  0  0  0999 V2000
   -0.8723   -2.1508    0.0000 O   0  0  0  0  0  0  0  0  0  0  0  0
   -0.0653   -1.9792    0.0000 N   0  0  0  0  0  0  0  0  0  0  0  0
    0.1896   -1.1946    0.0000 C   0  0  0  0  0  0  0  0  0  0  0  0
   -0.2953   -0.5272    0.0000 C   0  0  0  0  0  0  0  0  0  0  0  0
   -1.1203   -0.5272    0.0000 O   0  0  0  0  0  0  0  0  0  0  0  0
    0.1896    0.1403    0.0000 N   0  0  0  0  0  0  0  0  0  0  0  0
   -0.0653    0.9249    0.0000 C   0  0  0  0  0  0  0  0  0  0  0  0
   -0.8723    1.0964    0.0000 C   0  0  0  0  0  0  0  0  0  0  0  0
   -1.4243    0.4833    0.0000 C   0  0  0  0  0  0  0  0  0  0  0  0
   -2.2313    0.6548    0.0000 C   0  0  0  0  0  0  0  0  0  0  0  0
   -2.7833    0.0417    0.0000 F   0  0  0  0  0  0  0  0  0  0  0  0
   -2.4862    1.4395    0.0000 C   0  0  0  0  0  0  0  0  0  0  0  0
   -1.9342    2.0526    0.0000 C   0  0  0  0  0  0  0  0  0  0  0  0
   -2.1891    2.8372    0.0000 C   0  0  0  0  0  0  0  0  0  0  0  0
   -1.6371    3.4503    0.0000 O   0  0  0  0  0  0  0  0  0  0  0  0
   -0.8301    3.2787    0.0000 C   0  0  0  0  0  0  0  0  0  0  0  0
   -0.5752    2.4941    0.0000 O   0  0  0  0  0  0  0  0  0  0  0  0
   -1.1272    1.8810    0.0000 C   0  0  0  0  0  0  0  0  0  0  0  0
    0.9743   -0.1147    0.0000 C   0  0  0  0  0  0  0  0  0  0  0  0
    1.6887    0.2978    0.0000 C   0  0  0  0  0  0  0  0  0  0  0  0
    2.4032   -0.1147    0.0000 C   0  0  0  0  0  0  0  0  0  0  0  0
    2.4032   -0.9397    0.0000 C   0  0  0  0  0  0  0  0  0  0  0  0
    1.6887   -1.3522    0.0000 C   0  0  0  0  0  0  0  0  0  0  0  0
    0.9743   -0.9397    0.0000 C   0  0  0  0  0  0  0  0  0  0  0  0
    1.6887   -2.1772    0.0000 C   0  0  0  0  0  0  0  0  0  0  0  0
    2.4032   -2.5897    0.0000 C   0  0  0  0  0  0  0  0  0  0  0  0
    2.4032   -3.4147    0.0000 C   0  0  0  0  0  0  0  0  0  0  0  0
    1.6887   -3.8272    0.0000 C   0  0  0  0  0  0  0  0  0  0  0  0
    0.9743   -3.4147    0.0000 C   0  0  0  0  0  0  0  0  0  0  0  0
    0.9743   -2.5897    0.0000 C   0  0  0  0  0  0  0  0  0  0  0  0
   -1.4993   -1.4545    0.0000 H   0  0  0  0  0  0  0  0  0  0  0  0
    0.6507    1.7201    0.0000 H   0  0  0  0  0  0  0  0  0  0  0  0
   -0.3960    1.9425    0.0000 H   0  0  0  0  0  0  0  0  0  0  0  0
   -1.1054   -0.4982    0.0000 H   0  0  0  0  0  0  0  0  0  0  0  0
   -3.4956    1.6541    0.0000 H   0  0  0  0  0  0  0  0  0  0  0  0
   -3.2357    3.0597    0.0000 H   0  0  0  0  0  0  0  0  0  0  0  0
   -2.5198    3.8548    0.0000 H   0  0  0  0  0  0  0  0  0  0  0  0
   -0.1141    4.0738    0.0000 H   0  0  0  0  0  0  0  0  0  0  0  0
    0.2165    3.0562    0.0000 H   0  0  0  0  0  0  0  0  0  0  0  0
    1.6887    1.3298    0.0000 H   0  0  0  0  0  0  0  0  0  0  0  0
    3.2969    0.4013    0.0000 H   0  0  0  0  0  0  0  0  0  0  0  0
    3.2969   -1.4557    0.0000 H   0  0  0  0  0  0  0  0  0  0  0  0
    3.2969   -2.0737    0.0000 H   0  0  0  0  0  0  0  0  0  0  0  0
    3.2969   -3.9307    0.0000 H   0  0  0  0  0  0  0  0  0  0  0  0
    1.6887   -4.8592    0.0000 H   0  0  0  0  0  0  0  0  0  0  0  0
    0.0806   -3.9307    0.0000 H   0  0  0  0  0  0  0  0  0  0  0  0
    0.0806   -2.0737    0.0000 H   0  0  0  0  0  0  0  0  0  0  0  0
  1  2  1  0  0  0  0
  1 31  1  0  0  0  0
  2  3  2  0  0  0  0
  3  4  1  0  0  0  0
  3 24  1  0  0  0  0
  4  5  2  0  0  0  0
  4  6  1  0  0  0  0
  6  7  1  0  0  0  0
  6 19  1  0  0  0  0
  7  8  1  0  0  0  0
  7 32  1  0  0  0  0
  7 33  1  0  0  0  0
  8  9  2  0  0  0  0
  8 18  1  0  0  0  0
  9 10  1  0  0  0  0
  9 34  1  0  0  0  0
 10 11  1  0  0  0  0
 10 12  2  0  0  0  0
 12 13  1  0  0  0  0
 12 35  1  0  0  0  0
 13 14  1  0  0  0  0
 13 18  2  0  0  0  0
 14 15  1  0  0  0  0
 14 36  1  0  0  0  0
 14 37  1  0  0  0  0
 15 16  1  0  0  0  0
 16 17  1  0  0  0  0
 16 38  1  0  0  0  0
 16 39  1  0  0  0  0
 17 18  1  0  0  0  0
 19 20  2  0  0  0  0
 19 24  1  0  0  0  0
 20 21  1  0  0  0  0
 20 40  1  0  0  0  0
 21 22  2  0  0  0  0
 21 41  1  0  0  0  0
 22 23  1  0  0  0  0
 22 42  1  0  0  0  0
 23 24  2  0  0  0  0
 23 25  1  0  0  0  0
 25 26  2  0  0  0  0
 25 30  1  0  0  0  0
 26 27  1  0  0  0  0
 26 43  1  0  0  0  0
 27 28  2  0  0  0  0
 27 44  1  0  0  0  0
 28 29  1  0  0  0  0
 28 45  1  0  0  0  0
 29 30  2  0  0  0  0
 29 46  1  0  0  0  0
 30 47  1  0  0  0  0
M  END
>  <DRUGBANK_ID>
DB08015

>  <COMMON_NAME>
(3Z)-1-[(6-fluoro-4H-1,3-benzodioxin-8-yl)methyl]-4-phenyl-1H-indole-2,3-dione 3-oxime

$$$$
