TFQ
 OpenBabel10282417072D

 29 29  0  0  0  0  0  0  0  0999 V2000
    2.8556    0.5721    0.0000 F   0  0  0  0  0  0  0  0  0  0  0  0
    2.1412    0.9846    0.0000 C   0  0  0  0  0  0  0  0  0  0  0  0
    1.7287    0.2701    0.0000 F   0  0  0  0  0  0  0  0  0  0  0  0
    2.5537    1.6991    0.0000 F   0  0  0  0  0  0  0  0  0  0  0  0
    1.4267    1.3971    0.0000 C   0  0  0  0  0  0  0  0  0  0  0  0
    0.7122    0.9846    0.0000 C   0  0  0  0  0  0  0  0  0  0  0  0
   -0.0023    1.3971    0.0000 C   0  0  0  0  0  0  0  0  0  0  0  0
   -0.7167    0.9846    0.0000 C   0  0  0  0  0  0  0  0  0  0  0  0
    0.7122    0.1596    0.0000 C   0  0  0  0  0  0  0  0  0  0  0  0
   -0.0023   -0.2529    0.0000 C   0  0  0  0  0  0  0  0  0  0  0  0
   -0.7167    0.1596    0.0000 C   0  0  0  0  0  0  0  0  0  0  0  0
   -1.4312   -0.2529    0.0000 C   0  0  0  0  0  0  0  0  0  0  0  0
   -1.4312   -1.0779    0.0000 C   0  0  2  0  0  0  0  0  0  0  0  0
   -0.7167   -1.4904    0.0000 N   0  0  0  0  0  0  0  0  0  0  0  0
   -2.1457   -1.4904    0.0000 C   0  0  0  0  0  0  0  0  0  0  0  0
   -2.1457   -2.3154    0.0000 O   0  0  0  0  0  0  0  0  0  0  0  0
   -2.8601   -1.0779    0.0000 O   0  0  0  0  0  0  0  0  0  0  0  0
   -1.9369   -0.7859    0.0000 H   0  0  0  0  0  0  0  0  0  0  0  0
    1.4267    2.4671    0.0000 H   0  0  0  0  0  0  0  0  0  0  0  0
    0.5001    1.9321    0.0000 H   0  0  0  0  0  0  0  0  0  0  0  0
   -0.0023    2.4291    0.0000 H   0  0  0  0  0  0  0  0  0  0  0  0
   -1.6104    1.5006    0.0000 H   0  0  0  0  0  0  0  0  0  0  0  0
    1.6059   -0.3564    0.0000 H   0  0  0  0  0  0  0  0  0  0  0  0
   -0.0023   -1.2849    0.0000 H   0  0  0  0  0  0  0  0  0  0  0  0
   -2.3578    0.2821    0.0000 H   0  0  0  0  0  0  0  0  0  0  0  0
   -2.3578   -0.7879    0.0000 H   0  0  0  0  0  0  0  0  0  0  0  0
   -0.7167   -2.5104    0.0000 H   0  0  0  0  0  0  0  0  0  0  0  0
    0.1666   -0.9804    0.0000 H   0  0  0  0  0  0  0  0  0  0  0  0
   -2.8601   -0.1409    0.0000 H   0  0  0  0  0  0  0  0  0  0  0  0
  1  2  1  0  0  0  0
  2  4  1  0  0  0  0
  2  3  1  0  0  0  0
  2  5  1  0  0  0  0
  5  6  1  0  0  0  0
  5 19  1  0  0  0  0
  5 20  1  0  0  0  0
  6  9  2  0  0  0  0
  6  7  1  0  0  0  0
  7  8  2  0  0  0  0
  7 21  1  0  0  0  0
  8 11  1  0  0  0  0
  8 22  1  0  0  0  0
  9 10  1  0  0  0  0
  9 23  1  0  0  0  0
 10 11  2  0  0  0  0
 10 24  1  0  0  0  0
 11 12  1  0  0  0  0
 12 13  1  0  0  0  0
 12 25  1  0  0  0  0
 12 26  1  0  0  0  0
 13 15  1  0  0  0  0
 13 14  1  0  0  0  0
 13 18  1  1  0  0  0
 14 27  1  0  0  0  0
 14 28  1  0  0  0  0
 15 16  2  0  0  0  0
 15 17  1  0  0  0  0
 17 29  1  0  0  0  0
M  END
>  <DRUGBANK_ID>
DB08617

>  <COMMON_NAME>
4-(2,2,2-TRIFLUOROETHYL)-L-PHENYLALANINE

$$$$
