
 OpenBabel10282417072D

 41 42  0  0  0  0  0  0  0  0999 V2000
    3.9317    0.6250    0.0000 C   0  0  0  0  0  0  0  0  0  0  0  0
    2.5023    0.6250    0.0000 N   0  0  0  0  0  0  0  0  0  0  0  0
    3.9317   -0.2000    0.0000 O   0  0  0  0  0  0  0  0  0  0  0  0
    3.2150    1.0376    0.0000 C   0  0  1  0  0  0  0  0  0  0  0  0
    4.6443    1.0418    0.0000 N   0  0  0  0  0  0  0  0  0  0  0  0
   -1.0730   -0.6250    0.0000 O   0  0  0  0  0  0  0  0  0  0  0  0
    1.7814    1.0293    0.0000 C   0  0  0  0  0  0  0  0  0  0  0  0
   -0.3562   -0.2125    0.0000 C   0  0  0  0  0  0  0  0  0  0  0  0
    1.0688    0.6125    0.0000 C   0  0  0  0  0  0  0  0  0  0  0  0
   -3.2192   -0.2125    0.0000 C   0  0  0  0  0  0  0  0  0  0  0  0
   -3.9317   -0.6250    0.0000 C   0  0  0  0  0  0  0  0  0  0  0  0
   -1.7856   -0.2125    0.0000 C   0  0  0  0  0  0  0  0  0  0  0  0
   -2.5065   -0.6250    0.0000 C   0  0  0  0  0  0  0  0  0  0  0  0
   -4.6443   -0.2083    0.0000 F   0  0  0  0  0  0  0  0  0  0  0  0
   -0.3562    0.6125    0.0000 C   0  0  0  0  0  0  0  0  0  0  0  0
    0.3562   -0.6250    0.0000 C   0  0  0  0  0  0  0  0  0  0  0  0
    0.3562    1.0251    0.0000 C   0  0  0  0  0  0  0  0  0  0  0  0
    1.0688   -0.2125    0.0000 C   0  0  0  0  0  0  0  0  0  0  0  0
   -3.2109   -1.8627    0.0000 C   0  0  0  0  0  0  0  0  0  0  0  0
   -3.9317   -1.4502    0.0000 C   0  0  0  0  0  0  0  0  0  0  0  0
   -2.4983   -1.4502    0.0000 C   0  0  0  0  0  0  0  0  0  0  0  0
    3.2066    1.8627    0.0000 C   0  0  0  0  0  0  0  0  0  0  0  0
    2.5093   -0.3950    0.0000 H   0  0  0  0  0  0  0  0  0  0  0  0
    2.2853    1.5673    0.0000 H   0  0  0  0  0  0  0  0  0  0  0  0
    5.4997    0.5544    0.0000 H   0  0  0  0  0  0  0  0  0  0  0  0
    4.6387    2.0263    0.0000 H   0  0  0  0  0  0  0  0  0  0  0  0
    1.7717    2.0993    0.0000 H   0  0  0  0  0  0  0  0  0  0  0  0
    0.8508    1.5575    0.0000 H   0  0  0  0  0  0  0  0  0  0  0  0
   -3.2193    0.8195    0.0000 H   0  0  0  0  0  0  0  0  0  0  0  0
   -1.7829    0.8575    0.0000 H   0  0  0  0  0  0  0  0  0  0  0  0
   -2.7105    0.3255    0.0000 H   0  0  0  0  0  0  0  0  0  0  0  0
   -1.2503    1.1279    0.0000 H   0  0  0  0  0  0  0  0  0  0  0  0
    0.3561   -1.6570    0.0000 H   0  0  0  0  0  0  0  0  0  0  0  0
    0.3561    2.0571    0.0000 H   0  0  0  0  0  0  0  0  0  0  0  0
    1.9628   -0.7280    0.0000 H   0  0  0  0  0  0  0  0  0  0  0  0
   -3.2083   -2.8947    0.0000 H   0  0  0  0  0  0  0  0  0  0  0  0
   -4.8245   -1.9679    0.0000 H   0  0  0  0  0  0  0  0  0  0  0  0
   -1.6017   -1.9612    0.0000 H   0  0  0  0  0  0  0  0  0  0  0  0
    4.1278    2.4071    0.0000 H   0  0  0  0  0  0  0  0  0  0  0  0
    2.2746    2.3882    0.0000 H   0  0  0  0  0  0  0  0  0  0  0  0
    3.1957    2.9326    0.0000 H   0  0  0  0  0  0  0  0  0  0  0  0
  2  4  1  0  0  0  0
  2 23  1  0  0  0  0
  3  1  2  0  0  0  0
  4  1  1  0  0  0  0
  4 22  1  0  0  0  0
  4 24  1  6  0  0  0
  5  1  1  0  0  0  0
  5 25  1  0  0  0  0
  5 26  1  0  0  0  0
  6  8  1  0  0  0  0
  7  2  1  0  0  0  0
  7 27  1  0  0  0  0
  7 28  1  0  0  0  0
  8 16  1  0  0  0  0
  8 15  2  0  0  0  0
  9  7  1  0  0  0  0
 10 13  2  0  0  0  0
 10 29  1  0  0  0  0
 11 10  1  0  0  0  0
 12  6  1  0  0  0  0
 12 30  1  0  0  0  0
 12 31  1  0  0  0  0
 13 12  1  0  0  0  0
 14 11  1  0  0  0  0
 15 17  1  0  0  0  0
 15 32  1  0  0  0  0
 16 18  2  0  0  0  0
 16 33  1  0  0  0  0
 17  9  2  0  0  0  0
 17 34  1  0  0  0  0
 18  9  1  0  0  0  0
 18 35  1  0  0  0  0
 19 21  2  0  0  0  0
 19 36  1  0  0  0  0
 20 19  1  0  0  0  0
 20 11  2  0  0  0  0
 20 37  1  0  0  0  0
 21 13  1  0  0  0  0
 21 38  1  0  0  0  0
 22 39  1  0  0  0  0
 22 40  1  0  0  0  0
 22 41  1  0  0  0  0
M  END
>  <DRUGBANK_ID>
DB06654

>  <COMMON_NAME>
Safinamide

>  <CAS_NUMBER>
133865-89-1

>  <UNII>
90ENL74SIG

>  <SYNONYMS>
Safinamida; Safinamide

$$$$
