
 OpenBabel10282417072D

 13 13  0  0  0  0  0  0  0  0999 V2000
    0.7145    2.0625    0.0000 O   0  0  0  0  0  0  0  0  0  0  0  0
    0.7145    1.2375    0.0000 C   0  0  0  0  0  0  0  0  0  0  0  0
    1.4289    0.8250    0.0000 C   0  0  0  0  0  0  0  0  0  0  0  0
    1.4289    0.0000    0.0000 C   0  0  0  0  0  0  0  0  0  0  0  0
    0.7145   -0.4125    0.0000 C   0  0  0  0  0  0  0  0  0  0  0  0
    0.0000    0.0000    0.0000 C   0  0  0  0  0  0  0  0  0  0  0  0
    0.0000    0.8250    0.0000 C   0  0  0  0  0  0  0  0  0  0  0  0
    1.5260    2.5310    0.0000 H   0  0  0  0  0  0  0  0  0  0  0  0
    2.3226    1.3410    0.0000 H   0  0  0  0  0  0  0  0  0  0  0  0
    2.3226   -0.5160    0.0000 H   0  0  0  0  0  0  0  0  0  0  0  0
    0.7145   -1.4445    0.0000 H   0  0  0  0  0  0  0  0  0  0  0  0
   -0.8937   -0.5160    0.0000 H   0  0  0  0  0  0  0  0  0  0  0  0
   -0.8937    1.3410    0.0000 H   0  0  0  0  0  0  0  0  0  0  0  0
  1  2  1  0  0  0  0
  1  8  1  0  0  0  0
  2  3  2  0  0  0  0
  2  7  1  0  0  0  0
  3  4  1  0  0  0  0
  3  9  1  0  0  0  0
  4  5  2  0  0  0  0
  4 10  1  0  0  0  0
  5  6  1  0  0  0  0
  5 11  1  0  0  0  0
  6  7  2  0  0  0  0
  6 12  1  0  0  0  0
  7 13  1  0  0  0  0
M  END
>  <DRUGBANK_ID>
DB03255

>  <SECONDARY_ACCESSION_NUMBERS>
EXPT01917

>  <COMMON_NAME>
Phenol

>  <CAS_NUMBER>
108-95-2

>  <UNII>
339NCG44TV

>  <SYNONYMS>
Acide carbolique; Acide phénique; Benzenol; Carbolic acid; Carbolsäure; Fenol; Hydroxybenzene; Karbolsäure; Monohydroxybenzene; Oxybenzene; Phenic Acid; Phenol; Phenyl alcohol; Phenyl hydroxide; Phenylic acid; Phenylic alcohol; PHOH

$$$$
