
 OpenBabel10282417072D

 66 70  0  0  0  0  0  0  0  0999 V2000
    8.5003   -7.5521    0.0000 C   0  0  0  0  0  0  0  0  0  0  0  0
    7.7858   -7.1396    0.0000 N   0  0  0  0  0  0  0  0  0  0  0  0
    7.0714   -7.5521    0.0000 C   0  0  0  0  0  0  0  0  0  0  0  0
    6.3569   -7.1396    0.0000 C   0  0  0  0  0  0  0  0  0  0  0  0
    6.3569   -6.3146    0.0000 N   0  0  0  0  0  0  0  0  0  0  0  0
    5.6424   -5.9021    0.0000 C   0  0  0  0  0  0  0  0  0  0  0  0
    5.6424   -5.0771    0.0000 C   0  0  0  0  0  0  0  0  0  0  0  0
    4.9279   -4.6646    0.0000 C   0  0  0  0  0  0  0  0  0  0  0  0
    4.9279   -3.8396    0.0000 C   0  0  0  0  0  0  0  0  0  0  0  0
    5.6424   -3.4271    0.0000 C   0  0  0  0  0  0  0  0  0  0  0  0
    5.6424   -2.6021    0.0000 N   0  0  0  0  0  0  0  0  0  0  0  0
    4.9279   -2.1896    0.0000 C   0  0  0  0  0  0  0  0  0  0  0  0
    4.2135   -2.6021    0.0000 O   0  0  0  0  0  0  0  0  0  0  0  0
    4.9279   -1.3646    0.0000 C   0  0  0  0  0  0  0  0  0  0  0  0
    4.2135   -0.9521    0.0000 C   0  0  0  0  0  0  0  0  0  0  0  0
    4.2135   -0.1271    0.0000 C   0  0  0  0  0  0  0  0  0  0  0  0
    3.4990    0.2854    0.0000 C   0  0  0  0  0  0  0  0  0  0  0  0
    2.7845    0.6979    0.0000 C   0  0  0  0  0  0  0  0  0  0  0  0
    2.0701    1.1104    0.0000 C   0  0  0  0  0  0  0  0  0  0  0  0
    1.3556    0.6979    0.0000 C   0  0  0  0  0  0  0  0  0  0  0  0
    0.6411    1.1104    0.0000 C   0  0  0  0  0  0  0  0  0  0  0  0
    0.6411    1.9354    0.0000 C   0  0  0  0  0  0  0  0  0  0  0  0
   -0.1435    2.1904    0.0000 N   0  0  0  0  0  0  0  0  0  0  0  0
   -0.6284    1.5229    0.0000 N   0  0  0  0  0  0  0  0  0  0  0  0
   -0.1435    0.8555    0.0000 C   0  0  0  0  0  0  0  0  0  0  0  0
    1.3556    2.3479    0.0000 N   0  0  0  0  0  0  0  0  0  0  0  0
    2.0701    1.9354    0.0000 C   0  0  0  0  0  0  0  0  0  0  0  0
    4.9279    0.2854    0.0000 C   0  0  0  0  0  0  0  0  0  0  0  0
    4.9279    1.1104    0.0000 C   0  0  0  0  0  0  0  0  0  0  0  0
    5.6424   -0.1271    0.0000 C   0  0  0  0  0  0  0  0  0  0  0  0
    5.6424   -0.9521    0.0000 C   0  0  0  0  0  0  0  0  0  0  0  0
    6.3569   -3.8396    0.0000 C   0  0  0  0  0  0  0  0  0  0  0  0
    6.3569   -4.6646    0.0000 C   0  0  0  0  0  0  0  0  0  0  0  0
    4.2135   -5.0771    0.0000 C   0  0  0  0  0  0  0  0  0  0  0  0
    3.4990   -5.4896    0.0000 F   0  0  0  0  0  0  0  0  0  0  0  0
    3.8010   -4.3626    0.0000 F   0  0  0  0  0  0  0  0  0  0  0  0
    4.6260   -5.7915    0.0000 F   0  0  0  0  0  0  0  0  0  0  0  0
    7.0714   -5.9021    0.0000 C   0  0  0  0  0  0  0  0  0  0  0  0
    7.7858   -6.3146    0.0000 C   0  0  0  0  0  0  0  0  0  0  0  0
    8.5003   -8.6221    0.0000 H   0  0  0  0  0  0  0  0  0  0  0  0
    9.4269   -7.0171    0.0000 H   0  0  0  0  0  0  0  0  0  0  0  0
    9.4270   -8.0871    0.0000 H   0  0  0  0  0  0  0  0  0  0  0  0
    7.0714   -8.6221    0.0000 H   0  0  0  0  0  0  0  0  0  0  0  0
    6.1448   -8.0871    0.0000 H   0  0  0  0  0  0  0  0  0  0  0  0
    5.4303   -7.6746    0.0000 H   0  0  0  0  0  0  0  0  0  0  0  0
    5.4303   -6.6046    0.0000 H   0  0  0  0  0  0  0  0  0  0  0  0
    4.7158   -6.4371    0.0000 H   0  0  0  0  0  0  0  0  0  0  0  0
    4.7158   -5.3671    0.0000 H   0  0  0  0  0  0  0  0  0  0  0  0
    4.0342   -3.3236    0.0000 H   0  0  0  0  0  0  0  0  0  0  0  0
    6.4950   -2.1098    0.0000 H   0  0  0  0  0  0  0  0  0  0  0  0
    3.3198   -1.4681    0.0000 H   0  0  0  0  0  0  0  0  0  0  0  0
    1.3556   -0.3341    0.0000 H   0  0  0  0  0  0  0  0  0  0  0  0
   -0.4477    3.1267    0.0000 H   0  0  0  0  0  0  0  0  0  0  0  0
   -0.4624   -0.1260    0.0000 H   0  0  0  0  0  0  0  0  0  0  0  0
    2.9638    2.4514    0.0000 H   0  0  0  0  0  0  0  0  0  0  0  0
    5.8545    1.6454    0.0000 H   0  0  0  0  0  0  0  0  0  0  0  0
    4.0013    1.6454    0.0000 H   0  0  0  0  0  0  0  0  0  0  0  0
    4.9279    2.1804    0.0000 H   0  0  0  0  0  0  0  0  0  0  0  0
    6.5361    0.3889    0.0000 H   0  0  0  0  0  0  0  0  0  0  0  0
    6.5361   -1.4681    0.0000 H   0  0  0  0  0  0  0  0  0  0  0  0
    7.2506   -3.3236    0.0000 H   0  0  0  0  0  0  0  0  0  0  0  0
    7.2506   -5.1806    0.0000 H   0  0  0  0  0  0  0  0  0  0  0  0
    7.0714   -4.8321    0.0000 H   0  0  0  0  0  0  0  0  0  0  0  0
    7.9981   -5.3671    0.0000 H   0  0  0  0  0  0  0  0  0  0  0  0
    8.7125   -5.7796    0.0000 H   0  0  0  0  0  0  0  0  0  0  0  0
    8.7124   -6.8496    0.0000 H   0  0  0  0  0  0  0  0  0  0  0  0
  1  2  1  0  0  0  0
  1 40  1  0  0  0  0
  1 41  1  0  0  0  0
  1 42  1  0  0  0  0
  2  3  1  0  0  0  0
  2 39  1  0  0  0  0
  3  4  1  0  0  0  0
  3 43  1  0  0  0  0
  3 44  1  0  0  0  0
  4  5  1  0  0  0  0
  4 45  1  0  0  0  0
  4 46  1  0  0  0  0
  5  6  1  0  0  0  0
  5 38  1  0  0  0  0
  6  7  1  0  0  0  0
  6 47  1  0  0  0  0
  6 48  1  0  0  0  0
  7  8  2  0  0  0  0
  7 33  1  0  0  0  0
  8  9  1  0  0  0  0
  8 34  1  0  0  0  0
  9 10  2  0  0  0  0
  9 49  1  0  0  0  0
 10 11  1  0  0  0  0
 10 32  1  0  0  0  0
 11 12  1  0  0  0  0
 11 50  1  0  0  0  0
 12 13  2  0  0  0  0
 12 14  1  0  0  0  0
 14 15  2  0  0  0  0
 14 31  1  0  0  0  0
 15 16  1  0  0  0  0
 15 51  1  0  0  0  0
 16 17  1  0  0  0  0
 16 28  2  0  0  0  0
 17 18  3  0  0  0  0
 18 19  1  0  0  0  0
 19 20  2  0  0  0  0
 19 27  1  0  0  0  0
 20 21  1  0  0  0  0
 20 52  1  0  0  0  0
 21 22  2  0  0  0  0
 21 25  1  0  0  0  0
 22 23  1  0  0  0  0
 22 26  1  0  0  0  0
 23 24  1  0  0  0  0
 23 53  1  0  0  0  0
 24 25  2  0  0  0  0
 25 54  1  0  0  0  0
 26 27  2  0  0  0  0
 27 55  1  0  0  0  0
 28 29  1  0  0  0  0
 28 30  1  0  0  0  0
 29 56  1  0  0  0  0
 29 57  1  0  0  0  0
 29 58  1  0  0  0  0
 30 31  2  0  0  0  0
 30 59  1  0  0  0  0
 31 60  1  0  0  0  0
 32 33  2  0  0  0  0
 32 61  1  0  0  0  0
 33 62  1  0  0  0  0
 34 35  1  0  0  0  0
 34 36  1  0  0  0  0
 34 37  1  0  0  0  0
 38 39  1  0  0  0  0
 38 63  1  0  0  0  0
 38 64  1  0  0  0  0
 39 65  1  0  0  0  0
 39 66  1  0  0  0  0
M  END
>  <DRUGBANK_ID>
DB16185

>  <COMMON_NAME>
HQP1351

>  <CAS_NUMBER>
1257628-77-5

>  <UNII>
KV1M7Q3CBP

>  <SYNONYMS>
Hqp-1351 free base; Hqp1351 free base; Olverembatinib

$$$$
