
 OpenBabel10282417072D

 67 70  0  0  0  0  0  0  0  0999 V2000
    2.5015    2.8752    0.0000 N   0  0  0  0  0  0  0  0  0  0  0  0
   -1.0705    2.4511    0.0000 N   0  0  0  0  0  0  0  0  0  0  0  0
   -1.0722    1.6267    0.0000 C   0  0  0  0  0  0  0  0  0  0  0  0
   -0.3558    1.2136    0.0000 N   0  0  0  0  0  0  0  0  0  0  0  0
    0.3588    1.6274    0.0000 C   0  0  0  0  0  0  0  0  0  0  0  0
    0.3587    2.4566    0.0000 C   0  0  0  0  0  0  0  0  0  0  0  0
   -0.3585    2.8641    0.0000 C   0  0  0  0  0  0  0  0  0  0  0  0
   -0.3561    0.3886    0.0000 C   0  0  0  0  0  0  0  0  0  0  0  0
    0.3595   -0.0241    0.0000 C   0  0  0  0  0  0  0  0  0  0  0  0
    0.3529   -0.8506    0.0000 C   0  0  0  0  0  0  0  0  0  0  0  0
    1.0674   -1.2632    0.0000 C   0  0  0  0  0  0  0  0  0  0  0  0
    1.7850   -0.8509    0.0000 C   0  0  0  0  0  0  0  0  0  0  0  0
    1.7813   -0.0193    0.0000 C   0  0  0  0  0  0  0  0  0  0  0  0
    1.0658    0.3876    0.0000 C   0  0  0  0  0  0  0  0  0  0  0  0
    2.4961   -1.2614    0.0000 C   0  0  0  0  0  0  0  0  0  0  0  0
    2.4957   -2.0876    0.0000 C   0  0  0  0  0  0  0  0  0  0  0  0
    3.2108   -2.4993    0.0000 C   0  0  0  0  0  0  0  0  0  0  0  0
    3.9275   -2.0855    0.0000 C   0  0  0  0  0  0  0  0  0  0  0  0
    3.9221   -1.2541    0.0000 C   0  0  0  0  0  0  0  0  0  0  0  0
    3.2101   -0.8484    0.0000 C   0  0  0  0  0  0  0  0  0  0  0  0
    1.8462   -2.5954    0.0000 C   0  0  0  0  0  0  0  0  0  0  0  0
    1.0532   -2.3662    0.0000 N   0  0  0  0  0  0  0  0  0  0  0  0
    0.5909   -3.0478    0.0000 N   0  0  0  0  0  0  0  0  0  0  0  0
    1.0969   -3.7002    0.0000 N   0  0  0  0  0  0  0  0  0  0  0  0
    1.8721   -3.4196    0.0000 N   0  0  0  0  0  0  0  0  0  0  0  0
    1.0758    1.2125    0.0000 O   0  0  0  0  0  0  0  0  0  0  0  0
   -1.7844    1.2151    0.0000 C   0  0  0  0  0  0  0  0  0  0  0  0
   -2.4998    1.6242    0.0000 C   0  0  0  0  0  0  0  0  0  0  0  0
   -3.2163    1.2126    0.0000 C   0  0  0  0  0  0  0  0  0  0  0  0
   -3.9275    1.6260    0.0000 C   0  0  0  0  0  0  0  0  0  0  0  0
   -0.3581    3.6891    0.0000 C   0  0  0  0  0  0  0  0  0  0  0  0
    1.0723    2.8733    0.0000 C   0  0  0  0  0  0  0  0  0  0  0  0
    1.7863    2.4606    0.0000 C   0  0  0  0  0  0  0  0  0  0  0  0
    1.7897    1.6357    0.0000 S   0  0  0  0  0  0  0  0  0  0  0  0
    3.2185    2.4644    0.0000 C   0  0  0  0  0  0  0  0  0  0  0  0
    2.4995    3.7002    0.0000 C   0  0  0  0  0  0  0  0  0  0  0  0
   -1.2827   -0.1465    0.0000 H   0  0  0  0  0  0  0  0  0  0  0  0
   -0.3558   -0.6814    0.0000 H   0  0  0  0  0  0  0  0  0  0  0  0
   -0.5429   -1.3630    0.0000 H   0  0  0  0  0  0  0  0  0  0  0  0
    1.0663   -2.2952    0.0000 H   0  0  0  0  0  0  0  0  0  0  0  0
    2.6722    0.5016    0.0000 H   0  0  0  0  0  0  0  0  0  0  0  0
    1.0603    1.4196    0.0000 H   0  0  0  0  0  0  0  0  0  0  0  0
    3.2114   -3.5313    0.0000 H   0  0  0  0  0  0  0  0  0  0  0  0
    4.8229   -2.5986    0.0000 H   0  0  0  0  0  0  0  0  0  0  0  0
    4.8127   -0.7327    0.0000 H   0  0  0  0  0  0  0  0  0  0  0  0
    3.2068    0.1836    0.0000 H   0  0  0  0  0  0  0  0  0  0  0  0
    2.6868   -3.9723    0.0000 H   0  0  0  0  0  0  0  0  0  0  0  0
   -1.7820    0.1451    0.0000 H   0  0  0  0  0  0  0  0  0  0  0  0
   -2.7093    0.6771    0.0000 H   0  0  0  0  0  0  0  0  0  0  0  0
   -2.5009    2.6942    0.0000 H   0  0  0  0  0  0  0  0  0  0  0  0
   -3.4261    2.1598    0.0000 H   0  0  0  0  0  0  0  0  0  0  0  0
   -3.2190    0.1426    0.0000 H   0  0  0  0  0  0  0  0  0  0  0  0
   -4.1444    0.6801    0.0000 H   0  0  0  0  0  0  0  0  0  0  0  0
   -3.9244    2.6960    0.0000 H   0  0  0  0  0  0  0  0  0  0  0  0
   -4.8557    1.0937    0.0000 H   0  0  0  0  0  0  0  0  0  0  0  0
   -4.8526    2.1637    0.0000 H   0  0  0  0  0  0  0  0  0  0  0  0
    0.5688    4.2237    0.0000 H   0  0  0  0  0  0  0  0  0  0  0  0
   -1.2845    4.2245    0.0000 H   0  0  0  0  0  0  0  0  0  0  0  0
   -0.3576    4.7591    0.0000 H   0  0  0  0  0  0  0  0  0  0  0  0
    1.0699    3.9433    0.0000 H   0  0  0  0  0  0  0  0  0  0  0  0
    1.9985    3.4091    0.0000 H   0  0  0  0  0  0  0  0  0  0  0  0
    3.2220    1.3944    0.0000 H   0  0  0  0  0  0  0  0  0  0  0  0
    4.1434    3.0025    0.0000 H   0  0  0  0  0  0  0  0  0  0  0  0
    4.1469    1.9325    0.0000 H   0  0  0  0  0  0  0  0  0  0  0  0
    3.4248    4.2374    0.0000 H   0  0  0  0  0  0  0  0  0  0  0  0
    1.5716    4.2330    0.0000 H   0  0  0  0  0  0  0  0  0  0  0  0
    2.4969    4.7702    0.0000 H   0  0  0  0  0  0  0  0  0  0  0  0
  1 35  1  0  0  0  0
  1 36  1  0  0  0  0
  2  3  2  0  0  0  0
  3  4  1  0  0  0  0
  3 27  1  0  0  0  0
  4  5  1  0  0  0  0
  4  8  1  0  0  0  0
  5  6  1  0  0  0  0
  5 26  2  0  0  0  0
  6  7  2  0  0  0  0
  6 32  1  0  0  0  0
  7  2  1  0  0  0  0
  7 31  1  0  0  0  0
  8  9  1  0  0  0  0
  8 37  1  0  0  0  0
  8 38  1  0  0  0  0
  9 10  2  0  0  0  0
 10 11  1  0  0  0  0
 10 39  1  0  0  0  0
 11 12  2  0  0  0  0
 11 40  1  0  0  0  0
 12 13  1  0  0  0  0
 12 15  1  0  0  0  0
 13 14  2  0  0  0  0
 13 41  1  0  0  0  0
 14  9  1  0  0  0  0
 14 42  1  0  0  0  0
 15 16  2  0  0  0  0
 16 17  1  0  0  0  0
 16 21  1  0  0  0  0
 17 18  2  0  0  0  0
 17 43  1  0  0  0  0
 18 19  1  0  0  0  0
 18 44  1  0  0  0  0
 19 20  2  0  0  0  0
 19 45  1  0  0  0  0
 20 15  1  0  0  0  0
 20 46  1  0  0  0  0
 21 22  2  0  0  0  0
 22 23  1  0  0  0  0
 23 24  2  0  0  0  0
 24 25  1  0  0  0  0
 25 21  1  0  0  0  0
 25 47  1  0  0  0  0
 27 28  1  0  0  0  0
 27 48  1  0  0  0  0
 27 49  1  0  0  0  0
 28 29  1  0  0  0  0
 28 50  1  0  0  0  0
 28 51  1  0  0  0  0
 29 30  1  0  0  0  0
 29 52  1  0  0  0  0
 29 53  1  0  0  0  0
 30 54  1  0  0  0  0
 30 55  1  0  0  0  0
 30 56  1  0  0  0  0
 31 57  1  0  0  0  0
 31 58  1  0  0  0  0
 31 59  1  0  0  0  0
 32 33  1  0  0  0  0
 32 60  1  0  0  0  0
 32 61  1  0  0  0  0
 33  1  1  0  0  0  0
 33 34  2  0  0  0  0
 35 62  1  0  0  0  0
 35 63  1  0  0  0  0
 35 64  1  0  0  0  0
 36 65  1  0  0  0  0
 36 66  1  0  0  0  0
 36 67  1  0  0  0  0
M  END
>  <DRUGBANK_ID>
DB09279

>  <COMMON_NAME>
Fimasartan

>  <CAS_NUMBER>
247257-48-3

>  <UNII>
P58222188P

>  <SYNONYMS>
Fimasartan

$$$$
