
 OpenBabel10282417072D

 62 61  0  0  0  0  0  0  0  0999 V2000
    4.2115    0.7717    0.0000 Sm  0  1  0  0  0  0  0  0  0  0  0  0
   -0.5688   -1.4627    0.0000 O   0  0  0  0  0  0  0  0  0  0  0  0
   -0.7823   -0.6658    0.0000 P   0  0  0  0  0  0  0  0  0  0  0  0
   -1.5792   -0.8793    0.0000 O   0  0  0  0  0  0  0  0  0  0  0  0
    0.0146   -0.4523    0.0000 O   0  0  0  0  0  0  0  0  0  0  0  0
   -0.9959    0.1311    0.0000 C   0  0  0  0  0  0  0  0  0  0  0  0
   -0.4125    0.7145    0.0000 N   0  0  0  0  0  0  0  0  0  0  0  0
   -0.0000   -0.0000    0.0000 C   0  0  0  0  0  0  0  0  0  0  0  0
    0.8250    0.0000    0.0000 C   0  0  0  0  0  0  0  0  0  0  0  0
    1.2375    0.7145    0.0000 N   0  0  0  0  0  0  0  0  0  0  0  0
    1.8209    0.1311    0.0000 C   0  0  0  0  0  0  0  0  0  0  0  0
    2.6178    0.3446    0.0000 P   0  0  3  0  0  0  0  0  0  0  0  0
    2.8313   -0.4523    0.0000 O   0  0  0  0  0  0  0  0  0  0  0  0
    3.4146    0.5582    0.0000 O   0  5  0  0  0  0  0  0  0  0  0  0
    2.4042    1.1415    0.0000 O   0  0  0  0  0  0  0  0  0  0  0  0
    1.9520    1.1270    0.0000 C   0  0  0  0  0  0  0  0  0  0  0  0
    1.9520    1.9520    0.0000 C   0  0  0  0  0  0  0  0  0  0  0  0
    1.2375    2.3645    0.0000 N   0  0  0  0  0  0  0  0  0  0  0  0
    1.8209    2.9478    0.0000 C   0  0  0  0  0  0  0  0  0  0  0  0
    2.6178    2.7343    0.0000 P   0  0  3  0  0  0  0  0  0  0  0  0
    2.4042    1.9374    0.0000 O   0  0  0  0  0  0  0  0  0  0  0  0
    2.8313    3.5312    0.0000 O   0  5  0  0  0  0  0  0  0  0  0  0
    3.4146    2.5208    0.0000 O   0  0  0  0  0  0  0  0  0  0  0  0
    0.8250    3.0789    0.0000 C   0  0  0  0  0  0  0  0  0  0  0  0
   -0.0000    3.0789    0.0000 C   0  0  0  0  0  0  0  0  0  0  0  0
   -0.4125    2.3645    0.0000 N   0  0  0  0  0  0  0  0  0  0  0  0
   -0.9959    2.9478    0.0000 C   0  0  0  0  0  0  0  0  0  0  0  0
   -1.7928    2.7343    0.0000 P   0  0  3  0  0  0  0  0  0  0  0  0
   -2.5896    2.5208    0.0000 O   0  0  0  0  0  0  0  0  0  0  0  0
   -2.0063    3.5312    0.0000 O   0  5  0  0  0  0  0  0  0  0  0  0
   -1.5792    1.9374    0.0000 O   0  0  0  0  0  0  0  0  0  0  0  0
   -1.1270    1.9520    0.0000 C   0  0  0  0  0  0  0  0  0  0  0  0
   -1.1270    1.1270    0.0000 C   0  0  0  0  0  0  0  0  0  0  0  0
   -1.2547   -2.1486    0.0000 H   0  0  0  0  0  0  0  0  0  0  0  0
   -2.2651   -0.1934    0.0000 H   0  0  0  0  0  0  0  0  0  0  0  0
   -2.0295    0.4080    0.0000 H   0  0  0  0  0  0  0  0  0  0  0  0
   -1.2729    1.1646    0.0000 H   0  0  0  0  0  0  0  0  0  0  0  0
   -0.5350   -0.9266    0.0000 H   0  0  0  0  0  0  0  0  0  0  0  0
    0.5350   -0.9266    0.0000 H   0  0  0  0  0  0  0  0  0  0  0  0
    1.3600   -0.9266    0.0000 H   0  0  0  0  0  0  0  0  0  0  0  0
    1.8950    0.0000    0.0000 H   0  0  0  0  0  0  0  0  0  0  0  0
    1.5439   -0.9024    0.0000 H   0  0  0  0  0  0  0  0  0  0  0  0
    2.5775   -0.6255    0.0000 H   0  0  0  0  0  0  0  0  0  0  0  0
    2.1454   -1.1382    0.0000 H   0  0  0  0  0  0  0  0  0  0  0  0
    2.8786    0.5920    0.0000 H   0  0  0  0  0  0  0  0  0  0  0  0
    2.8786    1.6620    0.0000 H   0  0  0  0  0  0  0  0  0  0  0  0
    2.8786    2.4870    0.0000 H   0  0  0  0  0  0  0  0  0  0  0  0
    1.9520    3.0220    0.0000 H   0  0  0  0  0  0  0  0  0  0  0  0
    1.5440    3.9813    0.0000 H   0  0  0  0  0  0  0  0  0  0  0  0
    2.5775    3.7044    0.0000 H   0  0  0  0  0  0  0  0  0  0  0  0
    1.4672    1.6864    0.0000 H   0  0  0  0  0  0  0  0  0  0  0  0
    1.3600    4.0056    0.0000 H   0  0  0  0  0  0  0  0  0  0  0  0
    0.2900    4.0055    0.0000 H   0  0  0  0  0  0  0  0  0  0  0  0
   -0.5350    4.0056    0.0000 H   0  0  0  0  0  0  0  0  0  0  0  0
   -1.0700    3.0789    0.0000 H   0  0  0  0  0  0  0  0  0  0  0  0
   -0.7190    3.9813    0.0000 H   0  0  0  0  0  0  0  0  0  0  0  0
   -1.7525    3.7044    0.0000 H   0  0  0  0  0  0  0  0  0  0  0  0
   -3.2755    3.2067    0.0000 H   0  0  0  0  0  0  0  0  0  0  0  0
   -2.0536    2.4870    0.0000 H   0  0  0  0  0  0  0  0  0  0  0  0
   -2.0536    1.4170    0.0000 H   0  0  0  0  0  0  0  0  0  0  0  0
   -2.0536    0.5920    0.0000 H   0  0  0  0  0  0  0  0  0  0  0  0
   -1.1270    0.0570    0.0000 H   0  0  0  0  0  0  0  0  0  0  0  0
  2  3  1  0  0  0  0
  2 34  1  0  0  0  0
  3  4  1  0  0  0  0
  3  5  2  0  0  0  0
  3  6  1  0  0  0  0
  4 35  1  0  0  0  0
  6  7  1  0  0  0  0
  6 36  1  0  0  0  0
  6 37  1  0  0  0  0
  7  8  1  0  0  0  0
  7 33  1  0  0  0  0
  8  9  1  0  0  0  0
  8 38  1  0  0  0  0
  8 39  1  0  0  0  0
  9 10  1  0  0  0  0
  9 40  1  0  0  0  0
  9 41  1  0  0  0  0
 10 11  1  0  0  0  0
 10 16  1  0  0  0  0
 11 12  1  0  0  0  0
 11 42  1  0  0  0  0
 11 43  1  0  0  0  0
 12 13  1  0  0  0  0
 12 14  1  0  0  0  0
 12 15  2  0  0  0  0
 13 44  1  0  0  0  0
 16 17  1  0  0  0  0
 16 45  1  0  0  0  0
 16 46  1  0  0  0  0
 17 18  1  0  0  0  0
 17 47  1  0  0  0  0
 17 48  1  0  0  0  0
 18 19  1  0  0  0  0
 18 24  1  0  0  0  0
 19 20  1  0  0  0  0
 19 49  1  0  0  0  0
 19 50  1  0  0  0  0
 20 21  1  0  0  0  0
 20 22  1  0  0  0  0
 20 23  2  0  0  0  0
 21 51  1  0  0  0  0
 24 25  1  0  0  0  0
 24 52  1  0  0  0  0
 24 53  1  0  0  0  0
 25 26  1  0  0  0  0
 25 54  1  0  0  0  0
 25 55  1  0  0  0  0
 26 27  1  0  0  0  0
 26 32  1  0  0  0  0
 27 28  1  0  0  0  0
 27 56  1  0  0  0  0
 27 57  1  0  0  0  0
 28 29  1  0  0  0  0
 28 30  1  0  0  0  0
 28 31  2  0  0  0  0
 29 58  1  0  0  0  0
 32 33  1  0  0  0  0
 32 59  1  0  0  0  0
 32 60  1  0  0  0  0
 33 61  1  0  0  0  0
 33 62  1  0  0  0  0
M  ISO  1   1 153
M  CHG  4   1   3  14  -1  22  -1  30  -1
M  END
>  <DRUGBANK_ID>
DB18484

>  <COMMON_NAME>
DOTMP SM-153

>  <CAS_NUMBER>
633308-21-1

>  <UNII>
S5NN2E9ZKF

>  <SYNONYMS>
153sm-1,4,7,10-tetraazacyclododecane-1,4,7,10- tetramethylene-phosphonic acid; 153sm-dotmp; Cyclosam; Samarate(5-)-153sm, ((((1,4,7,10-tetraazacyclododecane-1,4,7,10-tetrayl-.kappa.n1,.kappa.n4,.kappa.n7,.kappa.n10)tetrakis(methylene))tetrakis(phosphonato-.kappa.o))(8-))-, pentahydrogen; Samarium-153 dotmp

$$$$
