
 OpenBabel10282417072D

 48 51  0  0  0  0  0  0  0  0999 V2000
   -1.1020   -0.5458    0.0000 C   0  0  0  0  0  0  0  0  0  0  0  0
    1.0354    0.6916    0.0000 C   0  0  1  0  0  0  0  0  0  0  0  0
    1.0354   -0.1333    0.0000 C   0  0  2  0  0  0  0  0  0  0  0  0
   -0.3896   -0.1291    0.0000 C   0  0  2  0  0  0  0  0  0  0  0  0
   -1.0978   -1.3708    0.0000 C   0  0  0  0  0  0  0  0  0  0  0  0
    0.3228   -0.5333    0.0000 C   0  0  1  0  0  0  0  0  0  0  0  0
    1.8146    0.9541    0.0000 C   0  0  2  0  0  0  0  0  0  0  0  0
    2.5271    1.3666    0.0000 C   0  0  0  0  0  0  0  0  0  0  0  0
    0.3228    1.1041    0.0000 C   0  0  0  0  0  0  0  0  0  0  0  0
   -0.3979    0.6916    0.0000 C   0  0  0  0  0  0  0  0  0  0  0  0
   -1.8146   -0.1209    0.0000 C   0  0  0  0  0  0  0  0  0  0  0  0
    0.3270   -1.3666    0.0000 C   0  0  0  0  0  0  0  0  0  0  0  0
    1.8228   -0.3833    0.0000 C   0  0  0  0  0  0  0  0  0  0  0  0
    3.2396    1.7833    0.0000 C   0  0  0  0  0  0  0  0  0  0  0  0
   -1.8146   -1.7709    0.0000 C   0  0  0  0  0  0  0  0  0  0  0  0
   -0.3896   -1.7791    0.0000 C   0  0  0  0  0  0  0  0  0  0  0  0
    2.3021    0.2833    0.0000 C   0  0  0  0  0  0  0  0  0  0  0  0
   -2.5229   -1.3708    0.0000 C   0  0  0  0  0  0  0  0  0  0  0  0
   -3.2396   -1.7833    0.0000 O   0  0  0  0  0  0  0  0  0  0  0  0
   -2.5229   -0.5458    0.0000 C   0  0  0  0  0  0  0  0  0  0  0  0
    1.6021    1.7541    0.0000 O   0  0  0  0  0  0  0  0  0  0  0  0
    1.0271    1.5166    0.0000 C   0  0  0  0  0  0  0  0  0  0  0  0
   -0.3979   -0.9459    0.0000 H   0  0  0  0  0  0  0  0  0  0  0  0
    1.0271   -0.9583    0.0000 H   0  0  0  0  0  0  0  0  0  0  0  0
    0.3146    0.2916    0.0000 H   0  0  0  0  0  0  0  0  0  0  0  0
    0.3254    2.1741    0.0000 H   0  0  0  0  0  0  0  0  0  0  0  0
   -0.6022    1.6420    0.0000 H   0  0  0  0  0  0  0  0  0  0  0  0
   -1.3262    1.2236    0.0000 H   0  0  0  0  0  0  0  0  0  0  0  0
   -1.3210    0.1505    0.0000 H   0  0  0  0  0  0  0  0  0  0  0  0
   -1.8160    0.9491    0.0000 H   0  0  0  0  0  0  0  0  0  0  0  0
   -2.7460    0.4057    0.0000 H   0  0  0  0  0  0  0  0  0  0  0  0
    1.2546   -1.8999    0.0000 H   0  0  0  0  0  0  0  0  0  0  0  0
    1.2518   -0.8284    0.0000 H   0  0  0  0  0  0  0  0  0  0  0  0
    2.1594   -1.3990    0.0000 H   0  0  0  0  0  0  0  0  0  0  0  0
    2.8805   -0.5450    0.0000 H   0  0  0  0  0  0  0  0  0  0  0  0
    4.0976    2.2851    0.0000 H   0  0  0  0  0  0  0  0  0  0  0  0
   -1.8173   -2.8409    0.0000 H   0  0  0  0  0  0  0  0  0  0  0  0
   -2.7394   -2.3091    0.0000 H   0  0  0  0  0  0  0  0  0  0  0  0
   -0.3900   -2.8491    0.0000 H   0  0  0  0  0  0  0  0  0  0  0  0
   -1.3162   -2.3142    0.0000 H   0  0  0  0  0  0  0  0  0  0  0  0
    3.3721    0.2860    0.0000 H   0  0  0  0  0  0  0  0  0  0  0  0
    2.7866    1.2373    0.0000 H   0  0  0  0  0  0  0  0  0  0  0  0
   -3.4540   -0.0186    0.0000 H   0  0  0  0  0  0  0  0  0  0  0  0
   -2.5363    0.5241    0.0000 H   0  0  0  0  0  0  0  0  0  0  0  0
    2.2895    2.4385    0.0000 H   0  0  0  0  0  0  0  0  0  0  0  0
    1.9483    2.0609    0.0000 H   0  0  0  0  0  0  0  0  0  0  0  0
    0.0951    2.0423    0.0000 H   0  0  0  0  0  0  0  0  0  0  0  0
    1.0163    2.5865    0.0000 H   0  0  0  0  0  0  0  0  0  0  0  0
  2  9  1  0  0  0  0
  2 22  1  1  0  0  0
  3  6  1  0  0  0  0
  3 24  1  6  0  0  0
  3  2  1  0  0  0  0
  4  1  1  0  0  0  0
  4 23  1  6  0  0  0
  5  1  2  0  0  0  0
  6  4  1  0  0  0  0
  6 25  1  1  0  0  0
  6 12  1  0  0  0  0
  7  2  1  0  0  0  0
  7  8  1  6  0  0  0
  7 21  1  0  0  0  0
  9 10  1  0  0  0  0
  9 26  1  0  0  0  0
  9 27  1  0  0  0  0
 10  4  1  0  0  0  0
 10 28  1  0  0  0  0
 10 29  1  0  0  0  0
 11  1  1  0  0  0  0
 11 30  1  0  0  0  0
 11 31  1  0  0  0  0
 12 16  1  0  0  0  0
 12 32  1  0  0  0  0
 12 33  1  0  0  0  0
 13  3  1  0  0  0  0
 13 34  1  0  0  0  0
 13 35  1  0  0  0  0
 14  8  3  0  0  0  0
 14 36  1  0  0  0  0
 15  5  1  0  0  0  0
 15 37  1  0  0  0  0
 15 38  1  0  0  0  0
 16  5  1  0  0  0  0
 16 39  1  0  0  0  0
 16 40  1  0  0  0  0
 17 13  1  0  0  0  0
 17  7  1  0  0  0  0
 17 41  1  0  0  0  0
 17 42  1  0  0  0  0
 18 20  1  0  0  0  0
 18 15  1  0  0  0  0
 19 18  2  0  0  0  0
 20 11  1  0  0  0  0
 20 43  1  0  0  0  0
 20 44  1  0  0  0  0
 21 45  1  0  0  0  0
 22 46  1  0  0  0  0
 22 47  1  0  0  0  0
 22 48  1  0  0  0  0
M  END
>  <DRUGBANK_ID>
DB09371

>  <COMMON_NAME>
Norethynodrel

>  <CAS_NUMBER>
68-23-5

>  <UNII>
88181ACA0M

>  <SYNONYMS>
Norethynodrel; Noretynodrel; Noretynodrelum

$$$$
