
 OpenBabel10282417072D

 40 41  0  0  0  0  0  0  0  0999 V2000
   -1.8414   -1.5395    0.0000 C   0  0  0  0  0  0  0  0  0  0  0  0
   -1.4289   -0.8250    0.0000 C   0  0  3  0  0  0  0  0  0  0  0  0
   -0.7145   -1.2375    0.0000 C   0  0  0  0  0  0  0  0  0  0  0  0
   -0.7145   -2.0625    0.0000 C   0  0  0  0  0  0  0  0  0  0  0  0
    0.0000   -2.4750    0.0000 C   0  0  0  0  0  0  0  0  0  0  0  0
    0.0000   -3.3000    0.0000 C   0  0  0  0  0  0  0  0  0  0  0  0
   -0.7145   -3.7125    0.0000 C   0  0  0  0  0  0  0  0  0  0  0  0
   -1.4289   -3.3000    0.0000 C   0  0  0  0  0  0  0  0  0  0  0  0
   -1.4289   -2.4750    0.0000 C   0  0  0  0  0  0  0  0  0  0  0  0
   -2.1434   -0.4125    0.0000 C   0  0  0  0  0  0  0  0  0  0  0  0
   -2.8579   -0.8250    0.0000 C   0  0  0  0  0  0  0  0  0  0  0  0
   -3.5724   -0.4125    0.0000 C   0  0  0  0  0  0  0  0  0  0  0  0
   -3.5724    0.4125    0.0000 C   0  0  0  0  0  0  0  0  0  0  0  0
   -2.8579    0.8250    0.0000 C   0  0  0  0  0  0  0  0  0  0  0  0
   -2.1434    0.4125    0.0000 C   0  0  0  0  0  0  0  0  0  0  0  0
   -1.0164   -0.1105    0.0000 N   0  0  0  0  0  0  0  0  0  0  0  0
   -0.1914   -0.1105    0.0000 C   0  0  0  0  0  0  0  0  0  0  0  0
    0.2211   -0.8250    0.0000 O   0  0  0  0  0  0  0  0  0  0  0  0
    0.2211    0.6039    0.0000 C   0  0  0  0  0  0  0  0  0  0  0  0
    1.0461    0.6039    0.0000 N   0  0  0  0  0  0  0  0  0  0  0  0
   -2.9114   -1.5395    0.0000 H   0  0  0  0  0  0  0  0  0  0  0  0
   -1.3064   -2.4661    0.0000 H   0  0  0  0  0  0  0  0  0  0  0  0
   -2.3764   -2.4662    0.0000 H   0  0  0  0  0  0  0  0  0  0  0  0
    0.2122   -0.7025    0.0000 H   0  0  0  0  0  0  0  0  0  0  0  0
    0.2121   -1.7725    0.0000 H   0  0  0  0  0  0  0  0  0  0  0  0
    0.8937   -1.9590    0.0000 H   0  0  0  0  0  0  0  0  0  0  0  0
    0.8937   -3.8160    0.0000 H   0  0  0  0  0  0  0  0  0  0  0  0
   -0.7145   -4.7445    0.0000 H   0  0  0  0  0  0  0  0  0  0  0  0
   -2.3226   -3.8160    0.0000 H   0  0  0  0  0  0  0  0  0  0  0  0
   -2.3226   -1.9590    0.0000 H   0  0  0  0  0  0  0  0  0  0  0  0
   -2.8579   -1.8570    0.0000 H   0  0  0  0  0  0  0  0  0  0  0  0
   -4.4661   -0.9285    0.0000 H   0  0  0  0  0  0  0  0  0  0  0  0
   -4.4661    0.9285    0.0000 H   0  0  0  0  0  0  0  0  0  0  0  0
   -2.8579    1.8570    0.0000 H   0  0  0  0  0  0  0  0  0  0  0  0
   -1.2497    0.9285    0.0000 H   0  0  0  0  0  0  0  0  0  0  0  0
   -1.5087    0.7421    0.0000 H   0  0  0  0  0  0  0  0  0  0  0  0
   -0.3139    1.5306    0.0000 H   0  0  0  0  0  0  0  0  0  0  0  0
    0.7561    1.5305    0.0000 H   0  0  0  0  0  0  0  0  0  0  0  0
    1.5561   -0.2794    0.0000 H   0  0  0  0  0  0  0  0  0  0  0  0
    1.5561    1.4872    0.0000 H   0  0  0  0  0  0  0  0  0  0  0  0
  1  2  1  0  0  0  0
  1 21  1  0  0  0  0
  1 22  1  0  0  0  0
  1 23  1  0  0  0  0
  2  3  1  0  0  0  0
  2 10  1  0  0  0  0
  2 16  1  0  0  0  0
  3  4  1  0  0  0  0
  3 24  1  0  0  0  0
  3 25  1  0  0  0  0
  4  5  2  0  0  0  0
  4  9  1  0  0  0  0
  5  6  1  0  0  0  0
  5 26  1  0  0  0  0
  6  7  2  0  0  0  0
  6 27  1  0  0  0  0
  7  8  1  0  0  0  0
  7 28  1  0  0  0  0
  8  9  2  0  0  0  0
  8 29  1  0  0  0  0
  9 30  1  0  0  0  0
 10 11  2  0  0  0  0
 10 15  1  0  0  0  0
 11 12  1  0  0  0  0
 11 31  1  0  0  0  0
 12 13  2  0  0  0  0
 12 32  1  0  0  0  0
 13 14  1  0  0  0  0
 13 33  1  0  0  0  0
 14 15  2  0  0  0  0
 14 34  1  0  0  0  0
 15 35  1  0  0  0  0
 16 17  1  0  0  0  0
 16 36  1  0  0  0  0
 17 18  2  0  0  0  0
 17 19  1  0  0  0  0
 19 20  1  0  0  0  0
 19 37  1  0  0  0  0
 19 38  1  0  0  0  0
 20 39  1  0  0  0  0
 20 40  1  0  0  0  0
M  END
>  <DRUGBANK_ID>
DB06458

>  <COMMON_NAME>
Remacemide

>  <CAS_NUMBER>
128298-28-2

>  <UNII>
EH6763C1IC

>  <SYNONYMS>
Remacemide

$$$$
