CX6
 OpenBabel10282417072D

 31 34  0  0  0  0  0  0  0  0999 V2000
    0.8284    0.9170    0.0000 O   0  0  0  0  0  0  0  0  0  0  0  0
    0.8284   -1.5580    0.0000 O   0  0  0  0  0  0  0  0  0  0  0  0
    1.5429   -0.3205    0.0000 N   0  0  0  0  0  0  0  0  0  0  0  0
    1.5429    0.5045    0.0000 C   0  0  1  0  0  0  0  0  0  0  0  0
    2.3275    0.7594    0.0000 C   0  0  0  0  0  0  0  0  0  0  0  0
    2.8125    0.0920    0.0000 C   0  0  0  0  0  0  0  0  0  0  0  0
    2.3275   -0.5755    0.0000 C   0  0  0  0  0  0  0  0  0  0  0  0
    0.8284   -0.7330    0.0000 C   0  0  0  0  0  0  0  0  0  0  0  0
    0.1140   -0.3205    0.0000 C   0  0  0  0  0  0  0  0  0  0  0  0
    0.1140    0.5045    0.0000 C   0  0  0  0  0  0  0  0  0  0  0  0
   -0.6005    0.9170    0.0000 C   0  0  0  0  0  0  0  0  0  0  0  0
   -1.3150    0.5045    0.0000 C   0  0  0  0  0  0  0  0  0  0  0  0
   -1.3150   -0.3205    0.0000 C   0  0  0  0  0  0  0  0  0  0  0  0
   -0.6005   -0.7330    0.0000 C   0  0  0  0  0  0  0  0  0  0  0  0
   -2.0294    0.9170    0.0000 O   0  0  0  0  0  0  0  0  0  0  0  0
   -2.0294   -0.7330    0.0000 O   0  0  0  0  0  0  0  0  0  0  0  0
   -2.7439   -0.3205    0.0000 C   0  0  0  0  0  0  0  0  0  0  0  0
   -2.7439    0.5045    0.0000 C   0  0  0  0  0  0  0  0  0  0  0  0
    1.6040    1.0852    0.0000 H   0  0  0  0  0  0  0  0  0  0  0  0
    2.6581    1.7770    0.0000 H   0  0  0  0  0  0  0  0  0  0  0  0
    3.3843    0.9269    0.0000 H   0  0  0  0  0  0  0  0  0  0  0  0
    3.8825    0.0920    0.0000 H   0  0  0  0  0  0  0  0  0  0  0  0
    3.2983   -0.8614    0.0000 H   0  0  0  0  0  0  0  0  0  0  0  0
    2.6581   -1.5931    0.0000 H   0  0  0  0  0  0  0  0  0  0  0  0
    3.3843   -0.7429    0.0000 H   0  0  0  0  0  0  0  0  0  0  0  0
   -0.6005    1.9490    0.0000 H   0  0  0  0  0  0  0  0  0  0  0  0
   -0.6005   -1.7650    0.0000 H   0  0  0  0  0  0  0  0  0  0  0  0
   -3.6705   -0.8555    0.0000 H   0  0  0  0  0  0  0  0  0  0  0  0
   -3.6705    0.2145    0.0000 H   0  0  0  0  0  0  0  0  0  0  0  0
   -3.6705    1.0395    0.0000 H   0  0  0  0  0  0  0  0  0  0  0  0
   -3.6705   -0.0305    0.0000 H   0  0  0  0  0  0  0  0  0  0  0  0
  1  4  1  0  0  0  0
  1 10  1  0  0  0  0
  2  8  2  0  0  0  0
  3  4  1  0  0  0  0
  3  7  1  0  0  0  0
  3  8  1  0  0  0  0
  4  5  1  0  0  0  0
  4 19  1  1  0  0  0
  5  6  1  0  0  0  0
  5 20  1  0  0  0  0
  5 21  1  0  0  0  0
  6  7  1  0  0  0  0
  6 22  1  0  0  0  0
  6 23  1  0  0  0  0
  7 24  1  0  0  0  0
  7 25  1  0  0  0  0
  8  9  1  0  0  0  0
  9 10  2  0  0  0  0
  9 14  1  0  0  0  0
 10 11  1  0  0  0  0
 11 12  2  0  0  0  0
 11 26  1  0  0  0  0
 12 13  1  0  0  0  0
 12 15  1  0  0  0  0
 13 14  2  0  0  0  0
 13 16  1  0  0  0  0
 14 27  1  0  0  0  0
 15 18  1  0  0  0  0
 16 17  1  0  0  0  0
 17 18  1  0  0  0  0
 17 28  1  0  0  0  0
 17 29  1  0  0  0  0
 18 30  1  0  0  0  0
 18 31  1  0  0  0  0
M  END
>  <DRUGBANK_ID>
DB07598

>  <COMMON_NAME>
2,3,6A,7,8,9-HEXAHYDRO-11H-[1,4]DIOXINO[2,3-G]PYRROLO[2,1-B][1,3]BENZOXAZIN-11-ONE

$$$$
