
 OpenBabel10282417072D

 57 27  0  0  0  0  0  0  0  0999 V2000
    0.1375    0.2382    0.0000 C   0  0  0  0  0  0  0  0  0  0  0  0
    0.5500    0.9526    0.0000 O   0  0  0  0  0  0  0  0  0  0  0  0
    0.5500   -0.4763    0.0000 O   0  5  0  0  0  0  0  0  0  0  0  0
   -0.6875    0.2382    0.0000 O   0  5  0  0  0  0  0  0  0  0  0  0
    3.3196    0.0000    0.0000 O   0  0  0  0  0  0  0  0  0  0  0  0
    5.6768    0.0000    0.0000 O   0  0  0  0  0  0  0  0  0  0  0  0
    8.0339    0.0000    0.0000 O   0  0  0  0  0  0  0  0  0  0  0  0
   10.3911    0.0000    0.0000 O   0  0  0  0  0  0  0  0  0  0  0  0
    0.0000   -2.8408    0.0000 O   0  0  0  0  0  0  0  0  0  0  0  0
    2.3571   -2.8408    0.0000 O   0  0  0  0  0  0  0  0  0  0  0  0
    4.7143   -2.8408    0.0000 O   0  0  0  0  0  0  0  0  0  0  0  0
    7.0714   -2.8408    0.0000 O   0  0  0  0  0  0  0  0  0  0  0  0
    9.4286   -2.8408    0.0000 O   0  0  0  0  0  0  0  0  0  0  0  0
    0.0000   -4.4908    0.0000 O   0  0  0  0  0  0  0  0  0  0  0  0
    2.3571   -4.4908    0.0000 O   0  0  0  0  0  0  0  0  0  0  0  0
    4.7143   -4.4908    0.0000 O   0  0  0  0  0  0  0  0  0  0  0  0
    8.0143   -4.4908    0.0000 O   0  6  0  0  0  0  0  0  0  0  0  0
   11.3143   -4.4908    0.0000 O   0  6  0  0  0  0  0  0  0  0  0  0
    0.4125   -6.1408    0.0000 O   0  6  0  0  0  0  0  0  0  0  0  0
    3.7125   -6.1408    0.0000 O   0  6  0  0  0  0  0  0  0  0  0  0
    7.0125   -6.1408    0.0000 O   0  6  0  0  0  0  0  0  0  0  0  0
   10.3125   -6.1408    0.0000 O   0  6  0  0  0  0  0  0  0  0  0  0
   12.6696   -6.1408    0.0000 O   0  6  0  0  0  0  0  0  0  0  0  0
    0.0000   -7.7908    0.0000 O   0  6  0  0  0  0  0  0  0  0  0  0
    1.1196   -7.7908    0.0000 O   0  6  0  0  0  0  0  0  0  0  0  0
    0.9625   -1.1908    0.0000 Mg  0  2  0  0  0  0  0  0  0  0  0  0
   -1.5125    0.2382    0.0000 Mg  0  2  0  0  0  0  0  0  0  0  0  0
    7.1893   -4.4908    0.0000 Mg  0  2  0  0  0  0  0  0  0  0  0  0
   10.4893   -4.4908    0.0000 Mg  0  2  0  0  0  0  0  0  0  0  0  0
   -0.4125   -6.1408    0.0000 Mg  0  2  0  0  0  0  0  0  0  0  0  0
    2.8875   -6.1408    0.0000 Mg  0  2  0  0  0  0  0  0  0  0  0  0
    6.1875   -6.1408    0.0000 Al  0  1  0  0  0  0  0  0  0  0  0  0
    9.4875   -6.1408    0.0000 Al  0  1  0  0  0  0  0  0  0  0  0  0
    4.2896    0.0000    0.0000 H   0  0  0  0  0  0  0  0  0  0  0  0
    2.8346    0.8400    0.0000 H   0  0  0  0  0  0  0  0  0  0  0  0
    6.6468    0.0000    0.0000 H   0  0  0  0  0  0  0  0  0  0  0  0
    5.1918    0.8400    0.0000 H   0  0  0  0  0  0  0  0  0  0  0  0
    9.0039    0.0000    0.0000 H   0  0  0  0  0  0  0  0  0  0  0  0
    7.5489    0.8400    0.0000 H   0  0  0  0  0  0  0  0  0  0  0  0
   11.3611    0.0000    0.0000 H   0  0  0  0  0  0  0  0  0  0  0  0
    9.9061    0.8400    0.0000 H   0  0  0  0  0  0  0  0  0  0  0  0
    0.9700   -2.8408    0.0000 H   0  0  0  0  0  0  0  0  0  0  0  0
   -0.4850   -2.0008    0.0000 H   0  0  0  0  0  0  0  0  0  0  0  0
    3.3271   -2.8408    0.0000 H   0  0  0  0  0  0  0  0  0  0  0  0
    1.8721   -2.0008    0.0000 H   0  0  0  0  0  0  0  0  0  0  0  0
    5.6843   -2.8408    0.0000 H   0  0  0  0  0  0  0  0  0  0  0  0
    4.2293   -2.0008    0.0000 H   0  0  0  0  0  0  0  0  0  0  0  0
    8.0414   -2.8408    0.0000 H   0  0  0  0  0  0  0  0  0  0  0  0
    6.5864   -2.0008    0.0000 H   0  0  0  0  0  0  0  0  0  0  0  0
   10.3986   -2.8408    0.0000 H   0  0  0  0  0  0  0  0  0  0  0  0
    8.9436   -2.0008    0.0000 H   0  0  0  0  0  0  0  0  0  0  0  0
    0.9700   -4.4908    0.0000 H   0  0  0  0  0  0  0  0  0  0  0  0
   -0.4850   -3.6508    0.0000 H   0  0  0  0  0  0  0  0  0  0  0  0
    3.3271   -4.4908    0.0000 H   0  0  0  0  0  0  0  0  0  0  0  0
    1.8721   -3.6508    0.0000 H   0  0  0  0  0  0  0  0  0  0  0  0
    5.6843   -4.4908    0.0000 H   0  0  0  0  0  0  0  0  0  0  0  0
    4.2293   -3.6508    0.0000 H   0  0  0  0  0  0  0  0  0  0  0  0
  1  2  2  0  0  0  0
  1  3  1  0  0  0  0
  1  4  1  0  0  0  0
  5 34  1  0  0  0  0
  5 35  1  0  0  0  0
  6 36  1  0  0  0  0
  6 37  1  0  0  0  0
  7 38  1  0  0  0  0
  7 39  1  0  0  0  0
  8 40  1  0  0  0  0
  8 41  1  0  0  0  0
  9 42  1  0  0  0  0
  9 43  1  0  0  0  0
 10 44  1  0  0  0  0
 10 45  1  0  0  0  0
 11 46  1  0  0  0  0
 11 47  1  0  0  0  0
 12 48  1  0  0  0  0
 12 49  1  0  0  0  0
 13 50  1  0  0  0  0
 13 51  1  0  0  0  0
 14 52  1  0  0  0  0
 14 53  1  0  0  0  0
 15 54  1  0  0  0  0
 15 55  1  0  0  0  0
 16 56  1  0  0  0  0
 16 57  1  0  0  0  0
M  CHG  8   3  -1   4  -1  17  -2  18  -2  19  -2  20  -2  21  -2  22  -2
M  CHG  8  23  -2  24  -2  25  -2  26   2  27   2  28   2  29   2  30   2
M  CHG  3  31   2  32   3  33   3
M  END
>  <DRUGBANK_ID>
DB13322

>  <COMMON_NAME>
Hydrotalcite

>  <CAS_NUMBER>
12304-65-3

>  <UNII>
17432CG1KU

>  <SYNONYMS>
Hydrotalcite

$$$$
