D26
 OpenBabel10282417072D

 25 27  0  0  0  0  0  0  0  0999 V2000
    5.9732    1.7697    0.0000 C   0  0  0  0  0  0  0  0  0  0  0  0
    6.6407    1.2848    0.0000 C   0  0  0  0  0  0  0  0  0  0  0  0
    7.4253    1.5397    0.0000 C   0  0  0  0  0  0  0  0  0  0  0  0
    5.3058    1.2848    0.0000 C   0  0  0  0  0  0  0  0  0  0  0  0
    8.7602    1.5397    0.0000 N   0  0  0  0  0  0  0  0  0  0  0  0
    8.5052    2.3244    0.0000 C   0  0  0  0  0  0  0  0  0  0  0  0
    8.9901    2.9918    0.0000 C   0  0  0  0  0  0  0  0  0  0  0  0
    8.6546    3.7455    0.0000 C   0  0  0  0  0  0  0  0  0  0  0  0
    9.1395    4.4129    0.0000 C   0  0  0  0  0  0  0  0  0  0  0  0
    9.9600    4.3267    0.0000 C   0  0  0  0  0  0  0  0  0  0  0  0
   10.2955    3.5730    0.0000 C   0  0  0  0  0  0  0  0  0  0  0  0
    9.8106    2.9056    0.0000 C   0  0  0  0  0  0  0  0  0  0  0  0
    6.3857    0.5002    0.0000 N   0  0  0  0  0  0  0  0  0  0  0  0
    7.6802    2.3244    0.0000 S   0  0  0  0  0  0  0  0  0  0  0  0
    8.0927    1.0548    0.0000 C   0  0  0  0  0  0  0  0  0  0  0  0
    5.5607    0.5002    0.0000 N   0  0  0  0  0  0  0  0  0  0  0  0
    5.9732    2.8017    0.0000 H   0  0  0  0  0  0  0  0  0  0  0  0
    4.3243    1.6037    0.0000 H   0  0  0  0  0  0  0  0  0  0  0  0
    7.6283    3.8534    0.0000 H   0  0  0  0  0  0  0  0  0  0  0  0
    8.7197    5.3557    0.0000 H   0  0  0  0  0  0  0  0  0  0  0  0
   10.5666    5.1616    0.0000 H   0  0  0  0  0  0  0  0  0  0  0  0
   11.3218    3.4651    0.0000 H   0  0  0  0  0  0  0  0  0  0  0  0
   10.2304    1.9628    0.0000 H   0  0  0  0  0  0  0  0  0  0  0  0
    8.0927    0.0228    0.0000 H   0  0  0  0  0  0  0  0  0  0  0  0
    4.9820   -0.2963    0.0000 H   0  0  0  0  0  0  0  0  0  0  0  0
  1  2  1  0  0  0  0
  1  4  2  0  0  0  0
  1 17  1  0  0  0  0
  2  3  1  0  0  0  0
  2 13  2  0  0  0  0
  3 14  1  0  0  0  0
  3 15  2  0  0  0  0
  4 16  1  0  0  0  0
  4 18  1  0  0  0  0
  5  6  2  0  0  0  0
  5 15  1  0  0  0  0
  6  7  1  0  0  0  0
  6 14  1  0  0  0  0
  7  8  1  0  0  0  0
  7 12  2  0  0  0  0
  8  9  2  0  0  0  0
  8 19  1  0  0  0  0
  9 10  1  0  0  0  0
  9 20  1  0  0  0  0
 10 11  2  0  0  0  0
 10 21  1  0  0  0  0
 11 12  1  0  0  0  0
 11 22  1  0  0  0  0
 12 23  1  0  0  0  0
 13 16  1  0  0  0  0
 15 24  1  0  0  0  0
 16 25  1  0  0  0  0
M  END
>  <DRUGBANK_ID>
DB07614

>  <COMMON_NAME>
PHENYL-5-(1H-PYRAZOL-3-YL)-1,3-THIAZOLE

>  <UNII>
MBC2CX42TJ

$$$$
