
 OpenBabel10282417072D

132135  0  0  1  0  0  0  0  0999 V2000
   -0.2674    0.7894    0.0000 C   0  0  0  0  0  0  0  0  0  0  0  0
    1.1615   -0.0357    0.0000 O   0  0  0  0  0  0  0  0  0  0  0  0
    0.4470   -0.4480    0.0000 C   0  0  1  0  0  0  0  0  0  0  0  0
   -0.2674   -0.0357    0.0000 C   0  0  0  0  0  0  0  0  0  0  0  0
    2.5905   -0.0357    0.0000 C   0  0  0  0  0  0  0  0  0  0  0  0
    1.8760   -0.4481    0.0000 C   0  0  2  0  0  0  0  0  0  0  0  0
    3.3050    1.2019    0.0000 C   0  0  0  0  0  0  0  0  0  0  0  0
    4.0195    0.7893    0.0000 C   0  0  0  0  0  0  0  0  0  0  0  0
    4.0195   -0.0357    0.0000 O   0  0  0  0  0  0  0  0  0  0  0  0
    3.3050   -0.4481    0.0000 C   0  0  1  0  0  0  0  0  0  0  0  0
    1.8760   -1.2731    0.0000 C   0  0  0  0  0  0  0  0  0  0  0  0
    1.1615   -1.6857    0.0000 C   0  0  0  0  0  0  0  0  0  0  0  0
    0.4470   -1.2731    0.0000 C   0  0  2  0  0  0  0  0  0  0  0  0
   -0.9818    1.2019    0.0000 C   0  0  0  0  0  0  0  0  0  0  0  0
   -0.9818    2.0269    0.0000 C   0  0  1  0  0  0  0  0  0  0  0  0
   -1.6963    2.4394    0.0000 C   0  0  0  0  0  0  0  0  0  0  0  0
   -1.6963    3.2644    0.0000 C   0  0  0  0  0  0  0  0  0  0  0  0
   -0.9818    3.6769    0.0000 C   0  0  0  0  0  0  0  0  0  0  0  0
   -0.2674    3.2644    0.0000 C   0  0  2  0  0  0  0  0  0  0  0  0
   -0.2674    2.4394    0.0000 O   0  0  0  0  0  0  0  0  0  0  0  0
    0.4470    3.6769    0.0000 C   0  0  0  0  0  0  0  0  0  0  0  0
    1.1616    3.2644    0.0000 C   0  0  2  0  0  0  0  0  0  0  0  0
    1.1616    2.4394    0.0000 O   0  0  0  0  0  0  0  0  0  0  0  0
    1.8761    3.6768    0.0000 C   0  0  0  0  0  0  0  0  0  0  0  0
    2.5905    3.2643    0.0000 C   0  0  2  0  0  0  0  0  0  0  0  0
    2.5905    2.4393    0.0000 C   0  0  0  0  0  0  0  0  0  0  0  0
    1.8760    2.0268    0.0000 C   0  0  1  0  0  0  0  0  0  0  0  0
    2.5695    0.8943    0.0000 C   0  0  1  0  0  0  0  0  0  0  0  0
    1.8760    1.2019    0.0000 C   0  0  0  0  0  0  0  0  0  0  0  0
   -1.0924   -0.0357    0.0000 C   0  0  0  0  0  0  0  0  0  0  0  0
   -0.2674   -0.8607    0.0000 C   0  0  0  0  0  0  0  0  0  0  0  0
    0.4296    0.3697    0.0000 O   0  0  0  0  0  0  0  0  0  0  0  0
    1.8688    0.3293    0.0000 H   0  0  0  0  0  0  0  0  0  0  0  0
    2.7216   -1.0316    0.0000 H   0  0  0  0  0  0  0  0  0  0  0  0
    4.7340    1.2018    0.0000 O   0  0  0  0  0  0  0  0  0  0  0  0
    3.3050   -1.2731    0.0000 C   0  0  2  0  0  0  0  0  0  0  0  0
    3.9340   -1.7596    0.0000 O   0  0  0  0  0  0  0  0  0  0  0  0
    2.9053   -1.7487    0.0000 C   0  0  0  0  0  0  0  0  0  0  0  0
    2.5978    0.3494    0.0000 O   0  0  0  0  0  0  0  0  0  0  0  0
    1.7125    4.1763    0.0000 C   0  0  0  0  0  0  0  0  0  0  0  0
    2.2886    4.1814    0.0000 C   0  0  0  0  0  0  0  0  0  0  0  0
    3.1739    3.8477    0.0000 O   0  0  0  0  0  0  0  0  0  0  0  0
    3.9708    3.6342    0.0000 C   0  0  0  0  0  0  0  0  0  0  0  0
    4.5542    4.2175    0.0000 C   0  0  0  0  0  0  0  0  0  0  0  0
    4.2647    2.8930    0.0000 O   0  0  0  0  0  0  0  0  0  0  0  0
    1.8934    2.6139    0.0000 H   0  0  0  0  0  0  0  0  0  0  0  0
    1.1615   -2.5107    0.0000 C   0  0  0  0  0  0  0  0  0  0  0  0
    1.8760   -2.9231    0.0000 C   0  0  0  0  0  0  0  0  0  0  0  0
    1.8760   -3.7482    0.0000 O   0  0  0  0  0  0  0  0  0  0  0  0
    2.5905   -2.5107    0.0000 O   0  0  0  0  0  0  0  0  0  0  0  0
    3.1790   -2.9376    0.0000 C   0  0  0  0  0  0  0  0  0  0  0  0
   -0.1363   -1.8566    0.0000 O   0  0  0  0  0  0  0  0  0  0  0  0
   -0.0097   -2.5245    0.0000 C   0  0  0  0  0  0  0  0  0  0  0  0
   -0.5930   -3.1079    0.0000 C   0  0  0  0  0  0  0  0  0  0  0  0
   -1.3899   -2.8943    0.0000 C   0  0  0  0  0  0  0  0  0  0  0  0
   -1.9733   -3.4778    0.0000 C   0  0  0  0  0  0  0  0  0  0  0  0
   -2.7702   -3.2643    0.0000 C   0  0  0  0  0  0  0  0  0  0  0  0
   -3.3536   -3.8476    0.0000 C   0  0  0  0  0  0  0  0  0  0  0  0
   -4.1506   -3.6341    0.0000 C   0  0  0  0  0  0  0  0  0  0  0  0
    0.5287   -2.8193    0.0000 O   0  0  0  0  0  0  0  0  0  0  0  0
   -4.7340   -4.2175    0.0000 C   0  0  0  0  0  0  0  0  0  0  0  0
    1.1406    3.9215    0.0000 O   0  0  0  0  0  0  0  0  0  0  0  0
   -0.9992    2.6979    0.0000 H   0  0  0  0  0  0  0  0  0  0  0  0
   -0.3057    3.9564    0.0000 H   0  0  0  0  0  0  0  0  0  0  0  0
   -2.2797    3.8478    0.0000 C   0  0  0  0  0  0  0  0  0  0  0  0
   -3.0767    3.6342    0.0000 C   0  0  0  0  0  0  0  0  0  0  0  0
   -3.0767    2.8093    0.0000 O   0  0  0  0  0  0  0  0  0  0  0  0
   -3.7021    3.8608    0.0000 O   0  0  0  0  0  0  0  0  0  0  0  0
   -4.2470    3.5213    0.0000 C   0  0  0  0  0  0  0  0  0  0  0  0
    0.6263    1.3054    0.0000 H   0  0  0  0  0  0  0  0  0  0  0  0
    2.5905    1.0343    0.0000 H   0  0  0  0  0  0  0  0  0  0  0  0
    3.5171    0.4994    0.0000 H   0  0  0  0  0  0  0  0  0  0  0  0
    3.3732    2.2697    0.0000 H   0  0  0  0  0  0  0  0  0  0  0  0
    2.4337    1.8229    0.0000 H   0  0  0  0  0  0  0  0  0  0  0  0
    2.8027   -1.8081    0.0000 H   0  0  0  0  0  0  0  0  0  0  0  0
    1.8761   -2.3431    0.0000 H   0  0  0  0  0  0  0  0  0  0  0  0
    0.5867   -2.3339    0.0000 H   0  0  0  0  0  0  0  0  0  0  0  0
   -1.8755    0.6859    0.0000 H   0  0  0  0  0  0  0  0  0  0  0  0
   -2.6229    1.9044    0.0000 H   0  0  0  0  0  0  0  0  0  0  0  0
   -2.6229    2.9744    0.0000 H   0  0  0  0  0  0  0  0  0  0  0  0
   -0.9818    4.7469    0.0000 H   0  0  0  0  0  0  0  0  0  0  0  0
   -0.0551    4.2119    0.0000 H   0  0  0  0  0  0  0  0  0  0  0  0
    0.4469    4.7469    0.0000 H   0  0  0  0  0  0  0  0  0  0  0  0
    1.3736    4.2120    0.0000 H   0  0  0  0  0  0  0  0  0  0  0  0
    2.4509    4.3251    0.0000 H   0  0  0  0  0  0  0  0  0  0  0  0
    3.5171    1.9043    0.0000 H   0  0  0  0  0  0  0  0  0  0  0  0
    2.5905    1.3693    0.0000 H   0  0  0  0  0  0  0  0  0  0  0  0
    3.4753    0.3247    0.0000 H   0  0  0  0  0  0  0  0  0  0  0  0
    0.9790    0.6185    0.0000 H   0  0  0  0  0  0  0  0  0  0  0  0
    0.9355    1.7121    0.0000 H   0  0  0  0  0  0  0  0  0  0  0  0
   -1.6274    0.8909    0.0000 H   0  0  0  0  0  0  0  0  0  0  0  0
   -1.6274   -0.9623    0.0000 H   0  0  0  0  0  0  0  0  0  0  0  0
   -2.1624   -0.0357    0.0000 H   0  0  0  0  0  0  0  0  0  0  0  0
   -1.1940   -1.3957    0.0000 H   0  0  0  0  0  0  0  0  0  0  0  0
    0.6592   -1.3957    0.0000 H   0  0  0  0  0  0  0  0  0  0  0  0
   -0.2674   -1.9307    0.0000 H   0  0  0  0  0  0  0  0  0  0  0  0
    1.2591    0.8725    0.0000 H   0  0  0  0  0  0  0  0  0  0  0  0
    4.2656   -0.8017    0.0000 H   0  0  0  0  0  0  0  0  0  0  0  0
    3.8037   -2.7208    0.0000 H   0  0  0  0  0  0  0  0  0  0  0  0
    1.8517   -1.5621    0.0000 H   0  0  0  0  0  0  0  0  0  0  0  0
    3.2705   -2.7545    0.0000 H   0  0  0  0  0  0  0  0  0  0  0  0
    2.2169   -2.5678    0.0000 H   0  0  0  0  0  0  0  0  0  0  0  0
    1.7840   -0.1785    0.0000 H   0  0  0  0  0  0  0  0  0  0  0  0
    2.4266    4.9732    0.0000 H   0  0  0  0  0  0  0  0  0  0  0  0
    0.6654    4.3963    0.0000 H   0  0  0  0  0  0  0  0  0  0  0  0
    1.3795    5.1931    0.0000 H   0  0  0  0  0  0  0  0  0  0  0  0
    3.3446    4.0091    0.0000 H   0  0  0  0  0  0  0  0  0  0  0  0
    1.9098    5.1821    0.0000 H   0  0  0  0  0  0  0  0  0  0  0  0
    2.9658    5.0098    0.0000 H   0  0  0  0  0  0  0  0  0  0  0  0
    5.5877    3.9405    0.0000 H   0  0  0  0  0  0  0  0  0  0  0  0
    4.2774    5.2511    0.0000 H   0  0  0  0  0  0  0  0  0  0  0  0
    5.3109    4.9740    0.0000 H   0  0  0  0  0  0  0  0  0  0  0  0
    0.2678   -3.0268    0.0000 H   0  0  0  0  0  0  0  0  0  0  0  0
    3.0679   -4.0018    0.0000 H   0  0  0  0  0  0  0  0  0  0  0  0
    4.1562   -2.5017    0.0000 H   0  0  0  0  0  0  0  0  0  0  0  0
    4.0451   -3.5659    0.0000 H   0  0  0  0  0  0  0  0  0  0  0  0
   -0.3259   -4.1047    0.0000 H   0  0  0  0  0  0  0  0  0  0  0  0
   -1.6570   -1.8975    0.0000 H   0  0  0  0  0  0  0  0  0  0  0  0
   -1.7061   -4.4746    0.0000 H   0  0  0  0  0  0  0  0  0  0  0  0
   -3.0373   -2.2675    0.0000 H   0  0  0  0  0  0  0  0  0  0  0  0
   -3.0767   -4.8811    0.0000 H   0  0  0  0  0  0  0  0  0  0  0  0
   -4.1102   -4.6042    0.0000 H   0  0  0  0  0  0  0  0  0  0  0  0
   -4.4276   -2.6006    0.0000 H   0  0  0  0  0  0  0  0  0  0  0  0
   -5.1841   -3.3572    0.0000 H   0  0  0  0  0  0  0  0  0  0  0  0
   -5.7675   -3.9406    0.0000 H   0  0  0  0  0  0  0  0  0  0  0  0
   -4.4571   -5.2510    0.0000 H   0  0  0  0  0  0  0  0  0  0  0  0
   -5.4906   -4.9741    0.0000 H   0  0  0  0  0  0  0  0  0  0  0  0
    1.9647    4.4331    0.0000 H   0  0  0  0  0  0  0  0  0  0  0  0
   -2.0126    4.8446    0.0000 H   0  0  0  0  0  0  0  0  0  0  0  0
   -5.1911    4.0249    0.0000 H   0  0  0  0  0  0  0  0  0  0  0  0
   -4.2111    2.4519    0.0000 H   0  0  0  0  0  0  0  0  0  0  0  0
   -5.1552    2.9555    0.0000 H   0  0  0  0  0  0  0  0  0  0  0  0
  1  4  1  0  0  0  0
  1 14  2  0  0  0  0
  1 70  1  0  0  0  0
  2  6  1  0  0  0  0
  3  2  1  0  0  0  0
  3 13  1  0  0  0  0
  3 32  1  1  0  0  0
  4  3  1  0  0  0  0
  4 30  1  0  0  0  0
  4 31  1  0  0  0  0
  5 10  1  0  0  0  0
  5 71  1  0  0  0  0
  5 72  1  0  0  0  0
  6  5  1  0  0  0  0
  6 33  1  1  0  0  0
  7 73  1  0  0  0  0
  7 74  1  0  0  0  0
  8  7  1  0  0  0  0
  8 35  2  0  0  0  0
  9  8  1  0  0  0  0
 10  9  1  0  0  0  0
 10 34  1  6  0  0  0
 10 36  1  0  0  0  0
 11  6  1  0  0  0  0
 11 75  1  0  0  0  0
 11 76  1  0  0  0  0
 12 11  1  0  0  0  0
 12 47  2  0  0  0  0
 13 12  1  0  0  0  0
 13 52  1  0  0  0  0
 13 77  1  1  0  0  0
 14 78  1  0  0  0  0
 15 14  1  0  0  0  0
 15 20  1  0  0  0  0
 15 63  1  6  0  0  0
 16 15  1  0  0  0  0
 16 79  1  0  0  0  0
 16 80  1  0  0  0  0
 17 16  1  0  0  0  0
 17 65  2  0  0  0  0
 18 17  1  0  0  0  0
 18 81  1  0  0  0  0
 18 82  1  0  0  0  0
 19 18  1  0  0  0  0
 19 21  1  0  0  0  0
 19 64  1  6  0  0  0
 20 19  1  0  0  0  0
 21 83  1  0  0  0  0
 21 84  1  0  0  0  0
 22 21  1  0  0  0  0
 22 24  1  0  0  0  0
 22 62  1  6  0  0  0
 23 22  1  0  0  0  0
 23 27  1  0  0  0  0
 24 40  1  0  0  0  0
 24 41  1  0  0  0  0
 25 24  1  0  0  0  0
 25 42  1  0  0  0  0
 25 85  1  6  0  0  0
 26 25  1  0  0  0  0
 26 86  1  0  0  0  0
 26 87  1  0  0  0  0
 27 26  1  0  0  0  0
 27 29  1  0  0  0  0
 27 46  1  6  0  0  0
 28  7  1  0  0  0  0
 28 29  1  0  0  0  0
 28 39  1  0  0  0  0
 28 88  1  1  0  0  0
 29 89  1  0  0  0  0
 29 90  1  0  0  0  0
 30 91  1  0  0  0  0
 30 92  1  0  0  0  0
 30 93  1  0  0  0  0
 31 94  1  0  0  0  0
 31 95  1  0  0  0  0
 31 96  1  0  0  0  0
 32 97  1  0  0  0  0
 36 37  1  0  0  0  0
 36 38  1  0  0  0  0
 36 98  1  1  0  0  0
 37 99  1  0  0  0  0
 38100  1  0  0  0  0
 38101  1  0  0  0  0
 38102  1  0  0  0  0
 39103  1  0  0  0  0
 40104  1  0  0  0  0
 40105  1  0  0  0  0
 40106  1  0  0  0  0
 41107  1  0  0  0  0
 41108  1  0  0  0  0
 41109  1  0  0  0  0
 42 43  1  0  0  0  0
 43 44  1  0  0  0  0
 43 45  2  0  0  0  0
 44110  1  0  0  0  0
 44111  1  0  0  0  0
 44112  1  0  0  0  0
 47 48  1  0  0  0  0
 47113  1  0  0  0  0
 48 49  2  0  0  0  0
 48 50  1  0  0  0  0
 50 51  1  0  0  0  0
 51114  1  0  0  0  0
 51115  1  0  0  0  0
 51116  1  0  0  0  0
 52 53  1  0  0  0  0
 53 54  1  0  0  0  0
 53 60  2  0  0  0  0
 54 55  2  0  0  0  0
 54117  1  0  0  0  0
 55 56  1  0  0  0  0
 55118  1  0  0  0  0
 56 57  2  0  0  0  0
 56119  1  0  0  0  0
 57 58  1  0  0  0  0
 57120  1  0  0  0  0
 58 59  1  0  0  0  0
 58121  1  0  0  0  0
 58122  1  0  0  0  0
 59 61  1  0  0  0  0
 59123  1  0  0  0  0
 59124  1  0  0  0  0
 61125  1  0  0  0  0
 61126  1  0  0  0  0
 61127  1  0  0  0  0
 62128  1  0  0  0  0
 65 66  1  0  0  0  0
 65129  1  0  0  0  0
 66 67  2  0  0  0  0
 66 68  1  0  0  0  0
 68 69  1  0  0  0  0
 69130  1  0  0  0  0
 69131  1  0  0  0  0
 69132  1  0  0  0  0
M  END
>  <DRUGBANK_ID>
DB11752

>  <COMMON_NAME>
Bryostatin 1

>  <CAS_NUMBER>
83314-01-6

>  <UNII>
37O2X55Y9E

>  <SYNONYMS>
Bryostatin-1

$$$$
