
 OpenBabel10282417072D

 40 42  0  0  0  0  0  0  0  0999 V2000
    7.7858    1.9354    0.0000 C   0  0  0  0  0  0  0  0  0  0  0  0
    7.7858    1.1104    0.0000 C   0  0  0  0  0  0  0  0  0  0  0  0
    7.0714    0.6979    0.0000 C   0  0  0  0  0  0  0  0  0  0  0  0
    6.3569    1.1104    0.0000 N   0  0  0  0  0  0  0  0  0  0  0  0
    6.3569    1.9354    0.0000 C   0  0  0  0  0  0  0  0  0  0  0  0
    7.0714    2.3479    0.0000 C   0  0  0  0  0  0  0  0  0  0  0  0
    5.6424    0.6979    0.0000 C   0  0  0  0  0  0  0  0  0  0  0  0
    5.6424   -0.1271    0.0000 O   0  0  0  0  0  0  0  0  0  0  0  0
    4.9279    1.1104    0.0000 C   0  0  0  0  0  0  0  0  0  0  0  0
    4.2135    0.6979    0.0000 C   0  0  0  0  0  0  0  0  0  0  0  0
    3.4990    1.1104    0.0000 C   0  0  0  0  0  0  0  0  0  0  0  0
    2.7845    0.6979    0.0000 C   0  0  0  0  0  0  0  0  0  0  0  0
    2.0701    1.1104    0.0000 C   0  0  0  0  0  0  0  0  0  0  0  0
    1.3556    0.6979    0.0000 C   0  0  0  0  0  0  0  0  0  0  0  0
    0.6411    1.1104    0.0000 C   0  0  0  0  0  0  0  0  0  0  0  0
    0.6411    1.9354    0.0000 C   0  0  0  0  0  0  0  0  0  0  0  0
    1.3556    2.3479    0.0000 C   0  0  0  0  0  0  0  0  0  0  0  0
    2.0701    1.9354    0.0000 C   0  0  0  0  0  0  0  0  0  0  0  0
   -0.1435    2.1904    0.0000 O   0  0  0  0  0  0  0  0  0  0  0  0
   -0.6284    1.5229    0.0000 C   0  0  0  0  0  0  0  0  0  0  0  0
   -0.1435    0.8555    0.0000 O   0  0  0  0  0  0  0  0  0  0  0  0
    8.7125    2.4704    0.0000 H   0  0  0  0  0  0  0  0  0  0  0  0
    7.7858    3.0054    0.0000 H   0  0  0  0  0  0  0  0  0  0  0  0
    8.7125    0.5754    0.0000 H   0  0  0  0  0  0  0  0  0  0  0  0
    7.7858    0.0404    0.0000 H   0  0  0  0  0  0  0  0  0  0  0  0
    7.0714   -0.3721    0.0000 H   0  0  0  0  0  0  0  0  0  0  0  0
    6.1448    0.1629    0.0000 H   0  0  0  0  0  0  0  0  0  0  0  0
    5.4303    2.4704    0.0000 H   0  0  0  0  0  0  0  0  0  0  0  0
    6.3569    3.0054    0.0000 H   0  0  0  0  0  0  0  0  0  0  0  0
    7.0714    3.4179    0.0000 H   0  0  0  0  0  0  0  0  0  0  0  0
    7.9981    2.8829    0.0000 H   0  0  0  0  0  0  0  0  0  0  0  0
    4.9279    2.1424    0.0000 H   0  0  0  0  0  0  0  0  0  0  0  0
    4.2135   -0.3341    0.0000 H   0  0  0  0  0  0  0  0  0  0  0  0
    3.4990    2.1424    0.0000 H   0  0  0  0  0  0  0  0  0  0  0  0
    2.7845   -0.3341    0.0000 H   0  0  0  0  0  0  0  0  0  0  0  0
    1.3556   -0.3341    0.0000 H   0  0  0  0  0  0  0  0  0  0  0  0
    1.3556    3.3799    0.0000 H   0  0  0  0  0  0  0  0  0  0  0  0
    2.9638    2.4514    0.0000 H   0  0  0  0  0  0  0  0  0  0  0  0
   -1.6984    1.5229    0.0000 H   0  0  0  0  0  0  0  0  0  0  0  0
   -1.1142    0.5695    0.0000 H   0  0  0  0  0  0  0  0  0  0  0  0
  1  2  1  0  0  0  0
  1  6  1  0  0  0  0
  1 22  1  0  0  0  0
  1 23  1  0  0  0  0
  2  3  1  0  0  0  0
  2 24  1  0  0  0  0
  2 25  1  0  0  0  0
  3  4  1  0  0  0  0
  3 26  1  0  0  0  0
  3 27  1  0  0  0  0
  4  5  1  0  0  0  0
  4  7  1  0  0  0  0
  5  6  1  0  0  0  0
  5 28  1  0  0  0  0
  5 29  1  0  0  0  0
  6 30  1  0  0  0  0
  6 31  1  0  0  0  0
  7  8  2  0  0  0  0
  7  9  1  0  0  0  0
  9 10  2  0  0  0  0
  9 32  1  0  0  0  0
 10 11  1  0  0  0  0
 10 33  1  0  0  0  0
 11 12  2  0  0  0  0
 11 34  1  0  0  0  0
 12 13  1  0  0  0  0
 12 35  1  0  0  0  0
 13 14  2  0  0  0  0
 13 18  1  0  0  0  0
 14 15  1  0  0  0  0
 14 36  1  0  0  0  0
 15 16  2  0  0  0  0
 15 21  1  0  0  0  0
 16 17  1  0  0  0  0
 16 19  1  0  0  0  0
 17 18  2  0  0  0  0
 17 37  1  0  0  0  0
 18 38  1  0  0  0  0
 19 20  1  0  0  0  0
 20 21  1  0  0  0  0
 20 39  1  0  0  0  0
 20 40  1  0  0  0  0
M  END
>  <DRUGBANK_ID>
DB12582

>  <COMMON_NAME>
Piperine

>  <CAS_NUMBER>
94-62-2

>  <UNII>
U71XL721QK

>  <SYNONYMS>
Bioperine

$$$$
