55V
 OpenBabel10282417072D

 50 51  0  0  0  0  0  0  0  0999 V2000
    0.6593    3.0260    0.0000 C   0  0  0  0  0  0  0  0  0  0  0  0
    1.3737    2.6135    0.0000 O   0  0  0  0  0  0  0  0  0  0  0  0
    1.3737    1.7885    0.0000 C   0  0  0  0  0  0  0  0  0  0  0  0
    0.6593    1.3760    0.0000 C   0  0  0  0  0  0  0  0  0  0  0  0
    2.0882    1.3760    0.0000 C   0  0  0  0  0  0  0  0  0  0  0  0
    2.8027    1.7885    0.0000 O   0  0  0  0  0  0  0  0  0  0  0  0
    3.5171    1.3760    0.0000 C   0  0  0  0  0  0  0  0  0  0  0  0
    2.0882    0.5510    0.0000 C   0  0  0  0  0  0  0  0  0  0  0  0
    2.8027    0.1385    0.0000 O   0  0  0  0  0  0  0  0  0  0  0  0
    2.8027   -0.6865    0.0000 C   0  0  0  0  0  0  0  0  0  0  0  0
    1.3737    0.1385    0.0000 C   0  0  0  0  0  0  0  0  0  0  0  0
    0.6593    0.5510    0.0000 C   0  0  0  0  0  0  0  0  0  0  0  0
   -0.0552    0.1385    0.0000 C   0  0  0  0  0  0  0  0  0  0  0  0
    0.3573   -0.5760    0.0000 C   0  0  0  0  0  0  0  0  0  0  0  0
   -0.4677    0.8530    0.0000 C   0  0  0  0  0  0  0  0  0  0  0  0
   -0.7697   -0.2740    0.0000 C   0  0  0  0  0  0  0  0  0  0  0  0
   -1.4841   -0.6865    0.0000 C   0  0  0  0  0  0  0  0  0  0  0  0
   -2.1986   -1.0990    0.0000 C   0  0  0  0  0  0  0  0  0  0  0  0
   -2.9131   -0.6865    0.0000 C   0  0  0  0  0  0  0  0  0  0  0  0
   -2.9131    0.1385    0.0000 C   0  0  0  0  0  0  0  0  0  0  0  0
   -3.6276   -1.0990    0.0000 N   0  0  0  0  0  0  0  0  0  0  0  0
   -3.6276   -1.9240    0.0000 C   0  0  0  0  0  0  0  0  0  0  0  0
   -4.3420   -2.3365    0.0000 N   0  0  0  0  0  0  0  0  0  0  0  0
   -2.9131   -2.3365    0.0000 N   0  0  0  0  0  0  0  0  0  0  0  0
   -2.1986   -1.9240    0.0000 C   0  0  0  0  0  0  0  0  0  0  0  0
   -1.4841   -2.3365    0.0000 N   0  0  0  0  0  0  0  0  0  0  0  0
    0.6593    4.0960    0.0000 H   0  0  0  0  0  0  0  0  0  0  0  0
   -0.2674    2.4910    0.0000 H   0  0  0  0  0  0  0  0  0  0  0  0
   -0.2673    3.5610    0.0000 H   0  0  0  0  0  0  0  0  0  0  0  0
   -0.2344    1.8920    0.0000 H   0  0  0  0  0  0  0  0  0  0  0  0
    3.5171    0.3060    0.0000 H   0  0  0  0  0  0  0  0  0  0  0  0
    4.4438    1.9110    0.0000 H   0  0  0  0  0  0  0  0  0  0  0  0
    4.4437    0.8410    0.0000 H   0  0  0  0  0  0  0  0  0  0  0  0
    1.8761   -1.2215    0.0000 H   0  0  0  0  0  0  0  0  0  0  0  0
    3.7293   -1.2215    0.0000 H   0  0  0  0  0  0  0  0  0  0  0  0
    2.8027   -1.7565    0.0000 H   0  0  0  0  0  0  0  0  0  0  0  0
    1.3737   -0.8935    0.0000 H   0  0  0  0  0  0  0  0  0  0  0  0
   -0.1777   -1.5026    0.0000 H   0  0  0  0  0  0  0  0  0  0  0  0
    1.4273   -0.5760    0.0000 H   0  0  0  0  0  0  0  0  0  0  0  0
    0.8923   -1.5027    0.0000 H   0  0  0  0  0  0  0  0  0  0  0  0
    0.0673    1.7796    0.0000 H   0  0  0  0  0  0  0  0  0  0  0  0
   -1.5377    0.8530    0.0000 H   0  0  0  0  0  0  0  0  0  0  0  0
   -1.0027    1.7797    0.0000 H   0  0  0  0  0  0  0  0  0  0  0  0
   -1.9865    0.6735    0.0000 H   0  0  0  0  0  0  0  0  0  0  0  0
   -3.8397    0.6735    0.0000 H   0  0  0  0  0  0  0  0  0  0  0  0
   -2.9131    1.2085    0.0000 H   0  0  0  0  0  0  0  0  0  0  0  0
   -5.1946   -1.8443    0.0000 H   0  0  0  0  0  0  0  0  0  0  0  0
   -4.3420   -3.3210    0.0000 H   0  0  0  0  0  0  0  0  0  0  0  0
   -1.4841   -3.3210    0.0000 H   0  0  0  0  0  0  0  0  0  0  0  0
   -0.6315   -1.8442    0.0000 H   0  0  0  0  0  0  0  0  0  0  0  0
  1  2  1  0  0  0  0
  1 27  1  0  0  0  0
  1 28  1  0  0  0  0
  1 29  1  0  0  0  0
  2  3  1  0  0  0  0
  3  5  1  0  0  0  0
  4  3  2  0  0  0  0
  4 12  1  0  0  0  0
  4 30  1  0  0  0  0
  5  6  1  0  0  0  0
  5  8  2  0  0  0  0
  6  7  1  0  0  0  0
  7 31  1  0  0  0  0
  7 32  1  0  0  0  0
  7 33  1  0  0  0  0
  8  9  1  0  0  0  0
  9 10  1  0  0  0  0
 10 34  1  0  0  0  0
 10 35  1  0  0  0  0
 10 36  1  0  0  0  0
 11  8  1  0  0  0  0
 11 37  1  0  0  0  0
 12 11  2  0  0  0  0
 13 12  1  0  0  0  0
 13 16  1  0  0  0  0
 13 15  1  0  0  0  0
 14 13  1  0  0  0  0
 14 38  1  0  0  0  0
 14 39  1  0  0  0  0
 14 40  1  0  0  0  0
 15 41  1  0  0  0  0
 15 42  1  0  0  0  0
 15 43  1  0  0  0  0
 16 17  3  0  0  0  0
 17 18  1  0  0  0  0
 18 25  1  0  0  0  0
 19 18  2  0  0  0  0
 19 21  1  0  0  0  0
 20 19  1  0  0  0  0
 20 44  1  0  0  0  0
 20 45  1  0  0  0  0
 20 46  1  0  0  0  0
 21 22  2  0  0  0  0
 22 23  1  0  0  0  0
 22 24  1  0  0  0  0
 23 47  1  0  0  0  0
 23 48  1  0  0  0  0
 25 24  2  0  0  0  0
 25 26  1  0  0  0  0
 26 49  1  0  0  0  0
 26 50  1  0  0  0  0
M  END
>  <DRUGBANK_ID>
DB07153

>  <COMMON_NAME>
6-methyl-5-[3-methyl-3-(3,4,5-trimethoxyphenyl)but-1-yn-1-yl]pyrimidine-2,4-diamine

$$$$
