
 OpenBabel10282417072D

 79 80  0  0  1  0  0  0  0  0999 V2000
    0.0000   -0.4125    0.0000 C   0  0  0  0  0  0  0  0  0  0  0  0
    0.7145   -0.8250    0.0000 C   0  0  0  0  0  0  0  0  0  0  0  0
    0.0000    0.4125    0.0000 C   0  0  0  0  0  0  0  0  0  0  0  0
    0.7145    0.8250    0.0000 C   0  0  0  0  0  0  0  0  0  0  0  0
   -0.7145    0.8250    0.0000 C   0  0  0  0  0  0  0  0  0  0  0  0
   -0.7145   -0.8250    0.0000 C   0  0  0  0  0  0  0  0  0  0  0  0
    1.4289    0.4125    0.0000 C   0  0  0  0  0  0  0  0  0  0  0  0
   -1.4289    0.4125    0.0000 C   0  0  0  0  0  0  0  0  0  0  0  0
    1.4289   -0.4125    0.0000 C   0  0  0  0  0  0  0  0  0  0  0  0
   -1.4289   -0.4125    0.0000 C   0  0  0  0  0  0  0  0  0  0  0  0
    0.7145    1.6500    0.0000 O   0  0  0  0  0  0  0  0  0  0  0  0
    0.7145   -1.6500    0.0000 O   0  0  0  0  0  0  0  0  0  0  0  0
    2.1434    0.8250    0.0000 C   0  0  0  0  0  0  0  0  0  0  0  0
    3.5724    0.8250    0.0000 C   0  0  0  0  0  0  0  0  0  0  0  0
    4.2868    0.4125    0.0000 C   0  0  0  0  0  0  0  0  0  0  0  0
    3.5724    1.6500    0.0000 C   0  0  0  0  0  0  0  0  0  0  0  0
    5.0013    0.8250    0.0000 C   0  0  0  0  0  0  0  0  0  0  0  0
    5.7158    0.4125    0.0000 C   0  0  0  0  0  0  0  0  0  0  0  0
    6.4302    0.8250    0.0000 C   0  0  1  0  0  0  0  0  0  0  0  0
    7.1447    0.4125    0.0000 C   0  0  0  0  0  0  0  0  0  0  0  0
    6.4302    1.6500    0.0000 C   0  0  0  0  0  0  0  0  0  0  0  0
    7.8592    0.8250    0.0000 C   0  0  0  0  0  0  0  0  0  0  0  0
    8.5737    0.4125    0.0000 C   0  0  0  0  0  0  0  0  0  0  0  0
    9.2881    0.8250    0.0000 C   0  0  1  0  0  0  0  0  0  0  0  0
   10.0026    0.4125    0.0000 C   0  0  0  0  0  0  0  0  0  0  0  0
    9.2881    1.6500    0.0000 C   0  0  0  0  0  0  0  0  0  0  0  0
   10.7171    0.8250    0.0000 C   0  0  0  0  0  0  0  0  0  0  0  0
   11.4315    0.4125    0.0000 C   0  0  0  0  0  0  0  0  0  0  0  0
   12.1460    0.8250    0.0000 C   0  0  0  0  0  0  0  0  0  0  0  0
   12.1460    1.6500    0.0000 C   0  0  0  0  0  0  0  0  0  0  0  0
   12.8605    0.4125    0.0000 C   0  0  0  0  0  0  0  0  0  0  0  0
    2.8579    0.4125    0.0000 C   0  0  0  0  0  0  0  0  0  0  0  0
    2.1434   -0.8250    0.0000 C   0  0  0  0  0  0  0  0  0  0  0  0
   -0.7145    1.8570    0.0000 H   0  0  0  0  0  0  0  0  0  0  0  0
   -0.7145   -1.8570    0.0000 H   0  0  0  0  0  0  0  0  0  0  0  0
   -2.3226    0.9285    0.0000 H   0  0  0  0  0  0  0  0  0  0  0  0
   -2.3226   -0.9285    0.0000 H   0  0  0  0  0  0  0  0  0  0  0  0
    2.1434    1.8950    0.0000 H   0  0  0  0  0  0  0  0  0  0  0  0
    3.0700    1.3600    0.0000 H   0  0  0  0  0  0  0  0  0  0  0  0
    4.2868   -0.6575    0.0000 H   0  0  0  0  0  0  0  0  0  0  0  0
    5.2134   -0.1225    0.0000 H   0  0  0  0  0  0  0  0  0  0  0  0
    4.4990    2.1850    0.0000 H   0  0  0  0  0  0  0  0  0  0  0  0
    2.6458    2.1850    0.0000 H   0  0  0  0  0  0  0  0  0  0  0  0
    3.5724    2.7200    0.0000 H   0  0  0  0  0  0  0  0  0  0  0  0
    5.0013    1.8950    0.0000 H   0  0  0  0  0  0  0  0  0  0  0  0
    5.9279    1.3600    0.0000 H   0  0  0  0  0  0  0  0  0  0  0  0
    5.7158   -0.6575    0.0000 H   0  0  0  0  0  0  0  0  0  0  0  0
    6.6425   -0.1225    0.0000 H   0  0  0  0  0  0  0  0  0  0  0  0
    5.5035    1.3600    0.0000 H   0  0  0  0  0  0  0  0  0  0  0  0
    7.1447   -0.6575    0.0000 H   0  0  0  0  0  0  0  0  0  0  0  0
    8.0713   -0.1225    0.0000 H   0  0  0  0  0  0  0  0  0  0  0  0
    7.3568    2.1850    0.0000 H   0  0  0  0  0  0  0  0  0  0  0  0
    5.5036    2.1850    0.0000 H   0  0  0  0  0  0  0  0  0  0  0  0
    6.4302    2.7200    0.0000 H   0  0  0  0  0  0  0  0  0  0  0  0
    7.8592    1.8950    0.0000 H   0  0  0  0  0  0  0  0  0  0  0  0
    8.7858    1.3600    0.0000 H   0  0  0  0  0  0  0  0  0  0  0  0
    8.5737   -0.6575    0.0000 H   0  0  0  0  0  0  0  0  0  0  0  0
    9.5004   -0.1225    0.0000 H   0  0  0  0  0  0  0  0  0  0  0  0
    8.3614    1.3600    0.0000 H   0  0  0  0  0  0  0  0  0  0  0  0
   10.0026   -0.6575    0.0000 H   0  0  0  0  0  0  0  0  0  0  0  0
   10.9292   -0.1225    0.0000 H   0  0  0  0  0  0  0  0  0  0  0  0
   10.2147    2.1850    0.0000 H   0  0  0  0  0  0  0  0  0  0  0  0
    8.3615    2.1850    0.0000 H   0  0  0  0  0  0  0  0  0  0  0  0
    9.2881    2.7200    0.0000 H   0  0  0  0  0  0  0  0  0  0  0  0
   10.7171    1.8950    0.0000 H   0  0  0  0  0  0  0  0  0  0  0  0
   11.6438    1.3600    0.0000 H   0  0  0  0  0  0  0  0  0  0  0  0
   11.4315   -0.6575    0.0000 H   0  0  0  0  0  0  0  0  0  0  0  0
   12.3581   -0.1225    0.0000 H   0  0  0  0  0  0  0  0  0  0  0  0
   13.0726    1.3600    0.0000 H   0  0  0  0  0  0  0  0  0  0  0  0
   13.0726    2.1850    0.0000 H   0  0  0  0  0  0  0  0  0  0  0  0
   11.2194    2.1850    0.0000 H   0  0  0  0  0  0  0  0  0  0  0  0
   12.1460    2.7200    0.0000 H   0  0  0  0  0  0  0  0  0  0  0  0
   12.8605   -0.6575    0.0000 H   0  0  0  0  0  0  0  0  0  0  0  0
   13.7871    0.9475    0.0000 H   0  0  0  0  0  0  0  0  0  0  0  0
   13.7872   -0.1225    0.0000 H   0  0  0  0  0  0  0  0  0  0  0  0
    2.8579   -0.6195    0.0000 H   0  0  0  0  0  0  0  0  0  0  0  0
    2.1434   -1.8950    0.0000 H   0  0  0  0  0  0  0  0  0  0  0  0
    3.0700   -0.2900    0.0000 H   0  0  0  0  0  0  0  0  0  0  0  0
    3.0701   -1.3600    0.0000 H   0  0  0  0  0  0  0  0  0  0  0  0
  1  2  1  0  0  0  0
  1  6  1  0  0  0  0
  2 12  2  0  0  0  0
  2  9  1  0  0  0  0
  3  1  2  0  0  0  0
  3  4  1  0  0  0  0
  3  5  1  0  0  0  0
  4 11  2  0  0  0  0
  4  7  1  0  0  0  0
  5  8  2  0  0  0  0
  5 34  1  0  0  0  0
  6 10  2  0  0  0  0
  6 35  1  0  0  0  0
  7 13  1  0  0  0  0
  7  9  2  0  0  0  0
  8 10  1  0  0  0  0
  8 36  1  0  0  0  0
  9 33  1  0  0  0  0
 10 37  1  0  0  0  0
 13 32  1  0  0  0  0
 13 38  1  0  0  0  0
 13 39  1  0  0  0  0
 14 15  1  0  0  0  0
 14 16  1  0  0  0  0
 15 17  1  0  0  0  0
 15 40  1  0  0  0  0
 15 41  1  0  0  0  0
 16 42  1  0  0  0  0
 16 43  1  0  0  0  0
 16 44  1  0  0  0  0
 17 18  1  0  0  0  0
 17 45  1  0  0  0  0
 17 46  1  0  0  0  0
 18 19  1  0  0  0  0
 18 47  1  0  0  0  0
 18 48  1  0  0  0  0
 19 20  1  0  0  0  0
 19 21  1  0  0  0  0
 19 49  1  1  0  0  0
 20 22  1  0  0  0  0
 20 50  1  0  0  0  0
 20 51  1  0  0  0  0
 21 52  1  0  0  0  0
 21 53  1  0  0  0  0
 21 54  1  0  0  0  0
 22 23  1  0  0  0  0
 22 55  1  0  0  0  0
 22 56  1  0  0  0  0
 23 24  1  0  0  0  0
 23 57  1  0  0  0  0
 23 58  1  0  0  0  0
 24 25  1  0  0  0  0
 24 26  1  0  0  0  0
 24 59  1  1  0  0  0
 25 27  1  0  0  0  0
 25 60  1  0  0  0  0
 25 61  1  0  0  0  0
 26 62  1  0  0  0  0
 26 63  1  0  0  0  0
 26 64  1  0  0  0  0
 27 28  1  0  0  0  0
 27 65  1  0  0  0  0
 27 66  1  0  0  0  0
 28 29  1  0  0  0  0
 28 67  1  0  0  0  0
 28 68  1  0  0  0  0
 29 30  1  0  0  0  0
 29 31  1  0  0  0  0
 29 69  1  0  0  0  0
 30 70  1  0  0  0  0
 30 71  1  0  0  0  0
 30 72  1  0  0  0  0
 31 73  1  0  0  0  0
 31 74  1  0  0  0  0
 31 75  1  0  0  0  0
 32 14  2  0  0  0  0
 32 76  1  0  0  0  0
 33 77  1  0  0  0  0
 33 78  1  0  0  0  0
 33 79  1  0  0  0  0
M  END
>  <DRUGBANK_ID>
DB01022

>  <SECONDARY_ACCESSION_NUMBERS>
APRD00464; DB09528

>  <COMMON_NAME>
Phylloquinone

>  <CAS_NUMBER>
84-80-0

>  <UNII>
S5Z3U87QHF

>  <SYNONYMS>
2-Methyl-3-(3,7,11,15-tetramethyl-2-hexadecenyl)-1,4-naphthalenedione; 2-Methyl-3-[(2E)-3,7,11,15-tetramethyl-2-hexadecenyl]naphthoquinone; 2-Methyl-3-phytyl-1,4-naphthochinon; 2-Methyl-3-phytyl-1,4-naphthoquinone; 3-Phytylmenadione; alpha-Phylloquinone; Fitomenadiona; Phyllochinon; Phyllochinonum; Phylloquinone; Phythyl-menadion; Phytomenadione; Phytomenadionum; Phytonadione; Phytonadionum; Phytylmenadione; trans-Phylloquinone; Vitamin K; Vitamin K1; Î±-phylloquinone

$$$$
