
 OpenBabel10282417072D

 46 49  0  0  1  0  0  0  0  0999 V2000
    8.0006    0.6808    0.0000 O   0  0  0  0  0  0  0  0  0  0  0  0
    5.9067    1.0970    0.0000 O   0  0  0  0  0  0  0  0  0  0  0  0
    6.9642    2.5472    0.0000 O   0  0  0  0  0  0  0  0  0  0  0  0
    9.4234    1.6527    0.0000 O   0  0  0  0  0  0  0  0  0  0  0  0
    3.2911    2.2173    0.0000 O   0  0  0  0  0  0  0  0  0  0  0  0
    6.9592   -0.3570    0.0000 N   0  0  0  0  0  0  0  0  0  0  0  0
    6.9592   -1.6849    0.0000 N   0  0  0  0  0  0  0  0  0  0  0  0
    5.4640   -0.1959    0.0000 N   0  0  0  0  0  0  0  0  0  0  0  0
    4.7495   -1.4335    0.0000 N   0  0  0  0  0  0  0  0  0  0  0  0
    4.0350   -0.1959    0.0000 N   0  0  0  0  0  0  0  0  0  0  0  0
    5.4640   -2.6711    0.0000 N   0  0  0  0  0  0  0  0  0  0  0  0
    3.2813   -0.5315    0.0000 N   0  0  0  0  0  0  0  0  0  0  0  0
    1.9856    1.6361    0.0000 N   0  0  0  0  0  0  0  0  0  0  0  0
    6.7317    1.0955    0.0000 C   0  0  1  0  0  0  0  0  0  0  0  0
    7.2155    0.4272    0.0000 C   0  0  1  0  0  0  0  0  0  0  0  0
    7.2178    1.7621    0.0000 C   0  0  1  0  0  0  0  0  0  0  0  0
    8.0021    1.5059    0.0000 C   0  0  1  0  0  0  0  0  0  0  0  0
    8.6703    1.9897    0.0000 C   0  0  0  0  0  0  0  0  0  0  0  0
    6.1786   -0.6085    0.0000 C   0  0  0  0  0  0  0  0  0  0  0  0
    7.4407   -1.0210    0.0000 C   0  0  0  0  0  0  0  0  0  0  0  0
    6.1786   -1.4335    0.0000 C   0  0  0  0  0  0  0  0  0  0  0  0
    5.4640   -1.8460    0.0000 C   0  0  0  0  0  0  0  0  0  0  0  0
    4.7495   -0.6085    0.0000 C   0  0  0  0  0  0  0  0  0  0  0  0
    3.9487    0.6246    0.0000 C   0  0  0  0  0  0  0  0  0  0  0  0
    3.1418    0.7962    0.0000 C   0  0  0  0  0  0  0  0  0  0  0  0
    2.7292    0.0817    0.0000 C   0  0  0  0  0  0  0  0  0  0  0  0
    2.8062    1.5498    0.0000 C   0  0  0  0  0  0  0  0  0  0  0  0
    1.6501    2.3898    0.0000 C   0  0  0  0  0  0  0  0  0  0  0  0
    5.4232    1.9379    0.0000 H   0  0  0  0  0  0  0  0  0  0  0  0
    7.6145    3.2669    0.0000 H   0  0  0  0  0  0  0  0  0  0  0  0
    9.5230    0.6878    0.0000 H   0  0  0  0  0  0  0  0  0  0  0  0
    4.6114   -3.1634    0.0000 H   0  0  0  0  0  0  0  0  0  0  0  0
    6.3166   -3.1633    0.0000 H   0  0  0  0  0  0  0  0  0  0  0  0
    1.4069    0.8397    0.0000 H   0  0  0  0  0  0  0  0  0  0  0  0
    6.2442    0.1430    0.0000 H   0  0  0  0  0  0  0  0  0  0  0  0
    7.9708   -0.3307    0.0000 H   0  0  0  0  0  0  0  0  0  0  0  0
    6.1613    1.9313    0.0000 H   0  0  0  0  0  0  0  0  0  0  0  0
    8.9546    1.0185    0.0000 H   0  0  0  0  0  0  0  0  0  0  0  0
    8.5603    3.0540    0.0000 H   0  0  0  0  0  0  0  0  0  0  0  0
    7.6935    2.4266    0.0000 H   0  0  0  0  0  0  0  0  0  0  0  0
    8.4727   -1.0210    0.0000 H   0  0  0  0  0  0  0  0  0  0  0  0
    4.7156    1.3151    0.0000 H   0  0  0  0  0  0  0  0  0  0  0  0
    1.7028   -0.0261    0.0000 H   0  0  0  0  0  0  0  0  0  0  0  0
    2.2791    3.2554    0.0000 H   0  0  0  0  0  0  0  0  0  0  0  0
    0.5860    2.5017    0.0000 H   0  0  0  0  0  0  0  0  0  0  0  0
    1.2150    3.3673    0.0000 H   0  0  0  0  0  0  0  0  0  0  0  0
  1 15  1  0  0  0  0
  1 17  1  0  0  0  0
  2 29  1  0  0  0  0
  3 30  1  0  0  0  0
  4 18  1  0  0  0  0
  4 31  1  0  0  0  0
  5 27  2  0  0  0  0
  6 19  1  0  0  0  0
  6 20  1  0  0  0  0
  7 20  2  0  0  0  0
  7 21  1  0  0  0  0
  8 19  1  0  0  0  0
  8 23  2  0  0  0  0
  9 22  2  0  0  0  0
  9 23  1  0  0  0  0
 10 12  1  0  0  0  0
 10 23  1  0  0  0  0
 10 24  1  0  0  0  0
 11 22  1  0  0  0  0
 11 32  1  0  0  0  0
 11 33  1  0  0  0  0
 12 26  2  0  0  0  0
 13 27  1  0  0  0  0
 13 28  1  0  0  0  0
 13 34  1  0  0  0  0
 14  2  1  0  0  0  0
 14 15  1  0  0  0  0
 14 16  1  0  0  0  0
 14 35  1  1  0  0  0
 15  6  1  0  0  0  0
 15 36  1  6  0  0  0
 16  3  1  0  0  0  0
 16 17  1  0  0  0  0
 16 37  1  1  0  0  0
 17 18  1  0  0  0  0
 17 38  1  6  0  0  0
 18 39  1  0  0  0  0
 18 40  1  0  0  0  0
 19 21  2  0  0  0  0
 20 41  1  0  0  0  0
 21 22  1  0  0  0  0
 24 25  2  0  0  0  0
 24 42  1  0  0  0  0
 25 26  1  0  0  0  0
 25 27  1  0  0  0  0
 26 43  1  0  0  0  0
 28 44  1  0  0  0  0
 28 45  1  0  0  0  0
 28 46  1  0  0  0  0
M  END
>  <DRUGBANK_ID>
DB06213

>  <COMMON_NAME>
Regadenoson

>  <CAS_NUMBER>
313348-27-5

>  <UNII>
7AXV542LZ4

>  <SYNONYMS>
Regadenoson; Regadenoson anhydrous

$$$$
