
 OpenBabel10282417072D

 37 38  0  0  0  0  0  0  0  0999 V2000
    0.4397   -1.4580    0.0000 O   0  0  0  0  0  0  0  0  0  0  0  0
   -1.2102   -1.4580    0.0000 O   0  0  0  0  0  0  0  0  0  0  0  0
   -0.3852   -2.2830    0.0000 O   0  0  0  0  0  0  0  0  0  0  0  0
   -1.8142   -1.4580    0.0000 O   0  0  0  0  0  0  0  0  0  0  0  0
   -1.0996   -0.2205    0.0000 N   0  0  0  0  0  0  0  0  0  0  0  0
   -0.3852   -0.6330    0.0000 C   0  0  1  0  0  0  0  0  0  0  0  0
    0.3292   -0.2205    0.0000 C   0  0  0  0  0  0  0  0  0  0  0  0
    0.3292    0.6044    0.0000 C   0  0  0  0  0  0  0  0  0  0  0  0
    1.0436    1.0169    0.0000 C   0  0  0  0  0  0  0  0  0  0  0  0
    1.0436    1.8419    0.0000 C   0  0  0  0  0  0  0  0  0  0  0  0
   -0.3852    1.0169    0.0000 C   0  0  0  0  0  0  0  0  0  0  0  0
    1.7812    0.5758    0.0000 C   0  0  0  0  0  0  0  0  0  0  0  0
    0.3292    2.2544    0.0000 C   0  0  0  0  0  0  0  0  0  0  0  0
   -0.3852    1.8419    0.0000 C   0  0  0  0  0  0  0  0  0  0  0  0
    1.7812    2.2830    0.0000 C   0  0  0  0  0  0  0  0  0  0  0  0
   -1.8142   -0.6330    0.0000 C   0  0  0  0  0  0  0  0  0  0  0  0
    2.5286    0.9998    0.0000 C   0  0  0  0  0  0  0  0  0  0  0  0
    2.5286    1.8591    0.0000 C   0  0  0  0  0  0  0  0  0  0  0  0
   -2.5286   -0.2205    0.0000 C   0  0  0  0  0  0  0  0  0  0  0  0
   -0.3852   -1.4580    0.0000 B   0  5  0  0  0  0  0  0  0  0  0  0
   -1.0996    0.2909    0.0000 H   0  0  0  0  0  0  0  0  0  0  0  0
    0.9247   -2.2980    0.0000 H   0  0  0  0  0  0  0  0  0  0  0  0
   -1.6952   -0.6180    0.0000 H   0  0  0  0  0  0  0  0  0  0  0  0
   -1.2252   -2.7680    0.0000 H   0  0  0  0  0  0  0  0  0  0  0  0
   -0.3852    0.4370    0.0000 H   0  0  0  0  0  0  0  0  0  0  0  0
    1.2559   -0.7555    0.0000 H   0  0  0  0  0  0  0  0  0  0  0  0
    1.2558    0.3145    0.0000 H   0  0  0  0  0  0  0  0  0  0  0  0
   -1.2789    0.5009    0.0000 H   0  0  0  0  0  0  0  0  0  0  0  0
    1.7694   -0.4561    0.0000 H   0  0  0  0  0  0  0  0  0  0  0  0
    0.3292    3.2864    0.0000 H   0  0  0  0  0  0  0  0  0  0  0  0
   -1.2789    2.3579    0.0000 H   0  0  0  0  0  0  0  0  0  0  0  0
    1.7693    3.3149    0.0000 H   0  0  0  0  0  0  0  0  0  0  0  0
    3.4204    0.4804    0.0000 H   0  0  0  0  0  0  0  0  0  0  0  0
    3.4204    2.3785    0.0000 H   0  0  0  0  0  0  0  0  0  0  0  0
   -2.5286    0.8495    0.0000 H   0  0  0  0  0  0  0  0  0  0  0  0
   -3.4553   -0.7555    0.0000 H   0  0  0  0  0  0  0  0  0  0  0  0
   -3.4552    0.3145    0.0000 H   0  0  0  0  0  0  0  0  0  0  0  0
  1 20  1  0  0  0  0
  1 22  1  0  0  0  0
  2 20  1  0  0  0  0
  2 23  1  0  0  0  0
  3 20  1  0  0  0  0
  3 24  1  0  0  0  0
  4 16  2  0  0  0  0
  5 16  1  0  0  0  0
  5 21  1  0  0  0  0
  6  5  1  0  0  0  0
  6  7  1  0  0  0  0
  6 20  1  0  0  0  0
  6 25  1  6  0  0  0
  7  8  1  0  0  0  0
  7 26  1  0  0  0  0
  7 27  1  0  0  0  0
  8  9  1  0  0  0  0
  8 11  2  0  0  0  0
  9 10  1  0  0  0  0
  9 12  2  0  0  0  0
 10 13  1  0  0  0  0
 10 15  2  0  0  0  0
 11 14  1  0  0  0  0
 11 28  1  0  0  0  0
 12 17  1  0  0  0  0
 12 29  1  0  0  0  0
 13 14  2  0  0  0  0
 13 30  1  0  0  0  0
 14 31  1  0  0  0  0
 15 18  1  0  0  0  0
 15 32  1  0  0  0  0
 16 19  1  0  0  0  0
 17 18  2  0  0  0  0
 17 33  1  0  0  0  0
 18 34  1  0  0  0  0
 19 35  1  0  0  0  0
 19 36  1  0  0  0  0
 19 37  1  0  0  0  0
M  CHG  1  20  -1
M  END
>  <DRUGBANK_ID>
DB08565

>  <COMMON_NAME>
L-1-naphthyl-2-acetamido-ethane boronic acid

$$$$
