
 OpenBabel10282417072D

 45 46  0  0  1  0  0  0  0  0999 V2000
   -2.7679   -2.3346    0.0000 C   0  0  0  0  0  0  0  0  0  0  0  0
   -2.0535   -2.7471    0.0000 C   0  0  0  0  0  0  0  0  0  0  0  0
   -2.0535   -3.5721    0.0000 C   0  0  0  0  0  0  0  0  0  0  0  0
   -1.3390   -2.3346    0.0000 C   0  0  1  0  0  0  0  0  0  0  0  0
   -0.6245   -2.7471    0.0000 C   0  0  0  0  0  0  0  0  0  0  0  0
   -0.6245   -3.5721    0.0000 O   0  0  0  0  0  0  0  0  0  0  0  0
    0.0900   -2.3346    0.0000 O   0  0  0  0  0  0  0  0  0  0  0  0
    0.0900   -1.5096    0.0000 C   0  0  2  0  0  0  0  0  0  0  0  0
   -0.5775   -1.0246    0.0000 C   0  0  0  0  0  0  0  0  0  0  0  0
   -0.3225   -0.2400    0.0000 C   0  0  2  0  0  0  0  0  0  0  0  0
    0.5025   -0.2400    0.0000 O   0  0  0  0  0  0  0  0  0  0  0  0
    0.7574   -1.0246    0.0000 C   0  0  1  0  0  0  0  0  0  0  0  0
    1.5420   -1.2796    0.0000 C   0  0  0  0  0  0  0  0  0  0  0  0
    1.7135   -2.0866    0.0000 O   0  0  0  0  0  0  0  0  0  0  0  0
   -0.8075    0.4274    0.0000 N   0  0  0  0  0  0  0  0  0  0  0  0
   -1.6280    0.3412    0.0000 C   0  0  0  0  0  0  0  0  0  0  0  0
   -2.1129    1.0086    0.0000 C   0  0  0  0  0  0  0  0  0  0  0  0
   -1.7773    1.7623    0.0000 C   0  0  0  0  0  0  0  0  0  0  0  0
   -0.9568    1.8485    0.0000 N   0  0  0  0  0  0  0  0  0  0  0  0
   -0.4719    1.1811    0.0000 C   0  0  0  0  0  0  0  0  0  0  0  0
    0.3486    1.2673    0.0000 O   0  0  0  0  0  0  0  0  0  0  0  0
   -2.2622    2.4297    0.0000 N   0  0  0  0  0  0  0  0  0  0  0  0
   -1.3390   -1.5096    0.0000 N   0  0  0  0  0  0  0  0  0  0  0  0
   -2.7679   -1.2646    0.0000 H   0  0  0  0  0  0  0  0  0  0  0  0
   -3.6946   -2.8696    0.0000 H   0  0  0  0  0  0  0  0  0  0  0  0
   -3.6945   -1.7996    0.0000 H   0  0  0  0  0  0  0  0  0  0  0  0
   -1.1269   -3.2821    0.0000 H   0  0  0  0  0  0  0  0  0  0  0  0
   -2.9801   -4.1071    0.0000 H   0  0  0  0  0  0  0  0  0  0  0  0
   -1.1269   -4.1071    0.0000 H   0  0  0  0  0  0  0  0  0  0  0  0
   -2.0535   -4.6421    0.0000 H   0  0  0  0  0  0  0  0  0  0  0  0
   -2.2656   -1.7996    0.0000 H   0  0  0  0  0  0  0  0  0  0  0  0
   -0.8634   -1.9954    0.0000 H   0  0  0  0  0  0  0  0  0  0  0  0
   -1.5951   -1.3552    0.0000 H   0  0  0  0  0  0  0  0  0  0  0  0
   -1.3341   -0.2679    0.0000 H   0  0  0  0  0  0  0  0  0  0  0  0
   -1.3793   -0.4074    0.0000 H   0  0  0  0  0  0  0  0  0  0  0  0
    1.5140   -0.2680    0.0000 H   0  0  0  0  0  0  0  0  0  0  0  0
    2.3372   -0.5637    0.0000 H   0  0  0  0  0  0  0  0  0  0  0  0
    2.5596   -1.6103    0.0000 H   0  0  0  0  0  0  0  0  0  0  0  0
    0.9926   -2.7356    0.0000 H   0  0  0  0  0  0  0  0  0  0  0  0
   -2.0478   -0.6016    0.0000 H   0  0  0  0  0  0  0  0  0  0  0  0
   -3.1392    0.9007    0.0000 H   0  0  0  0  0  0  0  0  0  0  0  0
   -1.8618    3.3291    0.0000 H   0  0  0  0  0  0  0  0  0  0  0  0
   -3.2413    2.3268    0.0000 H   0  0  0  0  0  0  0  0  0  0  0  0
   -0.4557   -0.9996    0.0000 H   0  0  0  0  0  0  0  0  0  0  0  0
   -2.2223   -0.9996    0.0000 H   0  0  0  0  0  0  0  0  0  0  0  0
  1  2  1  0  0  0  0
  1 24  1  0  0  0  0
  1 25  1  0  0  0  0
  1 26  1  0  0  0  0
  2  3  1  0  0  0  0
  2  4  1  0  0  0  0
  2 27  1  0  0  0  0
  3 28  1  0  0  0  0
  3 29  1  0  0  0  0
  3 30  1  0  0  0  0
  4  5  1  0  0  0  0
  4 23  1  0  0  0  0
  4 31  1  1  0  0  0
  5  6  2  0  0  0  0
  5  7  1  0  0  0  0
  8  7  1  0  0  0  0
  8  9  1  0  0  0  0
  8 12  1  0  0  0  0
  8 32  1  1  0  0  0
  9 10  1  0  0  0  0
  9 33  1  0  0  0  0
  9 34  1  0  0  0  0
 10 11  1  0  0  0  0
 10 15  1  0  0  0  0
 10 35  1  6  0  0  0
 11 12  1  0  0  0  0
 12 13  1  0  0  0  0
 12 36  1  6  0  0  0
 13 14  1  0  0  0  0
 13 37  1  0  0  0  0
 13 38  1  0  0  0  0
 14 39  1  0  0  0  0
 15 16  1  0  0  0  0
 15 20  1  0  0  0  0
 16 17  2  0  0  0  0
 16 40  1  0  0  0  0
 17 18  1  0  0  0  0
 17 41  1  0  0  0  0
 18 19  2  0  0  0  0
 18 22  1  0  0  0  0
 19 20  1  0  0  0  0
 20 21  2  0  0  0  0
 22 42  1  0  0  0  0
 22 43  1  0  0  0  0
 23 44  1  0  0  0  0
 23 45  1  0  0  0  0
M  END
>  <DRUGBANK_ID>
DB06187

>  <COMMON_NAME>
Valtorcitabine

>  <CAS_NUMBER>
380886-95-3

>  <UNII>
D5YQG6AQXP

>  <SYNONYMS>
Valtorcitabine

$$$$
