BH7
 OpenBabel10282417072D

 51 52  0  0  0  0  0  0  0  0999 V2000
   -5.0023   -0.2003    0.0000 N   0  0  0  0  0  0  0  0  0  0  0  0
   -4.2486   -0.5358    0.0000 C   0  0  2  0  0  0  0  0  0  0  0  0
   -3.6966    0.0773    0.0000 C   0  0  2  0  0  0  0  0  0  0  0  0
   -4.1091    0.7917    0.0000 N   0  0  0  0  0  0  0  0  0  0  0  0
   -4.9161    0.6202    0.0000 C   0  0  0  0  0  0  0  0  0  0  0  0
   -3.8361   -1.2503    0.0000 C   0  0  0  0  0  0  0  0  0  0  0  0
   -3.0291   -1.0788    0.0000 S   0  0  0  0  0  0  0  0  0  0  0  0
   -2.9429   -0.2583    0.0000 C   0  0  1  0  0  0  0  0  0  0  0  0
   -5.5291    1.1722    0.0000 O   0  0  0  0  0  0  0  0  0  0  0  0
   -2.2284    0.1542    0.0000 C   0  0  0  0  0  0  0  0  0  0  0  0
   -1.5140   -0.2583    0.0000 C   0  0  0  0  0  0  0  0  0  0  0  0
   -0.7995    0.1542    0.0000 C   0  0  0  0  0  0  0  0  0  0  0  0
   -0.0850   -0.2583    0.0000 C   0  0  0  0  0  0  0  0  0  0  0  0
    0.6294    0.1542    0.0000 C   0  0  0  0  0  0  0  0  0  0  0  0
    0.6294    0.9792    0.0000 O   0  0  0  0  0  0  0  0  0  0  0  0
    1.3439   -0.2583    0.0000 N   0  0  0  0  0  0  0  0  0  0  0  0
    2.0584    0.1542    0.0000 C   0  0  0  0  0  0  0  0  0  0  0  0
    2.7729   -0.2583    0.0000 C   0  0  0  0  0  0  0  0  0  0  0  0
    3.4873    0.1542    0.0000 C   0  0  0  0  0  0  0  0  0  0  0  0
    4.2018   -0.2583    0.0000 C   0  0  0  0  0  0  0  0  0  0  0  0
    4.9163    0.1542    0.0000 C   0  0  0  0  0  0  0  0  0  0  0  0
    5.6307   -0.2583    0.0000 C   0  0  0  0  0  0  0  0  0  0  0  0
    6.3452    0.1542    0.0000 O   0  0  0  0  0  0  0  0  0  0  0  0
    5.6307   -1.0833    0.0000 O   0  0  0  0  0  0  0  0  0  0  0  0
   -4.6393   -0.9698    0.0000 H   0  0  0  0  0  0  0  0  0  0  0  0
   -3.3059    0.5112    0.0000 H   0  0  0  0  0  0  0  0  0  0  0  0
   -2.9735    0.3248    0.0000 H   0  0  0  0  0  0  0  0  0  0  0  0
   -5.8549   -0.6926    0.0000 H   0  0  0  0  0  0  0  0  0  0  0  0
   -3.7087    1.6911    0.0000 H   0  0  0  0  0  0  0  0  0  0  0  0
   -4.2713   -2.2278    0.0000 H   0  0  0  0  0  0  0  0  0  0  0  0
   -3.1628   -2.0819    0.0000 H   0  0  0  0  0  0  0  0  0  0  0  0
   -2.2284    1.2242    0.0000 H   0  0  0  0  0  0  0  0  0  0  0  0
   -1.3017    0.6892    0.0000 H   0  0  0  0  0  0  0  0  0  0  0  0
   -1.5140   -1.3283    0.0000 H   0  0  0  0  0  0  0  0  0  0  0  0
   -0.5874   -0.7933    0.0000 H   0  0  0  0  0  0  0  0  0  0  0  0
   -0.7995    1.2242    0.0000 H   0  0  0  0  0  0  0  0  0  0  0  0
    0.1271    0.6892    0.0000 H   0  0  0  0  0  0  0  0  0  0  0  0
   -0.0850   -1.3283    0.0000 H   0  0  0  0  0  0  0  0  0  0  0  0
    0.8417   -0.7933    0.0000 H   0  0  0  0  0  0  0  0  0  0  0  0
    1.3439   -1.2428    0.0000 H   0  0  0  0  0  0  0  0  0  0  0  0
    2.0584    1.2242    0.0000 H   0  0  0  0  0  0  0  0  0  0  0  0
    2.9850    0.6892    0.0000 H   0  0  0  0  0  0  0  0  0  0  0  0
    2.7729   -1.3283    0.0000 H   0  0  0  0  0  0  0  0  0  0  0  0
    3.6996   -0.7933    0.0000 H   0  0  0  0  0  0  0  0  0  0  0  0
    3.4873    1.2242    0.0000 H   0  0  0  0  0  0  0  0  0  0  0  0
    4.4139    0.6892    0.0000 H   0  0  0  0  0  0  0  0  0  0  0  0
    4.2018   -1.3283    0.0000 H   0  0  0  0  0  0  0  0  0  0  0  0
    5.1284   -0.7933    0.0000 H   0  0  0  0  0  0  0  0  0  0  0  0
    4.9163    1.2242    0.0000 H   0  0  0  0  0  0  0  0  0  0  0  0
    5.8430    0.6892    0.0000 H   0  0  0  0  0  0  0  0  0  0  0  0
    7.1567   -0.3143    0.0000 H   0  0  0  0  0  0  0  0  0  0  0  0
  1  2  1  0  0  0  0
  1  5  1  0  0  0  0
  1 28  1  0  0  0  0
  2  3  1  0  0  0  0
  2  6  1  0  0  0  0
  2 25  1  1  0  0  0
  3  4  1  0  0  0  0
  3  8  1  0  0  0  0
  3 26  1  1  0  0  0
  4  5  1  0  0  0  0
  4 29  1  0  0  0  0
  5  9  2  0  0  0  0
  6  7  1  0  0  0  0
  6 30  1  0  0  0  0
  6 31  1  0  0  0  0
  7  8  1  0  0  0  0
  8 10  1  0  0  0  0
  8 27  1  1  0  0  0
 10 11  1  0  0  0  0
 10 32  1  0  0  0  0
 10 33  1  0  0  0  0
 11 12  1  0  0  0  0
 11 34  1  0  0  0  0
 11 35  1  0  0  0  0
 12 13  1  0  0  0  0
 12 36  1  0  0  0  0
 12 37  1  0  0  0  0
 13 14  1  0  0  0  0
 13 38  1  0  0  0  0
 13 39  1  0  0  0  0
 14 15  2  0  0  0  0
 14 16  1  0  0  0  0
 16 17  1  0  0  0  0
 16 40  1  0  0  0  0
 17 18  1  0  0  0  0
 17 41  1  0  0  0  0
 17 42  1  0  0  0  0
 18 19  1  0  0  0  0
 18 43  1  0  0  0  0
 18 44  1  0  0  0  0
 19 20  1  0  0  0  0
 19 45  1  0  0  0  0
 19 46  1  0  0  0  0
 20 21  1  0  0  0  0
 20 47  1  0  0  0  0
 20 48  1  0  0  0  0
 21 22  1  0  0  0  0
 21 49  1  0  0  0  0
 21 50  1  0  0  0  0
 22 23  1  0  0  0  0
 22 24  2  0  0  0  0
 23 51  1  0  0  0  0
M  END
>  <DRUGBANK_ID>
DB03139

>  <SECONDARY_ACCESSION_NUMBERS>
EXPT00692

>  <COMMON_NAME>
6-[5-(2-Oxo-Hexahydro-Thieno[3,4-D]Imidazol-4-Yl)-Pentanoylamino]-Hexanoic Acid

$$$$
