
 OpenBabel10282417072D

 28 28  0  0  0  0  0  0  0  0999 V2000
   -2.8579   -1.6500    0.0000 O   0  0  0  0  0  0  0  0  0  0  0  0
   -2.1434   -2.0625    0.0000 C   0  0  0  0  0  0  0  0  0  0  0  0
   -1.4289   -1.6500    0.0000 C   0  0  0  0  0  0  0  0  0  0  0  0
   -0.7145   -2.0625    0.0000 C   0  0  0  0  0  0  0  0  0  0  0  0
    0.0000   -1.6500    0.0000 C   0  0  0  0  0  0  0  0  0  0  0  0
    0.7145   -2.0625    0.0000 C   0  0  0  0  0  0  0  0  0  0  0  0
    1.4289   -1.6500    0.0000 C   0  0  0  0  0  0  0  0  0  0  0  0
    2.1434   -2.0625    0.0000 C   0  0  0  0  0  0  0  0  0  0  0  0
    2.1434   -2.8875    0.0000 N   0  0  0  0  0  0  0  0  0  0  0  0
    1.4289   -3.3000    0.0000 C   0  0  0  0  0  0  0  0  0  0  0  0
    0.7145   -2.8875    0.0000 C   0  0  0  0  0  0  0  0  0  0  0  0
   -2.1434   -3.0945    0.0000 H   0  0  0  0  0  0  0  0  0  0  0  0
   -1.4289   -0.5800    0.0000 H   0  0  0  0  0  0  0  0  0  0  0  0
   -0.5022   -1.1150    0.0000 H   0  0  0  0  0  0  0  0  0  0  0  0
   -0.7145   -3.1325    0.0000 H   0  0  0  0  0  0  0  0  0  0  0  0
    0.2121   -2.5975    0.0000 H   0  0  0  0  0  0  0  0  0  0  0  0
    0.0000   -0.5800    0.0000 H   0  0  0  0  0  0  0  0  0  0  0  0
    0.9266   -1.1150    0.0000 H   0  0  0  0  0  0  0  0  0  0  0  0
    1.6412   -2.5975    0.0000 H   0  0  0  0  0  0  0  0  0  0  0  0
    1.4289   -0.5800    0.0000 H   0  0  0  0  0  0  0  0  0  0  0  0
    2.3555   -1.1150    0.0000 H   0  0  0  0  0  0  0  0  0  0  0  0
    3.0700   -1.5275    0.0000 H   0  0  0  0  0  0  0  0  0  0  0  0
    3.0700   -2.5975    0.0000 H   0  0  0  0  0  0  0  0  0  0  0  0
    3.0267   -3.3975    0.0000 H   0  0  0  0  0  0  0  0  0  0  0  0
    1.4289   -4.3700    0.0000 H   0  0  0  0  0  0  0  0  0  0  0  0
    0.5022   -3.8350    0.0000 H   0  0  0  0  0  0  0  0  0  0  0  0
   -0.2122   -3.4225    0.0000 H   0  0  0  0  0  0  0  0  0  0  0  0
   -0.2121   -2.3525    0.0000 H   0  0  0  0  0  0  0  0  0  0  0  0
  1  2  2  0  0  0  0
  2  3  1  0  0  0  0
  2 12  1  0  0  0  0
  3  4  1  0  0  0  0
  3 13  1  0  0  0  0
  3 14  1  0  0  0  0
  4  5  1  0  0  0  0
  4 15  1  0  0  0  0
  4 16  1  0  0  0  0
  5  6  1  0  0  0  0
  5 17  1  0  0  0  0
  5 18  1  0  0  0  0
  6  7  1  0  0  0  0
  6 11  1  0  0  0  0
  6 19  1  0  0  0  0
  7  8  1  0  0  0  0
  7 20  1  0  0  0  0
  7 21  1  0  0  0  0
  8  9  1  0  0  0  0
  8 22  1  0  0  0  0
  8 23  1  0  0  0  0
  9 10  1  0  0  0  0
  9 24  1  0  0  0  0
 10 11  1  0  0  0  0
 10 25  1  0  0  0  0
 10 26  1  0  0  0  0
 11 27  1  0  0  0  0
 11 28  1  0  0  0  0
M  END
>  <DRUGBANK_ID>
DB04654

>  <COMMON_NAME>
4-PIPERIDIN-4-YLBUTANAL

$$$$
