
 OpenBabel10282417072D

 67 70  0  0  0  0  0  0  0  0999 V2000
   -0.7495   -1.9837    0.0000 C   0  0  0  0  0  0  0  0  0  0  0  0
   -1.4641   -2.3961    0.0000 C   0  0  0  0  0  0  0  0  0  0  0  0
   -2.1784   -1.9837    0.0000 C   0  0  0  0  0  0  0  0  0  0  0  0
   -2.8929   -2.3961    0.0000 C   0  0  0  0  0  0  0  0  0  0  0  0
   -3.6075   -1.1587    0.0000 C   0  0  0  0  0  0  0  0  0  0  0  0
   -2.8929   -0.7462    0.0000 C   0  0  0  0  0  0  0  0  0  0  0  0
   -0.7495    0.4912    0.0000 C   0  0  0  0  0  0  0  0  0  0  0  0
    1.2344   -0.3337    0.0000 C   0  0  0  0  0  0  0  0  0  0  0  0
    0.7495   -1.0011    0.0000 C   0  0  0  0  0  0  0  0  0  0  0  0
   -1.4641   -0.7462    0.0000 C   0  0  2  0  0  0  0  0  0  0  0  0
   -1.4641   -1.5712    0.0000 H   0  0  0  0  0  0  0  0  0  0  0  0
   -0.0350   -0.7462    0.0000 C   0  0  1  0  0  0  0  0  0  0  0  0
   -0.0350   -1.5712    0.0000 H   0  0  0  0  0  0  0  0  0  0  0  0
   -0.7495   -1.1587    0.0000 C   0  0  2  0  0  0  0  0  0  0  0  0
   -0.7495   -0.3337    0.0000 H   0  0  0  0  0  0  0  0  0  0  0  0
   -0.0350    0.0787    0.0000 C   0  0  1  0  0  0  0  0  0  0  0  0
    0.7495    0.3337    0.0000 C   0  0  1  0  0  0  0  0  0  0  0  0
   -3.6075   -1.9837    0.0000 C   0  0  0  0  0  0  0  0  0  0  0  0
   -4.3220   -2.3962    0.0000 O   0  0  0  0  0  0  0  0  0  0  0  0
   -1.4641    0.0787    0.0000 C   0  0  1  0  0  0  0  0  0  0  0  0
   -2.1786    0.4912    0.0000 O   0  0  0  0  0  0  0  0  0  0  0  0
    0.7495    1.1587    0.0000 C   0  0  0  0  0  0  0  0  0  0  0  0
    0.0350    1.5712    0.0000 O   0  0  0  0  0  0  0  0  0  0  0  0
    1.4640    1.5712    0.0000 C   0  0  0  0  0  0  0  0  0  0  0  0
    1.4640    0.7462    0.0000 O   0  0  0  0  0  0  0  0  0  0  0  0
   -0.0350    0.9037    0.0000 C   0  0  0  0  0  0  0  0  0  0  0  0
   -2.1784   -1.1587    0.0000 C   0  0  2  0  0  0  0  0  0  0  0  0
   -2.1784   -0.3337    0.0000 C   0  0  0  0  0  0  0  0  0  0  0  0
    2.1786    0.3337    0.0000 C   0  0  0  0  0  0  0  0  0  0  0  0
    2.1786   -0.4912    0.0000 O   0  0  0  0  0  0  0  0  0  0  0  0
    2.8929    0.7462    0.0000 C   0  0  0  0  0  0  0  0  0  0  0  0
    3.6074    0.3337    0.0000 C   0  0  0  0  0  0  0  0  0  0  0  0
    4.3219    0.7462    0.0000 C   0  0  0  0  0  0  0  0  0  0  0  0
    1.4640    2.3962    0.0000 O   0  0  0  0  0  0  0  0  0  0  0  0
    0.1771   -2.5188    0.0000 H   0  0  0  0  0  0  0  0  0  0  0  0
   -0.7496   -3.0537    0.0000 H   0  0  0  0  0  0  0  0  0  0  0  0
   -1.4642   -3.4661    0.0000 H   0  0  0  0  0  0  0  0  0  0  0  0
   -2.3908   -2.9311    0.0000 H   0  0  0  0  0  0  0  0  0  0  0  0
   -2.8929   -3.4281    0.0000 H   0  0  0  0  0  0  0  0  0  0  0  0
   -4.5341   -0.6237    0.0000 H   0  0  0  0  0  0  0  0  0  0  0  0
   -3.6074   -0.0887    0.0000 H   0  0  0  0  0  0  0  0  0  0  0  0
   -2.8929    0.3238    0.0000 H   0  0  0  0  0  0  0  0  0  0  0  0
   -1.9662   -0.2112    0.0000 H   0  0  0  0  0  0  0  0  0  0  0  0
   -0.7495    1.5612    0.0000 H   0  0  0  0  0  0  0  0  0  0  0  0
    0.1772    1.0262    0.0000 H   0  0  0  0  0  0  0  0  0  0  0  0
    2.3044   -0.3337    0.0000 H   0  0  0  0  0  0  0  0  0  0  0  0
    1.7202   -1.2871    0.0000 H   0  0  0  0  0  0  0  0  0  0  0  0
    1.0801   -2.0187    0.0000 H   0  0  0  0  0  0  0  0  0  0  0  0
   -0.0071   -1.7577    0.0000 H   0  0  0  0  0  0  0  0  0  0  0  0
   -2.3907   -0.4563    0.0000 H   0  0  0  0  0  0  0  0  0  0  0  0
   -2.1786    1.4612    0.0000 H   0  0  0  0  0  0  0  0  0  0  0  0
    2.3906    1.0362    0.0000 H   0  0  0  0  0  0  0  0  0  0  0  0
    2.3906    2.1062    0.0000 H   0  0  0  0  0  0  0  0  0  0  0  0
    0.8916    1.4387    0.0000 H   0  0  0  0  0  0  0  0  0  0  0  0
   -0.9616    1.4387    0.0000 H   0  0  0  0  0  0  0  0  0  0  0  0
   -0.0350    1.9737    0.0000 H   0  0  0  0  0  0  0  0  0  0  0  0
   -1.2518    0.2013    0.0000 H   0  0  0  0  0  0  0  0  0  0  0  0
   -3.1050    0.2013    0.0000 H   0  0  0  0  0  0  0  0  0  0  0  0
   -2.1784    0.7363    0.0000 H   0  0  0  0  0  0  0  0  0  0  0  0
    2.8928    1.8162    0.0000 H   0  0  0  0  0  0  0  0  0  0  0  0
    3.8195    1.2812    0.0000 H   0  0  0  0  0  0  0  0  0  0  0  0
    3.6074   -0.7363    0.0000 H   0  0  0  0  0  0  0  0  0  0  0  0
    4.5340   -0.2013    0.0000 H   0  0  0  0  0  0  0  0  0  0  0  0
    5.2485    0.2112    0.0000 H   0  0  0  0  0  0  0  0  0  0  0  0
    4.3219    1.8162    0.0000 H   0  0  0  0  0  0  0  0  0  0  0  0
    5.2486    1.2812    0.0000 H   0  0  0  0  0  0  0  0  0  0  0  0
    2.3040    2.8812    0.0000 H   0  0  0  0  0  0  0  0  0  0  0  0
  1  2  1  0  0  0  0
  1 35  1  0  0  0  0
  1 36  1  0  0  0  0
  2  3  1  0  0  0  0
  2 37  1  0  0  0  0
  2 38  1  0  0  0  0
  3  4  2  0  0  0  0
  3 27  1  0  0  0  0
  4 18  1  0  0  0  0
  4 39  1  0  0  0  0
  5  6  1  0  0  0  0
  5 40  1  0  0  0  0
  5 41  1  0  0  0  0
  6 27  1  0  0  0  0
  6 42  1  0  0  0  0
  6 43  1  0  0  0  0
  7 16  1  0  0  0  0
  7 44  1  0  0  0  0
  7 45  1  0  0  0  0
  8  9  1  0  0  0  0
  8 46  1  0  0  0  0
  8 47  1  0  0  0  0
  9 12  1  0  0  0  0
  9 48  1  0  0  0  0
  9 49  1  0  0  0  0
 10 20  1  0  0  0  0
 10 11  1  6  0  0  0
 12 13  1  6  0  0  0
 14  1  1  0  0  0  0
 14 10  1  0  0  0  0
 14 12  1  0  0  0  0
 14 15  1  1  0  0  0
 16 17  1  0  0  0  0
 16 12  1  0  0  0  0
 16 26  1  1  0  0  0
 17  8  1  0  0  0  0
 17 25  1  6  0  0  0
 17 22  1  0  0  0  0
 18  5  1  0  0  0  0
 18 19  2  0  0  0  0
 20  7  1  0  0  0  0
 20 21  1  0  0  0  0
 20 50  1  6  0  0  0
 21 51  1  0  0  0  0
 22 24  1  0  0  0  0
 22 23  2  0  0  0  0
 24 34  1  0  0  0  0
 24 52  1  0  0  0  0
 24 53  1  0  0  0  0
 25 29  1  0  0  0  0
 26 54  1  0  0  0  0
 26 55  1  0  0  0  0
 26 56  1  0  0  0  0
 27 10  1  0  0  0  0
 27 28  1  1  0  0  0
 28 57  1  0  0  0  0
 28 58  1  0  0  0  0
 28 59  1  0  0  0  0
 29 30  2  0  0  0  0
 29 31  1  0  0  0  0
 31 32  1  0  0  0  0
 31 60  1  0  0  0  0
 31 61  1  0  0  0  0
 32 33  1  0  0  0  0
 32 62  1  0  0  0  0
 32 63  1  0  0  0  0
 33 64  1  0  0  0  0
 33 65  1  0  0  0  0
 33 66  1  0  0  0  0
 34 67  1  0  0  0  0
M  END
>  <DRUGBANK_ID>
DB14540

>  <SECONDARY_ACCESSION_NUMBERS>
DBSALT001234

>  <COMMON_NAME>
Hydrocortisone butyrate

>  <CAS_NUMBER>
13609-67-1

>  <UNII>
05RMF7YPWN

>  <SYNONYMS>
11β,21-dihydroxy-17α-butyryloxy-4-pregnene-3,20-dione; 17-O-butyrylcortisol; Cortisol 17-butyrate; H-17-B; Hydrocortisone butyrate; Hydrocortisone-17alpha-butyrate

$$$$
