
 OpenBabel10282417072D

 73 78  0  0  1  0  0  0  0  0999 V2000
   -4.6882    2.3964    0.0000 C   0  0  0  0  0  0  0  0  0  0  0  0
   -3.8813    2.2248    0.0000 C   0  0  0  0  0  0  0  0  0  0  0  0
   -3.3292    2.8379    0.0000 O   0  0  0  0  0  0  0  0  0  0  0  0
   -2.5223    2.6664    0.0000 C   0  0  0  0  0  0  0  0  0  0  0  0
   -2.2673    1.8818    0.0000 O   0  0  0  0  0  0  0  0  0  0  0  0
   -1.9702    3.2795    0.0000 C   0  0  0  0  0  0  0  0  0  0  0  0
   -1.1633    3.1080    0.0000 C   0  0  0  0  0  0  0  0  0  0  0  0
   -0.6112    3.7211    0.0000 N   0  0  0  0  0  0  0  0  0  0  0  0
   -0.8662    4.5057    0.0000 C   0  0  0  0  0  0  0  0  0  0  0  0
   -0.3141    5.1188    0.0000 C   0  0  0  0  0  0  0  0  0  0  0  0
   -1.6731    4.6772    0.0000 C   0  0  0  0  0  0  0  0  0  0  0  0
   -2.2252    4.0641    0.0000 C   0  0  1  0  0  0  0  0  0  0  0  0
   -3.0321    4.2357    0.0000 C   0  0  0  0  0  0  0  0  0  0  0  0
   -3.2871    5.0203    0.0000 C   0  0  0  0  0  0  0  0  0  0  0  0
   -4.0941    5.1918    0.0000 C   0  0  0  0  0  0  0  0  0  0  0  0
   -4.6461    4.5787    0.0000 C   0  0  0  0  0  0  0  0  0  0  0  0
   -4.3912    3.7941    0.0000 C   0  0  0  0  0  0  0  0  0  0  0  0
   -3.5842    3.6226    0.0000 C   0  0  0  0  0  0  0  0  0  0  0  0
   -3.8391    2.8379    0.0000 Cl  0  0  0  0  0  0  0  0  0  0  0  0
   -1.9281    5.4618    0.0000 C   0  0  0  0  0  0  0  0  0  0  0  0
   -2.7351    5.6334    0.0000 O   0  0  0  0  0  0  0  0  0  0  0  0
   -1.3760    6.0749    0.0000 N   0  0  0  0  0  0  0  0  0  0  0  0
   -1.6310    6.8596    0.0000 C   0  0  0  0  0  0  0  0  0  0  0  0
   -2.4380    7.0311    0.0000 N   0  0  0  0  0  0  0  0  0  0  0  0
   -2.6929    7.8157    0.0000 C   0  0  0  0  0  0  0  0  0  0  0  0
   -2.1409    8.4288    0.0000 C   0  0  0  0  0  0  0  0  0  0  0  0
   -1.3339    8.2573    0.0000 C   0  0  0  0  0  0  0  0  0  0  0  0
   -1.0790    7.4727    0.0000 C   0  0  0  0  0  0  0  0  0  0  0  0
   -0.9083    2.3234    0.0000 C   0  0  0  0  0  0  0  0  0  0  0  0
   -0.1014    2.1518    0.0000 C   0  0  0  0  0  0  0  0  0  0  0  0
    0.1536    1.3672    0.0000 C   0  0  0  0  0  0  0  0  0  0  0  0
   -0.3984    0.7541    0.0000 C   0  0  0  0  0  0  0  0  0  0  0  0
   -1.2054    0.9256    0.0000 C   0  0  0  0  0  0  0  0  0  0  0  0
   -1.4604    1.7103    0.0000 C   0  0  0  0  0  0  0  0  0  0  0  0
   -0.1435   -0.0305    0.0000 N   0  0  0  0  0  0  0  0  0  0  0  0
   -0.6284   -0.6979    0.0000 C   0  0  0  0  0  0  0  0  0  0  0  0
   -1.4534   -0.6979    0.0000 C   0  0  0  0  0  0  0  0  0  0  0  0
   -0.1435   -1.3654    0.0000 N   0  0  0  0  0  0  0  0  0  0  0  0
    0.6411   -1.1104    0.0000 C   0  0  0  0  0  0  0  0  0  0  0  0
    0.6411   -0.2854    0.0000 C   0  0  0  0  0  0  0  0  0  0  0  0
    1.3556    0.1271    0.0000 C   0  0  0  0  0  0  0  0  0  0  0  0
    2.0701   -0.2854    0.0000 C   0  0  0  0  0  0  0  0  0  0  0  0
    2.0701   -1.1104    0.0000 N   0  0  0  0  0  0  0  0  0  0  0  0
    1.3556   -1.5229    0.0000 C   0  0  0  0  0  0  0  0  0  0  0  0
   -5.0187    3.4141    0.0000 H   0  0  0  0  0  0  0  0  0  0  0  0
   -5.4043    1.6013    0.0000 H   0  0  0  0  0  0  0  0  0  0  0  0
   -5.7348    2.6190    0.0000 H   0  0  0  0  0  0  0  0  0  0  0  0
   -3.5507    1.2071    0.0000 H   0  0  0  0  0  0  0  0  0  0  0  0
   -2.8347    2.0023    0.0000 H   0  0  0  0  0  0  0  0  0  0  0  0
    0.3518    3.5164    0.0000 H   0  0  0  0  0  0  0  0  0  0  0  0
    0.7325    4.8963    0.0000 H   0  0  0  0  0  0  0  0  0  0  0  0
   -0.6447    6.1364    0.0000 H   0  0  0  0  0  0  0  0  0  0  0  0
    0.4019    5.9139    0.0000 H   0  0  0  0  0  0  0  0  0  0  0  0
   -2.5558    5.0818    0.0000 H   0  0  0  0  0  0  0  0  0  0  0  0
   -2.5966    5.7873    0.0000 H   0  0  0  0  0  0  0  0  0  0  0  0
   -4.4130    6.1733    0.0000 H   0  0  0  0  0  0  0  0  0  0  0  0
   -5.6555    4.7933    0.0000 H   0  0  0  0  0  0  0  0  0  0  0  0
   -5.0817    3.0272    0.0000 H   0  0  0  0  0  0  0  0  0  0  0  0
   -0.4130    5.8702    0.0000 H   0  0  0  0  0  0  0  0  0  0  0  0
   -3.7023    8.0303    0.0000 H   0  0  0  0  0  0  0  0  0  0  0  0
   -2.4598    9.4103    0.0000 H   0  0  0  0  0  0  0  0  0  0  0  0
   -0.6434    9.0242    0.0000 H   0  0  0  0  0  0  0  0  0  0  0  0
   -0.0696    7.2581    0.0000 H   0  0  0  0  0  0  0  0  0  0  0  0
    0.5892    2.9187    0.0000 H   0  0  0  0  0  0  0  0  0  0  0  0
    1.1631    1.1527    0.0000 H   0  0  0  0  0  0  0  0  0  0  0  0
   -1.8959    0.1586    0.0000 H   0  0  0  0  0  0  0  0  0  0  0  0
   -2.4698    1.9249    0.0000 H   0  0  0  0  0  0  0  0  0  0  0  0
   -1.9884    0.2287    0.0000 H   0  0  0  0  0  0  0  0  0  0  0  0
   -1.9884   -1.6245    0.0000 H   0  0  0  0  0  0  0  0  0  0  0  0
   -2.5234   -0.6979    0.0000 H   0  0  0  0  0  0  0  0  0  0  0  0
    1.3556    1.1591    0.0000 H   0  0  0  0  0  0  0  0  0  0  0  0
    2.9638    0.2306    0.0000 H   0  0  0  0  0  0  0  0  0  0  0  0
    1.3556   -2.5549    0.0000 H   0  0  0  0  0  0  0  0  0  0  0  0
  1  2  1  0  0  0  0
  1 45  1  0  0  0  0
  1 46  1  0  0  0  0
  1 47  1  0  0  0  0
  2  3  1  0  0  0  0
  2 48  1  0  0  0  0
  2 49  1  0  0  0  0
  3  4  1  0  0  0  0
  4  5  2  0  0  0  0
  4  6  1  0  0  0  0
  6  7  2  0  0  0  0
  7  8  1  0  0  0  0
  7 29  1  0  0  0  0
  8  9  1  0  0  0  0
  8 50  1  0  0  0  0
  9 10  1  0  0  0  0
  9 11  2  0  0  0  0
 10 51  1  0  0  0  0
 10 52  1  0  0  0  0
 10 53  1  0  0  0  0
 11 20  1  0  0  0  0
 12 11  1  0  0  0  0
 12  6  1  0  0  0  0
 12 13  1  0  0  0  0
 12 54  1  1  0  0  0
 13 14  2  0  0  0  0
 13 18  1  0  0  0  0
 14 15  1  0  0  0  0
 14 55  1  0  0  0  0
 15 16  2  0  0  0  0
 15 56  1  0  0  0  0
 16 17  1  0  0  0  0
 16 57  1  0  0  0  0
 17 18  2  0  0  0  0
 17 58  1  0  0  0  0
 18 19  1  0  0  0  0
 20 21  2  0  0  0  0
 20 22  1  0  0  0  0
 22 23  1  0  0  0  0
 22 59  1  0  0  0  0
 23 24  2  0  0  0  0
 23 28  1  0  0  0  0
 24 25  1  0  0  0  0
 25 26  2  0  0  0  0
 25 60  1  0  0  0  0
 26 27  1  0  0  0  0
 26 61  1  0  0  0  0
 27 28  2  0  0  0  0
 27 62  1  0  0  0  0
 28 63  1  0  0  0  0
 29 30  2  0  0  0  0
 29 34  1  0  0  0  0
 30 31  1  0  0  0  0
 30 64  1  0  0  0  0
 31 32  2  0  0  0  0
 31 65  1  0  0  0  0
 32 33  1  0  0  0  0
 32 35  1  0  0  0  0
 33 34  2  0  0  0  0
 33 66  1  0  0  0  0
 34 67  1  0  0  0  0
 35 36  1  0  0  0  0
 35 40  1  0  0  0  0
 36 37  1  0  0  0  0
 36 38  2  0  0  0  0
 37 68  1  0  0  0  0
 37 69  1  0  0  0  0
 37 70  1  0  0  0  0
 38 39  1  0  0  0  0
 39 40  2  0  0  0  0
 39 44  1  0  0  0  0
 40 41  1  0  0  0  0
 41 42  2  0  0  0  0
 41 71  1  0  0  0  0
 42 43  1  0  0  0  0
 42 72  1  0  0  0  0
 43 44  2  0  0  0  0
 44 73  1  0  0  0  0
M  END
>  <DRUGBANK_ID>
DB16237

>  <COMMON_NAME>
Modipafant

>  <CAS_NUMBER>
122957-06-6

>  <UNII>
1DMI0E5023

>  <SYNONYMS>
Modipafant

$$$$
