
 OpenBabel10282417072D

 57 60  0  0  0  0  0  0  0  0999 V2000
   -2.4545   -1.1551    0.0000 C   0  0  0  0  0  0  0  0  0  0  0  0
   -2.4545   -1.9802    0.0000 C   0  0  0  0  0  0  0  0  0  0  0  0
   -1.7533   -2.3515    0.0000 C   0  0  0  0  0  0  0  0  0  0  0  0
   -1.0519   -1.9802    0.0000 C   0  0  0  0  0  0  0  0  0  0  0  0
   -1.0519   -1.1551    0.0000 C   0  0  2  0  0  0  0  0  0  0  0  0
   -1.7533   -0.7426    0.0000 C   0  0  0  0  0  0  0  0  0  0  0  0
   -0.3506   -2.3515    0.0000 C   0  0  0  0  0  0  0  0  0  0  0  0
    0.3918   -1.9802    0.0000 C   0  0  2  0  0  0  0  0  0  0  0  0
    0.3918   -1.1551    0.0000 C   0  0  2  0  0  0  0  0  0  0  0  0
   -0.3506   -0.7426    0.0000 C   0  0  2  0  0  0  0  0  0  0  0  0
    1.0932   -0.7426    0.0000 C   0  0  1  0  0  0  0  0  0  0  0  0
    1.0932    0.0824    0.0000 C   0  0  2  0  0  0  0  0  0  0  0  0
    0.3918    0.4949    0.0000 C   0  0  0  0  0  0  0  0  0  0  0  0
   -0.3506    0.0824    0.0000 C   0  0  2  0  0  0  0  0  0  0  0  0
    1.8358   -0.9900    0.0000 C   0  0  0  0  0  0  0  0  0  0  0  0
    2.3308   -0.3300    0.0000 C   0  0  2  0  0  0  0  0  0  0  0  0
    1.8358    0.3299    0.0000 C   0  0  2  0  0  0  0  0  0  0  0  0
   -3.1559   -2.3515    0.0000 O   0  0  0  0  0  0  0  0  0  0  0  0
   -1.0519   -0.3300    0.0000 C   0  0  0  0  0  0  0  0  0  0  0  0
    0.3918   -0.3300    0.0000 H   0  0  0  0  0  0  0  0  0  0  0  0
   -1.0519    0.4949    0.0000 O   0  0  0  0  0  0  0  0  0  0  0  0
    1.0932    0.9076    0.0000 C   0  0  0  0  0  0  0  0  0  0  0  0
   -0.3506   -1.5676    0.0000 H   0  0  0  0  0  0  0  0  0  0  0  0
    1.0932   -1.5676    0.0000 H   0  0  0  0  0  0  0  0  0  0  0  0
    3.1559   -0.3300    0.0000 C   0  0  0  0  0  0  0  0  0  0  0  0
    1.8358    1.1550    0.0000 C   0  0  0  0  0  0  0  0  0  0  0  0
    1.1212    1.5676    0.0000 C   0  0  0  0  0  0  0  0  0  0  0  0
    2.5503    1.5676    0.0000 O   0  0  0  0  0  0  0  0  0  0  0  0
    2.5503    0.7425    0.0000 O   0  0  0  0  0  0  0  0  0  0  0  0
    1.1212    2.3926    0.0000 O   0  0  0  0  0  0  0  0  0  0  0  0
    1.1064   -2.3927    0.0000 Cl  0  0  0  0  0  0  0  0  0  0  0  0
   -3.3503   -0.6427    0.0000 H   0  0  0  0  0  0  0  0  0  0  0  0
   -1.7534   -3.3835    0.0000 H   0  0  0  0  0  0  0  0  0  0  0  0
   -1.7534    0.2894    0.0000 H   0  0  0  0  0  0  0  0  0  0  0  0
   -0.3630   -3.4214    0.0000 H   0  0  0  0  0  0  0  0  0  0  0  0
    0.5564   -2.9192    0.0000 H   0  0  0  0  0  0  0  0  0  0  0  0
    0.3598   -3.0497    0.0000 H   0  0  0  0  0  0  0  0  0  0  0  0
    0.4049    1.5648    0.0000 H   0  0  0  0  0  0  0  0  0  0  0  0
   -0.5271    1.0431    0.0000 H   0  0  0  0  0  0  0  0  0  0  0  0
   -0.3375    1.1523    0.0000 H   0  0  0  0  0  0  0  0  0  0  0  0
    2.1549   -2.0113    0.0000 H   0  0  0  0  0  0  0  0  0  0  0  0
    2.8903   -1.1714    0.0000 H   0  0  0  0  0  0  0  0  0  0  0  0
    2.8093   -1.2870    0.0000 H   0  0  0  0  0  0  0  0  0  0  0  0
   -0.1253    0.2050    0.0000 H   0  0  0  0  0  0  0  0  0  0  0  0
   -1.9785    0.2050    0.0000 H   0  0  0  0  0  0  0  0  0  0  0  0
   -1.0519    0.7400    0.0000 H   0  0  0  0  0  0  0  0  0  0  0  0
   -1.0440    1.4649    0.0000 H   0  0  0  0  0  0  0  0  0  0  0  0
    2.0198    1.4426    0.0000 H   0  0  0  0  0  0  0  0  0  0  0  0
    0.1666    1.4426    0.0000 H   0  0  0  0  0  0  0  0  0  0  0  0
    1.0932    1.9776    0.0000 H   0  0  0  0  0  0  0  0  0  0  0  0
    3.6909   -1.2566    0.0000 H   0  0  0  0  0  0  0  0  0  0  0  0
    3.6909    0.5966    0.0000 H   0  0  0  0  0  0  0  0  0  0  0  0
    4.2259   -0.3300    0.0000 H   0  0  0  0  0  0  0  0  0  0  0  0
    0.1945    1.0326    0.0000 H   0  0  0  0  0  0  0  0  0  0  0  0
    0.1946    2.1026    0.0000 H   0  0  0  0  0  0  0  0  0  0  0  0
    3.3904    0.2576    0.0000 H   0  0  0  0  0  0  0  0  0  0  0  0
    1.9612    2.8776    0.0000 H   0  0  0  0  0  0  0  0  0  0  0  0
  1  2  1  0  0  0  0
  1  6  2  0  0  0  0
  1 32  1  0  0  0  0
  2  3  1  0  0  0  0
  2 18  2  0  0  0  0
  3  4  2  0  0  0  0
  3 33  1  0  0  0  0
  4  5  1  0  0  0  0
  4  7  1  0  0  0  0
  5  6  1  0  0  0  0
  5 10  1  0  0  0  0
  5 19  1  1  0  0  0
  6 34  1  0  0  0  0
  7  8  1  0  0  0  0
  7 35  1  0  0  0  0
  7 36  1  0  0  0  0
  8  9  1  0  0  0  0
  8 31  1  0  0  0  0
  8 37  1  1  0  0  0
  9 10  1  0  0  0  0
  9 11  1  0  0  0  0
  9 20  1  1  0  0  0
 10 14  1  0  0  0  0
 10 23  1  6  0  0  0
 11 12  1  0  0  0  0
 11 15  1  0  0  0  0
 11 24  1  6  0  0  0
 12 13  1  0  0  0  0
 12 17  1  0  0  0  0
 12 22  1  1  0  0  0
 13 14  1  0  0  0  0
 13 38  1  0  0  0  0
 13 39  1  0  0  0  0
 14 21  1  0  0  0  0
 14 40  1  6  0  0  0
 15 16  1  0  0  0  0
 15 41  1  0  0  0  0
 15 42  1  0  0  0  0
 16 17  1  0  0  0  0
 16 25  1  0  0  0  0
 16 43  1  1  0  0  0
 17 26  1  1  0  0  0
 17 29  1  0  0  0  0
 19 44  1  0  0  0  0
 19 45  1  0  0  0  0
 19 46  1  0  0  0  0
 21 47  1  0  0  0  0
 22 48  1  0  0  0  0
 22 49  1  0  0  0  0
 22 50  1  0  0  0  0
 25 51  1  0  0  0  0
 25 52  1  0  0  0  0
 25 53  1  0  0  0  0
 26 27  1  0  0  0  0
 26 28  2  0  0  0  0
 27 30  1  0  0  0  0
 27 54  1  0  0  0  0
 27 55  1  0  0  0  0
 29 56  1  0  0  0  0
 30 57  1  0  0  0  0
M  END
>  <DRUGBANK_ID>
DB00240

>  <SECONDARY_ACCESSION_NUMBERS>
APRD00783

>  <COMMON_NAME>
Alclometasone

>  <CAS_NUMBER>
67452-97-5

>  <UNII>
136H45TB7B

>  <SYNONYMS>
(7alpha,11beta,16alpha)-7-chloro-11,17,21-trihydroxy-16-methylpregna-1,4-diene-3,20-dione; 7α-Chloro-16α-methylprednisolone; Alclometasone

$$$$
