
 OpenBabel10282417072D

 59 62  0  0  0  0  0  0  0  0999 V2000
    0.0000   -2.4750    0.0000 C   0  0  0  0  0  0  0  0  0  0  0  0
    0.0000   -1.6500    0.0000 O   0  0  0  0  0  0  0  0  0  0  0  0
    0.7145   -1.2375    0.0000 C   0  0  0  0  0  0  0  0  0  0  0  0
    0.7145   -0.4125    0.0000 C   0  0  0  0  0  0  0  0  0  0  0  0
    0.0000    0.0000    0.0000 O   0  0  0  0  0  0  0  0  0  0  0  0
    0.0000    0.8250    0.0000 C   0  0  0  0  0  0  0  0  0  0  0  0
    1.4289    0.0000    0.0000 C   0  0  0  0  0  0  0  0  0  0  0  0
    2.1434   -0.4125    0.0000 C   0  0  0  0  0  0  0  0  0  0  0  0
    2.8579    0.0000    0.0000 C   0  0  0  0  0  0  0  0  0  0  0  0
    2.8579    0.8250    0.0000 O   0  0  0  0  0  0  0  0  0  0  0  0
    3.5724    1.2375    0.0000 C   0  0  0  0  0  0  0  0  0  0  0  0
    3.5724    2.0625    0.0000 C   0  0  0  0  0  0  0  0  0  0  0  0
    4.2868    2.4750    0.0000 C   0  0  0  0  0  0  0  0  0  0  0  0
    5.0013    2.0625    0.0000 C   0  0  0  0  0  0  0  0  0  0  0  0
    5.0013    1.2375    0.0000 C   0  0  0  0  0  0  0  0  0  0  0  0
    5.7158    0.8250    0.0000 N   0  0  0  0  0  0  0  0  0  0  0  0
    6.4302    1.2375    0.0000 C   0  0  0  0  0  0  0  0  0  0  0  0
    6.4302    2.0625    0.0000 O   0  0  0  0  0  0  0  0  0  0  0  0
    7.1447    0.8250    0.0000 N   0  0  0  0  0  0  0  0  0  0  0  0
    7.8592    1.2375    0.0000 C   0  0  0  0  0  0  0  0  0  0  0  0
    7.9454    2.0580    0.0000 N   0  0  0  0  0  0  0  0  0  0  0  0
    8.7524    2.2295    0.0000 O   0  0  0  0  0  0  0  0  0  0  0  0
    9.1649    1.5150    0.0000 C   0  0  0  0  0  0  0  0  0  0  0  0
    8.6129    0.9019    0.0000 C   0  0  0  0  0  0  0  0  0  0  0  0
    9.9854    1.4288    0.0000 C   0  0  0  0  0  0  0  0  0  0  0  0
    9.8991    0.6083    0.0000 C   0  0  0  0  0  0  0  0  0  0  0  0
   10.0716    2.2493    0.0000 C   0  0  0  0  0  0  0  0  0  0  0  0
   10.8058    1.3426    0.0000 C   0  0  0  0  0  0  0  0  0  0  0  0
   11.6263    1.2563    0.0000 F   0  0  0  0  0  0  0  0  0  0  0  0
   10.7196    0.5221    0.0000 F   0  0  0  0  0  0  0  0  0  0  0  0
   10.8921    2.1630    0.0000 F   0  0  0  0  0  0  0  0  0  0  0  0
    4.2868    0.8250    0.0000 C   0  0  0  0  0  0  0  0  0  0  0  0
    3.5724   -0.4125    0.0000 N   0  0  0  0  0  0  0  0  0  0  0  0
    3.5724   -1.2375    0.0000 C   0  0  0  0  0  0  0  0  0  0  0  0
    2.8579   -1.6500    0.0000 N   0  0  0  0  0  0  0  0  0  0  0  0
    2.1434   -1.2375    0.0000 C   0  0  0  0  0  0  0  0  0  0  0  0
    1.4289   -1.6500    0.0000 C   0  0  0  0  0  0  0  0  0  0  0  0
   -0.9266   -3.0100    0.0000 H   0  0  0  0  0  0  0  0  0  0  0  0
    0.9266   -3.0100    0.0000 H   0  0  0  0  0  0  0  0  0  0  0  0
    0.0000   -3.5450    0.0000 H   0  0  0  0  0  0  0  0  0  0  0  0
    0.9266    1.3600    0.0000 H   0  0  0  0  0  0  0  0  0  0  0  0
   -0.9266    1.3600    0.0000 H   0  0  0  0  0  0  0  0  0  0  0  0
   -0.0000    1.8950    0.0000 H   0  0  0  0  0  0  0  0  0  0  0  0
    1.4289    1.0320    0.0000 H   0  0  0  0  0  0  0  0  0  0  0  0
    2.6787    2.5785    0.0000 H   0  0  0  0  0  0  0  0  0  0  0  0
    4.2868    3.5070    0.0000 H   0  0  0  0  0  0  0  0  0  0  0  0
    5.8950    2.5785    0.0000 H   0  0  0  0  0  0  0  0  0  0  0  0
    5.7158   -0.1595    0.0000 H   0  0  0  0  0  0  0  0  0  0  0  0
    7.1447   -0.1595    0.0000 H   0  0  0  0  0  0  0  0  0  0  0  0
    8.8275   -0.1075    0.0000 H   0  0  0  0  0  0  0  0  0  0  0  0
    8.9216    0.1732    0.0000 H   0  0  0  0  0  0  0  0  0  0  0  0
   10.7647   -0.0207    0.0000 H   0  0  0  0  0  0  0  0  0  0  0  0
    9.7872   -0.4558    0.0000 H   0  0  0  0  0  0  0  0  0  0  0  0
   11.0491    2.6846    0.0000 H   0  0  0  0  0  0  0  0  0  0  0  0
    9.2059    2.8782    0.0000 H   0  0  0  0  0  0  0  0  0  0  0  0
   10.1834    3.3134    0.0000 H   0  0  0  0  0  0  0  0  0  0  0  0
    4.2868   -0.2070    0.0000 H   0  0  0  0  0  0  0  0  0  0  0  0
    4.4661   -1.7535    0.0000 H   0  0  0  0  0  0  0  0  0  0  0  0
    1.4289   -2.6820    0.0000 H   0  0  0  0  0  0  0  0  0  0  0  0
  1  2  1  0  0  0  0
  1 38  1  0  0  0  0
  1 39  1  0  0  0  0
  1 40  1  0  0  0  0
  2  3  1  0  0  0  0
  3  4  2  0  0  0  0
  3 37  1  0  0  0  0
  4  5  1  0  0  0  0
  4  7  1  0  0  0  0
  5  6  1  0  0  0  0
  6 41  1  0  0  0  0
  6 42  1  0  0  0  0
  6 43  1  0  0  0  0
  7  8  2  0  0  0  0
  7 44  1  0  0  0  0
  8  9  1  0  0  0  0
  8 36  1  0  0  0  0
  9 10  1  0  0  0  0
  9 33  2  0  0  0  0
 10 11  1  0  0  0  0
 11 12  2  0  0  0  0
 11 32  1  0  0  0  0
 12 13  1  0  0  0  0
 12 45  1  0  0  0  0
 13 14  2  0  0  0  0
 13 46  1  0  0  0  0
 14 15  1  0  0  0  0
 14 47  1  0  0  0  0
 15 16  1  0  0  0  0
 15 32  2  0  0  0  0
 16 17  1  0  0  0  0
 16 48  1  0  0  0  0
 17 18  2  0  0  0  0
 17 19  1  0  0  0  0
 19 20  1  0  0  0  0
 19 49  1  0  0  0  0
 20 21  2  0  0  0  0
 20 24  1  0  0  0  0
 21 22  1  0  0  0  0
 22 23  1  0  0  0  0
 23 24  2  0  0  0  0
 23 25  1  0  0  0  0
 24 50  1  0  0  0  0
 25 26  1  0  0  0  0
 25 27  1  0  0  0  0
 25 28  1  0  0  0  0
 26 51  1  0  0  0  0
 26 52  1  0  0  0  0
 26 53  1  0  0  0  0
 27 54  1  0  0  0  0
 27 55  1  0  0  0  0
 27 56  1  0  0  0  0
 28 29  1  0  0  0  0
 28 30  1  0  0  0  0
 28 31  1  0  0  0  0
 32 57  1  0  0  0  0
 33 34  1  0  0  0  0
 34 35  2  0  0  0  0
 34 58  1  0  0  0  0
 35 36  1  0  0  0  0
 36 37  2  0  0  0  0
 37 59  1  0  0  0  0
M  END
>  <DRUGBANK_ID>
DB15068

>  <COMMON_NAME>
Agerafenib

>  <CAS_NUMBER>
1188910-76-0

>  <UNII>
78I4VEX88N

>  <SYNONYMS>
Agerafenib

$$$$
