
 OpenBabel10282417072D

 99103  0  0  0  0  0  0  0  0999 V2000
   -2.5094   -3.5102    0.0000 O   0  0  0  0  0  0  0  0  0  0  0  0
   -1.1526   -1.8973    0.0000 O   0  0  0  0  0  0  0  0  0  0  0  0
    0.3652   -1.0340    0.0000 O   0  0  0  0  0  0  0  0  0  0  0  0
   -0.3463   -4.7435    0.0000 O   0  0  0  0  0  0  0  0  0  0  0  0
   -1.0577   -1.0245    0.0000 O   0  0  0  0  0  0  0  0  0  0  0  0
    0.3652    1.4325    0.0000 O   0  0  0  0  0  0  0  0  0  0  0  0
    1.0672    1.8499    0.0000 O   0  0  0  0  0  0  0  0  0  0  0  0
    3.2113   -0.2181    0.0000 O   0  0  0  0  0  0  0  0  0  0  0  0
    3.2113    0.6166    0.0000 N   0  0  0  0  0  0  0  0  0  0  0  0
   -1.0672   -2.6847    0.0000 C   0  0  1  0  0  0  0  0  0  0  0  0
   -1.0672   -3.5102    0.0000 C   0  0  1  0  0  0  0  0  0  0  0  0
   -0.3463   -2.2674    0.0000 C   0  0  2  0  0  0  0  0  0  0  0  0
   -1.7788   -2.2674    0.0000 C   0  0  0  0  0  0  0  0  0  0  0  0
   -0.3463   -3.9277    0.0000 C   0  0  1  0  0  0  0  0  0  0  0  0
   -0.3463   -1.4420    0.0000 C   0  0  0  0  0  0  0  0  0  0  0  0
    0.3652   -2.6753    0.0000 C   0  0  0  0  0  0  0  0  0  0  0  0
    0.3652   -3.5197    0.0000 C   0  0  0  0  0  0  0  0  0  0  0  0
   -2.5094   -2.6847    0.0000 C   0  0  0  0  0  0  0  0  0  0  0  0
    0.3652   -0.2087    0.0000 C   0  0  2  0  0  0  0  0  0  0  0  0
   -1.7788   -1.4420    0.0000 C   0  0  0  0  0  0  0  0  0  0  0  0
    1.0672    1.0340    0.0000 C   0  0  2  0  0  0  0  0  0  0  0  0
    1.0672    0.1992    0.0000 C   0  0  0  0  0  0  0  0  0  0  0  0
   -0.3463    1.0245    0.0000 C   0  0  1  0  0  0  0  0  0  0  0  0
   -0.3463    0.1992    0.0000 C   0  0  0  0  0  0  0  0  0  0  0  0
    1.0672   -3.9182    0.0000 C   0  0  0  0  0  0  0  0  0  0  0  0
    1.7788    0.6166    0.0000 C   0  0  0  0  0  0  0  0  0  0  0  0
   -2.4998   -1.0340    0.0000 C   0  0  0  0  0  0  0  0  0  0  0  0
    1.7788    2.2674    0.0000 C   0  0  1  0  0  0  0  0  0  0  0  0
    2.4903    1.0340    0.0000 C   0  0  0  0  0  0  0  0  0  0  0  0
    2.4903    1.8499    0.0000 C   0  0  2  0  0  0  0  0  0  0  0  0
   -1.0672    1.4420    0.0000 C   0  0  0  0  0  0  0  0  0  0  0  0
    1.7788    3.0927    0.0000 C   0  0  0  0  0  0  0  0  0  0  0  0
   -2.4998   -0.2087    0.0000 C   0  0  0  0  0  0  0  0  0  0  0  0
   -1.7788    1.0245    0.0000 C   0  0  0  0  0  0  0  0  0  0  0  0
    3.2113    2.2674    0.0000 C   0  0  0  0  0  0  0  0  0  0  0  0
   -3.2113    0.2087    0.0000 C   0  0  1  0  0  0  0  0  0  0  0  0
   -2.4998    1.4420    0.0000 C   0  0  0  0  0  0  0  0  0  0  0  0
    2.4998    3.5102    0.0000 C   0  0  0  0  0  0  0  0  0  0  0  0
   -3.2113    1.0245    0.0000 C   0  0  0  0  0  0  0  0  0  0  0  0
    1.0767    3.5007    0.0000 C   0  0  0  0  0  0  0  0  0  0  0  0
    2.4998    4.3261    0.0000 C   0  0  0  0  0  0  0  0  0  0  0  0
   -3.9134   -0.1992    0.0000 C   0  0  0  0  0  0  0  0  0  0  0  0
   -2.4998    2.2674    0.0000 C   0  0  0  0  0  0  0  0  0  0  0  0
    3.9134   -0.6261    0.0000 C   0  0  0  0  0  0  0  0  0  0  0  0
    1.7788    4.7435    0.0000 C   0  0  0  0  0  0  0  0  0  0  0  0
    3.2113    4.7341    0.0000 C   0  0  0  0  0  0  0  0  0  0  0  0
   -1.0672   -4.3356    0.0000 H   0  0  0  0  0  0  0  0  0  0  0  0
   -0.3463   -3.0832    0.0000 H   0  0  0  0  0  0  0  0  0  0  0  0
    0.3652    0.6166    0.0000 H   0  0  0  0  0  0  0  0  0  0  0  0
   -0.3463    1.8499    0.0000 H   0  0  0  0  0  0  0  0  0  0  0  0
   -0.3697   -1.3245    0.0000 H   0  0  0  0  0  0  0  0  0  0  0  0
   -1.1863   -5.2285    0.0000 H   0  0  0  0  0  0  0  0  0  0  0  0
   -1.2733   -4.4621    0.0000 H   0  0  0  0  0  0  0  0  0  0  0  0
    1.2582   -2.1579    0.0000 H   0  0  0  0  0  0  0  0  0  0  0  0
   -3.4348   -2.1475    0.0000 H   0  0  0  0  0  0  0  0  0  0  0  0
   -2.5057   -1.6147    0.0000 H   0  0  0  0  0  0  0  0  0  0  0  0
   -0.8873   -0.9221    0.0000 H   0  0  0  0  0  0  0  0  0  0  0  0
    1.9946   -0.3345    0.0000 H   0  0  0  0  0  0  0  0  0  0  0  0
    1.9935    0.7348    0.0000 H   0  0  0  0  0  0  0  0  0  0  0  0
   -1.2721   -0.3372    0.0000 H   0  0  0  0  0  0  0  0  0  0  0  0
   -1.2734    0.7335    0.0000 H   0  0  0  0  0  0  0  0  0  0  0  0
    1.0750   -4.9882    0.0000 H   0  0  0  0  0  0  0  0  0  0  0  0
    1.9899   -3.3765    0.0000 H   0  0  0  0  0  0  0  0  0  0  0  0
    1.9977   -4.4464    0.0000 H   0  0  0  0  0  0  0  0  0  0  0  0
    1.7788   -0.4534    0.0000 H   0  0  0  0  0  0  0  0  0  0  0  0
    2.7073    0.0848    0.0000 H   0  0  0  0  0  0  0  0  0  0  0  0
   -3.3913   -1.5539    0.0000 H   0  0  0  0  0  0  0  0  0  0  0  0
    0.8503    2.7992    0.0000 H   0  0  0  0  0  0  0  0  0  0  0  0
    2.4934    2.9199    0.0000 H   0  0  0  0  0  0  0  0  0  0  0  0
   -1.0702    2.5120    0.0000 H   0  0  0  0  0  0  0  0  0  0  0  0
   -1.9965    1.9724    0.0000 H   0  0  0  0  0  0  0  0  0  0  0  0
   -1.6043    0.3042    0.0000 H   0  0  0  0  0  0  0  0  0  0  0  0
   -1.7759   -0.0075    0.0000 H   0  0  0  0  0  0  0  0  0  0  0  0
    4.1386    1.7336    0.0000 H   0  0  0  0  0  0  0  0  0  0  0  0
    3.2099    3.3374    0.0000 H   0  0  0  0  0  0  0  0  0  0  0  0
    4.1373    2.8036    0.0000 H   0  0  0  0  0  0  0  0  0  0  0  0
   -3.2136   -0.8613    0.0000 H   0  0  0  0  0  0  0  0  0  0  0  0
    3.3939    2.9948    0.0000 H   0  0  0  0  0  0  0  0  0  0  0  0
   -4.1398    1.5562    0.0000 H   0  0  0  0  0  0  0  0  0  0  0  0
   -3.2170    2.0945    0.0000 H   0  0  0  0  0  0  0  0  0  0  0  0
    1.0797    4.5707    0.0000 H   0  0  0  0  0  0  0  0  0  0  0  0
    0.1485    2.9683    0.0000 H   0  0  0  0  0  0  0  0  0  0  0  0
    0.1516    4.0383    0.0000 H   0  0  0  0  0  0  0  0  0  0  0  0
    2.5020    5.3961    0.0000 H   0  0  0  0  0  0  0  0  0  0  0  0
   -4.8415    0.3333    0.0000 H   0  0  0  0  0  0  0  0  0  0  0  0
   -3.9105   -1.2692    0.0000 H   0  0  0  0  0  0  0  0  0  0  0  0
   -4.8386   -0.7367    0.0000 H   0  0  0  0  0  0  0  0  0  0  0  0
   -1.5732    2.8024    0.0000 H   0  0  0  0  0  0  0  0  0  0  0  0
   -3.4264    2.8024    0.0000 H   0  0  0  0  0  0  0  0  0  0  0  0
   -2.4998    3.3374    0.0000 H   0  0  0  0  0  0  0  0  0  0  0  0
    3.9104   -1.6961    0.0000 H   0  0  0  0  0  0  0  0  0  0  0  0
    4.8416   -0.0937    0.0000 H   0  0  0  0  0  0  0  0  0  0  0  0
    4.8385   -1.1637    0.0000 H   0  0  0  0  0  0  0  0  0  0  0  0
    1.7801    5.8135    0.0000 H   0  0  0  0  0  0  0  0  0  0  0  0
    0.8515    4.2096    0.0000 H   0  0  0  0  0  0  0  0  0  0  0  0
    0.8528    5.2796    0.0000 H   0  0  0  0  0  0  0  0  0  0  0  0
    4.1364    4.1964    0.0000 H   0  0  0  0  0  0  0  0  0  0  0  0
    3.2144    5.8041    0.0000 H   0  0  0  0  0  0  0  0  0  0  0  0
    4.1395    5.2664    0.0000 H   0  0  0  0  0  0  0  0  0  0  0  0
  1 11  1  0  0  0  0
  1 18  1  0  0  0  0
  2 51  1  0  0  0  0
  3 15  1  0  0  0  0
  3 19  1  0  0  0  0
  4 52  1  0  0  0  0
  5 15  2  0  0  0  0
  6 23  1  0  0  0  0
  7 21  1  0  0  0  0
  7 28  1  0  0  0  0
  8  9  1  0  0  0  0
  8 44  1  0  0  0  0
  9 29  2  0  0  0  0
 10  2  1  6  0  0  0
 10 11  1  0  0  0  0
 10 12  1  0  0  0  0
 10 13  1  0  0  0  0
 11 14  1  0  0  0  0
 11 47  1  6  0  0  0
 12 15  1  0  0  0  0
 12 16  1  0  0  0  0
 12 48  1  1  0  0  0
 13 18  1  0  0  0  0
 13 20  2  0  0  0  0
 14  4  1  0  0  0  0
 14 17  1  0  0  0  0
 14 53  1  6  0  0  0
 16 17  2  0  0  0  0
 16 54  1  0  0  0  0
 17 25  1  0  0  0  0
 18 55  1  0  0  0  0
 18 56  1  0  0  0  0
 19 22  1  0  0  0  0
 19 24  1  0  0  0  0
 19 49  1  6  0  0  0
 20 27  1  0  0  0  0
 20 57  1  0  0  0  0
 21  6  1  1  0  0  0
 21 22  1  0  0  0  0
 21 26  1  0  0  0  0
 22 58  1  0  0  0  0
 22 59  1  0  0  0  0
 23 24  1  0  0  0  0
 23 31  1  0  0  0  0
 23 50  1  6  0  0  0
 24 60  1  0  0  0  0
 24 61  1  0  0  0  0
 25 62  1  0  0  0  0
 25 63  1  0  0  0  0
 25 64  1  0  0  0  0
 26 29  1  0  0  0  0
 26 65  1  0  0  0  0
 26 66  1  0  0  0  0
 27 33  2  0  0  0  0
 27 67  1  0  0  0  0
 28 30  1  0  0  0  0
 28 32  1  0  0  0  0
 28 68  1  1  0  0  0
 29 30  1  0  0  0  0
 30 35  1  0  0  0  0
 30 69  1  6  0  0  0
 31 34  1  0  0  0  0
 31 70  1  0  0  0  0
 31 71  1  0  0  0  0
 32 38  2  0  0  0  0
 32 40  1  0  0  0  0
 33 36  1  0  0  0  0
 33 72  1  0  0  0  0
 34 37  2  0  0  0  0
 34 73  1  0  0  0  0
 35 74  1  0  0  0  0
 35 75  1  0  0  0  0
 35 76  1  0  0  0  0
 36 39  1  0  0  0  0
 36 42  1  0  0  0  0
 36 77  1  1  0  0  0
 37 39  1  0  0  0  0
 37 43  1  0  0  0  0
 38 41  1  0  0  0  0
 38 78  1  0  0  0  0
 39 79  1  0  0  0  0
 39 80  1  0  0  0  0
 40 81  1  0  0  0  0
 40 82  1  0  0  0  0
 40 83  1  0  0  0  0
 41 45  1  0  0  0  0
 41 46  1  0  0  0  0
 41 84  1  0  0  0  0
 42 85  1  0  0  0  0
 42 86  1  0  0  0  0
 42 87  1  0  0  0  0
 43 88  1  0  0  0  0
 43 89  1  0  0  0  0
 43 90  1  0  0  0  0
 44 91  1  0  0  0  0
 44 92  1  0  0  0  0
 44 93  1  0  0  0  0
 45 94  1  0  0  0  0
 45 95  1  0  0  0  0
 45 96  1  0  0  0  0
 46 97  1  0  0  0  0
 46 98  1  0  0  0  0
 46 99  1  0  0  0  0
M  END
>  <DRUGBANK_ID>
DB11431

>  <COMMON_NAME>
Moxidectin

>  <CAS_NUMBER>
113507-06-5

>  <UNII>
NGU5H31YO9

>  <SYNONYMS>
Moxidectin; Moxidectina; Moxidectinum

$$$$
