
 OpenBabel10282417072D

 29 30  0  0  0  0  0  0  0  0999 V2000
   -0.1439    0.3651    0.0000 S   0  0  0  0  0  0  0  0  0  0  0  0
    0.5234   -0.1197    0.0000 C   0  0  0  0  0  0  0  0  0  0  0  0
    1.1908    0.3652    0.0000 N   0  0  0  0  0  0  0  0  0  0  0  0
    0.9359    1.1498    0.0000 C   0  0  0  0  0  0  0  0  0  0  0  0
    0.1109    1.1498    0.0000 C   0  0  0  0  0  0  0  0  0  0  0  0
    1.4207    1.8172    0.0000 C   0  0  0  0  0  0  0  0  0  0  0  0
    2.2413    1.7312    0.0000 N   0  0  0  0  0  0  0  0  0  0  0  0
    1.0851    2.5710    0.0000 O   0  0  0  0  0  0  0  0  0  0  0  0
    0.4912   -1.1190    0.0000 C   0  0  1  0  0  0  0  0  0  0  0  0
    0.2486   -1.9036    0.0000 C   0  0  2  0  0  0  0  0  0  0  0  0
    0.7212   -2.5711    0.0000 O   0  0  0  0  0  0  0  0  0  0  0  0
   -0.5763   -1.9036    0.0000 C   0  0  2  0  0  0  0  0  0  0  0  0
   -1.0735   -2.5711    0.0000 O   0  0  0  0  0  0  0  0  0  0  0  0
   -0.8435   -1.1190    0.0000 C   0  0  2  0  0  0  0  0  0  0  0  0
   -0.1761   -0.6341    0.0000 O   0  0  0  0  0  0  0  0  0  0  0  0
   -1.6281   -0.8640    0.0000 C   0  0  0  0  0  0  0  0  0  0  0  0
   -2.2413   -1.4160    0.0000 O   0  0  0  0  0  0  0  0  0  0  0  0
   -0.4958    1.9846    0.0000 H   0  0  0  0  0  0  0  0  0  0  0  0
    2.6420    0.8319    0.0000 H   0  0  0  0  0  0  0  0  0  0  0  0
    2.8197    2.5279    0.0000 H   0  0  0  0  0  0  0  0  0  0  0  0
   -0.5641   -0.9421    0.0000 H   0  0  0  0  0  0  0  0  0  0  0  0
    1.3053   -1.7351    0.0000 H   0  0  0  0  0  0  0  0  0  0  0  0
    0.3159   -3.4523    0.0000 H   0  0  0  0  0  0  0  0  0  0  0  0
   -0.0962   -2.8598    0.0000 H   0  0  0  0  0  0  0  0  0  0  0  0
   -2.0369   -2.4582    0.0000 H   0  0  0  0  0  0  0  0  0  0  0  0
   -1.5948   -1.8809    0.0000 H   0  0  0  0  0  0  0  0  0  0  0  0
   -1.8505    0.1826    0.0000 H   0  0  0  0  0  0  0  0  0  0  0  0
   -2.6457   -0.5332    0.0000 H   0  0  0  0  0  0  0  0  0  0  0  0
   -3.1638   -1.1161    0.0000 H   0  0  0  0  0  0  0  0  0  0  0  0
  1  2  1  0  0  0  0
  1  5  1  0  0  0  0
  2  3  2  0  0  0  0
  3  4  1  0  0  0  0
  4  5  2  0  0  0  0
  4  6  1  0  0  0  0
  5 18  1  0  0  0  0
  6  7  1  0  0  0  0
  6  8  2  0  0  0  0
  7 19  1  0  0  0  0
  7 20  1  0  0  0  0
  9 10  1  0  0  0  0
  9 15  1  0  0  0  0
  9  2  1  0  0  0  0
  9 21  1  6  0  0  0
 10 11  1  0  0  0  0
 10 12  1  0  0  0  0
 10 22  1  1  0  0  0
 11 23  1  0  0  0  0
 12 13  1  0  0  0  0
 12 14  1  0  0  0  0
 12 24  1  1  0  0  0
 13 25  1  0  0  0  0
 14 15  1  0  0  0  0
 14 16  1  0  0  0  0
 14 26  1  6  0  0  0
 16 17  1  0  0  0  0
 16 27  1  0  0  0  0
 16 28  1  0  0  0  0
 17 29  1  0  0  0  0
M  END
>  <DRUGBANK_ID>
DB13243

>  <COMMON_NAME>
Tiazofurine

>  <CAS_NUMBER>
60084-10-8

>  <UNII>
ULJ82834RE

>  <SYNONYMS>
2-(β-D-ribofuranosyl)-4-thiazolecarboxamide; 2-Beta-D-ribofuranosyl-4-thiazolecarboxamide; 2-β-D-ribofuranosyl-4-thiazolecarboxamide; TCAR; Tiazofurin; Tiazofurina; Tiazofurine; Tiazofurinum

$$$$
