UC3
 OpenBabel10282417072D

 38 38  0  0  0  0  0  0  0  0999 V2000
    0.7579    1.2176    0.0000 C   0  0  0  0  0  0  0  0  0  0  0  0
    0.7579    0.3926    0.0000 S   0  0  0  0  0  0  0  0  0  0  0  0
    0.0435    1.6301    0.0000 N   0  0  0  0  0  0  0  0  0  0  0  0
   -0.6710    1.2176    0.0000 C   0  0  0  0  0  0  0  0  0  0  0  0
   -0.6710    0.3926    0.0000 C   0  0  0  0  0  0  0  0  0  0  0  0
   -1.3855   -0.0199    0.0000 C   0  0  0  0  0  0  0  0  0  0  0  0
   -2.1000    0.3926    0.0000 C   0  0  0  0  0  0  0  0  0  0  0  0
   -2.8144   -0.0199    0.0000 Cl  0  0  0  0  0  0  0  0  0  0  0  0
   -2.1000    1.2176    0.0000 C   0  0  0  0  0  0  0  0  0  0  0  0
   -1.3855    1.6301    0.0000 C   0  0  0  0  0  0  0  0  0  0  0  0
   -1.3855   -0.8449    0.0000 C   0  0  0  0  0  0  0  0  0  0  0  0
   -2.1000   -1.2574    0.0000 O   0  0  0  0  0  0  0  0  0  0  0  0
   -0.6710   -1.2574    0.0000 O   0  0  0  0  0  0  0  0  0  0  0  0
   -2.1000   -2.0824    0.0000 C   0  0  0  0  0  0  0  0  0  0  0  0
   -2.8144   -2.4949    0.0000 C   0  0  0  0  0  0  0  0  0  0  0  0
   -1.3855   -2.4949    0.0000 C   0  0  0  0  0  0  0  0  0  0  0  0
    1.4724    1.6301    0.0000 O   0  0  0  0  0  0  0  0  0  0  0  0
    2.1869    1.2176    0.0000 C   0  0  0  0  0  0  0  0  0  0  0  0
    2.9013    1.6301    0.0000 C   0  0  0  0  0  0  0  0  0  0  0  0
    2.1869    0.3926    0.0000 C   0  0  0  0  0  0  0  0  0  0  0  0
    0.0435    2.6146    0.0000 H   0  0  0  0  0  0  0  0  0  0  0  0
    0.2227   -0.1234    0.0000 H   0  0  0  0  0  0  0  0  0  0  0  0
   -2.9937    1.7336    0.0000 H   0  0  0  0  0  0  0  0  0  0  0  0
   -1.3855    2.6621    0.0000 H   0  0  0  0  0  0  0  0  0  0  0  0
   -2.1000   -3.1524    0.0000 H   0  0  0  0  0  0  0  0  0  0  0  0
   -3.7411   -1.9599    0.0000 H   0  0  0  0  0  0  0  0  0  0  0  0
   -2.8144   -3.5649    0.0000 H   0  0  0  0  0  0  0  0  0  0  0  0
   -3.7410   -3.0299    0.0000 H   0  0  0  0  0  0  0  0  0  0  0  0
   -1.3855   -3.5649    0.0000 H   0  0  0  0  0  0  0  0  0  0  0  0
   -0.4589   -1.9599    0.0000 H   0  0  0  0  0  0  0  0  0  0  0  0
   -0.4588   -3.0299    0.0000 H   0  0  0  0  0  0  0  0  0  0  0  0
    3.1136    0.6826    0.0000 H   0  0  0  0  0  0  0  0  0  0  0  0
    3.8280    1.0951    0.0000 H   0  0  0  0  0  0  0  0  0  0  0  0
    2.9013    2.7001    0.0000 H   0  0  0  0  0  0  0  0  0  0  0  0
    3.8279    2.1651    0.0000 H   0  0  0  0  0  0  0  0  0  0  0  0
    1.2603   -0.1424    0.0000 H   0  0  0  0  0  0  0  0  0  0  0  0
    3.1135   -0.1424    0.0000 H   0  0  0  0  0  0  0  0  0  0  0  0
    2.1869   -0.6774    0.0000 H   0  0  0  0  0  0  0  0  0  0  0  0
  1  2  2  0  0  0  0
  1  3  1  0  0  0  0
  1 17  1  0  0  0  0
  3  4  1  0  0  0  0
  3 21  1  0  0  0  0
  4  5  2  0  0  0  0
  4 10  1  0  0  0  0
  5  6  1  0  0  0  0
  5 22  1  0  0  0  0
  6  7  2  0  0  0  0
  6 11  1  0  0  0  0
  7  8  1  0  0  0  0
  7  9  1  0  0  0  0
  9 10  2  0  0  0  0
  9 23  1  0  0  0  0
 10 24  1  0  0  0  0
 11 12  1  0  0  0  0
 11 13  2  0  0  0  0
 12 14  1  0  0  0  0
 14 15  1  0  0  0  0
 14 16  1  0  0  0  0
 14 25  1  0  0  0  0
 15 26  1  0  0  0  0
 15 27  1  0  0  0  0
 15 28  1  0  0  0  0
 16 29  1  0  0  0  0
 16 30  1  0  0  0  0
 16 31  1  0  0  0  0
 17 18  1  0  0  0  0
 18 19  1  0  0  0  0
 18 20  1  0  0  0  0
 18 32  1  0  0  0  0
 19 33  1  0  0  0  0
 19 34  1  0  0  0  0
 19 35  1  0  0  0  0
 20 36  1  0  0  0  0
 20 37  1  0  0  0  0
 20 38  1  0  0  0  0
M  END
>  <DRUGBANK_ID>
DB08681

>  <COMMON_NAME>
1-METHYL ETHYL 2-CHLORO-5-[[[(1-METHYLETHOXY)THIOOXO]METHYL]AMINO]-BENZOATE

$$$$
