
 OpenBabel10282417072D

 59 65  0  0  1  0  0  0  0  0999 V2000
    3.5541    1.5863    0.0000 H   0  0  0  0  0  0  0  0  0  0  0  0
    3.3297    0.7924    0.0000 C   0  0  2  0  0  0  0  0  0  0  0  0
    3.1053   -0.0015    0.0000 C   0  0  0  0  0  0  0  0  0  0  0  0
    2.3055   -0.2042    0.0000 C   0  0  2  0  0  0  0  0  0  0  0  0
    1.5058   -0.4068    0.0000 O   0  0  0  0  0  0  0  0  0  0  0  0
    1.7302    0.3871    0.0000 C   0  0  1  0  0  0  0  0  0  0  0  0
    0.9305    0.1845    0.0000 C   0  0  2  0  0  0  0  0  0  0  0  0
    0.7061   -0.6094    0.0000 O   0  0  0  0  0  0  0  0  0  0  0  0
    1.2814   -1.2007    0.0000 C   0  0  0  0  0  0  0  0  0  0  0  0
    2.0812   -0.9981    0.0000 O   0  0  0  0  0  0  0  0  0  0  0  0
    2.6565   -1.5893    0.0000 P   0  0  0  0  0  0  0  0  0  0  0  0
    3.2318   -2.1806    0.0000 O   0  0  0  0  0  0  0  0  0  0  0  0
    3.2478   -1.0140    0.0000 O   0  0  0  0  0  0  0  0  0  0  0  0
    2.0652   -2.1647    0.0000 O   0  0  0  0  0  0  0  0  0  0  0  0
    0.3551    0.7758    0.0000 C   0  0  1  0  0  0  0  0  0  0  0  0
   -0.2202    1.3671    0.0000 O   0  0  0  0  0  0  0  0  0  0  0  0
    0.5795    1.5697    0.0000 C   0  0  1  0  0  0  0  0  0  0  0  0
    1.3793    1.7723    0.0000 C   0  0  2  0  0  0  0  0  0  0  0  0
    2.1790    1.9749    0.0000 O   0  0  0  0  0  0  0  0  0  0  0  0
    1.9546    1.1810    0.0000 C   0  0  2  0  0  0  0  0  0  0  0  0
    2.7543    1.3836    0.0000 C   0  0  2  0  0  0  0  0  0  0  0  0
    2.6364    2.2002    0.0000 C   0  0  0  0  0  0  0  0  0  0  0  0
    2.9787    2.1775    0.0000 C   0  0  0  0  0  0  0  0  0  0  0  0
    3.7785    2.3802    0.0000 C   0  0  0  0  0  0  0  0  0  0  0  0
    4.3538    1.7889    0.0000 C   0  0  0  0  0  0  0  0  0  0  0  0
    4.1294    0.9950    0.0000 C   0  0  0  0  0  0  0  0  0  0  0  0
    4.8151    0.5362    0.0000 C   0  0  0  0  0  0  0  0  0  0  0  0
    5.4633    1.0466    0.0000 O   0  0  0  0  0  0  0  0  0  0  0  0
    5.1782    1.8208    0.0000 C   0  0  0  0  0  0  0  0  0  0  0  0
    5.6369    2.5065    0.0000 O   0  0  0  0  0  0  0  0  0  0  0  0
   -0.2361    0.2004    0.0000 C   0  0  0  0  0  0  0  0  0  0  0  0
   -1.0300    0.4248    0.0000 C   0  0  0  0  0  0  0  0  0  0  0  0
   -0.0335   -0.5993    0.0000 C   0  0  0  0  0  0  0  0  0  0  0  0
    3.8515   -0.7683    0.0000 H   0  0  0  0  0  0  0  0  0  0  0  0
    2.8143   -1.0312    0.0000 H   0  0  0  0  0  0  0  0  0  0  0  0
    2.0427    0.8330    0.0000 H   0  0  0  0  0  0  0  0  0  0  0  0
    1.6767   -0.5824    0.0000 H   0  0  0  0  0  0  0  0  0  0  0  0
    0.9903   -2.2303    0.0000 H   0  0  0  0  0  0  0  0  0  0  0  0
    2.0276   -1.9676    0.0000 H   0  0  0  0  0  0  0  0  0  0  0  0
    2.9679   -3.1140    0.0000 H   0  0  0  0  0  0  0  0  0  0  0  0
    4.1812   -1.2779    0.0000 H   0  0  0  0  0  0  0  0  0  0  0  0
   -0.1874    0.8235    0.0000 H   0  0  0  0  0  0  0  0  0  0  0  0
    1.1165    2.8095    0.0000 H   0  0  0  0  0  0  0  0  0  0  0  0
    3.4771    2.8621    0.0000 H   0  0  0  0  0  0  0  0  0  0  0  0
    1.6428    2.5973    0.0000 H   0  0  0  0  0  0  0  0  0  0  0  0
    2.4835    3.2592    0.0000 H   0  0  0  0  0  0  0  0  0  0  0  0
    2.2325    2.9443    0.0000 H   0  0  0  0  0  0  0  0  0  0  0  0
    3.2697    3.2072    0.0000 H   0  0  0  0  0  0  0  0  0  0  0  0
    4.0695    3.4099    0.0000 H   0  0  0  0  0  0  0  0  0  0  0  0
    4.8157    2.6430    0.0000 H   0  0  0  0  0  0  0  0  0  0  0  0
    4.8565   -0.5330    0.0000 H   0  0  0  0  0  0  0  0  0  0  0  0
    5.7866    0.0877    0.0000 H   0  0  0  0  0  0  0  0  0  0  0  0
   -1.0030   -0.5458    0.0000 H   0  0  0  0  0  0  0  0  0  0  0  0
   -1.2928    1.4620    0.0000 H   0  0  0  0  0  0  0  0  0  0  0  0
   -1.7969   -0.3214    0.0000 H   0  0  0  0  0  0  0  0  0  0  0  0
   -2.0597    0.7158    0.0000 H   0  0  0  0  0  0  0  0  0  0  0  0
   -0.8004   -1.3455    0.0000 H   0  0  0  0  0  0  0  0  0  0  0  0
    0.9962   -0.8903    0.0000 H   0  0  0  0  0  0  0  0  0  0  0  0
    0.2293   -1.6365    0.0000 H   0  0  0  0  0  0  0  0  0  0  0  0
  2  1  1  1  0  0  0
  2  3  1  0  0  0  0
  2 26  1  0  0  0  0
  3 34  1  0  0  0  0
  3 35  1  0  0  0  0
  4  3  1  0  0  0  0
  4  5  1  0  0  0  0
  4 36  1  1  0  0  0
  6  5  1  6  0  0  0
  6  4  1  0  0  0  0
  6  7  1  0  0  0  0
  6 20  1  0  0  0  0
  7  8  1  0  0  0  0
  7 15  1  0  0  0  0
  7 37  1  1  0  0  0
  8  9  1  0  0  0  0
  9 10  1  0  0  0  0
  9 38  1  0  0  0  0
  9 39  1  0  0  0  0
 10 11  1  0  0  0  0
 11 12  1  0  0  0  0
 11 13  1  0  0  0  0
 11 14  2  0  0  0  0
 12 40  1  0  0  0  0
 13 41  1  0  0  0  0
 15 16  1  0  0  0  0
 15 17  1  0  0  0  0
 15 31  1  6  0  0  0
 17 16  1  0  0  0  0
 17 42  1  6  0  0  0
 18 17  1  0  0  0  0
 18 19  1  0  0  0  0
 18 43  1  1  0  0  0
 20 19  1  6  0  0  0
 20 18  1  0  0  0  0
 20 21  1  0  0  0  0
 21  2  1  0  0  0  0
 21 22  1  6  0  0  0
 21 23  1  0  0  0  0
 22 44  1  0  0  0  0
 22 45  1  0  0  0  0
 22 46  1  0  0  0  0
 23 24  1  0  0  0  0
 23 47  1  0  0  0  0
 23 48  1  0  0  0  0
 24 25  1  0  0  0  0
 24 49  1  0  0  0  0
 24 50  1  0  0  0  0
 25 26  2  0  0  0  0
 25 29  1  0  0  0  0
 26 27  1  0  0  0  0
 27 28  1  0  0  0  0
 27 51  1  0  0  0  0
 27 52  1  0  0  0  0
 28 29  1  0  0  0  0
 29 30  2  0  0  0  0
 31 32  1  0  0  0  0
 31 33  1  0  0  0  0
 31 53  1  0  0  0  0
 32 54  1  0  0  0  0
 32 55  1  0  0  0  0
 32 56  1  0  0  0  0
 33 57  1  0  0  0  0
 33 58  1  0  0  0  0
 33 59  1  0  0  0  0
M  END
>  <DRUGBANK_ID>
DB17260

>  <COMMON_NAME>
Minnelide free acid

>  <CAS_NUMBER>
1254885-39-6

>  <UNII>
15OP6DI2OA

>  <SYNONYMS>
Trisoxireno(4b,5:6,7:8a,9)phenanthro(1,2-c)furan-1(3h)-one, 3b,4,4a,6,6a,7a,7b,8b,9,10-decahydro-8b-methyl-6a-(1-methylethyl)-6-((phosphonooxy)methoxy)-, (3bs,4as,5ar,6r,6as,7as,7bs,8as,8bs)-

$$$$
