
 OpenBabel10282417072D

 37 33  0  0  0  0  0  0  0  0999 V2000
   -1.6969    0.3609    0.0000 C   0  0  0  0  0  0  0  0  0  0  0  0
   -0.9824   -0.0516    0.0000 C   0  0  0  0  0  0  0  0  0  0  0  0
   -0.9824   -0.8766    0.0000 O   0  0  0  0  0  0  0  0  0  0  0  0
   -0.2679    0.3609    0.0000 C   0  0  0  0  0  0  0  0  0  0  0  0
    0.4465   -0.0516    0.0000 C   0  0  0  0  0  0  0  0  0  0  0  0
    0.4465   -0.8766    0.0000 O   0  0  0  0  0  0  0  0  0  0  0  0
    1.1610    0.3609    0.0000 O   0  5  0  0  0  0  0  0  0  0  0  0
    5.3523    1.4289    0.0000 C   0  0  0  0  0  0  0  0  0  0  0  0
    4.9398    0.7145    0.0000 C   0  0  0  0  0  0  0  0  0  0  0  0
    4.1148    0.7145    0.0000 O   0  0  0  0  0  0  0  0  0  0  0  0
    5.3523    0.0000    0.0000 C   0  0  0  0  0  0  0  0  0  0  0  0
    4.9398   -0.7145    0.0000 C   0  0  0  0  0  0  0  0  0  0  0  0
    5.3523   -1.4289    0.0000 O   0  0  0  0  0  0  0  0  0  0  0  0
    4.1148   -0.7145    0.0000 O   0  5  0  0  0  0  0  0  0  0  0  0
    0.4714   -3.0789    0.0000 C   0  0  0  0  0  0  0  0  0  0  0  0
    0.0589   -3.7934    0.0000 C   0  0  0  0  0  0  0  0  0  0  0  0
   -0.7661   -3.7934    0.0000 O   0  0  0  0  0  0  0  0  0  0  0  0
    0.4714   -4.5079    0.0000 C   0  0  0  0  0  0  0  0  0  0  0  0
    0.0589   -5.2224    0.0000 C   0  0  0  0  0  0  0  0  0  0  0  0
    0.4714   -5.9368    0.0000 O   0  0  0  0  0  0  0  0  0  0  0  0
   -0.7661   -5.2224    0.0000 O   0  5  0  0  0  0  0  0  0  0  0  0
    1.8755    0.7734    0.0000 Al  0  1  0  0  0  0  0  0  0  0  0  0
   -1.6969    1.4309    0.0000 H   0  0  0  0  0  0  0  0  0  0  0  0
   -2.6235   -0.1741    0.0000 H   0  0  0  0  0  0  0  0  0  0  0  0
   -2.6236    0.8959    0.0000 H   0  0  0  0  0  0  0  0  0  0  0  0
   -0.2679    1.4309    0.0000 H   0  0  0  0  0  0  0  0  0  0  0  0
    0.6588    0.8959    0.0000 H   0  0  0  0  0  0  0  0  0  0  0  0
    6.4223    1.4289    0.0000 H   0  0  0  0  0  0  0  0  0  0  0  0
    4.8173    2.3556    0.0000 H   0  0  0  0  0  0  0  0  0  0  0  0
    5.8873    2.3555    0.0000 H   0  0  0  0  0  0  0  0  0  0  0  0
    6.4223    0.0000    0.0000 H   0  0  0  0  0  0  0  0  0  0  0  0
    5.8873   -0.9266    0.0000 H   0  0  0  0  0  0  0  0  0  0  0  0
    1.5414   -3.0789    0.0000 H   0  0  0  0  0  0  0  0  0  0  0  0
   -0.0636   -2.1523    0.0000 H   0  0  0  0  0  0  0  0  0  0  0  0
    1.0064   -2.1522    0.0000 H   0  0  0  0  0  0  0  0  0  0  0  0
    1.5414   -4.5079    0.0000 H   0  0  0  0  0  0  0  0  0  0  0  0
    1.0064   -5.4345    0.0000 H   0  0  0  0  0  0  0  0  0  0  0  0
  1  2  1  0  0  0  0
  1 23  1  0  0  0  0
  1 24  1  0  0  0  0
  1 25  1  0  0  0  0
  2  3  2  0  0  0  0
  2  4  1  0  0  0  0
  4  5  1  0  0  0  0
  4 26  1  0  0  0  0
  4 27  1  0  0  0  0
  5  6  2  0  0  0  0
  5  7  1  0  0  0  0
  8  9  1  0  0  0  0
  8 28  1  0  0  0  0
  8 29  1  0  0  0  0
  8 30  1  0  0  0  0
  9 10  2  0  0  0  0
  9 11  1  0  0  0  0
 11 12  1  0  0  0  0
 11 31  1  0  0  0  0
 11 32  1  0  0  0  0
 12 13  2  0  0  0  0
 12 14  1  0  0  0  0
 15 16  1  0  0  0  0
 15 33  1  0  0  0  0
 15 34  1  0  0  0  0
 15 35  1  0  0  0  0
 16 17  2  0  0  0  0
 16 18  1  0  0  0  0
 18 19  1  0  0  0  0
 18 36  1  0  0  0  0
 18 37  1  0  0  0  0
 19 20  2  0  0  0  0
 19 21  1  0  0  0  0
M  CHG  4   7  -1  14  -1  21  -1  22   3
M  END
>  <DRUGBANK_ID>
DB13280

>  <COMMON_NAME>
Aluminium acetoacetate

>  <CAS_NUMBER>
19022-77-6

>  <UNII>
5W12C1HF5I

$$$$
