
 OpenBabel10282417072D

 57 56  0  0  0  0  0  0  0  0999 V2000
    0.0000   -0.2062    0.0000 C   0  0  0  0  0  0  0  0  0  0  0  0
   -0.7144    0.2062    0.0000 C   0  0  0  0  0  0  0  0  0  0  0  0
    0.7144    0.2062    0.0000 C   0  0  0  0  0  0  0  0  0  0  0  0
   -1.4289   -0.2062    0.0000 C   0  0  0  0  0  0  0  0  0  0  0  0
    1.4289   -0.2062    0.0000 C   0  0  0  0  0  0  0  0  0  0  0  0
   -2.1434    0.2062    0.0000 C   0  0  0  0  0  0  0  0  0  0  0  0
    2.1434    0.2062    0.0000 C   0  0  0  0  0  0  0  0  0  0  0  0
   -2.8578   -0.2062    0.0000 C   0  0  0  0  0  0  0  0  0  0  0  0
    2.8578   -0.2062    0.0000 C   0  0  0  0  0  0  0  0  0  0  0  0
   -3.5723    0.2062    0.0000 C   0  0  0  0  0  0  0  0  0  0  0  0
    3.5723    0.2062    0.0000 C   0  0  0  0  0  0  0  0  0  0  0  0
   -4.2868   -0.2062    0.0000 C   0  0  0  0  0  0  0  0  0  0  0  0
    4.2868   -0.2062    0.0000 C   0  0  0  0  0  0  0  0  0  0  0  0
   -5.0012    0.2062    0.0000 C   0  0  0  0  0  0  0  0  0  0  0  0
    5.0012    0.2062    0.0000 C   0  0  0  0  0  0  0  0  0  0  0  0
   -5.7157   -0.2062    0.0000 C   0  0  0  0  0  0  0  0  0  0  0  0
    5.7157   -0.2062    0.0000 C   0  0  0  0  0  0  0  0  0  0  0  0
   -6.4302    0.2062    0.0000 C   0  0  0  0  0  0  0  0  0  0  0  0
    6.4302    0.2062    0.0000 O   0  0  0  0  0  0  0  0  0  0  0  0
    0.0000   -1.2762    0.0000 H   0  0  0  0  0  0  0  0  0  0  0  0
    0.9266   -0.7412    0.0000 H   0  0  0  0  0  0  0  0  0  0  0  0
   -0.7144    1.2762    0.0000 H   0  0  0  0  0  0  0  0  0  0  0  0
   -1.6410    0.7413    0.0000 H   0  0  0  0  0  0  0  0  0  0  0  0
    0.7144    1.2762    0.0000 H   0  0  0  0  0  0  0  0  0  0  0  0
    1.6410    0.7413    0.0000 H   0  0  0  0  0  0  0  0  0  0  0  0
   -1.4289   -1.2762    0.0000 H   0  0  0  0  0  0  0  0  0  0  0  0
   -2.3555   -0.7413    0.0000 H   0  0  0  0  0  0  0  0  0  0  0  0
    1.4289   -1.2762    0.0000 H   0  0  0  0  0  0  0  0  0  0  0  0
    2.3555   -0.7413    0.0000 H   0  0  0  0  0  0  0  0  0  0  0  0
   -2.1434    1.2762    0.0000 H   0  0  0  0  0  0  0  0  0  0  0  0
   -3.0700    0.7412    0.0000 H   0  0  0  0  0  0  0  0  0  0  0  0
    2.1434    1.2762    0.0000 H   0  0  0  0  0  0  0  0  0  0  0  0
    3.0700    0.7412    0.0000 H   0  0  0  0  0  0  0  0  0  0  0  0
   -2.8578   -1.2762    0.0000 H   0  0  0  0  0  0  0  0  0  0  0  0
   -3.7844   -0.7413    0.0000 H   0  0  0  0  0  0  0  0  0  0  0  0
    2.8578   -1.2762    0.0000 H   0  0  0  0  0  0  0  0  0  0  0  0
    3.7844   -0.7413    0.0000 H   0  0  0  0  0  0  0  0  0  0  0  0
   -3.5723    1.2762    0.0000 H   0  0  0  0  0  0  0  0  0  0  0  0
   -4.4989    0.7413    0.0000 H   0  0  0  0  0  0  0  0  0  0  0  0
    3.5723    1.2762    0.0000 H   0  0  0  0  0  0  0  0  0  0  0  0
    4.4989    0.7413    0.0000 H   0  0  0  0  0  0  0  0  0  0  0  0
   -4.2868   -1.2762    0.0000 H   0  0  0  0  0  0  0  0  0  0  0  0
   -5.2134   -0.7412    0.0000 H   0  0  0  0  0  0  0  0  0  0  0  0
    4.2868   -1.2762    0.0000 H   0  0  0  0  0  0  0  0  0  0  0  0
    5.2134   -0.7412    0.0000 H   0  0  0  0  0  0  0  0  0  0  0  0
   -5.0012    1.2762    0.0000 H   0  0  0  0  0  0  0  0  0  0  0  0
   -5.9278    0.7413    0.0000 H   0  0  0  0  0  0  0  0  0  0  0  0
    5.0012    1.2762    0.0000 H   0  0  0  0  0  0  0  0  0  0  0  0
    5.9278    0.7413    0.0000 H   0  0  0  0  0  0  0  0  0  0  0  0
   -5.7157   -1.2762    0.0000 H   0  0  0  0  0  0  0  0  0  0  0  0
   -6.6423   -0.7413    0.0000 H   0  0  0  0  0  0  0  0  0  0  0  0
    5.7157   -1.2762    0.0000 H   0  0  0  0  0  0  0  0  0  0  0  0
    6.6423   -0.7413    0.0000 H   0  0  0  0  0  0  0  0  0  0  0  0
   -6.4303    1.2762    0.0000 H   0  0  0  0  0  0  0  0  0  0  0  0
   -7.3568   -0.3289    0.0000 H   0  0  0  0  0  0  0  0  0  0  0  0
   -7.3569    0.7411    0.0000 H   0  0  0  0  0  0  0  0  0  0  0  0
    7.2702   -0.2789    0.0000 H   0  0  0  0  0  0  0  0  0  0  0  0
  1  2  1  0  0  0  0
  1  3  1  0  0  0  0
  1 20  1  0  0  0  0
  1 21  1  0  0  0  0
  2  4  1  0  0  0  0
  2 22  1  0  0  0  0
  2 23  1  0  0  0  0
  3  5  1  0  0  0  0
  3 24  1  0  0  0  0
  3 25  1  0  0  0  0
  4  6  1  0  0  0  0
  4 26  1  0  0  0  0
  4 27  1  0  0  0  0
  5  7  1  0  0  0  0
  5 28  1  0  0  0  0
  5 29  1  0  0  0  0
  6  8  1  0  0  0  0
  6 30  1  0  0  0  0
  6 31  1  0  0  0  0
  7  9  1  0  0  0  0
  7 32  1  0  0  0  0
  7 33  1  0  0  0  0
  8 10  1  0  0  0  0
  8 34  1  0  0  0  0
  8 35  1  0  0  0  0
  9 11  1  0  0  0  0
  9 36  1  0  0  0  0
  9 37  1  0  0  0  0
 10 12  1  0  0  0  0
 10 38  1  0  0  0  0
 10 39  1  0  0  0  0
 11 13  1  0  0  0  0
 11 40  1  0  0  0  0
 11 41  1  0  0  0  0
 12 14  1  0  0  0  0
 12 42  1  0  0  0  0
 12 43  1  0  0  0  0
 13 15  1  0  0  0  0
 13 44  1  0  0  0  0
 13 45  1  0  0  0  0
 14 16  1  0  0  0  0
 14 46  1  0  0  0  0
 14 47  1  0  0  0  0
 15 17  1  0  0  0  0
 15 48  1  0  0  0  0
 15 49  1  0  0  0  0
 16 18  1  0  0  0  0
 16 50  1  0  0  0  0
 16 51  1  0  0  0  0
 17 19  1  0  0  0  0
 17 52  1  0  0  0  0
 17 53  1  0  0  0  0
 18 54  1  0  0  0  0
 18 55  1  0  0  0  0
 18 56  1  0  0  0  0
 19 57  1  0  0  0  0
M  END
>  <DRUGBANK_ID>
DB15953

>  <COMMON_NAME>
Stearyl alcohol

>  <CAS_NUMBER>
112-92-5

>  <UNII>
2KR89I4H1Y

>  <SYNONYMS>
1-Octadecanol; Octadecan-1-ol; Octadecyl alcohol; Stearyl alcohol

$$$$
