PTC
 OpenBabel10282417072D

 35 36  0  0  0  0  0  0  0  0999 V2000
   -1.6785    0.0421    0.0000 C   0  0  0  0  0  0  0  0  0  0  0  0
   -1.6785   -0.7829    0.0000 O   0  0  0  0  0  0  0  0  0  0  0  0
   -2.3930    0.4546    0.0000 N   0  0  0  0  0  0  0  0  0  0  0  0
   -3.1074    0.0421    0.0000 C   0  0  0  0  0  0  0  0  0  0  0  0
   -0.5515    1.1691    0.0000 C   0  0  2  0  0  0  0  0  0  0  0  0
   -0.5515    1.9941    0.0000 C   0  0  0  0  0  0  0  0  0  0  0  0
   -1.2660    2.4066    0.0000 O   0  0  0  0  0  0  0  0  0  0  0  0
   -0.1390    0.4546    0.0000 C   0  0  1  0  0  0  0  0  0  0  0  0
    0.5755    0.0421    0.0000 C   0  0  0  0  0  0  0  0  0  0  0  0
    1.2899    0.4546    0.0000 C   0  0  0  0  0  0  0  0  0  0  0  0
    0.5755   -0.7829    0.0000 C   0  0  0  0  0  0  0  0  0  0  0  0
    2.0044    0.0421    0.0000 C   0  0  0  0  0  0  0  0  0  0  0  0
    1.2899   -1.1954    0.0000 C   0  0  0  0  0  0  0  0  0  0  0  0
    2.0044   -0.7829    0.0000 C   0  0  0  0  0  0  0  0  0  0  0  0
    2.7189   -1.1954    0.0000 O   0  0  0  0  0  0  0  0  0  0  0  0
   -0.9640    0.4546    0.0000 C   0  0  1  0  0  0  0  0  0  0  0  0
    3.4333   -0.7829    0.0000 P   0  0  0  0  0  0  0  0  0  0  0  0
    4.1478   -0.3704    0.0000 O   0  0  0  0  0  0  0  0  0  0  0  0
    3.8458   -1.4973    0.0000 O   0  0  0  0  0  0  0  0  0  0  0  0
    3.0208   -0.0684    0.0000 O   0  0  0  0  0  0  0  0  0  0  0  0
    0.1630    2.4066    0.0000 O   0  0  0  0  0  0  0  0  0  0  0  0
    0.0125    1.3202    0.0000 H   0  0  0  0  0  0  0  0  0  0  0  0
    0.2739    0.8675    0.0000 H   0  0  0  0  0  0  0  0  0  0  0  0
   -1.3769    0.8675    0.0000 H   0  0  0  0  0  0  0  0  0  0  0  0
   -2.3930    1.4391    0.0000 H   0  0  0  0  0  0  0  0  0  0  0  0
   -4.0341    0.5771    0.0000 H   0  0  0  0  0  0  0  0  0  0  0  0
   -3.1074   -1.0279    0.0000 H   0  0  0  0  0  0  0  0  0  0  0  0
   -4.0340   -0.4929    0.0000 H   0  0  0  0  0  0  0  0  0  0  0  0
    1.2899    1.4866    0.0000 H   0  0  0  0  0  0  0  0  0  0  0  0
   -0.3182   -1.2989    0.0000 H   0  0  0  0  0  0  0  0  0  0  0  0
    2.8981    0.5581    0.0000 H   0  0  0  0  0  0  0  0  0  0  0  0
    1.2899   -2.2274    0.0000 H   0  0  0  0  0  0  0  0  0  0  0  0
    3.3608   -2.3374    0.0000 H   0  0  0  0  0  0  0  0  0  0  0  0
    3.5058    0.7716    0.0000 H   0  0  0  0  0  0  0  0  0  0  0  0
    0.9745    1.9381    0.0000 H   0  0  0  0  0  0  0  0  0  0  0  0
  1  2  2  0  0  0  0
  1  3  1  0  0  0  0
  3  4  1  0  0  0  0
  3 25  1  0  0  0  0
  4 26  1  0  0  0  0
  4 27  1  0  0  0  0
  4 28  1  0  0  0  0
  5  6  1  0  0  0  0
  5  8  1  0  0  0  0
  5 16  1  0  0  0  0
  5 22  1  1  0  0  0
  6  7  2  0  0  0  0
  6 21  1  0  0  0  0
  8  9  1  0  0  0  0
  8 16  1  0  0  0  0
  8 23  1  6  0  0  0
  9 10  2  0  0  0  0
  9 11  1  0  0  0  0
 10 12  1  0  0  0  0
 10 29  1  0  0  0  0
 11 13  2  0  0  0  0
 11 30  1  0  0  0  0
 12 14  2  0  0  0  0
 12 31  1  0  0  0  0
 13 14  1  0  0  0  0
 13 32  1  0  0  0  0
 14 15  1  0  0  0  0
 15 17  1  0  0  0  0
 16  1  1  0  0  0  0
 16 24  1  6  0  0  0
 17 18  2  0  0  0  0
 17 19  1  0  0  0  0
 17 20  1  0  0  0  0
 19 33  1  0  0  0  0
 20 34  1  0  0  0  0
 21 35  1  0  0  0  0
M  END
>  <DRUGBANK_ID>
DB08434

>  <COMMON_NAME>
2-METHYLCARBAMOYL-3-(4-PHOSPHONOOXY-PHENYL)-CYCLOPROPANECARBOXYLIC ACID

$$$$
