LS3
 OpenBabel10282417072D

 43 47  0  0  0  0  0  0  0  0999 V2000
    0.3682   -2.2010    0.0000 O   0  0  0  0  0  0  0  0  0  0  0  0
    0.9813   -1.6490    0.0000 C   0  0  0  0  0  0  0  0  0  0  0  0
    1.7883   -1.8205    0.0000 N   0  0  0  0  0  0  0  0  0  0  0  0
    2.2008   -1.1061    0.0000 C   0  0  0  0  0  0  0  0  0  0  0  0
    3.0077   -0.9345    0.0000 C   0  0  0  0  0  0  0  0  0  0  0  0
    3.2627   -0.1499    0.0000 C   0  0  0  0  0  0  0  0  0  0  0  0
    2.7106    0.4632    0.0000 C   0  0  0  0  0  0  0  0  0  0  0  0
    2.9656    1.2478    0.0000 C   0  0  0  0  0  0  0  0  0  0  0  0
    3.7502    1.5027    0.0000 O   0  0  0  0  0  0  0  0  0  0  0  0
    3.7502    2.3277    0.0000 C   0  0  0  0  0  0  0  0  0  0  0  0
    2.9656    2.5827    0.0000 N   0  0  0  0  0  0  0  0  0  0  0  0
    2.4807    1.9152    0.0000 C   0  0  0  0  0  0  0  0  0  0  0  0
    1.9037    0.2917    0.0000 C   0  0  0  0  0  0  0  0  0  0  0  0
    1.6487   -0.4930    0.0000 C   0  0  0  0  0  0  0  0  0  0  0  0
    0.8951   -0.8285    0.0000 C   0  0  0  0  0  0  0  0  0  0  0  0
    0.1806   -0.4160    0.0000 C   0  0  0  0  0  0  0  0  0  0  0  0
   -0.5339   -0.8285    0.0000 N   0  0  0  0  0  0  0  0  0  0  0  0
   -1.2484   -0.4160    0.0000 C   0  0  0  0  0  0  0  0  0  0  0  0
   -1.9628   -0.8285    0.0000 C   0  0  0  0  0  0  0  0  0  0  0  0
   -2.6773   -0.4160    0.0000 C   0  0  0  0  0  0  0  0  0  0  0  0
   -3.4619   -0.6710    0.0000 C   0  0  0  0  0  0  0  0  0  0  0  0
   -3.9468   -0.0035    0.0000 S   0  0  0  0  0  0  0  0  0  0  0  0
   -4.5599   -0.5556    0.0000 O   0  0  0  0  0  0  0  0  0  0  0  0
   -4.5599    0.5485    0.0000 O   0  0  0  0  0  0  0  0  0  0  0  0
   -3.4619    0.6639    0.0000 C   0  0  0  0  0  0  0  0  0  0  0  0
   -2.6773    0.4090    0.0000 C   0  0  0  0  0  0  0  0  0  0  0  0
   -1.9628    0.8215    0.0000 C   0  0  0  0  0  0  0  0  0  0  0  0
   -1.2484    0.4090    0.0000 C   0  0  0  0  0  0  0  0  0  0  0  0
    2.1887   -2.7199    0.0000 H   0  0  0  0  0  0  0  0  0  0  0  0
    3.6983   -1.7014    0.0000 H   0  0  0  0  0  0  0  0  0  0  0  0
    4.2722    0.0647    0.0000 H   0  0  0  0  0  0  0  0  0  0  0  0
    4.5851    2.9343    0.0000 H   0  0  0  0  0  0  0  0  0  0  0  0
    1.4487    1.9152    0.0000 H   0  0  0  0  0  0  0  0  0  0  0  0
    1.2132    1.0586    0.0000 H   0  0  0  0  0  0  0  0  0  0  0  0
    0.1806    0.6160    0.0000 H   0  0  0  0  0  0  0  0  0  0  0  0
   -0.5339   -1.8130    0.0000 H   0  0  0  0  0  0  0  0  0  0  0  0
   -1.9628   -1.8605    0.0000 H   0  0  0  0  0  0  0  0  0  0  0  0
   -3.7925   -1.6886    0.0000 H   0  0  0  0  0  0  0  0  0  0  0  0
   -4.5187   -0.8384    0.0000 H   0  0  0  0  0  0  0  0  0  0  0  0
   -3.7926    1.6815    0.0000 H   0  0  0  0  0  0  0  0  0  0  0  0
   -2.7053    1.4205    0.0000 H   0  0  0  0  0  0  0  0  0  0  0  0
   -1.9628    1.8535    0.0000 H   0  0  0  0  0  0  0  0  0  0  0  0
   -0.3547    0.9250    0.0000 H   0  0  0  0  0  0  0  0  0  0  0  0
  1  2  2  0  0  0  0
  2  3  1  0  0  0  0
  2 15  1  0  0  0  0
  3  4  1  0  0  0  0
  3 29  1  0  0  0  0
  4  5  2  0  0  0  0
  4 14  1  0  0  0  0
  5  6  1  0  0  0  0
  5 30  1  0  0  0  0
  6  7  2  0  0  0  0
  6 31  1  0  0  0  0
  7  8  1  0  0  0  0
  7 13  1  0  0  0  0
  8  9  1  0  0  0  0
  8 12  2  0  0  0  0
  9 10  1  0  0  0  0
 10 11  2  0  0  0  0
 10 32  1  0  0  0  0
 11 12  1  0  0  0  0
 12 33  1  0  0  0  0
 13 14  2  0  0  0  0
 13 34  1  0  0  0  0
 14 15  1  0  0  0  0
 15 16  2  0  0  0  0
 16 17  1  0  0  0  0
 16 35  1  0  0  0  0
 17 18  1  0  0  0  0
 17 36  1  0  0  0  0
 18 19  2  0  0  0  0
 18 28  1  0  0  0  0
 19 20  1  0  0  0  0
 19 37  1  0  0  0  0
 20 21  1  0  0  0  0
 20 26  2  0  0  0  0
 21 22  1  0  0  0  0
 21 38  1  0  0  0  0
 21 39  1  0  0  0  0
 22 23  2  0  0  0  0
 22 24  2  0  0  0  0
 22 25  1  0  0  0  0
 25 26  1  0  0  0  0
 25 40  1  0  0  0  0
 25 41  1  0  0  0  0
 26 27  1  0  0  0  0
 27 28  2  0  0  0  0
 27 42  1  0  0  0  0
 28 43  1  0  0  0  0
M  END
>  <DRUGBANK_ID>
DB08124

>  <COMMON_NAME>
3-{[(2,2-dioxido-1,3-dihydro-2-benzothien-5-yl)amino]methylene}-5-(1,3-oxazol-5-yl)-1,3-dihydro-2H-indol-2-one

$$$$
