
 OpenBabel10282417072D

 59 62  0  0  1  0  0  0  0  0999 V2000
   -3.8574    1.7947    0.0000 C   0  0  0  0  0  0  0  0  0  0  0  0
    2.6232    0.6018    0.0000 C   0  0  0  0  0  0  0  0  0  0  0  0
    0.1073    0.1997    0.0000 C   0  0  0  0  0  0  0  0  0  0  0  0
    2.6520    2.7844    0.0000 C   0  0  0  0  0  0  0  0  0  0  0  0
    1.8399    2.6391    0.0000 C   0  0  0  0  0  0  0  0  0  0  0  0
    4.2475    0.8922    0.0000 C   0  0  0  0  0  0  0  0  0  0  0  0
    0.0962    2.2244    0.0000 C   0  0  0  0  0  0  0  0  0  0  0  0
    3.4354    0.7470    0.0000 C   0  0  0  0  0  0  0  0  0  0  0  0
   -0.5867    1.7614    0.0000 C   0  0  0  0  0  0  0  0  0  0  0  0
    3.9960    2.2989    0.0000 C   0  0  0  0  0  0  0  0  0  0  0  0
    0.9990    0.3114    0.0000 C   0  0  0  0  0  0  0  0  0  0  0  0
   -1.7013    1.4544    0.0000 C   0  0  0  0  0  0  0  0  0  0  0  0
   -3.0453    1.9399    0.0000 C   0  0  0  0  0  0  0  0  0  0  0  0
    3.1838    2.1537    0.0000 C   0  0  0  0  0  0  0  0  0  0  0  0
    4.5278    1.6682    0.0000 C   0  0  0  0  0  0  0  0  0  0  0  0
    1.5596    1.8632    0.0000 C   0  0  1  0  0  0  0  0  0  0  0  0
    0.7475    1.7180    0.0000 C   0  0  1  0  0  0  0  0  0  0  0  0
    1.8111    0.4566    0.0000 C   0  0  1  0  0  0  0  0  0  0  0  0
   -1.1695    0.8237    0.0000 C   0  0  0  0  0  0  0  0  0  0  0  0
    2.0914    1.2325    0.0000 C   0  0  2  0  0  0  0  0  0  0  0  0
    2.9035    1.3777    0.0000 C   0  0  2  0  0  0  0  0  0  0  0  0
    0.4672    0.9421    0.0000 C   0  0  2  0  0  0  0  0  0  0  0  0
   -0.3574    0.9689    0.0000 C   0  0  2  0  0  0  0  0  0  0  0  0
   -2.7650    2.7158    0.0000 O   0  0  0  0  0  0  0  0  0  0  0  0
    5.3399    1.8134    0.0000 O   0  0  0  0  0  0  0  0  0  0  0  0
    2.3429   -0.1741    0.0000 O   0  0  0  0  0  0  0  0  0  0  0  0
   -1.4498    0.0477    0.0000 O   0  0  0  0  0  0  0  0  0  0  0  0
   -0.2978    0.1460    0.0000 O   0  0  0  0  0  0  0  0  0  0  0  0
   -2.5134    1.3092    0.0000 O   0  0  0  0  0  0  0  0  0  0  0  0
    0.8441    2.2740    0.0000 H   0  0  0  0  0  0  0  0  0  0  0  0
    0.6593    2.5383    0.0000 H   0  0  0  0  0  0  0  0  0  0  0  0
    1.5308   -0.3193    0.0000 H   0  0  0  0  0  0  0  0  0  0  0  0
    2.3755    0.4579    0.0000 H   0  0  0  0  0  0  0  0  0  0  0  0
   -4.5471    2.6127    0.0000 H   0  0  0  0  0  0  0  0  0  0  0  0
   -4.2210    0.7884    0.0000 H   0  0  0  0  0  0  0  0  0  0  0  0
   -4.9107    1.6064    0.0000 H   0  0  0  0  0  0  0  0  0  0  0  0
    1.5699    0.4135    0.0000 H   0  0  0  0  0  0  0  0  0  0  0  0
    3.3129   -0.2162    0.0000 H   0  0  0  0  0  0  0  0  0  0  0  0
    2.2596   -0.4045    0.0000 H   0  0  0  0  0  0  0  0  0  0  0  0
   -0.9599    0.1225    0.0000 H   0  0  0  0  0  0  0  0  0  0  0  0
    0.7078   -0.6859    0.0000 H   0  0  0  0  0  0  0  0  0  0  0  0
   -0.3595   -0.7631    0.0000 H   0  0  0  0  0  0  0  0  0  0  0  0
    3.0155    3.7908    0.0000 H   0  0  0  0  0  0  0  0  0  0  0  0
    3.7053    2.9728    0.0000 H   0  0  0  0  0  0  0  0  0  0  0  0
    1.1501    3.4571    0.0000 H   0  0  0  0  0  0  0  0  0  0  0  0
    0.7866    2.4507    0.0000 H   0  0  0  0  0  0  0  0  0  0  0  0
    4.9128    0.1032    0.0000 H   0  0  0  0  0  0  0  0  0  0  0  0
    0.1310    3.2938    0.0000 H   0  0  0  0  0  0  0  0  0  0  0  0
    1.0649    2.6789    0.0000 H   0  0  0  0  0  0  0  0  0  0  0  0
    3.0848   -0.2236    0.0000 H   0  0  0  0  0  0  0  0  0  0  0  0
   -1.5930    2.1250    0.0000 H   0  0  0  0  0  0  0  0  0  0  0  0
   -1.3675    1.0298    0.0000 H   0  0  0  0  0  0  0  0  0  0  0  0
    4.3467    3.2695    0.0000 H   0  0  0  0  0  0  0  0  0  0  0  0
    0.6354   -0.6949    0.0000 H   0  0  0  0  0  0  0  0  0  0  0  0
   -0.0543    0.1231    0.0000 H   0  0  0  0  0  0  0  0  0  0  0  0
   -1.3377    2.4607    0.0000 H   0  0  0  0  0  0  0  0  0  0  0  0
   -2.3910    2.2724    0.0000 H   0  0  0  0  0  0  0  0  0  0  0  0
    2.0133   -1.0864    0.0000 H   0  0  0  0  0  0  0  0  0  0  0  0
   -1.1006   -0.3984    0.0000 H   0  0  0  0  0  0  0  0  0  0  0  0
  1 34  1  0  0  0  0
  1 35  1  0  0  0  0
  1 36  1  0  0  0  0
  2 37  1  0  0  0  0
  2 38  1  0  0  0  0
  2 39  1  0  0  0  0
  3 40  1  0  0  0  0
  3 41  1  0  0  0  0
  3 42  1  0  0  0  0
  4 43  1  0  0  0  0
  4 44  1  0  0  0  0
  5  4  1  0  0  0  0
  5 45  1  0  0  0  0
  5 46  1  0  0  0  0
  6 47  1  0  0  0  0
  7 48  1  0  0  0  0
  7 49  1  0  0  0  0
  8  6  2  0  0  0  0
  8 50  1  0  0  0  0
  9  7  1  0  0  0  0
  9 51  1  0  0  0  0
  9 52  1  0  0  0  0
 10 53  1  0  0  0  0
 11 54  1  0  0  0  0
 11 55  1  0  0  0  0
 12 56  1  0  0  0  0
 12 57  1  0  0  0  0
 13  1  1  0  0  0  0
 14  4  1  0  0  0  0
 14 10  2  0  0  0  0
 15  6  1  0  0  0  0
 15 10  1  0  0  0  0
 16  5  1  0  0  0  0
 16 30  1  1  0  0  0
 17  7  1  0  0  0  0
 17 16  1  0  0  0  0
 17 31  1  6  0  0  0
 18 11  1  0  0  0  0
 18 26  1  0  0  0  0
 18 32  1  6  0  0  0
 19 12  1  0  0  0  0
 20 16  1  0  0  0  0
 20 18  1  0  0  0  0
 20 33  1  6  0  0  0
 21  2  1  1  0  0  0
 21  8  1  0  0  0  0
 21 14  1  0  0  0  0
 21 20  1  0  0  0  0
 22  3  1  1  0  0  0
 22 11  1  0  0  0  0
 22 17  1  0  0  0  0
 23  9  1  0  0  0  0
 23 19  1  1  0  0  0
 23 22  1  0  0  0  0
 23 28  1  0  0  0  0
 24 13  2  0  0  0  0
 25 15  2  0  0  0  0
 26 58  1  0  0  0  0
 27 19  2  0  0  0  0
 28 59  1  0  0  0  0
 29 12  1  0  0  0  0
 29 13  1  0  0  0  0
M  END
>  <DRUGBANK_ID>
DB15566

>  <SECONDARY_ACCESSION_NUMBERS>
DBSALT000254

>  <COMMON_NAME>
Prednisolone acetate

>  <CAS_NUMBER>
52-21-1

>  <UNII>
8B2807733D

>  <SYNONYMS>
Prednisolone acetate

$$$$
