
 OpenBabel10282417072D

 70 74  0  0  1  0  0  0  0  0999 V2000
   -3.8837   -1.4124    0.0000 C   0  0  0  0  0  0  0  0  0  0  0  0
   -3.0587   -1.4124    0.0000 C   0  0  0  0  0  0  0  0  0  0  0  0
   -2.6462   -0.6979    0.0000 C   0  0  2  0  0  0  0  0  0  0  0  0
   -3.3999   -0.3624    0.0000 C   0  0  0  0  0  0  0  0  0  0  0  0
   -1.8212   -0.6979    0.0000 C   0  0  2  0  0  0  0  0  0  0  0  0
   -1.4087   -1.4124    0.0000 C   0  0  0  0  0  0  0  0  0  0  0  0
   -1.8212   -2.1269    0.0000 O   0  0  0  0  0  0  0  0  0  0  0  0
   -0.5837   -1.4124    0.0000 N   0  0  0  0  0  0  0  0  0  0  0  0
   -0.1712   -0.6979    0.0000 C   0  0  1  0  0  0  0  0  0  0  0  0
   -0.5837    0.0165    0.0000 C   0  0  0  0  0  0  0  0  0  0  0  0
   -0.1712    0.7310    0.0000 O   0  0  0  0  0  0  0  0  0  0  0  0
   -1.4087    0.0165    0.0000 N   0  0  0  0  0  0  0  0  0  0  0  0
   -1.8212    0.7310    0.0000 C   0  0  2  0  0  0  0  0  0  0  0  0
   -2.6462    0.7310    0.0000 C   0  0  0  0  0  0  0  0  0  0  0  0
   -3.1311    0.0636    0.0000 C   0  0  0  0  0  0  0  0  0  0  0  0
   -3.9157    0.3185    0.0000 O   0  0  0  0  0  0  0  0  0  0  0  0
   -3.9157    1.1435    0.0000 C   0  0  0  0  0  0  0  0  0  0  0  0
   -3.1311    1.3984    0.0000 N   0  0  0  0  0  0  0  0  0  0  0  0
   -4.5832    1.6284    0.0000 C   0  0  0  0  0  0  0  0  0  0  0  0
   -1.4087    1.4455    0.0000 C   0  0  0  0  0  0  0  0  0  0  0  0
   -0.5837    1.4455    0.0000 O   0  0  0  0  0  0  0  0  0  0  0  0
   -1.8212    2.1599    0.0000 N   0  0  0  0  0  0  0  0  0  0  0  0
   -2.6462    2.1599    0.0000 C   0  0  0  0  0  0  0  0  0  0  0  0
   -3.0587    2.8744    0.0000 C   0  0  0  0  0  0  0  0  0  0  0  0
   -2.6462    3.5889    0.0000 O   0  0  0  0  0  0  0  0  0  0  0  0
   -1.8212    3.5889    0.0000 C   0  0  0  0  0  0  0  0  0  0  0  0
   -1.4087    2.8744    0.0000 C   0  0  0  0  0  0  0  0  0  0  0  0
    0.6538   -0.6979    0.0000 C   0  0  0  0  0  0  0  0  0  0  0  0
    1.1387   -0.0305    0.0000 C   0  0  0  0  0  0  0  0  0  0  0  0
    1.9233   -0.2854    0.0000 C   0  0  0  0  0  0  0  0  0  0  0  0
    2.6378    0.1271    0.0000 C   0  0  0  0  0  0  0  0  0  0  0  0
    3.3523   -0.2854    0.0000 C   0  0  0  0  0  0  0  0  0  0  0  0
    3.3523   -1.1104    0.0000 C   0  0  0  0  0  0  0  0  0  0  0  0
    2.6378   -1.5229    0.0000 C   0  0  0  0  0  0  0  0  0  0  0  0
    1.9233   -1.1104    0.0000 C   0  0  0  0  0  0  0  0  0  0  0  0
    1.1387   -1.3654    0.0000 C   0  0  0  0  0  0  0  0  0  0  0  0
   -4.4187   -0.4858    0.0000 H   0  0  0  0  0  0  0  0  0  0  0  0
   -4.4187   -2.3390    0.0000 H   0  0  0  0  0  0  0  0  0  0  0  0
   -4.9537   -1.4124    0.0000 H   0  0  0  0  0  0  0  0  0  0  0  0
   -2.5237   -2.3390    0.0000 H   0  0  0  0  0  0  0  0  0  0  0  0
   -1.9887   -1.4124    0.0000 H   0  0  0  0  0  0  0  0  0  0  0  0
   -2.1112   -1.6245    0.0000 H   0  0  0  0  0  0  0  0  0  0  0  0
   -3.5118    0.7017    0.0000 H   0  0  0  0  0  0  0  0  0  0  0  0
   -4.2655   -0.9914    0.0000 H   0  0  0  0  0  0  0  0  0  0  0  0
   -4.3774    0.0727    0.0000 H   0  0  0  0  0  0  0  0  0  0  0  0
   -2.3562   -1.6245    0.0000 H   0  0  0  0  0  0  0  0  0  0  0  0
   -0.0914   -2.2650    0.0000 H   0  0  0  0  0  0  0  0  0  0  0  0
    0.3638   -1.6245    0.0000 H   0  0  0  0  0  0  0  0  0  0  0  0
   -0.7512    0.7310    0.0000 H   0  0  0  0  0  0  0  0  0  0  0  0
   -2.8122   -0.9179    0.0000 H   0  0  0  0  0  0  0  0  0  0  0  0
   -4.4714    2.6925    0.0000 H   0  0  0  0  0  0  0  0  0  0  0  0
   -5.5607    1.1931    0.0000 H   0  0  0  0  0  0  0  0  0  0  0  0
   -5.4489    2.2573    0.0000 H   0  0  0  0  0  0  0  0  0  0  0  0
   -3.1812    1.2333    0.0000 H   0  0  0  0  0  0  0  0  0  0  0  0
   -3.7162    2.1599    0.0000 H   0  0  0  0  0  0  0  0  0  0  0  0
   -4.1287    2.8744    0.0000 H   0  0  0  0  0  0  0  0  0  0  0  0
   -3.5937    3.8010    0.0000 H   0  0  0  0  0  0  0  0  0  0  0  0
   -1.2862    4.5155    0.0000 H   0  0  0  0  0  0  0  0  0  0  0  0
   -0.7512    3.5889    0.0000 H   0  0  0  0  0  0  0  0  0  0  0  0
   -0.3387    2.8744    0.0000 H   0  0  0  0  0  0  0  0  0  0  0  0
   -0.8737    1.9478    0.0000 H   0  0  0  0  0  0  0  0  0  0  0  0
    1.7238   -0.6979    0.0000 H   0  0  0  0  0  0  0  0  0  0  0  0
    0.8080    0.9871    0.0000 H   0  0  0  0  0  0  0  0  0  0  0  0
    1.8953    0.7261    0.0000 H   0  0  0  0  0  0  0  0  0  0  0  0
    2.6378    1.1591    0.0000 H   0  0  0  0  0  0  0  0  0  0  0  0
    4.2460    0.2306    0.0000 H   0  0  0  0  0  0  0  0  0  0  0  0
    4.2460   -1.6264    0.0000 H   0  0  0  0  0  0  0  0  0  0  0  0
    2.6378   -2.5549    0.0000 H   0  0  0  0  0  0  0  0  0  0  0  0
    0.8081   -2.3830    0.0000 H   0  0  0  0  0  0  0  0  0  0  0  0
    0.0819   -1.5328    0.0000 H   0  0  0  0  0  0  0  0  0  0  0  0
  1  2  1  0  0  0  0
  1 37  1  0  0  0  0
  1 38  1  0  0  0  0
  1 39  1  0  0  0  0
  2  3  1  0  0  0  0
  2 40  1  0  0  0  0
  2 41  1  0  0  0  0
  3  4  1  0  0  0  0
  3 42  1  1  0  0  0
  4 43  1  0  0  0  0
  4 44  1  0  0  0  0
  4 45  1  0  0  0  0
  5  3  1  0  0  0  0
  5  6  1  0  0  0  0
  5 12  1  0  0  0  0
  5 46  1  6  0  0  0
  6  7  2  0  0  0  0
  6  8  1  0  0  0  0
  8  9  1  0  0  0  0
  8 47  1  0  0  0  0
  9 10  1  0  0  0  0
  9 28  1  0  0  0  0
  9 48  1  6  0  0  0
 10 11  2  0  0  0  0
 10 12  1  0  0  0  0
 12 13  1  0  0  0  0
 13 14  1  0  0  0  0
 13 20  1  0  0  0  0
 13 49  1  1  0  0  0
 14 15  2  0  0  0  0
 14 18  1  0  0  0  0
 15 16  1  0  0  0  0
 15 50  1  0  0  0  0
 16 17  1  0  0  0  0
 17 18  2  0  0  0  0
 17 19  1  0  0  0  0
 19 51  1  0  0  0  0
 19 52  1  0  0  0  0
 19 53  1  0  0  0  0
 20 21  2  0  0  0  0
 20 22  1  0  0  0  0
 22 23  1  0  0  0  0
 22 27  1  0  0  0  0
 23 24  1  0  0  0  0
 23 54  1  0  0  0  0
 23 55  1  0  0  0  0
 24 25  1  0  0  0  0
 24 56  1  0  0  0  0
 24 57  1  0  0  0  0
 25 26  1  0  0  0  0
 26 27  1  0  0  0  0
 26 58  1  0  0  0  0
 26 59  1  0  0  0  0
 27 60  1  0  0  0  0
 27 61  1  0  0  0  0
 28 29  1  0  0  0  0
 28 36  1  0  0  0  0
 28 62  1  0  0  0  0
 29 30  1  0  0  0  0
 29 63  1  0  0  0  0
 29 64  1  0  0  0  0
 30 31  2  0  0  0  0
 30 35  1  0  0  0  0
 31 32  1  0  0  0  0
 31 65  1  0  0  0  0
 32 33  2  0  0  0  0
 32 66  1  0  0  0  0
 33 34  1  0  0  0  0
 33 67  1  0  0  0  0
 34 35  2  0  0  0  0
 34 68  1  0  0  0  0
 35 36  1  0  0  0  0
 36 69  1  0  0  0  0
 36 70  1  0  0  0  0
M  END
>  <DRUGBANK_ID>
DB11818

>  <COMMON_NAME>
Retosiban

>  <CAS_NUMBER>
820957-38-8

>  <UNII>
GIE06H28OX

>  <SYNONYMS>
Retosiban

$$$$
