
 OpenBabel10282417072D

 60 63  0  0  1  0  0  0  0  0999 V2000
   12.0577   -8.3470    0.0000 C   0  0  0  0  0  0  0  0  0  0  0  0
   12.0577   -9.1740    0.0000 C   0  0  0  0  0  0  0  0  0  0  0  0
   12.7739   -9.5875    0.0000 N   0  0  0  0  0  0  0  0  0  0  0  0
   13.4902   -9.1740    0.0000 C   0  0  0  0  0  0  0  0  0  0  0  0
   13.4902   -8.3470    0.0000 N   0  0  0  0  0  0  0  0  0  0  0  0
   12.7739   -7.9335    0.0000 C   0  0  0  0  0  0  0  0  0  0  0  0
   14.2175   -9.5940    0.0000 C   0  0  0  0  0  0  0  0  0  0  0  0
   14.9294   -9.1830    0.0000 N   0  0  0  0  0  0  0  0  0  0  0  0
   15.6278   -9.5864    0.0000 C   0  0  0  0  0  0  0  0  0  0  0  0
   16.3331   -9.1792    0.0000 C   0  0  0  0  0  0  0  0  0  0  0  0
   15.6278  -10.4144    0.0000 O   0  0  0  0  0  0  0  0  0  0  0  0
   17.0348   -9.5844    0.0000 C   0  0  0  0  0  0  0  0  0  0  0  0
   17.7511   -9.1709    0.0000 N   0  0  0  0  0  0  0  0  0  0  0  0
   17.7511   -8.3439    0.0000 C   0  0  0  0  0  0  0  0  0  0  0  0
   17.0494   -7.9387    0.0000 N   0  0  0  0  0  0  0  0  0  0  0  0
   16.3332   -8.3522    0.0000 C   0  0  0  0  0  0  0  0  0  0  0  0
   18.4757   -7.9255    0.0000 N   0  0  0  0  0  0  0  0  0  0  0  0
   17.0348  -10.8682    0.0000 N   0  0  0  0  0  0  0  0  0  0  0  0
   17.7419  -11.2762    0.0000 C   0  0  0  0  0  0  0  0  0  0  0  0
   18.4593  -10.8617    0.0000 C   0  0  0  0  0  0  0  0  0  0  0  0
   18.4757   -7.1005    0.0000 C   0  0  0  0  0  0  0  0  0  0  0  0
   19.2603   -8.1805    0.0000 C   0  0  1  0  0  0  0  0  0  0  0  0
   19.7453   -7.5130    0.0000 C   0  0  0  0  0  0  0  0  0  0  0  0
   19.2603   -6.8456    0.0000 C   0  0  0  0  0  0  0  0  0  0  0  0
   19.1528  -11.2619    0.0000 C   0  0  0  0  0  0  0  0  0  0  0  0
   19.8672  -10.8492    0.0000 C   0  0  0  0  0  0  0  0  0  0  0  0
   19.8670  -10.0242    0.0000 C   0  0  0  0  0  0  0  0  0  0  0  0
   19.1735   -9.6240    0.0000 C   0  0  0  0  0  0  0  0  0  0  0  0
   18.4591  -10.0367    0.0000 C   0  0  0  0  0  0  0  0  0  0  0  0
   20.5931   -9.6046    0.0000 O   0  0  0  0  0  0  0  0  0  0  0  0
   21.3035  -10.0144    0.0000 C   0  0  0  0  0  0  0  0  0  0  0  0
   20.5929  -11.2681    0.0000 Cl  0  0  0  0  0  0  0  0  0  0  0  0
   19.5118   -8.9543    0.0000 C   0  0  0  0  0  0  0  0  0  0  0  0
   20.3368   -8.9543    0.0000 O   0  0  0  0  0  0  0  0  0  0  0  0
   11.1640   -7.8310    0.0000 H   0  0  0  0  0  0  0  0  0  0  0  0
   11.1640   -9.6900    0.0000 H   0  0  0  0  0  0  0  0  0  0  0  0
   12.7739   -6.9015    0.0000 H   0  0  0  0  0  0  0  0  0  0  0  0
   14.2174  -10.6640    0.0000 H   0  0  0  0  0  0  0  0  0  0  0  0
   15.1441  -10.1290    0.0000 H   0  0  0  0  0  0  0  0  0  0  0  0
   14.9295   -8.1985    0.0000 H   0  0  0  0  0  0  0  0  0  0  0  0
   15.4395   -7.8361    0.0000 H   0  0  0  0  0  0  0  0  0  0  0  0
   16.1823  -11.3606    0.0000 H   0  0  0  0  0  0  0  0  0  0  0  0
   17.7422  -12.3462    0.0000 H   0  0  0  0  0  0  0  0  0  0  0  0
   18.6687  -11.8109    0.0000 H   0  0  0  0  0  0  0  0  0  0  0  0
   17.6101   -6.4716    0.0000 H   0  0  0  0  0  0  0  0  0  0  0  0
   18.6431   -6.0437    0.0000 H   0  0  0  0  0  0  0  0  0  0  0  0
   18.5037   -8.9371    0.0000 H   0  0  0  0  0  0  0  0  0  0  0  0
   20.8153   -7.5130    0.0000 H   0  0  0  0  0  0  0  0  0  0  0  0
   20.2310   -6.5596    0.0000 H   0  0  0  0  0  0  0  0  0  0  0  0
   19.5909   -5.8280    0.0000 H   0  0  0  0  0  0  0  0  0  0  0  0
   18.5037   -6.0890    0.0000 H   0  0  0  0  0  0  0  0  0  0  0  0
   19.1530  -12.2939    0.0000 H   0  0  0  0  0  0  0  0  0  0  0  0
   19.1733   -8.5920    0.0000 H   0  0  0  0  0  0  0  0  0  0  0  0
   17.5652   -9.5209    0.0000 H   0  0  0  0  0  0  0  0  0  0  0  0
   21.3039  -11.0844    0.0000 H   0  0  0  0  0  0  0  0  0  0  0  0
   22.2299   -9.4791    0.0000 H   0  0  0  0  0  0  0  0  0  0  0  0
   22.2303  -10.5491    0.0000 H   0  0  0  0  0  0  0  0  0  0  0  0
   18.8829   -9.8200    0.0000 H   0  0  0  0  0  0  0  0  0  0  0  0
   19.9976   -9.9077    0.0000 H   0  0  0  0  0  0  0  0  0  0  0  0
   20.8218   -9.7943    0.0000 H   0  0  0  0  0  0  0  0  0  0  0  0
  1  2  2  0  0  0  0
  1  6  1  0  0  0  0
  1 35  1  0  0  0  0
  2  3  1  0  0  0  0
  2 36  1  0  0  0  0
  3  4  2  0  0  0  0
  4  5  1  0  0  0  0
  4  7  1  0  0  0  0
  5  6  2  0  0  0  0
  6 37  1  0  0  0  0
  7  8  1  0  0  0  0
  7 38  1  0  0  0  0
  7 39  1  0  0  0  0
  8  9  1  0  0  0  0
  8 40  1  0  0  0  0
  9 10  1  0  0  0  0
  9 11  2  0  0  0  0
 10 12  2  0  0  0  0
 10 16  1  0  0  0  0
 12 13  1  0  0  0  0
 12 18  1  0  0  0  0
 13 14  2  0  0  0  0
 14 15  1  0  0  0  0
 14 17  1  0  0  0  0
 15 16  2  0  0  0  0
 16 41  1  0  0  0  0
 17 21  1  0  0  0  0
 17 22  1  0  0  0  0
 18 19  1  0  0  0  0
 18 42  1  0  0  0  0
 19 20  1  0  0  0  0
 19 43  1  0  0  0  0
 19 44  1  0  0  0  0
 20 25  2  0  0  0  0
 20 29  1  0  0  0  0
 21 24  1  0  0  0  0
 21 45  1  0  0  0  0
 21 46  1  0  0  0  0
 22 23  1  0  0  0  0
 22 33  1  0  0  0  0
 22 47  1  6  0  0  0
 23 24  1  0  0  0  0
 23 48  1  0  0  0  0
 23 49  1  0  0  0  0
 24 50  1  0  0  0  0
 24 51  1  0  0  0  0
 25 26  1  0  0  0  0
 25 52  1  0  0  0  0
 26 27  2  0  0  0  0
 26 32  1  0  0  0  0
 27 28  1  0  0  0  0
 27 30  1  0  0  0  0
 28 29  2  0  0  0  0
 28 53  1  0  0  0  0
 29 54  1  0  0  0  0
 30 31  1  0  0  0  0
 31 55  1  0  0  0  0
 31 56  1  0  0  0  0
 31 57  1  0  0  0  0
 33 34  1  0  0  0  0
 33 58  1  0  0  0  0
 33 59  1  0  0  0  0
 34 60  1  0  0  0  0
M  END
>  <DRUGBANK_ID>
DB06237

>  <COMMON_NAME>
Avanafil

>  <CAS_NUMBER>
330784-47-9

>  <UNII>
DR5S136IVO

>  <SYNONYMS>
(S)-4-(3-Chloro-4-methoxybenzylamino)-2-(2-hydroxymethylpyrrolidin-1-yl)-N-pyrimidin-2-ylmethyl-5-pyrimidinecarboxamide; Avanafil; Avanafilo

$$$$
