
 OpenBabel10282417072D

 55 54  0  0  0  0  0  0  0  0999 V2000
    5.0012    0.2062    0.0000 C   0  0  0  0  0  0  0  0  0  0  0  0
    4.2867   -0.2062    0.0000 C   0  0  0  0  0  0  0  0  0  0  0  0
    3.5723    0.2062    0.0000 C   0  0  0  0  0  0  0  0  0  0  0  0
    2.8578   -0.2062    0.0000 C   0  0  0  0  0  0  0  0  0  0  0  0
    2.1434    0.2062    0.0000 C   0  0  0  0  0  0  0  0  0  0  0  0
    1.4289   -0.2062    0.0000 C   0  0  0  0  0  0  0  0  0  0  0  0
    0.7144    0.2062    0.0000 C   0  0  0  0  0  0  0  0  0  0  0  0
    0.0000   -0.2062    0.0000 C   0  0  0  0  0  0  0  0  0  0  0  0
   -0.7144    0.2062    0.0000 C   0  0  0  0  0  0  0  0  0  0  0  0
   -1.4289   -0.2062    0.0000 C   0  0  0  0  0  0  0  0  0  0  0  0
   -2.1435    0.2062    0.0000 C   0  0  0  0  0  0  0  0  0  0  0  0
   -2.8579   -0.2062    0.0000 N   0  0  0  0  0  0  0  0  0  0  0  0
   -3.5723    0.2062    0.0000 C   0  0  1  0  0  0  0  0  0  0  0  0
   -2.1435    1.0312    0.0000 O   0  0  0  0  0  0  0  0  0  0  0  0
   -4.2869   -0.2062    0.0000 C   0  0  0  0  0  0  0  0  0  0  0  0
   -3.5723    1.0312    0.0000 C   0  0  0  0  0  0  0  0  0  0  0  0
   -2.8579    1.4437    0.0000 O   0  0  0  0  0  0  0  0  0  0  0  0
   -4.2869    1.4437    0.0000 O   0  0  0  0  0  0  0  0  0  0  0  0
   -5.0012    1.0312    0.0000 C   0  0  0  0  0  0  0  0  0  0  0  0
   -4.2869   -1.0312    0.0000 C   0  0  0  0  0  0  0  0  0  0  0  0
   -5.0012   -1.4437    0.0000 C   0  0  0  0  0  0  0  0  0  0  0  0
   -3.5723   -1.4437    0.0000 C   0  0  0  0  0  0  0  0  0  0  0  0
    5.8949   -0.3099    0.0000 H   0  0  0  0  0  0  0  0  0  0  0  0
    5.0013    1.2382    0.0000 H   0  0  0  0  0  0  0  0  0  0  0  0
    4.2867   -1.2382    0.0000 H   0  0  0  0  0  0  0  0  0  0  0  0
    3.5723    1.2762    0.0000 H   0  0  0  0  0  0  0  0  0  0  0  0
    2.6457    0.7413    0.0000 H   0  0  0  0  0  0  0  0  0  0  0  0
    2.8578   -1.2762    0.0000 H   0  0  0  0  0  0  0  0  0  0  0  0
    1.9312   -0.7412    0.0000 H   0  0  0  0  0  0  0  0  0  0  0  0
    2.1434    1.2762    0.0000 H   0  0  0  0  0  0  0  0  0  0  0  0
    1.2168    0.7413    0.0000 H   0  0  0  0  0  0  0  0  0  0  0  0
    1.4289   -1.2762    0.0000 H   0  0  0  0  0  0  0  0  0  0  0  0
    0.5023   -0.7413    0.0000 H   0  0  0  0  0  0  0  0  0  0  0  0
    0.7144    1.2762    0.0000 H   0  0  0  0  0  0  0  0  0  0  0  0
   -0.2122    0.7412    0.0000 H   0  0  0  0  0  0  0  0  0  0  0  0
    0.0000   -1.2762    0.0000 H   0  0  0  0  0  0  0  0  0  0  0  0
   -0.9266   -0.7412    0.0000 H   0  0  0  0  0  0  0  0  0  0  0  0
   -0.7144    1.2762    0.0000 H   0  0  0  0  0  0  0  0  0  0  0  0
   -1.6410    0.7413    0.0000 H   0  0  0  0  0  0  0  0  0  0  0  0
   -1.4289   -1.2762    0.0000 H   0  0  0  0  0  0  0  0  0  0  0  0
   -2.3555   -0.7413    0.0000 H   0  0  0  0  0  0  0  0  0  0  0  0
   -2.8579   -1.1907    0.0000 H   0  0  0  0  0  0  0  0  0  0  0  0
   -2.6457    0.7412    0.0000 H   0  0  0  0  0  0  0  0  0  0  0  0
   -5.2135    0.3289    0.0000 H   0  0  0  0  0  0  0  0  0  0  0  0
   -5.2136   -0.7412    0.0000 H   0  0  0  0  0  0  0  0  0  0  0  0
   -5.9279    1.5661    0.0000 H   0  0  0  0  0  0  0  0  0  0  0  0
   -5.0011   -0.0388    0.0000 H   0  0  0  0  0  0  0  0  0  0  0  0
   -5.9278    0.4961    0.0000 H   0  0  0  0  0  0  0  0  0  0  0  0
   -4.2868   -2.1012    0.0000 H   0  0  0  0  0  0  0  0  0  0  0  0
   -5.9279   -0.9088    0.0000 H   0  0  0  0  0  0  0  0  0  0  0  0
   -5.0011   -2.5137    0.0000 H   0  0  0  0  0  0  0  0  0  0  0  0
   -5.9278   -1.9788    0.0000 H   0  0  0  0  0  0  0  0  0  0  0  0
   -3.5722   -2.5137    0.0000 H   0  0  0  0  0  0  0  0  0  0  0  0
   -2.6457   -0.9086    0.0000 H   0  0  0  0  0  0  0  0  0  0  0  0
   -2.6456   -1.9786    0.0000 H   0  0  0  0  0  0  0  0  0  0  0  0
  1  2  2  0  0  0  0
  1 23  1  0  0  0  0
  1 24  1  0  0  0  0
  2  3  1  0  0  0  0
  2 25  1  0  0  0  0
  3  4  1  0  0  0  0
  3 26  1  0  0  0  0
  3 27  1  0  0  0  0
  4  5  1  0  0  0  0
  4 28  1  0  0  0  0
  4 29  1  0  0  0  0
  5  6  1  0  0  0  0
  5 30  1  0  0  0  0
  5 31  1  0  0  0  0
  6  7  1  0  0  0  0
  6 32  1  0  0  0  0
  6 33  1  0  0  0  0
  7  8  1  0  0  0  0
  7 34  1  0  0  0  0
  7 35  1  0  0  0  0
  8  9  1  0  0  0  0
  8 36  1  0  0  0  0
  8 37  1  0  0  0  0
  9 10  1  0  0  0  0
  9 38  1  0  0  0  0
  9 39  1  0  0  0  0
 10 11  1  0  0  0  0
 10 40  1  0  0  0  0
 10 41  1  0  0  0  0
 11 12  1  0  0  0  0
 11 14  2  0  0  0  0
 12 13  1  0  0  0  0
 12 42  1  0  0  0  0
 13 15  1  0  0  0  0
 13 16  1  0  0  0  0
 13 43  1  6  0  0  0
 15 20  1  0  0  0  0
 15 44  1  0  0  0  0
 15 45  1  0  0  0  0
 16 17  2  0  0  0  0
 16 18  1  0  0  0  0
 18 19  1  0  0  0  0
 19 46  1  0  0  0  0
 19 47  1  0  0  0  0
 19 48  1  0  0  0  0
 20 21  1  0  0  0  0
 20 22  1  0  0  0  0
 20 49  1  0  0  0  0
 21 50  1  0  0  0  0
 21 51  1  0  0  0  0
 21 52  1  0  0  0  0
 22 53  1  0  0  0  0
 22 54  1  0  0  0  0
 22 55  1  0  0  0  0
M  END
>  <DRUGBANK_ID>
DB11272

>  <COMMON_NAME>
Methyl undecenoyl leucinate

>  <CAS_NUMBER>
1246371-29-8

>  <UNII>
D7PH6N3IEI

$$$$
