
 OpenBabel10282417072D

  1  0  0  0  0  0  0  0  0  0999 V2000
    0.0000    0.0000    0.0000 Y   0  0  0  0  0  0  0  0  0  0  0  0
M  ISO  1   1  90
M  END
>  <DRUGBANK_ID>
DB13076

>  <COMMON_NAME>
Yttrium Y-90

>  <CAS_NUMBER>
10098-91-6

>  <UNII>
1K8M7UR6O1

>  <SYNONYMS>
Yttrium (90 Y); Yttrium (90Y); Yttrium Y 90; Yttrium-90

$$$$
