736
 OpenBabel10282417072D

 61 65  0  0  0  0  0  0  0  0999 V2000
    2.3772    0.2788    0.0000 C   0  0  0  0  0  0  0  0  0  0  0  0
    1.5888    0.5220    0.0000 N   0  0  0  0  0  0  0  0  0  0  0  0
    0.9841   -0.0391    0.0000 C   0  0  0  0  0  0  0  0  0  0  0  0
    1.1676   -0.8435    0.0000 C   0  0  0  0  0  0  0  0  0  0  0  0
    1.9560   -1.0866    0.0000 C   0  0  0  0  0  0  0  0  0  0  0  0
    2.5608   -0.5255    0.0000 C   0  0  0  0  0  0  0  0  0  0  0  0
    0.2408    0.3188    0.0000 C   0  0  2  0  0  0  0  0  0  0  0  0
   -0.5025   -0.0391    0.0000 C   0  0  0  0  0  0  0  0  0  0  0  0
   -0.6861   -0.8435    0.0000 C   0  0  0  0  0  0  0  0  0  0  0  0
   -0.1717   -1.4885    0.0000 C   0  0  0  0  0  0  0  0  0  0  0  0
    0.6533   -1.4885    0.0000 C   0  0  0  0  0  0  0  0  0  0  0  0
   -1.1073    0.5220    0.0000 C   0  0  0  0  0  0  0  0  0  0  0  0
   -1.8956    0.2788    0.0000 C   0  0  0  0  0  0  0  0  0  0  0  0
   -2.0792   -0.5255    0.0000 C   0  0  0  0  0  0  0  0  0  0  0  0
   -1.4745   -1.0866    0.0000 C   0  0  0  0  0  0  0  0  0  0  0  0
    0.2408    1.1438    0.0000 C   0  0  0  0  0  0  0  0  0  0  0  0
   -0.4737    1.5563    0.0000 C   0  0  0  0  0  0  0  0  0  0  0  0
   -0.4737    2.3813    0.0000 C   0  0  0  0  0  0  0  0  0  0  0  0
    0.2408    2.7938    0.0000 N   0  0  0  0  0  0  0  0  0  0  0  0
    0.9552    2.3813    0.0000 C   0  0  0  0  0  0  0  0  0  0  0  0
    0.9552    1.5563    0.0000 C   0  0  0  0  0  0  0  0  0  0  0  0
   -2.8676   -0.7687    0.0000 Cl  0  0  0  0  0  0  0  0  0  0  0  0
    0.2408    3.6188    0.0000 S   0  0  0  0  0  0  0  0  0  0  0  0
   -0.5297   -2.2318    0.0000 N   0  0  0  0  0  0  0  0  0  0  0  0
   -0.0649   -2.9134    0.0000 C   0  0  0  0  0  0  0  0  0  0  0  0
   -1.3524   -2.2934    0.0000 C   0  0  0  0  0  0  0  0  0  0  0  0
   -0.4229   -3.6567    0.0000 C   0  0  0  0  0  0  0  0  0  0  0  0
   -1.7103   -3.0367    0.0000 C   0  0  0  0  0  0  0  0  0  0  0  0
   -1.2456   -3.7184    0.0000 N   0  0  0  0  0  0  0  0  0  0  0  0
    0.2408    4.4438    0.0000 O   0  0  0  0  0  0  0  0  0  0  0  0
    1.0658    3.6188    0.0000 C   0  0  0  0  0  0  0  0  0  0  0  0
   -0.5842    3.6188    0.0000 O   0  0  0  0  0  0  0  0  0  0  0  0
    0.7352    0.6295    0.0000 H   0  0  0  0  0  0  0  0  0  0  0  0
    3.1337    0.9807    0.0000 H   0  0  0  0  0  0  0  0  0  0  0  0
    2.1857   -2.0927    0.0000 H   0  0  0  0  0  0  0  0  0  0  0  0
    3.5469   -0.8297    0.0000 H   0  0  0  0  0  0  0  0  0  0  0  0
    1.1011   -2.4183    0.0000 H   0  0  0  0  0  0  0  0  0  0  0  0
   -0.8777    1.5281    0.0000 H   0  0  0  0  0  0  0  0  0  0  0  0
   -2.6521    0.9807    0.0000 H   0  0  0  0  0  0  0  0  0  0  0  0
   -1.7042   -2.0927    0.0000 H   0  0  0  0  0  0  0  0  0  0  0  0
    0.2408    2.2138    0.0000 H   0  0  0  0  0  0  0  0  0  0  0  0
   -1.4003    1.0213    0.0000 H   0  0  0  0  0  0  0  0  0  0  0  0
   -1.4003    2.0913    0.0000 H   0  0  0  0  0  0  0  0  0  0  0  0
   -1.4003    2.9163    0.0000 H   0  0  0  0  0  0  0  0  0  0  0  0
   -0.4737    3.4513    0.0000 H   0  0  0  0  0  0  0  0  0  0  0  0
    1.8819    2.9163    0.0000 H   0  0  0  0  0  0  0  0  0  0  0  0
    1.8818    1.8463    0.0000 H   0  0  0  0  0  0  0  0  0  0  0  0
    1.8819    1.0213    0.0000 H   0  0  0  0  0  0  0  0  0  0  0  0
    1.8818    2.0913    0.0000 H   0  0  0  0  0  0  0  0  0  0  0  0
    1.0021   -2.8334    0.0000 H   0  0  0  0  0  0  0  0  0  0  0  0
    0.5378   -3.7975    0.0000 H   0  0  0  0  0  0  0  0  0  0  0  0
   -1.9552   -1.4093    0.0000 H   0  0  0  0  0  0  0  0  0  0  0  0
   -2.4194   -2.3734    0.0000 H   0  0  0  0  0  0  0  0  0  0  0  0
    0.1799   -4.5408    0.0000 H   0  0  0  0  0  0  0  0  0  0  0  0
   -0.8871   -4.6208    0.0000 H   0  0  0  0  0  0  0  0  0  0  0  0
   -2.7773   -3.1167    0.0000 H   0  0  0  0  0  0  0  0  0  0  0  0
   -2.1746   -4.0007    0.0000 H   0  0  0  0  0  0  0  0  0  0  0  0
   -1.6882   -4.6374    0.0000 H   0  0  0  0  0  0  0  0  0  0  0  0
    1.6008    2.6922    0.0000 H   0  0  0  0  0  0  0  0  0  0  0  0
    1.6008    4.5454    0.0000 H   0  0  0  0  0  0  0  0  0  0  0  0
    2.1358    3.6188    0.0000 H   0  0  0  0  0  0  0  0  0  0  0  0
  1  2  2  0  0  0  0
  1  6  1  0  0  0  0
  1 34  1  0  0  0  0
  2  3  1  0  0  0  0
  3  4  2  0  0  0  0
  3  7  1  0  0  0  0
  4  5  1  0  0  0  0
  4 11  1  0  0  0  0
  5  6  2  0  0  0  0
  5 35  1  0  0  0  0
  6 36  1  0  0  0  0
  7  8  1  0  0  0  0
  7 16  1  0  0  0  0
  7 33  1  1  0  0  0
  8  9  2  0  0  0  0
  8 12  1  0  0  0  0
  9 10  1  0  0  0  0
  9 15  1  0  0  0  0
 10 11  2  0  0  0  0
 10 24  1  0  0  0  0
 11 37  1  0  0  0  0
 12 13  2  0  0  0  0
 12 38  1  0  0  0  0
 13 14  1  0  0  0  0
 13 39  1  0  0  0  0
 14 15  2  0  0  0  0
 14 22  1  0  0  0  0
 15 40  1  0  0  0  0
 16 17  1  0  0  0  0
 16 21  1  0  0  0  0
 16 41  1  0  0  0  0
 17 18  1  0  0  0  0
 17 42  1  0  0  0  0
 17 43  1  0  0  0  0
 18 19  1  0  0  0  0
 18 44  1  0  0  0  0
 18 45  1  0  0  0  0
 19 20  1  0  0  0  0
 19 23  1  0  0  0  0
 20 21  1  0  0  0  0
 20 46  1  0  0  0  0
 20 47  1  0  0  0  0
 21 48  1  0  0  0  0
 21 49  1  0  0  0  0
 23 30  2  0  0  0  0
 23 31  1  0  0  0  0
 23 32  2  0  0  0  0
 24 25  1  0  0  0  0
 24 26  1  0  0  0  0
 25 27  1  0  0  0  0
 25 50  1  0  0  0  0
 25 51  1  0  0  0  0
 26 28  1  0  0  0  0
 26 52  1  0  0  0  0
 26 53  1  0  0  0  0
 27 29  1  0  0  0  0
 27 54  1  0  0  0  0
 27 55  1  0  0  0  0
 28 29  1  0  0  0  0
 28 56  1  0  0  0  0
 28 57  1  0  0  0  0
 29 58  1  0  0  0  0
 31 59  1  0  0  0  0
 31 60  1  0  0  0  0
 31 61  1  0  0  0  0
M  END
>  <DRUGBANK_ID>
DB07216

>  <COMMON_NAME>
(11S)-8-CHLORO-11-[1-(METHYLSULFONYL)PIPERIDIN-4-YL]-6-PIPERAZIN-1-YL-11H-BENZO[5,6]CYCLOHEPTA[1,2-B]PYRIDINE

$$$$
