
 OpenBabel10282417072D

 58 60  0  0  0  0  0  0  0  0999 V2000
   -0.2169   -1.2405    0.0000 P   0  0  1  0  0  0  0  0  0  0  0  0
    1.0886   -1.8217    0.0000 P   0  0  2  0  0  0  0  0  0  0  0  0
   -1.7523    0.7927    0.0000 O   0  0  0  0  0  0  0  0  0  0  0  0
   -3.3173   -0.6592    0.0000 O   0  0  0  0  0  0  0  0  0  0  0  0
    3.2146   -2.3168    0.0000 O   0  0  0  0  0  0  0  0  0  0  0  0
   -0.7018   -0.5730    0.0000 O   0  0  0  0  0  0  0  0  0  0  0  0
    1.9091   -1.7355    0.0000 O   0  0  0  0  0  0  0  0  0  0  0  0
    2.2078   -4.5779    0.0000 O   0  0  0  0  0  0  0  0  0  0  0  0
    1.2379   -3.2430    0.0000 O   0  0  0  0  0  0  0  0  0  0  0  0
    3.8489   -4.4055    0.0000 O   0  0  0  0  0  0  0  0  0  0  0  0
    0.2680   -1.9080    0.0000 O   0  0  0  0  0  0  0  0  0  0  0  0
   -3.8489    2.1028    0.0000 O   0  0  0  0  0  0  0  0  0  0  0  0
    0.4506   -0.7556    0.0000 O   0  0  0  0  0  0  0  0  0  0  0  0
    1.1748   -2.6423    0.0000 O   0  0  0  0  0  0  0  0  0  0  0  0
   -0.8844   -1.7255    0.0000 O   0  0  0  0  0  0  0  0  0  0  0  0
    1.0023   -1.0012    0.0000 O   0  0  0  0  0  0  0  0  0  0  0  0
   -2.4198    4.5779    0.0000 O   0  0  0  0  0  0  0  0  0  0  0  0
   -2.4198    2.1028    0.0000 N   0  0  0  0  0  0  0  0  0  0  0  0
   -3.1344    3.3403    0.0000 N   0  0  0  0  0  0  0  0  0  0  0  0
   -2.8323    0.0081    0.0000 C   0  0  2  0  0  0  0  0  0  0  0  0
   -2.0073    0.0081    0.0000 C   0  0  1  0  0  0  0  0  0  0  0  0
   -3.0873    0.7927    0.0000 C   0  0  0  0  0  0  0  0  0  0  0  0
   -2.4198    1.2777    0.0000 C   0  0  1  0  0  0  0  0  0  0  0  0
   -1.5224   -0.6592    0.0000 C   0  0  0  0  0  0  0  0  0  0  0  0
    2.5434   -3.8242    0.0000 C   0  0  2  0  0  0  0  0  0  0  0  0
    2.0584   -3.1568    0.0000 C   0  0  2  0  0  0  0  0  0  0  0  0
    3.3639   -3.7379    0.0000 C   0  0  1  0  0  0  0  0  0  0  0  0
    2.3940   -2.4030    0.0000 C   0  0  2  0  0  0  0  0  0  0  0  0
    3.6995   -2.9842    0.0000 C   0  0  0  0  0  0  0  0  0  0  0  0
   -1.7053    2.5153    0.0000 C   0  0  0  0  0  0  0  0  0  0  0  0
   -3.1344    2.5153    0.0000 C   0  0  0  0  0  0  0  0  0  0  0  0
   -1.7053    3.3403    0.0000 C   0  0  0  0  0  0  0  0  0  0  0  0
   -2.4198    3.7529    0.0000 C   0  0  0  0  0  0  0  0  0  0  0  0
   -0.9908    3.7529    0.0000 C   0  0  0  0  0  0  0  0  0  0  0  0
   -3.5773    3.5961    0.0000 H   0  0  0  0  0  0  0  0  0  0  0  0
   -4.2820   -0.5576    0.0000 H   0  0  0  0  0  0  0  0  0  0  0  0
    1.2431   -4.6793    0.0000 H   0  0  0  0  0  0  0  0  0  0  0  0
    0.6678   -2.4582    0.0000 H   0  0  0  0  0  0  0  0  0  0  0  0
    3.4543   -5.2916    0.0000 H   0  0  0  0  0  0  0  0  0  0  0  0
    1.3367   -1.1502    0.0000 H   0  0  0  0  0  0  0  0  0  0  0  0
    0.3900   -3.2124    0.0000 H   0  0  0  0  0  0  0  0  0  0  0  0
   -2.3466   -0.9453    0.0000 H   0  0  0  0  0  0  0  0  0  0  0  0
   -0.9505    0.1755    0.0000 H   0  0  0  0  0  0  0  0  0  0  0  0
   -4.1049    1.1233    0.0000 H   0  0  0  0  0  0  0  0  0  0  0  0
   -3.2547    1.8495    0.0000 H   0  0  0  0  0  0  0  0  0  0  0  0
   -1.4664    1.7635    0.0000 H   0  0  0  0  0  0  0  0  0  0  0  0
   -1.9576   -1.6367    0.0000 H   0  0  0  0  0  0  0  0  0  0  0  0
   -2.5865   -0.7711    0.0000 H   0  0  0  0  0  0  0  0  0  0  0  0
    1.4793   -3.9361    0.0000 H   0  0  0  0  0  0  0  0  0  0  0  0
    1.6232   -4.1343    0.0000 H   0  0  0  0  0  0  0  0  0  0  0  0
    2.9287   -4.7154    0.0000 H   0  0  0  0  0  0  0  0  0  0  0  0
    2.8293   -1.4255    0.0000 H   0  0  0  0  0  0  0  0  0  0  0  0
    4.7636   -2.8724    0.0000 H   0  0  0  0  0  0  0  0  0  0  0  0
    4.3284   -3.8499    0.0000 H   0  0  0  0  0  0  0  0  0  0  0  0
   -0.8116    1.9993    0.0000 H   0  0  0  0  0  0  0  0  0  0  0  0
   -0.0641    3.2180    0.0000 H   0  0  0  0  0  0  0  0  0  0  0  0
   -0.9909    4.8229    0.0000 H   0  0  0  0  0  0  0  0  0  0  0  0
   -0.0642    4.2880    0.0000 H   0  0  0  0  0  0  0  0  0  0  0  0
  1  6  1  0  0  0  0
  1 11  1  0  0  0  0
  1 13  1  0  0  0  0
  1 15  2  1  0  0  0
  2  7  1  0  0  0  0
  2 11  1  0  0  0  0
  2 14  1  0  0  0  0
  2 16  2  6  0  0  0
  3 21  1  0  0  0  0
  3 23  1  0  0  0  0
  4 36  1  0  0  0  0
  5 28  1  0  0  0  0
  5 29  1  0  0  0  0
  6 24  1  0  0  0  0
  8 37  1  0  0  0  0
  9 38  1  0  0  0  0
 10 39  1  0  0  0  0
 12 31  2  0  0  0  0
 13 40  1  0  0  0  0
 14 41  1  0  0  0  0
 17 33  2  0  0  0  0
 18 30  1  0  0  0  0
 18 31  1  0  0  0  0
 19 31  1  0  0  0  0
 19 33  1  0  0  0  0
 19 35  1  0  0  0  0
 20  4  1  0  0  0  0
 20 21  1  0  0  0  0
 20 22  1  0  0  0  0
 20 42  1  6  0  0  0
 21 24  1  0  0  0  0
 21 43  1  1  0  0  0
 22 23  1  0  0  0  0
 22 44  1  0  0  0  0
 22 45  1  0  0  0  0
 23 18  1  0  0  0  0
 23 46  1  1  0  0  0
 24 47  1  0  0  0  0
 24 48  1  0  0  0  0
 25  8  1  0  0  0  0
 25 26  1  0  0  0  0
 25 27  1  0  0  0  0
 25 49  1  1  0  0  0
 26  9  1  0  0  0  0
 26 28  1  0  0  0  0
 26 50  1  6  0  0  0
 27 10  1  0  0  0  0
 27 29  1  0  0  0  0
 27 51  1  6  0  0  0
 28  7  1  0  0  0  0
 28 52  1  6  0  0  0
 29 53  1  0  0  0  0
 29 54  1  0  0  0  0
 30 32  2  0  0  0  0
 30 55  1  0  0  0  0
 32 33  1  0  0  0  0
 32 34  1  0  0  0  0
 34 56  1  0  0  0  0
 34 57  1  0  0  0  0
 34 58  1  0  0  0  0
M  END
>  <DRUGBANK_ID>
DB03161

>  <SECONDARY_ACCESSION_NUMBERS>
EXPT03034

>  <COMMON_NAME>
Thymidine-5'-diphospho-beta-D-xylose

$$$$
