
 OpenBabel10282417072D

 56 58  0  0  0  0  0  0  0  0999 V2000
   -0.1015    0.1755    0.0000 C   0  0  1  0  0  0  0  0  0  0  0  0
    0.6129    0.5880    0.0000 C   0  0  0  0  0  0  0  0  0  0  0  0
   -0.8161    0.5882    0.0000 C   0  0  0  0  0  0  0  0  0  0  0  0
    0.6128    1.4131    0.0000 C   0  0  1  0  0  0  0  0  0  0  0  0
   -0.8161    1.4130    0.0000 C   0  0  2  0  0  0  0  0  0  0  0  0
   -0.1016    1.8256    0.0000 O   0  0  0  0  0  0  0  0  0  0  0  0
   -0.1016   -0.6494    0.0000 O   0  0  0  0  0  0  0  0  0  0  0  0
   -0.8162   -1.0618    0.0000 C   0  0  0  0  0  0  0  0  0  0  0  0
   -1.5307   -0.6493    0.0000 O   0  0  0  0  0  0  0  0  0  0  0  0
   -1.5306    1.8255    0.0000 C   0  0  0  0  0  0  0  0  0  0  0  0
   -2.2451    1.4130    0.0000 C   0  0  0  0  0  0  0  0  0  0  0  0
   -2.9595    0.1755    0.0000 C   0  0  0  0  0  0  0  0  0  0  0  0
   -2.2451   -1.0618    0.0000 C   0  0  0  0  0  0  0  0  0  0  0  0
   -2.9595   -0.6493    0.0000 C   0  0  0  0  0  0  0  0  0  0  0  0
   -0.8164   -1.8868    0.0000 C   0  0  0  0  0  0  0  0  0  0  0  0
   -2.2452   -1.8867    0.0000 C   0  0  0  0  0  0  0  0  0  0  0  0
   -1.5308   -2.2992    0.0000 C   0  0  0  0  0  0  0  0  0  0  0  0
    1.3965    1.6701    0.0000 C   0  0  2  0  0  0  0  0  0  0  0  0
    2.0645    1.1861    0.0000 C   0  0  0  0  0  0  0  0  0  0  0  0
    1.6503    2.4551    0.0000 N   0  0  0  0  0  0  0  0  0  0  0  0
    2.7313    1.6719    0.0000 S   0  0  0  0  0  0  0  0  0  0  0  0
    2.4754    2.4563    0.0000 C   0  0  0  0  0  0  0  0  0  0  0  0
    2.9595    3.1243    0.0000 O   0  0  0  0  0  0  0  0  0  0  0  0
   -1.5309   -3.1243    0.0000 C   0  0  0  0  0  0  0  0  0  0  0  0
    0.5935    2.2413    0.0000 O   0  0  0  0  0  0  0  0  0  0  0  0
    1.4226    0.7963    0.0000 H   0  0  0  0  0  0  0  0  0  0  0  0
   -2.2451    0.5880    0.0000 C   0  0  1  0  0  0  0  0  0  0  0  0
   -1.5306    0.1755    0.0000 C   0  0  0  0  0  0  0  0  0  0  0  0
    0.8251   -0.3595    0.0000 H   0  0  0  0  0  0  0  0  0  0  0  0
    1.5396    0.0531    0.0000 H   0  0  0  0  0  0  0  0  0  0  0  0
    1.5395    1.1231    0.0000 H   0  0  0  0  0  0  0  0  0  0  0  0
   -1.7428    0.0533    0.0000 H   0  0  0  0  0  0  0  0  0  0  0  0
   -1.7427    1.1232    0.0000 H   0  0  0  0  0  0  0  0  0  0  0  0
   -0.8162    2.4830    0.0000 H   0  0  0  0  0  0  0  0  0  0  0  0
   -1.5306    2.8955    0.0000 H   0  0  0  0  0  0  0  0  0  0  0  0
   -2.4572    2.3605    0.0000 H   0  0  0  0  0  0  0  0  0  0  0  0
   -3.1717    1.9480    0.0000 H   0  0  0  0  0  0  0  0  0  0  0  0
   -3.1717    0.8780    0.0000 H   0  0  0  0  0  0  0  0  0  0  0  0
   -3.8532    0.6915    0.0000 H   0  0  0  0  0  0  0  0  0  0  0  0
   -1.3184   -0.5269    0.0000 H   0  0  0  0  0  0  0  0  0  0  0  0
   -1.3185   -1.5969    0.0000 H   0  0  0  0  0  0  0  0  0  0  0  0
   -3.8532   -1.1653    0.0000 H   0  0  0  0  0  0  0  0  0  0  0  0
    0.0773   -2.4029    0.0000 H   0  0  0  0  0  0  0  0  0  0  0  0
   -3.1719   -2.4216    0.0000 H   0  0  0  0  0  0  0  0  0  0  0  0
   -2.2453   -2.9567    0.0000 H   0  0  0  0  0  0  0  0  0  0  0  0
    2.0659    0.1161    0.0000 H   0  0  0  0  0  0  0  0  0  0  0  0
    3.0185    0.7016    0.0000 H   0  0  0  0  0  0  0  0  0  0  0  0
    1.0705    3.2507    0.0000 H   0  0  0  0  0  0  0  0  0  0  0  0
   -2.4576   -3.6592    0.0000 H   0  0  0  0  0  0  0  0  0  0  0  0
   -0.6043   -3.6594    0.0000 H   0  0  0  0  0  0  0  0  0  0  0  0
   -1.5310   -4.1943    0.0000 H   0  0  0  0  0  0  0  0  0  0  0  0
    1.4220    2.7457    0.0000 H   0  0  0  0  0  0  0  0  0  0  0  0
   -2.2451   -0.4820    0.0000 H   0  0  0  0  0  0  0  0  0  0  0  0
   -1.5306   -0.8945    0.0000 H   0  0  0  0  0  0  0  0  0  0  0  0
   -0.6040    0.7105    0.0000 H   0  0  0  0  0  0  0  0  0  0  0  0
   -0.6039   -0.3595    0.0000 H   0  0  0  0  0  0  0  0  0  0  0  0
  1  7  1  0  0  0  0
  1 29  1  1  0  0  0
  2  1  1  0  0  0  0
  2 30  1  0  0  0  0
  2 31  1  0  0  0  0
  3  1  1  0  0  0  0
  3 32  1  0  0  0  0
  3 33  1  0  0  0  0
  4  2  1  0  0  0  0
  4 18  1  0  0  0  0
  4 25  1  6  0  0  0
  5  3  1  0  0  0  0
  5 10  1  0  0  0  0
  5 34  1  6  0  0  0
  6  4  1  0  0  0  0
  6  5  1  0  0  0  0
  8  7  1  0  0  0  0
  8  9  2  0  0  0  0
 10 35  1  0  0  0  0
 10 36  1  0  0  0  0
 11 10  1  0  0  0  0
 11 37  1  0  0  0  0
 11 38  1  0  0  0  0
 12 27  1  0  0  0  0
 12 39  1  0  0  0  0
 13 40  1  0  0  0  0
 13 41  1  0  0  0  0
 14 12  2  0  0  0  0
 14 13  1  0  0  0  0
 14 42  1  0  0  0  0
 15  8  1  0  0  0  0
 15 43  1  0  0  0  0
 16 13  1  0  0  0  0
 16 44  1  0  0  0  0
 16 45  1  0  0  0  0
 17 15  2  0  0  0  0
 17 16  1  0  0  0  0
 17 24  1  0  0  0  0
 18 26  1  6  0  0  0
 19 18  1  0  0  0  0
 19 46  1  0  0  0  0
 19 47  1  0  0  0  0
 20 18  1  0  0  0  0
 20 48  1  0  0  0  0
 21 19  1  0  0  0  0
 22 20  1  0  0  0  0
 22 21  1  0  0  0  0
 22 23  2  0  0  0  0
 24 49  1  0  0  0  0
 24 50  1  0  0  0  0
 24 51  1  0  0  0  0
 25 52  1  0  0  0  0
 27 11  1  0  0  0  0
 27 28  1  0  0  0  0
 27 53  1  1  0  0  0
 28 54  1  0  0  0  0
 28 55  1  0  0  0  0
 28 56  1  0  0  0  0
M  END
>  <DRUGBANK_ID>
DB08080

>  <COMMON_NAME>
Latrunculin B

>  <CAS_NUMBER>
76343-94-7

>  <UNII>
LW7U308U7U

>  <SYNONYMS>
(+)-latrunculin B; LAT-B

$$$$
