53S
 OpenBabel10282417072D

 52 54  0  0  0  0  0  0  0  0999 V2000
    1.0333   -2.6004    0.0000 C   0  0  0  0  0  0  0  0  0  0  0  0
    1.7478   -3.0129    0.0000 C   0  0  0  0  0  0  0  0  0  0  0  0
   -1.8246   -0.9504    0.0000 C   0  0  0  0  0  0  0  0  0  0  0  0
   -1.1101    2.7621    0.0000 C   0  0  0  0  0  0  0  0  0  0  0  0
   -1.1101    3.5871    0.0000 C   0  0  0  0  0  0  0  0  0  0  0  0
   -0.3956    3.9996    0.0000 C   0  0  0  0  0  0  0  0  0  0  0  0
   -0.3956    4.8246    0.0000 C   0  0  0  0  0  0  0  0  0  0  0  0
    0.3188    3.5871    0.0000 C   0  0  0  0  0  0  0  0  0  0  0  0
    0.3188    2.7621    0.0000 C   0  0  0  0  0  0  0  0  0  0  0  0
   -0.3956    2.3496    0.0000 C   0  0  0  0  0  0  0  0  0  0  0  0
   -0.3956    1.5246    0.0000 C   0  0  0  0  0  0  0  0  0  0  0  0
    0.3188    1.1121    0.0000 C   0  0  0  0  0  0  0  0  0  0  0  0
   -1.1101    1.1121    0.0000 C   0  0  0  0  0  0  0  0  0  0  0  0
   -1.1101    0.2871    0.0000 C   0  0  0  0  0  0  0  0  0  0  0  0
   -1.8246   -0.1254    0.0000 O   0  0  0  0  0  0  0  0  0  0  0  0
   -0.3956   -0.1254    0.0000 C   0  0  0  0  0  0  0  0  0  0  0  0
    0.3188    0.2871    0.0000 C   0  0  0  0  0  0  0  0  0  0  0  0
    1.0333   -0.1254    0.0000 C   0  0  1  0  0  0  0  0  0  0  0  0
    1.7478    0.2871    0.0000 C   0  0  0  0  0  0  0  0  0  0  0  0
    1.0333   -0.9504    0.0000 C   0  0  0  0  0  0  0  0  0  0  0  0
    1.0333   -1.7754    0.0000 C   0  0  0  0  0  0  0  0  0  0  0  0
    2.4623   -2.6004    0.0000 C   0  0  0  0  0  0  0  0  0  0  0  0
    1.7478   -3.8379    0.0000 N   0  0  0  0  0  0  0  0  0  0  0  0
    1.0333   -4.2504    0.0000 C   0  0  0  0  0  0  0  0  0  0  0  0
    1.0333   -5.0754    0.0000 N   0  0  0  0  0  0  0  0  0  0  0  0
    0.3188   -3.8379    0.0000 N   0  0  0  0  0  0  0  0  0  0  0  0
    0.3188   -3.0129    0.0000 C   0  0  0  0  0  0  0  0  0  0  0  0
   -0.3956   -2.6004    0.0000 N   0  0  0  0  0  0  0  0  0  0  0  0
    1.0333    0.4585    0.0000 H   0  0  0  0  0  0  0  0  0  0  0  0
   -2.7512   -1.4854    0.0000 H   0  0  0  0  0  0  0  0  0  0  0  0
   -0.8980   -1.4854    0.0000 H   0  0  0  0  0  0  0  0  0  0  0  0
   -1.8246   -2.0204    0.0000 H   0  0  0  0  0  0  0  0  0  0  0  0
   -2.0038    2.2461    0.0000 H   0  0  0  0  0  0  0  0  0  0  0  0
   -2.0038    4.1031    0.0000 H   0  0  0  0  0  0  0  0  0  0  0  0
    0.5310    5.3596    0.0000 H   0  0  0  0  0  0  0  0  0  0  0  0
   -1.3222    5.3596    0.0000 H   0  0  0  0  0  0  0  0  0  0  0  0
   -0.3956    5.8946    0.0000 H   0  0  0  0  0  0  0  0  0  0  0  0
    1.2125    4.1031    0.0000 H   0  0  0  0  0  0  0  0  0  0  0  0
    1.2125    2.2461    0.0000 H   0  0  0  0  0  0  0  0  0  0  0  0
    1.2125    1.6281    0.0000 H   0  0  0  0  0  0  0  0  0  0  0  0
   -2.0038    1.6281    0.0000 H   0  0  0  0  0  0  0  0  0  0  0  0
   -0.3956   -1.1574    0.0000 H   0  0  0  0  0  0  0  0  0  0  0  0
    2.6744   -0.2479    0.0000 H   0  0  0  0  0  0  0  0  0  0  0  0
    1.7478    1.3571    0.0000 H   0  0  0  0  0  0  0  0  0  0  0  0
    2.6745    0.8221    0.0000 H   0  0  0  0  0  0  0  0  0  0  0  0
    3.3889   -3.1354    0.0000 H   0  0  0  0  0  0  0  0  0  0  0  0
    2.4623   -1.5304    0.0000 H   0  0  0  0  0  0  0  0  0  0  0  0
    3.3890   -2.0654    0.0000 H   0  0  0  0  0  0  0  0  0  0  0  0
    0.1807   -5.5677    0.0000 H   0  0  0  0  0  0  0  0  0  0  0  0
    1.8859   -5.5677    0.0000 H   0  0  0  0  0  0  0  0  0  0  0  0
   -0.3956   -1.6159    0.0000 H   0  0  0  0  0  0  0  0  0  0  0  0
   -1.2482   -3.0926    0.0000 H   0  0  0  0  0  0  0  0  0  0  0  0
  1  2  2  0  0  0  0
  1 21  1  0  0  0  0
  1 27  1  0  0  0  0
  2 22  1  0  0  0  0
  2 23  1  0  0  0  0
  3 15  1  0  0  0  0
  3 30  1  0  0  0  0
  3 31  1  0  0  0  0
  3 32  1  0  0  0  0
  4  5  2  0  0  0  0
  4 10  1  0  0  0  0
  4 33  1  0  0  0  0
  5  6  1  0  0  0  0
  5 34  1  0  0  0  0
  6  7  1  0  0  0  0
  6  8  2  0  0  0  0
  7 35  1  0  0  0  0
  7 36  1  0  0  0  0
  7 37  1  0  0  0  0
  8  9  1  0  0  0  0
  8 38  1  0  0  0  0
  9 10  2  0  0  0  0
  9 39  1  0  0  0  0
 10 11  1  0  0  0  0
 11 12  2  0  0  0  0
 11 13  1  0  0  0  0
 12 17  1  0  0  0  0
 12 40  1  0  0  0  0
 13 14  2  0  0  0  0
 13 41  1  0  0  0  0
 14 15  1  0  0  0  0
 14 16  1  0  0  0  0
 16 17  2  0  0  0  0
 16 42  1  0  0  0  0
 17 18  1  0  0  0  0
 18 19  1  0  0  0  0
 18 20  1  0  0  0  0
 18 29  1  6  0  0  0
 19 43  1  0  0  0  0
 19 44  1  0  0  0  0
 19 45  1  0  0  0  0
 20 21  3  0  0  0  0
 22 46  1  0  0  0  0
 22 47  1  0  0  0  0
 22 48  1  0  0  0  0
 23 24  2  0  0  0  0
 24 25  1  0  0  0  0
 24 26  1  0  0  0  0
 25 49  1  0  0  0  0
 25 50  1  0  0  0  0
 26 27  2  0  0  0  0
 27 28  1  0  0  0  0
 28 51  1  0  0  0  0
 28 52  1  0  0  0  0
M  END
>  <DRUGBANK_ID>
DB07141

>  <COMMON_NAME>
5-[(3R)-3-(5-methoxy-4'-methylbiphenyl-3-yl)but-1-yn-1-yl]-6-methylpyrimidine-2,4-diamine

$$$$
