
 OpenBabel10282417072D

 99104  0  0  1  0  0  0  0  0999 V2000
   -2.8579    0.8250    0.0000 C   0  0  0  0  0  0  0  0  0  0  0  0
   -4.2868    0.8250    0.0000 C   0  0  0  0  0  0  0  0  0  0  0  0
   -3.5724    7.0125    0.0000 C   0  0  0  0  0  0  0  0  0  0  0  0
   -2.8579    5.7750    0.0000 C   0  0  0  0  0  0  0  0  0  0  0  0
   -7.1447    7.4250    0.0000 C   0  0  0  0  0  0  0  0  0  0  0  0
   -5.7158    7.4250    0.0000 C   0  0  0  0  0  0  0  0  0  0  0  0
   -9.2881    4.5375    0.0000 C   0  0  0  0  0  0  0  0  0  0  0  0
   -8.5737    5.7750    0.0000 C   0  0  0  0  0  0  0  0  0  0  0  0
   -7.8592    1.2375    0.0000 C   0  0  0  0  0  0  0  0  0  0  0  0
   -8.5737    2.4750    0.0000 C   0  0  0  0  0  0  0  0  0  0  0  0
   -4.2868    3.3000    0.0000 C   0  0  0  0  0  0  0  0  0  0  0  0
   -3.5724    1.2375    0.0000 C   0  0  0  0  0  0  0  0  0  0  0  0
   -3.5724    6.1875    0.0000 C   0  0  0  0  0  0  0  0  0  0  0  0
   -6.4302    7.0125    0.0000 C   0  0  0  0  0  0  0  0  0  0  0  0
   -8.5737    4.9500    0.0000 C   0  0  0  0  0  0  0  0  0  0  0  0
   -7.8592    2.0625    0.0000 C   0  0  0  0  0  0  0  0  0  0  0  0
   -2.8579   -0.0000    0.0000 C   0  0  0  0  0  0  0  0  0  0  0  0
   -4.2868    0.0000    0.0000 C   0  0  0  0  0  0  0  0  0  0  0  0
   -2.8579    7.4250    0.0000 C   0  0  0  0  0  0  0  0  0  0  0  0
   -2.1434    6.1875    0.0000 C   0  0  0  0  0  0  0  0  0  0  0  0
   -7.1447    8.2500    0.0000 C   0  0  0  0  0  0  0  0  0  0  0  0
   -5.7158    8.2500    0.0000 C   0  0  0  0  0  0  0  0  0  0  0  0
  -10.0026    4.9500    0.0000 C   0  0  0  0  0  0  0  0  0  0  0  0
   -9.2881    6.1875    0.0000 C   0  0  0  0  0  0  0  0  0  0  0  0
   -8.5737    0.8250    0.0000 C   0  0  0  0  0  0  0  0  0  0  0  0
   -9.2881    2.0625    0.0000 C   0  0  0  0  0  0  0  0  0  0  0  0
   -5.0013    3.7125    0.0000 C   0  0  1  0  0  0  0  0  0  0  0  0
   -3.5724   -0.4125    0.0000 C   0  0  0  0  0  0  0  0  0  0  0  0
   -2.1434    7.0125    0.0000 C   0  0  0  0  0  0  0  0  0  0  0  0
   -6.4302    8.6625    0.0000 C   0  0  0  0  0  0  0  0  0  0  0  0
  -10.0026    5.7750    0.0000 C   0  0  0  0  0  0  0  0  0  0  0  0
   -9.2881    1.2375    0.0000 C   0  0  0  0  0  0  0  0  0  0  0  0
   -5.0013    4.5375    0.0000 C   0  0  2  0  0  0  0  0  0  0  0  0
   -5.7158    4.9500    0.0000 C   0  0  1  0  0  0  0  0  0  0  0  0
   -6.4302    4.5375    0.0000 C   0  0  1  0  0  0  0  0  0  0  0  0
   -3.5724    2.0625    0.0000 C   0  0  0  0  0  0  0  0  0  0  0  0
   -4.2868    5.7750    0.0000 C   0  0  0  0  0  0  0  0  0  0  0  0
   -6.4302    6.1875    0.0000 C   0  0  0  0  0  0  0  0  0  0  0  0
   -7.8592    4.5375    0.0000 C   0  0  0  0  0  0  0  0  0  0  0  0
   -7.1447    2.4750    0.0000 C   0  0  0  0  0  0  0  0  0  0  0  0
   -6.4302    3.7125    0.0000 C   0  0  1  0  0  0  0  0  0  0  0  0
   -2.1434   -0.4125    0.0000 O   0  0  0  0  0  0  0  0  0  0  0  0
   -5.0013   -0.4125    0.0000 O   0  0  0  0  0  0  0  0  0  0  0  0
   -2.8579    8.2500    0.0000 O   0  0  0  0  0  0  0  0  0  0  0  0
   -1.4289    5.7750    0.0000 O   0  0  0  0  0  0  0  0  0  0  0  0
   -7.8592    8.6625    0.0000 O   0  0  0  0  0  0  0  0  0  0  0  0
   -5.0013    8.6625    0.0000 O   0  0  0  0  0  0  0  0  0  0  0  0
  -10.7171    4.5375    0.0000 O   0  0  0  0  0  0  0  0  0  0  0  0
   -9.2881    7.0125    0.0000 O   0  0  0  0  0  0  0  0  0  0  0  0
   -8.5737    0.0000    0.0000 O   0  0  0  0  0  0  0  0  0  0  0  0
  -10.0026    2.4750    0.0000 O   0  0  0  0  0  0  0  0  0  0  0  0
   -3.5724   -1.2375    0.0000 O   0  0  0  0  0  0  0  0  0  0  0  0
   -1.4289    7.4250    0.0000 O   0  0  0  0  0  0  0  0  0  0  0  0
   -6.4302    9.4875    0.0000 O   0  0  0  0  0  0  0  0  0  0  0  0
  -10.7171    6.1875    0.0000 O   0  0  0  0  0  0  0  0  0  0  0  0
  -10.0026    0.8250    0.0000 O   0  0  0  0  0  0  0  0  0  0  0  0
   -2.8579    2.4750    0.0000 O   0  0  0  0  0  0  0  0  0  0  0  0
   -5.0013    6.1875    0.0000 O   0  0  0  0  0  0  0  0  0  0  0  0
   -7.1447    5.7750    0.0000 O   0  0  0  0  0  0  0  0  0  0  0  0
   -7.8592    3.7125    0.0000 O   0  0  0  0  0  0  0  0  0  0  0  0
   -6.4302    2.0625    0.0000 O   0  0  0  0  0  0  0  0  0  0  0  0
   -4.2868    2.4750    0.0000 O   0  0  0  0  0  0  0  0  0  0  0  0
   -5.7158    3.3000    0.0000 O   0  0  0  0  0  0  0  0  0  0  0  0
   -4.2868    4.9500    0.0000 O   0  0  0  0  0  0  0  0  0  0  0  0
   -5.7158    5.7750    0.0000 O   0  0  0  0  0  0  0  0  0  0  0  0
   -7.1447    4.9500    0.0000 O   0  0  0  0  0  0  0  0  0  0  0  0
   -7.1447    3.3000    0.0000 O   0  0  0  0  0  0  0  0  0  0  0  0
   -4.4710    4.3445    0.0000 H   0  0  0  0  0  0  0  0  0  0  0  0
   -4.1888    4.3942    0.0000 H   0  0  0  0  0  0  0  0  0  0  0  0
   -5.0013    5.3625    0.0000 H   0  0  0  0  0  0  0  0  0  0  0  0
   -6.4302    5.3625    0.0000 H   0  0  0  0  0  0  0  0  0  0  0  0
   -7.1447    4.1250    0.0000 H   0  0  0  0  0  0  0  0  0  0  0  0
   -1.9642    1.3410    0.0000 H   0  0  0  0  0  0  0  0  0  0  0  0
   -5.1805    1.3410    0.0000 H   0  0  0  0  0  0  0  0  0  0  0  0
   -4.4661    7.5285    0.0000 H   0  0  0  0  0  0  0  0  0  0  0  0
   -2.8579    4.7430    0.0000 H   0  0  0  0  0  0  0  0  0  0  0  0
   -8.0384    6.9090    0.0000 H   0  0  0  0  0  0  0  0  0  0  0  0
   -4.8221    6.9090    0.0000 H   0  0  0  0  0  0  0  0  0  0  0  0
   -9.2881    3.5055    0.0000 H   0  0  0  0  0  0  0  0  0  0  0  0
   -7.6800    6.2910    0.0000 H   0  0  0  0  0  0  0  0  0  0  0  0
   -6.9655    0.7215    0.0000 H   0  0  0  0  0  0  0  0  0  0  0  0
   -8.5737    3.5070    0.0000 H   0  0  0  0  0  0  0  0  0  0  0  0
   -3.3602    3.8350    0.0000 H   0  0  0  0  0  0  0  0  0  0  0  0
   -3.3602    2.7650    0.0000 H   0  0  0  0  0  0  0  0  0  0  0  0
   -2.1434   -1.3495    0.0000 H   0  0  0  0  0  0  0  0  0  0  0  0
   -5.8128    0.0560    0.0000 H   0  0  0  0  0  0  0  0  0  0  0  0
   -2.0464    8.7185    0.0000 H   0  0  0  0  0  0  0  0  0  0  0  0
   -1.4289    4.8380    0.0000 H   0  0  0  0  0  0  0  0  0  0  0  0
   -7.8592    9.5995    0.0000 H   0  0  0  0  0  0  0  0  0  0  0  0
   -4.1898    8.1940    0.0000 H   0  0  0  0  0  0  0  0  0  0  0  0
  -11.5286    5.0060    0.0000 H   0  0  0  0  0  0  0  0  0  0  0  0
   -8.4766    7.4810    0.0000 H   0  0  0  0  0  0  0  0  0  0  0  0
   -9.3852   -0.4685    0.0000 H   0  0  0  0  0  0  0  0  0  0  0  0
  -10.0026    3.4120    0.0000 H   0  0  0  0  0  0  0  0  0  0  0  0
   -4.3839   -1.7060    0.0000 H   0  0  0  0  0  0  0  0  0  0  0  0
   -0.6174    6.9565    0.0000 H   0  0  0  0  0  0  0  0  0  0  0  0
   -5.6187    9.9560    0.0000 H   0  0  0  0  0  0  0  0  0  0  0  0
  -10.7171    7.1245    0.0000 H   0  0  0  0  0  0  0  0  0  0  0  0
  -10.8141    1.2935    0.0000 H   0  0  0  0  0  0  0  0  0  0  0  0
  1 73  1  0  0  0  0
  2 74  1  0  0  0  0
  3 75  1  0  0  0  0
  4 76  1  0  0  0  0
  5 77  1  0  0  0  0
  6 78  1  0  0  0  0
  7 79  1  0  0  0  0
  8 80  1  0  0  0  0
  9 81  1  0  0  0  0
 10 82  1  0  0  0  0
 11 83  1  0  0  0  0
 11 84  1  0  0  0  0
 12  1  2  0  0  0  0
 12  2  1  0  0  0  0
 13  3  2  0  0  0  0
 13  4  1  0  0  0  0
 14  5  2  0  0  0  0
 14  6  1  0  0  0  0
 15  7  2  0  0  0  0
 15  8  1  0  0  0  0
 16  9  2  0  0  0  0
 16 10  1  0  0  0  0
 17  1  1  0  0  0  0
 18  2  2  0  0  0  0
 19  3  1  0  0  0  0
 20  4  2  0  0  0  0
 21  5  1  0  0  0  0
 22  6  2  0  0  0  0
 23  7  1  0  0  0  0
 24  8  2  0  0  0  0
 25  9  1  0  0  0  0
 26 10  2  0  0  0  0
 27 11  1  0  0  0  0
 27 68  1  1  0  0  0
 28 17  2  0  0  0  0
 28 18  1  0  0  0  0
 29 19  2  0  0  0  0
 29 20  1  0  0  0  0
 30 21  2  0  0  0  0
 30 22  1  0  0  0  0
 31 23  2  0  0  0  0
 31 24  1  0  0  0  0
 32 25  2  0  0  0  0
 32 26  1  0  0  0  0
 33 27  1  0  0  0  0
 33 64  1  0  0  0  0
 33 69  1  1  0  0  0
 34 33  1  0  0  0  0
 34 65  1  0  0  0  0
 34 70  1  6  0  0  0
 35 34  1  0  0  0  0
 35 66  1  0  0  0  0
 35 71  1  6  0  0  0
 36 12  1  0  0  0  0
 37 13  1  0  0  0  0
 38 14  1  0  0  0  0
 39 15  1  0  0  0  0
 40 16  1  0  0  0  0
 41 35  1  0  0  0  0
 41 67  1  0  0  0  0
 41 72  1  6  0  0  0
 42 17  1  0  0  0  0
 42 85  1  0  0  0  0
 43 18  1  0  0  0  0
 43 86  1  0  0  0  0
 44 19  1  0  0  0  0
 44 87  1  0  0  0  0
 45 20  1  0  0  0  0
 45 88  1  0  0  0  0
 46 21  1  0  0  0  0
 46 89  1  0  0  0  0
 47 22  1  0  0  0  0
 47 90  1  0  0  0  0
 48 23  1  0  0  0  0
 48 91  1  0  0  0  0
 49 24  1  0  0  0  0
 49 92  1  0  0  0  0
 50 25  1  0  0  0  0
 50 93  1  0  0  0  0
 51 26  1  0  0  0  0
 51 94  1  0  0  0  0
 52 28  1  0  0  0  0
 52 95  1  0  0  0  0
 53 29  1  0  0  0  0
 53 96  1  0  0  0  0
 54 30  1  0  0  0  0
 54 97  1  0  0  0  0
 55 31  1  0  0  0  0
 55 98  1  0  0  0  0
 56 32  1  0  0  0  0
 56 99  1  0  0  0  0
 57 36  2  0  0  0  0
 58 37  2  0  0  0  0
 59 38  2  0  0  0  0
 60 39  2  0  0  0  0
 61 40  2  0  0  0  0
 62 11  1  0  0  0  0
 62 36  1  0  0  0  0
 63 27  1  0  0  0  0
 63 41  1  0  0  0  0
 64 37  1  0  0  0  0
 65 38  1  0  0  0  0
 66 39  1  0  0  0  0
 67 40  1  0  0  0  0
M  END
>  <DRUGBANK_ID>
DB03208

>  <SECONDARY_ACCESSION_NUMBERS>
EXPT01589

>  <COMMON_NAME>
Beta-1,2,3,4,6-Penta-O-Galloyl-D-Glucopyranose

$$$$
