CT6
 OpenBabel10282417072D

 39 42  0  0  0  0  0  0  0  0999 V2000
    2.4192    1.5342    0.0000 Br  0  0  0  0  0  0  0  0  0  0  0  0
    1.7047    1.9467    0.0000 C   0  0  0  0  0  0  0  0  0  0  0  0
    0.9903    1.5342    0.0000 C   0  0  0  0  0  0  0  0  0  0  0  0
    0.2758    1.9467    0.0000 C   0  0  0  0  0  0  0  0  0  0  0  0
    0.2758    2.7717    0.0000 C   0  0  0  0  0  0  0  0  0  0  0  0
    0.9903    3.1842    0.0000 C   0  0  0  0  0  0  0  0  0  0  0  0
    1.7047    2.7717    0.0000 C   0  0  0  0  0  0  0  0  0  0  0  0
   -0.4387    1.5342    0.0000 C   0  0  0  0  0  0  0  0  0  0  0  0
   -0.4387    0.7092    0.0000 C   0  0  0  0  0  0  0  0  0  0  0  0
   -1.1532    0.2967    0.0000 C   0  0  0  0  0  0  0  0  0  0  0  0
   -1.8676    0.7092    0.0000 N   0  3  0  0  0  0  0  0  0  0  0  0
   -2.6522    0.4543    0.0000 N   0  0  0  0  0  0  0  0  0  0  0  0
   -3.1372    1.1217    0.0000 C   0  0  0  0  0  0  0  0  0  0  0  0
   -1.8676    1.5342    0.0000 C   0  0  0  0  0  0  0  0  0  0  0  0
   -2.6522    1.7891    0.0000 C   0  0  0  0  0  0  0  0  0  0  0  0
   -1.1532    1.9467    0.0000 N   0  0  0  0  0  0  0  0  0  0  0  0
   -1.1532   -0.5283    0.0000 N   0  0  0  0  0  0  0  0  0  0  0  0
   -0.4387   -0.9408    0.0000 C   0  0  0  0  0  0  0  0  0  0  0  0
   -0.4387   -1.7658    0.0000 C   0  0  0  0  0  0  0  0  0  0  0  0
    0.2758   -2.1783    0.0000 C   0  0  0  0  0  0  0  0  0  0  0  0
    0.2758   -3.0033    0.0000 C   0  0  0  0  0  0  0  0  0  0  0  0
   -0.4387   -3.4158    0.0000 N   0  0  0  0  0  0  0  0  0  0  0  0
   -1.1532   -3.0033    0.0000 C   0  0  0  0  0  0  0  0  0  0  0  0
   -1.1532   -2.1783    0.0000 C   0  0  0  0  0  0  0  0  0  0  0  0
    0.9903    0.5022    0.0000 H   0  0  0  0  0  0  0  0  0  0  0  0
   -0.6179    3.2877    0.0000 H   0  0  0  0  0  0  0  0  0  0  0  0
    0.9903    4.2162    0.0000 H   0  0  0  0  0  0  0  0  0  0  0  0
    2.5984    3.2877    0.0000 H   0  0  0  0  0  0  0  0  0  0  0  0
    0.4550    0.1932    0.0000 H   0  0  0  0  0  0  0  0  0  0  0  0
   -2.9564   -0.4820    0.0000 H   0  0  0  0  0  0  0  0  0  0  0  0
   -4.1692    1.1217    0.0000 H   0  0  0  0  0  0  0  0  0  0  0  0
   -2.9711    2.7706    0.0000 H   0  0  0  0  0  0  0  0  0  0  0  0
   -2.0058   -1.0206    0.0000 H   0  0  0  0  0  0  0  0  0  0  0  0
    0.4879   -0.4058    0.0000 H   0  0  0  0  0  0  0  0  0  0  0  0
    0.4879   -1.4758    0.0000 H   0  0  0  0  0  0  0  0  0  0  0  0
    1.1695   -1.6623    0.0000 H   0  0  0  0  0  0  0  0  0  0  0  0
    1.1695   -3.5193    0.0000 H   0  0  0  0  0  0  0  0  0  0  0  0
   -2.0469   -3.5193    0.0000 H   0  0  0  0  0  0  0  0  0  0  0  0
   -2.0469   -1.6623    0.0000 H   0  0  0  0  0  0  0  0  0  0  0  0
  1  2  1  0  0  0  0
  2  3  1  0  0  0  0
  2  7  2  0  0  0  0
  3  4  2  0  0  0  0
  3 25  1  0  0  0  0
  4  5  1  0  0  0  0
  4  8  1  0  0  0  0
  5  6  2  0  0  0  0
  5 26  1  0  0  0  0
  6  7  1  0  0  0  0
  6 27  1  0  0  0  0
  7 28  1  0  0  0  0
  8  9  1  0  0  0  0
  8 16  2  0  0  0  0
  9 10  2  0  0  0  0
  9 29  1  0  0  0  0
 10 11  1  0  0  0  0
 10 17  1  0  0  0  0
 11 12  1  0  0  0  0
 11 14  2  0  0  0  0
 12 13  1  0  0  0  0
 12 30  1  0  0  0  0
 13 15  2  0  0  0  0
 13 31  1  0  0  0  0
 14 15  1  0  0  0  0
 14 16  1  0  0  0  0
 15 32  1  0  0  0  0
 17 18  1  0  0  0  0
 17 33  1  0  0  0  0
 18 19  1  0  0  0  0
 18 34  1  0  0  0  0
 18 35  1  0  0  0  0
 19 20  2  0  0  0  0
 19 24  1  0  0  0  0
 20 21  1  0  0  0  0
 20 36  1  0  0  0  0
 21 22  2  0  0  0  0
 21 37  1  0  0  0  0
 22 23  1  0  0  0  0
 23 24  2  0  0  0  0
 23 38  1  0  0  0  0
 24 39  1  0  0  0  0
M  CHG  1  11   1
M  END
>  <DRUGBANK_ID>
DB07595

>  <COMMON_NAME>
(5Z)-5-(3-BROMOCYCLOHEXA-2,5-DIEN-1-YLIDENE)-N-(PYRIDIN-4-YLMETHYL)-1,5-DIHYDROPYRAZOLO[1,5-A]PYRIMIDIN-7-AMINE

$$$$
