
 OpenBabel10282417072D

 27 28  0  0  0  0  0  0  0  0999 V2000
   -0.7029   -1.4597    0.0000 Cl  0  0  0  0  0  0  0  0  0  0  0  0
    0.0115   -1.0472    0.0000 C   0  0  0  0  0  0  0  0  0  0  0  0
    0.0115   -0.2222    0.0000 C   0  0  0  0  0  0  0  0  0  0  0  0
    0.7260    0.1902    0.0000 N   0  0  0  0  0  0  0  0  0  0  0  0
    1.4405   -0.2222    0.0000 C   0  0  0  0  0  0  0  0  0  0  0  0
    2.1549    0.1902    0.0000 O   0  0  0  0  0  0  0  0  0  0  0  0
    1.4405   -1.0472    0.0000 N   0  0  0  0  0  0  0  0  0  0  0  0
    0.7260   -1.4597    0.0000 C   0  0  0  0  0  0  0  0  0  0  0  0
    0.7260   -2.2847    0.0000 O   0  0  0  0  0  0  0  0  0  0  0  0
   -0.7029    0.1902    0.0000 C   0  0  0  0  0  0  0  0  0  0  0  0
   -0.7029    1.0152    0.0000 N   0  0  0  0  0  0  0  0  0  0  0  0
   -1.3703    1.5001    0.0000 C   0  0  0  0  0  0  0  0  0  0  0  0
   -2.1549    1.2452    0.0000 N   0  0  0  0  0  0  0  0  0  0  0  0
   -1.1154    2.2847    0.0000 C   0  0  0  0  0  0  0  0  0  0  0  0
   -0.2904    2.2847    0.0000 C   0  0  0  0  0  0  0  0  0  0  0  0
   -0.0354    1.5001    0.0000 C   0  0  0  0  0  0  0  0  0  0  0  0
    0.7260    1.1747    0.0000 H   0  0  0  0  0  0  0  0  0  0  0  0
    2.2931   -1.5395    0.0000 H   0  0  0  0  0  0  0  0  0  0  0  0
   -1.6295   -0.3448    0.0000 H   0  0  0  0  0  0  0  0  0  0  0  0
   -1.6296    0.7252    0.0000 H   0  0  0  0  0  0  0  0  0  0  0  0
   -2.8865    1.9040    0.0000 H   0  0  0  0  0  0  0  0  0  0  0  0
   -1.7443    3.1503    0.0000 H   0  0  0  0  0  0  0  0  0  0  0  0
   -0.6296    3.2381    0.0000 H   0  0  0  0  0  0  0  0  0  0  0  0
    0.3385    3.1504    0.0000 H   0  0  0  0  0  0  0  0  0  0  0  0
    0.7664    2.1174    0.0000 H   0  0  0  0  0  0  0  0  0  0  0  0
    0.9822    1.1695    0.0000 H   0  0  0  0  0  0  0  0  0  0  0  0
    0.1320    0.4433    0.0000 H   0  0  0  0  0  0  0  0  0  0  0  0
  1  2  1  0  0  0  0
  2  3  2  0  0  0  0
  2  8  1  0  0  0  0
  3  4  1  0  0  0  0
  3 10  1  0  0  0  0
  4  5  1  0  0  0  0
  4 17  1  0  0  0  0
  5  6  2  0  0  0  0
  5  7  1  0  0  0  0
  7  8  1  0  0  0  0
  7 18  1  0  0  0  0
  8  9  2  0  0  0  0
 10 11  1  0  0  0  0
 10 19  1  0  0  0  0
 10 20  1  0  0  0  0
 11 12  1  0  0  0  0
 11 16  1  0  0  0  0
 12 13  2  0  0  0  0
 12 14  1  0  0  0  0
 13 21  1  0  0  0  0
 14 15  1  0  0  0  0
 14 22  1  0  0  0  0
 14 23  1  0  0  0  0
 15 16  1  0  0  0  0
 15 24  1  0  0  0  0
 15 25  1  0  0  0  0
 16 26  1  0  0  0  0
 16 27  1  0  0  0  0
M  END
>  <DRUGBANK_ID>
DB09343

>  <COMMON_NAME>
Tipiracil

>  <CAS_NUMBER>
183204-74-2

>  <UNII>
NGO10K751P

>  <SYNONYMS>
5-chloro-6-(2-iminopyrrolidin-1-yl)methyl-2,4(1H,3H)-pyrimidinedione; 5-chloro-6-[(2-iminopyrrolidin-1-yl)methyl]-1H-pyrimidine-2,4-dione; Tipiracil; Tipiracilo

$$$$
