2DD
 OpenBabel10282417072D

 43 45  0  0  0  0  0  0  0  0999 V2000
   -0.1734    0.9084    0.0000 Cl  0  0  0  0  0  0  0  0  0  0  0  0
    0.5411    0.4959    0.0000 C   0  0  0  0  0  0  0  0  0  0  0  0
    1.2556    0.9084    0.0000 C   0  0  0  0  0  0  0  0  0  0  0  0
    1.9701    0.4959    0.0000 C   0  0  0  0  0  0  0  0  0  0  0  0
    1.9701   -0.3291    0.0000 C   0  0  0  0  0  0  0  0  0  0  0  0
    2.6845   -0.7416    0.0000 O   0  0  0  0  0  0  0  0  0  0  0  0
    1.2556    1.7334    0.0000 O   0  0  0  0  0  0  0  0  0  0  0  0
    0.5411   -0.3291    0.0000 C   0  0  0  0  0  0  0  0  0  0  0  0
    1.2556   -0.7416    0.0000 C   0  0  0  0  0  0  0  0  0  0  0  0
    1.2556   -1.5666    0.0000 C   0  0  0  0  0  0  0  0  0  0  0  0
    1.9230   -2.0515    0.0000 N   0  0  0  0  0  0  0  0  0  0  0  0
    1.6681   -2.8361    0.0000 N   0  0  0  0  0  0  0  0  0  0  0  0
    0.8431   -2.8361    0.0000 C   0  0  0  0  0  0  0  0  0  0  0  0
    0.5881   -2.0515    0.0000 C   0  0  0  0  0  0  0  0  0  0  0  0
   -0.1965   -1.7965    0.0000 C   0  0  0  0  0  0  0  0  0  0  0  0
   -0.8096   -2.3486    0.0000 O   0  0  0  0  0  0  0  0  0  0  0  0
   -0.3680   -0.9896    0.0000 N   0  0  0  0  0  0  0  0  0  0  0  0
   -1.1526   -0.7346    0.0000 C   0  0  0  0  0  0  0  0  0  0  0  0
   -1.3242    0.0723    0.0000 C   0  0  0  0  0  0  0  0  0  0  0  0
   -2.1088    0.3273    0.0000 C   0  0  0  0  0  0  0  0  0  0  0  0
   -2.2803    1.1343    0.0000 C   0  0  0  0  0  0  0  0  0  0  0  0
   -0.7111    0.6244    0.0000 C   0  0  0  0  0  0  0  0  0  0  0  0
   -0.8826    1.4313    0.0000 C   0  0  0  0  0  0  0  0  0  0  0  0
   -1.6672    1.6863    0.0000 C   0  0  0  0  0  0  0  0  0  0  0  0
   -1.8387    2.4933    0.0000 S   0  0  0  0  0  0  0  0  0  0  0  0
   -2.0103    3.3002    0.0000 O   0  0  0  0  0  0  0  0  0  0  0  0
   -1.0318    2.6648    0.0000 O   0  0  0  0  0  0  0  0  0  0  0  0
   -2.6457    2.3217    0.0000 N   0  0  0  0  0  0  0  0  0  0  0  0
    2.8638    1.0119    0.0000 H   0  0  0  0  0  0  0  0  0  0  0  0
    2.6845   -1.6786    0.0000 H   0  0  0  0  0  0  0  0  0  0  0  0
    2.0671    2.2019    0.0000 H   0  0  0  0  0  0  0  0  0  0  0  0
   -0.3526   -0.8451    0.0000 H   0  0  0  0  0  0  0  0  0  0  0  0
    2.8593   -1.7473    0.0000 H   0  0  0  0  0  0  0  0  0  0  0  0
    0.2365   -3.6710    0.0000 H   0  0  0  0  0  0  0  0  0  0  0  0
    0.3637   -0.3309    0.0000 H   0  0  0  0  0  0  0  0  0  0  0  0
   -1.9478   -1.4506    0.0000 H   0  0  0  0  0  0  0  0  0  0  0  0
   -2.1702   -0.4040    0.0000 H   0  0  0  0  0  0  0  0  0  0  0  0
   -2.8758   -0.3632    0.0000 H   0  0  0  0  0  0  0  0  0  0  0  0
   -3.2618    1.4532    0.0000 H   0  0  0  0  0  0  0  0  0  0  0  0
    0.2704    0.3055    0.0000 H   0  0  0  0  0  0  0  0  0  0  0  0
   -0.1156    2.1218    0.0000 H   0  0  0  0  0  0  0  0  0  0  0  0
   -3.3283    3.0797    0.0000 H   0  0  0  0  0  0  0  0  0  0  0  0
   -2.9608    1.3516    0.0000 H   0  0  0  0  0  0  0  0  0  0  0  0
  1  2  1  0  0  0  0
  2  3  2  0  0  0  0
  2  8  1  0  0  0  0
  3  4  1  0  0  0  0
  3  7  1  0  0  0  0
  4  5  2  0  0  0  0
  4 29  1  0  0  0  0
  5  6  1  0  0  0  0
  5  9  1  0  0  0  0
  6 30  1  0  0  0  0
  7 31  1  0  0  0  0
  8  9  2  0  0  0  0
  8 32  1  0  0  0  0
  9 10  1  0  0  0  0
 10 11  1  0  0  0  0
 10 14  2  0  0  0  0
 11 12  1  0  0  0  0
 11 33  1  0  0  0  0
 12 13  2  0  0  0  0
 13 14  1  0  0  0  0
 13 34  1  0  0  0  0
 14 15  1  0  0  0  0
 15 16  2  0  0  0  0
 15 17  1  0  0  0  0
 17 18  1  0  0  0  0
 17 35  1  0  0  0  0
 18 19  1  0  0  0  0
 18 36  1  0  0  0  0
 18 37  1  0  0  0  0
 19 20  2  0  0  0  0
 19 22  1  0  0  0  0
 20 21  1  0  0  0  0
 20 38  1  0  0  0  0
 21 24  2  0  0  0  0
 21 39  1  0  0  0  0
 22 23  2  0  0  0  0
 22 40  1  0  0  0  0
 23 24  1  0  0  0  0
 23 41  1  0  0  0  0
 24 25  1  0  0  0  0
 25 26  2  0  0  0  0
 25 27  2  0  0  0  0
 25 28  1  0  0  0  0
 28 42  1  0  0  0  0
 28 43  1  0  0  0  0
M  END
>  <DRUGBANK_ID>
DB04588

>  <COMMON_NAME>
N-[4-(AMINOSULFONYL)BENZYL]-5-(5-CHLORO-2,4-DIHYDROXYPHENYL)-1H-PYRAZOLE-4-CARBOXAMIDE

$$$$
