
 OpenBabel10282417072D

 52 55  0  0  0  0  0  0  0  0999 V2000
    1.5087    0.0989    0.0000 C   0  0  1  0  0  0  0  0  0  0  0  0
    0.7942   -0.3135    0.0000 C   0  0  1  0  0  0  0  0  0  0  0  0
    0.0797    0.0989    0.0000 C   0  0  1  0  0  0  0  0  0  0  0  0
   -0.6348   -0.3135    0.0000 C   0  0  1  0  0  0  0  0  0  0  0  0
   -2.0638   -1.1385    0.0000 C   0  0  2  0  0  0  0  0  0  0  0  0
   -0.6348   -1.1385    0.0000 C   0  0  2  0  0  0  0  0  0  0  0  0
    0.7942   -1.1385    0.0000 C   0  0  2  0  0  0  0  0  0  0  0  0
    1.5087    0.9240    0.0000 C   0  0  1  0  0  0  0  0  0  0  0  0
    1.5949   -0.7215    0.0000 H   0  0  0  0  0  0  0  0  0  0  0  0
    0.7942    0.5115    0.0000 H   0  0  0  0  0  0  0  0  0  0  0  0
    0.0797   -0.7261    0.0000 H   0  0  0  0  0  0  0  0  0  0  0  0
   -0.6348    0.5115    0.0000 C   0  0  0  0  0  0  0  0  0  0  0  0
   -1.3493    0.0989    0.0000 C   0  0  0  0  0  0  0  0  0  0  0  0
   -2.0638   -0.3135    0.0000 C   0  0  0  0  0  0  0  0  0  0  0  0
   -2.7784   -1.5511    0.0000 O   0  0  0  0  0  0  0  0  0  0  0  0
   -1.3493   -1.5511    0.0000 C   0  0  0  0  0  0  0  0  0  0  0  0
   -0.6348   -1.9636    0.0000 H   0  0  0  0  0  0  0  0  0  0  0  0
    0.0797   -1.5511    0.0000 C   0  0  0  0  0  0  0  0  0  0  0  0
    1.5087   -1.5511    0.0000 O   0  0  0  0  0  0  0  0  0  0  0  0
    0.0797    0.9240    0.0000 C   0  0  0  0  0  0  0  0  0  0  0  0
    0.7942    1.3365    0.0000 C   0  0  0  0  0  0  0  0  0  0  0  0
    1.5949    1.7445    0.0000 C   0  0  0  0  0  0  0  0  0  0  0  0
    2.2934    1.1789    0.0000 C   0  0  0  0  0  0  0  0  0  0  0  0
    2.5483    1.9636    0.0000 O   0  0  0  0  0  0  0  0  0  0  0  0
    2.7784    0.5115    0.0000 C   0  0  0  0  0  0  0  0  0  0  0  0
    2.2934   -0.1559    0.0000 C   0  0  0  0  0  0  0  0  0  0  0  0
   -2.9905   -0.6035    0.0000 H   0  0  0  0  0  0  0  0  0  0  0  0
    1.7209   -0.6035    0.0000 H   0  0  0  0  0  0  0  0  0  0  0  0
    0.2918    1.0465    0.0000 H   0  0  0  0  0  0  0  0  0  0  0  0
   -1.5614    1.0465    0.0000 H   0  0  0  0  0  0  0  0  0  0  0  0
   -0.6348    1.5815    0.0000 H   0  0  0  0  0  0  0  0  0  0  0  0
   -1.3493    1.1689    0.0000 H   0  0  0  0  0  0  0  0  0  0  0  0
   -2.2759    0.6340    0.0000 H   0  0  0  0  0  0  0  0  0  0  0  0
   -2.9904    0.2216    0.0000 H   0  0  0  0  0  0  0  0  0  0  0  0
   -2.9905   -0.8485    0.0000 H   0  0  0  0  0  0  0  0  0  0  0  0
   -3.6185   -1.0661    0.0000 H   0  0  0  0  0  0  0  0  0  0  0  0
   -1.3493   -2.6211    0.0000 H   0  0  0  0  0  0  0  0  0  0  0  0
   -0.4226   -2.0861    0.0000 H   0  0  0  0  0  0  0  0  0  0  0  0
    0.0797   -2.6211    0.0000 H   0  0  0  0  0  0  0  0  0  0  0  0
   -0.8470   -2.0861    0.0000 H   0  0  0  0  0  0  0  0  0  0  0  0
    1.5086   -2.5211    0.0000 H   0  0  0  0  0  0  0  0  0  0  0  0
   -0.8469    1.4590    0.0000 H   0  0  0  0  0  0  0  0  0  0  0  0
    0.0797    1.9940    0.0000 H   0  0  0  0  0  0  0  0  0  0  0  0
    0.7942    2.4065    0.0000 H   0  0  0  0  0  0  0  0  0  0  0  0
    1.7208    1.8715    0.0000 H   0  0  0  0  0  0  0  0  0  0  0  0
    2.5724    2.1798    0.0000 H   0  0  0  0  0  0  0  0  0  0  0  0
    0.7292    2.3734    0.0000 H   0  0  0  0  0  0  0  0  0  0  0  0
    1.7067    2.8086    0.0000 H   0  0  0  0  0  0  0  0  0  0  0  0
    3.8484    0.5115    0.0000 H   0  0  0  0  0  0  0  0  0  0  0  0
    3.2641   -0.4419    0.0000 H   0  0  0  0  0  0  0  0  0  0  0  0
    2.6241   -1.1735    0.0000 H   0  0  0  0  0  0  0  0  0  0  0  0
    3.3502   -0.3233    0.0000 H   0  0  0  0  0  0  0  0  0  0  0  0
  1  2  1  0  0  0  0
  1  8  1  0  0  0  0
  1  9  1  6  0  0  0
  1 26  1  0  0  0  0
  2  7  1  0  0  0  0
  2 10  1  1  0  0  0
  3  2  1  0  0  0  0
  3  4  1  0  0  0  0
  3 11  1  6  0  0  0
  4 12  1  1  0  0  0
  5 14  1  0  0  0  0
  5 15  1  0  0  0  0
  5 27  1  6  0  0  0
  6  4  1  0  0  0  0
  6 16  1  0  0  0  0
  6 17  1  6  0  0  0
  7 18  1  0  0  0  0
  7 19  1  0  0  0  0
  7 28  1  6  0  0  0
  8 21  1  0  0  0  0
  8 22  1  1  0  0  0
 12 29  1  0  0  0  0
 12 30  1  0  0  0  0
 12 31  1  0  0  0  0
 13  4  1  0  0  0  0
 13 32  1  0  0  0  0
 13 33  1  0  0  0  0
 14 13  1  0  0  0  0
 14 34  1  0  0  0  0
 14 35  1  0  0  0  0
 15 36  1  0  0  0  0
 16  5  1  0  0  0  0
 16 37  1  0  0  0  0
 16 38  1  0  0  0  0
 18  6  1  0  0  0  0
 18 39  1  0  0  0  0
 18 40  1  0  0  0  0
 19 41  1  0  0  0  0
 20  3  1  0  0  0  0
 20 42  1  0  0  0  0
 20 43  1  0  0  0  0
 21 20  1  0  0  0  0
 21 44  1  0  0  0  0
 21 45  1  0  0  0  0
 22 46  1  0  0  0  0
 22 47  1  0  0  0  0
 22 48  1  0  0  0  0
 23  8  1  0  0  0  0
 23 24  2  0  0  0  0
 25 23  1  0  0  0  0
 25 49  1  0  0  0  0
 25 50  1  0  0  0  0
 26 25  1  0  0  0  0
 26 51  1  0  0  0  0
 26 52  1  0  0  0  0
M  END
>  <DRUGBANK_ID>
DB06622

>  <COMMON_NAME>
7-beta-Hydroxyepiandrosterone

>  <CAS_NUMBER>
25848-69-5

>  <UNII>
OCP3E5KD08

>  <SYNONYMS>
(3beta,5alpha,7beta)-3,7-Dihydroxyandrostan-17-one; 7beta-OH-Epia; 7β-Hydroxyepiandrosterone; 7β-OH-EPIA

$$$$
