
 OpenBabel10282417072D

 37 40  0  0  0  0  0  0  0  0999 V2000
   -0.4142   -2.0445    0.0000 S   0  0  0  0  0  0  0  0  0  0  0  0
    2.4246   -1.9292    0.0000 O   0  0  0  0  0  0  0  0  0  0  0  0
    1.0286   -1.8740    0.0000 N   0  0  0  0  0  0  0  0  0  0  0  0
    1.3088   -0.0416    0.0000 N   0  0  0  0  0  0  0  0  0  0  0  0
    0.0198   -0.7822    0.0000 C   0  0  0  0  0  0  0  0  0  0  0  0
   -0.8050   -0.7681    0.0000 C   0  0  0  0  0  0  0  0  0  0  0  0
    0.2613   -1.5710    0.0000 C   0  0  0  0  0  0  0  0  0  0  0  0
    0.4859   -0.1015    0.0000 C   0  0  0  0  0  0  0  0  0  0  0  0
   -1.0733   -1.5482    0.0000 C   0  0  0  0  0  0  0  0  0  0  0  0
    0.0749    0.6137    0.0000 C   0  0  0  0  0  0  0  0  0  0  0  0
   -1.3465   -0.1457    0.0000 C   0  0  0  0  0  0  0  0  0  0  0  0
   -1.8831   -1.7060    0.0000 C   0  0  0  0  0  0  0  0  0  0  0  0
    1.7440   -1.4630    0.0000 C   0  0  0  0  0  0  0  0  0  0  0  0
    1.8686   -0.6475    0.0000 C   0  0  0  0  0  0  0  0  0  0  0  0
   -2.1563   -0.3034    0.0000 C   0  0  0  0  0  0  0  0  0  0  0  0
   -0.7500    0.6155    0.0000 C   0  0  0  0  0  0  0  0  0  0  0  0
    0.4889    1.3274    0.0000 C   0  0  0  0  0  0  0  0  0  0  0  0
   -2.4246   -1.0836    0.0000 C   0  0  0  0  0  0  0  0  0  0  0  0
   -1.1610    1.3309    0.0000 C   0  0  0  0  0  0  0  0  0  0  0  0
    0.0779    2.0427    0.0000 C   0  0  0  0  0  0  0  0  0  0  0  0
   -0.7470    2.0445    0.0000 C   0  0  0  0  0  0  0  0  0  0  0  0
    1.1001   -2.8559    0.0000 H   0  0  0  0  0  0  0  0  0  0  0  0
   -0.9985    0.8661    0.0000 H   0  0  0  0  0  0  0  0  0  0  0  0
   -2.0488    0.6616    0.0000 H   0  0  0  0  0  0  0  0  0  0  0  0
   -2.2310   -2.7179    0.0000 H   0  0  0  0  0  0  0  0  0  0  0  0
   -2.9334   -1.9106    0.0000 H   0  0  0  0  0  0  0  0  0  0  0  0
    2.8917   -0.3342    0.0000 H   0  0  0  0  0  0  0  0  0  0  0  0
    2.6782   -1.3471    0.0000 H   0  0  0  0  0  0  0  0  0  0  0  0
   -2.8586    0.5039    0.0000 H   0  0  0  0  0  0  0  0  0  0  0  0
   -3.2066   -0.5080    0.0000 H   0  0  0  0  0  0  0  0  0  0  0  0
   -1.2679   -0.2771    0.0000 H   0  0  0  0  0  0  0  0  0  0  0  0
    1.5209    1.3253    0.0000 H   0  0  0  0  0  0  0  0  0  0  0  0
   -3.4749   -1.2882    0.0000 H   0  0  0  0  0  0  0  0  0  0  0  0
   -3.1269   -0.2763    0.0000 H   0  0  0  0  0  0  0  0  0  0  0  0
   -2.1930    1.3331    0.0000 H   0  0  0  0  0  0  0  0  0  0  0  0
    0.5958    2.9353    0.0000 H   0  0  0  0  0  0  0  0  0  0  0  0
   -1.2611    2.9393    0.0000 H   0  0  0  0  0  0  0  0  0  0  0  0
  1  7  1  0  0  0  0
  1  9  1  0  0  0  0
  2 13  2  0  0  0  0
  3  7  1  0  0  0  0
  3 13  1  0  0  0  0
  3 22  1  0  0  0  0
  4  8  2  0  0  0  0
  4 14  1  0  0  0  0
  5  6  1  0  0  0  0
  5  7  2  0  0  0  0
  5  8  1  0  0  0  0
  6  9  2  0  0  0  0
  6 11  1  0  0  0  0
  8 10  1  0  0  0  0
  9 12  1  0  0  0  0
 10 16  2  0  0  0  0
 10 17  1  0  0  0  0
 11 15  1  0  0  0  0
 11 23  1  0  0  0  0
 11 24  1  0  0  0  0
 12 18  1  0  0  0  0
 12 25  1  0  0  0  0
 12 26  1  0  0  0  0
 13 14  1  0  0  0  0
 14 27  1  0  0  0  0
 14 28  1  0  0  0  0
 15 18  1  0  0  0  0
 15 29  1  0  0  0  0
 15 30  1  0  0  0  0
 16 19  1  0  0  0  0
 16 31  1  0  0  0  0
 17 20  2  0  0  0  0
 17 32  1  0  0  0  0
 18 33  1  0  0  0  0
 18 34  1  0  0  0  0
 19 21  2  0  0  0  0
 19 35  1  0  0  0  0
 20 21  1  0  0  0  0
 20 36  1  0  0  0  0
 21 37  1  0  0  0  0
M  END
>  <DRUGBANK_ID>
DB14719

>  <COMMON_NAME>
Bentazepam

>  <CAS_NUMBER>
29462-18-8

>  <UNII>
66JKK43S1Z

>  <SYNONYMS>
Bentazepam; Bentazepamum; Thiadipone; Tiadipone

$$$$
