
 OpenBabel10282417072D

 77 81  0  0  1  0  0  0  0  0999 V2000
    3.1895    1.8414    0.0000 C   0  0  0  0  0  0  0  0  0  0  0  0
    3.6020    1.1270    0.0000 C   0  0  1  0  0  0  0  0  0  0  0  0
    4.0145    1.8414    0.0000 C   0  0  0  0  0  0  0  0  0  0  0  0
    4.8395    1.8414    0.0000 C   0  0  0  0  0  0  0  0  0  0  0  0
    5.2520    1.1270    0.0000 C   0  0  1  0  0  0  0  0  0  0  0  0
    6.0770    1.1270    0.0000 C   0  0  0  0  0  0  0  0  0  0  0  0
    6.4895    0.4125    0.0000 C   0  0  0  0  0  0  0  0  0  0  0  0
    6.0770   -0.3020    0.0000 C   0  0  0  0  0  0  0  0  0  0  0  0
    5.2520   -0.3020    0.0000 C   0  0  0  0  0  0  0  0  0  0  0  0
    4.8395    0.4125    0.0000 C   0  0  1  0  0  0  0  0  0  0  0  0
    4.0145    0.4125    0.0000 C   0  0  1  0  0  0  0  0  0  0  0  0
    3.6020   -0.3020    0.0000 C   0  0  0  0  0  0  0  0  0  0  0  0
    4.0145   -1.0164    0.0000 O   0  0  0  0  0  0  0  0  0  0  0  0
    2.7770   -0.3020    0.0000 C   0  0  0  0  0  0  0  0  0  0  0  0
    2.3645    0.4125    0.0000 C   0  0  0  0  0  0  0  0  0  0  0  0
    2.7770    1.1270    0.0000 C   0  0  1  0  0  0  0  0  0  0  0  0
    2.3645    1.8414    0.0000 C   0  0  0  0  0  0  0  0  0  0  0  0
    1.5395    1.8414    0.0000 C   0  0  0  0  0  0  0  0  0  0  0  0
    1.1270    1.1270    0.0000 C   0  0  2  0  0  0  0  0  0  0  0  0
    1.5395    0.4125    0.0000 C   0  0  2  0  0  0  0  0  0  0  0  0
    1.1270   -0.3020    0.0000 C   0  0  0  0  0  0  0  0  0  0  0  0
    0.3020   -0.3020    0.0000 C   0  0  0  0  0  0  0  0  0  0  0  0
   -0.1105    0.4125    0.0000 C   0  0  0  0  0  0  0  0  0  0  0  0
   -0.9355    0.4125    0.0000 O   0  0  0  0  0  0  0  0  0  0  0  0
    0.3020    1.1270    0.0000 C   0  0  0  0  0  0  0  0  0  0  0  0
   -0.3977    1.5642    0.0000 C   0  0  0  0  0  0  0  0  0  0  0  0
    0.2732    1.9515    0.0000 C   0  0  0  0  0  0  0  0  0  0  0  0
   -0.1105   -1.0164    0.0000 C   0  0  0  0  0  0  0  0  0  0  0  0
   -0.5230   -1.7309    0.0000 N   0  0  0  0  0  0  0  0  0  0  0  0
    1.9520   -0.3020    0.0000 C   0  0  0  0  0  0  0  0  0  0  0  0
    2.6907    1.9475    0.0000 C   0  0  0  0  0  0  0  0  0  0  0  0
    6.1058   -1.1265    0.0000 C   0  0  0  0  0  0  0  0  0  0  0  0
    6.7766   -0.7392    0.0000 C   0  0  0  0  0  0  0  0  0  0  0  0
    5.6645    1.8414    0.0000 C   0  0  0  0  0  0  0  0  0  0  0  0
    5.2520    2.5559    0.0000 O   0  0  0  0  0  0  0  0  0  0  0  0
    6.4895    1.8414    0.0000 O   0  0  0  0  0  0  0  0  0  0  0  0
    3.7245    2.7681    0.0000 H   0  0  0  0  0  0  0  0  0  0  0  0
    2.1195    1.8414    0.0000 H   0  0  0  0  0  0  0  0  0  0  0  0
    2.6545    2.7680    0.0000 H   0  0  0  0  0  0  0  0  0  0  0  0
    3.4795    2.7681    0.0000 H   0  0  0  0  0  0  0  0  0  0  0  0
    4.5495    2.7680    0.0000 H   0  0  0  0  0  0  0  0  0  0  0  0
    5.3745    2.7681    0.0000 H   0  0  0  0  0  0  0  0  0  0  0  0
    5.9095    1.8414    0.0000 H   0  0  0  0  0  0  0  0  0  0  0  0
    6.6120    2.0536    0.0000 H   0  0  0  0  0  0  0  0  0  0  0  0
    7.1470    1.1270    0.0000 H   0  0  0  0  0  0  0  0  0  0  0  0
    7.5595    0.4125    0.0000 H   0  0  0  0  0  0  0  0  0  0  0  0
    7.0245   -0.5141    0.0000 H   0  0  0  0  0  0  0  0  0  0  0  0
    4.7170   -1.2286    0.0000 H   0  0  0  0  0  0  0  0  0  0  0  0
    4.1820   -0.3020    0.0000 H   0  0  0  0  0  0  0  0  0  0  0  0
    5.9095    0.4125    0.0000 H   0  0  0  0  0  0  0  0  0  0  0  0
    4.5495   -0.5141    0.0000 H   0  0  0  0  0  0  0  0  0  0  0  0
    2.2610   -1.1957    0.0000 H   0  0  0  0  0  0  0  0  0  0  0  0
    2.8995    2.7681    0.0000 H   0  0  0  0  0  0  0  0  0  0  0  0
    1.8295    2.7680    0.0000 H   0  0  0  0  0  0  0  0  0  0  0  0
    1.0045    2.7681    0.0000 H   0  0  0  0  0  0  0  0  0  0  0  0
    0.4695    1.8414    0.0000 H   0  0  0  0  0  0  0  0  0  0  0  0
    2.1970    1.1270    0.0000 H   0  0  0  0  0  0  0  0  0  0  0  0
    1.6430   -1.1957    0.0000 H   0  0  0  0  0  0  0  0  0  0  0  0
   -0.3604    2.6335    0.0000 H   0  0  0  0  0  0  0  0  0  0  0  0
   -1.3424    1.0618    0.0000 H   0  0  0  0  0  0  0  0  0  0  0  0
   -1.3051    2.1312    0.0000 H   0  0  0  0  0  0  0  0  0  0  0  0
    1.1806    2.5185    0.0000 H   0  0  0  0  0  0  0  0  0  0  0  0
   -0.6716    2.4538    0.0000 H   0  0  0  0  0  0  0  0  0  0  0  0
    0.2358    3.0208    0.0000 H   0  0  0  0  0  0  0  0  0  0  0  0
    1.4170   -1.2286    0.0000 H   0  0  0  0  0  0  0  0  0  0  0  0
    3.0220   -0.3020    0.0000 H   0  0  0  0  0  0  0  0  0  0  0  0
    2.4870   -1.2287    0.0000 H   0  0  0  0  0  0  0  0  0  0  0  0
    3.5563    2.5765    0.0000 H   0  0  0  0  0  0  0  0  0  0  0  0
    1.7132    2.3826    0.0000 H   0  0  0  0  0  0  0  0  0  0  0  0
    2.5788    3.0116    0.0000 H   0  0  0  0  0  0  0  0  0  0  0  0
    5.1984   -1.6935    0.0000 H   0  0  0  0  0  0  0  0  0  0  0  0
    7.0506   -1.6288    0.0000 H   0  0  0  0  0  0  0  0  0  0  0  0
    6.1432   -2.1958    0.0000 H   0  0  0  0  0  0  0  0  0  0  0  0
    6.7392   -1.8085    0.0000 H   0  0  0  0  0  0  0  0  0  0  0  0
    7.7214   -0.2369    0.0000 H   0  0  0  0  0  0  0  0  0  0  0  0
    7.6840   -1.3063    0.0000 H   0  0  0  0  0  0  0  0  0  0  0  0
    6.9580    1.0299    0.0000 H   0  0  0  0  0  0  0  0  0  0  0  0
  1 37  1  0  0  0  0
  1 38  1  0  0  0  0
  1 39  1  0  0  0  0
  2  1  1  1  0  0  0
  2  3  1  0  0  0  0
  2 11  1  0  0  0  0
  2 16  1  0  0  0  0
  3  4  1  0  0  0  0
  3 40  1  0  0  0  0
  3 41  1  0  0  0  0
  4  5  1  0  0  0  0
  4 42  1  0  0  0  0
  4 43  1  0  0  0  0
  5  6  1  0  0  0  0
  5 10  1  0  0  0  0
  5 34  1  6  0  0  0
  6  7  1  0  0  0  0
  6 44  1  0  0  0  0
  6 45  1  0  0  0  0
  7  8  1  0  0  0  0
  7 46  1  0  0  0  0
  7 47  1  0  0  0  0
  8  9  1  0  0  0  0
  8 32  1  0  0  0  0
  8 33  1  0  0  0  0
  9 48  1  0  0  0  0
  9 49  1  0  0  0  0
 10  9  1  0  0  0  0
 10 11  1  0  0  0  0
 10 50  1  6  0  0  0
 11 12  1  0  0  0  0
 11 51  1  6  0  0  0
 12 13  2  0  0  0  0
 12 14  1  0  0  0  0
 14 15  2  0  0  0  0
 14 52  1  0  0  0  0
 15 16  1  0  0  0  0
 15 20  1  0  0  0  0
 16 17  1  0  0  0  0
 16 31  1  6  0  0  0
 17 18  1  0  0  0  0
 17 53  1  0  0  0  0
 17 54  1  0  0  0  0
 18 55  1  0  0  0  0
 18 56  1  0  0  0  0
 19 18  1  0  0  0  0
 19 20  1  0  0  0  0
 19 25  1  0  0  0  0
 19 57  1  1  0  0  0
 20 21  1  0  0  0  0
 20 30  1  6  0  0  0
 21 22  2  0  0  0  0
 21 58  1  0  0  0  0
 22 23  1  0  0  0  0
 22 28  1  0  0  0  0
 23 24  2  0  0  0  0
 23 25  1  0  0  0  0
 25 26  1  0  0  0  0
 25 27  1  0  0  0  0
 26 59  1  0  0  0  0
 26 60  1  0  0  0  0
 26 61  1  0  0  0  0
 27 62  1  0  0  0  0
 27 63  1  0  0  0  0
 27 64  1  0  0  0  0
 28 29  3  0  0  0  0
 30 65  1  0  0  0  0
 30 66  1  0  0  0  0
 30 67  1  0  0  0  0
 31 68  1  0  0  0  0
 31 69  1  0  0  0  0
 31 70  1  0  0  0  0
 32 71  1  0  0  0  0
 32 72  1  0  0  0  0
 32 73  1  0  0  0  0
 33 74  1  0  0  0  0
 33 75  1  0  0  0  0
 33 76  1  0  0  0  0
 34 35  2  0  0  0  0
 34 36  1  0  0  0  0
 36 77  1  0  0  0  0
M  END
>  <DRUGBANK_ID>
DB12651

>  <SECONDARY_ACCESSION_NUMBERS>
DB06120

>  <COMMON_NAME>
Bardoxolone

>  <CAS_NUMBER>
218600-44-3

>  <UNII>
7HT68L8941

>  <SYNONYMS>
Bardoxolone

$$$$
