
 OpenBabel10282417072D

 50 53  0  0  0  0  0  0  0  0999 V2000
   -1.0716    2.6260    0.0000 C   0  0  0  0  0  0  0  0  0  0  0  0
   -1.0716    1.8009    0.0000 C   0  0  0  0  0  0  0  0  0  0  0  0
   -0.3572    1.3884    0.0000 N   0  0  0  0  0  0  0  0  0  0  0  0
    0.3572    1.8009    0.0000 C   0  0  0  0  0  0  0  0  0  0  0  0
    0.3572    2.6260    0.0000 C   0  0  0  0  0  0  0  0  0  0  0  0
   -0.3572    3.0385    0.0000 O   0  0  0  0  0  0  0  0  0  0  0  0
   -0.3572    0.5634    0.0000 C   0  0  0  0  0  0  0  0  0  0  0  0
   -1.0716    0.1509    0.0000 N   0  0  0  0  0  0  0  0  0  0  0  0
   -1.0716   -0.6740    0.0000 C   0  0  0  0  0  0  0  0  0  0  0  0
   -0.3572   -1.0865    0.0000 C   0  0  0  0  0  0  0  0  0  0  0  0
    0.3572   -0.6740    0.0000 C   0  0  0  0  0  0  0  0  0  0  0  0
    0.3572    0.1509    0.0000 N   0  0  0  0  0  0  0  0  0  0  0  0
   -1.7861   -1.0865    0.0000 N   0  0  0  0  0  0  0  0  0  0  0  0
    1.0717   -1.0865    0.0000 C   0  0  0  0  0  0  0  0  0  0  0  0
    1.0717   -1.9115    0.0000 C   0  0  0  0  0  0  0  0  0  0  0  0
    1.7861   -2.3240    0.0000 C   0  0  0  0  0  0  0  0  0  0  0  0
    2.5006   -1.9115    0.0000 C   0  0  0  0  0  0  0  0  0  0  0  0
    2.5006   -1.0865    0.0000 N   0  0  0  0  0  0  0  0  0  0  0  0
    1.7861   -0.6740    0.0000 C   0  0  0  0  0  0  0  0  0  0  0  0
    0.3572   -2.3240    0.0000 C   0  0  0  0  0  0  0  0  0  0  0  0
    3.2151   -2.3240    0.0000 N   0  0  0  0  0  0  0  0  0  0  0  0
   -2.5006   -0.6740    0.0000 C   0  0  0  0  0  0  0  0  0  0  0  0
   -3.2151   -1.0865    0.0000 C   0  0  0  0  0  0  0  0  0  0  0  0
   -3.2151   -1.9115    0.0000 O   0  0  0  0  0  0  0  0  0  0  0  0
   -2.5006   -2.3240    0.0000 C   0  0  0  0  0  0  0  0  0  0  0  0
   -1.7861   -1.9115    0.0000 C   0  0  0  0  0  0  0  0  0  0  0  0
    0.7697   -3.0385    0.0000 F   0  0  0  0  0  0  0  0  0  0  0  0
   -0.3572   -2.7365    0.0000 F   0  0  0  0  0  0  0  0  0  0  0  0
   -0.0552   -1.6095    0.0000 F   0  0  0  0  0  0  0  0  0  0  0  0
   -1.9983    3.1610    0.0000 H   0  0  0  0  0  0  0  0  0  0  0  0
   -1.0716    3.6960    0.0000 H   0  0  0  0  0  0  0  0  0  0  0  0
   -1.9983    1.2659    0.0000 H   0  0  0  0  0  0  0  0  0  0  0  0
   -1.0716    0.7309    0.0000 H   0  0  0  0  0  0  0  0  0  0  0  0
    1.2839    1.2659    0.0000 H   0  0  0  0  0  0  0  0  0  0  0  0
    1.2838    2.3359    0.0000 H   0  0  0  0  0  0  0  0  0  0  0  0
    1.2839    3.1610    0.0000 H   0  0  0  0  0  0  0  0  0  0  0  0
    0.3572    3.6960    0.0000 H   0  0  0  0  0  0  0  0  0  0  0  0
   -0.3572   -2.1185    0.0000 H   0  0  0  0  0  0  0  0  0  0  0  0
    1.7861   -3.3560    0.0000 H   0  0  0  0  0  0  0  0  0  0  0  0
    1.7861    0.3580    0.0000 H   0  0  0  0  0  0  0  0  0  0  0  0
    3.2151   -3.3085    0.0000 H   0  0  0  0  0  0  0  0  0  0  0  0
    4.0677   -1.8317    0.0000 H   0  0  0  0  0  0  0  0  0  0  0  0
   -2.5006    0.3960    0.0000 H   0  0  0  0  0  0  0  0  0  0  0  0
   -3.4272   -0.1390    0.0000 H   0  0  0  0  0  0  0  0  0  0  0  0
   -4.1417   -0.5515    0.0000 H   0  0  0  0  0  0  0  0  0  0  0  0
   -4.1417   -1.6215    0.0000 H   0  0  0  0  0  0  0  0  0  0  0  0
   -2.5006   -3.3940    0.0000 H   0  0  0  0  0  0  0  0  0  0  0  0
   -1.5740   -2.8590    0.0000 H   0  0  0  0  0  0  0  0  0  0  0  0
   -0.8595   -2.4465    0.0000 H   0  0  0  0  0  0  0  0  0  0  0  0
   -1.7861   -2.9815    0.0000 H   0  0  0  0  0  0  0  0  0  0  0  0
  1  2  1  0  0  0  0
  1  6  1  0  0  0  0
  1 30  1  0  0  0  0
  1 31  1  0  0  0  0
  2  3  1  0  0  0  0
  2 32  1  0  0  0  0
  2 33  1  0  0  0  0
  3  7  1  0  0  0  0
  3  4  1  0  0  0  0
  4  5  1  0  0  0  0
  4 34  1  0  0  0  0
  4 35  1  0  0  0  0
  5  6  1  0  0  0  0
  5 36  1  0  0  0  0
  5 37  1  0  0  0  0
  7  8  2  0  0  0  0
  8  9  1  0  0  0  0
  9 10  2  0  0  0  0
  9 13  1  0  0  0  0
 10 11  1  0  0  0  0
 10 38  1  0  0  0  0
 11 14  1  0  0  0  0
 11 12  2  0  0  0  0
 12  7  1  0  0  0  0
 13 22  1  0  0  0  0
 13 26  1  0  0  0  0
 14 15  2  0  0  0  0
 15 16  1  0  0  0  0
 15 20  1  0  0  0  0
 16 17  2  0  0  0  0
 16 39  1  0  0  0  0
 17 18  1  0  0  0  0
 17 21  1  0  0  0  0
 18 19  2  0  0  0  0
 19 14  1  0  0  0  0
 19 40  1  0  0  0  0
 20 27  1  0  0  0  0
 20 28  1  0  0  0  0
 20 29  1  0  0  0  0
 21 41  1  0  0  0  0
 21 42  1  0  0  0  0
 22 23  1  0  0  0  0
 22 43  1  0  0  0  0
 22 44  1  0  0  0  0
 23 24  1  0  0  0  0
 23 45  1  0  0  0  0
 23 46  1  0  0  0  0
 24 25  1  0  0  0  0
 25 26  1  0  0  0  0
 25 47  1  0  0  0  0
 25 48  1  0  0  0  0
 26 49  1  0  0  0  0
 26 50  1  0  0  0  0
M  END
>  <DRUGBANK_ID>
DB11666

>  <COMMON_NAME>
Buparlisib

>  <CAS_NUMBER>
944396-07-0

>  <UNII>
0ZM2Z182GD

>  <SYNONYMS>
Buparlisib; Buparlisibum

$$$$
