
 OpenBabel10282417072D

 53 57  0  0  0  0  0  0  0  0999 V2000
    5.4957   -3.9979    0.0000 O   0  0  0  0  0  0  0  0  0  0  0  0
    5.4957   -4.8229    0.0000 N   0  0  0  0  0  0  0  0  0  0  0  0
    4.7812   -5.2354    0.0000 C   0  0  0  0  0  0  0  0  0  0  0  0
    4.0668   -4.8229    0.0000 C   0  0  0  0  0  0  0  0  0  0  0  0
    3.3523   -5.2354    0.0000 C   0  0  0  0  0  0  0  0  0  0  0  0
    3.3523   -6.0604    0.0000 O   0  0  0  0  0  0  0  0  0  0  0  0
    4.0668   -6.4729    0.0000 C   0  0  0  0  0  0  0  0  0  0  0  0
    4.7812   -6.0604    0.0000 C   0  0  0  0  0  0  0  0  0  0  0  0
    5.4957   -6.4729    0.0000 C   0  0  0  0  0  0  0  0  0  0  0  0
    5.4957   -7.2979    0.0000 C   0  0  0  0  0  0  0  0  0  0  0  0
    6.2102   -7.7104    0.0000 C   0  0  0  0  0  0  0  0  0  0  0  0
    6.2102   -8.5354    0.0000 C   0  0  0  0  0  0  0  0  0  0  0  0
    6.9246   -8.9479    0.0000 C   0  0  0  0  0  0  0  0  0  0  0  0
    6.9246   -9.7729    0.0000 N   0  0  0  0  0  0  0  0  0  0  0  0
    7.6391  -10.1854    0.0000 C   0  0  0  0  0  0  0  0  0  0  0  0
    7.6391  -11.0104    0.0000 C   0  0  0  0  0  0  0  0  0  0  0  0
    6.9246  -11.4229    0.0000 O   0  0  0  0  0  0  0  0  0  0  0  0
    6.2102  -11.0104    0.0000 C   0  0  0  0  0  0  0  0  0  0  0  0
    6.2102  -10.1854    0.0000 C   0  0  0  0  0  0  0  0  0  0  0  0
    4.7812   -7.7104    0.0000 C   0  0  0  0  0  0  0  0  0  0  0  0
    4.0668   -7.2979    0.0000 C   0  0  0  0  0  0  0  0  0  0  0  0
    2.6378   -4.8229    0.0000 C   0  0  0  0  0  0  0  0  0  0  0  0
    1.9233   -5.2354    0.0000 C   0  0  0  0  0  0  0  0  0  0  0  0
    1.2089   -4.8229    0.0000 C   0  0  0  0  0  0  0  0  0  0  0  0
    1.2089   -3.9979    0.0000 C   0  0  0  0  0  0  0  0  0  0  0  0
    0.4243   -3.7430    0.0000 C   0  0  0  0  0  0  0  0  0  0  0  0
   -0.0607   -4.4104    0.0000 C   0  0  0  0  0  0  0  0  0  0  0  0
    0.4243   -5.0779    0.0000 S   0  0  0  0  0  0  0  0  0  0  0  0
    1.9233   -3.5854    0.0000 C   0  0  0  0  0  0  0  0  0  0  0  0
    2.6378   -3.9979    0.0000 N   0  0  0  0  0  0  0  0  0  0  0  0
    6.3072   -3.5294    0.0000 H   0  0  0  0  0  0  0  0  0  0  0  0
    4.0668   -3.7909    0.0000 H   0  0  0  0  0  0  0  0  0  0  0  0
    6.3894   -5.9569    0.0000 H   0  0  0  0  0  0  0  0  0  0  0  0
    7.1368   -7.1754    0.0000 H   0  0  0  0  0  0  0  0  0  0  0  0
    7.1368   -8.2454    0.0000 H   0  0  0  0  0  0  0  0  0  0  0  0
    5.2835   -9.0704    0.0000 H   0  0  0  0  0  0  0  0  0  0  0  0
    6.2102   -9.6054    0.0000 H   0  0  0  0  0  0  0  0  0  0  0  0
    7.8513   -8.4129    0.0000 H   0  0  0  0  0  0  0  0  0  0  0  0
    7.8512   -9.4829    0.0000 H   0  0  0  0  0  0  0  0  0  0  0  0
    8.5657   -9.6504    0.0000 H   0  0  0  0  0  0  0  0  0  0  0  0
    8.5657  -10.7204    0.0000 H   0  0  0  0  0  0  0  0  0  0  0  0
    8.5657  -11.5454    0.0000 H   0  0  0  0  0  0  0  0  0  0  0  0
    7.6391  -12.0804    0.0000 H   0  0  0  0  0  0  0  0  0  0  0  0
    5.2835  -11.5454    0.0000 H   0  0  0  0  0  0  0  0  0  0  0  0
    5.2836  -10.4754    0.0000 H   0  0  0  0  0  0  0  0  0  0  0  0
    5.2835   -9.6504    0.0000 H   0  0  0  0  0  0  0  0  0  0  0  0
    6.2102   -9.1154    0.0000 H   0  0  0  0  0  0  0  0  0  0  0  0
    4.7812   -8.7424    0.0000 H   0  0  0  0  0  0  0  0  0  0  0  0
    3.1731   -7.8139    0.0000 H   0  0  0  0  0  0  0  0  0  0  0  0
    1.9233   -6.2674    0.0000 H   0  0  0  0  0  0  0  0  0  0  0  0
    0.1054   -2.7615    0.0000 H   0  0  0  0  0  0  0  0  0  0  0  0
   -1.0927   -4.4104    0.0000 H   0  0  0  0  0  0  0  0  0  0  0  0
    1.9233   -2.5534    0.0000 H   0  0  0  0  0  0  0  0  0  0  0  0
  1  2  1  0  0  0  0
  1 31  1  0  0  0  0
  2  3  2  0  0  0  0
  3  4  1  0  0  0  0
  3  8  1  0  0  0  0
  4  5  2  0  0  0  0
  4 32  1  0  0  0  0
  5  6  1  0  0  0  0
  5 22  1  0  0  0  0
  6  7  1  0  0  0  0
  7  8  2  0  0  0  0
  7 21  1  0  0  0  0
  8  9  1  0  0  0  0
  9 10  2  0  0  0  0
  9 33  1  0  0  0  0
 10 11  1  0  0  0  0
 10 20  1  0  0  0  0
 11 12  1  0  0  0  0
 11 34  1  0  0  0  0
 11 35  1  0  0  0  0
 12 13  1  0  0  0  0
 12 36  1  0  0  0  0
 12 37  1  0  0  0  0
 13 14  1  0  0  0  0
 13 38  1  0  0  0  0
 13 39  1  0  0  0  0
 14 15  1  0  0  0  0
 14 19  1  0  0  0  0
 15 16  1  0  0  0  0
 15 40  1  0  0  0  0
 15 41  1  0  0  0  0
 16 17  1  0  0  0  0
 16 42  1  0  0  0  0
 16 43  1  0  0  0  0
 17 18  1  0  0  0  0
 18 19  1  0  0  0  0
 18 44  1  0  0  0  0
 18 45  1  0  0  0  0
 19 46  1  0  0  0  0
 19 47  1  0  0  0  0
 20 21  2  0  0  0  0
 20 48  1  0  0  0  0
 21 49  1  0  0  0  0
 22 23  2  0  0  0  0
 22 30  1  0  0  0  0
 23 24  1  0  0  0  0
 23 50  1  0  0  0  0
 24 25  2  0  0  0  0
 24 28  1  0  0  0  0
 25 26  1  0  0  0  0
 25 29  1  0  0  0  0
 26 27  2  0  0  0  0
 26 51  1  0  0  0  0
 27 28  1  0  0  0  0
 27 52  1  0  0  0  0
 29 30  2  0  0  0  0
 29 53  1  0  0  0  0
M  END
>  <DRUGBANK_ID>
DB15292

>  <COMMON_NAME>
Foliglurax

>  <CAS_NUMBER>
1883329-53-0

>  <UNII>
FR50CP1D6W

>  <SYNONYMS>
Foliglurax

$$$$
