H22
 OpenBabel10282417072D

 52 55  0  0  0  0  0  0  0  0999 V2000
   -2.2749    6.2177    0.0000 F   0  0  0  0  0  0  0  0  0  0  0  0
   -1.4903    6.4726    0.0000 C   0  0  0  0  0  0  0  0  0  0  0  0
   -1.3187    7.2796    0.0000 C   0  0  0  0  0  0  0  0  0  0  0  0
   -0.5341    7.5345    0.0000 C   0  0  0  0  0  0  0  0  0  0  0  0
   -0.3626    8.3415    0.0000 N   0  0  0  0  0  0  0  0  0  0  0  0
   -0.9757    8.8935    0.0000 C   0  0  0  0  0  0  0  0  0  0  0  0
   -0.8042    9.7005    0.0000 C   0  0  0  0  0  0  0  0  0  0  0  0
   -0.0195    9.9554    0.0000 C   0  0  0  0  0  0  0  0  0  0  0  0
    0.5936    9.4034    0.0000 C   0  0  0  0  0  0  0  0  0  0  0  0
    0.4220    8.5964    0.0000 C   0  0  0  0  0  0  0  0  0  0  0  0
    1.0351    8.0444    0.0000 O   0  0  0  0  0  0  0  0  0  0  0  0
    0.0790    6.9825    0.0000 C   0  0  0  0  0  0  0  0  0  0  0  0
   -0.0925    6.1755    0.0000 C   0  0  0  0  0  0  0  0  0  0  0  0
   -0.8772    5.9206    0.0000 C   0  0  0  0  0  0  0  0  0  0  0  0
   -1.0487    5.1136    0.0000 N   0  0  0  0  0  0  0  0  0  0  0  0
   -1.8333    4.8587    0.0000 C   0  0  0  0  0  0  0  0  0  0  0  0
   -2.4464    5.4107    0.0000 O   0  0  0  0  0  0  0  0  0  0  0  0
   -2.0048    4.0517    0.0000 C   0  0  0  0  0  0  0  0  0  0  0  0
   -2.7895    3.7968    0.0000 N   0  0  0  0  0  0  0  0  0  0  0  0
   -3.0444    3.0121    0.0000 C   0  0  0  0  0  0  0  0  0  0  0  0
   -3.8694    3.0121    0.0000 C   0  0  1  0  0  0  0  0  0  0  0  0
   -4.1243    3.7968    0.0000 C   0  0  0  0  0  0  0  0  0  0  0  0
   -3.4569    4.2817    0.0000 C   0  0  0  0  0  0  0  0  0  0  0  0
   -4.3543    2.3447    0.0000 N   0  0  0  0  0  0  0  0  0  0  0  0
   -5.1748    2.4309    0.0000 C   0  0  0  0  0  0  0  0  0  0  0  0
   -5.5104    3.1846    0.0000 O   0  0  0  0  0  0  0  0  0  0  0  0
   -5.6597    1.7635    0.0000 C   0  0  0  0  0  0  0  0  0  0  0  0
   -5.4048    0.9789    0.0000 C   0  0  0  0  0  0  0  0  0  0  0  0
   -6.0722    0.4939    0.0000 C   0  0  0  0  0  0  0  0  0  0  0  0
   -6.4847    1.7635    0.0000 S   0  0  0  0  0  0  0  0  0  0  0  0
   -6.7397    0.9789    0.0000 C   0  0  0  0  0  0  0  0  0  0  0  0
   -7.5243    0.7239    0.0000 Cl  0  0  0  0  0  0  0  0  0  0  0  0
   -3.6043    2.4918    0.0000 H   0  0  0  0  0  0  0  0  0  0  0  0
   -2.0856    7.9702    0.0000 H   0  0  0  0  0  0  0  0  0  0  0  0
   -1.9572    8.5746    0.0000 H   0  0  0  0  0  0  0  0  0  0  0  0
   -1.5711   10.3911    0.0000 H   0  0  0  0  0  0  0  0  0  0  0  0
    0.1951   10.9648    0.0000 H   0  0  0  0  0  0  0  0  0  0  0  0
    1.5751    9.7223    0.0000 H   0  0  0  0  0  0  0  0  0  0  0  0
    1.0605    7.3014    0.0000 H   0  0  0  0  0  0  0  0  0  0  0  0
    0.6744    5.4849    0.0000 H   0  0  0  0  0  0  0  0  0  0  0  0
   -0.3171    4.4548    0.0000 H   0  0  0  0  0  0  0  0  0  0  0  0
   -1.2096    3.3357    0.0000 H   0  0  0  0  0  0  0  0  0  0  0  0
   -2.2273    3.0051    0.0000 H   0  0  0  0  0  0  0  0  0  0  0  0
   -2.4154    2.1465    0.0000 H   0  0  0  0  0  0  0  0  0  0  0  0
   -3.5302    2.0587    0.0000 H   0  0  0  0  0  0  0  0  0  0  0  0
   -5.1419    4.1275    0.0000 H   0  0  0  0  0  0  0  0  0  0  0  0
   -4.2917    4.8536    0.0000 H   0  0  0  0  0  0  0  0  0  0  0  0
   -3.4569    5.3517    0.0000 H   0  0  0  0  0  0  0  0  0  0  0  0
   -4.4103    4.7675    0.0000 H   0  0  0  0  0  0  0  0  0  0  0  0
   -3.9538    1.4453    0.0000 H   0  0  0  0  0  0  0  0  0  0  0  0
   -4.4233    0.6600    0.0000 H   0  0  0  0  0  0  0  0  0  0  0  0
   -6.0722   -0.5381    0.0000 H   0  0  0  0  0  0  0  0  0  0  0  0
  1  2  1  0  0  0  0
  2  3  1  0  0  0  0
  2 14  2  0  0  0  0
  3  4  2  0  0  0  0
  3 34  1  0  0  0  0
  4  5  1  0  0  0  0
  4 12  1  0  0  0  0
  5  6  1  0  0  0  0
  5 10  1  0  0  0  0
  6  7  2  0  0  0  0
  6 35  1  0  0  0  0
  7  8  1  0  0  0  0
  7 36  1  0  0  0  0
  8  9  2  0  0  0  0
  8 37  1  0  0  0  0
  9 10  1  0  0  0  0
  9 38  1  0  0  0  0
 10 11  2  0  0  0  0
 12 13  2  0  0  0  0
 12 39  1  0  0  0  0
 13 14  1  0  0  0  0
 13 40  1  0  0  0  0
 14 15  1  0  0  0  0
 15 16  1  0  0  0  0
 15 41  1  0  0  0  0
 16 17  2  0  0  0  0
 16 18  1  0  0  0  0
 18 19  1  0  0  0  0
 18 42  1  0  0  0  0
 18 43  1  0  0  0  0
 19 20  1  0  0  0  0
 19 23  1  0  0  0  0
 20 21  1  0  0  0  0
 20 44  1  0  0  0  0
 20 45  1  0  0  0  0
 21 24  1  0  0  0  0
 21 33  1  1  0  0  0
 22 21  1  0  0  0  0
 22 23  1  0  0  0  0
 22 46  1  0  0  0  0
 22 47  1  0  0  0  0
 23 48  1  0  0  0  0
 23 49  1  0  0  0  0
 24 25  1  0  0  0  0
 24 50  1  0  0  0  0
 25 26  2  0  0  0  0
 25 27  1  0  0  0  0
 27 28  2  0  0  0  0
 27 30  1  0  0  0  0
 28 29  1  0  0  0  0
 28 51  1  0  0  0  0
 29 31  2  0  0  0  0
 29 52  1  0  0  0  0
 30 31  1  0  0  0  0
 31 32  1  0  0  0  0
M  END
>  <DRUGBANK_ID>
DB07872

>  <COMMON_NAME>
5-chloro-N-[(3R)-1-(2-{[2-fluoro-4-(2-oxopyridin-1(2H)-yl)phenyl]amino}-2-oxoethyl)pyrrolidin-3-yl]thiophene-2-carboxamide

$$$$
