TPR
 OpenBabel10282417072D

 33 34  0  0  0  0  0  0  0  0999 V2000
    1.8014    0.9142    0.0000 C   0  0  0  0  0  0  0  0  0  0  0  0
    2.4145    0.3622    0.0000 C   0  0  0  0  0  0  0  0  0  0  0  0
    2.2429   -0.4448    0.0000 C   0  0  0  0  0  0  0  0  0  0  0  0
    1.4583   -0.6997    0.0000 C   0  0  0  0  0  0  0  0  0  0  0  0
    0.8452   -0.1477    0.0000 C   0  0  0  0  0  0  0  0  0  0  0  0
    1.0167    0.6593    0.0000 C   0  0  0  0  0  0  0  0  0  0  0  0
    3.1991    0.6171    0.0000 C   0  0  0  0  0  0  0  0  0  0  0  0
    0.0606   -0.4026    0.0000 S   0  0  0  0  0  0  0  0  0  0  0  0
   -0.1943    0.3820    0.0000 O   0  0  0  0  0  0  0  0  0  0  0  0
    0.3155   -1.1873    0.0000 O   0  0  0  0  0  0  0  0  0  0  0  0
   -0.7240   -0.6576    0.0000 N   0  0  0  0  0  0  0  0  0  0  0  0
   -0.9790   -1.4422    0.0000 C   0  0  0  0  0  0  0  0  0  0  0  0
   -1.8040   -1.4422    0.0000 C   0  0  0  0  0  0  0  0  0  0  0  0
   -2.0589   -0.6576    0.0000 C   0  0  0  0  0  0  0  0  0  0  0  0
   -1.3915   -0.1727    0.0000 C   0  0  2  0  0  0  0  0  0  0  0  0
   -1.3915    0.6523    0.0000 C   0  0  0  0  0  0  0  0  0  0  0  0
   -2.1059    1.0648    0.0000 O   0  0  0  0  0  0  0  0  0  0  0  0
   -0.6770    1.0648    0.0000 O   0  0  0  0  0  0  0  0  0  0  0  0
   -0.8712    0.0924    0.0000 H   0  0  0  0  0  0  0  0  0  0  0  0
    2.0160    1.9236    0.0000 H   0  0  0  0  0  0  0  0  0  0  0  0
    3.0098   -1.1354    0.0000 H   0  0  0  0  0  0  0  0  0  0  0  0
    1.2437   -1.7091    0.0000 H   0  0  0  0  0  0  0  0  0  0  0  0
    0.2498    1.3499    0.0000 H   0  0  0  0  0  0  0  0  0  0  0  0
    3.9942   -0.0989    0.0000 H   0  0  0  0  0  0  0  0  0  0  0  0
    3.4216    1.6637    0.0000 H   0  0  0  0  0  0  0  0  0  0  0  0
    4.2167    0.9477    0.0000 H   0  0  0  0  0  0  0  0  0  0  0  0
   -0.3501   -2.3079    0.0000 H   0  0  0  0  0  0  0  0  0  0  0  0
   -1.4648   -2.3956    0.0000 H   0  0  0  0  0  0  0  0  0  0  0  0
   -2.4329   -2.3078    0.0000 H   0  0  0  0  0  0  0  0  0  0  0  0
   -2.8608   -1.2748    0.0000 H   0  0  0  0  0  0  0  0  0  0  0  0
   -3.0765   -0.3269    0.0000 H   0  0  0  0  0  0  0  0  0  0  0  0
   -2.2263    0.3992    0.0000 H   0  0  0  0  0  0  0  0  0  0  0  0
    0.1345    0.5963    0.0000 H   0  0  0  0  0  0  0  0  0  0  0  0
  1  2  2  0  0  0  0
  1  6  1  0  0  0  0
  1 20  1  0  0  0  0
  2  3  1  0  0  0  0
  2  7  1  0  0  0  0
  3  4  2  0  0  0  0
  3 21  1  0  0  0  0
  4  5  1  0  0  0  0
  4 22  1  0  0  0  0
  5  6  2  0  0  0  0
  5  8  1  0  0  0  0
  6 23  1  0  0  0  0
  7 24  1  0  0  0  0
  7 25  1  0  0  0  0
  7 26  1  0  0  0  0
  8  9  2  0  0  0  0
  8 10  2  0  0  0  0
  8 11  1  0  0  0  0
 11 12  1  0  0  0  0
 11 15  1  0  0  0  0
 12 13  1  0  0  0  0
 12 27  1  0  0  0  0
 12 28  1  0  0  0  0
 13 14  1  0  0  0  0
 13 29  1  0  0  0  0
 13 30  1  0  0  0  0
 14 15  1  0  0  0  0
 14 31  1  0  0  0  0
 14 32  1  0  0  0  0
 15 16  1  0  0  0  0
 15 19  1  1  0  0  0
 16 17  2  0  0  0  0
 16 18  1  0  0  0  0
 18 33  1  0  0  0  0
M  END
>  <DRUGBANK_ID>
DB02752

>  <SECONDARY_ACCESSION_NUMBERS>
EXPT03095

>  <COMMON_NAME>
Tosyl-D-Proline

$$$$
