TDZ
 OpenBabel10282417072D

 58 61  0  0  0  0  0  0  0  0999 V2000
    0.1775    0.8298    0.0000 C   0  0  0  0  0  0  0  0  0  0  0  0
    0.8920    1.2423    0.0000 C   0  0  0  0  0  0  0  0  0  0  0  0
    1.6064    0.8298    0.0000 C   0  0  0  0  0  0  0  0  0  0  0  0
    2.3209    1.2423    0.0000 C   0  0  0  0  0  0  0  0  0  0  0  0
    2.3209    2.0673    0.0000 C   0  0  0  0  0  0  0  0  0  0  0  0
    3.0354    0.8298    0.0000 C   0  0  0  0  0  0  0  0  0  0  0  0
    3.7499    1.2423    0.0000 O   0  0  0  0  0  0  0  0  0  0  0  0
    3.0354    0.0048    0.0000 C   0  0  0  0  0  0  0  0  0  0  0  0
    3.7499   -0.4077    0.0000 C   0  0  0  0  0  0  0  0  0  0  0  0
    2.3209   -0.4077    0.0000 C   0  0  0  0  0  0  0  0  0  0  0  0
    2.3209   -1.2327    0.0000 C   0  0  0  0  0  0  0  0  0  0  0  0
    1.6064    0.0048    0.0000 C   0  0  0  0  0  0  0  0  0  0  0  0
    0.8920   -0.4077    0.0000 O   0  0  0  0  0  0  0  0  0  0  0  0
    0.1775    0.0048    0.0000 C   0  0  2  0  0  0  0  0  0  0  0  0
   -0.2597   -0.6948    0.0000 C   0  0  0  0  0  0  0  0  0  0  0  0
   -0.6470   -0.0240    0.0000 C   0  0  0  0  0  0  0  0  0  0  0  0
   -1.0343   -0.7524    0.0000 O   0  0  0  0  0  0  0  0  0  0  0  0
   -1.8588   -0.7812    0.0000 C   0  0  0  0  0  0  0  0  0  0  0  0
   -2.2461   -1.5096    0.0000 C   0  0  0  0  0  0  0  0  0  0  0  0
   -3.0706   -1.5384    0.0000 C   0  0  0  0  0  0  0  0  0  0  0  0
   -2.2960   -0.0815    0.0000 C   0  0  0  0  0  0  0  0  0  0  0  0
   -3.1205   -0.1103    0.0000 C   0  0  0  0  0  0  0  0  0  0  0  0
   -3.5078   -0.8388    0.0000 C   0  0  0  0  0  0  0  0  0  0  0  0
   -4.3323   -0.8676    0.0000 C   0  0  0  0  0  0  0  0  0  0  0  0
   -4.7695   -0.1679    0.0000 C   0  0  1  0  0  0  0  0  0  0  0  0
   -5.5925   -0.1104    0.0000 S   0  0  0  0  0  0  0  0  0  0  0  0
   -5.7921    0.6901    0.0000 C   0  0  0  0  0  0  0  0  0  0  0  0
   -6.5570    0.9992    0.0000 O   0  0  0  0  0  0  0  0  0  0  0  0
   -5.0924    1.1273    0.0000 N   0  0  0  0  0  0  0  0  0  0  0  0
   -4.4604    0.5970    0.0000 C   0  0  0  0  0  0  0  0  0  0  0  0
   -3.6599    0.7966    0.0000 O   0  0  0  0  0  0  0  0  0  0  0  0
   -5.0702   -0.6684    0.0000 H   0  0  0  0  0  0  0  0  0  0  0  0
   -0.7491    1.3648    0.0000 H   0  0  0  0  0  0  0  0  0  0  0  0
   -0.7491    0.2948    0.0000 H   0  0  0  0  0  0  0  0  0  0  0  0
    0.8920    2.3123    0.0000 H   0  0  0  0  0  0  0  0  0  0  0  0
    1.8187    1.7773    0.0000 H   0  0  0  0  0  0  0  0  0  0  0  0
    3.2475    2.6023    0.0000 H   0  0  0  0  0  0  0  0  0  0  0  0
    1.3943    2.6023    0.0000 H   0  0  0  0  0  0  0  0  0  0  0  0
    2.3209    3.1373    0.0000 H   0  0  0  0  0  0  0  0  0  0  0  0
    4.5614    0.7738    0.0000 H   0  0  0  0  0  0  0  0  0  0  0  0
    3.7499   -1.4777    0.0000 H   0  0  0  0  0  0  0  0  0  0  0  0
    4.6765    0.1273    0.0000 H   0  0  0  0  0  0  0  0  0  0  0  0
    4.6766   -0.9427    0.0000 H   0  0  0  0  0  0  0  0  0  0  0  0
    1.3943   -1.7677    0.0000 H   0  0  0  0  0  0  0  0  0  0  0  0
    3.2475   -1.7677    0.0000 H   0  0  0  0  0  0  0  0  0  0  0  0
    2.3209   -2.3027    0.0000 H   0  0  0  0  0  0  0  0  0  0  0  0
   -1.3290   -0.6574    0.0000 H   0  0  0  0  0  0  0  0  0  0  0  0
    0.2426   -1.6396    0.0000 H   0  0  0  0  0  0  0  0  0  0  0  0
   -0.8268   -1.6022    0.0000 H   0  0  0  0  0  0  0  0  0  0  0  0
   -1.2140    0.8834    0.0000 H   0  0  0  0  0  0  0  0  0  0  0  0
   -1.7163   -0.0613    0.0000 H   0  0  0  0  0  0  0  0  0  0  0  0
   -1.6992   -2.3848    0.0000 H   0  0  0  0  0  0  0  0  0  0  0  0
   -3.5551   -2.4496    0.0000 H   0  0  0  0  0  0  0  0  0  0  0  0
   -1.8115    0.8297    0.0000 H   0  0  0  0  0  0  0  0  0  0  0  0
   -3.6674    0.7649    0.0000 H   0  0  0  0  0  0  0  0  0  0  0  0
   -4.8346   -1.8124    0.0000 H   0  0  0  0  0  0  0  0  0  0  0  0
   -5.4016   -0.9049    0.0000 H   0  0  0  0  0  0  0  0  0  0  0  0
   -5.0237    2.1094    0.0000 H   0  0  0  0  0  0  0  0  0  0  0  0
  1  2  1  0  0  0  0
  1 14  1  0  0  0  0
  1 33  1  0  0  0  0
  1 34  1  0  0  0  0
  2  3  1  0  0  0  0
  2 35  1  0  0  0  0
  2 36  1  0  0  0  0
  3  4  2  0  0  0  0
  3 12  1  0  0  0  0
  4  5  1  0  0  0  0
  4  6  1  0  0  0  0
  5 37  1  0  0  0  0
  5 38  1  0  0  0  0
  5 39  1  0  0  0  0
  6  7  1  0  0  0  0
  6  8  2  0  0  0  0
  7 40  1  0  0  0  0
  8 10  1  0  0  0  0
  8  9  1  0  0  0  0
  9 41  1  0  0  0  0
  9 42  1  0  0  0  0
  9 43  1  0  0  0  0
 10 12  2  0  0  0  0
 10 11  1  0  0  0  0
 11 44  1  0  0  0  0
 11 45  1  0  0  0  0
 11 46  1  0  0  0  0
 12 13  1  0  0  0  0
 13 14  1  0  0  0  0
 14 16  1  1  0  0  0
 14 15  1  0  0  0  0
 15 47  1  0  0  0  0
 15 48  1  0  0  0  0
 15 49  1  0  0  0  0
 16 17  1  0  0  0  0
 16 50  1  0  0  0  0
 16 51  1  0  0  0  0
 17 18  1  0  0  0  0
 18 19  2  0  0  0  0
 18 21  1  0  0  0  0
 19 20  1  0  0  0  0
 19 52  1  0  0  0  0
 20 23  2  0  0  0  0
 20 53  1  0  0  0  0
 21 22  2  0  0  0  0
 21 54  1  0  0  0  0
 22 23  1  0  0  0  0
 22 55  1  0  0  0  0
 23 24  1  0  0  0  0
 24 56  1  0  0  0  0
 24 57  1  0  0  0  0
 25 24  1  0  0  0  0
 25 26  1  0  0  0  0
 25 30  1  0  0  0  0
 25 32  1  6  0  0  0
 26 27  1  0  0  0  0
 27 28  2  0  0  0  0
 27 29  1  0  0  0  0
 29 30  1  0  0  0  0
 29 58  1  0  0  0  0
 30 31  2  0  0  0  0
M  END
>  <DRUGBANK_ID>
DB08607

>  <COMMON_NAME>
(5R)-5-(4-{[(2R)-6-HYDROXY-2,5,7,8-TETRAMETHYL-3,4-DIHYDRO-2H-CHROMEN-2-YL]METHOXY}BENZYL)-1,3-THIAZOLIDINE-2,4-DIONE

>  <UNII>
1A70L3TM4P

$$$$
