
 OpenBabel10282417072D

 51 51  0  0  0  0  0  0  0  0999 V2000
   -1.4298   -0.4124    0.0000 O   0  0  0  0  0  0  0  0  0  0  0  0
   -2.1442    0.0009    0.0000 C   0  0  0  0  0  0  0  0  0  0  0  0
   -0.7153    0.0009    0.0000 C   0  0  0  0  0  0  0  0  0  0  0  0
   -2.8587   -0.4124    0.0000 C   0  0  0  0  0  0  0  0  0  0  0  0
   -0.7153    0.8259    0.0000 C   0  0  0  0  0  0  0  0  0  0  0  0
    0.0010   -0.4124    0.0000 C   0  0  0  0  0  0  0  0  0  0  0  0
   -3.5731    0.0009    0.0000 N   0  0  0  0  0  0  0  0  0  0  0  0
   -2.8587   -1.2374    0.0000 O   0  0  0  0  0  0  0  0  0  0  0  0
   -1.4298    1.2374    0.0000 O   0  0  0  0  0  0  0  0  0  0  0  0
    0.0010    1.2374    0.0000 C   0  0  0  0  0  0  0  0  0  0  0  0
    0.7133    0.0009    0.0000 C   0  0  0  0  0  0  0  0  0  0  0  0
   -4.2875   -0.4124    0.0000 C   0  0  0  0  0  0  0  0  0  0  0  0
   -3.5731    0.8259    0.0000 C   0  0  0  0  0  0  0  0  0  0  0  0
   -2.1442    0.8259    0.0000 C   0  0  0  0  0  0  0  0  0  0  0  0
    0.7133    0.8259    0.0000 C   0  0  0  0  0  0  0  0  0  0  0  0
   -5.0019    0.0009    0.0000 C   0  0  0  0  0  0  0  0  0  0  0  0
   -4.2875    1.2374    0.0000 C   0  0  0  0  0  0  0  0  0  0  0  0
    1.4278    1.2374    0.0000 C   0  0  0  0  0  0  0  0  0  0  0  0
    2.1422    0.8259    0.0000 C   0  0  0  0  0  0  0  0  0  0  0  0
    2.8567    1.2374    0.0000 O   0  0  0  0  0  0  0  0  0  0  0  0
    2.1422    0.0009    0.0000 O   0  0  0  0  0  0  0  0  0  0  0  0
    3.5711    0.8259    0.0000 C   0  0  0  0  0  0  0  0  0  0  0  0
    4.2855    1.2374    0.0000 C   0  0  0  0  0  0  0  0  0  0  0  0
    5.0019    0.8259    0.0000 C   0  0  0  0  0  0  0  0  0  0  0  0
   -2.1442    1.0709    0.0000 H   0  0  0  0  0  0  0  0  0  0  0  0
   -3.0711    0.5355    0.0000 H   0  0  0  0  0  0  0  0  0  0  0  0
    0.0023   -1.4444    0.0000 H   0  0  0  0  0  0  0  0  0  0  0  0
    0.0022    2.2694    0.0000 H   0  0  0  0  0  0  0  0  0  0  0  0
    1.6076   -0.5141    0.0000 H   0  0  0  0  0  0  0  0  0  0  0  0
   -4.2875   -1.4824    0.0000 H   0  0  0  0  0  0  0  0  0  0  0  0
   -5.2144   -0.9470    0.0000 H   0  0  0  0  0  0  0  0  0  0  0  0
   -2.6467    1.3614    0.0000 H   0  0  0  0  0  0  0  0  0  0  0  0
   -3.5739    1.8959    0.0000 H   0  0  0  0  0  0  0  0  0  0  0  0
   -3.0703    1.3618    0.0000 H   0  0  0  0  0  0  0  0  0  0  0  0
   -2.1453   -0.2441    0.0000 H   0  0  0  0  0  0  0  0  0  0  0  0
   -3.0714    0.2918    0.0000 H   0  0  0  0  0  0  0  0  0  0  0  0
   -5.0010    1.0709    0.0000 H   0  0  0  0  0  0  0  0  0  0  0  0
   -5.9290   -0.5333    0.0000 H   0  0  0  0  0  0  0  0  0  0  0  0
   -5.9281    0.5367    0.0000 H   0  0  0  0  0  0  0  0  0  0  0  0
   -4.2886    2.3074    0.0000 H   0  0  0  0  0  0  0  0  0  0  0  0
   -5.2136    0.7015    0.0000 H   0  0  0  0  0  0  0  0  0  0  0  0
   -5.2147    1.7715    0.0000 H   0  0  0  0  0  0  0  0  0  0  0  0
    1.4278    2.3074    0.0000 H   0  0  0  0  0  0  0  0  0  0  0  0
    2.3542    1.7729    0.0000 H   0  0  0  0  0  0  0  0  0  0  0  0
    3.5711   -0.2441    0.0000 H   0  0  0  0  0  0  0  0  0  0  0  0
    4.4975    0.2904    0.0000 H   0  0  0  0  0  0  0  0  0  0  0  0
    4.2849    2.3074    0.0000 H   0  0  0  0  0  0  0  0  0  0  0  0
    5.2114    1.7737    0.0000 H   0  0  0  0  0  0  0  0  0  0  0  0
    5.0043   -0.2441    0.0000 H   0  0  0  0  0  0  0  0  0  0  0  0
    5.9274    1.3630    0.0000 H   0  0  0  0  0  0  0  0  0  0  0  0
    5.9297    0.2930    0.0000 H   0  0  0  0  0  0  0  0  0  0  0  0
  1  2  1  0  0  0  0
  1  3  1  0  0  0  0
  2  4  1  0  0  0  0
  2 25  1  0  0  0  0
  2 26  1  0  0  0  0
  3  5  2  0  0  0  0
  3  6  1  0  0  0  0
  4  7  1  0  0  0  0
  4  8  2  0  0  0  0
  5  9  1  0  0  0  0
  5 10  1  0  0  0  0
  6 11  2  0  0  0  0
  6 27  1  0  0  0  0
  7 12  1  0  0  0  0
  7 13  1  0  0  0  0
  9 14  1  0  0  0  0
 10 15  2  0  0  0  0
 10 28  1  0  0  0  0
 11 15  1  0  0  0  0
 11 29  1  0  0  0  0
 12 16  1  0  0  0  0
 12 30  1  0  0  0  0
 12 31  1  0  0  0  0
 13 17  1  0  0  0  0
 13 32  1  0  0  0  0
 13 33  1  0  0  0  0
 14 34  1  0  0  0  0
 14 35  1  0  0  0  0
 14 36  1  0  0  0  0
 15 18  1  0  0  0  0
 16 37  1  0  0  0  0
 16 38  1  0  0  0  0
 16 39  1  0  0  0  0
 17 40  1  0  0  0  0
 17 41  1  0  0  0  0
 17 42  1  0  0  0  0
 18 19  1  0  0  0  0
 18 43  1  0  0  0  0
 18 44  1  0  0  0  0
 19 20  1  0  0  0  0
 19 21  2  0  0  0  0
 20 22  1  0  0  0  0
 22 23  1  0  0  0  0
 22 45  1  0  0  0  0
 22 46  1  0  0  0  0
 23 24  1  0  0  0  0
 23 47  1  0  0  0  0
 23 48  1  0  0  0  0
 24 49  1  0  0  0  0
 24 50  1  0  0  0  0
 24 51  1  0  0  0  0
M  END
>  <DRUGBANK_ID>
DB13234

>  <COMMON_NAME>
Propanidid

>  <CAS_NUMBER>
1421-14-3

>  <UNII>
AO82L471NS

>  <SYNONYMS>
Propanidid; Propanidido; Propanididum

$$$$
