Pregnenolone.mol
 OpenBabel10282417072D

 30 30  0  0  0  0  0  0  0  0999 V2000
    1.1026   -1.6660    0.0000 N   0  0  0  0  0  0  0  0  0  0  0  0
    0.2776   -1.6660    0.0000 C   0  0  0  0  0  0  0  0  0  0  0  0
    0.0227   -0.8814    0.0000 C   0  0  0  0  0  0  0  0  0  0  0  0
    0.6901   -0.3965    0.0000 C   0  0  0  0  0  0  0  0  0  0  0  0
    1.3576   -0.8814    0.0000 C   0  0  0  0  0  0  0  0  0  0  0  0
   -2.1422   -0.9963    0.0000 C   0  0  0  0  0  0  0  0  0  0  0  0
   -1.3453   -1.2098    0.0000 C   0  0  0  0  0  0  0  0  0  0  0  0
   -0.7619   -0.6265    0.0000 C   0  0  0  0  0  0  0  0  0  0  0  0
   -2.7255   -1.5797    0.0000 O   0  0  0  0  0  0  0  0  0  0  0  0
   -2.3557   -0.1994    0.0000 O   0  0  0  0  0  0  0  0  0  0  0  0
    0.6901    0.4285    0.0000 C   0  0  0  0  0  0  0  0  0  0  0  0
   -0.0243    0.8410    0.0000 C   0  0  0  0  0  0  0  0  0  0  0  0
   -0.0243    1.6660    0.0000 O   0  0  0  0  0  0  0  0  0  0  0  0
   -0.7388    0.4285    0.0000 O   0  0  0  0  0  0  0  0  0  0  0  0
    2.1422   -0.6265    0.0000 C   0  0  0  0  0  0  0  0  0  0  0  0
    2.7255   -1.2098    0.0000 N   0  0  0  0  0  0  0  0  0  0  0  0
    1.6812   -2.4625    0.0000 H   0  0  0  0  0  0  0  0  0  0  0  0
   -0.3290   -2.5009    0.0000 H   0  0  0  0  0  0  0  0  0  0  0  0
   -1.0684   -2.2433    0.0000 H   0  0  0  0  0  0  0  0  0  0  0  0
   -0.3118   -1.4868    0.0000 H   0  0  0  0  0  0  0  0  0  0  0  0
   -1.0117    0.4139    0.0000 H   0  0  0  0  0  0  0  0  0  0  0  0
    0.0238    0.0998    0.0000 H   0  0  0  0  0  0  0  0  0  0  0  0
   -1.6931    0.4631    0.0000 H   0  0  0  0  0  0  0  0  0  0  0  0
    1.6168    0.9635    0.0000 H   0  0  0  0  0  0  0  0  0  0  0  0
    1.6167   -0.1065    0.0000 H   0  0  0  0  0  0  0  0  0  0  0  0
   -1.5503    0.8970    0.0000 H   0  0  0  0  0  0  0  0  0  0  0  0
    2.3920    0.4139    0.0000 H   0  0  0  0  0  0  0  0  0  0  0  0
    1.3565    0.0998    0.0000 H   0  0  0  0  0  0  0  0  0  0  0  0
    2.4615   -2.1950    0.0000 H   0  0  0  0  0  0  0  0  0  0  0  0
    3.7107   -0.9458    0.0000 H   0  0  0  0  0  0  0  0  0  0  0  0
  1  2  1  0  0  0  0
  1  5  1  0  0  0  0
  1 17  1  0  0  0  0
  2  3  2  0  0  0  0
  2 18  1  0  0  0  0
  3  4  1  0  0  0  0
  3  8  1  0  0  0  0
  4  5  2  0  0  0  0
  4 11  1  0  0  0  0
  5 15  1  0  0  0  0
  6  7  1  0  0  0  0
  6  9  2  0  0  0  0
  6 10  1  0  0  0  0
  7  8  1  0  0  0  0
  7 19  1  0  0  0  0
  7 20  1  0  0  0  0
  8 21  1  0  0  0  0
  8 22  1  0  0  0  0
 10 23  1  0  0  0  0
 11 12  1  0  0  0  0
 11 24  1  0  0  0  0
 11 25  1  0  0  0  0
 12 13  2  0  0  0  0
 12 14  1  0  0  0  0
 14 26  1  0  0  0  0
 15 16  1  0  0  0  0
 15 27  1  0  0  0  0
 15 28  1  0  0  0  0
 16 29  1  0  0  0  0
 16 30  1  0  0  0  0
M  END
>  <DRUGBANK_ID>
DB02272

>  <SECONDARY_ACCESSION_NUMBERS>
EXPT02507

>  <COMMON_NAME>
Porphobilinogen

>  <CAS_NUMBER>
487-90-1

>  <UNII>
74KHC72QXK

>  <SYNONYMS>
5-(Aminomethyl)-4-(carboxymethyl)-1H-pyrrole-3-propionic acid; Porphobilinogen

$$$$
