
 OpenBabel10282417072D

 35 32  0  0  0  0  0  0  0  0999 V2000
   -2.7225   -2.2232    0.0000 Mg  0  2  0  0  0  0  0  0  0  0  0  0
    2.2544    1.0693    0.0000 C   0  0  0  0  0  0  0  0  0  0  0  0
    3.0797    1.0693    0.0000 O   0  0  0  0  0  0  0  0  0  0  0  0
    1.8395    1.7868    0.0000 O   0  5  0  0  0  0  0  0  0  0  0  0
    1.8395    0.3564    0.0000 C   0  0  0  0  0  0  0  0  0  0  0  0
    1.0142    0.3564    0.0000 C   0  0  0  0  0  0  0  0  0  0  0  0
    0.6036   -0.3563    0.0000 C   0  0  0  0  0  0  0  0  0  0  0  0
    1.0142   -1.0739    0.0000 O   0  0  0  0  0  0  0  0  0  0  0  0
   -0.2216   -0.3563    0.0000 O   0  0  0  0  0  0  0  0  0  0  0  0
   -0.6365   -1.0739    0.0000 C   0  0  0  0  0  0  0  0  0  0  0  0
   -0.2216   -1.7868    0.0000 C   0  0  0  0  0  0  0  0  0  0  0  0
    3.5048   -1.8110    0.0000 C   0  0  0  0  0  0  0  0  0  0  0  0
    4.3301   -1.8110    0.0000 O   0  0  0  0  0  0  0  0  0  0  0  0
    3.0899   -1.0935    0.0000 O   0  5  0  0  0  0  0  0  0  0  0  0
    3.0899   -2.5240    0.0000 C   0  0  0  0  0  0  0  0  0  0  0  0
    2.2646   -2.5240    0.0000 C   0  0  0  0  0  0  0  0  0  0  0  0
    1.8541   -3.2367    0.0000 C   0  0  0  0  0  0  0  0  0  0  0  0
    2.2646   -3.9543    0.0000 O   0  0  0  0  0  0  0  0  0  0  0  0
    1.0288   -3.2367    0.0000 O   0  0  0  0  0  0  0  0  0  0  0  0
    0.6138   -3.9543    0.0000 C   0  0  0  0  0  0  0  0  0  0  0  0
    1.0288   -4.6674    0.0000 C   0  0  0  0  0  0  0  0  0  0  0  0
    2.3539   -0.5382    0.0000 H   0  0  0  0  0  0  0  0  0  0  0  0
    0.4978    1.2499    0.0000 H   0  0  0  0  0  0  0  0  0  0  0  0
   -1.7065   -1.0754    0.0000 H   0  0  0  0  0  0  0  0  0  0  0  0
   -1.1692   -2.0019    0.0000 H   0  0  0  0  0  0  0  0  0  0  0  0
   -0.7534   -2.7153    0.0000 H   0  0  0  0  0  0  0  0  0  0  0  0
    0.8484   -1.7831    0.0000 H   0  0  0  0  0  0  0  0  0  0  0  0
    0.3166   -2.7116    0.0000 H   0  0  0  0  0  0  0  0  0  0  0  0
    3.6044   -3.4186    0.0000 H   0  0  0  0  0  0  0  0  0  0  0  0
    1.7481   -1.6305    0.0000 H   0  0  0  0  0  0  0  0  0  0  0  0
   -0.4562   -3.9558    0.0000 H   0  0  0  0  0  0  0  0  0  0  0  0
    0.0810   -4.8822    0.0000 H   0  0  0  0  0  0  0  0  0  0  0  0
    0.4970   -5.5959    0.0000 H   0  0  0  0  0  0  0  0  0  0  0  0
    2.0988   -4.6637    0.0000 H   0  0  0  0  0  0  0  0  0  0  0  0
    1.5670   -5.5922    0.0000 H   0  0  0  0  0  0  0  0  0  0  0  0
  2  3  2  0  0  0  0
  2  4  1  0  0  0  0
  2  5  1  0  0  0  0
  5  6  2  0  0  0  0
  5 22  1  0  0  0  0
  6  7  1  0  0  0  0
  6 23  1  0  0  0  0
  7  8  2  0  0  0  0
  7  9  1  0  0  0  0
  9 10  1  0  0  0  0
 10 11  1  0  0  0  0
 10 24  1  0  0  0  0
 10 25  1  0  0  0  0
 11 26  1  0  0  0  0
 11 27  1  0  0  0  0
 11 28  1  0  0  0  0
 12 13  2  0  0  0  0
 12 14  1  0  0  0  0
 12 15  1  0  0  0  0
 15 16  2  0  0  0  0
 15 29  1  0  0  0  0
 16 17  1  0  0  0  0
 16 30  1  0  0  0  0
 17 18  2  0  0  0  0
 17 19  1  0  0  0  0
 19 20  1  0  0  0  0
 20 21  1  0  0  0  0
 20 31  1  0  0  0  0
 20 32  1  0  0  0  0
 21 33  1  0  0  0  0
 21 34  1  0  0  0  0
 21 35  1  0  0  0  0
M  CHG  3   1   2   4  -1  14  -1
M  END
>  <DRUGBANK_ID>
DB15817

>  <COMMON_NAME>
Magnesium monoethylfumarate

>  <CAS_NUMBER>
83918-60-9

>  <UNII>
D5767608S8

>  <SYNONYMS>
Magnesium diethyl difumarate; Magnesium monoethyl fumarate

$$$$
