
 OpenBabel10282417072D

 40 40  0  0  1  0  0  0  0  0999 V2000
    3.2680   -0.0498    0.0000 C   0  0  0  0  0  0  0  0  0  0  0  0
    2.4555   -0.1930    0.0000 C   0  0  0  0  0  0  0  0  0  0  0  0
    1.9252    0.4390    0.0000 O   0  0  0  0  0  0  0  0  0  0  0  0
    2.2074    1.2142    0.0000 P   0  0  1  0  0  0  0  0  0  0  0  0
    1.3949    1.3575    0.0000 O   0  0  0  0  0  0  0  0  0  0  0  0
    3.0198    1.3575    0.0000 N   0  0  0  0  0  0  0  0  0  0  0  0
    3.5501    0.7255    0.0000 C   0  0  1  0  0  0  0  0  0  0  0  0
    4.3626    0.8688    0.0000 S   0  0  0  0  0  0  0  0  0  0  0  0
    4.8929    0.2368    0.0000 C   0  0  0  0  0  0  0  0  0  0  0  0
    5.7054    0.3800    0.0000 C   0  0  0  0  0  0  0  0  0  0  0  0
    6.2357   -0.2520    0.0000 S   0  0  0  0  0  0  0  0  0  0  0  0
    6.7660   -0.8839    0.0000 O   0  0  0  0  0  0  0  0  0  0  0  0
    6.8677    0.2783    0.0000 O   0  0  0  0  0  0  0  0  0  0  0  0
    5.6037   -0.7823    0.0000 O   0  0  0  0  0  0  0  0  0  0  0  0
    2.2074    2.0392    0.0000 N   0  0  0  0  0  0  0  0  0  0  0  0
    1.4929    2.4517    0.0000 C   0  0  0  0  0  0  0  0  0  0  0  0
    1.4929    3.2767    0.0000 C   0  0  0  0  0  0  0  0  0  0  0  0
    0.7784    3.6892    0.0000 Cl  0  0  0  0  0  0  0  0  0  0  0  0
    2.9218    2.4517    0.0000 C   0  0  0  0  0  0  0  0  0  0  0  0
    2.9218    3.2767    0.0000 C   0  0  0  0  0  0  0  0  0  0  0  0
    3.6363    3.6892    0.0000 Cl  0  0  0  0  0  0  0  0  0  0  0  0
    3.9558   -0.8695    0.0000 H   0  0  0  0  0  0  0  0  0  0  0  0
    4.3217    0.1361    0.0000 H   0  0  0  0  0  0  0  0  0  0  0  0
    2.0895   -1.1985    0.0000 H   0  0  0  0  0  0  0  0  0  0  0  0
    1.4018   -0.3788    0.0000 H   0  0  0  0  0  0  0  0  0  0  0  0
    3.3686    2.3160    0.0000 H   0  0  0  0  0  0  0  0  0  0  0  0
    3.9160    1.7310    0.0000 H   0  0  0  0  0  0  0  0  0  0  0  0
    4.5269   -0.7687    0.0000 H   0  0  0  0  0  0  0  0  0  0  0  0
    5.5806   -0.5829    0.0000 H   0  0  0  0  0  0  0  0  0  0  0  0
    6.0714    1.3855    0.0000 H   0  0  0  0  0  0  0  0  0  0  0  0
    6.7591    0.5658    0.0000 H   0  0  0  0  0  0  0  0  0  0  0  0
    4.6922   -0.4505    0.0000 H   0  0  0  0  0  0  0  0  0  0  0  0
    0.5663    1.9167    0.0000 H   0  0  0  0  0  0  0  0  0  0  0  0
    0.5663    2.9867    0.0000 H   0  0  0  0  0  0  0  0  0  0  0  0
    2.4195    3.8117    0.0000 H   0  0  0  0  0  0  0  0  0  0  0  0
    1.4929    4.3467    0.0000 H   0  0  0  0  0  0  0  0  0  0  0  0
    3.8485    1.9167    0.0000 H   0  0  0  0  0  0  0  0  0  0  0  0
    3.8484    2.9867    0.0000 H   0  0  0  0  0  0  0  0  0  0  0  0
    1.9952    3.8117    0.0000 H   0  0  0  0  0  0  0  0  0  0  0  0
    2.9218    4.3467    0.0000 H   0  0  0  0  0  0  0  0  0  0  0  0
  1  2  1  0  0  0  0
  1  7  1  0  0  0  0
  1 22  1  0  0  0  0
  1 23  1  0  0  0  0
  2  3  1  0  0  0  0
  2 24  1  0  0  0  0
  2 25  1  0  0  0  0
  3  4  1  0  0  0  0
  4  5  2  1  0  0  0
  4  6  1  0  0  0  0
  4 15  1  0  0  0  0
  6  7  1  0  0  0  0
  6 26  1  0  0  0  0
  7  8  1  0  0  0  0
  7 27  1  6  0  0  0
  8  9  1  0  0  0  0
  9 10  1  0  0  0  0
  9 28  1  0  0  0  0
  9 29  1  0  0  0  0
 10 11  1  0  0  0  0
 10 30  1  0  0  0  0
 10 31  1  0  0  0  0
 11 12  2  0  0  0  0
 11 13  2  0  0  0  0
 11 14  1  0  0  0  0
 14 32  1  0  0  0  0
 15 16  1  0  0  0  0
 15 19  1  0  0  0  0
 16 17  1  0  0  0  0
 16 33  1  0  0  0  0
 16 34  1  0  0  0  0
 17 18  1  0  0  0  0
 17 35  1  0  0  0  0
 17 36  1  0  0  0  0
 19 20  1  0  0  0  0
 19 37  1  0  0  0  0
 19 38  1  0  0  0  0
 20 21  1  0  0  0  0
 20 39  1  0  0  0  0
 20 40  1  0  0  0  0
M  END
>  <DRUGBANK_ID>
DB12083

>  <COMMON_NAME>
Mafosfamide

>  <CAS_NUMBER>
88859-04-5

>  <UNII>
5970HH9923

>  <SYNONYMS>
Mafosfamide

$$$$
