
 OpenBabel10282417072D

 64 67  0  0  0  0  0  0  0  0999 V2000
   -4.6508   -2.4789    0.0000 F   0  0  0  0  0  0  0  0  0  0  0  0
   -1.7858    2.4789    0.0000 F   0  0  0  0  0  0  0  0  0  0  0  0
    1.0604   -0.8232    0.0000 O   0  0  0  0  0  0  0  0  0  0  0  0
    2.5021   -0.0046    0.0000 O   0  0  0  0  0  0  0  0  0  0  0  0
    3.9345   -0.8232    0.0000 O   0  0  0  0  0  0  0  0  0  0  0  0
   -1.0697   -1.2418    0.0000 N   0  0  0  0  0  0  0  0  0  0  0  0
    0.3534   -2.0696    0.0000 N   0  0  0  0  0  0  0  0  0  0  0  0
   -1.7858   -0.8232    0.0000 C   0  0  0  0  0  0  0  0  0  0  0  0
    1.7858   -1.2418    0.0000 C   0  0  0  0  0  0  0  0  0  0  0  0
    1.7858   -2.0696    0.0000 C   0  0  0  0  0  0  0  0  0  0  0  0
   -2.5021   -1.2418    0.0000 C   0  0  0  0  0  0  0  0  0  0  0  0
   -1.7858   -0.0046    0.0000 C   0  0  0  0  0  0  0  0  0  0  0  0
    2.5021   -0.8232    0.0000 C   0  0  0  0  0  0  0  0  0  0  0  0
    3.2091   -1.2418    0.0000 C   0  0  0  0  0  0  0  0  0  0  0  0
    1.0604   -2.4789    0.0000 C   0  0  0  0  0  0  0  0  0  0  0  0
   -1.0697   -2.0696    0.0000 C   0  0  0  0  0  0  0  0  0  0  0  0
   -0.3534   -0.8232    0.0000 C   0  0  0  0  0  0  0  0  0  0  0  0
    2.5021   -2.4789    0.0000 C   0  0  0  0  0  0  0  0  0  0  0  0
   -0.3534   -2.4789    0.0000 C   0  0  0  0  0  0  0  0  0  0  0  0
    0.3534   -1.2418    0.0000 C   0  0  0  0  0  0  0  0  0  0  0  0
    3.2091   -2.0696    0.0000 C   0  0  0  0  0  0  0  0  0  0  0  0
   -2.5021   -2.0696    0.0000 C   0  0  0  0  0  0  0  0  0  0  0  0
   -2.5021    0.4046    0.0000 C   0  0  0  0  0  0  0  0  0  0  0  0
   -3.2183   -0.8232    0.0000 C   0  0  0  0  0  0  0  0  0  0  0  0
   -1.0697    0.4046    0.0000 C   0  0  0  0  0  0  0  0  0  0  0  0
   -3.2183   -2.4789    0.0000 C   0  0  0  0  0  0  0  0  0  0  0  0
   -2.5021    1.2417    0.0000 C   0  0  0  0  0  0  0  0  0  0  0  0
   -3.9345   -1.2418    0.0000 C   0  0  0  0  0  0  0  0  0  0  0  0
   -1.0697    1.2417    0.0000 C   0  0  0  0  0  0  0  0  0  0  0  0
   -3.9345   -2.0696    0.0000 C   0  0  0  0  0  0  0  0  0  0  0  0
   -1.7858    1.6509    0.0000 C   0  0  0  0  0  0  0  0  0  0  0  0
    1.0604   -0.0046    0.0000 C   0  0  0  0  0  0  0  0  0  0  0  0
    3.2091    0.4046    0.0000 C   0  0  0  0  0  0  0  0  0  0  0  0
    4.6508   -1.2418    0.0000 C   0  0  0  0  0  0  0  0  0  0  0  0
   -2.7139   -0.2906    0.0000 H   0  0  0  0  0  0  0  0  0  0  0  0
    1.0545   -3.5489    0.0000 H   0  0  0  0  0  0  0  0  0  0  0  0
    1.9829   -3.0210    0.0000 H   0  0  0  0  0  0  0  0  0  0  0  0
   -1.9951   -2.6067    0.0000 H   0  0  0  0  0  0  0  0  0  0  0  0
   -1.0661   -3.1396    0.0000 H   0  0  0  0  0  0  0  0  0  0  0  0
   -0.3503    0.2468    0.0000 H   0  0  0  0  0  0  0  0  0  0  0  0
    0.5770   -0.2947    0.0000 H   0  0  0  0  0  0  0  0  0  0  0  0
    2.5050   -3.5109    0.0000 H   0  0  0  0  0  0  0  0  0  0  0  0
   -0.3503   -3.5489    0.0000 H   0  0  0  0  0  0  0  0  0  0  0  0
   -1.2781   -3.0173    0.0000 H   0  0  0  0  0  0  0  0  0  0  0  0
    1.2830   -0.7120    0.0000 H   0  0  0  0  0  0  0  0  0  0  0  0
    0.3623   -0.1718    0.0000 H   0  0  0  0  0  0  0  0  0  0  0  0
    4.1031   -2.5851    0.0000 H   0  0  0  0  0  0  0  0  0  0  0  0
   -1.6095   -2.5876    0.0000 H   0  0  0  0  0  0  0  0  0  0  0  0
   -3.3947   -0.1134    0.0000 H   0  0  0  0  0  0  0  0  0  0  0  0
   -3.2183    0.2088    0.0000 H   0  0  0  0  0  0  0  0  0  0  0  0
   -0.1771   -0.1134    0.0000 H   0  0  0  0  0  0  0  0  0  0  0  0
   -3.2183   -3.5109    0.0000 H   0  0  0  0  0  0  0  0  0  0  0  0
   -3.3947    1.7597    0.0000 H   0  0  0  0  0  0  0  0  0  0  0  0
   -4.8296   -0.7282    0.0000 H   0  0  0  0  0  0  0  0  0  0  0  0
   -0.1771    1.7597    0.0000 H   0  0  0  0  0  0  0  0  0  0  0  0
    1.9870    0.5304    0.0000 H   0  0  0  0  0  0  0  0  0  0  0  0
    0.1338    0.5304    0.0000 H   0  0  0  0  0  0  0  0  0  0  0  0
    1.0604    1.0654    0.0000 H   0  0  0  0  0  0  0  0  0  0  0  0
    4.1363   -0.1294    0.0000 H   0  0  0  0  0  0  0  0  0  0  0  0
    3.2080    1.4746    0.0000 H   0  0  0  0  0  0  0  0  0  0  0  0
    4.1352    0.9406    0.0000 H   0  0  0  0  0  0  0  0  0  0  0  0
    4.6452   -2.3118    0.0000 H   0  0  0  0  0  0  0  0  0  0  0  0
    5.5803   -0.7117    0.0000 H   0  0  0  0  0  0  0  0  0  0  0  0
    5.5746   -1.7817    0.0000 H   0  0  0  0  0  0  0  0  0  0  0  0
  1 30  1  0  0  0  0
  2 31  1  0  0  0  0
  3  9  1  0  0  0  0
  3 32  1  0  0  0  0
  4 13  1  0  0  0  0
  4 33  1  0  0  0  0
  5 14  1  0  0  0  0
  5 34  1  0  0  0  0
  6  8  1  0  0  0  0
  6 16  1  0  0  0  0
  6 17  1  0  0  0  0
  7 15  1  0  0  0  0
  7 19  1  0  0  0  0
  7 20  1  0  0  0  0
  8 11  1  0  0  0  0
  8 12  1  0  0  0  0
  8 35  1  0  0  0  0
  9 10  1  0  0  0  0
  9 13  2  0  0  0  0
 10 15  1  0  0  0  0
 10 18  2  0  0  0  0
 11 22  2  0  0  0  0
 11 24  1  0  0  0  0
 12 23  2  0  0  0  0
 12 25  1  0  0  0  0
 13 14  1  0  0  0  0
 14 21  2  0  0  0  0
 15 36  1  0  0  0  0
 15 37  1  0  0  0  0
 16 19  1  0  0  0  0
 16 38  1  0  0  0  0
 16 39  1  0  0  0  0
 17 20  1  0  0  0  0
 17 40  1  0  0  0  0
 17 41  1  0  0  0  0
 18 21  1  0  0  0  0
 18 42  1  0  0  0  0
 19 43  1  0  0  0  0
 19 44  1  0  0  0  0
 20 45  1  0  0  0  0
 20 46  1  0  0  0  0
 21 47  1  0  0  0  0
 22 26  1  0  0  0  0
 22 48  1  0  0  0  0
 23 27  1  0  0  0  0
 23 49  1  0  0  0  0
 24 28  2  0  0  0  0
 24 50  1  0  0  0  0
 25 29  2  0  0  0  0
 25 51  1  0  0  0  0
 26 30  2  0  0  0  0
 26 52  1  0  0  0  0
 27 31  2  0  0  0  0
 27 53  1  0  0  0  0
 28 30  1  0  0  0  0
 28 54  1  0  0  0  0
 29 31  1  0  0  0  0
 29 55  1  0  0  0  0
 32 56  1  0  0  0  0
 32 57  1  0  0  0  0
 32 58  1  0  0  0  0
 33 59  1  0  0  0  0
 33 60  1  0  0  0  0
 33 61  1  0  0  0  0
 34 62  1  0  0  0  0
 34 63  1  0  0  0  0
 34 64  1  0  0  0  0
M  END
>  <DRUGBANK_ID>
DB14065

>  <COMMON_NAME>
Lomerizine

>  <CAS_NUMBER>
101477-55-8

>  <UNII>
DEE37CY4VO

>  <SYNONYMS>
Lomerazine; Lomerizine

$$$$
