823
 OpenBabel10282417072D

 60 63  0  0  1  0  0  0  0  0999 V2000
    8.9774    0.8591    0.0000 O   0  0  0  0  0  0  0  0  0  0  0  0
    3.0790   -2.3944    0.0000 O   0  0  0  0  0  0  0  0  0  0  0  0
    9.8152   -0.2985    0.0000 O   0  0  0  0  0  0  0  0  0  0  0  0
    2.3693   -1.1541    0.0000 O   0  0  0  0  0  0  0  0  0  0  0  0
    7.5284    0.1238    0.0000 C   0  0  1  0  0  0  0  0  0  0  0  0
    7.5284   -0.7012    0.0000 C   0  0  2  0  0  0  0  0  0  0  0  0
    6.8139   -1.1137    0.0000 C   0  0  1  0  0  0  0  0  0  0  0  0
    6.0994   -0.7012    0.0000 C   0  0  2  0  0  0  0  0  0  0  0  0
    8.3090    0.3753    0.0000 C   0  0  2  0  0  0  0  0  0  0  0  0
    6.8139    0.5363    0.0000 C   0  0  0  0  0  0  0  0  0  0  0  0
    8.3090   -0.9526    0.0000 C   0  0  0  0  0  0  0  0  0  0  0  0
    6.0994    0.1238    0.0000 C   0  0  0  0  0  0  0  0  0  0  0  0
    5.3487   -1.1193    0.0000 C   0  0  2  0  0  0  0  0  0  0  0  0
    8.7906   -0.2887    0.0000 C   0  0  0  0  0  0  0  0  0  0  0  0
    6.8272   -1.9729    0.0000 C   0  0  0  0  0  0  0  0  0  0  0  0
    7.5284    0.9489    0.0000 C   0  0  0  0  0  0  0  0  0  0  0  0
    5.3420   -1.9786    0.0000 C   0  0  0  0  0  0  0  0  0  0  0  0
    6.0862   -2.4083    0.0000 C   0  0  0  0  0  0  0  0  0  0  0  0
    4.5840   -0.6539    0.0000 C   0  0  0  0  0  0  0  0  0  0  0  0
    3.8019   -1.0895    0.0000 C   0  0  0  0  0  0  0  0  0  0  0  0
    8.0555    1.1604    0.0000 C   0  0  0  0  0  0  0  0  0  0  0  0
    4.5703   -2.4322    0.0000 C   0  0  0  0  0  0  0  0  0  0  0  0
    3.7951   -1.9846    0.0000 C   0  0  1  0  0  0  0  0  0  0  0  0
    9.7304    0.5222    0.0000 C   0  0  0  0  0  0  0  0  0  0  0  0
    7.8019    1.9454    0.0000 C   0  0  0  0  0  0  0  0  0  0  0  0
   10.3987    1.0059    0.0000 C   0  0  0  0  0  0  0  0  0  0  0  0
    2.3661   -1.9791    0.0000 C   0  0  0  0  0  0  0  0  0  0  0  0
    1.6500   -2.3888    0.0000 C   0  0  0  0  0  0  0  0  0  0  0  0
    7.5983   -1.3575    0.0000 H   0  0  0  0  0  0  0  0  0  0  0  0
    7.3880   -1.4392    0.0000 H   0  0  0  0  0  0  0  0  0  0  0  0
    6.6710   -0.3712    0.0000 H   0  0  0  0  0  0  0  0  0  0  0  0
    5.3614   -0.4595    0.0000 H   0  0  0  0  0  0  0  0  0  0  0  0
    6.8139    1.6063    0.0000 H   0  0  0  0  0  0  0  0  0  0  0  0
    5.8873    1.0713    0.0000 H   0  0  0  0  0  0  0  0  0  0  0  0
    8.6413   -1.9697    0.0000 H   0  0  0  0  0  0  0  0  0  0  0  0
    9.3660   -1.1187    0.0000 H   0  0  0  0  0  0  0  0  0  0  0  0
    5.1728    0.6588    0.0000 H   0  0  0  0  0  0  0  0  0  0  0  0
    6.0994    1.1938    0.0000 H   0  0  0  0  0  0  0  0  0  0  0  0
    9.8606   -0.2887    0.0000 H   0  0  0  0  0  0  0  0  0  0  0  0
    9.2767   -1.2419    0.0000 H   0  0  0  0  0  0  0  0  0  0  0  0
    7.7600   -2.4972    0.0000 H   0  0  0  0  0  0  0  0  0  0  0  0
    6.8375   -3.0429    0.0000 H   0  0  0  0  0  0  0  0  0  0  0  0
    8.4550    1.4839    0.0000 H   0  0  0  0  0  0  0  0  0  0  0  0
    6.6018    1.4839    0.0000 H   0  0  0  0  0  0  0  0  0  0  0  0
    7.5284    2.0189    0.0000 H   0  0  0  0  0  0  0  0  0  0  0  0
    6.0903   -3.4783    0.0000 H   0  0  0  0  0  0  0  0  0  0  0  0
    5.1606   -2.9450    0.0000 H   0  0  0  0  0  0  0  0  0  0  0  0
    4.6046    0.4159    0.0000 H   0  0  0  0  0  0  0  0  0  0  0  0
    3.6668   -0.1029    0.0000 H   0  0  0  0  0  0  0  0  0  0  0  0
    2.8815   -0.5439    0.0000 H   0  0  0  0  0  0  0  0  0  0  0  0
    2.8702   -1.6156    0.0000 H   0  0  0  0  0  0  0  0  0  0  0  0
    4.5743   -3.4642    0.0000 H   0  0  0  0  0  0  0  0  0  0  0  0
    2.8715   -1.4443    0.0000 H   0  0  0  0  0  0  0  0  0  0  0  0
    7.4963    2.8913    0.0000 H   0  0  0  0  0  0  0  0  0  0  0  0
   11.3754    0.5689    0.0000 H   0  0  0  0  0  0  0  0  0  0  0  0
   10.2888    2.0702    0.0000 H   0  0  0  0  0  0  0  0  0  0  0  0
   11.2655    1.6333    0.0000 H   0  0  0  0  0  0  0  0  0  0  0  0
    0.7255   -1.8502    0.0000 H   0  0  0  0  0  0  0  0  0  0  0  0
    1.6458   -3.4588    0.0000 H   0  0  0  0  0  0  0  0  0  0  0  0
    0.7213   -2.9202    0.0000 H   0  0  0  0  0  0  0  0  0  0  0  0
  1 24  1  0  0  0  0
  2 27  1  0  0  0  0
  3 24  2  0  0  0  0
  4 27  2  0  0  0  0
  5  6  1  0  0  0  0
  5  9  1  0  0  0  0
  5 10  1  0  0  0  0
  5 16  1  1  0  0  0
  6  7  1  0  0  0  0
  6 11  1  0  0  0  0
  6 29  1  6  0  0  0
  7  8  1  0  0  0  0
  7 15  1  0  0  0  0
  7 30  1  1  0  0  0
  8 12  1  0  0  0  0
  8 13  1  0  0  0  0
  8 31  1  6  0  0  0
  9  1  1  0  0  0  0
  9 14  1  0  0  0  0
  9 21  1  6  0  0  0
 10 12  1  0  0  0  0
 10 33  1  0  0  0  0
 10 34  1  0  0  0  0
 11 14  1  0  0  0  0
 11 35  1  0  0  0  0
 11 36  1  0  0  0  0
 12 37  1  0  0  0  0
 12 38  1  0  0  0  0
 13 17  1  0  0  0  0
 13 19  1  0  0  0  0
 13 32  1  1  0  0  0
 14 39  1  0  0  0  0
 14 40  1  0  0  0  0
 15 18  1  0  0  0  0
 15 41  1  0  0  0  0
 15 42  1  0  0  0  0
 16 43  1  0  0  0  0
 16 44  1  0  0  0  0
 16 45  1  0  0  0  0
 17 18  1  0  0  0  0
 17 22  2  0  0  0  0
 18 46  1  0  0  0  0
 18 47  1  0  0  0  0
 19 20  1  0  0  0  0
 19 48  1  0  0  0  0
 19 49  1  0  0  0  0
 20 23  1  0  0  0  0
 20 50  1  0  0  0  0
 20 51  1  0  0  0  0
 21 25  3  0  0  0  0
 22 23  1  0  0  0  0
 22 52  1  0  0  0  0
 23  2  1  0  0  0  0
 23 53  1  6  0  0  0
 24 26  1  0  0  0  0
 25 54  1  0  0  0  0
 26 55  1  0  0  0  0
 26 56  1  0  0  0  0
 26 57  1  0  0  0  0
 27 28  1  0  0  0  0
 28 58  1  0  0  0  0
 28 59  1  0  0  0  0
 28 60  1  0  0  0  0
M  END
>  <DRUGBANK_ID>
DB00823

>  <SECONDARY_ACCESSION_NUMBERS>
APRD00760

>  <COMMON_NAME>
Ethynodiol diacetate

>  <CAS_NUMBER>
297-76-7

>  <UNII>
62H10A1236

>  <SYNONYMS>
17α-Ethynyl-19-norandrost-4-ene-3β,17-beta-diol diacetate; 17α-Ethynyl-3,17-dihydroxy-4-estrene diacetate; 17α-Ethynyl-4-estrene-3β,17β-diol diacetate; 17α-Ethynylestr-4-ene-3β,17β-diol acetate; 19-Nor-17α-pregn-4-en-20-yne-3β,17-diol diacetate; 3β, 17β-Diacetoxy-17α-ethynyl-4-oestrene; 3β,17β-Diacetoxy-19-nor-17α-pregn-4-en-20-yne; Ethynodiol diacetate; Etynodiol acetate; Etynodiol diacetate

$$$$
