
 OpenBabel10282417072D

 66 70  0  0  0  0  0  0  0  0999 V2000
    0.0000    0.7414    0.0000 C   0  0  0  0  0  0  0  0  0  0  0  0
    0.0000    1.5664    0.0000 O   0  0  0  0  0  0  0  0  0  0  0  0
   -0.7144    0.3289    0.0000 C   0  0  0  0  0  0  0  0  0  0  0  0
   -1.4289    0.7414    0.0000 C   0  0  0  0  0  0  0  0  0  0  0  0
   -0.7144   -0.4960    0.0000 C   0  0  0  0  0  0  0  0  0  0  0  0
   -2.1434    0.3289    0.0000 C   0  0  0  0  0  0  0  0  0  0  0  0
   -1.4289   -0.9085    0.0000 C   0  0  0  0  0  0  0  0  0  0  0  0
   -2.1434   -0.4960    0.0000 C   0  0  0  0  0  0  0  0  0  0  0  0
    0.7144    0.3289    0.0000 N   0  0  0  0  0  0  0  0  0  0  0  0
   -2.8578   -0.9085    0.0000 C   0  0  0  0  0  0  0  0  0  0  0  0
   -2.8578   -1.7335    0.0000 N   0  0  0  0  0  0  0  0  0  0  0  0
   -2.8578   -3.3835    0.0000 N   0  0  0  0  0  0  0  0  0  0  0  0
   -2.1434   -2.9710    0.0000 C   0  0  0  0  0  0  0  0  0  0  0  0
   -3.5723   -2.1460    0.0000 C   0  0  0  0  0  0  0  0  0  0  0  0
   -3.5723   -2.9710    0.0000 C   0  0  0  0  0  0  0  0  0  0  0  0
   -2.1434   -2.1460    0.0000 C   0  0  0  0  0  0  0  0  0  0  0  0
   -2.8578   -4.2085    0.0000 C   0  0  0  0  0  0  0  0  0  0  0  0
    2.1433    1.9789    0.0000 C   0  0  0  0  0  0  0  0  0  0  0  0
    2.8578    1.5664    0.0000 C   0  0  0  0  0  0  0  0  0  0  0  0
    2.8578    0.7414    0.0000 C   0  0  0  0  0  0  0  0  0  0  0  0
    2.1433    0.3289    0.0000 C   0  0  0  0  0  0  0  0  0  0  0  0
    1.4288    0.7414    0.0000 C   0  0  0  0  0  0  0  0  0  0  0  0
    1.4288    1.5664    0.0000 C   0  0  0  0  0  0  0  0  0  0  0  0
    3.5723    1.9789    0.0000 C   0  0  0  0  0  0  0  0  0  0  0  0
    2.1433    2.8039    0.0000 N   0  0  0  0  0  0  0  0  0  0  0  0
    1.3426    4.0369    0.0000 S   0  0  0  0  0  0  0  0  0  0  0  0
    1.4288    3.2164    0.0000 C   0  0  0  0  0  0  0  0  0  0  0  0
    0.6752    2.8809    0.0000 N   0  0  0  0  0  0  0  0  0  0  0  0
    0.1232    3.4939    0.0000 C   0  0  0  0  0  0  0  0  0  0  0  0
    0.5357    4.2085    0.0000 C   0  0  0  0  0  0  0  0  0  0  0  0
   -1.8533    2.5678    0.0000 N   0  0  0  0  0  0  0  0  0  0  0  0
   -2.3382    3.2353    0.0000 C   0  0  0  0  0  0  0  0  0  0  0  0
   -1.0328    2.6541    0.0000 C   0  0  0  0  0  0  0  0  0  0  0  0
   -0.6973    3.4077    0.0000 C   0  0  0  0  0  0  0  0  0  0  0  0
   -2.0026    3.9889    0.0000 C   0  0  0  0  0  0  0  0  0  0  0  0
   -1.1822    4.0752    0.0000 C   0  0  0  0  0  0  0  0  0  0  0  0
   -1.4289    1.7734    0.0000 H   0  0  0  0  0  0  0  0  0  0  0  0
    0.1793   -1.0120    0.0000 H   0  0  0  0  0  0  0  0  0  0  0  0
   -3.0371    0.8449    0.0000 H   0  0  0  0  0  0  0  0  0  0  0  0
   -1.4289   -1.9405    0.0000 H   0  0  0  0  0  0  0  0  0  0  0  0
    0.7144   -0.6556    0.0000 H   0  0  0  0  0  0  0  0  0  0  0  0
   -3.7845   -0.3735    0.0000 H   0  0  0  0  0  0  0  0  0  0  0  0
   -3.7844   -1.4435    0.0000 H   0  0  0  0  0  0  0  0  0  0  0  0
   -1.2167   -3.5060    0.0000 H   0  0  0  0  0  0  0  0  0  0  0  0
   -1.2168   -2.4360    0.0000 H   0  0  0  0  0  0  0  0  0  0  0  0
   -4.4989   -1.6110    0.0000 H   0  0  0  0  0  0  0  0  0  0  0  0
   -4.4989   -2.6810    0.0000 H   0  0  0  0  0  0  0  0  0  0  0  0
   -4.4989   -3.5060    0.0000 H   0  0  0  0  0  0  0  0  0  0  0  0
   -4.4989   -2.4360    0.0000 H   0  0  0  0  0  0  0  0  0  0  0  0
   -1.2167   -1.6110    0.0000 H   0  0  0  0  0  0  0  0  0  0  0  0
   -1.2168   -2.6810    0.0000 H   0  0  0  0  0  0  0  0  0  0  0  0
   -3.7844   -4.7435    0.0000 H   0  0  0  0  0  0  0  0  0  0  0  0
   -1.9312   -4.7435    0.0000 H   0  0  0  0  0  0  0  0  0  0  0  0
   -2.8578   -5.2785    0.0000 H   0  0  0  0  0  0  0  0  0  0  0  0
    3.7515    0.2254    0.0000 H   0  0  0  0  0  0  0  0  0  0  0  0
    2.1433   -0.7031    0.0000 H   0  0  0  0  0  0  0  0  0  0  0  0
    0.5351    2.0824    0.0000 H   0  0  0  0  0  0  0  0  0  0  0  0
    4.4989    1.4439    0.0000 H   0  0  0  0  0  0  0  0  0  0  0  0
    3.5723    3.0489    0.0000 H   0  0  0  0  0  0  0  0  0  0  0  0
    4.4990    2.5139    0.0000 H   0  0  0  0  0  0  0  0  0  0  0  0
    2.9959    3.2962    0.0000 H   0  0  0  0  0  0  0  0  0  0  0  0
    0.1160    5.1513    0.0000 H   0  0  0  0  0  0  0  0  0  0  0  0
   -3.3646    3.1275    0.0000 H   0  0  0  0  0  0  0  0  0  0  0  0
   -0.4262    1.8192    0.0000 H   0  0  0  0  0  0  0  0  0  0  0  0
   -2.6092    4.8238    0.0000 H   0  0  0  0  0  0  0  0  0  0  0  0
   -0.7625    5.0180    0.0000 H   0  0  0  0  0  0  0  0  0  0  0  0
  2  1  2  0  0  0  0
  3  1  1  0  0  0  0
  4  3  2  0  0  0  0
  4 37  1  0  0  0  0
  5  3  1  0  0  0  0
  5 38  1  0  0  0  0
  6  4  1  0  0  0  0
  6 39  1  0  0  0  0
  7  5  2  0  0  0  0
  7 40  1  0  0  0  0
  8  6  2  0  0  0  0
  8  7  1  0  0  0  0
  9  1  1  0  0  0  0
  9 41  1  0  0  0  0
 10  8  1  0  0  0  0
 10 42  1  0  0  0  0
 10 43  1  0  0  0  0
 11 10  1  0  0  0  0
 13 12  1  0  0  0  0
 13 44  1  0  0  0  0
 13 45  1  0  0  0  0
 14 11  1  0  0  0  0
 14 46  1  0  0  0  0
 14 47  1  0  0  0  0
 15 12  1  0  0  0  0
 15 14  1  0  0  0  0
 15 48  1  0  0  0  0
 15 49  1  0  0  0  0
 16 11  1  0  0  0  0
 16 13  1  0  0  0  0
 16 50  1  0  0  0  0
 16 51  1  0  0  0  0
 17 12  1  0  0  0  0
 17 52  1  0  0  0  0
 17 53  1  0  0  0  0
 17 54  1  0  0  0  0
 19 18  1  0  0  0  0
 20 19  2  0  0  0  0
 20 55  1  0  0  0  0
 21 20  1  0  0  0  0
 21 56  1  0  0  0  0
 22  9  1  0  0  0  0
 22 21  2  0  0  0  0
 23 18  2  0  0  0  0
 23 22  1  0  0  0  0
 23 57  1  0  0  0  0
 24 19  1  0  0  0  0
 24 58  1  0  0  0  0
 24 59  1  0  0  0  0
 24 60  1  0  0  0  0
 25 18  1  0  0  0  0
 25 61  1  0  0  0  0
 27 25  1  0  0  0  0
 27 26  1  0  0  0  0
 28 27  2  0  0  0  0
 29 28  1  0  0  0  0
 30 26  1  0  0  0  0
 30 29  2  0  0  0  0
 30 62  1  0  0  0  0
 32 31  2  0  0  0  0
 32 63  1  0  0  0  0
 33 31  1  0  0  0  0
 33 64  1  0  0  0  0
 34 29  1  0  0  0  0
 34 33  2  0  0  0  0
 35 32  1  0  0  0  0
 35 65  1  0  0  0  0
 36 34  1  0  0  0  0
 36 35  2  0  0  0  0
 36 66  1  0  0  0  0
M  END
>  <DRUGBANK_ID>
DB11526

>  <COMMON_NAME>
Masitinib

>  <CAS_NUMBER>
790299-79-5

>  <UNII>
M59NC4E26P

>  <SYNONYMS>
4-((4-METHYLPIPERAZIN-1-YL)METHYL)-N-(4-METHYL-3-((4-PYRIDIN-3-YL-1,3-THIAZOL-2-YL)AMINO)PHENYL)BENZAMIDE; Masitinib

$$$$
