
 OpenBabel10282417072D

 50 52  0  0  0  0  0  0  0  0999 V2000
   -2.1434   -0.1509    0.0000 C   0  0  0  0  0  0  0  0  0  0  0  0
   -2.8578   -0.5634    0.0000 C   0  0  0  0  0  0  0  0  0  0  0  0
   -2.8578   -1.3885    0.0000 C   0  0  0  0  0  0  0  0  0  0  0  0
   -2.1434   -1.8010    0.0000 N   0  0  0  0  0  0  0  0  0  0  0  0
   -1.4289   -1.3885    0.0000 C   0  0  2  0  0  0  0  0  0  0  0  0
   -1.4289   -0.5634    0.0000 C   0  0  1  0  0  0  0  0  0  0  0  0
   -0.7144   -0.1509    0.0000 N   0  0  0  0  0  0  0  0  0  0  0  0
   -0.7144   -1.8010    0.0000 C   0  0  0  0  0  0  0  0  0  0  0  0
    0.0000   -0.5634    0.0000 C   0  0  0  0  0  0  0  0  0  0  0  0
    0.7144   -0.1509    0.0000 C   0  0  0  0  0  0  0  0  0  0  0  0
    0.0000   -1.3885    0.0000 C   0  0  0  0  0  0  0  0  0  0  0  0
   -0.7144   -2.6260    0.0000 C   0  0  0  0  0  0  0  0  0  0  0  0
    0.0000   -3.0385    0.0000 C   0  0  0  0  0  0  0  0  0  0  0  0
    0.7144   -2.6260    0.0000 C   0  0  0  0  0  0  0  0  0  0  0  0
    0.7144   -1.8010    0.0000 C   0  0  0  0  0  0  0  0  0  0  0  0
    1.4289    1.0865    0.0000 C   0  0  0  0  0  0  0  0  0  0  0  0
    0.7144    0.6740    0.0000 C   0  0  0  0  0  0  0  0  0  0  0  0
    1.4289   -0.5635    0.0000 C   0  0  0  0  0  0  0  0  0  0  0  0
    2.1433   -0.1509    0.0000 C   0  0  0  0  0  0  0  0  0  0  0  0
    2.1433    0.6740    0.0000 C   0  0  0  0  0  0  0  0  0  0  0  0
    1.4289    1.9115    0.0000 O   0  0  0  0  0  0  0  0  0  0  0  0
    1.4289   -1.3885    0.0000 O   0  0  0  0  0  0  0  0  0  0  0  0
    2.1433   -1.8010    0.0000 C   0  0  0  0  0  0  0  0  0  0  0  0
    2.1433    2.3240    0.0000 C   0  0  0  0  0  0  0  0  0  0  0  0
    2.8578    2.7365    0.0000 F   0  0  0  0  0  0  0  0  0  0  0  0
    2.5558    1.6095    0.0000 F   0  0  0  0  0  0  0  0  0  0  0  0
    1.7308    3.0385    0.0000 F   0  0  0  0  0  0  0  0  0  0  0  0
   -2.1434    0.9191    0.0000 H   0  0  0  0  0  0  0  0  0  0  0  0
   -1.2168    0.3841    0.0000 H   0  0  0  0  0  0  0  0  0  0  0  0
   -3.7845   -0.0284    0.0000 H   0  0  0  0  0  0  0  0  0  0  0  0
   -3.7844   -1.0984    0.0000 H   0  0  0  0  0  0  0  0  0  0  0  0
   -3.7845   -1.9235    0.0000 H   0  0  0  0  0  0  0  0  0  0  0  0
   -2.8578   -2.4585    0.0000 H   0  0  0  0  0  0  0  0  0  0  0  0
   -2.1434   -2.8210    0.0000 H   0  0  0  0  0  0  0  0  0  0  0  0
   -1.4289   -2.4585    0.0000 H   0  0  0  0  0  0  0  0  0  0  0  0
   -1.4289    0.5066    0.0000 H   0  0  0  0  0  0  0  0  0  0  0  0
   -0.7144    0.8691    0.0000 H   0  0  0  0  0  0  0  0  0  0  0  0
    0.0000   -1.6334    0.0000 H   0  0  0  0  0  0  0  0  0  0  0  0
    0.9267   -1.0984    0.0000 H   0  0  0  0  0  0  0  0  0  0  0  0
    0.0000   -0.3565    0.0000 H   0  0  0  0  0  0  0  0  0  0  0  0
   -1.6081   -3.1420    0.0000 H   0  0  0  0  0  0  0  0  0  0  0  0
    0.0000   -4.0705    0.0000 H   0  0  0  0  0  0  0  0  0  0  0  0
    1.6081   -3.1420    0.0000 H   0  0  0  0  0  0  0  0  0  0  0  0
    1.6081   -1.2850    0.0000 H   0  0  0  0  0  0  0  0  0  0  0  0
   -0.1793    1.1900    0.0000 H   0  0  0  0  0  0  0  0  0  0  0  0
    3.0371   -0.6668    0.0000 H   0  0  0  0  0  0  0  0  0  0  0  0
    3.0370    1.1900    0.0000 H   0  0  0  0  0  0  0  0  0  0  0  0
    2.1433   -2.8710    0.0000 H   0  0  0  0  0  0  0  0  0  0  0  0
    3.0700   -1.2660    0.0000 H   0  0  0  0  0  0  0  0  0  0  0  0
    3.0699   -2.3360    0.0000 H   0  0  0  0  0  0  0  0  0  0  0  0
  1  2  1  0  0  0  0
  1  6  1  0  0  0  0
  1 28  1  0  0  0  0
  1 29  1  0  0  0  0
  2  3  1  0  0  0  0
  2 30  1  0  0  0  0
  2 31  1  0  0  0  0
  3  4  1  0  0  0  0
  3 32  1  0  0  0  0
  3 33  1  0  0  0  0
  4  5  1  0  0  0  0
  4 34  1  0  0  0  0
  5  6  1  0  0  0  0
  5  8  1  0  0  0  0
  5 35  1  1  0  0  0
  6  7  1  0  0  0  0
  6 36  1  1  0  0  0
  7  9  1  0  0  0  0
  7 37  1  0  0  0  0
  8 12  2  0  0  0  0
  9 10  1  0  0  0  0
  9 38  1  0  0  0  0
  9 39  1  0  0  0  0
 10 18  1  0  0  0  0
 11  8  1  0  0  0  0
 11 15  2  0  0  0  0
 11 40  1  0  0  0  0
 12 13  1  0  0  0  0
 12 41  1  0  0  0  0
 13 14  2  0  0  0  0
 13 42  1  0  0  0  0
 14 15  1  0  0  0  0
 14 43  1  0  0  0  0
 15 44  1  0  0  0  0
 16 17  1  0  0  0  0
 16 20  2  0  0  0  0
 16 21  1  0  0  0  0
 17 10  2  0  0  0  0
 17 45  1  0  0  0  0
 18 19  2  0  0  0  0
 18 22  1  0  0  0  0
 19 20  1  0  0  0  0
 19 46  1  0  0  0  0
 20 47  1  0  0  0  0
 21 24  1  0  0  0  0
 22 23  1  0  0  0  0
 23 48  1  0  0  0  0
 23 49  1  0  0  0  0
 23 50  1  0  0  0  0
 24 25  1  0  0  0  0
 24 26  1  0  0  0  0
 24 27  1  0  0  0  0
M  END
>  <DRUGBANK_ID>
DB05421

>  <COMMON_NAME>
CP-122721

>  <CAS_NUMBER>
145742-28-5

>  <UNII>
R7OYP6N58F

$$$$
