
 OpenBabel10282417072D

 34 34  0  0  0  0  0  0  0  0999 V2000
   -1.7785   -0.6060    0.0000 C   0  0  0  0  0  0  0  0  0  0  0  0
   -1.0618   -0.1975    0.0000 C   0  0  0  0  0  0  0  0  0  0  0  0
   -2.4974   -0.1975    0.0000 C   0  0  0  0  0  0  0  0  0  0  0  0
   -1.7785   -1.4558    0.0000 C   0  0  0  0  0  0  0  0  0  0  0  0
   -1.0618    0.6233    0.0000 C   0  0  0  0  0  0  0  0  0  0  0  0
   -2.4974    0.6194    0.0000 C   0  0  0  0  0  0  0  0  0  0  0  0
   -1.0618   -1.8682    0.0000 C   0  0  0  0  0  0  0  0  0  0  0  0
   -1.7651    1.0319    0.0000 C   0  0  0  0  0  0  0  0  0  0  0  0
   -0.3526   -1.4443    0.0000 C   0  0  0  0  0  0  0  0  0  0  0  0
   -1.7651    1.8682    0.0000 O   0  0  0  0  0  0  0  0  0  0  0  0
    0.3429   -1.8624    0.0000 C   0  0  0  0  0  0  0  0  0  0  0  0
    1.0579   -1.4558    0.0000 C   0  0  0  0  0  0  0  0  0  0  0  0
    1.7670   -1.8682    0.0000 C   0  0  0  0  0  0  0  0  0  0  0  0
    2.4974   -1.4577    0.0000 C   0  0  0  0  0  0  0  0  0  0  0  0
   -0.1695   -0.7160    0.0000 H   0  0  0  0  0  0  0  0  0  0  0  0
   -3.3894   -0.7166    0.0000 H   0  0  0  0  0  0  0  0  0  0  0  0
   -2.7048   -1.9915    0.0000 H   0  0  0  0  0  0  0  0  0  0  0  0
   -1.7773   -2.5258    0.0000 H   0  0  0  0  0  0  0  0  0  0  0  0
   -0.1674    1.1381    0.0000 H   0  0  0  0  0  0  0  0  0  0  0  0
   -3.3884    1.1401    0.0000 H   0  0  0  0  0  0  0  0  0  0  0  0
   -1.0529   -2.9382    0.0000 H   0  0  0  0  0  0  0  0  0  0  0  0
   -0.1289   -2.3923    0.0000 H   0  0  0  0  0  0  0  0  0  0  0  0
   -0.3512   -0.3743    0.0000 H   0  0  0  0  0  0  0  0  0  0  0  0
    0.5791   -0.9181    0.0000 H   0  0  0  0  0  0  0  0  0  0  0  0
   -0.9536    2.3367    0.0000 H   0  0  0  0  0  0  0  0  0  0  0  0
    0.3300   -2.9323    0.0000 H   0  0  0  0  0  0  0  0  0  0  0  0
    1.2645   -2.4060    0.0000 H   0  0  0  0  0  0  0  0  0  0  0  0
    1.0631   -0.3858    0.0000 H   0  0  0  0  0  0  0  0  0  0  0  0
    1.9867   -0.9245    0.0000 H   0  0  0  0  0  0  0  0  0  0  0  0
    1.7591   -2.9382    0.0000 H   0  0  0  0  0  0  0  0  0  0  0  0
    2.6885   -2.4120    0.0000 H   0  0  0  0  0  0  0  0  0  0  0  0
    3.4178   -2.0034    0.0000 H   0  0  0  0  0  0  0  0  0  0  0  0
    2.5098   -0.3878    0.0000 H   0  0  0  0  0  0  0  0  0  0  0  0
    3.4302   -0.9335    0.0000 H   0  0  0  0  0  0  0  0  0  0  0  0
  1  2  2  0  0  0  0
  1  3  1  0  0  0  0
  1  4  1  0  0  0  0
  2  5  1  0  0  0  0
  2 15  1  0  0  0  0
  3  6  2  0  0  0  0
  3 16  1  0  0  0  0
  4  7  1  0  0  0  0
  4 17  1  0  0  0  0
  4 18  1  0  0  0  0
  5  8  2  0  0  0  0
  5 19  1  0  0  0  0
  6  8  1  0  0  0  0
  6 20  1  0  0  0  0
  7  9  1  0  0  0  0
  7 21  1  0  0  0  0
  7 22  1  0  0  0  0
  8 10  1  0  0  0  0
  9 11  1  0  0  0  0
  9 23  1  0  0  0  0
  9 24  1  0  0  0  0
 10 25  1  0  0  0  0
 11 12  1  0  0  0  0
 11 26  1  0  0  0  0
 11 27  1  0  0  0  0
 12 13  1  0  0  0  0
 12 28  1  0  0  0  0
 12 29  1  0  0  0  0
 13 14  1  0  0  0  0
 13 30  1  0  0  0  0
 13 31  1  0  0  0  0
 14 32  1  0  0  0  0
 14 33  1  0  0  0  0
 14 34  1  0  0  0  0
M  END
>  <DRUGBANK_ID>
DB03941

>  <SECONDARY_ACCESSION_NUMBERS>
EXPT01353

>  <COMMON_NAME>
p-Heptylphenol

>  <CAS_NUMBER>
1987-50-4

>  <UNII>
I743Z35DVB

>  <SYNONYMS>
4-Heptylphenol; 4-n-Heptylphenol; p-Hydroxyheptylbenzene

$$$$
