
 OpenBabel10282417072D

 26 26  0  0  1  0  0  0  0  0999 V2000
   18.8444   -9.9859    0.0000 C   0  0  0  0  0  0  0  0  0  0  0  0
   18.1361   -9.5813    0.0000 C   0  0  0  0  0  0  0  0  0  0  0  0
   17.4243   -9.9859    0.0000 C   0  0  1  0  0  0  0  0  0  0  0  0
   16.7154   -9.5813    0.0000 C   0  0  0  0  0  0  0  0  0  0  0  0
   16.0036   -9.9859    0.0000 O   0  0  0  0  0  0  0  0  0  0  0  0
   15.1706   -9.9849    0.0000 P   0  0  0  0  0  0  0  0  0  0  0  0
   15.1663   -9.1535    0.0000 O   0  0  0  0  0  0  0  0  0  0  0  0
   14.3392   -9.9849    0.0000 O   0  0  0  0  0  0  0  0  0  0  0  0
   15.1663  -10.8163    0.0000 O   0  0  0  0  0  0  0  0  0  0  0  0
   17.4226  -10.8172    0.0000 N   0  0  0  0  0  0  0  0  0  0  0  0
   18.9353  -10.8135    0.0000 C   0  0  0  0  0  0  0  0  0  0  0  0
   19.7506  -10.9829    0.0000 N   0  0  0  0  0  0  0  0  0  0  0  0
   20.1635  -10.2599    0.0000 C   0  0  0  0  0  0  0  0  0  0  0  0
   19.6035   -9.6436    0.0000 N   0  0  0  0  0  0  0  0  0  0  0  0
   18.1372   -8.5113    0.0000 H   0  0  0  0  0  0  0  0  0  0  0  0
   17.2115   -9.0427    0.0000 H   0  0  0  0  0  0  0  0  0  0  0  0
   16.4984  -10.5223    0.0000 H   0  0  0  0  0  0  0  0  0  0  0  0
   16.7163   -8.5113    0.0000 H   0  0  0  0  0  0  0  0  0  0  0  0
   15.7908   -9.0428    0.0000 H   0  0  0  0  0  0  0  0  0  0  0  0
   16.0038   -8.6642    0.0000 H   0  0  0  0  0  0  0  0  0  0  0  0
   13.8542   -9.1449    0.0000 H   0  0  0  0  0  0  0  0  0  0  0  0
   16.5382  -11.3254    0.0000 H   0  0  0  0  0  0  0  0  0  0  0  0
   18.3049  -11.3290    0.0000 H   0  0  0  0  0  0  0  0  0  0  0  0
   18.1716  -11.5076    0.0000 H   0  0  0  0  0  0  0  0  0  0  0  0
   20.1552  -11.8804    0.0000 H   0  0  0  0  0  0  0  0  0  0  0  0
   21.1893  -10.1473    0.0000 H   0  0  0  0  0  0  0  0  0  0  0  0
  1  2  1  0  0  0  0
  1 11  2  0  0  0  0
  1 14  1  0  0  0  0
  2  3  1  0  0  0  0
  2 15  1  0  0  0  0
  2 16  1  0  0  0  0
  3  4  1  0  0  0  0
  3 10  1  0  0  0  0
  3 17  1  1  0  0  0
  4  5  1  0  0  0  0
  4 18  1  0  0  0  0
  4 19  1  0  0  0  0
  5  6  1  0  0  0  0
  6  7  1  0  0  0  0
  6  8  1  0  0  0  0
  6  9  2  0  0  0  0
  7 20  1  0  0  0  0
  8 21  1  0  0  0  0
 10 22  1  0  0  0  0
 10 23  1  0  0  0  0
 11 12  1  0  0  0  0
 11 24  1  0  0  0  0
 12 13  1  0  0  0  0
 12 25  1  0  0  0  0
 13 14  2  0  0  0  0
 13 26  1  0  0  0  0
M  END
>  <DRUGBANK_ID>
DB03997

>  <SECONDARY_ACCESSION_NUMBERS>
EXPT01781

>  <COMMON_NAME>
L-histidinol phosphate

>  <CAS_NUMBER>
25679-93-0

>  <SYNONYMS>
phosphoric acid mono-[2-amino-3-(3H-imidazol-4-yl)-propyl]ester

$$$$
