HAL
 OpenBabel10282417072D

 62 63  0  0  0  0  0  0  0  0999 V2000
   -2.3946   -2.9115    0.0000 C   0  0  0  0  0  0  0  0  0  0  0  0
   -2.3268   -3.7337    0.0000 C   0  0  0  0  0  0  0  0  0  0  0  0
   -3.0049   -4.2035    0.0000 C   0  0  0  0  0  0  0  0  0  0  0  0
   -3.7509   -3.8512    0.0000 C   0  0  0  0  0  0  0  0  0  0  0  0
   -3.8187   -3.0290    0.0000 C   0  0  0  0  0  0  0  0  0  0  0  0
   -3.1406   -2.5591    0.0000 C   0  0  0  0  0  0  0  0  0  0  0  0
   -1.7164   -2.4417    0.0000 C   0  0  0  0  0  0  0  0  0  0  0  0
   -1.7843   -1.6195    0.0000 C   0  0  0  0  0  0  0  0  0  0  0  0
   -1.1061   -1.1496    0.0000 N   0  0  0  0  0  0  0  0  0  0  0  0
   -1.1739   -0.3274    0.0000 C   0  0  0  0  0  0  0  0  0  0  0  0
   -1.9199    0.0250    0.0000 O   0  0  0  0  0  0  0  0  0  0  0  0
   -0.4958    0.1424    0.0000 C   0  0  0  0  0  0  0  0  0  0  0  0
   -0.5636    0.9646    0.0000 O   0  0  0  0  0  0  0  0  0  0  0  0
    0.1145    1.4345    0.0000 P   0  0  2  0  0  0  0  0  0  0  0  0
   -0.3553    2.1126    0.0000 O   0  0  0  0  0  0  0  0  0  0  0  0
    0.5844    0.7563    0.0000 O   0  0  0  0  0  0  0  0  0  0  0  0
    0.7927    1.9043    0.0000 C   0  0  1  0  0  0  0  0  0  0  0  0
    0.7249    2.7265    0.0000 C   0  0  0  0  0  0  0  0  0  0  0  0
   -0.0211    3.0789    0.0000 C   0  0  0  0  0  0  0  0  0  0  0  0
   -0.6992    2.6090    0.0000 C   0  0  0  0  0  0  0  0  0  0  0  0
   -1.4452    2.9614    0.0000 C   0  0  0  0  0  0  0  0  0  0  0  0
   -1.5130    3.7836    0.0000 C   0  0  0  0  0  0  0  0  0  0  0  0
   -0.8349    4.2535    0.0000 C   0  0  0  0  0  0  0  0  0  0  0  0
   -0.0889    3.9011    0.0000 C   0  0  0  0  0  0  0  0  0  0  0  0
    1.5387    1.5519    0.0000 N   0  0  0  0  0  0  0  0  0  0  0  0
    1.6065    0.7297    0.0000 C   0  0  0  0  0  0  0  0  0  0  0  0
    0.9283    0.2599    0.0000 O   0  0  0  0  0  0  0  0  0  0  0  0
    2.3524    0.3773    0.0000 C   0  0  0  0  0  0  0  0  0  0  0  0
    2.4202   -0.4449    0.0000 C   0  0  0  0  0  0  0  0  0  0  0  0
    3.1662   -0.7972    0.0000 C   0  0  0  0  0  0  0  0  0  0  0  0
    3.2340   -1.6195    0.0000 C   0  0  0  0  0  0  0  0  0  0  0  0
    3.9800   -1.9718    0.0000 O   0  0  0  0  0  0  0  0  0  0  0  0
    2.5559   -2.0893    0.0000 O   0  0  0  0  0  0  0  0  0  0  0  0
    0.2647    2.1537    0.0000 H   0  0  0  0  0  0  0  0  0  0  0  0
   -1.3937   -4.1745    0.0000 H   0  0  0  0  0  0  0  0  0  0  0  0
   -2.9200   -5.2320    0.0000 H   0  0  0  0  0  0  0  0  0  0  0  0
   -4.5992   -4.4390    0.0000 H   0  0  0  0  0  0  0  0  0  0  0  0
   -4.7518   -2.5882    0.0000 H   0  0  0  0  0  0  0  0  0  0  0  0
   -3.2255   -1.5306    0.0000 H   0  0  0  0  0  0  0  0  0  0  0  0
   -0.7489   -2.8987    0.0000 H   0  0  0  0  0  0  0  0  0  0  0  0
   -0.8369   -1.8323    0.0000 H   0  0  0  0  0  0  0  0  0  0  0  0
   -2.7518   -1.1625    0.0000 H   0  0  0  0  0  0  0  0  0  0  0  0
   -1.8723   -0.5531    0.0000 H   0  0  0  0  0  0  0  0  0  0  0  0
   -0.2159   -1.5701    0.0000 H   0  0  0  0  0  0  0  0  0  0  0  0
    0.4717   -0.3146    0.0000 H   0  0  0  0  0  0  0  0  0  0  0  0
    0.3837    0.7517    0.0000 H   0  0  0  0  0  0  0  0  0  0  0  0
    0.1701   -0.1208    0.0000 H   0  0  0  0  0  0  0  0  0  0  0  0
    1.6044    3.3358    0.0000 H   0  0  0  0  0  0  0  0  0  0  0  0
    0.6370    3.7929    0.0000 H   0  0  0  0  0  0  0  0  0  0  0  0
   -0.6143    1.5805    0.0000 H   0  0  0  0  0  0  0  0  0  0  0  0
   -2.2935    2.3737    0.0000 H   0  0  0  0  0  0  0  0  0  0  0  0
   -2.4461    4.2244    0.0000 H   0  0  0  0  0  0  0  0  0  0  0  0
   -0.9198    5.2820    0.0000 H   0  0  0  0  0  0  0  0  0  0  0  0
    0.7594    4.4888    0.0000 H   0  0  0  0  0  0  0  0  0  0  0  0
    2.3480    2.1126    0.0000 H   0  0  0  0  0  0  0  0  0  0  0  0
    3.2320    0.9866    0.0000 H   0  0  0  0  0  0  0  0  0  0  0  0
    3.3199   -0.0797    0.0000 H   0  0  0  0  0  0  0  0  0  0  0  0
    1.5407   -1.0543    0.0000 H   0  0  0  0  0  0  0  0  0  0  0  0
    2.5082   -1.5113    0.0000 H   0  0  0  0  0  0  0  0  0  0  0  0
    4.0457   -0.1878    0.0000 H   0  0  0  0  0  0  0  0  0  0  0  0
    4.1337   -1.2542    0.0000 H   0  0  0  0  0  0  0  0  0  0  0  0
    4.0571   -2.9056    0.0000 H   0  0  0  0  0  0  0  0  0  0  0  0
  1  2  2  0  0  0  0
  1  6  1  0  0  0  0
  1  7  1  0  0  0  0
  2  3  1  0  0  0  0
  2 35  1  0  0  0  0
  3  4  2  0  0  0  0
  3 36  1  0  0  0  0
  4  5  1  0  0  0  0
  4 37  1  0  0  0  0
  5  6  2  0  0  0  0
  5 38  1  0  0  0  0
  6 39  1  0  0  0  0
  7  8  1  0  0  0  0
  7 40  1  0  0  0  0
  7 41  1  0  0  0  0
  8  9  1  0  0  0  0
  8 42  1  0  0  0  0
  8 43  1  0  0  0  0
  9 10  1  0  0  0  0
  9 44  1  0  0  0  0
 10 11  2  0  0  0  0
 10 12  1  0  0  0  0
 12 13  1  0  0  0  0
 12 45  1  0  0  0  0
 12 46  1  0  0  0  0
 14 13  1  0  0  0  0
 14 15  2  6  0  0  0
 14 16  1  0  0  0  0
 14 17  1  0  0  0  0
 16 47  1  0  0  0  0
 17 18  1  0  0  0  0
 17 25  1  0  0  0  0
 17 34  1  6  0  0  0
 18 19  1  0  0  0  0
 18 48  1  0  0  0  0
 18 49  1  0  0  0  0
 19 20  2  0  0  0  0
 19 24  1  0  0  0  0
 20 21  1  0  0  0  0
 20 50  1  0  0  0  0
 21 22  2  0  0  0  0
 21 51  1  0  0  0  0
 22 23  1  0  0  0  0
 22 52  1  0  0  0  0
 23 24  2  0  0  0  0
 23 53  1  0  0  0  0
 24 54  1  0  0  0  0
 25 26  1  0  0  0  0
 25 55  1  0  0  0  0
 26 27  2  0  0  0  0
 26 28  1  0  0  0  0
 28 29  1  0  0  0  0
 28 56  1  0  0  0  0
 28 57  1  0  0  0  0
 29 30  1  0  0  0  0
 29 58  1  0  0  0  0
 29 59  1  0  0  0  0
 30 31  1  0  0  0  0
 30 60  1  0  0  0  0
 30 61  1  0  0  0  0
 31 32  1  0  0  0  0
 31 33  2  0  0  0  0
 32 62  1  0  0  0  0
M  END
>  <DRUGBANK_ID>
DB07881

>  <COMMON_NAME>
N-{[2-({[1-(4-CARBOXYBUTANOYL)AMINO]-2-PHENYLETHYL}-HYDROXYPHOSPHINYL)OXY]ACETYL}-2-PHENYLETHYLAMINE

$$$$
