544
 OpenBabel10282417072D

 12 12  0  0  0  0  0  0  0  0999 V2000
    4.5080    1.0808    0.0000 F   0  0  0  0  0  0  0  0  0  0  0  0
    4.5080   -0.5693    0.0000 O   0  0  0  0  0  0  0  0  0  0  0  0
    1.6500   -0.5693    0.0000 O   0  0  0  0  0  0  0  0  0  0  0  0
    3.0791   -0.5693    0.0000 N   0  0  0  0  0  0  0  0  0  0  0  0
    2.3645    0.6683    0.0000 N   0  0  0  0  0  0  0  0  0  0  0  0
    3.7935   -0.1568    0.0000 C   0  0  0  0  0  0  0  0  0  0  0  0
    2.3645   -0.1568    0.0000 C   0  0  0  0  0  0  0  0  0  0  0  0
    3.7935    0.6683    0.0000 C   0  0  0  0  0  0  0  0  0  0  0  0
    3.0791    1.0808    0.0000 C   0  0  0  0  0  0  0  0  0  0  0  0
    3.0792   -1.5538    0.0000 H   0  0  0  0  0  0  0  0  0  0  0  0
    1.5119    1.1606    0.0000 H   0  0  0  0  0  0  0  0  0  0  0  0
    3.0792    2.1128    0.0000 H   0  0  0  0  0  0  0  0  0  0  0  0
  1  8  1  0  0  0  0
  2  6  2  0  0  0  0
  3  7  2  0  0  0  0
  4  6  1  0  0  0  0
  4  7  1  0  0  0  0
  4 10  1  0  0  0  0
  5  7  1  0  0  0  0
  5  9  1  0  0  0  0
  5 11  1  0  0  0  0
  6  8  1  0  0  0  0
  8  9  2  0  0  0  0
  9 12  1  0  0  0  0
M  END
>  <DRUGBANK_ID>
DB00544

>  <SECONDARY_ACCESSION_NUMBERS>
APRD00516; EXPT03204

>  <COMMON_NAME>
Fluorouracil

>  <CAS_NUMBER>
51-21-8

>  <UNII>
U3P01618RT

>  <SYNONYMS>
5-Fluoracil; 5-Fluoropyrimidine-2,4-dione; 5-Fluorouracil; 5-Fluracil; 5-FU; Fluoro Uracil; Fluorouracil; Fluorouracilo; Fluorouracilum; Fluouracil

$$$$
