
 OpenBabel10282417072D

 45 36  0  0  0  0  0  0  0  0999 V2000
   -1.5169   -2.5623    0.0000 K   0  3  0  0  0  0  0  0  0  0  0  0
   -3.6819    3.6872    0.0000 Na  0  3  0  0  0  0  0  0  0  0  0  0
    2.2328    3.3524    0.0000 K   0  3  0  0  0  0  0  0  0  0  0  0
   -0.4345   -3.1872    0.0000 Na  0  3  0  0  0  0  0  0  0  0  0  0
    3.8953   -1.9374    0.0000 K   0  3  0  0  0  0  0  0  0  0  0  0
    5.4802   -5.3522    0.0000 Na  0  3  0  0  0  0  0  0  0  0  0  0
   -0.7052    0.7374    0.0000 C   0  0  0  0  0  0  0  0  0  0  0  0
   -1.4169    1.1498    0.0000 C   0  0  0  0  0  0  0  0  0  0  0  0
   -1.0044    1.8657    0.0000 C   0  0  0  0  0  0  0  0  0  0  0  0
   -0.7052   -0.0874    0.0000 C   0  0  0  0  0  0  0  0  0  0  0  0
    0.0104   -0.5000    0.0000 O   0  0  0  0  0  0  0  0  0  0  0  0
   -1.4169   -0.5000    0.0000 O   0  5  0  0  0  0  0  0  0  0  0  0
   -2.1327    1.5624    0.0000 C   0  0  0  0  0  0  0  0  0  0  0  0
   -2.8444    1.1498    0.0000 O   0  0  0  0  0  0  0  0  0  0  0  0
   -2.1327    2.3873    0.0000 O   0  5  0  0  0  0  0  0  0  0  0  0
   -0.1794    1.8657    0.0000 C   0  0  0  0  0  0  0  0  0  0  0  0
    0.2329    1.1498    0.0000 O   0  0  0  0  0  0  0  0  0  0  0  0
    0.2329    2.5774    0.0000 O   0  5  0  0  0  0  0  0  0  0  0  0
   -1.8294    0.4340    0.0000 O   0  0  0  0  0  0  0  0  0  0  0  0
    1.9345   -4.2039    0.0000 C   0  0  0  0  0  0  0  0  0  0  0  0
    1.9345   -3.3789    0.0000 C   0  0  0  0  0  0  0  0  0  0  0  0
    2.7595   -3.3789    0.0000 C   0  0  0  0  0  0  0  0  0  0  0  0
    1.2228   -4.6164    0.0000 C   0  0  0  0  0  0  0  0  0  0  0  0
    1.2228   -5.4414    0.0000 O   0  0  0  0  0  0  0  0  0  0  0  0
    0.5071   -4.2039    0.0000 O   0  5  0  0  0  0  0  0  0  0  0  0
    1.9345   -2.5540    0.0000 C   0  0  0  0  0  0  0  0  0  0  0  0
    1.2228   -2.1416    0.0000 O   0  0  0  0  0  0  0  0  0  0  0  0
    2.6503   -2.1416    0.0000 O   0  5  0  0  0  0  0  0  0  0  0  0
    3.1719   -4.0947    0.0000 C   0  0  0  0  0  0  0  0  0  0  0  0
    2.7595   -4.8105    0.0000 O   0  0  0  0  0  0  0  0  0  0  0  0
    3.9968   -4.0947    0.0000 O   0  5  0  0  0  0  0  0  0  0  0  0
    1.1096   -3.3789    0.0000 O   0  0  0  0  0  0  0  0  0  0  0  0
   -4.0486    5.0288    0.0000 H   0  0  0  0  0  0  0  0  0  0  0  0
   -4.7644    5.4414    0.0000 O   0  0  0  0  0  0  0  0  0  0  0  0
   -5.4802    5.0288    0.0000 H   0  0  0  0  0  0  0  0  0  0  0  0
    0.2219    1.2717    0.0000 H   0  0  0  0  0  0  0  0  0  0  0  0
   -0.7039    1.8074    0.0000 H   0  0  0  0  0  0  0  0  0  0  0  0
   -1.5398    2.7921    0.0000 H   0  0  0  0  0  0  0  0  0  0  0  0
   -2.0744    1.8650    0.0000 H   0  0  0  0  0  0  0  0  0  0  0  0
   -2.7994    0.4332    0.0000 H   0  0  0  0  0  0  0  0  0  0  0  0
    2.8616   -4.7381    0.0000 H   0  0  0  0  0  0  0  0  0  0  0  0
    1.9359   -5.2739    0.0000 H   0  0  0  0  0  0  0  0  0  0  0  0
    3.2949   -2.4525    0.0000 H   0  0  0  0  0  0  0  0  0  0  0  0
    3.8295   -3.3796    0.0000 H   0  0  0  0  0  0  0  0  0  0  0  0
    0.6246   -2.5389    0.0000 H   0  0  0  0  0  0  0  0  0  0  0  0
  7 10  1  0  0  0  0
  7  8  1  0  0  0  0
  7 36  1  0  0  0  0
  7 37  1  0  0  0  0
  8 13  1  0  0  0  0
  8 19  1  0  0  0  0
  8  9  1  0  0  0  0
  9 16  1  0  0  0  0
  9 38  1  0  0  0  0
  9 39  1  0  0  0  0
 10 11  2  0  0  0  0
 10 12  1  0  0  0  0
 13 14  2  0  0  0  0
 13 15  1  0  0  0  0
 16 17  2  0  0  0  0
 16 18  1  0  0  0  0
 19 40  1  0  0  0  0
 20 21  1  0  0  0  0
 20 23  1  0  0  0  0
 20 41  1  0  0  0  0
 20 42  1  0  0  0  0
 21 22  1  0  0  0  0
 21 26  1  0  0  0  0
 21 32  1  0  0  0  0
 22 29  1  0  0  0  0
 22 43  1  0  0  0  0
 22 44  1  0  0  0  0
 23 24  2  0  0  0  0
 23 25  1  0  0  0  0
 26 27  2  0  0  0  0
 26 28  1  0  0  0  0
 29 30  2  0  0  0  0
 29 31  1  0  0  0  0
 32 45  1  0  0  0  0
 33 34  1  0  0  0  0
 34 35  1  0  0  0  0
M  CHG  8   1   1   2   1   3   1   4   1   5   1   6   1  12  -1  15  -1
M  CHG  4  18  -1  25  -1  28  -1  31  -1
M  END
>  <DRUGBANK_ID>
DB16585

>  <COMMON_NAME>
Potassium sodium hydrogen citrate

>  <CAS_NUMBER>
55049-48-4

>  <UNII>
X6T6YN87SU

>  <SYNONYMS>
Hexapotassium hexasodium pentacitrate hydrate; Hexapotassium hexasodium pentacitrate hydrate complex; Potassium sodium hydrogen citrate; Sodium potassium hydrogen citrate; Uralyt-U

$$$$
