
 OpenBabel10282417072D

 49 50  0  0  1  0  0  0  0  0999 V2000
    0.1842   -1.4305    0.0000 C   0  0  0  0  0  0  0  0  0  0  0  0
    0.7145   -2.0625    0.0000 C   0  0  0  0  0  0  0  0  0  0  0  0
    1.4289   -2.4750    0.0000 C   0  0  1  0  0  0  0  0  0  0  0  0
    1.4289   -3.3000    0.0000 N   0  0  0  0  0  0  0  0  0  0  0  0
    0.7145   -3.7125    0.0000 C   0  0  0  0  0  0  0  0  0  0  0  0
    0.0000   -3.3000    0.0000 C   0  0  0  0  0  0  0  0  0  0  0  0
    0.0000   -2.4750    0.0000 S   0  0  0  0  0  0  0  0  0  0  0  0
    2.1434   -3.7125    0.0000 S   0  0  0  0  0  0  0  0  0  0  0  0
    2.5559   -2.9980    0.0000 O   0  0  0  0  0  0  0  0  0  0  0  0
    1.7309   -4.4270    0.0000 O   0  0  0  0  0  0  0  0  0  0  0  0
    2.8579   -4.1250    0.0000 C   0  0  0  0  0  0  0  0  0  0  0  0
    3.5724   -3.7125    0.0000 C   0  0  0  0  0  0  0  0  0  0  0  0
    4.2868   -4.1250    0.0000 C   0  0  0  0  0  0  0  0  0  0  0  0
    4.2868   -4.9500    0.0000 C   0  0  0  0  0  0  0  0  0  0  0  0
    3.5724   -5.3625    0.0000 C   0  0  0  0  0  0  0  0  0  0  0  0
    2.8579   -4.9500    0.0000 C   0  0  0  0  0  0  0  0  0  0  0  0
    5.0013   -5.3625    0.0000 O   0  0  0  0  0  0  0  0  0  0  0  0
    5.0013   -6.1875    0.0000 C   0  0  0  0  0  0  0  0  0  0  0  0
    5.7158   -6.6000    0.0000 C   0  0  0  0  0  0  0  0  0  0  0  0
    6.4302   -7.0125    0.0000 C   0  0  0  0  0  0  0  0  0  0  0  0
    7.1447   -7.4250    0.0000 C   0  0  0  0  0  0  0  0  0  0  0  0
    7.1447   -8.2500    0.0000 O   0  0  0  0  0  0  0  0  0  0  0  0
    2.1434   -2.0625    0.0000 C   0  0  0  0  0  0  0  0  0  0  0  0
    2.8579   -2.4750    0.0000 O   0  0  0  0  0  0  0  0  0  0  0  0
    2.1434   -1.2375    0.0000 N   0  0  0  0  0  0  0  0  0  0  0  0
    1.4289   -0.8250    0.0000 O   0  0  0  0  0  0  0  0  0  0  0  0
    1.2448   -1.4305    0.0000 C   0  0  0  0  0  0  0  0  0  0  0  0
    0.5502   -0.4250    0.0000 H   0  0  0  0  0  0  0  0  0  0  0  0
   -0.8695   -1.6163    0.0000 H   0  0  0  0  0  0  0  0  0  0  0  0
   -0.5036   -0.6108    0.0000 H   0  0  0  0  0  0  0  0  0  0  0  0
    1.4289   -1.4050    0.0000 H   0  0  0  0  0  0  0  0  0  0  0  0
    0.7145   -4.7825    0.0000 H   0  0  0  0  0  0  0  0  0  0  0  0
   -0.2121   -4.2475    0.0000 H   0  0  0  0  0  0  0  0  0  0  0  0
   -0.9266   -3.8350    0.0000 H   0  0  0  0  0  0  0  0  0  0  0  0
   -0.9266   -2.7650    0.0000 H   0  0  0  0  0  0  0  0  0  0  0  0
    3.5724   -2.6805    0.0000 H   0  0  0  0  0  0  0  0  0  0  0  0
    5.1805   -3.6090    0.0000 H   0  0  0  0  0  0  0  0  0  0  0  0
    3.5724   -6.3945    0.0000 H   0  0  0  0  0  0  0  0  0  0  0  0
    1.9642   -5.4660    0.0000 H   0  0  0  0  0  0  0  0  0  0  0  0
    4.0747   -6.7225    0.0000 H   0  0  0  0  0  0  0  0  0  0  0  0
    5.0013   -7.2575    0.0000 H   0  0  0  0  0  0  0  0  0  0  0  0
    8.0713   -6.8900    0.0000 H   0  0  0  0  0  0  0  0  0  0  0  0
    8.0713   -7.9600    0.0000 H   0  0  0  0  0  0  0  0  0  0  0  0
    6.3047   -8.7350    0.0000 H   0  0  0  0  0  0  0  0  0  0  0  0
    2.9960   -0.7452    0.0000 H   0  0  0  0  0  0  0  0  0  0  0  0
    1.4289    0.1450    0.0000 H   0  0  0  0  0  0  0  0  0  0  0  0
    2.2985   -1.6163    0.0000 H   0  0  0  0  0  0  0  0  0  0  0  0
    0.8788   -0.4250    0.0000 H   0  0  0  0  0  0  0  0  0  0  0  0
    1.9326   -0.6108    0.0000 H   0  0  0  0  0  0  0  0  0  0  0  0
  1  2  1  0  0  0  0
  1 28  1  0  0  0  0
  1 29  1  0  0  0  0
  1 30  1  0  0  0  0
  2  3  1  0  0  0  0
  2  7  1  0  0  0  0
  2 27  1  0  0  0  0
  3  4  1  0  0  0  0
  3 23  1  0  0  0  0
  3 31  1  1  0  0  0
  4  5  1  0  0  0  0
  4  8  1  0  0  0  0
  5  6  1  0  0  0  0
  5 32  1  0  0  0  0
  5 33  1  0  0  0  0
  6  7  1  0  0  0  0
  6 34  1  0  0  0  0
  6 35  1  0  0  0  0
  8  9  2  0  0  0  0
  8 10  2  0  0  0  0
  8 11  1  0  0  0  0
 11 12  2  0  0  0  0
 11 16  1  0  0  0  0
 12 13  1  0  0  0  0
 12 36  1  0  0  0  0
 13 14  2  0  0  0  0
 13 37  1  0  0  0  0
 14 15  1  0  0  0  0
 14 17  1  0  0  0  0
 15 16  2  0  0  0  0
 15 38  1  0  0  0  0
 16 39  1  0  0  0  0
 17 18  1  0  0  0  0
 18 19  1  0  0  0  0
 18 40  1  0  0  0  0
 18 41  1  0  0  0  0
 19 20  3  0  0  0  0
 20 21  1  0  0  0  0
 21 22  1  0  0  0  0
 21 42  1  0  0  0  0
 21 43  1  0  0  0  0
 22 44  1  0  0  0  0
 23 24  2  0  0  0  0
 23 25  1  0  0  0  0
 25 26  1  0  0  0  0
 25 45  1  0  0  0  0
 26 46  1  0  0  0  0
 27 47  1  0  0  0  0
 27 48  1  0  0  0  0
 27 49  1  0  0  0  0
M  END
>  <DRUGBANK_ID>
DB13020

>  <COMMON_NAME>
Apratastat

>  <CAS_NUMBER>
287405-51-0

>  <UNII>
C6BZ5263BJ

>  <SYNONYMS>
Apratastat

$$$$
