
 OpenBabel10282417072D

 89 94  0  0  1  0  0  0  0  0999 V2000
    9.9511   -0.2681    0.0000 C   0  0  0  0  0  0  0  0  0  0  0  0
    9.1390   -0.4133    0.0000 C   0  0  1  0  0  0  0  0  0  0  0  0
    8.8587   -1.1892    0.0000 C   0  0  1  0  0  0  0  0  0  0  0  0
    8.0466   -1.3344    0.0000 C   0  0  2  0  0  0  0  0  0  0  0  0
    7.5148   -0.7037    0.0000 C   0  0  0  0  0  0  0  0  0  0  0  0
    7.7951    0.0722    0.0000 C   0  0  1  0  0  0  0  0  0  0  0  0
    8.6072    0.2174    0.0000 O   0  0  0  0  0  0  0  0  0  0  0  0
    7.2632    0.7029    0.0000 O   0  0  0  0  0  0  0  0  0  0  0  0
    6.4511    0.5577    0.0000 C   0  0  1  0  0  0  0  0  0  0  0  0
    6.1708   -0.2182    0.0000 C   0  0  0  0  0  0  0  0  0  0  0  0
    5.3587   -0.3634    0.0000 C   0  0  0  0  0  0  0  0  0  0  0  0
    4.8269    0.2673    0.0000 C   0  0  1  0  0  0  0  0  0  0  0  0
    5.1072    1.0432    0.0000 C   0  0  1  0  0  0  0  0  0  0  0  0
    5.9193    1.1884    0.0000 C   0  0  0  0  0  0  0  0  0  0  0  0
    4.5754    1.6739    0.0000 C   0  0  0  0  0  0  0  0  0  0  0  0
    3.7633    1.5287    0.0000 C   0  0  0  0  0  0  0  0  0  0  0  0
    3.4830    0.7528    0.0000 C   0  0  2  0  0  0  0  0  0  0  0  0
    4.0148    0.1221    0.0000 C   0  0  2  0  0  0  0  0  0  0  0  0
    3.7345   -0.6539    0.0000 C   0  0  0  0  0  0  0  0  0  0  0  0
    2.9224   -0.7991    0.0000 C   0  0  0  0  0  0  0  0  0  0  0  0
    2.3905   -0.1684    0.0000 C   0  0  1  0  0  0  0  0  0  0  0  0
    2.6708    0.6076    0.0000 C   0  0  2  0  0  0  0  0  0  0  0  0
    2.0195    1.1139    0.0000 C   0  0  0  0  0  0  0  0  0  0  0  0
    1.3367    0.6509    0.0000 C   0  0  1  0  0  0  0  0  0  0  0  0
    1.5660   -0.1416    0.0000 C   0  0  2  0  0  0  0  0  0  0  0  0
    1.0596   -0.7929    0.0000 C   0  0  0  0  0  0  0  0  0  0  0  0
    1.2889   -1.5854    0.0000 C   0  0  0  0  0  0  0  0  0  0  0  0
    0.6061   -2.0484    0.0000 C   0  0  0  0  0  0  0  0  0  0  0  0
    0.5793   -2.8729    0.0000 O   0  0  0  0  0  0  0  0  0  0  0  0
   -0.0452   -1.5420    0.0000 O   0  0  0  0  0  0  0  0  0  0  0  0
    0.2351   -0.7661    0.0000 C   0  0  0  0  0  0  0  0  0  0  0  0
    0.5607    0.9312    0.0000 O   0  0  0  0  0  0  0  0  0  0  0  0
    0.4155    1.7434    0.0000 C   0  0  0  0  0  0  0  0  0  0  0  0
   -0.3604    2.0237    0.0000 O   0  0  0  0  0  0  0  0  0  0  0  0
    1.0462    2.2752    0.0000 C   0  0  0  0  0  0  0  0  0  0  0  0
    2.8685    1.4085    0.0000 O   0  0  0  0  0  0  0  0  0  0  0  0
    2.0307   -0.9107    0.0000 C   0  0  0  0  0  0  0  0  0  0  0  0
    4.5466   -0.5086    0.0000 C   0  0  0  0  0  0  0  0  0  0  0  0
    7.7663   -2.1103    0.0000 O   0  0  0  0  0  0  0  0  0  0  0  0
    8.2981   -2.7410    0.0000 C   0  0  0  0  0  0  0  0  0  0  0  0
    9.3905   -1.8199    0.0000 O   0  0  0  0  0  0  0  0  0  0  0  0
   10.6408   -1.0861    0.0000 H   0  0  0  0  0  0  0  0  0  0  0  0
   10.3147    0.7382    0.0000 H   0  0  0  0  0  0  0  0  0  0  0  0
   11.0044   -0.0798    0.0000 H   0  0  0  0  0  0  0  0  0  0  0  0
    9.8287   -1.2313    0.0000 H   0  0  0  0  0  0  0  0  0  0  0  0
    9.9120   -1.0009    0.0000 H   0  0  0  0  0  0  0  0  0  0  0  0
    8.7363   -2.1524    0.0000 H   0  0  0  0  0  0  0  0  0  0  0  0
    6.4615   -0.8920    0.0000 H   0  0  0  0  0  0  0  0  0  0  0  0
    6.8251    0.1143    0.0000 H   0  0  0  0  0  0  0  0  0  0  0  0
    6.7418   -0.1162    0.0000 H   0  0  0  0  0  0  0  0  0  0  0  0
    7.1408   -0.2603    0.0000 H   0  0  0  0  0  0  0  0  0  0  0  0
    6.8605   -1.0362    0.0000 H   0  0  0  0  0  0  0  0  0  0  0  0
    5.8072   -1.2245    0.0000 H   0  0  0  0  0  0  0  0  0  0  0  0
    4.9951   -1.3697    0.0000 H   0  0  0  0  0  0  0  0  0  0  0  0
    4.3054   -0.5517    0.0000 H   0  0  0  0  0  0  0  0  0  0  0  0
    5.7969    0.2252    0.0000 H   0  0  0  0  0  0  0  0  0  0  0  0
    6.2829    2.1947    0.0000 H   0  0  0  0  0  0  0  0  0  0  0  0
    6.9726    1.3767    0.0000 H   0  0  0  0  0  0  0  0  0  0  0  0
    4.9390    2.6802    0.0000 H   0  0  0  0  0  0  0  0  0  0  0  0
    3.8857    2.4919    0.0000 H   0  0  0  0  0  0  0  0  0  0  0  0
    3.0736    2.3467    0.0000 H   0  0  0  0  0  0  0  0  0  0  0  0
    2.7100    1.3404    0.0000 H   0  0  0  0  0  0  0  0  0  0  0  0
    4.5363    0.9411    0.0000 H   0  0  0  0  0  0  0  0  0  0  0  0
    2.9615   -0.0662    0.0000 H   0  0  0  0  0  0  0  0  0  0  0  0
    4.4243   -1.4719    0.0000 H   0  0  0  0  0  0  0  0  0  0  0  0
    3.3710   -1.6602    0.0000 H   0  0  0  0  0  0  0  0  0  0  0  0
    2.5589   -1.8055    0.0000 H   0  0  0  0  0  0  0  0  0  0  0  0
    1.8691   -0.9875    0.0000 H   0  0  0  0  0  0  0  0  0  0  0  0
    2.0542    2.1833    0.0000 H   0  0  0  0  0  0  0  0  0  0  0  0
    1.0824    1.6303    0.0000 H   0  0  0  0  0  0  0  0  0  0  0  0
    1.2037    1.7126    0.0000 H   0  0  0  0  0  0  0  0  0  0  0  0
    0.5152    0.0601    0.0000 H   0  0  0  0  0  0  0  0  0  0  0  0
    2.2595   -1.9360    0.0000 H   0  0  0  0  0  0  0  0  0  0  0  0
   -0.3654    0.1195    0.0000 H   0  0  0  0  0  0  0  0  0  0  0  0
    0.7516    0.1710    0.0000 H   0  0  0  0  0  0  0  0  0  0  0  0
    2.0525    1.9116    0.0000 H   0  0  0  0  0  0  0  0  0  0  0  0
    0.8579    3.3285    0.0000 H   0  0  0  0  0  0  0  0  0  0  0  0
    1.8642    2.9649    0.0000 H   0  0  0  0  0  0  0  0  0  0  0  0
    3.8003    1.6780    0.0000 H   0  0  0  0  0  0  0  0  0  0  0  0
    0.9635   -0.9879    0.0000 H   0  0  0  0  0  0  0  0  0  0  0  0
    2.6312   -1.7963    0.0000 H   0  0  0  0  0  0  0  0  0  0  0  0
    1.5640   -1.8736    0.0000 H   0  0  0  0  0  0  0  0  0  0  0  0
    3.4933   -0.6969    0.0000 H   0  0  0  0  0  0  0  0  0  0  0  0
    5.2363   -1.3266    0.0000 H   0  0  0  0  0  0  0  0  0  0  0  0
    4.1830   -1.5149    0.0000 H   0  0  0  0  0  0  0  0  0  0  0  0
    7.9345   -3.7473    0.0000 H   0  0  0  0  0  0  0  0  0  0  0  0
    9.3514   -2.5527    0.0000 H   0  0  0  0  0  0  0  0  0  0  0  0
    8.9878   -3.5590    0.0000 H   0  0  0  0  0  0  0  0  0  0  0  0
    9.0609   -2.7322    0.0000 H   0  0  0  0  0  0  0  0  0  0  0  0
  1 42  1  0  0  0  0
  1 43  1  0  0  0  0
  1 44  1  0  0  0  0
  2  1  1  0  0  0  0
  2  3  1  0  0  0  0
  2  7  1  0  0  0  0
  2 45  1  6  0  0  0
  3  4  1  0  0  0  0
  3 41  1  0  0  0  0
  3 46  1  1  0  0  0
  4  5  1  0  0  0  0
  4 39  1  0  0  0  0
  4 47  1  6  0  0  0
  5  6  1  0  0  0  0
  5 48  1  0  0  0  0
  5 49  1  0  0  0  0
  6  7  1  0  0  0  0
  6  8  1  0  0  0  0
  6 50  1  1  0  0  0
  9  8  1  0  0  0  0
  9 10  1  0  0  0  0
  9 14  1  0  0  0  0
  9 51  1  6  0  0  0
 10 11  1  0  0  0  0
 10 52  1  0  0  0  0
 10 53  1  0  0  0  0
 11 12  1  0  0  0  0
 11 54  1  0  0  0  0
 11 55  1  0  0  0  0
 12 13  1  0  0  0  0
 12 18  1  0  0  0  0
 12 38  1  1  0  0  0
 13 14  1  0  0  0  0
 13 15  1  0  0  0  0
 13 56  1  1  0  0  0
 14 57  1  0  0  0  0
 14 58  1  0  0  0  0
 15 16  1  0  0  0  0
 15 59  1  0  0  0  0
 15 60  1  0  0  0  0
 16 61  1  0  0  0  0
 16 62  1  0  0  0  0
 17 16  1  0  0  0  0
 17 18  1  0  0  0  0
 17 22  1  0  0  0  0
 17 63  1  1  0  0  0
 18 19  1  0  0  0  0
 18 64  1  6  0  0  0
 19 20  1  0  0  0  0
 19 65  1  0  0  0  0
 19 66  1  0  0  0  0
 20 21  1  0  0  0  0
 20 67  1  0  0  0  0
 20 68  1  0  0  0  0
 21 22  1  0  0  0  0
 21 25  1  0  0  0  0
 21 37  1  1  0  0  0
 22 23  1  0  0  0  0
 22 36  1  1  0  0  0
 23 24  1  0  0  0  0
 23 69  1  0  0  0  0
 23 70  1  0  0  0  0
 24 25  1  0  0  0  0
 24 32  1  0  0  0  0
 24 71  1  6  0  0  0
 25 26  1  0  0  0  0
 25 72  1  6  0  0  0
 26 27  2  0  0  0  0
 26 31  1  0  0  0  0
 27 28  1  0  0  0  0
 27 73  1  0  0  0  0
 28 29  2  0  0  0  0
 28 30  1  0  0  0  0
 30 31  1  0  0  0  0
 31 74  1  0  0  0  0
 31 75  1  0  0  0  0
 32 33  1  0  0  0  0
 33 34  2  0  0  0  0
 33 35  1  0  0  0  0
 35 76  1  0  0  0  0
 35 77  1  0  0  0  0
 35 78  1  0  0  0  0
 36 79  1  0  0  0  0
 37 80  1  0  0  0  0
 37 81  1  0  0  0  0
 37 82  1  0  0  0  0
 38 83  1  0  0  0  0
 38 84  1  0  0  0  0
 38 85  1  0  0  0  0
 39 40  1  0  0  0  0
 40 86  1  0  0  0  0
 40 87  1  0  0  0  0
 40 88  1  0  0  0  0
 41 89  1  0  0  0  0
M  END
>  <DRUGBANK_ID>
DB12843

>  <COMMON_NAME>
Oleandrin

>  <CAS_NUMBER>
465-16-7

>  <UNII>
II95UDU7I4

>  <SYNONYMS>
Anvirzel; Oleandrina

$$$$
