HMDB01062.mol
 OpenBabel10282417072D

 35 35  0  0  0  0  0  0  0  0999 V2000
   -0.7701    0.8262    0.0000 C   0  0  1  0  0  0  0  0  0  0  0  0
   -0.7702   -0.0014    0.0000 C   0  0  1  0  0  0  0  0  0  0  0  0
   -0.0542   -0.4152    0.0000 C   0  0  2  0  0  0  0  0  0  0  0  0
    0.6636   -0.0032    0.0000 O   0  0  0  0  0  0  0  0  0  0  0  0
    0.6632    0.8263    0.0000 C   0  0  3  0  0  0  0  0  0  0  0  0
   -0.0535    1.2400    0.0000 C   0  0  2  0  0  0  0  0  0  0  0  0
   -0.0535    2.0648    0.0000 N   0  0  0  0  0  0  0  0  0  0  0  0
   -1.4845   -0.4138    0.0000 O   0  0  0  0  0  0  0  0  0  0  0  0
   -0.0542   -1.2400    0.0000 C   0  0  0  0  0  0  0  0  0  0  0  0
   -1.4845    1.2386    0.0000 O   0  0  0  0  0  0  0  0  0  0  0  0
    1.3775    1.2387    0.0000 O   0  0  0  0  0  0  0  0  0  0  0  0
    0.6609    2.4772    0.0000 C   0  0  0  0  0  0  0  0  0  0  0  0
    1.3751    2.0648    0.0000 C   0  0  0  0  0  0  0  0  0  0  0  0
    0.6609    3.3021    0.0000 O   0  0  0  0  0  0  0  0  0  0  0  0
    0.6598   -1.6522    0.0000 O   0  0  0  0  0  0  0  0  0  0  0  0
    0.6598   -2.4772    0.0000 P   0  0  0  0  0  0  0  0  0  0  0  0
    0.6598   -3.3021    0.0000 O   0  0  0  0  0  0  0  0  0  0  0  0
    1.4845   -2.4772    0.0000 O   0  0  0  0  0  0  0  0  0  0  0  0
   -0.1651   -2.4772    0.0000 O   0  0  0  0  0  0  0  0  0  0  0  0
   -1.6968    0.2912    0.0000 H   0  0  0  0  0  0  0  0  0  0  0  0
   -1.6968    0.5337    0.0000 H   0  0  0  0  0  0  0  0  0  0  0  0
   -0.9810   -0.9500    0.0000 H   0  0  0  0  0  0  0  0  0  0  0  0
   -0.2633    0.2910    0.0000 H   0  0  0  0  0  0  0  0  0  0  0  0
    0.8731    1.7750    0.0000 H   0  0  0  0  0  0  0  0  0  0  0  0
   -0.9061    2.5571    0.0000 H   0  0  0  0  0  0  0  0  0  0  0  0
   -2.3245    0.0712    0.0000 H   0  0  0  0  0  0  0  0  0  0  0  0
   -0.9808   -1.7750    0.0000 H   0  0  0  0  0  0  0  0  0  0  0  0
   -0.0542   -2.3100    0.0000 H   0  0  0  0  0  0  0  0  0  0  0  0
   -1.4846    2.2086    0.0000 H   0  0  0  0  0  0  0  0  0  0  0  0
    2.2175    0.7537    0.0000 H   0  0  0  0  0  0  0  0  0  0  0  0
    1.3750    0.9948    0.0000 H   0  0  0  0  0  0  0  0  0  0  0  0
    2.3018    2.5997    0.0000 H   0  0  0  0  0  0  0  0  0  0  0  0
    2.3017    1.5297    0.0000 H   0  0  0  0  0  0  0  0  0  0  0  0
   -0.1802   -3.7871    0.0000 H   0  0  0  0  0  0  0  0  0  0  0  0
    1.9695   -3.3172    0.0000 H   0  0  0  0  0  0  0  0  0  0  0  0
  1  2  1  0  0  0  0
  1 10  1  0  0  0  0
  1 20  1  1  0  0  0
  2  3  1  0  0  0  0
  2  8  1  0  0  0  0
  2 21  1  6  0  0  0
  3  4  1  0  0  0  0
  3  9  1  0  0  0  0
  3 22  1  1  0  0  0
  4  5  1  0  0  0  0
  5  6  1  0  0  0  0
  5 11  1  0  0  0  0
  5 23  1  0  0  0  0
  6  1  1  0  0  0  0
  6  7  1  0  0  0  0
  6 24  1  6  0  0  0
  7 12  1  0  0  0  0
  7 25  1  0  0  0  0
  8 26  1  0  0  0  0
  9 15  1  0  0  0  0
  9 27  1  0  0  0  0
  9 28  1  0  0  0  0
 10 29  1  0  0  0  0
 11 30  1  0  0  0  0
 12 13  1  0  0  0  0
 12 14  2  0  0  0  0
 13 31  1  0  0  0  0
 13 32  1  0  0  0  0
 13 33  1  0  0  0  0
 15 16  1  0  0  0  0
 16 17  1  0  0  0  0
 16 18  1  0  0  0  0
 16 19  2  0  0  0  0
 17 34  1  0  0  0  0
 18 35  1  0  0  0  0
M  END
>  <DRUGBANK_ID>
DB03951

>  <SECONDARY_ACCESSION_NUMBERS>
EXPT00050

>  <COMMON_NAME>
N-acetyl-D-glucosamine-6-phosphate

>  <SYNONYMS>
2-acetamido-2-deoxy-6-O-phosphono-D-glucopyranose

$$$$
