AL3
 OpenBabel10282417072D

 34 36  0  0  0  0  0  0  0  0999 V2000
   -2.3135   -0.0422    0.0000 C   0  0  0  0  0  0  0  0  0  0  0  0
   -0.3295   -1.6922    0.0000 O   0  0  0  0  0  0  0  0  0  0  0  0
    0.3850   -0.4547    0.0000 C   0  0  0  0  0  0  0  0  0  0  0  0
   -0.3295   -0.8672    0.0000 C   0  0  1  0  0  0  0  0  0  0  0  0
    1.0995    0.7828    0.0000 C   0  0  0  0  0  0  0  0  0  0  0  0
    1.8139    0.3703    0.0000 C   0  0  0  0  0  0  0  0  0  0  0  0
    2.5676    0.7059    0.0000 C   0  0  0  0  0  0  0  0  0  0  0  0
    3.1196    0.0928    0.0000 C   0  0  0  0  0  0  0  0  0  0  0  0
    2.7071   -0.6217    0.0000 C   0  0  0  0  0  0  0  0  0  0  0  0
   -3.9635   -0.0422    0.0000 O   0  0  0  0  0  0  0  0  0  0  0  0
   -3.1385    0.7828    0.0000 O   0  0  0  0  0  0  0  0  0  0  0  0
   -3.1385   -0.8672    0.0000 N   0  0  0  0  0  0  0  0  0  0  0  0
   -3.1385   -0.0422    0.0000 S   0  0  0  0  0  0  0  0  0  0  0  0
   -1.8286   -0.7096    0.0000 C   0  0  0  0  0  0  0  0  0  0  0  0
   -1.0440   -0.4547    0.0000 C   0  0  0  0  0  0  0  0  0  0  0  0
   -1.0440    0.3703    0.0000 C   0  0  0  0  0  0  0  0  0  0  0  0
   -1.8286    0.6253    0.0000 S   0  0  0  0  0  0  0  0  0  0  0  0
   -0.3295    0.7828    0.0000 S   0  0  0  0  0  0  0  0  0  0  0  0
   -0.8598    1.4148    0.0000 O   0  0  0  0  0  0  0  0  0  0  0  0
    0.2008    1.4148    0.0000 O   0  0  0  0  0  0  0  0  0  0  0  0
    0.3850    0.3703    0.0000 N   0  0  0  0  0  0  0  0  0  0  0  0
    1.9002   -0.4501    0.0000 S   0  0  0  0  0  0  0  0  0  0  0  0
    0.1762   -1.1591    0.0000 H   0  0  0  0  0  0  0  0  0  0  0  0
   -1.1695   -2.1772    0.0000 H   0  0  0  0  0  0  0  0  0  0  0  0
    1.3116   -0.9897    0.0000 H   0  0  0  0  0  0  0  0  0  0  0  0
    1.3116    0.0803    0.0000 H   0  0  0  0  0  0  0  0  0  0  0  0
    1.0995    1.8528    0.0000 H   0  0  0  0  0  0  0  0  0  0  0  0
    0.1729    1.3178    0.0000 H   0  0  0  0  0  0  0  0  0  0  0  0
    2.7822    1.7153    0.0000 H   0  0  0  0  0  0  0  0  0  0  0  0
    4.1459    0.2007    0.0000 H   0  0  0  0  0  0  0  0  0  0  0  0
    3.1268   -1.5645    0.0000 H   0  0  0  0  0  0  0  0  0  0  0  0
   -4.0218   -1.3772    0.0000 H   0  0  0  0  0  0  0  0  0  0  0  0
   -2.2552   -1.3772    0.0000 H   0  0  0  0  0  0  0  0  0  0  0  0
   -2.1475   -1.6911    0.0000 H   0  0  0  0  0  0  0  0  0  0  0  0
  1 13  1  0  0  0  0
  1 14  2  0  0  0  0
  1 17  1  0  0  0  0
  2 24  1  0  0  0  0
  3  4  1  0  0  0  0
  3 21  1  0  0  0  0
  3 25  1  0  0  0  0
  3 26  1  0  0  0  0
  4  2  1  0  0  0  0
  4 15  1  0  0  0  0
  4 23  1  1  0  0  0
  5  6  1  0  0  0  0
  5 21  1  0  0  0  0
  5 27  1  0  0  0  0
  5 28  1  0  0  0  0
  6  7  2  0  0  0  0
  6 22  1  0  0  0  0
  7  8  1  0  0  0  0
  7 29  1  0  0  0  0
  8  9  2  0  0  0  0
  8 30  1  0  0  0  0
  9 22  1  0  0  0  0
  9 31  1  0  0  0  0
 10 13  2  0  0  0  0
 11 13  2  0  0  0  0
 12 13  1  0  0  0  0
 12 32  1  0  0  0  0
 12 33  1  0  0  0  0
 14 15  1  0  0  0  0
 14 34  1  0  0  0  0
 15 16  2  0  0  0  0
 16 17  1  0  0  0  0
 16 18  1  0  0  0  0
 18 19  2  0  0  0  0
 18 20  2  0  0  0  0
 18 21  1  0  0  0  0
M  END
>  <DRUGBANK_ID>
DB04089

>  <SECONDARY_ACCESSION_NUMBERS>
EXPT00488

>  <COMMON_NAME>
AL5300

$$$$
