
 OpenBabel10282417072D

 52 55  0  0  0  0  0  0  0  0999 V2000
    0.1416    2.9976    0.0000 C   0  0  0  0  0  0  0  0  0  0  0  0
    0.9223    2.8441    0.0000 C   0  0  2  0  0  0  0  0  0  0  0  0
    1.8452    2.0710    0.0000 C   0  0  0  0  0  0  0  0  0  0  0  0
    1.8452    1.3649    0.0000 C   0  0  0  0  0  0  0  0  0  0  0  0
    1.3124    0.9039    0.0000 C   0  0  0  0  0  0  0  0  0  0  0  0
    0.0393    1.3809    0.0000 C   0  0  2  0  0  0  0  0  0  0  0  0
   -0.4773    1.9166    0.0000 C   0  0  0  0  0  0  0  0  0  0  0  0
   -0.4773    2.6389    0.0000 C   0  0  0  0  0  0  0  0  0  0  0  0
   -1.1001    2.9976    0.0000 N   0  0  0  0  0  0  0  0  0  0  0  0
   -1.7153    2.6389    0.0000 C   0  0  0  0  0  0  0  0  0  0  0  0
   -1.7153    1.9166    0.0000 C   0  0  0  0  0  0  0  0  0  0  0  0
   -1.1001    1.5579    0.0000 C   0  0  0  0  0  0  0  0  0  0  0  0
   -2.4307    3.0498    0.0000 O   0  0  0  0  0  0  0  0  0  0  0  0
    0.7682    1.9290    0.0000 C   0  0  0  0  0  0  0  0  0  0  0  0
    1.4730    1.5002    0.0000 C   0  0  0  0  0  0  0  0  0  0  0  0
    2.1969    1.8962    0.0000 C   0  0  0  0  0  0  0  0  0  0  0  0
   -0.4135    0.6912    0.0000 N   0  0  0  0  0  0  0  0  0  0  0  0
   -0.0425   -0.0457    0.0000 C   0  0  0  0  0  0  0  0  0  0  0  0
   -0.4953   -0.7354    0.0000 C   0  0  0  0  0  0  0  0  0  0  0  0
   -1.3190   -0.6881    0.0000 C   0  0  0  0  0  0  0  0  0  0  0  0
   -1.7718   -1.3778    0.0000 C   0  0  0  0  0  0  0  0  0  0  0  0
   -1.4008   -2.1148    0.0000 C   0  0  0  0  0  0  0  0  0  0  0  0
   -0.5773   -2.1621    0.0000 C   0  0  0  0  0  0  0  0  0  0  0  0
   -0.1244   -1.4724    0.0000 C   0  0  0  0  0  0  0  0  0  0  0  0
    0.6992   -1.5196    0.0000 O   0  0  0  0  0  0  0  0  0  0  0  0
   -0.2064   -2.8990    0.0000 O   0  0  0  0  0  0  0  0  0  0  0  0
   -0.6592   -3.5887    0.0000 C   0  0  0  0  0  0  0  0  0  0  0  0
   -2.5955   -1.3305    0.0000 Cl  0  0  0  0  0  0  0  0  0  0  0  0
    2.5955    1.0218    0.0000 C   0  0  0  0  0  0  0  0  0  0  0  0
    1.2780    3.5887    0.0000 H   0  0  0  0  0  0  0  0  0  0  0  0
   -0.0347    4.0530    0.0000 H   0  0  0  0  0  0  0  0  0  0  0  0
   -0.8265    3.4533    0.0000 H   0  0  0  0  0  0  0  0  0  0  0  0
    2.7803    2.5075    0.0000 H   0  0  0  0  0  0  0  0  0  0  0  0
    1.5012   -0.1493    0.0000 H   0  0  0  0  0  0  0  0  0  0  0  0
    0.4905    0.2188    0.0000 H   0  0  0  0  0  0  0  0  0  0  0  0
   -1.1027    3.9821    0.0000 H   0  0  0  0  0  0  0  0  0  0  0  0
   -2.6101    1.4025    0.0000 H   0  0  0  0  0  0  0  0  0  0  0  0
   -1.1028    0.5259    0.0000 H   0  0  0  0  0  0  0  0  0  0  0  0
    1.4493    0.4685    0.0000 H   0  0  0  0  0  0  0  0  0  0  0  0
    3.1110    1.3400    0.0000 H   0  0  0  0  0  0  0  0  0  0  0  0
    2.2215    2.9659    0.0000 H   0  0  0  0  0  0  0  0  0  0  0  0
    3.1356    2.4097    0.0000 H   0  0  0  0  0  0  0  0  0  0  0  0
    0.9878   -0.1048    0.0000 H   0  0  0  0  0  0  0  0  0  0  0  0
   -1.7829    0.2337    0.0000 H   0  0  0  0  0  0  0  0  0  0  0  0
   -1.9671   -2.9775    0.0000 H   0  0  0  0  0  0  0  0  0  0  0  0
    1.1205   -2.3565    0.0000 H   0  0  0  0  0  0  0  0  0  0  0  0
   -1.7274   -3.5274    0.0000 H   0  0  0  0  0  0  0  0  0  0  0  0
   -0.1782   -4.5445    0.0000 H   0  0  0  0  0  0  0  0  0  0  0  0
   -1.2464   -4.4832    0.0000 H   0  0  0  0  0  0  0  0  0  0  0  0
    2.6967   -0.0434    0.0000 H   0  0  0  0  0  0  0  0  0  0  0  0
    3.4674    1.6420    0.0000 H   0  0  0  0  0  0  0  0  0  0  0  0
    3.5686    0.5768    0.0000 H   0  0  0  0  0  0  0  0  0  0  0  0
  1  2  1  0  0  0  0
  1  8  1  0  0  0  0
  1 31  1  0  0  0  0
  1 32  1  0  0  0  0
  2  3  1  0  0  0  0
  2 14  1  0  0  0  0
  2 30  1  1  0  0  0
  3  4  2  0  0  0  0
  3 33  1  0  0  0  0
  4 29  1  0  0  0  0
  5  4  1  0  0  0  0
  5 34  1  0  0  0  0
  5 35  1  0  0  0  0
  6  5  1  0  0  0  0
  6 14  1  0  0  0  0
  6 17  1  1  0  0  0
  7  6  1  0  0  0  0
  7 12  1  0  0  0  0
  8  7  2  0  0  0  0
  8  9  1  0  0  0  0
  9 10  1  0  0  0  0
  9 36  1  0  0  0  0
 10 11  1  0  0  0  0
 10 13  2  0  0  0  0
 11 12  2  0  0  0  0
 11 37  1  0  0  0  0
 12 38  1  0  0  0  0
 14 15  2  0  0  0  0
 15 16  1  0  0  0  0
 15 39  1  0  0  0  0
 16 40  1  0  0  0  0
 16 41  1  0  0  0  0
 16 42  1  0  0  0  0
 17 18  2  0  0  0  0
 18 19  1  0  0  0  0
 18 43  1  0  0  0  0
 19 24  1  0  0  0  0
 20 19  2  0  0  0  0
 20 44  1  0  0  0  0
 21 20  1  0  0  0  0
 21 28  1  0  0  0  0
 22 21  2  0  0  0  0
 22 45  1  0  0  0  0
 23 22  1  0  0  0  0
 23 26  1  0  0  0  0
 24 23  2  0  0  0  0
 24 25  1  0  0  0  0
 25 46  1  0  0  0  0
 26 27  1  0  0  0  0
 27 47  1  0  0  0  0
 27 48  1  0  0  0  0
 27 49  1  0  0  0  0
 29 50  1  0  0  0  0
 29 51  1  0  0  0  0
 29 52  1  0  0  0  0
M  END
>  <DRUGBANK_ID>
DB05520

>  <COMMON_NAME>
Mimopezil

>  <CAS_NUMBER>
180694-97-7

>  <UNII>
4MU6P880QL

>  <SYNONYMS>
Mimopezil; Mimop√©zil; Mimopezilo; Mimopezilum; N-(2-Hydroxy-3-methoxy-5-chlorobenzylidene)huperzine A

$$$$
