
 OpenBabel10282417072D

 37 41  0  0  1  0  0  0  0  0999 V2000
    2.6740    0.0629    0.0000 C   0  0  0  0  0  0  0  0  0  0  0  0
    2.9790   -0.7037    0.0000 C   0  0  2  0  0  0  0  0  0  0  0  0
    3.5552   -0.1133    0.0000 C   0  0  0  0  0  0  0  0  0  0  0  0
    4.2948   -0.4789    0.0000 C   0  0  0  0  0  0  0  0  0  0  0  0
    4.1756   -1.2952    0.0000 C   0  0  0  0  0  0  0  0  0  0  0  0
    3.3624   -1.4341    0.0000 N   0  0  3  0  0  0  0  0  0  0  0  0
    2.9215   -2.1314    0.0000 C   0  0  0  0  0  0  0  0  0  0  0  0
    2.0528   -2.1199    0.0000 C   0  0  0  0  0  0  0  0  0  0  0  0
    1.6762   -2.8539    0.0000 N   0  0  0  0  0  0  0  0  0  0  0  0
    0.8675   -3.0171    0.0000 N   0  0  0  0  0  0  0  0  0  0  0  0
    0.2357   -2.4866    0.0000 C   0  0  0  0  0  0  0  0  0  0  0  0
   -0.5164   -2.8256    0.0000 O   0  0  0  0  0  0  0  0  0  0  0  0
    0.2565   -1.6618    0.0000 C   0  0  0  0  0  0  0  0  0  0  0  0
    0.9143   -1.1639    0.0000 C   0  0  0  0  0  0  0  0  0  0  0  0
    0.8612   -0.3406    0.0000 C   0  0  0  0  0  0  0  0  0  0  0  0
    1.6277   -0.0357    0.0000 N   0  0  0  0  0  0  0  0  0  0  0  0
    2.1546   -0.6705    0.0000 C   0  0  0  0  0  0  0  0  0  0  0  0
    1.7137   -1.3678    0.0000 C   0  0  0  0  0  0  0  0  0  0  0  0
    0.1216    0.0250    0.0000 C   0  0  0  0  0  0  0  0  0  0  0  0
   -0.5648   -0.4327    0.0000 C   0  0  0  0  0  0  0  0  0  0  0  0
   -1.3044   -0.0671    0.0000 F   0  0  0  0  0  0  0  0  0  0  0  0
   -0.5117   -1.2560    0.0000 C   0  0  0  0  0  0  0  0  0  0  0  0
    3.3372    0.9026    0.0000 H   0  0  0  0  0  0  0  0  0  0  0  0
    1.6152    0.2174    0.0000 H   0  0  0  0  0  0  0  0  0  0  0  0
    2.2784    1.0571    0.0000 H   0  0  0  0  0  0  0  0  0  0  0  0
    3.3750    0.9414    0.0000 H   0  0  0  0  0  0  0  0  0  0  0  0
    4.4131    0.5261    0.0000 H   0  0  0  0  0  0  0  0  0  0  0  0
    5.2422    0.0184    0.0000 H   0  0  0  0  0  0  0  0  0  0  0  0
    5.1680   -1.0973    0.0000 H   0  0  0  0  0  0  0  0  0  0  0  0
    4.9413   -2.0426    0.0000 H   0  0  0  0  0  0  0  0  0  0  0  0
    3.8573   -2.3168    0.0000 H   0  0  0  0  0  0  0  0  0  0  0  0
    3.4315   -3.0720    0.0000 H   0  0  0  0  0  0  0  0  0  0  0  0
    2.3681   -3.0472    0.0000 H   0  0  0  0  0  0  0  0  0  0  0  0
    0.6242   -3.9711    0.0000 H   0  0  0  0  0  0  0  0  0  0  0  0
    1.8710    0.9183    0.0000 H   0  0  0  0  0  0  0  0  0  0  0  0
    0.0551    1.0549    0.0000 H   0  0  0  0  0  0  0  0  0  0  0  0
   -1.3780   -1.8169    0.0000 H   0  0  0  0  0  0  0  0  0  0  0  0
  1 23  1  0  0  0  0
  1 24  1  0  0  0  0
  1 25  1  0  0  0  0
  2  1  1  6  0  0  0
  2  3  1  0  0  0  0
  2  6  1  0  0  0  0
  2 17  1  0  0  0  0
  3  4  1  0  0  0  0
  3 26  1  0  0  0  0
  3 27  1  0  0  0  0
  4  5  1  0  0  0  0
  4 28  1  0  0  0  0
  4 29  1  0  0  0  0
  5  6  1  0  0  0  0
  5 30  1  0  0  0  0
  5 31  1  0  0  0  0
  6  7  1  0  0  0  0
  7  8  1  0  0  0  0
  7 32  1  0  0  0  0
  7 33  1  0  0  0  0
  8  9  2  0  0  0  0
  8 18  1  0  0  0  0
  9 10  1  0  0  0  0
 10 11  1  0  0  0  0
 10 34  1  0  0  0  0
 11 12  2  0  0  0  0
 11 13  1  0  0  0  0
 13 14  2  0  0  0  0
 13 22  1  0  0  0  0
 14 15  1  0  0  0  0
 14 18  1  0  0  0  0
 15 16  1  0  0  0  0
 15 19  2  0  0  0  0
 16 17  1  0  0  0  0
 16 35  1  0  0  0  0
 17 18  2  0  0  0  0
 19 20  1  0  0  0  0
 19 36  1  0  0  0  0
 20 21  1  0  0  0  0
 20 22  2  0  0  0  0
 22 37  1  0  0  0  0
M  END
>  <DRUGBANK_ID>
DB14769

>  <COMMON_NAME>
Pamiparib

>  <CAS_NUMBER>
1446261-44-4

>  <UNII>
8375F9S90C

>  <SYNONYMS>
Pamiparib

$$$$
