
 OpenBabel10282417072D

 30 29  0  0  0  0  0  0  0  0999 V2000
   -0.0192    0.1907    0.0000 C   0  0  1  0  0  0  0  0  0  0  0  0
   -0.7000   -0.2003    0.0000 C   0  0  1  0  0  0  0  0  0  0  0  0
    0.7193   -0.1859    0.0000 C   0  0  1  0  0  0  0  0  0  0  0  0
   -1.4291    0.1859    0.0000 C   0  0  2  0  0  0  0  0  0  0  0  0
   -0.0192    1.0308    0.0000 O   0  0  0  0  0  0  0  0  0  0  0  0
   -0.6904   -1.0308    0.0000 O   0  0  0  0  0  0  0  0  0  0  0  0
    2.1532   -0.1762    0.0000 N   0  0  0  0  0  0  0  0  0  0  0  0
   -1.4387    1.0162    0.0000 O   0  0  0  0  0  0  0  0  0  0  0  0
    0.7193   -1.0162    0.0000 O   0  0  0  0  0  0  0  0  0  0  0  0
    1.4146    0.2148    0.0000 C   0  0  0  0  0  0  0  0  0  0  0  0
   -2.8727    0.1568    0.0000 O   0  0  0  0  0  0  0  0  0  0  0  0
   -2.1484   -0.2052    0.0000 C   0  0  0  0  0  0  0  0  0  0  0  0
    2.8727    0.2292    0.0000 C   0  0  0  0  0  0  0  0  0  0  0  0
   -0.9452    0.7268    0.0000 H   0  0  0  0  0  0  0  0  0  0  0  0
    0.2291   -0.7310    0.0000 H   0  0  0  0  0  0  0  0  0  0  0  0
   -0.1931   -0.7448    0.0000 H   0  0  0  0  0  0  0  0  0  0  0  0
   -0.5156    0.7430    0.0000 H   0  0  0  0  0  0  0  0  0  0  0  0
    0.8208    1.5158    0.0000 H   0  0  0  0  0  0  0  0  0  0  0  0
   -1.5248   -1.5255    0.0000 H   0  0  0  0  0  0  0  0  0  0  0  0
    2.1666   -1.1961    0.0000 H   0  0  0  0  0  0  0  0  0  0  0  0
   -0.6043    1.5109    0.0000 H   0  0  0  0  0  0  0  0  0  0  0  0
   -0.1207   -1.5012    0.0000 H   0  0  0  0  0  0  0  0  0  0  0  0
    1.3954    1.2846    0.0000 H   0  0  0  0  0  0  0  0  0  0  0  0
    0.4834    0.7418    0.0000 H   0  0  0  0  0  0  0  0  0  0  0  0
   -2.9310    1.1250    0.0000 H   0  0  0  0  0  0  0  0  0  0  0  0
   -2.1299   -1.2750    0.0000 H   0  0  0  0  0  0  0  0  0  0  0  0
   -1.2240   -0.7441    0.0000 H   0  0  0  0  0  0  0  0  0  0  0  0
    3.7937   -0.3155    0.0000 H   0  0  0  0  0  0  0  0  0  0  0  0
    2.8839    1.2991    0.0000 H   0  0  0  0  0  0  0  0  0  0  0  0
    3.8049    0.7544    0.0000 H   0  0  0  0  0  0  0  0  0  0  0  0
  1  5  1  0  0  0  0
  1 14  1  1  0  0  0
  2  1  1  0  0  0  0
  2  6  1  0  0  0  0
  2 15  1  1  0  0  0
  3  1  1  0  0  0  0
  3  9  1  0  0  0  0
  3 16  1  1  0  0  0
  4  2  1  0  0  0  0
  4  8  1  0  0  0  0
  4 17  1  6  0  0  0
  5 18  1  0  0  0  0
  6 19  1  0  0  0  0
  7 10  1  0  0  0  0
  7 20  1  0  0  0  0
  8 21  1  0  0  0  0
  9 22  1  0  0  0  0
 10  3  1  0  0  0  0
 10 23  1  0  0  0  0
 10 24  1  0  0  0  0
 11 12  1  0  0  0  0
 11 25  1  0  0  0  0
 12  4  1  0  0  0  0
 12 26  1  0  0  0  0
 12 27  1  0  0  0  0
 13  7  1  0  0  0  0
 13 28  1  0  0  0  0
 13 29  1  0  0  0  0
 13 30  1  0  0  0  0
M  END
>  <DRUGBANK_ID>
DB09415

>  <COMMON_NAME>
Meglumine

>  <CAS_NUMBER>
6284-40-8

>  <UNII>
6HG8UB2MUY

>  <SYNONYMS>
1-deoxy-1-methylaminosorbitol; Iosulamide; Meglumina; MÃ©glumine; Meglumine; Megluminum; N-methyl-D-glucamine

$$$$
