AD8
 OpenBabel10282417072D

 38 41  0  0  0  0  0  0  0  0999 V2000
    0.0218   -1.6798    0.0000 N   0  0  0  0  0  0  0  0  0  0  0  0
   -0.6457   -2.1647    0.0000 C   0  0  0  0  0  0  0  0  0  0  0  0
   -0.3907   -2.9493    0.0000 N   0  0  0  0  0  0  0  0  0  0  0  0
    0.4343   -2.9493    0.0000 C   0  0  0  0  0  0  0  0  0  0  0  0
    0.6892   -2.1647    0.0000 C   0  0  0  0  0  0  0  0  0  0  0  0
    0.0217   -0.8548    0.0000 C   0  0  0  0  0  0  0  0  0  0  0  0
   -0.6928   -0.4423    0.0000 C   0  0  0  0  0  0  0  0  0  0  0  0
   -1.4072   -0.8548    0.0000 O   0  0  0  0  0  0  0  0  0  0  0  0
   -0.6928    0.3827    0.0000 C   0  0  2  0  0  0  0  0  0  0  0  0
   -1.4282    0.0090    0.0000 C   0  0  0  0  0  0  0  0  0  0  0  0
   -0.6928    1.1301    0.0000 C   0  0  0  0  0  0  0  0  0  0  0  0
    0.0428    0.0090    0.0000 C   0  0  0  0  0  0  0  0  0  0  0  0
    0.4923    0.7993    0.0000 C   0  0  2  0  0  0  0  0  0  0  0  0
   -0.2433    0.4256    0.0000 C   0  0  0  0  0  0  0  0  0  0  0  0
    0.4923    1.5467    0.0000 C   0  0  0  0  0  0  0  0  0  0  0  0
   -0.2433    1.9204    0.0000 C   0  0  2  0  0  0  0  0  0  0  0  0
   -0.9788    1.5467    0.0000 C   0  0  0  0  0  0  0  0  0  0  0  0
   -0.9788    0.7993    0.0000 C   0  0  1  0  0  0  0  0  0  0  0  0
    1.0568    0.6500    0.0000 H   0  0  0  0  0  0  0  0  0  0  0  0
   -0.2433    2.5043    0.0000 H   0  0  0  0  0  0  0  0  0  0  0  0
   -1.5433    0.9486    0.0000 H   0  0  0  0  0  0  0  0  0  0  0  0
   -1.6272   -1.8458    0.0000 H   0  0  0  0  0  0  0  0  0  0  0  0
    1.0409   -3.7842    0.0000 H   0  0  0  0  0  0  0  0  0  0  0  0
    1.6707   -1.8458    0.0000 H   0  0  0  0  0  0  0  0  0  0  0  0
    0.9483   -0.3197    0.0000 H   0  0  0  0  0  0  0  0  0  0  0  0
    0.0217    0.2152    0.0000 H   0  0  0  0  0  0  0  0  0  0  0  0
   -2.2023   -0.7297    0.0000 H   0  0  0  0  0  0  0  0  0  0  0  0
   -2.2716    0.6675    0.0000 H   0  0  0  0  0  0  0  0  0  0  0  0
   -1.7272    1.4037    0.0000 H   0  0  0  0  0  0  0  0  0  0  0  0
   -1.5406    0.4774    0.0000 H   0  0  0  0  0  0  0  0  0  0  0  0
    0.3506   -1.0158    0.0000 H   0  0  0  0  0  0  0  0  0  0  0  0
    1.1060   -0.1113    0.0000 H   0  0  0  0  0  0  0  0  0  0  0  0
   -0.2433   -0.6444    0.0000 H   0  0  0  0  0  0  0  0  0  0  0  0
    0.6687   -0.1340    0.0000 H   0  0  0  0  0  0  0  0  0  0  0  0
    1.4043    2.1063    0.0000 H   0  0  0  0  0  0  0  0  0  0  0  0
    1.4260    1.0242    0.0000 H   0  0  0  0  0  0  0  0  0  0  0  0
   -1.8908    2.1063    0.0000 H   0  0  0  0  0  0  0  0  0  0  0  0
   -1.9125    1.0241    0.0000 H   0  0  0  0  0  0  0  0  0  0  0  0
  1  6  1  0  0  0  0
  2  1  1  0  0  0  0
  2 22  1  0  0  0  0
  3  2  2  0  0  0  0
  3  4  1  0  0  0  0
  4  5  2  0  0  0  0
  4 23  1  0  0  0  0
  5  1  1  0  0  0  0
  5 24  1  0  0  0  0
  6  7  1  0  0  0  0
  6 25  1  0  0  0  0
  6 26  1  0  0  0  0
  8  7  2  0  0  0  0
  9  7  1  6  0  0  0
  9 12  1  0  0  0  0
  9 11  1  0  0  0  0
 10  9  1  0  0  0  0
 10 18  1  0  0  0  0
 10 27  1  0  0  0  0
 10 28  1  0  0  0  0
 11 16  1  0  0  0  0
 11 29  1  0  0  0  0
 11 30  1  0  0  0  0
 12 13  1  0  0  0  0
 12 31  1  0  0  0  0
 12 32  1  0  0  0  0
 13 19  1  1  0  0  0
 13 15  1  0  0  0  0
 14 13  1  0  0  0  0
 14 33  1  0  0  0  0
 14 34  1  0  0  0  0
 15 35  1  0  0  0  0
 15 36  1  0  0  0  0
 16 15  1  0  0  0  0
 16 20  1  6  0  0  0
 17 16  1  0  0  0  0
 17 37  1  0  0  0  0
 17 38  1  0  0  0  0
 18 14  1  0  0  0  0
 18 17  1  0  0  0  0
 18 21  1  1  0  0  0
M  END
>  <DRUGBANK_ID>
DB07342

>  <COMMON_NAME>
1-(adamantan-1-yl)-2-(1H-imidazol-1-yl)ethanone

$$$$
