ME5
 OpenBabel10282417072D

 50 53  0  0  0  0  0  0  0  0999 V2000
    1.6267   -5.8092    0.0000 C   0  0  0  0  0  0  0  0  0  0  0  0
    0.1747   -5.5792    0.0000 C   0  0  0  0  0  0  0  0  0  0  0  0
    0.8421   -6.0641    0.0000 C   0  0  0  0  0  0  0  0  0  0  0  0
    2.2035   -1.8741    0.0000 C   0  0  0  0  0  0  0  0  0  0  0  0
    3.2503   -5.2322    0.0000 C   0  0  0  0  0  0  0  0  0  0  0  0
    3.9178   -4.7473    0.0000 C   0  0  0  0  0  0  0  0  0  0  0  0
    3.6628   -3.9626    0.0000 C   0  0  0  0  0  0  0  0  0  0  0  0
    2.8378   -3.9626    0.0000 C   0  0  1  0  0  0  0  0  0  0  0  0
    0.8981   -1.2929    0.0000 C   0  0  0  0  0  0  0  0  0  0  0  0
   -0.0717    0.0420    0.0000 C   0  0  0  0  0  0  0  0  0  0  0  0
    1.2337   -0.5392    0.0000 C   0  0  0  0  0  0  0  0  0  0  0  0
    2.5829   -4.7473    0.0000 C   0  0  2  0  0  0  0  0  0  0  0  0
    1.0843    0.8819    0.0000 C   0  0  0  0  0  0  0  0  0  0  0  0
    2.5391   -1.1204    0.0000 C   0  0  0  0  0  0  0  0  0  0  0  0
    0.5994    1.5493    0.0000 C   0  0  0  0  0  0  0  0  0  0  0  0
    2.6885   -2.5415    0.0000 C   0  0  0  0  0  0  0  0  0  0  0  0
    1.3831   -1.9603    0.0000 C   0  0  0  0  0  0  0  0  0  0  0  0
    0.7488    0.1282    0.0000 N   0  0  0  0  0  0  0  0  0  0  0  0
    2.0542   -0.4530    0.0000 C   0  0  0  0  0  0  0  0  0  0  0  0
   -0.5566    0.7094    0.0000 C   0  0  0  0  0  0  0  0  0  0  0  0
   -0.2211    1.4631    0.0000 C   0  0  0  0  0  0  0  0  0  0  0  0
    1.9048    0.9681    0.0000 O   0  0  0  0  0  0  0  0  0  0  0  0
    2.3529   -3.2952    0.0000 N   0  0  0  0  0  0  0  0  0  0  0  0
    3.5090   -2.4553    0.0000 O   0  0  0  0  0  0  0  0  0  0  0  0
    1.7983   -5.0022    0.0000 N   0  0  0  0  0  0  0  0  0  0  0  0
    2.2398   -6.3612    0.0000 O   0  0  0  0  0  0  0  0  0  0  0  0
   -0.4928   -6.0641    0.0000 C   0  0  0  0  0  0  0  0  0  0  0  0
    0.5872   -6.8487    0.0000 S   0  0  0  0  0  0  0  0  0  0  0  0
   -0.2378   -6.8487    0.0000 C   0  0  0  0  0  0  0  0  0  0  0  0
   -0.7227   -7.5162    0.0000 Cl  0  0  0  0  0  0  0  0  0  0  0  0
    3.1029   -3.4424    0.0000 H   0  0  0  0  0  0  0  0  0  0  0  0
    2.4916   -5.3240    0.0000 H   0  0  0  0  0  0  0  0  0  0  0  0
    0.1747   -4.5472    0.0000 H   0  0  0  0  0  0  0  0  0  0  0  0
    3.2503   -6.3022    0.0000 H   0  0  0  0  0  0  0  0  0  0  0  0
    4.2037   -5.7180    0.0000 H   0  0  0  0  0  0  0  0  0  0  0  0
    4.9354   -5.0780    0.0000 H   0  0  0  0  0  0  0  0  0  0  0  0
    4.6744   -3.9907    0.0000 H   0  0  0  0  0  0  0  0  0  0  0  0
    4.2917   -3.0969    0.0000 H   0  0  0  0  0  0  0  0  0  0  0  0
    3.1770   -3.0092    0.0000 H   0  0  0  0  0  0  0  0  0  0  0  0
   -0.1282   -1.4008    0.0000 H   0  0  0  0  0  0  0  0  0  0  0  0
   -0.4915   -0.9008    0.0000 H   0  0  0  0  0  0  0  0  0  0  0  0
    3.5654   -1.0125    0.0000 H   0  0  0  0  0  0  0  0  0  0  0  0
    1.0192    2.4921    0.0000 H   0  0  0  0  0  0  0  0  0  0  0  0
    0.9634   -2.9031    0.0000 H   0  0  0  0  0  0  0  0  0  0  0  0
    2.4740    0.4898    0.0000 H   0  0  0  0  0  0  0  0  0  0  0  0
   -1.5829    0.6015    0.0000 H   0  0  0  0  0  0  0  0  0  0  0  0
   -0.8277    2.2980    0.0000 H   0  0  0  0  0  0  0  0  0  0  0  0
    1.3738   -3.3981    0.0000 H   0  0  0  0  0  0  0  0  0  0  0  0
    1.0667   -4.3434    0.0000 H   0  0  0  0  0  0  0  0  0  0  0  0
   -1.4743   -5.7452    0.0000 H   0  0  0  0  0  0  0  0  0  0  0  0
  1 26  2  0  0  0  0
  1 25  1  0  0  0  0
  1  3  1  0  0  0  0
  2  3  2  0  0  0  0
  2 27  1  0  0  0  0
  2 33  1  0  0  0  0
  3 28  1  0  0  0  0
  4 17  2  0  0  0  0
  4 14  1  0  0  0  0
  4 16  1  0  0  0  0
  5 12  1  0  0  0  0
  5  6  1  0  0  0  0
  5 34  1  0  0  0  0
  5 35  1  0  0  0  0
  6  7  1  0  0  0  0
  6 36  1  0  0  0  0
  6 37  1  0  0  0  0
  7  8  1  0  0  0  0
  7 38  1  0  0  0  0
  7 39  1  0  0  0  0
  8 23  1  0  0  0  0
  8 12  1  0  0  0  0
  8 31  1  6  0  0  0
  9 11  2  0  0  0  0
  9 17  1  0  0  0  0
  9 40  1  0  0  0  0
 10 20  2  0  0  0  0
 10 18  1  0  0  0  0
 10 41  1  0  0  0  0
 11 18  1  0  0  0  0
 11 19  1  0  0  0  0
 12 25  1  0  0  0  0
 12 32  1  6  0  0  0
 13 15  1  0  0  0  0
 13 22  2  0  0  0  0
 13 18  1  0  0  0  0
 14 19  2  0  0  0  0
 14 42  1  0  0  0  0
 15 21  2  0  0  0  0
 15 43  1  0  0  0  0
 16 24  2  0  0  0  0
 16 23  1  0  0  0  0
 17 44  1  0  0  0  0
 19 45  1  0  0  0  0
 20 21  1  0  0  0  0
 20 46  1  0  0  0  0
 21 47  1  0  0  0  0
 23 48  1  0  0  0  0
 25 49  1  0  0  0  0
 27 29  2  0  0  0  0
 27 50  1  0  0  0  0
 28 29  1  0  0  0  0
 29 30  1  0  0  0  0
M  END
>  <DRUGBANK_ID>
DB08174

>  <COMMON_NAME>
5-CHLORO-N-((1R,2S)-2-(4-(2-OXOPYRIDIN-1(2H)-YL)BENZAMIDO) CYCLOPENTYL)THIOPHENE-2-CARBOXAMIDE

$$$$
