906
 OpenBabel10282417072D

 50 52  0  0  1  0  0  0  0  0999 V2000
    6.0232   -0.3227    0.0000 S   0  0  0  0  0  0  0  0  0  0  0  0
    5.8899   -2.8656    0.0000 S   0  0  0  0  0  0  0  0  0  0  0  0
    2.3645    3.3945    0.0000 O   0  0  0  0  0  0  0  0  0  0  0  0
    1.6500    2.1569    0.0000 O   0  0  0  0  0  0  0  0  0  0  0  0
    3.7935    0.9194    0.0000 N   0  0  0  0  0  0  0  0  0  0  0  0
    3.0791    2.1569    0.0000 C   0  0  1  0  0  0  0  0  0  0  0  0
    3.0791    1.3319    0.0000 C   0  0  0  0  0  0  0  0  0  0  0  0
    3.7935    2.5694    0.0000 C   0  0  0  0  0  0  0  0  0  0  0  0
    4.5080    2.1569    0.0000 C   0  0  0  0  0  0  0  0  0  0  0  0
    4.5080    1.3319    0.0000 C   0  0  0  0  0  0  0  0  0  0  0  0
    3.7935    0.0944    0.0000 C   0  0  0  0  0  0  0  0  0  0  0  0
    4.5080   -0.3181    0.0000 C   0  0  0  0  0  0  0  0  0  0  0  0
    2.3645    2.5694    0.0000 C   0  0  0  0  0  0  0  0  0  0  0  0
    4.5080   -1.1431    0.0000 C   0  0  0  0  0  0  0  0  0  0  0  0
    5.2224   -1.5557    0.0000 C   0  0  0  0  0  0  0  0  0  0  0  0
    5.9370   -1.1431    0.0000 C   0  0  0  0  0  0  0  0  0  0  0  0
    5.2224   -2.3807    0.0000 C   0  0  0  0  0  0  0  0  0  0  0  0
    6.6906   -1.4787    0.0000 C   0  0  0  0  0  0  0  0  0  0  0  0
    4.5550   -2.8656    0.0000 C   0  0  0  0  0  0  0  0  0  0  0  0
    7.2427   -0.8656    0.0000 C   0  0  0  0  0  0  0  0  0  0  0  0
    4.8099   -3.6502    0.0000 C   0  0  0  0  0  0  0  0  0  0  0  0
    6.8622   -2.2857    0.0000 C   0  0  0  0  0  0  0  0  0  0  0  0
    3.7704   -2.6106    0.0000 C   0  0  0  0  0  0  0  0  0  0  0  0
    6.8302   -0.1511    0.0000 C   0  0  0  0  0  0  0  0  0  0  0  0
    5.6350   -3.6502    0.0000 C   0  0  0  0  0  0  0  0  0  0  0  0
    3.1760    3.8630    0.0000 H   0  0  0  0  0  0  0  0  0  0  0  0
    2.1525    1.6219    0.0000 H   0  0  0  0  0  0  0  0  0  0  0  0
    2.1524    0.7969    0.0000 H   0  0  0  0  0  0  0  0  0  0  0  0
    2.1525    1.8669    0.0000 H   0  0  0  0  0  0  0  0  0  0  0  0
    3.7935    3.6394    0.0000 H   0  0  0  0  0  0  0  0  0  0  0  0
    4.7201    3.1044    0.0000 H   0  0  0  0  0  0  0  0  0  0  0  0
    5.4346    2.6919    0.0000 H   0  0  0  0  0  0  0  0  0  0  0  0
    5.4346    1.6219    0.0000 H   0  0  0  0  0  0  0  0  0  0  0  0
    5.4346    0.7969    0.0000 H   0  0  0  0  0  0  0  0  0  0  0  0
    5.4346    1.8669    0.0000 H   0  0  0  0  0  0  0  0  0  0  0  0
    2.8669   -0.4406    0.0000 H   0  0  0  0  0  0  0  0  0  0  0  0
    3.7935   -0.9756    0.0000 H   0  0  0  0  0  0  0  0  0  0  0  0
    5.4346    0.2169    0.0000 H   0  0  0  0  0  0  0  0  0  0  0  0
    5.4346   -0.8531    0.0000 H   0  0  0  0  0  0  0  0  0  0  0  0
    3.6142   -1.6590    0.0000 H   0  0  0  0  0  0  0  0  0  0  0  0
    8.2690   -0.9735    0.0000 H   0  0  0  0  0  0  0  0  0  0  0  0
    4.2033   -4.4851    0.0000 H   0  0  0  0  0  0  0  0  0  0  0  0
    6.0671   -3.0017    0.0000 H   0  0  0  0  0  0  0  0  0  0  0  0
    7.8799   -2.6163    0.0000 H   0  0  0  0  0  0  0  0  0  0  0  0
    7.0847   -3.3323    0.0000 H   0  0  0  0  0  0  0  0  0  0  0  0
    3.5480   -1.5640    0.0000 H   0  0  0  0  0  0  0  0  0  0  0  0
    2.9752   -3.3265    0.0000 H   0  0  0  0  0  0  0  0  0  0  0  0
    2.7528   -2.2799    0.0000 H   0  0  0  0  0  0  0  0  0  0  0  0
    7.2499    0.7917    0.0000 H   0  0  0  0  0  0  0  0  0  0  0  0
    6.2416   -4.4851    0.0000 H   0  0  0  0  0  0  0  0  0  0  0  0
  1 16  1  0  0  0  0
  1 24  1  0  0  0  0
  2 17  1  0  0  0  0
  2 25  1  0  0  0  0
  3 13  1  0  0  0  0
  3 26  1  0  0  0  0
  4 13  2  0  0  0  0
  5  7  1  0  0  0  0
  5 10  1  0  0  0  0
  5 11  1  0  0  0  0
  6  7  1  0  0  0  0
  6  8  1  0  0  0  0
  6 13  1  0  0  0  0
  6 27  1  1  0  0  0
  7 28  1  0  0  0  0
  7 29  1  0  0  0  0
  8  9  1  0  0  0  0
  8 30  1  0  0  0  0
  8 31  1  0  0  0  0
  9 10  1  0  0  0  0
  9 32  1  0  0  0  0
  9 33  1  0  0  0  0
 10 34  1  0  0  0  0
 10 35  1  0  0  0  0
 11 12  1  0  0  0  0
 11 36  1  0  0  0  0
 11 37  1  0  0  0  0
 12 14  1  0  0  0  0
 12 38  1  0  0  0  0
 12 39  1  0  0  0  0
 14 15  2  0  0  0  0
 14 40  1  0  0  0  0
 15 16  1  0  0  0  0
 15 17  1  0  0  0  0
 16 18  2  0  0  0  0
 17 19  2  0  0  0  0
 18 20  1  0  0  0  0
 18 22  1  0  0  0  0
 19 21  1  0  0  0  0
 19 23  1  0  0  0  0
 20 24  2  0  0  0  0
 20 41  1  0  0  0  0
 21 25  2  0  0  0  0
 21 42  1  0  0  0  0
 22 43  1  0  0  0  0
 22 44  1  0  0  0  0
 22 45  1  0  0  0  0
 23 46  1  0  0  0  0
 23 47  1  0  0  0  0
 23 48  1  0  0  0  0
 24 49  1  0  0  0  0
 25 50  1  0  0  0  0
M  END
>  <DRUGBANK_ID>
DB00906

>  <SECONDARY_ACCESSION_NUMBERS>
APRD00344

>  <COMMON_NAME>
Tiagabine

>  <CAS_NUMBER>
115103-54-3

>  <UNII>
Z80I64HMNP

>  <SYNONYMS>
Tiagabina; Tiagabine; Tiagabinum

$$$$
