
 OpenBabel10282417072D

 31 30  0  0  1  0  0  0  0  0999 V2000
    2.2836    2.1434    0.0000 C   0  0  0  0  0  0  0  0  0  0  0  0
    2.9980    1.7309    0.0000 C   0  0  0  0  0  0  0  0  0  0  0  0
    3.7125    2.1434    0.0000 C   0  0  0  0  0  0  0  0  0  0  0  0
    4.4270    1.7309    0.0000 C   0  0  0  0  0  0  0  0  0  0  0  0
    5.1414    2.1434    0.0000 C   0  0  0  0  0  0  0  0  0  0  0  0
    5.8559    1.7309    0.0000 C   0  0  0  0  0  0  0  0  0  0  0  0
    6.5704    2.1434    0.0000 P   0  0  1  0  0  0  0  0  0  0  0  0
    6.9829    1.4289    0.0000 O   0  0  0  0  0  0  0  0  0  0  0  0
    6.1579    2.8579    0.0000 O   0  0  0  0  0  0  0  0  0  0  0  0
    7.2849    2.5559    0.0000 O   0  0  0  0  0  0  0  0  0  0  0  0
    7.9993    2.1434    0.0000 C   0  0  0  0  0  0  0  0  0  0  0  0
    8.7138    2.5559    0.0000 C   0  0  0  0  0  0  0  0  0  0  0  0
    2.2836    3.2134    0.0000 H   0  0  0  0  0  0  0  0  0  0  0  0
    1.3569    1.6084    0.0000 H   0  0  0  0  0  0  0  0  0  0  0  0
    1.3570    2.6784    0.0000 H   0  0  0  0  0  0  0  0  0  0  0  0
    2.9980    0.6609    0.0000 H   0  0  0  0  0  0  0  0  0  0  0  0
    3.9246    1.1959    0.0000 H   0  0  0  0  0  0  0  0  0  0  0  0
    3.7125    3.2134    0.0000 H   0  0  0  0  0  0  0  0  0  0  0  0
    4.6391    2.6784    0.0000 H   0  0  0  0  0  0  0  0  0  0  0  0
    4.4270    0.6609    0.0000 H   0  0  0  0  0  0  0  0  0  0  0  0
    5.3537    1.1959    0.0000 H   0  0  0  0  0  0  0  0  0  0  0  0
    5.1414    3.2134    0.0000 H   0  0  0  0  0  0  0  0  0  0  0  0
    6.0680    2.6784    0.0000 H   0  0  0  0  0  0  0  0  0  0  0  0
    5.8559    0.6609    0.0000 H   0  0  0  0  0  0  0  0  0  0  0  0
    6.7825    1.1959    0.0000 H   0  0  0  0  0  0  0  0  0  0  0  0
    6.4979    0.5889    0.0000 H   0  0  0  0  0  0  0  0  0  0  0  0
    7.9993    1.0734    0.0000 H   0  0  0  0  0  0  0  0  0  0  0  0
    8.9259    1.6084    0.0000 H   0  0  0  0  0  0  0  0  0  0  0  0
    9.6404    2.0209    0.0000 H   0  0  0  0  0  0  0  0  0  0  0  0
    8.7138    3.6259    0.0000 H   0  0  0  0  0  0  0  0  0  0  0  0
    9.6405    3.0909    0.0000 H   0  0  0  0  0  0  0  0  0  0  0  0
  1  2  1  0  0  0  0
  1 13  1  0  0  0  0
  1 14  1  0  0  0  0
  1 15  1  0  0  0  0
  2  3  1  0  0  0  0
  2 16  1  0  0  0  0
  2 17  1  0  0  0  0
  3  4  1  0  0  0  0
  3 18  1  0  0  0  0
  3 19  1  0  0  0  0
  4  5  1  0  0  0  0
  4 20  1  0  0  0  0
  4 21  1  0  0  0  0
  5  6  1  0  0  0  0
  5 22  1  0  0  0  0
  5 23  1  0  0  0  0
  6  7  1  0  0  0  0
  6 24  1  0  0  0  0
  6 25  1  0  0  0  0
  7  8  1  0  0  0  0
  7  9  2  6  0  0  0
  7 10  1  0  0  0  0
  8 26  1  0  0  0  0
 10 11  1  0  0  0  0
 11 12  1  0  0  0  0
 11 27  1  0  0  0  0
 11 28  1  0  0  0  0
 12 29  1  0  0  0  0
 12 30  1  0  0  0  0
 12 31  1  0  0  0  0
M  END
>  <DRUGBANK_ID>
DB04321

>  <SECONDARY_ACCESSION_NUMBERS>
EXPT01724

>  <COMMON_NAME>
N-Hexylphosphonate Ethyl Ester

>  <UNII>
94B7PG7ZRX

$$$$
