INC
 OpenBabel10282417072D

 31 30  0  0  0  0  0  0  0  0999 V2000
    0.8193   -2.4236    0.0000 C   0  0  0  0  0  0  0  0  0  0  0  0
    0.8193   -1.5986    0.0000 C   0  0  0  0  0  0  0  0  0  0  0  0
    1.5338   -1.1861    0.0000 O   0  0  0  0  0  0  0  0  0  0  0  0
    0.1049   -1.1861    0.0000 N   0  0  0  0  0  0  0  0  0  0  0  0
   -0.6096   -1.5986    0.0000 O   0  0  0  0  0  0  0  0  0  0  0  0
    0.1049   -0.3611    0.0000 C   0  0  2  0  0  0  0  0  0  0  0  0
   -0.6096    0.0514    0.0000 C   0  0  0  0  0  0  0  0  0  0  0  0
   -0.6096    0.8764    0.0000 C   0  0  0  0  0  0  0  0  0  0  0  0
   -1.3241    1.2889    0.0000 C   0  0  0  0  0  0  0  0  0  0  0  0
    0.1049    1.2889    0.0000 C   0  0  0  0  0  0  0  0  0  0  0  0
    0.8193    0.0514    0.0000 C   0  0  0  0  0  0  0  0  0  0  0  0
    1.5338   -0.3611    0.0000 O   0  0  0  0  0  0  0  0  0  0  0  0
    0.8193    0.8764    0.0000 O   0  0  0  0  0  0  0  0  0  0  0  0
    1.5338    1.2889    0.0000 C   0  0  0  0  0  0  0  0  0  0  0  0
   -0.4008   -0.6531    0.0000 H   0  0  0  0  0  0  0  0  0  0  0  0
   -0.1073   -2.9586    0.0000 H   0  0  0  0  0  0  0  0  0  0  0  0
    1.7459   -2.9586    0.0000 H   0  0  0  0  0  0  0  0  0  0  0  0
    0.8193   -3.4936    0.0000 H   0  0  0  0  0  0  0  0  0  0  0  0
   -1.4496   -1.1136    0.0000 H   0  0  0  0  0  0  0  0  0  0  0  0
   -1.5362   -0.4836    0.0000 H   0  0  0  0  0  0  0  0  0  0  0  0
   -1.5362    0.5864    0.0000 H   0  0  0  0  0  0  0  0  0  0  0  0
   -0.6096    1.9464    0.0000 H   0  0  0  0  0  0  0  0  0  0  0  0
   -1.3241    2.3589    0.0000 H   0  0  0  0  0  0  0  0  0  0  0  0
   -2.2507    0.7539    0.0000 H   0  0  0  0  0  0  0  0  0  0  0  0
   -2.2508    1.8239    0.0000 H   0  0  0  0  0  0  0  0  0  0  0  0
    1.0315    0.7539    0.0000 H   0  0  0  0  0  0  0  0  0  0  0  0
    0.1049    2.3589    0.0000 H   0  0  0  0  0  0  0  0  0  0  0  0
    1.0316    1.8239    0.0000 H   0  0  0  0  0  0  0  0  0  0  0  0
    2.4604    0.7539    0.0000 H   0  0  0  0  0  0  0  0  0  0  0  0
    1.5338    2.3589    0.0000 H   0  0  0  0  0  0  0  0  0  0  0  0
    2.4605    1.8239    0.0000 H   0  0  0  0  0  0  0  0  0  0  0  0
  1  2  1  0  0  0  0
  1 16  1  0  0  0  0
  1 17  1  0  0  0  0
  1 18  1  0  0  0  0
  2  3  2  0  0  0  0
  2  4  1  0  0  0  0
  4  5  1  0  0  0  0
  5 19  1  0  0  0  0
  6  4  1  0  0  0  0
  6  7  1  0  0  0  0
  6 11  1  0  0  0  0
  6 15  1  1  0  0  0
  7  8  1  0  0  0  0
  7 20  1  0  0  0  0
  7 21  1  0  0  0  0
  8  9  1  0  0  0  0
  8 10  1  0  0  0  0
  8 22  1  0  0  0  0
  9 23  1  0  0  0  0
  9 24  1  0  0  0  0
  9 25  1  0  0  0  0
 10 26  1  0  0  0  0
 10 27  1  0  0  0  0
 10 28  1  0  0  0  0
 11 12  2  0  0  0  0
 11 13  1  0  0  0  0
 13 14  1  0  0  0  0
 14 29  1  0  0  0  0
 14 30  1  0  0  0  0
 14 31  1  0  0  0  0
M  END
>  <DRUGBANK_ID>
DB07989

>  <COMMON_NAME>
2-(ACETYL-HYDROXY-AMINO)-4-METHYL-PENTANOIC ACID METHYL ESTER

$$$$
