
 OpenBabel10282417072D

 34 33  0  0  0  0  0  0  0  0999 V2000
    5.4730   -3.9849    0.0000 C   0  0  0  0  0  0  0  0  0  0  0  0
    6.1875   -3.5724    0.0000 C   0  0  0  0  0  0  0  0  0  0  0  0
    6.9020   -3.9849    0.0000 C   0  0  0  0  0  0  0  0  0  0  0  0
    7.6164   -3.5724    0.0000 C   0  0  0  0  0  0  0  0  0  0  0  0
    8.3309   -3.9849    0.0000 C   0  0  0  0  0  0  0  0  0  0  0  0
    9.0454   -3.5724    0.0000 C   0  0  0  0  0  0  0  0  0  0  0  0
    9.7599   -3.9849    0.0000 C   0  0  0  0  0  0  0  0  0  0  0  0
   10.4743   -3.5724    0.0000 C   0  0  0  0  0  0  0  0  0  0  0  0
   11.1888   -3.9849    0.0000 O   0  0  0  0  0  0  0  0  0  0  0  0
   11.9033   -3.5724    0.0000 C   0  0  0  0  0  0  0  0  0  0  0  0
   11.9033   -2.7474    0.0000 O   0  0  0  0  0  0  0  0  0  0  0  0
   12.6177   -3.9849    0.0000 C   0  0  0  0  0  0  0  0  0  0  0  0
   12.6177   -4.8099    0.0000 C   0  0  0  0  0  0  0  0  0  0  0  0
   13.3322   -3.5724    0.0000 C   0  0  0  0  0  0  0  0  0  0  0  0
   14.0467   -3.1599    0.0000 N   0  0  0  0  0  0  0  0  0  0  0  0
    4.5464   -3.4499    0.0000 H   0  0  0  0  0  0  0  0  0  0  0  0
    5.4730   -5.0549    0.0000 H   0  0  0  0  0  0  0  0  0  0  0  0
    4.5463   -4.5199    0.0000 H   0  0  0  0  0  0  0  0  0  0  0  0
    6.1875   -2.5024    0.0000 H   0  0  0  0  0  0  0  0  0  0  0  0
    7.1141   -3.0374    0.0000 H   0  0  0  0  0  0  0  0  0  0  0  0
    6.9020   -5.0549    0.0000 H   0  0  0  0  0  0  0  0  0  0  0  0
    7.8287   -4.5199    0.0000 H   0  0  0  0  0  0  0  0  0  0  0  0
    7.6164   -2.5024    0.0000 H   0  0  0  0  0  0  0  0  0  0  0  0
    8.5430   -3.0374    0.0000 H   0  0  0  0  0  0  0  0  0  0  0  0
    8.3309   -5.0549    0.0000 H   0  0  0  0  0  0  0  0  0  0  0  0
    9.2575   -4.5199    0.0000 H   0  0  0  0  0  0  0  0  0  0  0  0
    9.0454   -2.5024    0.0000 H   0  0  0  0  0  0  0  0  0  0  0  0
    9.9720   -3.0374    0.0000 H   0  0  0  0  0  0  0  0  0  0  0  0
    9.7599   -5.0549    0.0000 H   0  0  0  0  0  0  0  0  0  0  0  0
   10.6866   -4.5199    0.0000 H   0  0  0  0  0  0  0  0  0  0  0  0
   10.4743   -2.5024    0.0000 H   0  0  0  0  0  0  0  0  0  0  0  0
   11.4009   -3.0374    0.0000 H   0  0  0  0  0  0  0  0  0  0  0  0
   11.7240   -5.3259    0.0000 H   0  0  0  0  0  0  0  0  0  0  0  0
   13.5114   -5.3259    0.0000 H   0  0  0  0  0  0  0  0  0  0  0  0
  1  2  1  0  0  0  0
  1 16  1  0  0  0  0
  1 17  1  0  0  0  0
  1 18  1  0  0  0  0
  2  3  1  0  0  0  0
  2 19  1  0  0  0  0
  2 20  1  0  0  0  0
  3  4  1  0  0  0  0
  3 21  1  0  0  0  0
  3 22  1  0  0  0  0
  4  5  1  0  0  0  0
  4 23  1  0  0  0  0
  4 24  1  0  0  0  0
  5  6  1  0  0  0  0
  5 25  1  0  0  0  0
  5 26  1  0  0  0  0
  6  7  1  0  0  0  0
  6 27  1  0  0  0  0
  6 28  1  0  0  0  0
  7  8  1  0  0  0  0
  7 29  1  0  0  0  0
  7 30  1  0  0  0  0
  8  9  1  0  0  0  0
  8 31  1  0  0  0  0
  8 32  1  0  0  0  0
  9 10  1  0  0  0  0
 10 11  2  0  0  0  0
 10 12  1  0  0  0  0
 12 13  2  0  0  0  0
 12 14  1  0  0  0  0
 13 33  1  0  0  0  0
 13 34  1  0  0  0  0
 14 15  3  0  0  0  0
M  END
>  <DRUGBANK_ID>
DB15086

>  <COMMON_NAME>
Ocrylate

>  <CAS_NUMBER>
6701-17-3

>  <UNII>
6C655P1XVG

>  <SYNONYMS>
Ocrylate; OCTYL-2-CYANOACRYLATE

$$$$
