1OH
 OpenBabel10282417072D

 32 33  0  0  0  0  0  0  0  0999 V2000
    0.1101    3.2908    0.0000 O   0  0  0  0  0  0  0  0  0  0  0  0
    0.1101    2.4658    0.0000 C   0  0  0  0  0  0  0  0  0  0  0  0
    0.8246    2.0533    0.0000 C   0  0  0  0  0  0  0  0  0  0  0  0
    0.8246    1.2283    0.0000 C   0  0  0  0  0  0  0  0  0  0  0  0
   -0.6044    2.0533    0.0000 C   0  0  0  0  0  0  0  0  0  0  0  0
   -0.6044    1.2283    0.0000 C   0  0  0  0  0  0  0  0  0  0  0  0
    0.1101    0.8158    0.0000 C   0  0  0  0  0  0  0  0  0  0  0  0
    0.1101   -0.0092    0.0000 C   0  0  0  0  0  0  0  0  0  0  0  0
    0.9351   -0.0092    0.0000 C   0  0  0  0  0  0  0  0  0  0  0  0
   -0.7149   -0.0092    0.0000 C   0  0  0  0  0  0  0  0  0  0  0  0
    0.1101   -0.8342    0.0000 C   0  0  0  0  0  0  0  0  0  0  0  0
   -0.6044   -1.2467    0.0000 C   0  0  0  0  0  0  0  0  0  0  0  0
   -0.6044   -2.0717    0.0000 C   0  0  0  0  0  0  0  0  0  0  0  0
    0.1101   -2.4842    0.0000 C   0  0  0  0  0  0  0  0  0  0  0  0
    0.8246   -2.0717    0.0000 C   0  0  0  0  0  0  0  0  0  0  0  0
    0.8246   -1.2467    0.0000 C   0  0  0  0  0  0  0  0  0  0  0  0
    0.9216    3.7593    0.0000 H   0  0  0  0  0  0  0  0  0  0  0  0
    1.7183    2.5693    0.0000 H   0  0  0  0  0  0  0  0  0  0  0  0
    1.7183    0.7123    0.0000 H   0  0  0  0  0  0  0  0  0  0  0  0
   -1.4981    2.5693    0.0000 H   0  0  0  0  0  0  0  0  0  0  0  0
   -1.4981    0.7123    0.0000 H   0  0  0  0  0  0  0  0  0  0  0  0
    1.4701   -0.9358    0.0000 H   0  0  0  0  0  0  0  0  0  0  0  0
    1.4701    0.9174    0.0000 H   0  0  0  0  0  0  0  0  0  0  0  0
    2.0051   -0.0092    0.0000 H   0  0  0  0  0  0  0  0  0  0  0  0
   -1.2499    0.9174    0.0000 H   0  0  0  0  0  0  0  0  0  0  0  0
   -1.2499   -0.9358    0.0000 H   0  0  0  0  0  0  0  0  0  0  0  0
   -1.7849   -0.0092    0.0000 H   0  0  0  0  0  0  0  0  0  0  0  0
   -1.4981   -0.7307    0.0000 H   0  0  0  0  0  0  0  0  0  0  0  0
   -1.4981   -2.5877    0.0000 H   0  0  0  0  0  0  0  0  0  0  0  0
    0.1101   -3.5162    0.0000 H   0  0  0  0  0  0  0  0  0  0  0  0
    1.7183   -2.5877    0.0000 H   0  0  0  0  0  0  0  0  0  0  0  0
    1.7183   -0.7307    0.0000 H   0  0  0  0  0  0  0  0  0  0  0  0
  1 17  1  0  0  0  0
  2  1  1  0  0  0  0
  2  3  2  0  0  0  0
  3 18  1  0  0  0  0
  4  3  1  0  0  0  0
  4 19  1  0  0  0  0
  5  2  1  0  0  0  0
  5 20  1  0  0  0  0
  6  5  2  0  0  0  0
  6  7  1  0  0  0  0
  6 21  1  0  0  0  0
  7  4  2  0  0  0  0
  8  7  1  0  0  0  0
  8 10  1  0  0  0  0
  8  9  1  0  0  0  0
  9 22  1  0  0  0  0
  9 23  1  0  0  0  0
  9 24  1  0  0  0  0
 10 25  1  0  0  0  0
 10 26  1  0  0  0  0
 10 27  1  0  0  0  0
 11  8  1  0  0  0  0
 12 11  1  0  0  0  0
 12 28  1  0  0  0  0
 13 12  2  0  0  0  0
 13 29  1  0  0  0  0
 14 15  2  0  0  0  0
 14 13  1  0  0  0  0
 14 30  1  0  0  0  0
 15 16  1  0  0  0  0
 15 31  1  0  0  0  0
 16 11  2  0  0  0  0
 16 32  1  0  0  0  0
M  END
>  <DRUGBANK_ID>
DB06902

>  <COMMON_NAME>
p-Cumylphenol

>  <CAS_NUMBER>
599-64-4

>  <UNII>
2RLA3OL3QT

>  <SYNONYMS>
4-(alpha,alpha-Dimethylbenzyl)phenol; 4-Cumylphenol

$$$$
