
 OpenBabel10282417072D

 35 33  0  0  1  0  0  0  0  0999 V2000
   -2.9678    0.1904    0.0000 C   0  0  0  0  0  0  0  0  0  0  0  0
   -2.2533   -0.2221    0.0000 N   0  0  0  0  0  0  0  0  0  0  0  0
   -1.5389    0.1904    0.0000 C   0  0  0  0  0  0  0  0  0  0  0  0
   -0.8244   -0.2221    0.0000 C   0  0  1  0  0  0  0  0  0  0  0  0
   -0.1099    0.1904    0.0000 C   0  0  2  0  0  0  0  0  0  0  0  0
    0.6046   -0.2221    0.0000 C   0  0  1  0  0  0  0  0  0  0  0  0
    1.3190    0.1904    0.0000 C   0  0  1  0  0  0  0  0  0  0  0  0
    2.0335   -0.2221    0.0000 C   0  0  0  0  0  0  0  0  0  0  0  0
    2.7480    0.1904    0.0000 O   0  0  0  0  0  0  0  0  0  0  0  0
    1.3190    1.0154    0.0000 O   0  0  0  0  0  0  0  0  0  0  0  0
    0.6046   -1.0471    0.0000 O   0  0  0  0  0  0  0  0  0  0  0  0
   -0.1099    1.0154    0.0000 O   0  0  0  0  0  0  0  0  0  0  0  0
   -0.8244   -1.0471    0.0000 O   0  0  0  0  0  0  0  0  0  0  0  0
    5.7533    0.7145    0.0000 O   0  0  0  0  0  0  0  0  0  0  0  0
    5.3408   -0.0000    0.0000 Sb  0  0  0  0  0  0  0  0  0  0  0  0
    5.7533   -0.7145    0.0000 O   0  0  0  0  0  0  0  0  0  0  0  0
    4.5158   -0.0000    0.0000 O   0  0  0  0  0  0  0  0  0  0  0  0
   -2.9678    1.2604    0.0000 H   0  0  0  0  0  0  0  0  0  0  0  0
   -3.8944   -0.3446    0.0000 H   0  0  0  0  0  0  0  0  0  0  0  0
   -3.8945    0.7254    0.0000 H   0  0  0  0  0  0  0  0  0  0  0  0
   -2.2533   -1.2421    0.0000 H   0  0  0  0  0  0  0  0  0  0  0  0
   -1.5389    1.2604    0.0000 H   0  0  0  0  0  0  0  0  0  0  0  0
   -0.6123    0.7254    0.0000 H   0  0  0  0  0  0  0  0  0  0  0  0
   -1.7510   -0.7571    0.0000 H   0  0  0  0  0  0  0  0  0  0  0  0
   -1.0365    0.7254    0.0000 H   0  0  0  0  0  0  0  0  0  0  0  0
   -0.3220   -0.7571    0.0000 H   0  0  0  0  0  0  0  0  0  0  0  0
    0.3923    0.7254    0.0000 H   0  0  0  0  0  0  0  0  0  0  0  0
    2.0335   -1.2921    0.0000 H   0  0  0  0  0  0  0  0  0  0  0  0
    2.9601   -0.7571    0.0000 H   0  0  0  0  0  0  0  0  0  0  0  0
    3.5880   -0.2946    0.0000 H   0  0  0  0  0  0  0  0  0  0  0  0
    2.1590    1.5004    0.0000 H   0  0  0  0  0  0  0  0  0  0  0  0
   -0.2354   -1.5321    0.0000 H   0  0  0  0  0  0  0  0  0  0  0  0
    0.7301    1.5004    0.0000 H   0  0  0  0  0  0  0  0  0  0  0  0
   -1.6644   -1.5321    0.0000 H   0  0  0  0  0  0  0  0  0  0  0  0
    6.7233    0.7145    0.0000 H   0  0  0  0  0  0  0  0  0  0  0  0
  1  2  1  0  0  0  0
  1 18  1  0  0  0  0
  1 19  1  0  0  0  0
  1 20  1  0  0  0  0
  2  3  1  0  0  0  0
  2 21  1  0  0  0  0
  3  4  1  0  0  0  0
  3 22  1  0  0  0  0
  3 23  1  0  0  0  0
  4  5  1  0  0  0  0
  4 13  1  0  0  0  0
  4 24  1  6  0  0  0
  5  6  1  0  0  0  0
  5 12  1  0  0  0  0
  5 25  1  6  0  0  0
  6  7  1  0  0  0  0
  6 11  1  0  0  0  0
  6 26  1  6  0  0  0
  7  8  1  0  0  0  0
  7 10  1  0  0  0  0
  7 27  1  1  0  0  0
  8  9  1  0  0  0  0
  8 28  1  0  0  0  0
  8 29  1  0  0  0  0
  9 30  1  0  0  0  0
 10 31  1  0  0  0  0
 11 32  1  0  0  0  0
 12 33  1  0  0  0  0
 13 34  1  0  0  0  0
 14 15  1  0  0  0  0
 14 35  1  0  0  0  0
 15 16  2  0  0  0  0
 15 17  2  0  0  0  0
M  END
>  <DRUGBANK_ID>
DB13732

>  <COMMON_NAME>
Meglumine antimoniate

>  <CAS_NUMBER>
133-51-7

>  <UNII>
75G4TW236W

>  <SYNONYMS>
Antimoniato de meglumina; Glucantim; Glucantime; Meglumine antimonate; Meglumine antimoniate

$$$$
