Untitled Document-1
 OpenBabel10282417072D

 30 30  0  0  0  0  0  0  0  0999 V2000
   -1.4289    0.4125    0.0000 C   0  0  2  0  0  0  0  0  0  0  0  0
   -1.4289   -0.4125    0.0000 C   0  0  1  0  0  0  0  0  0  0  0  0
   -0.7145   -0.8250    0.0000 C   0  0  1  0  0  0  0  0  0  0  0  0
    0.0000   -0.4125    0.0000 C   0  0  2  0  0  0  0  0  0  0  0  0
    0.0000    0.4125    0.0000 C   0  0  2  0  0  0  0  0  0  0  0  0
   -0.7145    0.8250    0.0000 O   0  0  0  0  0  0  0  0  0  0  0  0
   -2.1434    0.8250    0.0000 C   0  0  0  0  0  0  0  0  0  0  0  0
   -2.1434   -0.8250    0.0000 O   0  0  0  0  0  0  0  0  0  0  0  0
   -0.7145   -1.6500    0.0000 O   0  0  0  0  0  0  0  0  0  0  0  0
    0.7145   -0.8250    0.0000 N   0  0  0  0  0  0  0  0  0  0  0  0
    0.7145    0.8250    0.0000 O   0  0  0  0  0  0  0  0  0  0  0  0
    1.4289   -0.4125    0.0000 C   0  0  0  0  0  0  0  0  0  0  0  0
    2.1434   -0.8250    0.0000 C   0  0  0  0  0  0  0  0  0  0  0  0
    1.4289    0.4125    0.0000 O   0  0  0  0  0  0  0  0  0  0  0  0
   -2.1434    1.6500    0.0000 O   0  0  0  0  0  0  0  0  0  0  0  0
   -2.3555   -0.1225    0.0000 H   0  0  0  0  0  0  0  0  0  0  0  0
   -2.3555    0.1225    0.0000 H   0  0  0  0  0  0  0  0  0  0  0  0
   -1.6412   -1.3600    0.0000 H   0  0  0  0  0  0  0  0  0  0  0  0
    0.0000   -1.4825    0.0000 H   0  0  0  0  0  0  0  0  0  0  0  0
    0.9266   -0.1225    0.0000 H   0  0  0  0  0  0  0  0  0  0  0  0
   -3.0700    0.2900    0.0000 H   0  0  0  0  0  0  0  0  0  0  0  0
   -3.0700    1.3600    0.0000 H   0  0  0  0  0  0  0  0  0  0  0  0
   -2.9834   -0.3400    0.0000 H   0  0  0  0  0  0  0  0  0  0  0  0
   -1.5545   -2.1350    0.0000 H   0  0  0  0  0  0  0  0  0  0  0  0
    0.7145   -1.8095    0.0000 H   0  0  0  0  0  0  0  0  0  0  0  0
    1.5545    0.3400    0.0000 H   0  0  0  0  0  0  0  0  0  0  0  0
    2.1434   -1.8950    0.0000 H   0  0  0  0  0  0  0  0  0  0  0  0
    3.0700   -0.2900    0.0000 H   0  0  0  0  0  0  0  0  0  0  0  0
    3.0701   -1.3600    0.0000 H   0  0  0  0  0  0  0  0  0  0  0  0
   -1.3034    2.1350    0.0000 H   0  0  0  0  0  0  0  0  0  0  0  0
  1  2  1  0  0  0  0
  1  7  1  0  0  0  0
  1 16  1  6  0  0  0
  2  3  1  0  0  0  0
  2  8  1  0  0  0  0
  2 17  1  6  0  0  0
  3  4  1  0  0  0  0
  3  9  1  0  0  0  0
  3 18  1  6  0  0  0
  4  5  1  0  0  0  0
  4 10  1  0  0  0  0
  4 19  1  1  0  0  0
  5  6  1  0  0  0  0
  5 11  1  0  0  0  0
  5 20  1  1  0  0  0
  6  1  1  0  0  0  0
  7 15  1  0  0  0  0
  7 21  1  0  0  0  0
  7 22  1  0  0  0  0
  8 23  1  0  0  0  0
  9 24  1  0  0  0  0
 10 12  1  0  0  0  0
 10 25  1  0  0  0  0
 11 26  1  0  0  0  0
 12 13  1  0  0  0  0
 12 14  2  0  0  0  0
 13 27  1  0  0  0  0
 13 28  1  0  0  0  0
 13 29  1  0  0  0  0
 15 30  1  0  0  0  0
M  END
>  <DRUGBANK_ID>
DB03567

>  <SECONDARY_ACCESSION_NUMBERS>
EXPT00365

>  <COMMON_NAME>
alpha-N-Acetyl-D-galactosamine

>  <CAS_NUMBER>
14215-68-0

>  <UNII>
00C01APN10

>  <SYNONYMS>
GalNAc-α; N-acetyl-2-deoxy-2-amino-galactose; N-acetyl-alpha-D-galactosamine; N-acetyl-α-D-galactosamine; Tn antigen saccharide; Tn antigen saccharide component; Tn saccharide; Tn saccharide component; α-GalNAc; α-GalpNAc

$$$$
