
 OpenBabel10282417072D

 40 41  0  0  0  0  0  0  0  0999 V2000
   -3.2151   -1.2375    0.0000 C   0  0  0  0  0  0  0  0  0  0  0  0
   -2.5006   -0.8250    0.0000 C   0  0  0  0  0  0  0  0  0  0  0  0
    0.3572   -2.4750    0.0000 C   0  0  0  0  0  0  0  0  0  0  0  0
    1.0717   -2.0625    0.0000 C   0  0  0  0  0  0  0  0  0  0  0  0
   -0.3572   -2.0625    0.0000 C   0  0  0  0  0  0  0  0  0  0  0  0
    1.0717   -1.2375    0.0000 C   0  0  0  0  0  0  0  0  0  0  0  0
    1.7861    2.4750    0.0000 C   0  0  0  0  0  0  0  0  0  0  0  0
    1.0717    2.0625    0.0000 C   0  0  0  0  0  0  0  0  0  0  0  0
    2.5006    1.2375    0.0000 C   0  0  0  0  0  0  0  0  0  0  0  0
    2.5006    2.0625    0.0000 C   0  0  0  0  0  0  0  0  0  0  0  0
   -0.3572   -1.2375    0.0000 C   0  0  0  0  0  0  0  0  0  0  0  0
    1.7861    0.8250    0.0000 C   0  0  0  0  0  0  0  0  0  0  0  0
    1.0717    1.2375    0.0000 C   0  0  0  0  0  0  0  0  0  0  0  0
    0.3572   -0.8250    0.0000 C   0  0  2  0  0  0  0  0  0  0  0  0
   -1.0717   -0.8250    0.0000 C   0  0  0  0  0  0  0  0  0  0  0  0
    1.7861    0.0000    0.0000 Cl  0  0  0  0  0  0  0  0  0  0  0  0
    3.2151    2.4750    0.0000 F   0  0  0  0  0  0  0  0  0  0  0  0
    0.3572    0.8250    0.0000 N   0  0  0  0  0  0  0  0  0  0  0  0
   -1.0717    0.0000    0.0000 O   0  0  0  0  0  0  0  0  0  0  0  0
    1.1822    0.0000    0.0000 O   0  0  0  0  0  0  0  0  0  0  0  0
   -0.4677    0.0000    0.0000 O   0  0  0  0  0  0  0  0  0  0  0  0
   -1.7861   -1.2375    0.0000 O   0  0  0  0  0  0  0  0  0  0  0  0
    0.3572    0.0000    0.0000 S   0  0  0  0  0  0  0  0  0  0  0  0
    1.0717   -0.4125    0.0000 H   0  0  0  0  0  0  0  0  0  0  0  0
   -4.1417   -0.7025    0.0000 H   0  0  0  0  0  0  0  0  0  0  0  0
   -3.2151   -2.3075    0.0000 H   0  0  0  0  0  0  0  0  0  0  0  0
   -4.1418   -1.7725    0.0000 H   0  0  0  0  0  0  0  0  0  0  0  0
   -2.5006    0.2450    0.0000 H   0  0  0  0  0  0  0  0  0  0  0  0
   -1.5740   -0.2900    0.0000 H   0  0  0  0  0  0  0  0  0  0  0  0
    0.3572   -3.5450    0.0000 H   0  0  0  0  0  0  0  0  0  0  0  0
   -0.5695   -3.0100    0.0000 H   0  0  0  0  0  0  0  0  0  0  0  0
    1.9983   -2.5975    0.0000 H   0  0  0  0  0  0  0  0  0  0  0  0
    1.9983   -1.5275    0.0000 H   0  0  0  0  0  0  0  0  0  0  0  0
   -1.2509   -2.5785    0.0000 H   0  0  0  0  0  0  0  0  0  0  0  0
    1.9983   -0.7025    0.0000 H   0  0  0  0  0  0  0  0  0  0  0  0
    1.0717   -0.1675    0.0000 H   0  0  0  0  0  0  0  0  0  0  0  0
    1.7861    3.5070    0.0000 H   0  0  0  0  0  0  0  0  0  0  0  0
    0.1780    2.5785    0.0000 H   0  0  0  0  0  0  0  0  0  0  0  0
    3.3943    0.7215    0.0000 H   0  0  0  0  0  0  0  0  0  0  0  0
   -0.4954    1.3173    0.0000 H   0  0  0  0  0  0  0  0  0  0  0  0
  1 25  1  0  0  0  0
  1 26  1  0  0  0  0
  1 27  1  0  0  0  0
  2  1  1  0  0  0  0
  2 28  1  0  0  0  0
  2 29  1  0  0  0  0
  3 30  1  0  0  0  0
  3 31  1  0  0  0  0
  4  3  1  0  0  0  0
  4 32  1  0  0  0  0
  4 33  1  0  0  0  0
  5  3  1  0  0  0  0
  5 34  1  0  0  0  0
  6  4  1  0  0  0  0
  6 35  1  0  0  0  0
  6 36  1  0  0  0  0
  7 37  1  0  0  0  0
  8  7  2  0  0  0  0
  8 38  1  0  0  0  0
  9 39  1  0  0  0  0
 10  7  1  0  0  0  0
 10  9  2  0  0  0  0
 11  5  2  0  0  0  0
 12  9  1  0  0  0  0
 13  8  1  0  0  0  0
 13 12  2  0  0  0  0
 14  6  1  0  0  0  0
 14 11  1  0  0  0  0
 14 23  1  0  0  0  0
 14 24  1  1  0  0  0
 15 11  1  0  0  0  0
 16 12  1  0  0  0  0
 17 10  1  0  0  0  0
 18 13  1  0  0  0  0
 18 40  1  0  0  0  0
 19 15  2  0  0  0  0
 22  2  1  0  0  0  0
 22 15  1  0  0  0  0
 23 18  1  0  0  0  0
 23 20  2  0  0  0  0
 23 21  2  0  0  0  0
M  END
>  <DRUGBANK_ID>
DB05943

>  <COMMON_NAME>
Resatorvid

>  <CAS_NUMBER>
243984-11-4

>  <UNII>
H2MZ648C31

>  <SYNONYMS>
Resatorvid

$$$$
