
 OpenBabel10282417072D

 10  9  0  0  0  0  0  0  0  0999 V2000
    2.0625   -0.7145    0.0000 O   0  0  0  0  0  0  0  0  0  0  0  0
    1.2375   -0.7145    0.0000 C   0  0  0  0  0  0  0  0  0  0  0  0
    0.8250    0.0000    0.0000 C   0  0  0  0  0  0  0  0  0  0  0  0
    0.0000    0.0000    0.0000 S   0  0  0  0  0  0  0  0  0  0  0  0
    2.5475   -1.5545    0.0000 H   0  0  0  0  0  0  0  0  0  0  0  0
    0.7025   -1.6411    0.0000 H   0  0  0  0  0  0  0  0  0  0  0  0
    0.1675   -0.7145    0.0000 H   0  0  0  0  0  0  0  0  0  0  0  0
    1.3600    0.9266    0.0000 H   0  0  0  0  0  0  0  0  0  0  0  0
    0.2900    0.9266    0.0000 H   0  0  0  0  0  0  0  0  0  0  0  0
   -0.6800    1.1778    0.0000 H   0  0  0  0  0  0  0  0  0  0  0  0
  1  2  1  0  0  0  0
  1  5  1  0  0  0  0
  2  3  1  0  0  0  0
  2  6  1  0  0  0  0
  2  7  1  0  0  0  0
  3  4  1  0  0  0  0
  3  8  1  0  0  0  0
  3  9  1  0  0  0  0
  4 10  1  0  0  0  0
M  END
>  <DRUGBANK_ID>
DB03345

>  <SECONDARY_ACCESSION_NUMBERS>
EXPT02882; DB03131

>  <COMMON_NAME>
Mercaptoethanol

>  <CAS_NUMBER>
60-24-2

>  <UNII>
14R9K67URN

>  <SYNONYMS>
2-mercaptoethanol; beta-mercaptoethanol; Thiomonoglycol

$$$$
