
 OpenBabel10282417072D

 35 36  0  0  0  0  0  0  0  0999 V2000
    4.9232   -0.6075    0.0000 O   0  0  0  0  0  0  0  0  0  0  0  0
    3.0791    1.4232    0.0000 N   0  0  0  0  0  0  0  0  0  0  0  0
    3.8597    1.6746    0.0000 N   0  0  0  0  0  0  0  0  0  0  0  0
    3.8597    0.3468    0.0000 C   0  0  0  0  0  0  0  0  0  0  0  0
    5.1662    1.0106    0.0000 C   0  0  0  0  0  0  0  0  0  0  0  0
    4.3412    1.0106    0.0000 C   0  0  0  0  0  0  0  0  0  0  0  0
    3.0791    0.5981    0.0000 C   0  0  0  0  0  0  0  0  0  0  0  0
    3.5650   -1.0515    0.0000 C   0  0  0  0  0  0  0  0  0  0  0  0
    4.1159   -0.4374    0.0000 C   0  0  0  0  0  0  0  0  0  0  0  0
    5.5787    1.7252    0.0000 C   0  0  0  0  0  0  0  0  0  0  0  0
    5.5787    0.2962    0.0000 C   0  0  0  0  0  0  0  0  0  0  0  0
    2.3645    0.1856    0.0000 C   0  0  0  0  0  0  0  0  0  0  0  0
    3.8213   -1.8357    0.0000 C   0  0  0  0  0  0  0  0  0  0  0  0
    2.7577   -0.8814    0.0000 C   0  0  0  0  0  0  0  0  0  0  0  0
    2.3645    1.8357    0.0000 C   0  0  0  0  0  0  0  0  0  0  0  0
    1.6500    0.5981    0.0000 C   0  0  0  0  0  0  0  0  0  0  0  0
    1.6500    1.4232    0.0000 C   0  0  0  0  0  0  0  0  0  0  0  0
    6.2362    1.0107    0.0000 H   0  0  0  0  0  0  0  0  0  0  0  0
    2.8504   -1.8479    0.0000 H   0  0  0  0  0  0  0  0  0  0  0  0
    6.6487    1.7253    0.0000 H   0  0  0  0  0  0  0  0  0  0  0  0
    5.0436    2.6518    0.0000 H   0  0  0  0  0  0  0  0  0  0  0  0
    6.1136    2.6519    0.0000 H   0  0  0  0  0  0  0  0  0  0  0  0
    5.0437   -0.6305    0.0000 H   0  0  0  0  0  0  0  0  0  0  0  0
    6.6487    0.2962    0.0000 H   0  0  0  0  0  0  0  0  0  0  0  0
    6.1137   -0.6304    0.0000 H   0  0  0  0  0  0  0  0  0  0  0  0
    2.3645   -0.8464    0.0000 H   0  0  0  0  0  0  0  0  0  0  0  0
    3.1067   -2.6321    0.0000 H   0  0  0  0  0  0  0  0  0  0  0  0
    4.8683   -2.0564    0.0000 H   0  0  0  0  0  0  0  0  0  0  0  0
    4.1537   -2.8528    0.0000 H   0  0  0  0  0  0  0  0  0  0  0  0
    2.4252    0.1356    0.0000 H   0  0  0  0  0  0  0  0  0  0  0  0
    2.0431   -1.6778    0.0000 H   0  0  0  0  0  0  0  0  0  0  0  0
    1.7107   -0.6608    0.0000 H   0  0  0  0  0  0  0  0  0  0  0  0
    2.3645    2.8677    0.0000 H   0  0  0  0  0  0  0  0  0  0  0  0
    0.7563    0.0821    0.0000 H   0  0  0  0  0  0  0  0  0  0  0  0
    0.7563    1.9392    0.0000 H   0  0  0  0  0  0  0  0  0  0  0  0
  1  9  2  0  0  0  0
  2  3  1  0  0  0  0
  2  7  1  0  0  0  0
  2 15  1  0  0  0  0
  3  6  2  0  0  0  0
  4  6  1  0  0  0  0
  4  7  2  0  0  0  0
  4  9  1  0  0  0  0
  5  6  1  0  0  0  0
  5 10  1  0  0  0  0
  5 11  1  0  0  0  0
  5 18  1  0  0  0  0
  7 12  1  0  0  0  0
  8  9  1  0  0  0  0
  8 13  1  0  0  0  0
  8 14  1  0  0  0  0
  8 19  1  0  0  0  0
 10 20  1  0  0  0  0
 10 21  1  0  0  0  0
 10 22  1  0  0  0  0
 11 23  1  0  0  0  0
 11 24  1  0  0  0  0
 11 25  1  0  0  0  0
 12 16  2  0  0  0  0
 12 26  1  0  0  0  0
 13 27  1  0  0  0  0
 13 28  1  0  0  0  0
 13 29  1  0  0  0  0
 14 30  1  0  0  0  0
 14 31  1  0  0  0  0
 14 32  1  0  0  0  0
 15 17  2  0  0  0  0
 15 33  1  0  0  0  0
 16 17  1  0  0  0  0
 16 34  1  0  0  0  0
 17 35  1  0  0  0  0
M  END
>  <DRUGBANK_ID>
DB05266

>  <SECONDARY_ACCESSION_NUMBERS>
DB05066

>  <COMMON_NAME>
Ibudilast

>  <CAS_NUMBER>
50847-11-5

>  <UNII>
M0TTH61XC5

>  <SYNONYMS>
Ibudilast; Ibudilastum

$$$$
