
 OpenBabel10282417072D

 34 35  0  0  0  0  0  0  0  0999 V2000
   -2.1440    0.4081    0.0000 C   0  0  0  0  0  0  0  0  0  0  0  0
   -2.1452   -0.4183    0.0000 C   0  0  0  0  0  0  0  0  0  0  0  0
   -1.4311   -0.8307    0.0000 C   0  0  0  0  0  0  0  0  0  0  0  0
   -1.4330    0.8203    0.0000 C   0  0  0  0  0  0  0  0  0  0  0  0
   -0.7185    0.4116    0.0000 C   0  0  0  0  0  0  0  0  0  0  0  0
   -0.7150   -0.4204    0.0000 C   0  0  0  0  0  0  0  0  0  0  0  0
    0.0032   -0.8311    0.0000 C   0  0  0  0  0  0  0  0  0  0  0  0
    0.7227   -0.4144    0.0000 C   0  0  0  0  0  0  0  0  0  0  0  0
    0.7194    0.4175    0.0000 C   0  0  0  0  0  0  0  0  0  0  0  0
   -0.0035    0.8329    0.0000 O   0  0  0  0  0  0  0  0  0  0  0  0
    0.0055   -1.6552    0.0000 O   0  0  0  0  0  0  0  0  0  0  0  0
   -1.4327   -1.6547    0.0000 O   0  0  0  0  0  0  0  0  0  0  0  0
   -2.8578    0.8198    0.0000 O   0  0  0  0  0  0  0  0  0  0  0  0
    1.4306    0.8314    0.0000 C   0  0  0  0  0  0  0  0  0  0  0  0
    2.1460    0.4200    0.0000 C   0  0  0  0  0  0  0  0  0  0  0  0
    2.8578    0.8334    0.0000 C   0  0  0  0  0  0  0  0  0  0  0  0
    2.8557    1.6584    0.0000 C   0  0  0  0  0  0  0  0  0  0  0  0
    2.1358    2.0680    0.0000 C   0  0  0  0  0  0  0  0  0  0  0  0
    1.4269    1.6520    0.0000 C   0  0  0  0  0  0  0  0  0  0  0  0
   -0.7197   -2.0680    0.0000 C   0  0  0  0  0  0  0  0  0  0  0  0
   -3.0393   -0.9336    0.0000 H   0  0  0  0  0  0  0  0  0  0  0  0
   -1.4360    1.8523    0.0000 H   0  0  0  0  0  0  0  0  0  0  0  0
    1.6178   -0.9280    0.0000 H   0  0  0  0  0  0  0  0  0  0  0  0
   -0.1762    0.9302    0.0000 H   0  0  0  0  0  0  0  0  0  0  0  0
    0.8121    0.3716    0.0000 H   0  0  0  0  0  0  0  0  0  0  0  0
   -2.8582    1.7568    0.0000 H   0  0  0  0  0  0  0  0  0  0  0  0
    2.1482   -0.6120    0.0000 H   0  0  0  0  0  0  0  0  0  0  0  0
    3.7529    0.3197    0.0000 H   0  0  0  0  0  0  0  0  0  0  0  0
    3.7471    2.1784    0.0000 H   0  0  0  0  0  0  0  0  0  0  0  0
    2.1289    3.1000    0.0000 H   0  0  0  0  0  0  0  0  0  0  0  0
    0.5302    2.1628    0.0000 H   0  0  0  0  0  0  0  0  0  0  0  0
   -0.7216   -3.1380    0.0000 H   0  0  0  0  0  0  0  0  0  0  0  0
    0.2079   -1.5346    0.0000 H   0  0  0  0  0  0  0  0  0  0  0  0
    0.2060   -2.6046    0.0000 H   0  0  0  0  0  0  0  0  0  0  0  0
  1 13  1  0  0  0  0
  1  2  2  0  0  0  0
  2  3  1  0  0  0  0
  2 21  1  0  0  0  0
  3 12  1  0  0  0  0
  3  6  2  0  0  0  0
  4  1  1  0  0  0  0
  4 22  1  0  0  0  0
  5  6  1  0  0  0  0
  5  4  2  0  0  0  0
  5 10  1  0  0  0  0
  6  7  1  0  0  0  0
  7 11  2  0  0  0  0
  7  8  1  0  0  0  0
  8  9  2  0  0  0  0
  8 23  1  0  0  0  0
  9 14  1  0  0  0  0
  9 24  1  0  0  0  0
 10 25  1  0  0  0  0
 12 20  1  0  0  0  0
 13 26  1  0  0  0  0
 14 15  2  0  0  0  0
 15 16  1  0  0  0  0
 15 27  1  0  0  0  0
 16 17  2  0  0  0  0
 16 28  1  0  0  0  0
 17 18  1  0  0  0  0
 17 29  1  0  0  0  0
 18 19  2  0  0  0  0
 18 30  1  0  0  0  0
 19 14  1  0  0  0  0
 19 31  1  0  0  0  0
 20 32  1  0  0  0  0
 20 33  1  0  0  0  0
 20 34  1  0  0  0  0
M  END
>  <DRUGBANK_ID>
DB14122

>  <COMMON_NAME>
Dihydroxymethoxychalcone

>  <CAS_NUMBER>
19309-14-9

>  <UNII>
H8KP1OJ8JX

>  <SYNONYMS>
(E)-1-(2,4-Dihydroxy-6-methoxyphenyl)-3-phenyl-2-propen-1-one; Alpinetin chalcone; Cardamomin; Cardamonin

$$$$
