
 OpenBabel10282417072D

 12 11  0  0  0  0  0  0  0  0999 V2000
    2.8875   -0.7145    0.0000 C   0  0  0  0  0  0  0  0  0  0  0  0
    2.0625   -0.7145    0.0000 C   0  0  0  0  0  0  0  0  0  0  0  0
    1.6500    0.0000    0.0000 C   0  0  0  0  0  0  0  0  0  0  0  0
    0.8250    0.0000    0.0000 N   0  3  0  0  0  0  0  0  0  0  0  0
    0.0000    0.0000    0.0000 C   0  5  0  0  0  0  0  0  0  0  0  0
    3.4225   -1.6411    0.0000 H   0  0  0  0  0  0  0  0  0  0  0  0
    3.4225    0.2121    0.0000 H   0  0  0  0  0  0  0  0  0  0  0  0
    3.9575   -0.7145    0.0000 H   0  0  0  0  0  0  0  0  0  0  0  0
    1.5275   -1.6411    0.0000 H   0  0  0  0  0  0  0  0  0  0  0  0
    0.9925   -0.7145    0.0000 H   0  0  0  0  0  0  0  0  0  0  0  0
    2.1850    0.9266    0.0000 H   0  0  0  0  0  0  0  0  0  0  0  0
    1.1150    0.9266    0.0000 H   0  0  0  0  0  0  0  0  0  0  0  0
  1  2  1  0  0  0  0
  1  6  1  0  0  0  0
  1  7  1  0  0  0  0
  1  8  1  0  0  0  0
  2  3  1  0  0  0  0
  2  9  1  0  0  0  0
  2 10  1  0  0  0  0
  3  4  1  0  0  0  0
  3 11  1  0  0  0  0
  3 12  1  0  0  0  0
  4  5  3  0  0  0  0
M  CHG  2   4   1   5  -1
M  END
>  <DRUGBANK_ID>
DB04050

>  <SECONDARY_ACCESSION_NUMBERS>
EXPT02384

>  <COMMON_NAME>
N-Propyl Isocyanide

>  <UNII>
5E1K8OTJ0C

$$$$
