
 OpenBabel10282417072D

119128  0  0  0  0  0  0  0  0999 V2000
   -1.1552    0.0000    0.0000 C   0  0  0  0  0  0  0  0  0  0  0  0
   -0.9076   -0.8252    0.0000 C   0  0  0  0  0  0  0  0  0  0  0  0
   -0.0824   -0.8252    0.0000 C   0  0  0  0  0  0  0  0  0  0  0  0
    0.1650   -0.0412    0.0000 C   0  0  0  0  0  0  0  0  0  0  0  0
   -0.4950    0.4538    0.0000 C   0  0  0  0  0  0  0  0  0  0  0  0
    0.4126   -1.4442    0.0000 C   0  0  0  0  0  0  0  0  0  0  0  0
    1.2378   -1.3203    0.0000 C   0  0  0  0  0  0  0  0  0  0  0  0
    1.5266   -0.5364    0.0000 C   0  0  0  0  0  0  0  0  0  0  0  0
    0.9902    0.0825    0.0000 C   0  0  0  0  0  0  0  0  0  0  0  0
   -1.9804    0.1650    0.0000 C   0  0  0  0  0  0  0  0  0  0  0  0
   -2.5169   -0.4126    0.0000 C   0  0  0  0  0  0  0  0  0  0  0  0
   -2.3105   -1.1966    0.0000 C   0  0  0  0  0  0  0  0  0  0  0  0
   -1.4853   -1.4028    0.0000 C   0  0  0  0  0  0  0  0  0  0  0  0
    0.1237    1.0315    0.0000 F   0  0  0  0  0  0  0  0  0  0  0  0
   -1.0727    1.0315    0.0000 F   0  0  0  0  0  0  0  0  0  0  0  0
    2.2281    0.7014    0.0000 C   0  0  0  0  0  0  0  0  0  0  0  0
    2.2281   -0.1237    0.0000 C   0  0  0  0  0  0  0  0  0  0  0  0
    2.9295   -0.5364    0.0000 C   0  0  0  0  0  0  0  0  0  0  0  0
    3.6722   -0.1237    0.0000 C   0  0  0  0  0  0  0  0  0  0  0  0
    3.6722    0.7014    0.0000 C   0  0  0  0  0  0  0  0  0  0  0  0
    2.9295    1.1140    0.0000 C   0  0  0  0  0  0  0  0  0  0  0  0
    4.4561   -0.3714    0.0000 N   0  0  0  0  0  0  0  0  0  0  0  0
    4.9100    0.2888    0.0000 C   0  0  0  0  0  0  0  0  0  0  0  0
    4.4561    0.9489    0.0000 N   0  0  0  0  0  0  0  0  0  0  0  0
    5.7352    0.2888    0.0000 C   0  0  2  0  0  0  0  0  0  0  0  0
    6.1478   -0.4126    0.0000 C   0  0  1  0  0  0  0  0  0  0  0  0
    6.9730   -0.4126    0.0000 C   0  0  0  0  0  0  0  0  0  0  0  0
    7.3856    0.2888    0.0000 C   0  0  0  0  0  0  0  0  0  0  0  0
    6.9730    0.9902    0.0000 C   0  0  1  0  0  0  0  0  0  0  0  0
    6.1478    0.9902    0.0000 N   0  0  0  0  0  0  0  0  0  0  0  0
    5.7352    1.6916    0.0000 C   0  0  0  0  0  0  0  0  0  0  0  0
    4.9100    1.6916    0.0000 O   0  0  0  0  0  0  0  0  0  0  0  0
    6.1478    2.3930    0.0000 C   0  0  2  0  0  0  0  0  0  0  0  0
    6.9730    2.3930    0.0000 C   0  0  0  0  0  0  0  0  0  0  0  0
    5.7352    3.0945    0.0000 N   0  0  0  0  0  0  0  0  0  0  0  0
    7.3856    1.6916    0.0000 C   0  0  0  0  0  0  0  0  0  0  0  0
    7.3856    3.0945    0.0000 C   0  0  0  0  0  0  0  0  0  0  0  0
    4.9100    3.0945    0.0000 C   0  0  0  0  0  0  0  0  0  0  0  0
    4.4974    3.7959    0.0000 O   0  0  0  0  0  0  0  0  0  0  0  0
    4.4974    2.3930    0.0000 O   0  0  0  0  0  0  0  0  0  0  0  0
    3.6722    3.7959    0.0000 C   0  0  0  0  0  0  0  0  0  0  0  0
    6.2717    0.4538    0.0000 C   0  0  0  0  0  0  0  0  0  0  0  0
   -4.3735    0.6189    0.0000 N   0  0  0  0  0  0  0  0  0  0  0  0
   -4.6211   -0.1650    0.0000 C   0  0  0  0  0  0  0  0  0  0  0  0
   -3.9609   -0.6601    0.0000 N   0  0  0  0  0  0  0  0  0  0  0  0
   -3.3007   -0.1650    0.0000 C   0  0  0  0  0  0  0  0  0  0  0  0
   -3.5483    0.6189    0.0000 C   0  0  0  0  0  0  0  0  0  0  0  0
   -5.4051   -0.4126    0.0000 C   0  0  2  0  0  0  0  0  0  0  0  0
   -6.1891   -0.1237    0.0000 C   0  0  0  0  0  0  0  0  0  0  0  0
   -6.6842   -0.7840    0.0000 C   0  0  0  0  0  0  0  0  0  0  0  0
   -6.1891   -1.4853    0.0000 C   0  0  0  0  0  0  0  0  0  0  0  0
   -5.4051   -1.2378    0.0000 N   0  0  0  0  0  0  0  0  0  0  0  0
   -4.7449   -1.7329    0.0000 C   0  0  0  0  0  0  0  0  0  0  0  0
   -4.0023   -1.4028    0.0000 O   0  0  0  0  0  0  0  0  0  0  0  0
   -4.7449   -2.5581    0.0000 C   0  0  2  0  0  0  0  0  0  0  0  0
   -5.4464   -2.9707    0.0000 C   0  0  0  0  0  0  0  0  0  0  0  0
   -6.1478   -2.5581    0.0000 C   0  0  0  0  0  0  0  0  0  0  0  0
   -5.4464   -3.7959    0.0000 C   0  0  0  0  0  0  0  0  0  0  0  0
   -4.0434   -2.9707    0.0000 N   0  0  0  0  0  0  0  0  0  0  0  0
   -3.3007   -2.5581    0.0000 C   0  0  0  0  0  0  0  0  0  0  0  0
   -2.5994   -3.0121    0.0000 O   0  0  0  0  0  0  0  0  0  0  0  0
   -3.3007   -1.7329    0.0000 O   0  0  0  0  0  0  0  0  0  0  0  0
   -1.8979   -2.5994    0.0000 C   0  0  0  0  0  0  0  0  0  0  0  0
   -7.3856   -1.2378    0.0000 C   0  0  0  0  0  0  0  0  0  0  0  0
   -7.3856   -0.4126    0.0000 C   0  0  0  0  0  0  0  0  0  0  0  0
    0.0359   -2.4050    0.0000 H   0  0  0  0  0  0  0  0  0  0  0  0
    1.8895   -2.1205    0.0000 H   0  0  0  0  0  0  0  0  0  0  0  0
    1.3479    1.0505    0.0000 H   0  0  0  0  0  0  0  0  0  0  0  0
   -2.2976    1.1470    0.0000 H   0  0  0  0  0  0  0  0  0  0  0  0
   -3.0356   -1.9309    0.0000 H   0  0  0  0  0  0  0  0  0  0  0  0
   -1.2098   -2.3974    0.0000 H   0  0  0  0  0  0  0  0  0  0  0  0
    1.3323    1.2138    0.0000 H   0  0  0  0  0  0  0  0  0  0  0  0
    2.9168   -1.5683    0.0000 H   0  0  0  0  0  0  0  0  0  0  0  0
    2.9168    2.1459    0.0000 H   0  0  0  0  0  0  0  0  0  0  0  0
    4.7763    1.8799    0.0000 H   0  0  0  0  0  0  0  0  0  0  0  0
    5.2040   -0.6400    0.0000 H   0  0  0  0  0  0  0  0  0  0  0  0
    5.9406    0.6372    0.0000 H   0  0  0  0  0  0  0  0  0  0  0  0
    7.5042   -1.3414    0.0000 H   0  0  0  0  0  0  0  0  0  0  0  0
    8.0430   -0.4191    0.0000 H   0  0  0  0  0  0  0  0  0  0  0  0
    8.4556    0.2888    0.0000 H   0  0  0  0  0  0  0  0  0  0  0  0
    7.9168    1.2176    0.0000 H   0  0  0  0  0  0  0  0  0  0  0  0
    6.7677   -0.0599    0.0000 H   0  0  0  0  0  0  0  0  0  0  0  0
    6.6790    1.4642    0.0000 H   0  0  0  0  0  0  0  0  0  0  0  0
    8.0430    2.3930    0.0000 H   0  0  0  0  0  0  0  0  0  0  0  0
    6.2240    3.9491    0.0000 H   0  0  0  0  0  0  0  0  0  0  0  0
    6.8582    0.7606    0.0000 H   0  0  0  0  0  0  0  0  0  0  0  0
    8.4556    1.7003    0.0000 H   0  0  0  0  0  0  0  0  0  0  0  0
    7.9281    0.7693    0.0000 H   0  0  0  0  0  0  0  0  0  0  0  0
    8.4556    3.0859    0.0000 H   0  0  0  0  0  0  0  0  0  0  0  0
    6.8581    4.0254    0.0000 H   0  0  0  0  0  0  0  0  0  0  0  0
    7.9281    4.0168    0.0000 H   0  0  0  0  0  0  0  0  0  0  0  0
    3.1372    4.7225    0.0000 H   0  0  0  0  0  0  0  0  0  0  0  0
    3.1372    2.8693    0.0000 H   0  0  0  0  0  0  0  0  0  0  0  0
    2.6022    3.7959    0.0000 H   0  0  0  0  0  0  0  0  0  0  0  0
    5.3485    0.9947    0.0000 H   0  0  0  0  0  0  0  0  0  0  0  0
    6.2059    1.5218    0.0000 H   0  0  0  0  0  0  0  0  0  0  0  0
   -4.9554    1.4130    0.0000 H   0  0  0  0  0  0  0  0  0  0  0  0
   -2.9383    1.4513    0.0000 H   0  0  0  0  0  0  0  0  0  0  0  0
   -5.3799    0.6571    0.0000 H   0  0  0  0  0  0  0  0  0  0  0  0
   -6.4922    0.9025    0.0000 H   0  0  0  0  0  0  0  0  0  0  0  0
   -7.2422    0.0659    0.0000 H   0  0  0  0  0  0  0  0  0  0  0  0
   -6.5309   -2.4992    0.0000 H   0  0  0  0  0  0  0  0  0  0  0  0
   -5.4399   -2.2492    0.0000 H   0  0  0  0  0  0  0  0  0  0  0  0
   -5.6737   -2.0268    0.0000 H   0  0  0  0  0  0  0  0  0  0  0  0
   -6.3752   -3.5019    0.0000 H   0  0  0  0  0  0  0  0  0  0  0  0
   -6.1391   -1.4881    0.0000 H   0  0  0  0  0  0  0  0  0  0  0  0
   -7.0788   -3.0855    0.0000 H   0  0  0  0  0  0  0  0  0  0  0  0
   -7.0701   -2.0156    0.0000 H   0  0  0  0  0  0  0  0  0  0  0  0
   -6.3730   -4.3309    0.0000 H   0  0  0  0  0  0  0  0  0  0  0  0
   -4.5198   -4.3309    0.0000 H   0  0  0  0  0  0  0  0  0  0  0  0
   -5.4464   -4.8659    0.0000 H   0  0  0  0  0  0  0  0  0  0  0  0
   -4.0555   -3.9551    0.0000 H   0  0  0  0  0  0  0  0  0  0  0  0
   -0.9669   -3.1268    0.0000 H   0  0  0  0  0  0  0  0  0  0  0  0
   -1.9067   -1.5294    0.0000 H   0  0  0  0  0  0  0  0  0  0  0  0
   -0.9757   -2.0568    0.0000 H   0  0  0  0  0  0  0  0  0  0  0  0
   -7.8970   -2.1777    0.0000 H   0  0  0  0  0  0  0  0  0  0  0  0
   -8.4226   -0.9740    0.0000 H   0  0  0  0  0  0  0  0  0  0  0  0
   -7.9375    0.5041    0.0000 H   0  0  0  0  0  0  0  0  0  0  0  0
   -6.6501    0.3645    0.0000 H   0  0  0  0  0  0  0  0  0  0  0  0
  1  2  1  0  0  0  0
  1  5  1  0  0  0  0
  1 10  2  0  0  0  0
  2  3  1  0  0  0  0
  2 13  2  0  0  0  0
  3  4  1  0  0  0  0
  3  6  2  0  0  0  0
  4  5  1  0  0  0  0
  4  9  2  0  0  0  0
  5 14  1  0  0  0  0
  5 15  1  0  0  0  0
  6  7  1  0  0  0  0
  6 66  1  0  0  0  0
  7  8  2  0  0  0  0
  7 67  1  0  0  0  0
  8  9  1  0  0  0  0
  9 68  1  0  0  0  0
 10 11  1  0  0  0  0
 10 69  1  0  0  0  0
 11 12  2  0  0  0  0
 12 13  1  0  0  0  0
 12 70  1  0  0  0  0
 13 71  1  0  0  0  0
 16 17  2  0  0  0  0
 16 21  1  0  0  0  0
 16 72  1  0  0  0  0
 17 18  1  0  0  0  0
 17  8  1  0  0  0  0
 18 19  2  0  0  0  0
 18 73  1  0  0  0  0
 19 20  1  0  0  0  0
 19 22  1  0  0  0  0
 20 21  2  0  0  0  0
 20 24  1  0  0  0  0
 21 74  1  0  0  0  0
 22 23  2  0  0  0  0
 23 24  1  0  0  0  0
 24 75  1  0  0  0  0
 25 23  1  0  0  0  0
 25 26  1  0  0  0  0
 25 30  1  0  0  0  0
 25 76  1  6  0  0  0
 26 27  1  0  0  0  0
 26 42  1  0  0  0  0
 26 77  1  1  0  0  0
 27 28  1  0  0  0  0
 27 78  1  0  0  0  0
 27 79  1  0  0  0  0
 28 29  1  0  0  0  0
 28 80  1  0  0  0  0
 28 81  1  0  0  0  0
 29 30  1  0  0  0  0
 29 42  1  0  0  0  0
 29 82  1  1  0  0  0
 30 31  1  0  0  0  0
 31 32  2  0  0  0  0
 33 31  1  0  0  0  0
 33 34  1  0  0  0  0
 33 35  1  0  0  0  0
 33 83  1  6  0  0  0
 34 36  1  0  0  0  0
 34 37  1  0  0  0  0
 34 84  1  0  0  0  0
 35 38  1  0  0  0  0
 35 85  1  0  0  0  0
 36 86  1  0  0  0  0
 36 87  1  0  0  0  0
 36 88  1  0  0  0  0
 37 89  1  0  0  0  0
 37 90  1  0  0  0  0
 37 91  1  0  0  0  0
 38 39  1  0  0  0  0
 38 40  2  0  0  0  0
 39 41  1  0  0  0  0
 41 92  1  0  0  0  0
 41 93  1  0  0  0  0
 41 94  1  0  0  0  0
 42 95  1  0  0  0  0
 42 96  1  0  0  0  0
 43 44  1  0  0  0  0
 43 47  1  0  0  0  0
 43 97  1  0  0  0  0
 44 45  2  0  0  0  0
 45 46  1  0  0  0  0
 46 47  2  0  0  0  0
 46 11  1  0  0  0  0
 47 98  1  0  0  0  0
 48 44  1  0  0  0  0
 48 49  1  0  0  0  0
 48 52  1  0  0  0  0
 48 99  1  6  0  0  0
 49 50  1  0  0  0  0
 49100  1  0  0  0  0
 49101  1  0  0  0  0
 50 51  1  0  0  0  0
 50 65  1  0  0  0  0
 51 52  1  0  0  0  0
 51102  1  0  0  0  0
 51103  1  0  0  0  0
 52 53  1  0  0  0  0
 53 54  2  0  0  0  0
 55 53  1  0  0  0  0
 55 56  1  0  0  0  0
 55 59  1  0  0  0  0
 55104  1  6  0  0  0
 56 57  1  0  0  0  0
 56 58  1  0  0  0  0
 56105  1  0  0  0  0
 57106  1  0  0  0  0
 57107  1  0  0  0  0
 57108  1  0  0  0  0
 58109  1  0  0  0  0
 58110  1  0  0  0  0
 58111  1  0  0  0  0
 59 60  1  0  0  0  0
 59112  1  0  0  0  0
 60 61  1  0  0  0  0
 60 62  2  0  0  0  0
 61 63  1  0  0  0  0
 63113  1  0  0  0  0
 63114  1  0  0  0  0
 63115  1  0  0  0  0
 64 50  1  0  0  0  0
 64116  1  0  0  0  0
 64117  1  0  0  0  0
 65 64  1  0  0  0  0
 65118  1  0  0  0  0
 65119  1  0  0  0  0
M  END
>  <DRUGBANK_ID>
DB09027

>  <COMMON_NAME>
Ledipasvir

>  <CAS_NUMBER>
1256388-51-8

>  <UNII>
013TE6E4WV

>  <SYNONYMS>
Ledipasvir; Lédipasvir; Ledipasvirum

$$$$
