
 OpenBabel10282417072D

 84 87  0  0  0  0  0  0  0  0999 V2000
   -4.6811   -5.6018    0.0000 C   0  0  0  0  0  0  0  0  0  0  0  0
   -4.9361   -4.8172    0.0000 C   0  0  0  0  0  0  0  0  0  0  0  0
   -4.3840   -4.2041    0.0000 C   0  0  0  0  0  0  0  0  0  0  0  0
   -4.6390   -3.4195    0.0000 C   0  0  0  0  0  0  0  0  0  0  0  0
   -4.0869   -2.8064    0.0000 C   0  0  0  0  0  0  0  0  0  0  0  0
   -4.3419   -2.0218    0.0000 C   0  0  0  0  0  0  0  0  0  0  0  0
   -3.7898   -1.4087    0.0000 C   0  0  0  0  0  0  0  0  0  0  0  0
   -2.9829   -1.5802    0.0000 O   0  0  0  0  0  0  0  0  0  0  0  0
   -4.0448   -0.6241    0.0000 O   0  0  0  0  0  0  0  0  0  0  0  0
   -3.4927   -0.0110    0.0000 C   0  0  0  0  0  0  0  0  0  0  0  0
   -3.7477    0.7736    0.0000 C   0  0  0  0  0  0  0  0  0  0  0  0
   -3.1956    1.3867    0.0000 C   0  0  0  0  0  0  0  0  0  0  0  0
   -2.3887    1.2151    0.0000 C   0  0  0  0  0  0  0  0  0  0  0  0
   -2.1337    0.4305    0.0000 C   0  0  0  0  0  0  0  0  0  0  0  0
   -2.6858   -0.1825    0.0000 C   0  0  0  0  0  0  0  0  0  0  0  0
   -1.3268    0.2590    0.0000 C   0  0  0  0  0  0  0  0  0  0  0  0
   -0.7747    0.8721    0.0000 C   0  0  0  0  0  0  0  0  0  0  0  0
   -1.0297    1.6567    0.0000 C   0  0  2  0  0  0  0  0  0  0  0  0
   -1.8366    1.8282    0.0000 C   0  0  2  0  0  0  0  0  0  0  0  0
   -2.0916    2.6128    0.0000 C   0  0  0  0  0  0  0  0  0  0  0  0
   -1.5396    3.2259    0.0000 C   0  0  0  0  0  0  0  0  0  0  0  0
   -0.7326    3.0544    0.0000 C   0  0  1  0  0  0  0  0  0  0  0  0
   -0.4776    2.2698    0.0000 C   0  0  1  0  0  0  0  0  0  0  0  0
    0.3473    2.2698    0.0000 C   0  0  0  0  0  0  0  0  0  0  0  0
    0.6022    3.0544    0.0000 C   0  0  0  0  0  0  0  0  0  0  0  0
   -0.0651    3.5393    0.0000 C   0  0  2  0  0  0  0  0  0  0  0  0
   -0.0651    4.3643    0.0000 O   0  0  0  0  0  0  0  0  0  0  0  0
    0.6492    4.7768    0.0000 C   0  0  0  0  0  0  0  0  0  0  0  0
    0.6492    5.6018    0.0000 O   0  0  0  0  0  0  0  0  0  0  0  0
    1.3637    4.3643    0.0000 C   0  0  0  0  0  0  0  0  0  0  0  0
    2.0782    4.7768    0.0000 C   0  0  0  0  0  0  0  0  0  0  0  0
    2.7926    4.3643    0.0000 C   0  0  0  0  0  0  0  0  0  0  0  0
    3.5071    4.7768    0.0000 C   0  0  0  0  0  0  0  0  0  0  0  0
    4.2216    4.3643    0.0000 C   0  0  0  0  0  0  0  0  0  0  0  0
    4.9361    4.7768    0.0000 C   0  0  0  0  0  0  0  0  0  0  0  0
   -0.9041    3.8614    0.0000 C   0  0  0  0  0  0  0  0  0  0  0  0
   -5.3970   -6.3970    0.0000 H   0  0  0  0  0  0  0  0  0  0  0  0
   -3.6345   -5.8242    0.0000 H   0  0  0  0  0  0  0  0  0  0  0  0
   -4.3504   -6.6194    0.0000 H   0  0  0  0  0  0  0  0  0  0  0  0
   -5.9827   -4.5947    0.0000 H   0  0  0  0  0  0  0  0  0  0  0  0
   -5.2667   -3.7996    0.0000 H   0  0  0  0  0  0  0  0  0  0  0  0
   -3.3374   -4.4266    0.0000 H   0  0  0  0  0  0  0  0  0  0  0  0
   -3.6681   -3.4089    0.0000 H   0  0  0  0  0  0  0  0  0  0  0  0
   -5.6856   -3.1970    0.0000 H   0  0  0  0  0  0  0  0  0  0  0  0
   -4.9696   -2.4019    0.0000 H   0  0  0  0  0  0  0  0  0  0  0  0
   -3.0403   -3.0289    0.0000 H   0  0  0  0  0  0  0  0  0  0  0  0
   -3.3710   -2.0112    0.0000 H   0  0  0  0  0  0  0  0  0  0  0  0
   -5.3885   -1.7993    0.0000 H   0  0  0  0  0  0  0  0  0  0  0  0
   -4.6725   -1.0042    0.0000 H   0  0  0  0  0  0  0  0  0  0  0  0
   -4.7572    0.9882    0.0000 H   0  0  0  0  0  0  0  0  0  0  0  0
   -3.5144    2.3682    0.0000 H   0  0  0  0  0  0  0  0  0  0  0  0
   -2.3670   -1.1640    0.0000 H   0  0  0  0  0  0  0  0  0  0  0  0
   -0.9962   -0.7586    0.0000 H   0  0  0  0  0  0  0  0  0  0  0  0
   -0.2802    0.0365    0.0000 H   0  0  0  0  0  0  0  0  0  0  0  0
    0.2719    0.6496    0.0000 H   0  0  0  0  0  0  0  0  0  0  0  0
   -0.0588    1.6673    0.0000 H   0  0  0  0  0  0  0  0  0  0  0  0
   -1.7456    0.8615    0.0000 H   0  0  0  0  0  0  0  0  0  0  0  0
   -1.5060    0.8106    0.0000 H   0  0  0  0  0  0  0  0  0  0  0  0
   -3.1382    2.8352    0.0000 H   0  0  0  0  0  0  0  0  0  0  0  0
   -2.4223    3.6304    0.0000 H   0  0  0  0  0  0  0  0  0  0  0  0
   -1.8703    4.2435    0.0000 H   0  0  0  0  0  0  0  0  0  0  0  0
   -0.8237    4.0211    0.0000 H   0  0  0  0  0  0  0  0  0  0  0  0
    0.1513    3.1355    0.0000 H   0  0  0  0  0  0  0  0  0  0  0  0
    0.9762    1.4042    0.0000 H   0  0  0  0  0  0  0  0  0  0  0  0
    1.4041    2.4372    0.0000 H   0  0  0  0  0  0  0  0  0  0  0  0
    1.6198    3.3850    0.0000 H   0  0  0  0  0  0  0  0  0  0  0  0
    0.7696    4.1112    0.0000 H   0  0  0  0  0  0  0  0  0  0  0  0
    0.8883    4.0250    0.0000 H   0  0  0  0  0  0  0  0  0  0  0  0
    1.3637    3.2943    0.0000 H   0  0  0  0  0  0  0  0  0  0  0  0
    2.2903    3.8293    0.0000 H   0  0  0  0  0  0  0  0  0  0  0  0
    2.0782    5.8468    0.0000 H   0  0  0  0  0  0  0  0  0  0  0  0
    3.0049    5.3118    0.0000 H   0  0  0  0  0  0  0  0  0  0  0  0
    2.7926    3.2943    0.0000 H   0  0  0  0  0  0  0  0  0  0  0  0
    3.7192    3.8293    0.0000 H   0  0  0  0  0  0  0  0  0  0  0  0
    3.5071    5.8468    0.0000 H   0  0  0  0  0  0  0  0  0  0  0  0
    4.4337    5.3118    0.0000 H   0  0  0  0  0  0  0  0  0  0  0  0
    4.2216    3.2943    0.0000 H   0  0  0  0  0  0  0  0  0  0  0  0
    5.1482    3.8293    0.0000 H   0  0  0  0  0  0  0  0  0  0  0  0
    5.8627    4.2418    0.0000 H   0  0  0  0  0  0  0  0  0  0  0  0
    4.9361    5.8468    0.0000 H   0  0  0  0  0  0  0  0  0  0  0  0
    5.8628    5.3118    0.0000 H   0  0  0  0  0  0  0  0  0  0  0  0
   -0.1089    4.5773    0.0000 H   0  0  0  0  0  0  0  0  0  0  0  0
   -1.9217    4.1921    0.0000 H   0  0  0  0  0  0  0  0  0  0  0  0
   -1.1265    4.9080    0.0000 H   0  0  0  0  0  0  0  0  0  0  0  0
  1  2  1  0  0  0  0
  1 37  1  0  0  0  0
  1 38  1  0  0  0  0
  1 39  1  0  0  0  0
  2  3  1  0  0  0  0
  2 40  1  0  0  0  0
  2 41  1  0  0  0  0
  3  4  1  0  0  0  0
  3 42  1  0  0  0  0
  3 43  1  0  0  0  0
  4  5  1  0  0  0  0
  4 44  1  0  0  0  0
  4 45  1  0  0  0  0
  5  6  1  0  0  0  0
  5 46  1  0  0  0  0
  5 47  1  0  0  0  0
  6  7  1  0  0  0  0
  6 48  1  0  0  0  0
  6 49  1  0  0  0  0
  7  8  2  0  0  0  0
  7  9  1  0  0  0  0
  9 10  1  0  0  0  0
 10 11  2  0  0  0  0
 10 15  1  0  0  0  0
 11 12  1  0  0  0  0
 11 50  1  0  0  0  0
 12 13  2  0  0  0  0
 12 51  1  0  0  0  0
 13 14  1  0  0  0  0
 14 15  2  0  0  0  0
 14 16  1  0  0  0  0
 15 52  1  0  0  0  0
 16 17  1  0  0  0  0
 16 53  1  0  0  0  0
 16 54  1  0  0  0  0
 17 55  1  0  0  0  0
 17 56  1  0  0  0  0
 18 17  1  0  0  0  0
 18 19  1  0  0  0  0
 18 23  1  0  0  0  0
 18 57  1  1  0  0  0
 19 13  1  0  0  0  0
 19 20  1  0  0  0  0
 19 58  1  6  0  0  0
 20 21  1  0  0  0  0
 20 59  1  0  0  0  0
 20 60  1  0  0  0  0
 21 22  1  0  0  0  0
 21 61  1  0  0  0  0
 21 62  1  0  0  0  0
 22 23  1  0  0  0  0
 22 26  1  0  0  0  0
 22 36  1  1  0  0  0
 23 24  1  0  0  0  0
 23 63  1  6  0  0  0
 24 25  1  0  0  0  0
 24 64  1  0  0  0  0
 24 65  1  0  0  0  0
 25 26  1  0  0  0  0
 25 66  1  0  0  0  0
 25 67  1  0  0  0  0
 26 27  1  0  0  0  0
 26 68  1  6  0  0  0
 27 28  1  0  0  0  0
 28 29  2  0  0  0  0
 28 30  1  0  0  0  0
 30 31  1  0  0  0  0
 30 69  1  0  0  0  0
 30 70  1  0  0  0  0
 31 32  1  0  0  0  0
 31 71  1  0  0  0  0
 31 72  1  0  0  0  0
 32 33  1  0  0  0  0
 32 73  1  0  0  0  0
 32 74  1  0  0  0  0
 33 34  1  0  0  0  0
 33 75  1  0  0  0  0
 33 76  1  0  0  0  0
 34 35  1  0  0  0  0
 34 77  1  0  0  0  0
 34 78  1  0  0  0  0
 35 79  1  0  0  0  0
 35 80  1  0  0  0  0
 35 81  1  0  0  0  0
 36 82  1  0  0  0  0
 36 83  1  0  0  0  0
 36 84  1  0  0  0  0
M  END
>  <DRUGBANK_ID>
DB13955

>  <SECONDARY_ACCESSION_NUMBERS>
DBSALT002570

>  <COMMON_NAME>
Estradiol dienanthate

>  <CAS_NUMBER>
7732-97-0

>  <UNII>
65C72P1860

>  <SYNONYMS>
Estradiol dienantate

$$$$
