
 OpenBabel10282417072D

 25 27  0  0  0  0  0  0  0  0999 V2000
   -0.4806   -2.6017    0.0000 O   0  0  0  0  0  0  0  0  0  0  0  0
    0.1163   -2.0322    0.0000 C   0  0  0  0  0  0  0  0  0  0  0  0
    0.8517   -1.6585    0.0000 C   0  0  2  0  0  0  0  0  0  0  0  0
    0.8517   -0.9111    0.0000 C   0  0  0  0  0  0  0  0  0  0  0  0
    1.3012   -0.1208    0.0000 C   0  0  1  0  0  0  0  0  0  0  0  0
    2.0368   -0.4945    0.0000 C   0  0  0  0  0  0  0  0  0  0  0  0
    2.0368   -1.2419    0.0000 C   0  0  1  0  0  0  0  0  0  0  0  0
    1.5873   -2.0322    0.0000 C   0  0  0  0  0  0  0  0  0  0  0  0
    1.3012   -1.6156    0.0000 C   0  0  0  0  0  0  0  0  0  0  0  0
    0.5657   -1.2419    0.0000 C   0  0  2  0  0  0  0  0  0  0  0  0
    0.5657   -0.4945    0.0000 C   0  0  0  0  0  0  0  0  0  0  0  0
    0.8518   -2.7285    0.0000 H   0  0  0  0  0  0  0  0  0  0  0  0
   -0.1827   -0.6375    0.0000 H   0  0  0  0  0  0  0  0  0  0  0  0
    0.0039   -1.5638    0.0000 H   0  0  0  0  0  0  0  0  0  0  0  0
    0.5270   -0.8594    0.0000 H   0  0  0  0  0  0  0  0  0  0  0  0
    2.9488    0.0651    0.0000 H   0  0  0  0  0  0  0  0  0  0  0  0
    2.9705   -1.0170    0.0000 H   0  0  0  0  0  0  0  0  0  0  0  0
    1.0024   -0.9683    0.0000 H   0  0  0  0  0  0  0  0  0  0  0  0
    1.8951   -3.0570    0.0000 H   0  0  0  0  0  0  0  0  0  0  0  0
    0.7664   -2.7185    0.0000 H   0  0  0  0  0  0  0  0  0  0  0  0
    1.3012   -2.6856    0.0000 H   0  0  0  0  0  0  0  0  0  0  0  0
    0.3892   -2.1752    0.0000 H   0  0  0  0  0  0  0  0  0  0  0  0
    0.8735   -2.2667    0.0000 H   0  0  0  0  0  0  0  0  0  0  0  0
   -0.3463    0.0651    0.0000 H   0  0  0  0  0  0  0  0  0  0  0  0
   -0.3680   -1.0171    0.0000 H   0  0  0  0  0  0  0  0  0  0  0  0
  1  2  2  0  0  0  0
  2 10  1  0  0  0  0
  3  2  1  0  0  0  0
  3  8  1  0  0  0  0
  3  4  1  0  0  0  0
  3 12  1  1  0  0  0
  4 13  1  0  0  0  0
  4 14  1  0  0  0  0
  5 11  1  0  0  0  0
  5  4  1  0  0  0  0
  5  6  1  0  0  0  0
  5 15  1  1  0  0  0
  6 16  1  0  0  0  0
  6 17  1  0  0  0  0
  7  8  1  0  0  0  0
  7  9  1  0  0  0  0
  7  6  1  0  0  0  0
  7 18  1  6  0  0  0
  8 19  1  0  0  0  0
  8 20  1  0  0  0  0
  9 21  1  0  0  0  0
  9 22  1  0  0  0  0
 10  9  1  0  0  0  0
 10 11  1  0  0  0  0
 10 23  1  6  0  0  0
 11 24  1  0  0  0  0
 11 25  1  0  0  0  0
M  END
>  <DRUGBANK_ID>
DB02125

>  <SECONDARY_ACCESSION_NUMBERS>
EXPT00435

>  <COMMON_NAME>
Adamantanone

>  <CAS_NUMBER>
700-58-3

>  <UNII>
UI7W503L08

$$$$
