
 OpenBabel10282417072D

 52 53  0  0  0  0  0  0  0  0999 V2000
    2.4984    1.2236    0.0000 C   0  0  0  0  0  0  0  0  0  0  0  0
    2.4984    0.3986    0.0000 C   0  0  0  0  0  0  0  0  0  0  0  0
    1.7840   -0.0138    0.0000 C   0  0  0  0  0  0  0  0  0  0  0  0
    1.0695    0.3986    0.0000 C   0  0  0  0  0  0  0  0  0  0  0  0
    1.0695    1.2236    0.0000 C   0  0  0  0  0  0  0  0  0  0  0  0
    1.7840    1.6361    0.0000 C   0  0  0  0  0  0  0  0  0  0  0  0
    3.2130    1.6361    0.0000 N   0  0  0  0  0  0  0  0  0  0  0  0
    0.3440   -0.0202    0.0000 C   0  0  0  0  0  0  0  0  0  0  0  0
   -0.3661    0.3896    0.0000 C   0  0  0  0  0  0  0  0  0  0  0  0
   -1.0629   -0.0126    0.0000 C   0  0  0  0  0  0  0  0  0  0  0  0
   -1.0629   -0.8386    0.0000 C   0  0  0  0  0  0  0  0  0  0  0  0
   -1.7773   -1.2512    0.0000 C   0  0  0  0  0  0  0  0  0  0  0  0
   -2.4918   -0.8388    0.0000 C   0  0  0  0  0  0  0  0  0  0  0  0
   -2.4919   -0.0128    0.0000 C   0  0  0  0  0  0  0  0  0  0  0  0
   -1.7774    0.3997    0.0000 C   0  0  0  0  0  0  0  0  0  0  0  0
   -3.2130   -1.2539    0.0000 O   0  0  0  0  0  0  0  0  0  0  0  0
   -3.2008   -2.0678    0.0000 C   0  0  0  0  0  0  0  0  0  0  0  0
   -2.4953   -2.4611    0.0000 C   0  0  0  0  0  0  0  0  0  0  0  0
   -1.7992   -2.0453    0.0000 O   0  0  0  0  0  0  0  0  0  0  0  0
   -1.0925   -2.4393    0.0000 C   0  0  0  0  0  0  0  0  0  0  0  0
   -0.3971   -2.0238    0.0000 C   0  0  0  0  0  0  0  0  0  0  0  0
    0.3099   -2.4181    0.0000 O   0  0  0  0  0  0  0  0  0  0  0  0
    1.0051   -2.0027    0.0000 C   0  0  0  0  0  0  0  0  0  0  0  0
    1.7122   -2.3971    0.0000 C   0  0  0  0  0  0  0  0  0  0  0  0
    2.4074   -1.9816    0.0000 F   0  0  0  0  0  0  0  0  0  0  0  0
    3.2130    2.4611    0.0000 C   0  0  0  0  0  0  0  0  0  0  0  0
    3.3921   -0.1174    0.0000 H   0  0  0  0  0  0  0  0  0  0  0  0
    1.7840   -1.0458    0.0000 H   0  0  0  0  0  0  0  0  0  0  0  0
    0.1758    1.7396    0.0000 H   0  0  0  0  0  0  0  0  0  0  0  0
    1.7840    2.6681    0.0000 H   0  0  0  0  0  0  0  0  0  0  0  0
    4.0656    1.1438    0.0000 H   0  0  0  0  0  0  0  0  0  0  0  0
    0.3441   -1.0522    0.0000 H   0  0  0  0  0  0  0  0  0  0  0  0
   -0.3661    1.4216    0.0000 H   0  0  0  0  0  0  0  0  0  0  0  0
   -0.1691   -1.3545    0.0000 H   0  0  0  0  0  0  0  0  0  0  0  0
   -1.7772   -2.2832    0.0000 H   0  0  0  0  0  0  0  0  0  0  0  0
   -3.3857    0.5032    0.0000 H   0  0  0  0  0  0  0  0  0  0  0  0
   -1.7775    1.4317    0.0000 H   0  0  0  0  0  0  0  0  0  0  0  0
   -4.1193   -2.6166    0.0000 H   0  0  0  0  0  0  0  0  0  0  0  0
   -3.1847   -3.1377    0.0000 H   0  0  0  0  0  0  0  0  0  0  0  0
   -2.4793   -3.5310    0.0000 H   0  0  0  0  0  0  0  0  0  0  0  0
   -1.5608   -2.9822    0.0000 H   0  0  0  0  0  0  0  0  0  0  0  0
   -1.0765   -3.5092    0.0000 H   0  0  0  0  0  0  0  0  0  0  0  0
   -0.1579   -2.9604    0.0000 H   0  0  0  0  0  0  0  0  0  0  0  0
   -0.4131   -0.9539    0.0000 H   0  0  0  0  0  0  0  0  0  0  0  0
    0.5215   -1.4751    0.0000 H   0  0  0  0  0  0  0  0  0  0  0  0
    0.9892   -0.9328    0.0000 H   0  0  0  0  0  0  0  0  0  0  0  0
    1.9237   -1.4540    0.0000 H   0  0  0  0  0  0  0  0  0  0  0  0
    1.7282   -3.4670    0.0000 H   0  0  0  0  0  0  0  0  0  0  0  0
    2.6468   -2.9181    0.0000 H   0  0  0  0  0  0  0  0  0  0  0  0
    4.1396    2.9961    0.0000 H   0  0  0  0  0  0  0  0  0  0  0  0
    2.2864    2.9961    0.0000 H   0  0  0  0  0  0  0  0  0  0  0  0
    3.2130    3.5311    0.0000 H   0  0  0  0  0  0  0  0  0  0  0  0
  1  2  2  0  0  0  0
  1  6  1  0  0  0  0
  1  7  1  0  0  0  0
  2  3  1  0  0  0  0
  2 27  1  0  0  0  0
  3  4  2  0  0  0  0
  3 28  1  0  0  0  0
  4  5  1  0  0  0  0
  4  8  1  0  0  0  0
  5  6  2  0  0  0  0
  5 29  1  0  0  0  0
  6 30  1  0  0  0  0
  7 26  1  0  0  0  0
  7 31  1  0  0  0  0
  8  9  2  0  0  0  0
  8 32  1  0  0  0  0
  9 10  1  0  0  0  0
  9 33  1  0  0  0  0
 10 11  2  0  0  0  0
 10 15  1  0  0  0  0
 11 12  1  0  0  0  0
 11 34  1  0  0  0  0
 12 13  2  0  0  0  0
 12 35  1  0  0  0  0
 13 14  1  0  0  0  0
 13 16  1  0  0  0  0
 14 15  2  0  0  0  0
 14 36  1  0  0  0  0
 15 37  1  0  0  0  0
 16 17  1  0  0  0  0
 17 18  1  0  0  0  0
 17 38  1  0  0  0  0
 17 39  1  0  0  0  0
 18 19  1  0  0  0  0
 18 40  1  0  0  0  0
 18 41  1  0  0  0  0
 19 20  1  0  0  0  0
 20 21  1  0  0  0  0
 20 42  1  0  0  0  0
 20 43  1  0  0  0  0
 21 22  1  0  0  0  0
 21 44  1  0  0  0  0
 21 45  1  0  0  0  0
 22 23  1  0  0  0  0
 23 24  1  0  0  0  0
 23 46  1  0  0  0  0
 23 47  1  0  0  0  0
 24 25  1  0  0  0  0
 24 48  1  0  0  0  0
 24 49  1  0  0  0  0
 26 50  1  0  0  0  0
 26 51  1  0  0  0  0
 26 52  1  0  0  0  0
M  ISO  1  25  18
M  END
>  <DRUGBANK_ID>
DB09148

>  <COMMON_NAME>
Florbetaben F-18

>  <CAS_NUMBER>
902143-01-5

>  <UNII>
TLA7312TOI

>  <SYNONYMS>
4-((1E)-2-(4-(2-(2-(2-((SUP 18(F))FLUOROETHOXY)ETHOXY)ETHOXY)PHENYL)ETH-1-EN-1-YL)-N-METHYLANILINE; Florbetaben (18F); florbetaben (¹⁸F); florbetaben F18; FLORBETABEN(18F)

$$$$
