IEM
 OpenBabel10282417072D

 38 38  0  0  0  0  0  0  0  0999 V2000
    1.6995   -1.4040    0.0000 C   0  0  0  0  0  0  0  0  0  0  0  0
    0.9851   -0.9915    0.0000 C   0  0  0  0  0  0  0  0  0  0  0  0
    0.2706   -1.4040    0.0000 C   0  0  0  0  0  0  0  0  0  0  0  0
   -0.4439   -0.9915    0.0000 C   0  0  1  0  0  0  0  0  0  0  0  0
   -0.4439   -0.1665    0.0000 C   0  0  2  0  0  0  0  0  0  0  0  0
    0.2706    0.2460    0.0000 C   0  0  2  0  0  0  0  0  0  0  0  0
    0.2706    1.0710    0.0000 O   0  0  0  0  0  0  0  0  0  0  0  0
    0.9851    1.4835    0.0000 C   0  0  0  0  0  0  0  0  0  0  0  0
    0.9851    2.3085    0.0000 C   0  0  0  0  0  0  0  0  0  0  0  0
    1.6995    2.7210    0.0000 C   0  0  0  0  0  0  0  0  0  0  0  0
    0.2706    2.7210    0.0000 C   0  0  0  0  0  0  0  0  0  0  0  0
   -1.8728   -0.1665    0.0000 C   0  0  0  0  0  0  0  0  0  0  0  0
   -1.8728   -0.9915    0.0000 C   0  0  0  0  0  0  0  0  0  0  0  0
   -1.1584    0.2460    0.0000 N   0  0  0  0  0  0  0  0  0  0  0  0
    2.4140   -0.9915    0.0000 O   0  0  0  0  0  0  0  0  0  0  0  0
    1.6995   -2.2290    0.0000 O   0  0  0  0  0  0  0  0  0  0  0  0
   -1.1584   -1.4040    0.0000 O   0  0  0  0  0  0  0  0  0  0  0  0
    0.9851   -0.1665    0.0000 O   0  0  0  0  0  0  0  0  0  0  0  0
   -2.5873    0.2460    0.0000 O   0  0  0  0  0  0  0  0  0  0  0  0
   -0.4439   -1.5754    0.0000 H   0  0  0  0  0  0  0  0  0  0  0  0
   -0.9496   -0.4585    0.0000 H   0  0  0  0  0  0  0  0  0  0  0  0
   -0.2351    0.5380    0.0000 H   0  0  0  0  0  0  0  0  0  0  0  0
    0.2706   -2.4360    0.0000 H   0  0  0  0  0  0  0  0  0  0  0  0
    1.9117    0.9485    0.0000 H   0  0  0  0  0  0  0  0  0  0  0  0
    1.9117    2.0185    0.0000 H   0  0  0  0  0  0  0  0  0  0  0  0
    0.9851    3.3785    0.0000 H   0  0  0  0  0  0  0  0  0  0  0  0
    2.6262    2.1860    0.0000 H   0  0  0  0  0  0  0  0  0  0  0  0
    1.6995    3.7910    0.0000 H   0  0  0  0  0  0  0  0  0  0  0  0
    2.6261    3.2560    0.0000 H   0  0  0  0  0  0  0  0  0  0  0  0
    0.2706    3.7910    0.0000 H   0  0  0  0  0  0  0  0  0  0  0  0
   -0.6560    2.1860    0.0000 H   0  0  0  0  0  0  0  0  0  0  0  0
   -0.6561    3.2560    0.0000 H   0  0  0  0  0  0  0  0  0  0  0  0
   -2.7994   -1.5265    0.0000 H   0  0  0  0  0  0  0  0  0  0  0  0
   -0.9462   -1.5265    0.0000 H   0  0  0  0  0  0  0  0  0  0  0  0
   -1.8728   -2.0615    0.0000 H   0  0  0  0  0  0  0  0  0  0  0  0
   -1.1584    1.2305    0.0000 H   0  0  0  0  0  0  0  0  0  0  0  0
    3.2255   -1.4600    0.0000 H   0  0  0  0  0  0  0  0  0  0  0  0
   -1.9984   -0.9190    0.0000 H   0  0  0  0  0  0  0  0  0  0  0  0
  1  2  1  0  0  0  0
  1 15  1  0  0  0  0
  1 16  2  0  0  0  0
  2  3  2  0  0  0  0
  2 18  1  0  0  0  0
  3  4  1  0  0  0  0
  3 23  1  0  0  0  0
  4  5  1  0  0  0  0
  4 17  1  0  0  0  0
  4 20  1  1  0  0  0
  5  6  1  0  0  0  0
  5 14  1  0  0  0  0
  5 21  1  6  0  0  0
  6  7  1  0  0  0  0
  6 18  1  0  0  0  0
  6 22  1  1  0  0  0
  7  8  1  0  0  0  0
  8  9  1  0  0  0  0
  8 24  1  0  0  0  0
  8 25  1  0  0  0  0
  9 10  1  0  0  0  0
  9 11  1  0  0  0  0
  9 26  1  0  0  0  0
 10 27  1  0  0  0  0
 10 28  1  0  0  0  0
 10 29  1  0  0  0  0
 11 30  1  0  0  0  0
 11 31  1  0  0  0  0
 11 32  1  0  0  0  0
 12 13  1  0  0  0  0
 12 14  1  0  0  0  0
 12 19  2  0  0  0  0
 13 33  1  0  0  0  0
 13 34  1  0  0  0  0
 13 35  1  0  0  0  0
 14 36  1  0  0  0  0
 15 37  1  0  0  0  0
 17 38  1  0  0  0  0
M  END
>  <DRUGBANK_ID>
DB07960

>  <COMMON_NAME>
5-ACETAMIDO-5,6-DIHYDRO-4-HYDROXY-6-ISOBUTOXY-4H-PYRAN-2-CARBOXYLIC ACID

$$$$
