
 OpenBabel10282417072D

  3  2  0  0  0  0  0  0  0  0999 V2000
    0.0000    0.0000    0.0000 Ba  0  0  0  0  0  0  0  0  0  0  0  0
    0.0000    0.0000    0.0000 H   0  0  0  0  0  0  0  0  0  0  0  0
    0.0000    0.0000    0.0000 H   0  0  0  0  0  0  0  0  0  0  0  0
  1  2  1  0  0  0  0
  1  3  1  0  0  0  0
M  END
>  <DRUGBANK_ID>
DB12481

>  <COMMON_NAME>
Barium

>  <CAS_NUMBER>
7440-39-3

>  <UNII>
24GP945V5T

>  <SYNONYMS>
Ba

$$$$
