
 OpenBabel10282417072D

 22 21  0  0  1  0  0  0  0  0999 V2000
   15.4139  -13.3984    0.0000 C   0  0  2  0  0  0  0  0  0  0  0  0
   16.1270  -13.8134    0.0000 C   0  0  2  0  0  0  0  0  0  0  0  0
   14.6973  -13.8134    0.0000 C   0  0  0  0  0  0  0  0  0  0  0  0
   15.8176  -12.6856    0.0000 C   0  0  0  0  0  0  0  0  0  0  0  0
   14.9991  -12.6856    0.0000 O   0  0  0  0  0  0  0  0  0  0  0  0
   16.8435  -13.3984    0.0000 C   0  0  0  0  0  0  0  0  0  0  0  0
   16.1232  -14.7142    0.0000 O   0  0  0  0  0  0  0  0  0  0  0  0
   13.9882  -13.4060    0.0000 C   0  0  0  0  0  0  0  0  0  0  0  0
   17.5490  -13.8134    0.0000 O   0  0  0  0  0  0  0  0  0  0  0  0
   16.8398  -12.5723    0.0000 O   0  0  0  0  0  0  0  0  0  0  0  0
   15.1983  -14.3448    0.0000 H   0  0  0  0  0  0  0  0  0  0  0  0
   14.6991  -14.8834    0.0000 H   0  0  0  0  0  0  0  0  0  0  0  0
   13.7717  -14.3502    0.0000 H   0  0  0  0  0  0  0  0  0  0  0  0
   16.8876  -12.6767    0.0000 H   0  0  0  0  0  0  0  0  0  0  0  0
   15.2749  -11.7634    0.0000 H   0  0  0  0  0  0  0  0  0  0  0  0
   16.3449  -11.7546    0.0000 H   0  0  0  0  0  0  0  0  0  0  0  0
   15.4812  -11.8439    0.0000 H   0  0  0  0  0  0  0  0  0  0  0  0
   15.2811  -15.1957    0.0000 H   0  0  0  0  0  0  0  0  0  0  0  0
   13.9859  -12.3360    0.0000 H   0  0  0  0  0  0  0  0  0  0  0  0
   13.0627  -13.9430    0.0000 H   0  0  0  0  0  0  0  0  0  0  0  0
   13.0604  -12.8730    0.0000 H   0  0  0  0  0  0  0  0  0  0  0  0
   17.5414  -14.7504    0.0000 H   0  0  0  0  0  0  0  0  0  0  0  0
  1  2  1  0  0  0  0
  1  3  1  0  0  0  0
  1  4  1  0  0  0  0
  1  5  1  1  0  0  0
  2  6  1  0  0  0  0
  2  7  1  0  0  0  0
  2 11  1  1  0  0  0
  3  8  1  0  0  0  0
  3 12  1  0  0  0  0
  3 13  1  0  0  0  0
  4 14  1  0  0  0  0
  4 15  1  0  0  0  0
  4 16  1  0  0  0  0
  5 17  1  0  0  0  0
  6  9  1  0  0  0  0
  6 10  2  0  0  0  0
  7 18  1  0  0  0  0
  8 19  1  0  0  0  0
  8 20  1  0  0  0  0
  8 21  1  0  0  0  0
  9 22  1  0  0  0  0
M  END
>  <DRUGBANK_ID>
DB03675

>  <SECONDARY_ACCESSION_NUMBERS>
EXPT01232

>  <COMMON_NAME>
2,3-Dihydroxy-Valerianic Acid

$$$$
