
 OpenBabel10282417072D

 19 18  0  0  0  0  0  0  0  0999 V2000
    0.6592    1.4437    0.0000 Be  0  6  0  0  0  0  0  0  0  0  0  0
    0.6592    0.6187    0.0000 O   0  0  0  0  0  0  0  0  0  0  0  0
   -0.0552    0.2062    0.0000 C   0  0  0  0  0  0  0  0  0  0  0  0
   -0.7697    0.6187    0.0000 O   0  0  0  0  0  0  0  0  0  0  0  0
   -0.0552   -0.6187    0.0000 C   0  0  0  0  0  0  0  0  0  0  0  0
   -0.7697   -1.0312    0.0000 C   0  0  1  0  0  0  0  0  0  0  0  0
   -0.7697   -1.8562    0.0000 C   0  0  0  0  0  0  0  0  0  0  0  0
   -1.4842   -2.2687    0.0000 O   0  0  0  0  0  0  0  0  0  0  0  0
   -0.0552   -2.2687    0.0000 O   0  0  0  0  0  0  0  0  0  0  0  0
   -1.4842   -0.6187    0.0000 N   0  0  0  0  0  0  0  0  0  0  0  0
    0.6592    2.2687    0.0000 F   0  0  0  0  0  0  0  0  0  0  0  0
    1.4842    1.4437    0.0000 F   0  0  0  0  0  0  0  0  0  0  0  0
   -0.1657    1.4437    0.0000 F   0  0  0  0  0  0  0  0  0  0  0  0
    0.8714   -1.1537    0.0000 H   0  0  0  0  0  0  0  0  0  0  0  0
   -0.0552   -1.6887    0.0000 H   0  0  0  0  0  0  0  0  0  0  0  0
   -0.7697    0.0388    0.0000 H   0  0  0  0  0  0  0  0  0  0  0  0
   -0.0552   -3.2057    0.0000 H   0  0  0  0  0  0  0  0  0  0  0  0
   -1.4842    0.4013    0.0000 H   0  0  0  0  0  0  0  0  0  0  0  0
   -2.3675   -1.1287    0.0000 H   0  0  0  0  0  0  0  0  0  0  0  0
  1  2  1  0  0  0  0
  1 11  1  0  0  0  0
  1 12  1  0  0  0  0
  1 13  1  0  0  0  0
  2  3  1  0  0  0  0
  3  4  2  0  0  0  0
  3  5  1  0  0  0  0
  5 14  1  0  0  0  0
  5 15  1  0  0  0  0
  6  5  1  0  0  0  0
  6  7  1  0  0  0  0
  6 10  1  0  0  0  0
  6 16  1  6  0  0  0
  7  8  2  0  0  0  0
  7  9  1  0  0  0  0
  9 17  1  0  0  0  0
 10 18  1  0  0  0  0
 10 19  1  0  0  0  0
M  CHG  1   1  -2
M  END
>  <DRUGBANK_ID>
DB04156

>  <SECONDARY_ACCESSION_NUMBERS>
EXPT00678

>  <COMMON_NAME>
Aspartate beryllium trifluoride

$$$$
