
 OpenBabel10282417072D

  5  3  0  0  0  0  0  0  0  0999 V2000
   -1.0731   -1.4860    0.0000 Fe  0  2  0  0  0  0  0  0  0  0  0  0
   -0.3299    1.4860    0.0000 O   0  0  0  0  0  0  0  0  0  0  0  0
    1.0731    1.4860    0.0000 O   0  5  0  0  0  0  0  0  0  0  0  0
    0.3299    1.0731    0.0000 C   0  0  0  0  0  0  0  0  0  0  0  0
    0.3299    0.2481    0.0000 O   0  5  0  0  0  0  0  0  0  0  0  0
  2  4  2  0  0  0  0
  3  4  1  0  0  0  0
  4  5  1  0  0  0  0
M  CHG  3   1   2   3  -1   5  -1
M  END
>  <DRUGBANK_ID>
DB13698

>  <COMMON_NAME>
Ferrous carbonate

>  <CAS_NUMBER>
563-71-3

>  <UNII>
MZ3Q72U52O

$$$$
