
 OpenBabel10282417072D

 25 24  0  0  1  0  0  0  0  0999 V2000
    3.3809    1.1270    0.0000 C   0  0  0  0  0  0  0  0  0  0  0  0
    4.0954    0.7145    0.0000 C   0  0  0  0  0  0  0  0  0  0  0  0
    1.9520    1.1270    0.0000 C   0  0  0  0  0  0  0  0  0  0  0  0
    1.2375    0.7145    0.0000 C   0  0  1  0  0  0  0  0  0  0  0  0
    0.5230    1.1270    0.0000 C   0  0  0  0  0  0  0  0  0  0  0  0
    1.2375   -0.1105    0.0000 N   0  0  0  0  0  0  0  0  0  0  0  0
    5.5243    1.5395    0.0000 N   0  0  0  0  0  0  0  0  0  0  0  0
   -0.1914    0.7145    0.0000 O   0  0  0  0  0  0  0  0  0  0  0  0
    0.5230    1.9520    0.0000 O   0  0  0  0  0  0  0  0  0  0  0  0
    4.3974    1.8414    0.0000 O   0  0  0  0  0  0  0  0  0  0  0  0
    5.2224    0.4125    0.0000 O   0  0  0  0  0  0  0  0  0  0  0  0
    2.6664    0.7145    0.0000 S   0  0  0  0  0  0  0  0  0  0  0  0
    4.8099    1.1270    0.0000 S   0  0  0  0  0  0  0  0  0  0  0  0
    1.2375    1.5395    0.0000 H   0  0  0  0  0  0  0  0  0  0  0  0
    3.3809    2.1970    0.0000 H   0  0  0  0  0  0  0  0  0  0  0  0
    2.4543    1.6620    0.0000 H   0  0  0  0  0  0  0  0  0  0  0  0
    4.0954   -0.3555    0.0000 H   0  0  0  0  0  0  0  0  0  0  0  0
    5.0220    0.1795    0.0000 H   0  0  0  0  0  0  0  0  0  0  0  0
    1.9520    2.1970    0.0000 H   0  0  0  0  0  0  0  0  0  0  0  0
    2.8787    1.6620    0.0000 H   0  0  0  0  0  0  0  0  0  0  0  0
    0.3542   -0.6205    0.0000 H   0  0  0  0  0  0  0  0  0  0  0  0
    2.1208   -0.6205    0.0000 H   0  0  0  0  0  0  0  0  0  0  0  0
    6.4077    1.0295    0.0000 H   0  0  0  0  0  0  0  0  0  0  0  0
    5.5243    2.5595    0.0000 H   0  0  0  0  0  0  0  0  0  0  0  0
    1.3345    2.4205    0.0000 H   0  0  0  0  0  0  0  0  0  0  0  0
  1 15  1  0  0  0  0
  1 16  1  0  0  0  0
  2  1  1  0  0  0  0
  2 17  1  0  0  0  0
  2 18  1  0  0  0  0
  3 19  1  0  0  0  0
  3 20  1  0  0  0  0
  4  3  1  0  0  0  0
  4  6  1  0  0  0  0
  4 14  1  1  0  0  0
  5  4  1  0  0  0  0
  6 21  1  0  0  0  0
  6 22  1  0  0  0  0
  7 23  1  0  0  0  0
  7 24  1  0  0  0  0
  8  5  2  0  0  0  0
  9  5  1  0  0  0  0
  9 25  1  0  0  0  0
 12  1  1  0  0  0  0
 12  3  1  0  0  0  0
 13  2  1  0  0  0  0
 13  7  1  0  0  0  0
 13 10  2  0  0  0  0
 13 11  2  0  0  0  0
M  END
>  <DRUGBANK_ID>
DB02689

>  <SECONDARY_ACCESSION_NUMBERS>
EXPT02875

>  <COMMON_NAME>
S-{2-[Amino(Dihydroxy)-Lambda~4~-Sulfanyl]Ethyl}-D-Cysteine

$$$$
