
 OpenBabel10282417072D

 36 37  0  0  0  0  0  0  0  0999 V2000
    1.5356    8.0652    0.0000 C   0  0  0  0  0  0  0  0  0  0  0  0
    1.5356    7.2402    0.0000 C   0  0  0  0  0  0  0  0  0  0  0  0
    0.8212    6.8277    0.0000 C   0  0  0  0  0  0  0  0  0  0  0  0
    0.1067    7.2402    0.0000 N   0  0  0  0  0  0  0  0  0  0  0  0
    0.1067    8.0652    0.0000 C   0  0  0  0  0  0  0  0  0  0  0  0
    0.8212    8.4777    0.0000 C   0  0  0  0  0  0  0  0  0  0  0  0
   -0.6078    6.8277    0.0000 C   0  0  0  0  0  0  0  0  0  0  0  0
   -0.6078    6.0027    0.0000 C   0  0  3  0  0  0  0  0  0  0  0  0
   -1.3222    5.5902    0.0000 C   0  0  0  0  0  0  0  0  0  0  0  0
   -1.3222    4.7652    0.0000 N   0  0  0  0  0  0  0  0  0  0  0  0
   -0.6548    4.2803    0.0000 C   0  0  0  0  0  0  0  0  0  0  0  0
   -0.9097    3.4956    0.0000 C   0  0  0  0  0  0  0  0  0  0  0  0
   -1.7347    3.4956    0.0000 N   0  0  0  0  0  0  0  0  0  0  0  0
   -1.9897    4.2803    0.0000 C   0  0  0  0  0  0  0  0  0  0  0  0
   -2.7743    4.5352    0.0000 N   0  3  0  0  0  0  0  0  0  0  0  0
   -3.3874    3.9832    0.0000 O   0  0  0  0  0  0  0  0  0  0  0  0
   -2.9458    5.3422    0.0000 O   0  5  0  0  0  0  0  0  0  0  0  0
    0.1067    5.5902    0.0000 O   0  0  0  0  0  0  0  0  0  0  0  0
    2.4623    8.6002    0.0000 H   0  0  0  0  0  0  0  0  0  0  0  0
    1.5356    9.1352    0.0000 H   0  0  0  0  0  0  0  0  0  0  0  0
    2.4623    6.7052    0.0000 H   0  0  0  0  0  0  0  0  0  0  0  0
    1.5356    6.1702    0.0000 H   0  0  0  0  0  0  0  0  0  0  0  0
    0.8212    5.7577    0.0000 H   0  0  0  0  0  0  0  0  0  0  0  0
   -0.1054    6.2927    0.0000 H   0  0  0  0  0  0  0  0  0  0  0  0
   -0.8199    8.6002    0.0000 H   0  0  0  0  0  0  0  0  0  0  0  0
    0.1067    9.1352    0.0000 H   0  0  0  0  0  0  0  0  0  0  0  0
    0.8212    9.5477    0.0000 H   0  0  0  0  0  0  0  0  0  0  0  0
    1.7479    9.0127    0.0000 H   0  0  0  0  0  0  0  0  0  0  0  0
   -1.5344    7.3627    0.0000 H   0  0  0  0  0  0  0  0  0  0  0  0
   -1.5344    6.2927    0.0000 H   0  0  0  0  0  0  0  0  0  0  0  0
   -1.5345    6.5377    0.0000 H   0  0  0  0  0  0  0  0  0  0  0  0
   -2.2489    6.1252    0.0000 H   0  0  0  0  0  0  0  0  0  0  0  0
   -2.2488    5.0552    0.0000 H   0  0  0  0  0  0  0  0  0  0  0  0
    0.3267    4.5992    0.0000 H   0  0  0  0  0  0  0  0  0  0  0  0
   -0.3031    2.6607    0.0000 H   0  0  0  0  0  0  0  0  0  0  0  0
    0.1067    4.6202    0.0000 H   0  0  0  0  0  0  0  0  0  0  0  0
  1  2  1  0  0  0  0
  1  6  1  0  0  0  0
  1 19  1  0  0  0  0
  1 20  1  0  0  0  0
  2  3  1  0  0  0  0
  2 21  1  0  0  0  0
  2 22  1  0  0  0  0
  3  4  1  0  0  0  0
  3 23  1  0  0  0  0
  3 24  1  0  0  0  0
  4  5  1  0  0  0  0
  4  7  1  0  0  0  0
  5  6  1  0  0  0  0
  5 25  1  0  0  0  0
  5 26  1  0  0  0  0
  6 27  1  0  0  0  0
  6 28  1  0  0  0  0
  7  8  1  0  0  0  0
  7 29  1  0  0  0  0
  7 30  1  0  0  0  0
  8  9  1  0  0  0  0
  8 18  1  0  0  0  0
  8 31  1  0  0  0  0
  9 10  1  0  0  0  0
  9 32  1  0  0  0  0
  9 33  1  0  0  0  0
 10 11  1  0  0  0  0
 10 14  1  0  0  0  0
 11 12  2  0  0  0  0
 11 34  1  0  0  0  0
 12 13  1  0  0  0  0
 12 35  1  0  0  0  0
 13 14  2  0  0  0  0
 14 15  1  0  0  0  0
 15 16  2  0  0  0  0
 15 17  1  0  0  0  0
 18 36  1  0  0  0  0
M  CHG  2  15   1  17  -1
M  END
>  <DRUGBANK_ID>
DB12485

>  <COMMON_NAME>
Pimonidazole

>  <CAS_NUMBER>
70132-50-2

>  <UNII>
46JO4D76R2

>  <SYNONYMS>
Pimonidazole

$$$$
