
 OpenBabel10282417072D

 36 38  0  0  0  0  0  0  0  0999 V2000
   -0.4948   -0.8266    0.0000 N   0  0  0  0  0  4  0  0  0  0  0  0
    0.1682   -1.3188    0.0000 N   0  0  0  0  0  0  0  0  0  0  0  0
   -0.9247   -2.0859    0.0000 C   0  0  0  0  0  0  0  0  0  0  0  0
   -0.1005   -2.0975    0.0000 C   0  0  0  0  0  0  0  0  0  0  0  0
   -1.1675   -1.2999    0.0000 C   0  0  0  0  0  0  0  0  0  0  0  0
   -1.3509   -2.8002    0.0000 C   0  0  0  0  0  0  0  0  0  0  0  0
    0.3053   -2.8232    0.0000 C   0  0  0  0  0  0  0  0  0  0  0  0
   -0.9446   -3.5219    0.0000 C   0  0  0  0  0  0  0  0  0  0  0  0
   -0.1207   -3.5333    0.0000 C   0  0  0  0  0  0  0  0  0  0  0  0
   -0.4512   -0.0023    0.0000 Ru  0  0  0  0  0  0  0  0  0  0  0  0
   -1.0340    0.5804    0.0000 Cl  0  0  0  0  0  0  0  0  0  0  0  0
    0.1311   -0.5848    0.0000 Cl  0  0  0  0  0  0  0  0  0  0  0  0
    0.1311    0.5804    0.0000 Cl  0  0  0  0  0  0  0  0  0  0  0  0
   -1.0340   -0.5848    0.0000 Cl  0  0  0  0  0  0  0  0  0  0  0  0
   -0.4535    0.8223    0.0000 N   0  0  0  0  0  4  0  0  0  0  0  0
   -1.1277    1.2877    0.0000 N   0  0  0  0  0  0  0  0  0  0  0  0
   -0.0747    2.0980    0.0000 C   0  0  0  0  0  0  0  0  0  0  0  0
   -0.8986    2.0763    0.0000 C   0  0  0  0  0  0  0  0  0  0  0  0
    0.1993    1.3223    0.0000 C   0  0  0  0  0  0  0  0  0  0  0  0
    0.3226    2.8285    0.0000 C   0  0  0  0  0  0  0  0  0  0  0  0
   -1.3291    2.7854    0.0000 C   0  0  0  0  0  0  0  0  0  0  0  0
   -0.1121    3.5333    0.0000 C   0  0  0  0  0  0  0  0  0  0  0  0
   -0.9361    3.5120    0.0000 C   0  0  0  0  0  0  0  0  0  0  0  0
    1.3509   -0.0064    0.0000 Na  0  3  0  0  0  0  0  0  0  0  0  0
    1.1087   -1.0279    0.0000 H   0  0  0  0  0  0  0  0  0  0  0  0
   -2.1441   -0.9664    0.0000 H   0  0  0  0  0  0  0  0  0  0  0  0
   -2.3828   -2.7872    0.0000 H   0  0  0  0  0  0  0  0  0  0  0  0
    1.3372   -2.8389    0.0000 H   0  0  0  0  0  0  0  0  0  0  0  0
   -1.4716   -4.4092    0.0000 H   0  0  0  0  0  0  0  0  0  0  0  0
    0.3816   -4.4348    0.0000 H   0  0  0  0  0  0  0  0  0  0  0  0
   -2.0552    0.9576    0.0000 H   0  0  0  0  0  0  0  0  0  0  0  0
    1.1886    1.0284    0.0000 H   0  0  0  0  0  0  0  0  0  0  0  0
    1.3542    2.8566    0.0000 H   0  0  0  0  0  0  0  0  0  0  0  0
   -2.3608    2.7597    0.0000 H   0  0  0  0  0  0  0  0  0  0  0  0
    0.3792    4.4409    0.0000 H   0  0  0  0  0  0  0  0  0  0  0  0
   -1.4759    4.3916    0.0000 H   0  0  0  0  0  0  0  0  0  0  0  0
  1 10  1  0  0  0  0
  2  1  1  0  0  0  0
  2 25  1  0  0  0  0
  3  5  1  0  0  0  0
  4  2  1  0  0  0  0
  4  3  1  0  0  0  0
  5  1  2  0  0  0  0
  5 26  1  0  0  0  0
  6  3  2  0  0  0  0
  6 27  1  0  0  0  0
  7  4  2  0  0  0  0
  7 28  1  0  0  0  0
  8  6  1  0  0  0  0
  8  9  2  0  0  0  0
  8 29  1  0  0  0  0
  9  7  1  0  0  0  0
  9 30  1  0  0  0  0
 10 15  1  0  0  0  0
 11 10  1  0  0  0  0
 12 10  1  0  0  0  0
 13 10  1  0  0  0  0
 14 10  1  0  0  0  0
 16 15  1  0  0  0  0
 16 31  1  0  0  0  0
 17 19  1  0  0  0  0
 18 16  1  0  0  0  0
 18 17  1  0  0  0  0
 19 15  2  0  0  0  0
 19 32  1  0  0  0  0
 20 17  2  0  0  0  0
 20 33  1  0  0  0  0
 21 18  2  0  0  0  0
 21 34  1  0  0  0  0
 22 20  1  0  0  0  0
 22 23  2  0  0  0  0
 22 35  1  0  0  0  0
 23 21  1  0  0  0  0
 23 36  1  0  0  0  0
M  CHG  1  24   1
M  END
>  <DRUGBANK_ID>
DB17145

>  <COMMON_NAME>
IT-139

>  <CAS_NUMBER>
197723-00-5

>  <UNII>
7OSJ9KS483

>  <SYNONYMS>
Ruthenate(1-), tetrachlorobis(1h-indazole-.kappa.n2)-, sodium (1:1), (oc-6-11)-; Sodium hydride; tetrachloro-bis(1h-indazol-2-yl)ruthenium; Sodium Trans-[Tetrachlorobis(1H-Indazole)Ruthenate(iii)]

$$$$
