
 OpenBabel10282417072D

100104  0  0  1  0  0  0  0  0999 V2000
   -1.4289   -1.6500    0.0000 C   0  0  0  0  0  0  0  0  0  0  0  0
   -0.7145   -1.2375    0.0000 C   0  0  0  0  0  0  0  0  0  0  0  0
    0.0000   -1.6500    0.0000 N   0  0  0  0  0  0  0  0  0  0  0  0
    0.7145   -1.2375    0.0000 C   0  0  0  0  0  0  0  0  0  0  0  0
    0.7145   -0.4125    0.0000 C   0  0  0  0  0  0  0  0  0  0  0  0
    1.4289   -0.0000    0.0000 C   0  0  0  0  0  0  0  0  0  0  0  0
    2.1434   -0.4125    0.0000 C   0  0  0  0  0  0  0  0  0  0  0  0
    2.1434   -1.2375    0.0000 C   0  0  0  0  0  0  0  0  0  0  0  0
    1.4289   -1.6500    0.0000 C   0  0  0  0  0  0  0  0  0  0  0  0
    1.4289   -2.4750    0.0000 O   0  0  0  0  0  0  0  0  0  0  0  0
    0.7145   -2.8875    0.0000 C   0  0  0  0  0  0  0  0  0  0  0  0
    0.7145   -3.7125    0.0000 C   0  0  0  0  0  0  0  0  0  0  0  0
    1.4289   -4.1250    0.0000 C   0  0  0  0  0  0  0  0  0  0  0  0
    2.1434   -3.7125    0.0000 Cl  0  0  0  0  0  0  0  0  0  0  0  0
    1.4289   -4.9500    0.0000 C   0  0  0  0  0  0  0  0  0  0  0  0
    0.7145   -5.3625    0.0000 C   0  0  0  0  0  0  0  0  0  0  0  0
    0.0000   -4.9500    0.0000 C   0  0  0  0  0  0  0  0  0  0  0  0
    0.0000   -4.1250    0.0000 C   0  0  0  0  0  0  0  0  0  0  0  0
   -0.7145   -3.7125    0.0000 Cl  0  0  0  0  0  0  0  0  0  0  0  0
   -0.7145   -5.3625    0.0000 S   0  0  0  0  0  0  0  0  0  0  0  0
   -1.1270   -4.6480    0.0000 O   0  0  0  0  0  0  0  0  0  0  0  0
   -0.3020   -6.0770    0.0000 O   0  0  0  0  0  0  0  0  0  0  0  0
   -1.4289   -5.7750    0.0000 N   0  0  0  0  0  0  0  0  0  0  0  0
   -1.4289   -6.6000    0.0000 C   0  0  0  0  0  0  0  0  0  0  0  0
   -1.7111   -7.3752    0.0000 C   0  0  0  0  0  0  0  0  0  0  0  0
   -1.1808   -8.0072    0.0000 C   0  0  0  0  0  0  0  0  0  0  0  0
   -0.3683   -7.8640    0.0000 O   0  0  0  0  0  0  0  0  0  0  0  0
   -0.0862   -7.0887    0.0000 C   0  0  0  0  0  0  0  0  0  0  0  0
   -0.6165   -6.4567    0.0000 C   0  0  0  0  0  0  0  0  0  0  0  0
   -2.2414   -6.4567    0.0000 C   0  0  0  0  0  0  0  0  0  0  0  0
   -2.5236   -5.6815    0.0000 O   0  0  0  0  0  0  0  0  0  0  0  0
   -2.7717   -7.0887    0.0000 N   0  0  0  0  0  0  0  0  0  0  0  0
   -2.4895   -7.8640    0.0000 C   0  0  0  0  0  0  0  0  0  0  0  0
   -3.0198   -8.4960    0.0000 C   0  0  0  0  0  0  0  0  0  0  0  0
   -3.8323   -8.3527    0.0000 N   0  0  0  0  0  0  0  0  0  0  0  0
   -4.1145   -7.5775    0.0000 C   0  0  0  0  0  0  0  0  0  0  0  0
   -3.5842   -6.9455    0.0000 C   0  0  0  0  0  0  0  0  0  0  0  0
   -4.3626   -8.9847    0.0000 C   0  0  0  0  0  0  0  0  0  0  0  0
   -5.1751   -8.8414    0.0000 O   0  0  0  0  0  0  0  0  0  0  0  0
   -4.0804   -9.7599    0.0000 C   0  0  1  0  0  0  0  0  0  0  0  0
   -3.2680   -9.9032    0.0000 N   0  0  0  0  0  0  0  0  0  0  0  0
   -4.6107  -10.3919    0.0000 C   0  0  0  0  0  0  0  0  0  0  0  0
   -4.3286  -11.1672    0.0000 C   0  0  0  0  0  0  0  0  0  0  0  0
   -4.8589  -11.7992    0.0000 C   0  0  0  0  0  0  0  0  0  0  0  0
   -4.5767  -12.5744    0.0000 N   0  3  0  0  0  0  0  0  0  0  0  0
   -4.2945  -13.3496    0.0000 C   0  0  0  0  0  0  0  0  0  0  0  0
   -5.3520  -12.8566    0.0000 C   0  0  0  0  0  0  0  0  0  0  0  0
   -3.8015  -12.2922    0.0000 C   0  0  0  0  0  0  0  0  0  0  0  0
    0.0000   -0.0000    0.0000 C   0  0  0  0  0  0  0  0  0  0  0  0
    0.0000    0.8250    0.0000 C   0  0  0  0  0  0  0  0  0  0  0  0
   -0.7145   -0.4125    0.0000 C   0  0  0  0  0  0  0  0  0  0  0  0
   -2.3556   -1.1150    0.0000 H   0  0  0  0  0  0  0  0  0  0  0  0
   -1.4289   -2.7200    0.0000 H   0  0  0  0  0  0  0  0  0  0  0  0
   -2.3555   -2.1850    0.0000 H   0  0  0  0  0  0  0  0  0  0  0  0
    1.4289    1.0320    0.0000 H   0  0  0  0  0  0  0  0  0  0  0  0
    3.0371    0.1035    0.0000 H   0  0  0  0  0  0  0  0  0  0  0  0
    3.0371   -1.7535    0.0000 H   0  0  0  0  0  0  0  0  0  0  0  0
   -0.2122   -2.3525    0.0000 H   0  0  0  0  0  0  0  0  0  0  0  0
   -0.2121   -3.4225    0.0000 H   0  0  0  0  0  0  0  0  0  0  0  0
    2.3226   -5.4660    0.0000 H   0  0  0  0  0  0  0  0  0  0  0  0
    0.7145   -6.3945    0.0000 H   0  0  0  0  0  0  0  0  0  0  0  0
   -2.3123   -5.2650    0.0000 H   0  0  0  0  0  0  0  0  0  0  0  0
   -2.7649   -7.5610    0.0000 H   0  0  0  0  0  0  0  0  0  0  0  0
   -2.0771   -8.3807    0.0000 H   0  0  0  0  0  0  0  0  0  0  0  0
   -1.5468   -9.0127    0.0000 H   0  0  0  0  0  0  0  0  0  0  0  0
   -0.4931   -8.8269    0.0000 H   0  0  0  0  0  0  0  0  0  0  0  0
    0.9675   -6.9029    0.0000 H   0  0  0  0  0  0  0  0  0  0  0  0
    0.2797   -6.0832    0.0000 H   0  0  0  0  0  0  0  0  0  0  0  0
   -0.2506   -5.4512    0.0000 H   0  0  0  0  0  0  0  0  0  0  0  0
   -1.3043   -5.6371    0.0000 H   0  0  0  0  0  0  0  0  0  0  0  0
   -1.4358   -8.0498    0.0000 H   0  0  0  0  0  0  0  0  0  0  0  0
   -2.1235   -8.8695    0.0000 H   0  0  0  0  0  0  0  0  0  0  0  0
   -2.6539   -9.5015    0.0000 H   0  0  0  0  0  0  0  0  0  0  0  0
   -3.7076   -9.3156    0.0000 H   0  0  0  0  0  0  0  0  0  0  0  0
   -5.1683   -7.3917    0.0000 H   0  0  0  0  0  0  0  0  0  0  0  0
   -4.4805   -6.5720    0.0000 H   0  0  0  0  0  0  0  0  0  0  0  0
   -3.9502   -5.9400    0.0000 H   0  0  0  0  0  0  0  0  0  0  0  0
   -2.8965   -6.1258    0.0000 H   0  0  0  0  0  0  0  0  0  0  0  0
   -3.3926   -8.9402    0.0000 H   0  0  0  0  0  0  0  0  0  0  0  0
   -2.9192  -10.8617    0.0000 H   0  0  0  0  0  0  0  0  0  0  0  0
   -2.6123   -9.1219    0.0000 H   0  0  0  0  0  0  0  0  0  0  0  0
   -5.6644  -10.2061    0.0000 H   0  0  0  0  0  0  0  0  0  0  0  0
   -5.2985  -11.2115    0.0000 H   0  0  0  0  0  0  0  0  0  0  0  0
   -3.2749  -11.3530    0.0000 H   0  0  0  0  0  0  0  0  0  0  0  0
   -3.9627  -12.1727    0.0000 H   0  0  0  0  0  0  0  0  0  0  0  0
   -5.9127  -11.6134    0.0000 H   0  0  0  0  0  0  0  0  0  0  0  0
   -5.5466  -12.6189    0.0000 H   0  0  0  0  0  0  0  0  0  0  0  0
   -4.9822  -14.1693    0.0000 H   0  0  0  0  0  0  0  0  0  0  0  0
   -3.2407  -13.5353    0.0000 H   0  0  0  0  0  0  0  0  0  0  0  0
   -3.9285  -14.3551    0.0000 H   0  0  0  0  0  0  0  0  0  0  0  0
   -6.1717  -12.1688    0.0000 H   0  0  0  0  0  0  0  0  0  0  0  0
   -5.5378  -13.9103    0.0000 H   0  0  0  0  0  0  0  0  0  0  0  0
   -6.3575  -13.2226    0.0000 H   0  0  0  0  0  0  0  0  0  0  0  0
   -2.9818  -12.9799    0.0000 H   0  0  0  0  0  0  0  0  0  0  0  0
   -3.6158  -11.2384    0.0000 H   0  0  0  0  0  0  0  0  0  0  0  0
   -2.7960  -11.9262    0.0000 H   0  0  0  0  0  0  0  0  0  0  0  0
    0.9266    1.3600    0.0000 H   0  0  0  0  0  0  0  0  0  0  0  0
   -0.9266    1.3600    0.0000 H   0  0  0  0  0  0  0  0  0  0  0  0
   -0.0000    1.8950    0.0000 H   0  0  0  0  0  0  0  0  0  0  0  0
   -1.6082    0.1035    0.0000 H   0  0  0  0  0  0  0  0  0  0  0  0
  1  2  1  0  0  0  0
  1 52  1  0  0  0  0
  1 53  1  0  0  0  0
  1 54  1  0  0  0  0
  2  3  2  0  0  0  0
  2 51  1  0  0  0  0
  3  4  1  0  0  0  0
  4  5  2  0  0  0  0
  4  9  1  0  0  0  0
  5  6  1  0  0  0  0
  5 49  1  0  0  0  0
  6  7  2  0  0  0  0
  6 55  1  0  0  0  0
  7  8  1  0  0  0  0
  7 56  1  0  0  0  0
  8  9  2  0  0  0  0
  8 57  1  0  0  0  0
  9 10  1  0  0  0  0
 10 11  1  0  0  0  0
 11 12  1  0  0  0  0
 11 58  1  0  0  0  0
 11 59  1  0  0  0  0
 12 13  2  0  0  0  0
 12 18  1  0  0  0  0
 13 14  1  0  0  0  0
 13 15  1  0  0  0  0
 15 16  2  0  0  0  0
 15 60  1  0  0  0  0
 16 17  1  0  0  0  0
 16 61  1  0  0  0  0
 17 18  2  0  0  0  0
 17 20  1  0  0  0  0
 18 19  1  0  0  0  0
 20 21  2  0  0  0  0
 20 22  2  0  0  0  0
 20 23  1  0  0  0  0
 23 24  1  0  0  0  0
 23 62  1  0  0  0  0
 24 25  1  0  0  0  0
 24 29  1  0  0  0  0
 24 30  1  0  0  0  0
 25 26  1  0  0  0  0
 25 63  1  0  0  0  0
 25 64  1  0  0  0  0
 26 27  1  0  0  0  0
 26 65  1  0  0  0  0
 26 66  1  0  0  0  0
 27 28  1  0  0  0  0
 28 29  1  0  0  0  0
 28 67  1  0  0  0  0
 28 68  1  0  0  0  0
 29 69  1  0  0  0  0
 29 70  1  0  0  0  0
 30 31  2  0  0  0  0
 30 32  1  0  0  0  0
 32 33  1  0  0  0  0
 32 37  1  0  0  0  0
 33 34  1  0  0  0  0
 33 71  1  0  0  0  0
 33 72  1  0  0  0  0
 34 35  1  0  0  0  0
 34 73  1  0  0  0  0
 34 74  1  0  0  0  0
 35 36  1  0  0  0  0
 35 38  1  0  0  0  0
 36 37  1  0  0  0  0
 36 75  1  0  0  0  0
 36 76  1  0  0  0  0
 37 77  1  0  0  0  0
 37 78  1  0  0  0  0
 38 39  2  0  0  0  0
 40 38  1  0  0  0  0
 40 41  1  0  0  0  0
 40 42  1  0  0  0  0
 40 79  1  6  0  0  0
 41 80  1  0  0  0  0
 41 81  1  0  0  0  0
 42 43  1  0  0  0  0
 42 82  1  0  0  0  0
 42 83  1  0  0  0  0
 43 44  1  0  0  0  0
 43 84  1  0  0  0  0
 43 85  1  0  0  0  0
 44 45  1  0  0  0  0
 44 86  1  0  0  0  0
 44 87  1  0  0  0  0
 45 46  1  0  0  0  0
 45 47  1  0  0  0  0
 45 48  1  0  0  0  0
 46 88  1  0  0  0  0
 46 89  1  0  0  0  0
 46 90  1  0  0  0  0
 47 91  1  0  0  0  0
 47 92  1  0  0  0  0
 47 93  1  0  0  0  0
 48 94  1  0  0  0  0
 48 95  1  0  0  0  0
 48 96  1  0  0  0  0
 49 50  1  0  0  0  0
 49 51  2  0  0  0  0
 50 97  1  0  0  0  0
 50 98  1  0  0  0  0
 50 99  1  0  0  0  0
 51100  1  0  0  0  0
M  CHG  1  45   1
M  END
>  <DRUGBANK_ID>
DB15646

>  <COMMON_NAME>
Fasitibant

>  <CAS_NUMBER>
869939-83-3

>  <UNII>
0WL827Z7AE

>  <SYNONYMS>
1-piperazinepentanaminium, .delta.-amino-4-((4-(((2,4-dichloro-3-(((2,4-dimethyl-8-quinolinyl)oxy)methyl)phenyl)sulfonyl)amino)tetrahydro-2h-pyran-4-yl)carbonyl)-n,n,n-trimethyl-.epsilon.-oxo-, (.delta.s)-; Fasitibant cation; Fasitibant ion

$$$$
