
 OpenBabel10282417072D

 81 84  0  0  0  0  0  0  0  0999 V2000
   -6.3822   -0.4136    0.0000 C   0  0  0  0  0  0  0  0  0  0  0  0
   -6.3822    0.4113    0.0000 C   0  0  0  0  0  0  0  0  0  0  0  0
   -5.6677    0.8239    0.0000 C   0  0  0  0  0  0  0  0  0  0  0  0
   -4.9531    0.4113    0.0000 C   0  0  0  0  0  0  0  0  0  0  0  0
   -4.9531   -0.4136    0.0000 C   0  0  0  0  0  0  0  0  0  0  0  0
   -5.6677   -0.8262    0.0000 C   0  0  0  0  0  0  0  0  0  0  0  0
   -4.2386    0.8239    0.0000 C   0  0  0  0  0  0  0  0  0  0  0  0
   -3.5241    0.4113    0.0000 C   0  0  0  0  0  0  0  0  0  0  0  0
   -3.5241   -0.4136    0.0000 C   0  0  1  0  0  0  0  0  0  0  0  0
   -4.2386   -0.8262    0.0000 C   0  0  1  0  0  0  0  0  0  0  0  0
   -2.8095    0.8239    0.0000 C   0  0  0  0  0  0  0  0  0  0  0  0
   -2.0950    0.4113    0.0000 C   0  0  1  0  0  0  0  0  0  0  0  0
   -2.0950   -0.4136    0.0000 C   0  0  1  0  0  0  0  0  0  0  0  0
   -2.8095   -0.8262    0.0000 C   0  0  0  0  0  0  0  0  0  0  0  0
   -1.3805    0.8239    0.0000 C   0  0  0  0  0  0  0  0  0  0  0  0
   -0.6658    0.4113    0.0000 C   0  0  0  0  0  0  0  0  0  0  0  0
   -0.6658   -0.4136    0.0000 C   0  0  0  0  0  0  0  0  0  0  0  0
   -1.3805   -0.8262    0.0000 C   0  0  1  0  0  0  0  0  0  0  0  0
   -5.6677    1.6488    0.0000 O   0  0  0  0  0  0  0  0  0  0  0  0
   -4.2386    1.6489    0.0000 O   0  0  0  0  0  0  0  0  0  0  0  0
   -2.8095    1.6488    0.0000 O   0  0  0  0  0  0  0  0  0  0  0  0
   -1.3805    1.6489    0.0000 O   0  0  0  0  0  0  0  0  0  0  0  0
    0.0619   -0.8341    0.0000 O   0  0  0  0  0  0  0  0  0  0  0  0
    0.0619    0.8318    0.0000 C   0  0  0  0  0  0  0  0  0  0  0  0
    0.7735    0.4211    0.0000 N   0  0  0  0  0  0  0  0  0  0  0  0
    0.0617    1.6489    0.0000 O   0  0  0  0  0  0  0  0  0  0  0  0
    1.4695    0.8233    0.0000 C   0  0  0  0  0  0  0  0  0  0  0  0
    2.1736    0.4167    0.0000 N   0  0  0  0  0  0  0  0  0  0  0  0
    2.8735    0.8210    0.0000 C   0  0  0  0  0  0  0  0  0  0  0  0
    3.5756    0.4156    0.0000 C   0  0  0  0  0  0  0  0  0  0  0  0
    4.2764    0.8205    0.0000 C   0  0  0  0  0  0  0  0  0  0  0  0
    4.9781    0.4153    0.0000 C   0  0  0  0  0  0  0  0  0  0  0  0
    5.6791    0.8203    0.0000 C   0  0  2  0  0  0  0  0  0  0  0  0
    6.3807    0.4153    0.0000 N   0  0  0  0  0  0  0  0  0  0  0  0
    5.6791    1.6488    0.0000 C   0  0  0  0  0  0  0  0  0  0  0  0
    4.9532    2.0682    0.0000 O   0  0  0  0  0  0  0  0  0  0  0  0
    6.3822    2.0549    0.0000 O   0  0  0  0  0  0  0  0  0  0  0  0
   -4.2386   -1.6512    0.0000 C   0  0  0  0  0  0  0  0  0  0  0  0
   -4.9520   -1.2380    0.0000 O   0  0  0  0  0  0  0  0  0  0  0  0
   -3.5295   -1.2380    0.0000 H   0  0  0  0  0  0  0  0  0  0  0  0
   -2.0950   -1.2387    0.0000 H   0  0  0  0  0  0  0  0  0  0  0  0
   -1.3805   -1.6512    0.0000 N   0  0  0  0  0  0  0  0  0  0  0  0
   -2.1026   -2.0682    0.0000 C   0  0  0  0  0  0  0  0  0  0  0  0
   -0.6735   -2.0595    0.0000 C   0  0  0  0  0  0  0  0  0  0  0  0
   -2.0950    1.2364    0.0000 O   0  0  0  0  0  0  0  0  0  0  0  0
   -7.2760   -0.9296    0.0000 H   0  0  0  0  0  0  0  0  0  0  0  0
   -7.2760    0.9273    0.0000 H   0  0  0  0  0  0  0  0  0  0  0  0
   -5.6677   -1.8582    0.0000 H   0  0  0  0  0  0  0  0  0  0  0  0
   -2.8095   -1.8962    0.0000 H   0  0  0  0  0  0  0  0  0  0  0  0
   -3.7361   -1.3612    0.0000 H   0  0  0  0  0  0  0  0  0  0  0  0
   -0.4539   -1.3612    0.0000 H   0  0  0  0  0  0  0  0  0  0  0  0
   -4.8562    2.1173    0.0000 H   0  0  0  0  0  0  0  0  0  0  0  0
   -1.9980    2.1173    0.0000 H   0  0  0  0  0  0  0  0  0  0  0  0
    0.0616   -1.7711    0.0000 H   0  0  0  0  0  0  0  0  0  0  0  0
    0.7738   -0.5634    0.0000 H   0  0  0  0  0  0  0  0  0  0  0  0
    1.4693    1.8933    0.0000 H   0  0  0  0  0  0  0  0  0  0  0  0
    2.3961    1.3583    0.0000 H   0  0  0  0  0  0  0  0  0  0  0  0
    2.1737   -0.6033    0.0000 H   0  0  0  0  0  0  0  0  0  0  0  0
    2.8734    1.8910    0.0000 H   0  0  0  0  0  0  0  0  0  0  0  0
    3.8001    1.3560    0.0000 H   0  0  0  0  0  0  0  0  0  0  0  0
    3.5757   -0.6544    0.0000 H   0  0  0  0  0  0  0  0  0  0  0  0
    4.5024   -0.1192    0.0000 H   0  0  0  0  0  0  0  0  0  0  0  0
    4.2763    1.8905    0.0000 H   0  0  0  0  0  0  0  0  0  0  0  0
    5.2030    1.3555    0.0000 H   0  0  0  0  0  0  0  0  0  0  0  0
    4.9782   -0.6547    0.0000 H   0  0  0  0  0  0  0  0  0  0  0  0
    5.9049   -0.1195    0.0000 H   0  0  0  0  0  0  0  0  0  0  0  0
    4.7524    1.3552    0.0000 H   0  0  0  0  0  0  0  0  0  0  0  0
    6.3808   -0.6047    0.0000 H   0  0  0  0  0  0  0  0  0  0  0  0
    7.2640    0.9254    0.0000 H   0  0  0  0  0  0  0  0  0  0  0  0
    7.1937    1.5865    0.0000 H   0  0  0  0  0  0  0  0  0  0  0  0
   -5.1652   -2.1862    0.0000 H   0  0  0  0  0  0  0  0  0  0  0  0
   -3.3120   -2.1862    0.0000 H   0  0  0  0  0  0  0  0  0  0  0  0
   -4.2386   -2.7212    0.0000 H   0  0  0  0  0  0  0  0  0  0  0  0
   -5.7920   -0.7529    0.0000 H   0  0  0  0  0  0  0  0  0  0  0  0
   -3.0293   -1.5333    0.0000 H   0  0  0  0  0  0  0  0  0  0  0  0
   -2.1025   -3.1382    0.0000 H   0  0  0  0  0  0  0  0  0  0  0  0
   -3.0292   -2.6033    0.0000 H   0  0  0  0  0  0  0  0  0  0  0  0
   -0.6736   -3.1295    0.0000 H   0  0  0  0  0  0  0  0  0  0  0  0
    0.2532   -1.5246    0.0000 H   0  0  0  0  0  0  0  0  0  0  0  0
    0.2531   -2.5946    0.0000 H   0  0  0  0  0  0  0  0  0  0  0  0
   -1.2550    1.7214    0.0000 H   0  0  0  0  0  0  0  0  0  0  0  0
  1  2  2  0  0  0  0
  1  6  1  0  0  0  0
  1 46  1  0  0  0  0
  2  3  1  0  0  0  0
  2 47  1  0  0  0  0
  3  4  2  0  0  0  0
  3 19  1  0  0  0  0
  4  5  1  0  0  0  0
  4  7  1  0  0  0  0
  5  6  2  0  0  0  0
  5 10  1  0  0  0  0
  6 48  1  0  0  0  0
  7  8  1  0  0  0  0
  7 20  2  0  0  0  0
  8  9  1  0  0  0  0
  8 11  2  0  0  0  0
  9 10  1  0  0  0  0
  9 14  1  0  0  0  0
  9 40  1  1  0  0  0
 10 38  1  0  0  0  0
 10 39  1  6  0  0  0
 11 12  1  0  0  0  0
 11 21  1  0  0  0  0
 12 13  1  0  0  0  0
 12 15  1  0  0  0  0
 12 45  1  1  0  0  0
 13 14  1  0  0  0  0
 13 18  1  0  0  0  0
 13 41  1  1  0  0  0
 14 49  1  0  0  0  0
 14 50  1  0  0  0  0
 15 16  1  0  0  0  0
 15 22  2  0  0  0  0
 16 17  2  0  0  0  0
 16 24  1  0  0  0  0
 17 18  1  0  0  0  0
 17 23  1  0  0  0  0
 18 42  1  0  0  0  0
 18 51  1  6  0  0  0
 19 52  1  0  0  0  0
 21 53  1  0  0  0  0
 23 54  1  0  0  0  0
 24 25  1  0  0  0  0
 24 26  2  0  0  0  0
 25 27  1  0  0  0  0
 25 55  1  0  0  0  0
 27 28  1  0  0  0  0
 27 56  1  0  0  0  0
 27 57  1  0  0  0  0
 28 29  1  0  0  0  0
 28 58  1  0  0  0  0
 29 30  1  0  0  0  0
 29 59  1  0  0  0  0
 29 60  1  0  0  0  0
 30 31  1  0  0  0  0
 30 61  1  0  0  0  0
 30 62  1  0  0  0  0
 31 32  1  0  0  0  0
 31 63  1  0  0  0  0
 31 64  1  0  0  0  0
 32 33  1  0  0  0  0
 32 65  1  0  0  0  0
 32 66  1  0  0  0  0
 33 34  1  0  0  0  0
 33 35  1  0  0  0  0
 33 67  1  6  0  0  0
 34 68  1  0  0  0  0
 34 69  1  0  0  0  0
 35 36  2  0  0  0  0
 35 37  1  0  0  0  0
 37 70  1  0  0  0  0
 38 71  1  0  0  0  0
 38 72  1  0  0  0  0
 38 73  1  0  0  0  0
 39 74  1  0  0  0  0
 42 43  1  0  0  0  0
 42 44  1  0  0  0  0
 43 75  1  0  0  0  0
 43 76  1  0  0  0  0
 43 77  1  0  0  0  0
 44 78  1  0  0  0  0
 44 79  1  0  0  0  0
 44 80  1  0  0  0  0
 45 81  1  0  0  0  0
M  END
>  <DRUGBANK_ID>
DB00256

>  <SECONDARY_ACCESSION_NUMBERS>
APRD00565; EXPT01049

>  <COMMON_NAME>
Lymecycline

>  <CAS_NUMBER>
992-21-2

>  <UNII>
7D6EM3S13P

>  <SYNONYMS>
(+)-N-(5-Amino-5-carboxypentylaminomethyl)-4-dimethylamino-1,4,4a,5,5a,6,11,12a-octahydro-3,6,10,12,12a-pentahydroxy-6-methyl-1,11-dioxonaphthacene-2-carboxamide; Limeciclina; Lymecycline; Lymecyclinum; N-Lysinomethyltetracycline; N2-(((+)-5-Amino-5-carboxypentylamino)methyl)tetracycline; N6-((4-(Dimethylamino)-1,4,4a,5,5a,6,11,12a-octahydro-3,6,10,12,12a-pentahydroxy-6-methyl-1,11-dioxo-2-naphthacenecarboxamido)methyl)lysine; Tetracycline-L-methylene lysine; Tetracycline-L-methylenelysine

$$$$
