
 OpenBabel10282417072D

 52 55  0  0  0  0  0  0  0  0999 V2000
   -7.0522   -3.1636    0.0000 C   0  0  0  0  0  0  0  0  0  0  0  0
   -6.3378   -3.5761    0.0000 N   0  0  0  0  0  0  0  0  0  0  0  0
   -6.3378   -4.4011    0.0000 C   0  0  0  0  0  0  0  0  0  0  0  0
   -5.6233   -3.1636    0.0000 C   0  0  0  0  0  0  0  0  0  0  0  0
   -4.9088   -3.5761    0.0000 C   0  0  0  0  0  0  0  0  0  0  0  0
   -4.1943   -3.1636    0.0000 C   0  0  0  0  0  0  0  0  0  0  0  0
   -3.4799   -3.5761    0.0000 O   0  0  0  0  0  0  0  0  0  0  0  0
   -2.7654   -3.1636    0.0000 C   0  0  0  0  0  0  0  0  0  0  0  0
   -2.7654   -2.3386    0.0000 C   0  0  0  0  0  0  0  0  0  0  0  0
   -2.0509   -1.9261    0.0000 C   0  0  0  0  0  0  0  0  0  0  0  0
   -1.3365   -2.3386    0.0000 C   0  0  0  0  0  0  0  0  0  0  0  0
   -1.3365   -3.1636    0.0000 C   0  0  0  0  0  0  0  0  0  0  0  0
   -2.0509   -3.5761    0.0000 C   0  0  0  0  0  0  0  0  0  0  0  0
   -0.5518   -3.4186    0.0000 C   0  0  0  0  0  0  0  0  0  0  0  0
   -0.0669   -2.7511    0.0000 N   0  0  0  0  0  0  0  0  0  0  0  0
   -0.5518   -2.0837    0.0000 N   0  0  0  0  0  0  0  0  0  0  0  0
   -0.2969   -4.2032    0.0000 S   0  0  0  0  0  0  0  0  0  0  0  0
   -1.0815   -4.4581    0.0000 O   0  0  0  0  0  0  0  0  0  0  0  0
    0.4877   -3.9482    0.0000 O   0  0  0  0  0  0  0  0  0  0  0  0
   -0.0420   -4.9878    0.0000 C   0  0  0  0  0  0  0  0  0  0  0  0
   -0.5940   -5.6009    0.0000 C   0  0  0  0  0  0  0  0  0  0  0  0
   -0.3391   -6.3855    0.0000 C   0  0  0  0  0  0  0  0  0  0  0  0
    0.4679   -6.5571    0.0000 C   0  0  0  0  0  0  0  0  0  0  0  0
    1.0199   -5.9440    0.0000 C   0  0  0  0  0  0  0  0  0  0  0  0
    0.7650   -5.1593    0.0000 C   0  0  0  0  0  0  0  0  0  0  0  0
    1.3170   -4.5462    0.0000 C   0  0  0  0  0  0  0  0  0  0  0  0
    2.1240   -4.7178    0.0000 C   0  0  0  0  0  0  0  0  0  0  0  0
    2.3790   -5.5024    0.0000 C   0  0  0  0  0  0  0  0  0  0  0  0
    1.8269   -6.1155    0.0000 C   0  0  0  0  0  0  0  0  0  0  0  0
   -7.0522   -2.0936    0.0000 H   0  0  0  0  0  0  0  0  0  0  0  0
   -7.9789   -3.6986    0.0000 H   0  0  0  0  0  0  0  0  0  0  0  0
   -7.9788   -2.6286    0.0000 H   0  0  0  0  0  0  0  0  0  0  0  0
   -7.2644   -4.9361    0.0000 H   0  0  0  0  0  0  0  0  0  0  0  0
   -5.4112   -4.9361    0.0000 H   0  0  0  0  0  0  0  0  0  0  0  0
   -6.3378   -5.4711    0.0000 H   0  0  0  0  0  0  0  0  0  0  0  0
   -5.6233   -2.0936    0.0000 H   0  0  0  0  0  0  0  0  0  0  0  0
   -4.6967   -2.6286    0.0000 H   0  0  0  0  0  0  0  0  0  0  0  0
   -4.9088   -4.6461    0.0000 H   0  0  0  0  0  0  0  0  0  0  0  0
   -3.9822   -4.1111    0.0000 H   0  0  0  0  0  0  0  0  0  0  0  0
   -4.1943   -2.0936    0.0000 H   0  0  0  0  0  0  0  0  0  0  0  0
   -3.2676   -2.6286    0.0000 H   0  0  0  0  0  0  0  0  0  0  0  0
   -3.6591   -1.8226    0.0000 H   0  0  0  0  0  0  0  0  0  0  0  0
   -2.0509   -0.8941    0.0000 H   0  0  0  0  0  0  0  0  0  0  0  0
   -2.0509   -4.6081    0.0000 H   0  0  0  0  0  0  0  0  0  0  0  0
   -0.2475   -1.1474    0.0000 H   0  0  0  0  0  0  0  0  0  0  0  0
   -1.6034   -5.3863    0.0000 H   0  0  0  0  0  0  0  0  0  0  0  0
   -1.0297   -7.1524    0.0000 H   0  0  0  0  0  0  0  0  0  0  0  0
    0.7868   -7.5386    0.0000 H   0  0  0  0  0  0  0  0  0  0  0  0
    0.9981   -3.5647    0.0000 H   0  0  0  0  0  0  0  0  0  0  0  0
    2.8145   -3.9509    0.0000 H   0  0  0  0  0  0  0  0  0  0  0  0
    3.3885   -5.7170    0.0000 H   0  0  0  0  0  0  0  0  0  0  0  0
    2.1458   -7.0970    0.0000 H   0  0  0  0  0  0  0  0  0  0  0  0
  1  2  1  0  0  0  0
  1 30  1  0  0  0  0
  1 31  1  0  0  0  0
  1 32  1  0  0  0  0
  2  3  1  0  0  0  0
  2  4  1  0  0  0  0
  3 33  1  0  0  0  0
  3 34  1  0  0  0  0
  3 35  1  0  0  0  0
  4  5  1  0  0  0  0
  4 36  1  0  0  0  0
  4 37  1  0  0  0  0
  5  6  1  0  0  0  0
  5 38  1  0  0  0  0
  5 39  1  0  0  0  0
  6  7  1  0  0  0  0
  6 40  1  0  0  0  0
  6 41  1  0  0  0  0
  7  8  1  0  0  0  0
  8  9  2  0  0  0  0
  8 13  1  0  0  0  0
  9 10  1  0  0  0  0
  9 42  1  0  0  0  0
 10 11  2  0  0  0  0
 10 43  1  0  0  0  0
 11 12  1  0  0  0  0
 11 16  1  0  0  0  0
 12 13  2  0  0  0  0
 12 14  1  0  0  0  0
 13 44  1  0  0  0  0
 14 15  2  0  0  0  0
 14 17  1  0  0  0  0
 15 16  1  0  0  0  0
 16 45  1  0  0  0  0
 17 18  2  0  0  0  0
 17 19  2  0  0  0  0
 17 20  1  0  0  0  0
 20 21  1  0  0  0  0
 20 25  2  0  0  0  0
 21 22  2  0  0  0  0
 21 46  1  0  0  0  0
 22 23  1  0  0  0  0
 22 47  1  0  0  0  0
 23 24  2  0  0  0  0
 23 48  1  0  0  0  0
 24 25  1  0  0  0  0
 24 29  1  0  0  0  0
 25 26  1  0  0  0  0
 26 27  2  0  0  0  0
 26 49  1  0  0  0  0
 27 28  1  0  0  0  0
 27 50  1  0  0  0  0
 28 29  2  0  0  0  0
 28 51  1  0  0  0  0
 29 52  1  0  0  0  0
M  END
>  <DRUGBANK_ID>
DB12229

>  <COMMON_NAME>
Cerlapirdine

>  <CAS_NUMBER>
925448-93-7

>  <UNII>
EK40PJ0V49

>  <SYNONYMS>
Cerlapirdine

$$$$
