
 OpenBabel10282417072D

 35 38  0  0  0  0  0  0  0  0999 V2000
   -0.7145   -1.2375    0.0000 C   0  0  0  0  0  0  0  0  0  0  0  0
    0.0000   -1.6500    0.0000 C   0  0  0  0  0  0  0  0  0  0  0  0
    0.7145   -1.2375    0.0000 C   0  0  0  0  0  0  0  0  0  0  0  0
    0.7145   -0.4125    0.0000 C   0  0  0  0  0  0  0  0  0  0  0  0
    0.0000   -0.0000    0.0000 C   0  0  0  0  0  0  0  0  0  0  0  0
   -0.7145   -0.4125    0.0000 C   0  0  0  0  0  0  0  0  0  0  0  0
   -1.4289    0.0000    0.0000 C   0  0  0  0  0  0  0  0  0  0  0  0
   -1.4289    0.8250    0.0000 C   0  0  0  0  0  0  0  0  0  0  0  0
   -2.0964    1.3099    0.0000 C   0  0  0  0  0  0  0  0  0  0  0  0
   -2.8810    1.0550    0.0000 O   0  0  0  0  0  0  0  0  0  0  0  0
   -1.8414    2.0945    0.0000 N   0  0  0  0  0  0  0  0  0  0  0  0
   -1.0164    2.0945    0.0000 C   0  0  0  0  0  0  0  0  0  0  0  0
   -0.5315    2.7620    0.0000 O   0  0  0  0  0  0  0  0  0  0  0  0
   -0.7615    1.3099    0.0000 S   0  0  0  0  0  0  0  0  0  0  0  0
    1.4289   -0.0000    0.0000 C   0  0  0  0  0  0  0  0  0  0  0  0
    2.1434   -0.4125    0.0000 C   0  0  0  0  0  0  0  0  0  0  0  0
    2.1434   -1.2375    0.0000 C   0  0  0  0  0  0  0  0  0  0  0  0
    1.4289   -1.6500    0.0000 N   0  0  0  0  0  0  0  0  0  0  0  0
    1.4289    0.8250    0.0000 C   0  0  0  0  0  0  0  0  0  0  0  0
    0.7145    1.2375    0.0000 C   0  0  0  0  0  0  0  0  0  0  0  0
    0.7145    2.0625    0.0000 C   0  0  0  0  0  0  0  0  0  0  0  0
    1.4289    2.4750    0.0000 N   0  0  0  0  0  0  0  0  0  0  0  0
    2.1434    2.0625    0.0000 C   0  0  0  0  0  0  0  0  0  0  0  0
    2.1434    1.2375    0.0000 C   0  0  0  0  0  0  0  0  0  0  0  0
   -1.6082   -1.7535    0.0000 H   0  0  0  0  0  0  0  0  0  0  0  0
    0.0000   -2.6820    0.0000 H   0  0  0  0  0  0  0  0  0  0  0  0
    0.0000    1.0320    0.0000 H   0  0  0  0  0  0  0  0  0  0  0  0
   -2.3226   -0.5160    0.0000 H   0  0  0  0  0  0  0  0  0  0  0  0
   -2.4200    2.8910    0.0000 H   0  0  0  0  0  0  0  0  0  0  0  0
    3.0371    0.1035    0.0000 H   0  0  0  0  0  0  0  0  0  0  0  0
    3.0371   -1.7535    0.0000 H   0  0  0  0  0  0  0  0  0  0  0  0
   -0.1792    0.7215    0.0000 H   0  0  0  0  0  0  0  0  0  0  0  0
   -0.1792    2.5785    0.0000 H   0  0  0  0  0  0  0  0  0  0  0  0
    3.0371    2.5785    0.0000 H   0  0  0  0  0  0  0  0  0  0  0  0
    3.0371    0.7215    0.0000 H   0  0  0  0  0  0  0  0  0  0  0  0
  1  2  1  0  0  0  0
  1  6  2  0  0  0  0
  1 25  1  0  0  0  0
  2  3  2  0  0  0  0
  2 26  1  0  0  0  0
  3  4  1  0  0  0  0
  3 18  1  0  0  0  0
  4  5  2  0  0  0  0
  4 15  1  0  0  0  0
  5  6  1  0  0  0  0
  5 27  1  0  0  0  0
  6  7  1  0  0  0  0
  7  8  2  0  0  0  0
  7 28  1  0  0  0  0
  8  9  1  0  0  0  0
  8 14  1  0  0  0  0
  9 10  2  0  0  0  0
  9 11  1  0  0  0  0
 11 12  1  0  0  0  0
 11 29  1  0  0  0  0
 12 13  2  0  0  0  0
 12 14  1  0  0  0  0
 15 16  2  0  0  0  0
 15 19  1  0  0  0  0
 16 17  1  0  0  0  0
 16 30  1  0  0  0  0
 17 18  2  0  0  0  0
 17 31  1  0  0  0  0
 19 20  2  0  0  0  0
 19 24  1  0  0  0  0
 20 21  1  0  0  0  0
 20 32  1  0  0  0  0
 21 22  2  0  0  0  0
 21 33  1  0  0  0  0
 22 23  1  0  0  0  0
 23 24  2  0  0  0  0
 23 34  1  0  0  0  0
 24 35  1  0  0  0  0
M  END
>  <DRUGBANK_ID>
DB11962

>  <COMMON_NAME>
GSK-1059615

>  <CAS_NUMBER>
958852-01-2

>  <UNII>
07YMO87363

$$$$
