
 OpenBabel10282417072D

 69 70  0  0  1  0  0  0  0  0999 V2000
    3.1957    7.9561    0.0000 C   0  0  0  0  0  0  0  0  0  0  0  0
    3.9101    7.5436    0.0000 C   0  0  0  0  0  0  0  0  0  0  0  0
    4.6246    7.9561    0.0000 C   0  0  0  0  0  0  0  0  0  0  0  0
    5.3391    7.5436    0.0000 C   0  0  0  0  0  0  0  0  0  0  0  0
    6.0536    7.9561    0.0000 C   0  0  0  0  0  0  0  0  0  0  0  0
    6.7680    7.5436    0.0000 C   0  0  0  0  0  0  0  0  0  0  0  0
    7.4825    7.9561    0.0000 C   0  0  0  0  0  0  0  0  0  0  0  0
    8.9114    7.9561    0.0000 C   0  0  0  0  0  0  0  0  0  0  0  0
   14.4413    6.4824    0.0000 C   0  0  0  0  0  0  0  0  0  0  0  0
   11.4836    7.8791    0.0000 C   0  0  0  0  0  0  0  0  0  0  0  0
    8.1970    7.5436    0.0000 C   0  0  2  0  0  0  0  0  0  0  0  0
    9.6259    7.5436    0.0000 C   0  0  2  0  0  0  0  0  0  0  0  0
   13.7738    6.9673    0.0000 C   0  0  2  0  0  0  0  0  0  0  0  0
   13.8601    7.7878    0.0000 C   0  0  2  0  0  0  0  0  0  0  0  0
    9.7121    6.7231    0.0000 C   0  0  2  0  0  0  0  0  0  0  0  0
   13.1926    8.2727    0.0000 C   0  0  1  0  0  0  0  0  0  0  0  0
   12.4390    7.9372    0.0000 C   0  0  2  0  0  0  0  0  0  0  0  0
   10.5191    6.5516    0.0000 C   0  0  1  0  0  0  0  0  0  0  0  0
   12.3527    7.1167    0.0000 C   0  0  2  0  0  0  0  0  0  0  0  0
   10.9316    7.2660    0.0000 C   0  0  2  0  0  0  0  0  0  0  0  0
   15.1950    6.8179    0.0000 O   0  0  0  0  0  0  0  0  0  0  0  0
   11.2287    8.6638    0.0000 O   0  0  0  0  0  0  0  0  0  0  0  0
    8.1970    6.7186    0.0000 O   0  0  0  0  0  0  0  0  0  0  0  0
   14.6138    8.1233    0.0000 O   0  0  0  0  0  0  0  0  0  0  0  0
    9.0990    6.1711    0.0000 O   0  0  0  0  0  0  0  0  0  0  0  0
   13.2789    9.0932    0.0000 O   0  0  0  0  0  0  0  0  0  0  0  0
   11.7715    8.4221    0.0000 O   0  0  0  0  0  0  0  0  0  0  0  0
   10.8547    5.7979    0.0000 O   0  0  0  0  0  0  0  0  0  0  0  0
   13.0202    6.6317    0.0000 O   0  0  0  0  0  0  0  0  0  0  0  0
   10.3796    7.8791    0.0000 O   0  0  0  0  0  0  0  0  0  0  0  0
   11.5991    6.7811    0.0000 O   0  0  0  0  0  0  0  0  0  0  0  0
    8.1970    8.3686    0.0000 H   0  0  0  0  0  0  0  0  0  0  0  0
    9.1294    6.8847    0.0000 H   0  0  0  0  0  0  0  0  0  0  0  0
   14.3673    7.5404    0.0000 H   0  0  0  0  0  0  0  0  0  0  0  0
   14.6531    7.5604    0.0000 H   0  0  0  0  0  0  0  0  0  0  0  0
    8.8873    6.7375    0.0000 H   0  0  0  0  0  0  0  0  0  0  0  0
   13.9463    8.6083    0.0000 H   0  0  0  0  0  0  0  0  0  0  0  0
   12.5252    8.7576    0.0000 H   0  0  0  0  0  0  0  0  0  0  0  0
    9.9999    5.9104    0.0000 H   0  0  0  0  0  0  0  0  0  0  0  0
   11.6853    7.6016    0.0000 H   0  0  0  0  0  0  0  0  0  0  0  0
    3.1957    9.0261    0.0000 H   0  0  0  0  0  0  0  0  0  0  0  0
    2.2690    7.4211    0.0000 H   0  0  0  0  0  0  0  0  0  0  0  0
    2.2691    8.4911    0.0000 H   0  0  0  0  0  0  0  0  0  0  0  0
    3.9101    6.4736    0.0000 H   0  0  0  0  0  0  0  0  0  0  0  0
    4.8367    7.0086    0.0000 H   0  0  0  0  0  0  0  0  0  0  0  0
    4.6246    9.0261    0.0000 H   0  0  0  0  0  0  0  0  0  0  0  0
    5.5512    8.4911    0.0000 H   0  0  0  0  0  0  0  0  0  0  0  0
    5.3391    6.4736    0.0000 H   0  0  0  0  0  0  0  0  0  0  0  0
    6.2657    7.0086    0.0000 H   0  0  0  0  0  0  0  0  0  0  0  0
    6.0536    9.0261    0.0000 H   0  0  0  0  0  0  0  0  0  0  0  0
    6.9803    8.4911    0.0000 H   0  0  0  0  0  0  0  0  0  0  0  0
    6.7680    6.4736    0.0000 H   0  0  0  0  0  0  0  0  0  0  0  0
    7.6946    7.0086    0.0000 H   0  0  0  0  0  0  0  0  0  0  0  0
    7.4825    9.0261    0.0000 H   0  0  0  0  0  0  0  0  0  0  0  0
    8.4091    8.4911    0.0000 H   0  0  0  0  0  0  0  0  0  0  0  0
    8.9114    9.0261    0.0000 H   0  0  0  0  0  0  0  0  0  0  0  0
    9.8380    8.4911    0.0000 H   0  0  0  0  0  0  0  0  0  0  0  0
   14.3294    5.4183    0.0000 H   0  0  0  0  0  0  0  0  0  0  0  0
   15.3069    5.8534    0.0000 H   0  0  0  0  0  0  0  0  0  0  0  0
   12.5302    7.6566    0.0000 H   0  0  0  0  0  0  0  0  0  0  0  0
   12.1996    8.6742    0.0000 H   0  0  0  0  0  0  0  0  0  0  0  0
   15.9797    6.2477    0.0000 H   0  0  0  0  0  0  0  0  0  0  0  0
   11.8778    9.3846    0.0000 H   0  0  0  0  0  0  0  0  0  0  0  0
    7.3570    6.2336    0.0000 H   0  0  0  0  0  0  0  0  0  0  0  0
   15.3985    7.5531    0.0000 H   0  0  0  0  0  0  0  0  0  0  0  0
    8.1765    6.4709    0.0000 H   0  0  0  0  0  0  0  0  0  0  0  0
   14.1651    9.4877    0.0000 H   0  0  0  0  0  0  0  0  0  0  0  0
   11.8728    9.3868    0.0000 H   0  0  0  0  0  0  0  0  0  0  0  0
   10.2846    5.0131    0.0000 H   0  0  0  0  0  0  0  0  0  0  0  0
  1 41  1  0  0  0  0
  1 42  1  0  0  0  0
  1 43  1  0  0  0  0
  2  1  1  0  0  0  0
  2 44  1  0  0  0  0
  2 45  1  0  0  0  0
  3  2  1  0  0  0  0
  3 46  1  0  0  0  0
  3 47  1  0  0  0  0
  4  3  1  0  0  0  0
  4 48  1  0  0  0  0
  4 49  1  0  0  0  0
  5  4  1  0  0  0  0
  5 50  1  0  0  0  0
  5 51  1  0  0  0  0
  6  5  1  0  0  0  0
  6 52  1  0  0  0  0
  6 53  1  0  0  0  0
  7  6  1  0  0  0  0
  7 54  1  0  0  0  0
  7 55  1  0  0  0  0
  8 56  1  0  0  0  0
  8 57  1  0  0  0  0
  9 58  1  0  0  0  0
  9 59  1  0  0  0  0
 10 60  1  0  0  0  0
 10 61  1  0  0  0  0
 11  7  1  0  0  0  0
 11  8  1  0  0  0  0
 11 23  1  0  0  0  0
 11 32  1  1  0  0  0
 12  8  1  0  0  0  0
 12 33  1  6  0  0  0
 13  9  1  0  0  0  0
 13 34  1  6  0  0  0
 14 13  1  0  0  0  0
 14 24  1  0  0  0  0
 14 35  1  1  0  0  0
 15 12  1  0  0  0  0
 15 25  1  0  0  0  0
 15 36  1  1  0  0  0
 16 14  1  0  0  0  0
 16 26  1  0  0  0  0
 16 37  1  6  0  0  0
 17 16  1  0  0  0  0
 17 27  1  0  0  0  0
 17 38  1  1  0  0  0
 18 15  1  0  0  0  0
 18 28  1  0  0  0  0
 18 39  1  6  0  0  0
 19 17  1  0  0  0  0
 19 31  1  0  0  0  0
 19 40  1  1  0  0  0
 20 10  1  0  0  0  0
 20 18  1  0  0  0  0
 20 31  1  1  0  0  0
 21  9  1  0  0  0  0
 21 62  1  0  0  0  0
 22 10  1  0  0  0  0
 22 63  1  0  0  0  0
 23 64  1  0  0  0  0
 24 65  1  0  0  0  0
 25 66  1  0  0  0  0
 26 67  1  0  0  0  0
 27 68  1  0  0  0  0
 28 69  1  0  0  0  0
 29 13  1  0  0  0  0
 29 19  1  0  0  0  0
 30 12  1  0  0  0  0
 30 20  1  0  0  0  0
M  END
>  <DRUGBANK_ID>
DB01998

>  <SECONDARY_ACCESSION_NUMBERS>
EXPT02980

>  <COMMON_NAME>
2-[3,4-Dihydroxy-2-Hydroxymethyl-5-(2-Hydroxy-Nonyl)-Tetrahydro-Furan-2-Yloxy]-6-Hydroxymethyl-Tetra Hydro-Pyran-3,4,5-Triol

$$$$
