
 OpenBabel10282417072D

 44 46  0  0  0  0  0  0  0  0999 V2000
   -0.6591    3.5615    0.0000 O   0  0  0  0  0  0  0  0  0  0  0  0
    0.0553    3.1490    0.0000 S   0  0  0  0  0  0  0  0  0  0  0  0
   -0.3571    2.4345    0.0000 O   0  0  0  0  0  0  0  0  0  0  0  0
    0.4678    3.8635    0.0000 O   0  0  0  0  0  0  0  0  0  0  0  0
    0.7697    2.7365    0.0000 O   0  0  0  0  0  0  0  0  0  0  0  0
    0.7697    1.9115    0.0000 C   0  0  0  0  0  0  0  0  0  0  0  0
    1.4842    1.4990    0.0000 C   0  0  0  0  0  0  0  0  0  0  0  0
    1.4842    0.6740    0.0000 C   0  0  0  0  0  0  0  0  0  0  0  0
    0.7697    0.2614    0.0000 C   0  0  0  0  0  0  0  0  0  0  0  0
    0.0553    0.6740    0.0000 C   0  0  0  0  0  0  0  0  0  0  0  0
    0.0553    1.4990    0.0000 C   0  0  0  0  0  0  0  0  0  0  0  0
    0.7697   -0.5634    0.0000 C   0  0  0  0  0  0  0  0  0  0  0  0
    0.0553   -0.9759    0.0000 C   0  0  0  0  0  0  0  0  0  0  0  0
    0.0553   -1.8009    0.0000 C   0  0  0  0  0  0  0  0  0  0  0  0
   -0.6591   -2.2134    0.0000 C   0  0  0  0  0  0  0  0  0  0  0  0
   -1.3736   -1.8009    0.0000 C   0  0  0  0  0  0  0  0  0  0  0  0
   -2.0881   -2.2134    0.0000 O   0  0  0  0  0  0  0  0  0  0  0  0
   -2.0881   -3.0385    0.0000 S   0  0  0  0  0  0  0  0  0  0  0  0
   -2.0881   -3.8635    0.0000 O   0  0  0  0  0  0  0  0  0  0  0  0
   -2.9131   -3.0385    0.0000 O   0  0  0  0  0  0  0  0  0  0  0  0
   -1.2631   -3.0385    0.0000 O   0  0  0  0  0  0  0  0  0  0  0  0
   -1.3736   -0.9759    0.0000 C   0  0  0  0  0  0  0  0  0  0  0  0
   -0.6591   -0.5634    0.0000 C   0  0  0  0  0  0  0  0  0  0  0  0
    1.4842   -0.9759    0.0000 C   0  0  0  0  0  0  0  0  0  0  0  0
    2.1987   -0.5634    0.0000 C   0  0  0  0  0  0  0  0  0  0  0  0
    2.9131   -0.9759    0.0000 C   0  0  0  0  0  0  0  0  0  0  0  0
    2.9131   -1.8009    0.0000 C   0  0  0  0  0  0  0  0  0  0  0  0
    2.1987   -2.2134    0.0000 C   0  0  0  0  0  0  0  0  0  0  0  0
    1.4842   -1.8009    0.0000 N   0  0  0  0  0  0  0  0  0  0  0  0
   -0.6591    4.5315    0.0000 H   0  0  0  0  0  0  0  0  0  0  0  0
    2.3779    2.0150    0.0000 H   0  0  0  0  0  0  0  0  0  0  0  0
    2.3780    0.1580    0.0000 H   0  0  0  0  0  0  0  0  0  0  0  0
   -0.8385    0.1581    0.0000 H   0  0  0  0  0  0  0  0  0  0  0  0
   -0.8384    2.0150    0.0000 H   0  0  0  0  0  0  0  0  0  0  0  0
    0.7697   -1.6334    0.0000 H   0  0  0  0  0  0  0  0  0  0  0  0
    0.9490   -2.3169    0.0000 H   0  0  0  0  0  0  0  0  0  0  0  0
   -0.6591   -3.2454    0.0000 H   0  0  0  0  0  0  0  0  0  0  0  0
   -2.9281   -4.3485    0.0000 H   0  0  0  0  0  0  0  0  0  0  0  0
   -2.2673   -0.4599    0.0000 H   0  0  0  0  0  0  0  0  0  0  0  0
   -0.6591    0.4686    0.0000 H   0  0  0  0  0  0  0  0  0  0  0  0
    2.1987    0.4686    0.0000 H   0  0  0  0  0  0  0  0  0  0  0  0
    3.8068   -0.4599    0.0000 H   0  0  0  0  0  0  0  0  0  0  0  0
    3.8068   -2.3169    0.0000 H   0  0  0  0  0  0  0  0  0  0  0  0
    2.1987   -3.2454    0.0000 H   0  0  0  0  0  0  0  0  0  0  0  0
  1  2  1  0  0  0  0
  1 30  1  0  0  0  0
  2  3  2  0  0  0  0
  2  4  2  0  0  0  0
  2  5  1  0  0  0  0
  5  6  1  0  0  0  0
  6  7  2  0  0  0  0
  6 11  1  0  0  0  0
  7  8  1  0  0  0  0
  7 31  1  0  0  0  0
  8  9  2  0  0  0  0
  8 32  1  0  0  0  0
  9 10  1  0  0  0  0
  9 12  1  0  0  0  0
 10 11  2  0  0  0  0
 10 33  1  0  0  0  0
 11 34  1  0  0  0  0
 12 13  1  0  0  0  0
 12 24  1  0  0  0  0
 12 35  1  0  0  0  0
 13 14  2  0  0  0  0
 13 23  1  0  0  0  0
 14 15  1  0  0  0  0
 14 36  1  0  0  0  0
 15 16  2  0  0  0  0
 15 37  1  0  0  0  0
 16 17  1  0  0  0  0
 16 22  1  0  0  0  0
 17 18  1  0  0  0  0
 18 19  1  0  0  0  0
 18 20  2  0  0  0  0
 18 21  2  0  0  0  0
 19 38  1  0  0  0  0
 22 23  2  0  0  0  0
 22 39  1  0  0  0  0
 23 40  1  0  0  0  0
 24 25  2  0  0  0  0
 24 29  1  0  0  0  0
 25 26  1  0  0  0  0
 25 41  1  0  0  0  0
 26 27  2  0  0  0  0
 26 42  1  0  0  0  0
 27 28  1  0  0  0  0
 27 43  1  0  0  0  0
 28 29  2  0  0  0  0
 28 44  1  0  0  0  0
M  END
>  <DRUGBANK_ID>
DB09268

>  <COMMON_NAME>
Picosulfuric acid

>  <CAS_NUMBER>
10040-34-3

>  <UNII>
95D580798S

>  <SYNONYMS>
Picosulfate; Picosulphate

$$$$
