
 OpenBabel10282417072D

116121  0  0  1  0  0  0  0  0999 V2000
    1.6204   -5.8263    0.0000 H   0  0  0  0  0  0  0  0  0  0  0  0
    2.4454   -5.8263    0.0000 C   0  0  2  0  0  0  0  0  0  0  0  0
    2.0329   -5.1118    0.0000 O   0  0  0  0  0  0  0  0  0  0  0  0
    2.4454   -4.3974    0.0000 C   0  0  2  0  0  0  0  0  0  0  0  0
    2.0329   -3.6829    0.0000 C   0  0  1  0  0  0  0  0  0  0  0  0
    1.2079   -3.6829    0.0000 C   0  0  0  0  0  0  0  0  0  0  0  0
    0.7954   -4.3974    0.0000 O   0  0  0  0  0  0  0  0  0  0  0  0
   -0.0296   -4.3974    0.0000 C   0  0  2  0  0  0  0  0  0  0  0  0
   -0.4421   -5.1118    0.0000 O   0  0  0  0  0  0  0  0  0  0  0  0
   -1.2671   -5.1118    0.0000 C   0  0  2  0  0  0  0  0  0  0  0  0
   -1.6796   -5.8263    0.0000 C   0  0  0  0  0  0  0  0  0  0  0  0
   -2.5046   -5.8263    0.0000 O   0  0  0  0  0  0  0  0  0  0  0  0
   -1.6796   -4.3974    0.0000 C   0  0  1  0  0  0  0  0  0  0  0  0
   -2.5046   -4.3974    0.0000 O   0  0  0  0  0  0  0  0  0  0  0  0
   -1.2671   -3.6829    0.0000 C   0  0  2  0  0  0  0  0  0  0  0  0
   -1.6796   -2.9684    0.0000 O   0  0  0  0  0  0  0  0  0  0  0  0
   -0.4421   -3.6829    0.0000 C   0  0  1  0  0  0  0  0  0  0  0  0
   -0.0296   -2.9684    0.0000 O   0  0  0  0  0  0  0  0  0  0  0  0
    2.4454   -2.9684    0.0000 O   0  0  0  0  0  0  0  0  0  0  0  0
    3.2704   -2.9684    0.0000 C   0  0  1  0  0  0  0  0  0  0  0  0
    3.6829   -2.2539    0.0000 O   0  0  0  0  0  0  0  0  0  0  0  0
    3.2704   -1.5395    0.0000 C   0  0  0  0  0  0  0  0  0  0  0  0
    2.4454   -1.5395    0.0000 C   0  0  0  0  0  0  0  0  0  0  0  0
    2.0329   -0.8250    0.0000 C   0  0  0  0  0  0  0  0  0  0  0  0
    1.2079   -0.8250    0.0000 C   0  0  0  0  0  0  0  0  0  0  0  0
    0.7954   -0.1105    0.0000 C   0  0  0  0  0  0  0  0  0  0  0  0
   -0.0296   -0.1105    0.0000 C   0  0  0  0  0  0  0  0  0  0  0  0
   -0.4421    0.6039    0.0000 C   0  0  0  0  0  0  0  0  0  0  0  0
   -0.0296    1.3184    0.0000 C   0  0  0  0  0  0  0  0  0  0  0  0
    2.4454   -0.1105    0.0000 C   0  0  0  0  0  0  0  0  0  0  0  0
    3.2704   -0.1105    0.0000 C   0  0  0  0  0  0  0  0  0  0  0  0
    3.6829    0.6039    0.0000 O   0  0  0  0  0  0  0  0  0  0  0  0
    4.5079    0.6039    0.0000 C   0  0  0  0  0  0  0  0  0  0  0  0
    4.3646    1.4164    0.0000 C   0  0  0  0  0  0  0  0  0  0  0  0
    5.2831    0.8861    0.0000 C   0  0  0  0  0  0  0  0  0  0  0  0
    4.9204   -0.1105    0.0000 C   0  0  2  0  0  0  0  0  0  0  0  0
    5.3329   -0.8250    0.0000 H   0  0  0  0  0  0  0  0  0  0  0  0
    5.7454   -0.1105    0.0000 C   0  0  0  0  0  0  0  0  0  0  0  0
    6.1579   -0.8250    0.0000 C   0  0  0  0  0  0  0  0  0  0  0  0
    5.7454   -1.5395    0.0000 C   0  0  0  0  0  0  0  0  0  0  0  0
    6.1579   -2.2539    0.0000 C   0  0  0  0  0  0  0  0  0  0  0  0
    4.9204   -1.5395    0.0000 C   0  0  0  0  0  0  0  0  0  0  0  0
    4.5079   -0.8250    0.0000 C   0  0  1  0  0  0  0  0  0  0  0  0
    4.0954   -1.5395    0.0000 H   0  0  0  0  0  0  0  0  0  0  0  0
    3.6829   -0.8250    0.0000 C   0  0  0  0  0  0  0  0  0  0  0  0
    3.6829   -3.6829    0.0000 C   0  0  2  0  0  0  0  0  0  0  0  0
    4.5079   -3.6829    0.0000 O   0  0  0  0  0  0  0  0  0  0  0  0
    3.2704   -4.3974    0.0000 C   0  0  1  0  0  0  0  0  0  0  0  0
    3.6829   -5.1118    0.0000 O   0  0  0  0  0  0  0  0  0  0  0  0
    3.2704   -5.8263    0.0000 O   0  0  0  0  0  0  0  0  0  0  0  0
    3.6829   -6.5408    0.0000 C   0  0  2  0  0  0  0  0  0  0  0  0
    4.5079   -6.5408    0.0000 C   0  0  0  0  0  0  0  0  0  0  0  0
    4.9204   -7.2552    0.0000 O   0  0  0  0  0  0  0  0  0  0  0  0
    3.2704   -7.2552    0.0000 C   0  0  1  0  0  0  0  0  0  0  0  0
    3.6829   -7.9697    0.0000 O   0  0  0  0  0  0  0  0  0  0  0  0
    2.4454   -7.2552    0.0000 C   0  0  2  0  0  0  0  0  0  0  0  0
    2.0329   -7.9697    0.0000 O   0  0  0  0  0  0  0  0  0  0  0  0
    2.0329   -6.5408    0.0000 C   0  0  1  0  0  0  0  0  0  0  0  0
    1.2079   -6.5408    0.0000 O   0  0  0  0  0  0  0  0  0  0  0  0
    1.3754   -4.3974    0.0000 H   0  0  0  0  0  0  0  0  0  0  0  0
    1.4979   -4.6095    0.0000 H   0  0  0  0  0  0  0  0  0  0  0  0
    0.6729   -2.7563    0.0000 H   0  0  0  0  0  0  0  0  0  0  0  0
    0.1379   -3.6829    0.0000 H   0  0  0  0  0  0  0  0  0  0  0  0
    0.5054   -5.3241    0.0000 H   0  0  0  0  0  0  0  0  0  0  0  0
   -0.7321   -6.0384    0.0000 H   0  0  0  0  0  0  0  0  0  0  0  0
   -1.1446   -6.7529    0.0000 H   0  0  0  0  0  0  0  0  0  0  0  0
   -2.2146   -6.7529    0.0000 H   0  0  0  0  0  0  0  0  0  0  0  0
   -2.9896   -4.9863    0.0000 H   0  0  0  0  0  0  0  0  0  0  0  0
   -2.2146   -5.3241    0.0000 H   0  0  0  0  0  0  0  0  0  0  0  0
   -2.9896   -3.5574    0.0000 H   0  0  0  0  0  0  0  0  0  0  0  0
   -2.3371   -3.6829    0.0000 H   0  0  0  0  0  0  0  0  0  0  0  0
   -1.1946   -2.1284    0.0000 H   0  0  0  0  0  0  0  0  0  0  0  0
   -0.9771   -2.7563    0.0000 H   0  0  0  0  0  0  0  0  0  0  0  0
    0.9404   -2.9684    0.0000 H   0  0  0  0  0  0  0  0  0  0  0  0
    2.7354   -2.0418    0.0000 H   0  0  0  0  0  0  0  0  0  0  0  0
    1.9294   -2.4332    0.0000 H   0  0  0  0  0  0  0  0  0  0  0  0
    0.6729   -1.7516    0.0000 H   0  0  0  0  0  0  0  0  0  0  0  0
    0.1379   -0.8250    0.0000 H   0  0  0  0  0  0  0  0  0  0  0  0
    1.3304    0.8161    0.0000 H   0  0  0  0  0  0  0  0  0  0  0  0
    0.2604    0.8161    0.0000 H   0  0  0  0  0  0  0  0  0  0  0  0
   -0.5646   -1.0372    0.0000 H   0  0  0  0  0  0  0  0  0  0  0  0
   -1.0996   -0.1105    0.0000 H   0  0  0  0  0  0  0  0  0  0  0  0
   -1.5121    0.6039    0.0000 H   0  0  0  0  0  0  0  0  0  0  0  0
   -0.9771    1.5305    0.0000 H   0  0  0  0  0  0  0  0  0  0  0  0
    1.0404    1.3184    0.0000 H   0  0  0  0  0  0  0  0  0  0  0  0
   -0.5646    2.2450    0.0000 H   0  0  0  0  0  0  0  0  0  0  0  0
    0.5054    2.2451    0.0000 H   0  0  0  0  0  0  0  0  0  0  0  0
    1.9294    0.7832    0.0000 H   0  0  0  0  0  0  0  0  0  0  0  0
    5.1842    2.1042    0.0000 H   0  0  0  0  0  0  0  0  0  0  0  0
    3.3591    1.7823    0.0000 H   0  0  0  0  0  0  0  0  0  0  0  0
    4.1788    2.4701    0.0000 H   0  0  0  0  0  0  0  0  0  0  0  0
    6.1028    0.1984    0.0000 H   0  0  0  0  0  0  0  0  0  0  0  0
    5.4688    1.9399    0.0000 H   0  0  0  0  0  0  0  0  0  0  0  0
    6.2886    1.2521    0.0000 H   0  0  0  0  0  0  0  0  0  0  0  0
    6.2804    0.8161    0.0000 H   0  0  0  0  0  0  0  0  0  0  0  0
    6.8154   -0.1105    0.0000 H   0  0  0  0  0  0  0  0  0  0  0  0
    7.2279   -0.8250    0.0000 H   0  0  0  0  0  0  0  0  0  0  0  0
    6.6929   -1.7516    0.0000 H   0  0  0  0  0  0  0  0  0  0  0  0
    5.6229   -3.1806    0.0000 H   0  0  0  0  0  0  0  0  0  0  0  0
    7.2279   -2.2539    0.0000 H   0  0  0  0  0  0  0  0  0  0  0  0
    6.6929   -3.1805    0.0000 H   0  0  0  0  0  0  0  0  0  0  0  0
    4.4044   -2.4332    0.0000 H   0  0  0  0  0  0  0  0  0  0  0  0
    4.2179   -2.7563    0.0000 H   0  0  0  0  0  0  0  0  0  0  0  0
    4.9929   -4.5229    0.0000 H   0  0  0  0  0  0  0  0  0  0  0  0
    4.3404   -4.3974    0.0000 H   0  0  0  0  0  0  0  0  0  0  0  0
    3.1979   -5.9519    0.0000 H   0  0  0  0  0  0  0  0  0  0  0  0
    4.2179   -5.6142    0.0000 H   0  0  0  0  0  0  0  0  0  0  0  0
    5.0429   -5.6141    0.0000 H   0  0  0  0  0  0  0  0  0  0  0  0
    5.5779   -6.5408    0.0000 H   0  0  0  0  0  0  0  0  0  0  0  0
    4.4354   -8.0953    0.0000 H   0  0  0  0  0  0  0  0  0  0  0  0
    4.3404   -7.2552    0.0000 H   0  0  0  0  0  0  0  0  0  0  0  0
    3.1979   -8.8097    0.0000 H   0  0  0  0  0  0  0  0  0  0  0  0
    2.9804   -8.1818    0.0000 H   0  0  0  0  0  0  0  0  0  0  0  0
    1.0629   -7.9697    0.0000 H   0  0  0  0  0  0  0  0  0  0  0  0
    1.4979   -7.4675    0.0000 H   0  0  0  0  0  0  0  0  0  0  0  0
    0.7229   -5.7008    0.0000 H   0  0  0  0  0  0  0  0  0  0  0  0
  2  1  1  1  0  0  0
  2  3  1  0  0  0  0
  2 50  1  0  0  0  0
  4  3  1  0  0  0  0
  4  5  1  0  0  0  0
  4 48  1  0  0  0  0
  4 60  1  1  0  0  0
  5  6  1  0  0  0  0
  5 19  1  0  0  0  0
  5 61  1  6  0  0  0
  6  7  1  0  0  0  0
  6 62  1  0  0  0  0
  6 63  1  0  0  0  0
  8  7  1  0  0  0  0
  8  9  1  0  0  0  0
  8 64  1  1  0  0  0
 10  9  1  0  0  0  0
 10 11  1  0  0  0  0
 10 65  1  1  0  0  0
 11 12  1  0  0  0  0
 11 66  1  0  0  0  0
 11 67  1  0  0  0  0
 12 68  1  0  0  0  0
 13 10  1  0  0  0  0
 13 14  1  0  0  0  0
 13 15  1  0  0  0  0
 13 69  1  6  0  0  0
 14 70  1  0  0  0  0
 15 16  1  0  0  0  0
 15 17  1  0  0  0  0
 15 71  1  1  0  0  0
 16 72  1  0  0  0  0
 17  8  1  0  0  0  0
 17 18  1  0  0  0  0
 17 73  1  6  0  0  0
 18 74  1  0  0  0  0
 20 19  1  0  0  0  0
 20 21  1  0  0  0  0
 20 75  1  6  0  0  0
 21 22  1  0  0  0  0
 22 23  2  0  0  0  0
 22 45  1  0  0  0  0
 23 24  1  0  0  0  0
 23 76  1  0  0  0  0
 24 25  1  0  0  0  0
 24 30  2  0  0  0  0
 25 26  1  0  0  0  0
 25 77  1  0  0  0  0
 25 78  1  0  0  0  0
 26 27  1  0  0  0  0
 26 79  1  0  0  0  0
 26 80  1  0  0  0  0
 27 28  1  0  0  0  0
 27 81  1  0  0  0  0
 27 82  1  0  0  0  0
 28 29  1  0  0  0  0
 28 83  1  0  0  0  0
 28 84  1  0  0  0  0
 29 85  1  0  0  0  0
 29 86  1  0  0  0  0
 29 87  1  0  0  0  0
 30 31  1  0  0  0  0
 30 88  1  0  0  0  0
 31 32  1  0  0  0  0
 31 45  2  0  0  0  0
 32 33  1  0  0  0  0
 33 34  1  0  0  0  0
 33 35  1  0  0  0  0
 34 89  1  0  0  0  0
 34 90  1  0  0  0  0
 34 91  1  0  0  0  0
 35 92  1  0  0  0  0
 35 93  1  0  0  0  0
 35 94  1  0  0  0  0
 36 33  1  0  0  0  0
 36 37  1  1  0  0  0
 36 38  1  0  0  0  0
 36 43  1  0  0  0  0
 38 39  1  0  0  0  0
 38 95  1  0  0  0  0
 38 96  1  0  0  0  0
 39 40  1  0  0  0  0
 39 97  1  0  0  0  0
 39 98  1  0  0  0  0
 40 41  1  0  0  0  0
 40 42  2  0  0  0  0
 41 99  1  0  0  0  0
 41100  1  0  0  0  0
 41101  1  0  0  0  0
 42102  1  0  0  0  0
 43 42  1  0  0  0  0
 43 44  1  6  0  0  0
 43 45  1  0  0  0  0
 46 20  1  0  0  0  0
 46 47  1  0  0  0  0
 46103  1  1  0  0  0
 47104  1  0  0  0  0
 48 46  1  0  0  0  0
 48 49  1  0  0  0  0
 48105  1  6  0  0  0
 49106  1  0  0  0  0
 51 50  1  0  0  0  0
 51 52  1  0  0  0  0
 51107  1  1  0  0  0
 52 53  1  0  0  0  0
 52108  1  0  0  0  0
 52109  1  0  0  0  0
 53110  1  0  0  0  0
 54 51  1  0  0  0  0
 54 55  1  0  0  0  0
 54 56  1  0  0  0  0
 54111  1  6  0  0  0
 55112  1  0  0  0  0
 56 57  1  0  0  0  0
 56 58  1  0  0  0  0
 56113  1  1  0  0  0
 57114  1  0  0  0  0
 58  2  1  0  0  0  0
 58 59  1  0  0  0  0
 58115  1  6  0  0  0
 59116  1  0  0  0  0
M  END
>  <DRUGBANK_ID>
DB18540

>  <COMMON_NAME>
VB-311

>  <CAS_NUMBER>
2699021-77-5

>  <UNII>
2D48C7R49E

$$$$
