
 OpenBabel10282417072D

 72 78  0  0  1  0  0  0  0  0999 V2000
    1.4069   -7.8193    0.0000 C   0  0  0  0  0  0  0  0  0  0  0  0
    2.1655   -7.4950    0.0000 C   0  0  0  0  0  0  0  0  0  0  0  0
    2.2640   -6.6759    0.0000 C   0  0  0  0  0  0  0  0  0  0  0  0
    1.6039   -6.1811    0.0000 C   0  0  0  0  0  0  0  0  0  0  0  0
    0.8453   -6.5053    0.0000 C   0  0  0  0  0  0  0  0  0  0  0  0
    0.7468   -7.3244    0.0000 C   0  0  0  0  0  0  0  0  0  0  0  0
    0.1188   -6.1144    0.0000 C   0  0  0  0  0  0  0  0  0  0  0  0
   -0.0285   -5.3026    0.0000 C   0  0  0  0  0  0  0  0  0  0  0  0
    0.5143   -4.6813    0.0000 C   0  0  0  0  0  0  0  0  0  0  0  0
    1.3385   -4.7184    0.0000 C   0  0  0  0  0  0  0  0  0  0  0  0
    1.8234   -5.3858    0.0000 C   0  0  0  0  0  0  0  0  0  0  0  0
    2.6439   -5.2996    0.0000 N   0  0  0  0  0  0  0  0  0  0  0  0
    2.9794   -4.5459    0.0000 N   0  0  0  0  0  0  0  0  0  0  0  0
    2.4945   -3.8784    0.0000 C   0  0  0  0  0  0  0  0  0  0  0  0
    1.6740   -3.9647    0.0000 C   0  0  0  0  0  0  0  0  0  0  0  0
    2.8301   -3.1248    0.0000 N   0  0  0  0  0  0  0  0  0  0  0  0
    2.4176   -2.4103    0.0000 C   0  0  0  0  0  0  0  0  0  0  0  0
    2.9696   -1.7972    0.0000 N   0  0  0  0  0  0  0  0  0  0  0  0
    3.7233   -2.1328    0.0000 C   0  0  0  0  0  0  0  0  0  0  0  0
    3.6370   -2.9532    0.0000 N   0  0  0  0  0  0  0  0  0  0  0  0
    4.4377   -1.7203    0.0000 N   0  0  0  0  0  0  0  0  0  0  0  0
    5.1522   -2.1328    0.0000 C   0  0  0  0  0  0  0  0  0  0  0  0
    5.1522   -2.9578    0.0000 C   0  0  0  0  0  0  0  0  0  0  0  0
    5.8667   -3.3703    0.0000 C   0  0  0  0  0  0  0  0  0  0  0  0
    6.5811   -2.9578    0.0000 C   0  0  0  0  0  0  0  0  0  0  0  0
    6.5811   -2.1328    0.0000 C   0  0  0  0  0  0  0  0  0  0  0  0
    5.8667   -1.7203    0.0000 C   0  0  0  0  0  0  0  0  0  0  0  0
    7.2262   -1.6184    0.0000 C   0  0  0  0  0  0  0  0  0  0  0  0
    8.0305   -1.8020    0.0000 C   0  0  0  0  0  0  0  0  0  0  0  0
    8.3884   -2.5453    0.0000 C   0  0  2  0  0  0  0  0  0  0  0  0
    8.0305   -3.2886    0.0000 C   0  0  0  0  0  0  0  0  0  0  0  0
    7.2262   -3.4721    0.0000 C   0  0  0  0  0  0  0  0  0  0  0  0
    9.2134   -2.5453    0.0000 N   0  0  0  0  0  0  0  0  0  0  0  0
    9.6984   -1.8778    0.0000 C   0  0  0  0  0  0  0  0  0  0  0  0
   10.4830   -2.1328    0.0000 C   0  0  0  0  0  0  0  0  0  0  0  0
   10.4830   -2.9578    0.0000 C   0  0  0  0  0  0  0  0  0  0  0  0
    9.6984   -3.2127    0.0000 C   0  0  0  0  0  0  0  0  0  0  0  0
    1.5971   -2.3241    0.0000 N   0  0  0  0  0  0  0  0  0  0  0  0
    1.2837   -8.8439    0.0000 H   0  0  0  0  0  0  0  0  0  0  0  0
    2.9913   -8.1140    0.0000 H   0  0  0  0  0  0  0  0  0  0  0  0
    3.2129   -6.2703    0.0000 H   0  0  0  0  0  0  0  0  0  0  0  0
   -0.2022   -7.7300    0.0000 H   0  0  0  0  0  0  0  0  0  0  0  0
   -0.7468   -6.7433    0.0000 H   0  0  0  0  0  0  0  0  0  0  0  0
   -0.8743   -5.7160    0.0000 H   0  0  0  0  0  0  0  0  0  0  0  0
   -1.0599   -5.0179    0.0000 H   0  0  0  0  0  0  0  0  0  0  0  0
   -0.3362   -4.2778    0.0000 H   0  0  0  0  0  0  0  0  0  0  0  0
    0.0938   -3.6974    0.0000 H   0  0  0  0  0  0  0  0  0  0  0  0
    1.1237   -3.8018    0.0000 H   0  0  0  0  0  0  0  0  0  0  0  0
    1.0673   -3.1298    0.0000 H   0  0  0  0  0  0  0  0  0  0  0  0
    4.4377   -0.7358    0.0000 H   0  0  0  0  0  0  0  0  0  0  0  0
    4.2585   -3.4738    0.0000 H   0  0  0  0  0  0  0  0  0  0  0  0
    5.8667   -4.4023    0.0000 H   0  0  0  0  0  0  0  0  0  0  0  0
    5.8667   -0.6883    0.0000 H   0  0  0  0  0  0  0  0  0  0  0  0
    6.9881   -0.5752    0.0000 H   0  0  0  0  0  0  0  0  0  0  0  0
    7.9828   -0.8618    0.0000 H   0  0  0  0  0  0  0  0  0  0  0  0
    8.6977   -0.9655    0.0000 H   0  0  0  0  0  0  0  0  0  0  0  0
    9.0938   -1.9219    0.0000 H   0  0  0  0  0  0  0  0  0  0  0  0
    8.9577   -1.6393    0.0000 H   0  0  0  0  0  0  0  0  0  0  0  0
    8.6976   -4.1252    0.0000 H   0  0  0  0  0  0  0  0  0  0  0  0
    7.6770   -4.2985    0.0000 H   0  0  0  0  0  0  0  0  0  0  0  0
    6.9881   -4.5153    0.0000 H   0  0  0  0  0  0  0  0  0  0  0  0
    6.2163   -3.8256    0.0000 H   0  0  0  0  0  0  0  0  0  0  0  0
    9.3678   -0.8602    0.0000 H   0  0  0  0  0  0  0  0  0  0  0  0
   10.4551   -1.1212    0.0000 H   0  0  0  0  0  0  0  0  0  0  0  0
   11.3487   -1.5039    0.0000 H   0  0  0  0  0  0  0  0  0  0  0  0
   11.4364   -2.6186    0.0000 H   0  0  0  0  0  0  0  0  0  0  0  0
   11.3486   -3.5867    0.0000 H   0  0  0  0  0  0  0  0  0  0  0  0
   10.3156   -4.0146    0.0000 H   0  0  0  0  0  0  0  0  0  0  0  0
    9.3678   -4.2303    0.0000 H   0  0  0  0  0  0  0  0  0  0  0  0
    8.6416   -3.3802    0.0000 H   0  0  0  0  0  0  0  0  0  0  0  0
    1.1966   -1.4247    0.0000 H   0  0  0  0  0  0  0  0  0  0  0  0
    1.0185   -3.1206    0.0000 H   0  0  0  0  0  0  0  0  0  0  0  0
  1  2  2  0  0  0  0
  1  6  1  0  0  0  0
  1 39  1  0  0  0  0
  2  3  1  0  0  0  0
  2 40  1  0  0  0  0
  3  4  2  0  0  0  0
  3 41  1  0  0  0  0
  4  5  1  0  0  0  0
  4 11  1  0  0  0  0
  5  6  2  0  0  0  0
  5  7  1  0  0  0  0
  6 42  1  0  0  0  0
  7  8  1  0  0  0  0
  7 43  1  0  0  0  0
  7 44  1  0  0  0  0
  8  9  1  0  0  0  0
  8 45  1  0  0  0  0
  8 46  1  0  0  0  0
  9 10  1  0  0  0  0
  9 47  1  0  0  0  0
  9 48  1  0  0  0  0
 10 11  2  0  0  0  0
 10 15  1  0  0  0  0
 11 12  1  0  0  0  0
 12 13  2  0  0  0  0
 13 14  1  0  0  0  0
 14 15  2  0  0  0  0
 14 16  1  0  0  0  0
 15 49  1  0  0  0  0
 16 17  1  0  0  0  0
 16 20  1  0  0  0  0
 17 18  2  0  0  0  0
 17 38  1  0  0  0  0
 18 19  1  0  0  0  0
 19 20  2  0  0  0  0
 19 21  1  0  0  0  0
 21 22  1  0  0  0  0
 21 50  1  0  0  0  0
 22 23  2  0  0  0  0
 22 27  1  0  0  0  0
 23 24  1  0  0  0  0
 23 51  1  0  0  0  0
 24 25  2  0  0  0  0
 24 52  1  0  0  0  0
 25 26  1  0  0  0  0
 25 32  1  0  0  0  0
 26 27  2  0  0  0  0
 26 28  1  0  0  0  0
 27 53  1  0  0  0  0
 28 29  1  0  0  0  0
 28 54  1  0  0  0  0
 28 55  1  0  0  0  0
 29 30  1  0  0  0  0
 29 56  1  0  0  0  0
 29 57  1  0  0  0  0
 30 31  1  0  0  0  0
 30 33  1  0  0  0  0
 30 58  1  6  0  0  0
 31 32  1  0  0  0  0
 31 59  1  0  0  0  0
 31 60  1  0  0  0  0
 32 61  1  0  0  0  0
 32 62  1  0  0  0  0
 33 34  1  0  0  0  0
 33 37  1  0  0  0  0
 34 35  1  0  0  0  0
 34 63  1  0  0  0  0
 34 64  1  0  0  0  0
 35 36  1  0  0  0  0
 35 65  1  0  0  0  0
 35 66  1  0  0  0  0
 36 37  1  0  0  0  0
 36 67  1  0  0  0  0
 36 68  1  0  0  0  0
 37 69  1  0  0  0  0
 37 70  1  0  0  0  0
 38 71  1  0  0  0  0
 38 72  1  0  0  0  0
M  END
>  <DRUGBANK_ID>
DB12411

>  <COMMON_NAME>
Bemcentinib

>  <CAS_NUMBER>
1037624-75-1

>  <UNII>
0ICW2LX8AS

>  <SYNONYMS>
(S)-1-(6,7-dihydro-5H-benzo[6,7]cyclohepta[1,2-c]pyridazin-3-yl)-N3-(7-(pyrrolidin-1-yl)- 6,7,8,9-tetrahydro-5H-benzo[7]annulen-2-yl)-1H-1,2,4-triazole-3,5-diamine; Bemcentinib

$$$$
