RM2
 OpenBabel10282417072D

 27 28  0  0  0  0  0  0  0  0999 V2000
   -2.4131    2.0347    0.0000 C   0  0  0  0  0  0  0  0  0  0  0  0
   -1.6061    1.8632    0.0000 C   0  0  0  0  0  0  0  0  0  0  0  0
   -1.3512    1.0786    0.0000 C   0  0  0  0  0  0  0  0  0  0  0  0
   -0.5442    0.9071    0.0000 N   0  0  0  0  0  0  0  0  0  0  0  0
   -0.2893    0.1224    0.0000 C   0  0  2  0  0  0  0  0  0  0  0  0
   -0.7742   -0.5450    0.0000 C   0  0  0  0  0  0  0  0  0  0  0  0
   -0.2893   -1.2124    0.0000 C   0  0  0  0  0  0  0  0  0  0  0  0
    0.4953   -0.9575    0.0000 C   0  0  0  0  0  0  0  0  0  0  0  0
    0.4953   -0.1325    0.0000 C   0  0  0  0  0  0  0  0  0  0  0  0
    1.2098    0.2800    0.0000 C   0  0  0  0  0  0  0  0  0  0  0  0
    1.2098   -1.3700    0.0000 C   0  0  0  0  0  0  0  0  0  0  0  0
    1.9243   -0.9575    0.0000 C   0  0  0  0  0  0  0  0  0  0  0  0
    1.9243   -0.1325    0.0000 C   0  0  0  0  0  0  0  0  0  0  0  0
    1.2098   -2.1950    0.0000 O   0  0  0  0  0  0  0  0  0  0  0  0
   -0.8660    0.2138    0.0000 H   0  0  0  0  0  0  0  0  0  0  0  0
   -2.7320    3.0162    0.0000 H   0  0  0  0  0  0  0  0  0  0  0  0
   -3.1036    1.2677    0.0000 H   0  0  0  0  0  0  0  0  0  0  0  0
   -0.9156    2.6301    0.0000 H   0  0  0  0  0  0  0  0  0  0  0  0
   -2.0417    0.3117    0.0000 H   0  0  0  0  0  0  0  0  0  0  0  0
   -1.8442   -0.5450    0.0000 H   0  0  0  0  0  0  0  0  0  0  0  0
   -1.2600   -1.4984    0.0000 H   0  0  0  0  0  0  0  0  0  0  0  0
   -0.6200   -2.2300    0.0000 H   0  0  0  0  0  0  0  0  0  0  0  0
    0.4673   -1.9690    0.0000 H   0  0  0  0  0  0  0  0  0  0  0  0
    1.2098    1.3120    0.0000 H   0  0  0  0  0  0  0  0  0  0  0  0
    2.8180   -1.4735    0.0000 H   0  0  0  0  0  0  0  0  0  0  0  0
    2.8180    0.3835    0.0000 H   0  0  0  0  0  0  0  0  0  0  0  0
    0.3983   -2.6635    0.0000 H   0  0  0  0  0  0  0  0  0  0  0  0
  1  2  2  0  0  0  0
  1 16  1  0  0  0  0
  1 17  1  0  0  0  0
  2  3  1  0  0  0  0
  2 18  1  0  0  0  0
  3  4  2  0  0  0  0
  3 19  1  0  0  0  0
  5  4  1  0  0  0  0
  5  6  1  0  0  0  0
  5  9  1  0  0  0  0
  5 15  1  6  0  0  0
  6  7  1  0  0  0  0
  6 20  1  0  0  0  0
  6 21  1  0  0  0  0
  7  8  1  0  0  0  0
  7 22  1  0  0  0  0
  7 23  1  0  0  0  0
  8  9  2  0  0  0  0
  8 11  1  0  0  0  0
  9 10  1  0  0  0  0
 10 13  2  0  0  0  0
 10 24  1  0  0  0  0
 11 12  2  0  0  0  0
 11 14  1  0  0  0  0
 12 13  1  0  0  0  0
 12 25  1  0  0  0  0
 13 26  1  0  0  0  0
 14 27  1  0  0  0  0
M  END
>  <DRUGBANK_ID>
DB08480

>  <COMMON_NAME>
4-HYDROXY-N-PROPARGYL-1(R)-AMINOINDAN

$$$$
