
 OpenBabel10282417072D

 71 73  0  0  1  0  0  0  0  0999 V2000
   -5.7080    5.5349    0.0000 C   0  0  0  0  0  0  0  0  0  0  0  0
   -4.9010    5.3633    0.0000 C   0  0  0  0  0  0  0  0  0  0  0  0
   -4.6461    4.5787    0.0000 O   0  0  0  0  0  0  0  0  0  0  0  0
   -3.8391    4.4072    0.0000 C   0  0  0  0  0  0  0  0  0  0  0  0
   -3.2871    5.0203    0.0000 O   0  0  0  0  0  0  0  0  0  0  0  0
   -3.5842    3.6226    0.0000 C   0  0  2  0  0  0  0  0  0  0  0  0
   -4.1362    3.0095    0.0000 C   0  0  0  0  0  0  0  0  0  0  0  0
   -2.7772    3.4510    0.0000 N   0  0  0  0  0  0  0  0  0  0  0  0
   -2.5223    2.6664    0.0000 P   0  0  3  0  0  0  0  0  0  0  0  0
   -3.3069    2.4115    0.0000 O   0  0  0  0  0  0  0  0  0  0  0  0
   -2.2673    1.8818    0.0000 C   0  0  0  0  0  0  0  0  0  0  0  0
   -1.4604    1.7103    0.0000 O   0  0  0  0  0  0  0  0  0  0  0  0
   -1.2054    0.9256    0.0000 C   0  0  0  0  0  0  0  0  0  0  0  0
   -0.3984    0.7541    0.0000 C   0  0  0  0  0  0  0  0  0  0  0  0
   -0.1435   -0.0305    0.0000 N   0  0  0  0  0  0  0  0  0  0  0  0
   -0.6284   -0.6979    0.0000 C   0  0  0  0  0  0  0  0  0  0  0  0
   -0.1435   -1.3654    0.0000 N   0  0  0  0  0  0  0  0  0  0  0  0
    0.6411   -1.1104    0.0000 C   0  0  0  0  0  0  0  0  0  0  0  0
    0.6411   -0.2854    0.0000 C   0  0  0  0  0  0  0  0  0  0  0  0
    1.3556    0.1271    0.0000 N   0  0  0  0  0  0  0  0  0  0  0  0
    2.0701   -0.2854    0.0000 C   0  0  0  0  0  0  0  0  0  0  0  0
    2.0701   -1.1104    0.0000 N   0  0  0  0  0  0  0  0  0  0  0  0
    1.3556   -1.5229    0.0000 C   0  0  0  0  0  0  0  0  0  0  0  0
    1.3556   -2.3479    0.0000 N   0  0  0  0  0  0  0  0  0  0  0  0
    0.6411   -2.7604    0.0000 C   0  0  0  0  0  0  0  0  0  0  0  0
    0.2286   -3.4749    0.0000 C   0  0  0  0  0  0  0  0  0  0  0  0
   -0.1839   -2.7604    0.0000 C   0  0  0  0  0  0  0  0  0  0  0  0
    2.7845    0.1271    0.0000 N   0  0  0  0  0  0  0  0  0  0  0  0
   -1.7376    2.9214    0.0000 N   0  0  0  0  0  0  0  0  0  0  0  0
   -1.5661    3.7283    0.0000 C   0  0  1  0  0  0  0  0  0  0  0  0
   -2.1792    4.2804    0.0000 C   0  0  0  0  0  0  0  0  0  0  0  0
   -0.7815    3.9833    0.0000 C   0  0  0  0  0  0  0  0  0  0  0  0
   -0.1684    3.4312    0.0000 O   0  0  0  0  0  0  0  0  0  0  0  0
   -0.6100    4.7902    0.0000 O   0  0  0  0  0  0  0  0  0  0  0  0
   -1.2231    5.3423    0.0000 C   0  0  0  0  0  0  0  0  0  0  0  0
   -1.0515    6.1492    0.0000 C   0  0  0  0  0  0  0  0  0  0  0  0
   -6.0386    6.5526    0.0000 H   0  0  0  0  0  0  0  0  0  0  0  0
   -6.4240    4.7398    0.0000 H   0  0  0  0  0  0  0  0  0  0  0  0
   -6.7546    5.7574    0.0000 H   0  0  0  0  0  0  0  0  0  0  0  0
   -4.1850    6.1584    0.0000 H   0  0  0  0  0  0  0  0  0  0  0  0
   -3.8544    5.1408    0.0000 H   0  0  0  0  0  0  0  0  0  0  0  0
   -4.6308    3.8451    0.0000 H   0  0  0  0  0  0  0  0  0  0  0  0
   -5.1828    3.2319    0.0000 H   0  0  0  0  0  0  0  0  0  0  0  0
   -3.8055    1.9919    0.0000 H   0  0  0  0  0  0  0  0  0  0  0  0
   -4.8521    2.2143    0.0000 H   0  0  0  0  0  0  0  0  0  0  0  0
   -2.0946    4.2090    0.0000 H   0  0  0  0  0  0  0  0  0  0  0  0
   -2.9832    1.0866    0.0000 H   0  0  0  0  0  0  0  0  0  0  0  0
   -1.9366    0.8642    0.0000 H   0  0  0  0  0  0  0  0  0  0  0  0
   -1.9213    0.1304    0.0000 H   0  0  0  0  0  0  0  0  0  0  0  0
   -0.8747   -0.0920    0.0000 H   0  0  0  0  0  0  0  0  0  0  0  0
    0.3176    1.5493    0.0000 H   0  0  0  0  0  0  0  0  0  0  0  0
    0.6482    0.5316    0.0000 H   0  0  0  0  0  0  0  0  0  0  0  0
   -1.6604   -0.6979    0.0000 H   0  0  0  0  0  0  0  0  0  0  0  0
    2.2082   -2.8402    0.0000 H   0  0  0  0  0  0  0  0  0  0  0  0
   -0.2855   -3.2954    0.0000 H   0  0  0  0  0  0  0  0  0  0  0  0
    0.2286   -4.5449    0.0000 H   0  0  0  0  0  0  0  0  0  0  0  0
   -0.8049   -3.7518    0.0000 H   0  0  0  0  0  0  0  0  0  0  0  0
   -1.1105   -2.2254    0.0000 H   0  0  0  0  0  0  0  0  0  0  0  0
    0.0930   -1.7269    0.0000 H   0  0  0  0  0  0  0  0  0  0  0  0
    3.6371   -0.3651    0.0000 H   0  0  0  0  0  0  0  0  0  0  0  0
    2.7845    1.1116    0.0000 H   0  0  0  0  0  0  0  0  0  0  0  0
   -0.9796    2.2389    0.0000 H   0  0  0  0  0  0  0  0  0  0  0  0
   -2.5837    3.3977    0.0000 H   0  0  0  0  0  0  0  0  0  0  0  0
   -1.9567    5.3270    0.0000 H   0  0  0  0  0  0  0  0  0  0  0  0
   -3.1968    3.9498    0.0000 H   0  0  0  0  0  0  0  0  0  0  0  0
   -2.9743    4.9964    0.0000 H   0  0  0  0  0  0  0  0  0  0  0  0
   -2.2408    5.0117    0.0000 H   0  0  0  0  0  0  0  0  0  0  0  0
   -2.0182    6.0583    0.0000 H   0  0  0  0  0  0  0  0  0  0  0  0
   -0.0338    6.4797    0.0000 H   0  0  0  0  0  0  0  0  0  0  0  0
   -1.8466    6.8653    0.0000 H   0  0  0  0  0  0  0  0  0  0  0  0
   -0.8289    7.1958    0.0000 H   0  0  0  0  0  0  0  0  0  0  0  0
  1  2  1  0  0  0  0
  1 37  1  0  0  0  0
  1 38  1  0  0  0  0
  1 39  1  0  0  0  0
  2  3  1  0  0  0  0
  2 40  1  0  0  0  0
  2 41  1  0  0  0  0
  3  4  1  0  0  0  0
  4  5  2  0  0  0  0
  4  6  1  0  0  0  0
  6  7  1  0  0  0  0
  6  8  1  0  0  0  0
  6 42  1  6  0  0  0
  7 43  1  0  0  0  0
  7 44  1  0  0  0  0
  7 45  1  0  0  0  0
  8  9  1  0  0  0  0
  8 46  1  0  0  0  0
  9 10  2  0  0  0  0
  9 11  1  0  0  0  0
  9 29  1  0  0  0  0
 11 12  1  0  0  0  0
 11 47  1  0  0  0  0
 11 48  1  0  0  0  0
 12 13  1  0  0  0  0
 13 14  1  0  0  0  0
 13 49  1  0  0  0  0
 13 50  1  0  0  0  0
 14 15  1  0  0  0  0
 14 51  1  0  0  0  0
 14 52  1  0  0  0  0
 15 16  1  0  0  0  0
 15 19  1  0  0  0  0
 16 17  2  0  0  0  0
 16 53  1  0  0  0  0
 17 18  1  0  0  0  0
 18 19  1  0  0  0  0
 18 23  2  0  0  0  0
 19 20  2  0  0  0  0
 20 21  1  0  0  0  0
 21 22  2  0  0  0  0
 21 28  1  0  0  0  0
 22 23  1  0  0  0  0
 23 24  1  0  0  0  0
 24 25  1  0  0  0  0
 24 54  1  0  0  0  0
 25 26  1  0  0  0  0
 25 27  1  0  0  0  0
 25 55  1  0  0  0  0
 26 27  1  0  0  0  0
 26 56  1  0  0  0  0
 26 57  1  0  0  0  0
 27 58  1  0  0  0  0
 27 59  1  0  0  0  0
 28 60  1  0  0  0  0
 28 61  1  0  0  0  0
 29 30  1  0  0  0  0
 29 62  1  0  0  0  0
 30 31  1  0  0  0  0
 30 32  1  0  0  0  0
 30 63  1  6  0  0  0
 31 64  1  0  0  0  0
 31 65  1  0  0  0  0
 31 66  1  0  0  0  0
 32 33  2  0  0  0  0
 32 34  1  0  0  0  0
 34 35  1  0  0  0  0
 35 36  1  0  0  0  0
 35 67  1  0  0  0  0
 35 68  1  0  0  0  0
 36 69  1  0  0  0  0
 36 70  1  0  0  0  0
 36 71  1  0  0  0  0
M  END
>  <DRUGBANK_ID>
DB12762

>  <COMMON_NAME>
Rabacfosadine

>  <CAS_NUMBER>
859209-74-8

>  <UNII>
M39BO43J9W

>  <SYNONYMS>
Rabacfosadine

$$$$
