
 OpenBabel10282417072D

 15 15  0  0  0  0  0  0  0  0999 V2000
   -0.3599   -0.4200    0.0000 C   0  0  0  0  0  0  0  0  0  0  0  0
    0.3517   -0.0048    0.0000 C   0  0  0  0  0  0  0  0  0  0  0  0
   -1.0735   -0.0048    0.0000 C   0  0  0  0  0  0  0  0  0  0  0  0
   -0.3599   -1.2409    0.0000 N   0  0  0  0  0  0  0  0  0  0  0  0
    0.3517    0.8276    0.0000 C   0  0  0  0  0  0  0  0  0  0  0  0
    1.0735   -0.4283    0.0000 N   0  0  0  0  0  0  0  0  0  0  0  0
   -1.0735    0.8195    0.0000 C   0  0  0  0  0  0  0  0  0  0  0  0
   -0.3599    1.2409    0.0000 N   0  0  0  0  0  0  0  0  0  0  0  0
   -1.9681   -0.5193    0.0000 H   0  0  0  0  0  0  0  0  0  0  0  0
   -1.2125   -1.7331    0.0000 H   0  0  0  0  0  0  0  0  0  0  0  0
    0.4927   -1.7331    0.0000 H   0  0  0  0  0  0  0  0  0  0  0  0
    1.2461    1.3424    0.0000 H   0  0  0  0  0  0  0  0  0  0  0  0
    1.0666   -1.4128    0.0000 H   0  0  0  0  0  0  0  0  0  0  0  0
    1.9295    0.0580    0.0000 H   0  0  0  0  0  0  0  0  0  0  0  0
   -1.9698    1.3311    0.0000 H   0  0  0  0  0  0  0  0  0  0  0  0
  1  2  1  0  0  0  0
  1  3  2  0  0  0  0
  1  4  1  0  0  0  0
  2  5  2  0  0  0  0
  2  6  1  0  0  0  0
  3  7  1  0  0  0  0
  3  9  1  0  0  0  0
  4 10  1  0  0  0  0
  4 11  1  0  0  0  0
  5  8  1  0  0  0  0
  5 12  1  0  0  0  0
  6 13  1  0  0  0  0
  6 14  1  0  0  0  0
  7  8  2  0  0  0  0
  7 15  1  0  0  0  0
M  END
>  <DRUGBANK_ID>
DB11640

>  <COMMON_NAME>
Amifampridine

>  <CAS_NUMBER>
54-96-6

>  <UNII>
RU4S6E2G0J

>  <SYNONYMS>
3,4 diaminopyridine; 3,4-DAP; 3,4-Diaminopyridine; 3,4-Pyridinediamine; 4,5-Diaminopyridine; Amifampridine; DAP

$$$$
