
 OpenBabel10282417072D

130132  0  0  0  0  0  0  0  0999 V2000
   -0.8911    3.1652    0.0000 C   0  0  0  0  0  0  0  0  0  0  0  0
   -1.6057    2.7527    0.0000 C   0  0  1  0  0  0  0  0  0  0  0  0
   -1.6057    1.9277    0.0000 C   0  0  2  0  0  0  0  0  0  0  0  0
   -0.8911    1.5151    0.0000 C   0  0  1  0  0  0  0  0  0  0  0  0
   -0.1766    1.9277    0.0000 O   0  0  0  0  0  0  0  0  0  0  0  0
   -0.1766    2.7527    0.0000 C   0  0  2  0  0  0  0  0  0  0  0  0
    0.5377    3.1652    0.0000 C   0  0  0  0  0  0  0  0  0  0  0  0
   -2.3200    3.1652    0.0000 N   0  0  0  0  0  0  0  0  0  0  0  0
   -2.3200    1.5152    0.0000 O   0  0  0  0  0  0  0  0  0  0  0  0
   -1.5042    0.9631    0.0000 H   0  0  0  0  0  0  0  0  0  0  0  0
   -3.0345    2.7527    0.0000 C   0  0  0  0  0  0  0  0  0  0  0  0
   -2.3200    3.9902    0.0000 C   0  0  0  0  0  0  0  0  0  0  0  0
   -0.8049    0.6947    0.0000 O   0  0  0  0  0  0  0  0  0  0  0  0
   -0.0512    0.3591    0.0000 C   0  0  2  0  0  0  0  0  0  0  0  0
    0.0349   -0.4613    0.0000 C   0  0  2  0  0  0  0  0  0  0  0  0
    0.6161    0.8440    0.0000 C   0  0  2  0  0  0  0  0  0  0  0  0
    1.3698    0.5085    0.0000 C   0  0  0  0  0  0  0  0  0  0  0  0
    2.0373    0.9934    0.0000 C   0  0  2  0  0  0  0  0  0  0  0  0
    2.7909    0.6578    0.0000 N   0  0  0  0  0  0  0  0  0  0  0  0
    3.4584    1.1428    0.0000 C   0  0  0  0  0  0  0  0  0  0  0  0
    4.2120    0.8072    0.0000 C   0  0  0  0  0  0  0  0  0  0  0  0
    4.8795    1.2921    0.0000 C   0  0  0  0  0  0  0  0  0  0  0  0
    2.6511   -0.4747    0.0000 C   0  0  0  0  0  0  0  0  0  0  0  0
   -0.5483   -1.0446    0.0000 C   0  0  1  0  0  0  0  0  0  0  0  0
   -0.2663   -1.8931    0.0000 C   0  0  2  0  0  0  0  0  0  0  0  0
    0.4846   -2.0646    0.0000 C   0  0  0  0  0  0  0  0  0  0  0  0
    0.8234   -2.8772    0.0000 O   0  0  0  0  0  0  0  0  0  0  0  0
    1.7702   -2.9089    0.0000 C   0  0  1  0  0  0  0  0  0  0  0  0
    0.8126   -0.7367    0.0000 C   0  0  0  0  0  0  0  0  0  0  0  0
   -1.3260   -0.7692    0.0000 O   0  0  0  0  0  0  0  0  0  0  0  0
    0.7877    1.6510    0.0000 C   0  0  0  0  0  0  0  0  0  0  0  0
    1.9510    1.8139    0.0000 C   0  0  0  0  0  0  0  0  0  0  0  0
    0.1312    1.5115    0.0000 O   0  0  0  0  0  0  0  0  0  0  0  0
   -1.9533   -1.3050    0.0000 C   0  0  1  0  0  0  0  0  0  0  0  0
   -2.6452   -0.8557    0.0000 C   0  0  0  0  0  0  0  0  0  0  0  0
   -3.3803   -1.2303    0.0000 C   0  0  1  0  0  0  0  0  0  0  0  0
   -3.4235   -2.0541    0.0000 C   0  0  2  0  0  0  0  0  0  0  0  0
   -2.7316   -2.5035    0.0000 C   0  0  1  0  0  0  0  0  0  0  0  0
   -1.9965   -2.1289    0.0000 O   0  0  0  0  0  0  0  0  0  0  0  0
   -1.1464   -1.4766    0.0000 H   0  0  0  0  0  0  0  0  0  0  0  0
   -3.9934   -0.6782    0.0000 C   0  0  0  0  0  0  0  0  0  0  0  0
   -2.7316   -3.3285    0.0000 C   0  0  0  0  0  0  0  0  0  0  0  0
   -4.0366   -2.6062    0.0000 O   0  0  0  0  0  0  0  0  0  0  0  0
   -4.1650   -1.4852    0.0000 O   0  0  0  0  0  0  0  0  0  0  0  0
   -0.9114   -2.5136    0.0000 C   0  0  0  0  0  0  0  0  0  0  0  0
   -4.8794   -1.0727    0.0000 C   0  0  0  0  0  0  0  0  0  0  0  0
    0.8968   -1.4235    0.0000 O   0  0  0  0  0  0  0  0  0  0  0  0
    2.1433   -2.2135    0.0000 C   0  0  2  0  0  0  0  0  0  0  0  0
    3.0197   -1.9921    0.0000 C   0  0  1  0  0  0  0  0  0  0  0  0
    3.2530   -1.1289    0.0000 C   0  0  1  0  0  0  0  0  0  0  0  0
    1.8472   -3.7352    0.0000 C   0  0  0  0  0  0  0  0  0  0  0  0
    1.4463   -1.6615    0.0000 O   0  0  0  0  0  0  0  0  0  0  0  0
    2.0187   -1.4456    0.0000 C   0  0  0  0  0  0  0  0  0  0  0  0
    4.0779   -1.0171    0.0000 C   0  0  0  0  0  0  0  0  0  0  0  0
    2.6318   -3.9902    0.0000 C   0  0  0  0  0  0  0  0  0  0  0  0
    3.5717   -2.6052    0.0000 O   0  0  0  0  0  0  0  0  0  0  0  0
   -0.8911    4.2352    0.0000 H   0  0  0  0  0  0  0  0  0  0  0  0
    0.0356    3.7002    0.0000 H   0  0  0  0  0  0  0  0  0  0  0  0
   -1.6056    3.8227    0.0000 H   0  0  0  0  0  0  0  0  0  0  0  0
   -2.5324    2.4627    0.0000 H   0  0  0  0  0  0  0  0  0  0  0  0
    0.7501    2.2177    0.0000 H   0  0  0  0  0  0  0  0  0  0  0  0
    1.4644    2.6303    0.0000 H   0  0  0  0  0  0  0  0  0  0  0  0
    0.5376    4.2352    0.0000 H   0  0  0  0  0  0  0  0  0  0  0  0
    1.4643    3.7003    0.0000 H   0  0  0  0  0  0  0  0  0  0  0  0
   -3.1601    2.0001    0.0000 H   0  0  0  0  0  0  0  0  0  0  0  0
   -3.9611    3.2877    0.0000 H   0  0  0  0  0  0  0  0  0  0  0  0
   -3.0345    1.6827    0.0000 H   0  0  0  0  0  0  0  0  0  0  0  0
   -3.9612    2.2177    0.0000 H   0  0  0  0  0  0  0  0  0  0  0  0
   -1.3934    4.5252    0.0000 H   0  0  0  0  0  0  0  0  0  0  0  0
   -3.2466    4.5252    0.0000 H   0  0  0  0  0  0  0  0  0  0  0  0
   -2.3200    5.0602    0.0000 H   0  0  0  0  0  0  0  0  0  0  0  0
   -0.9169   -0.2697    0.0000 H   0  0  0  0  0  0  0  0  0  0  0  0
    0.8752    0.2011    0.0000 H   0  0  0  0  0  0  0  0  0  0  0  0
    1.4817   -0.5556    0.0000 H   0  0  0  0  0  0  0  0  0  0  0  0
    2.3473    0.0733    0.0000 H   0  0  0  0  0  0  0  0  0  0  0  0
    1.0598    1.4286    0.0000 H   0  0  0  0  0  0  0  0  0  0  0  0
    3.3466    2.2069    0.0000 H   0  0  0  0  0  0  0  0  0  0  0  0
    4.3241    1.7717    0.0000 H   0  0  0  0  0  0  0  0  0  0  0  0
    4.3238   -0.2569    0.0000 H   0  0  0  0  0  0  0  0  0  0  0  0
    5.1895    0.3719    0.0000 H   0  0  0  0  0  0  0  0  0  0  0  0
    5.8570    0.8568    0.0000 H   0  0  0  0  0  0  0  0  0  0  0  0
    4.7677    2.3562    0.0000 H   0  0  0  0  0  0  0  0  0  0  0  0
    5.7452    1.9210    0.0000 H   0  0  0  0  0  0  0  0  0  0  0  0
    1.6323   -0.8016    0.0000 H   0  0  0  0  0  0  0  0  0  0  0  0
    2.3778   -1.5092    0.0000 H   0  0  0  0  0  0  0  0  0  0  0  0
   -0.7845   -0.0010    0.0000 H   0  0  0  0  0  0  0  0  0  0  0  0
   -1.3051   -1.6367    0.0000 H   0  0  0  0  0  0  0  0  0  0  0  0
    1.0364   -3.6877    0.0000 H   0  0  0  0  0  0  0  0  0  0  0  0
    1.0076   -1.7888    0.0000 H   0  0  0  0  0  0  0  0  0  0  0  0
    1.6262   -0.0418    0.0000 H   0  0  0  0  0  0  0  0  0  0  0  0
    1.8212   -1.0939    0.0000 H   0  0  0  0  0  0  0  0  0  0  0  0
    1.8054    1.9816    0.0000 H   0  0  0  0  0  0  0  0  0  0  0  0
   -0.0074    2.3670    0.0000 H   0  0  0  0  0  0  0  0  0  0  0  0
    1.0102    2.6976    0.0000 H   0  0  0  0  0  0  0  0  0  0  0  0
    2.8166    2.4429    0.0000 H   0  0  0  0  0  0  0  0  0  0  0  0
    0.9735    2.2490    0.0000 H   0  0  0  0  0  0  0  0  0  0  0  0
    1.8391    2.8780    0.0000 H   0  0  0  0  0  0  0  0  0  0  0  0
    0.5258    2.3976    0.0000 H   0  0  0  0  0  0  0  0  0  0  0  0
   -2.5892    0.2128    0.0000 H   0  0  0  0  0  0  0  0  0  0  0  0
   -1.6918   -0.3699    0.0000 H   0  0  0  0  0  0  0  0  0  0  0  0
   -4.3893   -1.5935    0.0000 H   0  0  0  0  0  0  0  0  0  0  0  0
   -3.6720   -3.0140    0.0000 H   0  0  0  0  0  0  0  0  0  0  0  0
   -3.7709    0.3684    0.0000 H   0  0  0  0  0  0  0  0  0  0  0  0
   -5.0110   -1.0088    0.0000 H   0  0  0  0  0  0  0  0  0  0  0  0
   -4.7885    0.0378    0.0000 H   0  0  0  0  0  0  0  0  0  0  0  0
   -3.6582   -3.8635    0.0000 H   0  0  0  0  0  0  0  0  0  0  0  0
   -1.8050   -3.8635    0.0000 H   0  0  0  0  0  0  0  0  0  0  0  0
   -2.7316   -4.3985    0.0000 H   0  0  0  0  0  0  0  0  0  0  0  0
   -4.9591   -2.3065    0.0000 H   0  0  0  0  0  0  0  0  0  0  0  0
   -1.9394   -2.2166    0.0000 H   0  0  0  0  0  0  0  0  0  0  0  0
   -0.6546   -3.5523    0.0000 H   0  0  0  0  0  0  0  0  0  0  0  0
   -1.6826   -3.2554    0.0000 H   0  0  0  0  0  0  0  0  0  0  0  0
   -4.8794   -0.0027    0.0000 H   0  0  0  0  0  0  0  0  0  0  0  0
   -5.8061   -1.6077    0.0000 H   0  0  0  0  0  0  0  0  0  0  0  0
   -5.8060   -0.5377    0.0000 H   0  0  0  0  0  0  0  0  0  0  0  0
    2.7084   -3.0158    0.0000 H   0  0  0  0  0  0  0  0  0  0  0  0
    3.9592   -1.9328    0.0000 H   0  0  0  0  0  0  0  0  0  0  0  0
    1.0117   -4.4036    0.0000 H   0  0  0  0  0  0  0  0  0  0  0  0
    2.0390   -4.7879    0.0000 H   0  0  0  0  0  0  0  0  0  0  0  0
    1.5876   -0.7019    0.0000 H   0  0  0  0  0  0  0  0  0  0  0  0
    2.8477   -0.7691    0.0000 H   0  0  0  0  0  0  0  0  0  0  0  0
    1.0183   -1.0659    0.0000 H   0  0  0  0  0  0  0  0  0  0  0  0
    1.8473   -0.3894    0.0000 H   0  0  0  0  0  0  0  0  0  0  0  0
    4.7325   -1.8635    0.0000 H   0  0  0  0  0  0  0  0  0  0  0  0
    4.4836   -0.0270    0.0000 H   0  0  0  0  0  0  0  0  0  0  0  0
    5.1382   -0.8734    0.0000 H   0  0  0  0  0  0  0  0  0  0  0  0
    2.8542   -5.0368    0.0000 H   0  0  0  0  0  0  0  0  0  0  0  0
    3.4270   -3.2743    0.0000 H   0  0  0  0  0  0  0  0  0  0  0  0
    3.6494   -4.3209    0.0000 H   0  0  0  0  0  0  0  0  0  0  0  0
    3.2719   -3.5277    0.0000 H   0  0  0  0  0  0  0  0  0  0  0  0
  1  2  1  0  0  0  0
  1  6  1  0  0  0  0
  1 57  1  0  0  0  0
  1 58  1  0  0  0  0
  2  3  1  0  0  0  0
  2  8  1  0  0  0  0
  2 59  1  6  0  0  0
  3  4  1  0  0  0  0
  3  9  1  0  0  0  0
  3 60  1  1  0  0  0
  4  5  1  0  0  0  0
  4 10  1  6  0  0  0
  4 13  1  0  0  0  0
  5  6  1  0  0  0  0
  6  7  1  0  0  0  0
  6 61  1  6  0  0  0
  7 62  1  0  0  0  0
  7 63  1  0  0  0  0
  7 64  1  0  0  0  0
  8 11  1  0  0  0  0
  8 12  1  0  0  0  0
  9 65  1  0  0  0  0
 11 66  1  0  0  0  0
 11 67  1  0  0  0  0
 11 68  1  0  0  0  0
 12 69  1  0  0  0  0
 12 70  1  0  0  0  0
 12 71  1  0  0  0  0
 14 13  1  0  0  0  0
 14 15  1  0  0  0  0
 14 16  1  0  0  0  0
 14 72  1  6  0  0  0
 15 24  1  0  0  0  0
 15 29  1  0  0  0  0
 15 73  1  6  0  0  0
 16 17  1  0  0  0  0
 16 31  1  0  0  0  0
 16 33  1  6  0  0  0
 17 18  1  0  0  0  0
 17 74  1  0  0  0  0
 17 75  1  0  0  0  0
 18 19  1  0  0  0  0
 18 32  1  0  0  0  0
 18 76  1  6  0  0  0
 19 20  1  0  0  0  0
 19 23  1  0  0  0  0
 20 21  1  0  0  0  0
 20 77  1  0  0  0  0
 20 78  1  0  0  0  0
 21 22  1  0  0  0  0
 21 79  1  0  0  0  0
 21 80  1  0  0  0  0
 22 81  1  0  0  0  0
 22 82  1  0  0  0  0
 22 83  1  0  0  0  0
 23 50  1  0  0  0  0
 23 84  1  0  0  0  0
 23 85  1  0  0  0  0
 24 25  1  0  0  0  0
 24 30  1  0  0  0  0
 24 86  1  6  0  0  0
 25 26  1  0  0  0  0
 25 45  1  0  0  0  0
 25 87  1  1  0  0  0
 26 27  1  0  0  0  0
 26 47  2  0  0  0  0
 27 28  1  0  0  0  0
 28 48  1  0  0  0  0
 28 51  1  0  0  0  0
 28 88  1  6  0  0  0
 29 89  1  0  0  0  0
 29 90  1  0  0  0  0
 29 91  1  0  0  0  0
 30 34  1  0  0  0  0
 31 92  1  0  0  0  0
 31 93  1  0  0  0  0
 31 94  1  0  0  0  0
 32 95  1  0  0  0  0
 32 96  1  0  0  0  0
 32 97  1  0  0  0  0
 33 98  1  0  0  0  0
 34 35  1  0  0  0  0
 34 39  1  0  0  0  0
 34 40  1  1  0  0  0
 35 36  1  0  0  0  0
 35 99  1  0  0  0  0
 35100  1  0  0  0  0
 36 37  1  0  0  0  0
 36 41  1  0  0  0  0
 36 44  1  6  0  0  0
 37 38  1  0  0  0  0
 37 43  1  0  0  0  0
 37101  1  1  0  0  0
 38 39  1  0  0  0  0
 38 42  1  0  0  0  0
 38102  1  6  0  0  0
 41103  1  0  0  0  0
 41104  1  0  0  0  0
 41105  1  0  0  0  0
 42106  1  0  0  0  0
 42107  1  0  0  0  0
 42108  1  0  0  0  0
 43109  1  0  0  0  0
 44 46  1  0  0  0  0
 45110  1  0  0  0  0
 45111  1  0  0  0  0
 45112  1  0  0  0  0
 46113  1  0  0  0  0
 46114  1  0  0  0  0
 46115  1  0  0  0  0
 48 49  1  0  0  0  0
 48 52  1  1  0  0  0
 48 53  1  0  0  0  0
 49 50  1  0  0  0  0
 49 56  1  0  0  0  0
 49116  1  6  0  0  0
 50 54  1  0  0  0  0
 50117  1  1  0  0  0
 51 55  1  0  0  0  0
 51118  1  0  0  0  0
 51119  1  0  0  0  0
 52120  1  0  0  0  0
 53121  1  0  0  0  0
 53122  1  0  0  0  0
 53123  1  0  0  0  0
 54124  1  0  0  0  0
 54125  1  0  0  0  0
 54126  1  0  0  0  0
 55127  1  0  0  0  0
 55128  1  0  0  0  0
 55129  1  0  0  0  0
 56130  1  0  0  0  0
M  END
>  <DRUGBANK_ID>
DB11416

>  <COMMON_NAME>
Gamithromycin

>  <CAS_NUMBER>
145435-72-9

>  <UNII>
ZE856183S0

>  <SYNONYMS>
Gamithromycin

$$$$
