TQ3
 OpenBabel10282417072D

 31 33  0  0  0  0  0  0  0  0999 V2000
   -0.7758   -1.4006    0.0000 C   0  0  0  0  0  0  0  0  0  0  0  0
   -0.7758   -0.5756    0.0000 C   0  0  0  0  0  0  0  0  0  0  0  0
   -1.4902   -0.1631    0.0000 C   0  0  0  0  0  0  0  0  0  0  0  0
   -2.2047   -0.5756    0.0000 N   0  0  0  0  0  0  0  0  0  0  0  0
   -2.2047   -1.4006    0.0000 C   0  0  0  0  0  0  0  0  0  0  0  0
   -1.4902   -1.8131    0.0000 N   0  0  0  0  0  0  0  0  0  0  0  0
   -1.4902    0.6619    0.0000 N   0  0  0  0  0  0  0  0  0  0  0  0
   -0.0613   -1.8131    0.0000 C   0  0  0  0  0  0  0  0  0  0  0  0
    0.6532   -1.4006    0.0000 C   0  0  0  0  0  0  0  0  0  0  0  0
    0.6532   -0.5756    0.0000 C   0  0  0  0  0  0  0  0  0  0  0  0
   -0.0613   -0.1631    0.0000 C   0  0  0  0  0  0  0  0  0  0  0  0
   -2.9192   -1.8131    0.0000 N   0  0  0  0  0  0  0  0  0  0  0  0
   -0.0613    0.6619    0.0000 S   0  0  0  0  0  0  0  0  0  0  0  0
    0.6532    1.0744    0.0000 C   0  0  0  0  0  0  0  0  0  0  0  0
    0.6532    1.8994    0.0000 C   0  0  0  0  0  0  0  0  0  0  0  0
    1.3676    2.3119    0.0000 C   0  0  0  0  0  0  0  0  0  0  0  0
    2.0821    1.8994    0.0000 C   0  0  0  0  0  0  0  0  0  0  0  0
    2.0821    1.0744    0.0000 C   0  0  0  0  0  0  0  0  0  0  0  0
    1.3676    0.6619    0.0000 C   0  0  0  0  0  0  0  0  0  0  0  0
   -0.6376    1.1542    0.0000 H   0  0  0  0  0  0  0  0  0  0  0  0
   -2.3428    1.1542    0.0000 H   0  0  0  0  0  0  0  0  0  0  0  0
   -0.0613   -2.8451    0.0000 H   0  0  0  0  0  0  0  0  0  0  0  0
    1.5469   -1.9166    0.0000 H   0  0  0  0  0  0  0  0  0  0  0  0
    1.5469   -0.0596    0.0000 H   0  0  0  0  0  0  0  0  0  0  0  0
   -3.7718   -1.3208    0.0000 H   0  0  0  0  0  0  0  0  0  0  0  0
   -2.9192   -2.7976    0.0000 H   0  0  0  0  0  0  0  0  0  0  0  0
   -0.2405    2.4154    0.0000 H   0  0  0  0  0  0  0  0  0  0  0  0
    1.3676    3.3439    0.0000 H   0  0  0  0  0  0  0  0  0  0  0  0
    2.9758    2.4154    0.0000 H   0  0  0  0  0  0  0  0  0  0  0  0
    2.9758    0.5584    0.0000 H   0  0  0  0  0  0  0  0  0  0  0  0
    1.3676   -0.3701    0.0000 H   0  0  0  0  0  0  0  0  0  0  0  0
  1  2  2  0  0  0  0
  1  6  1  0  0  0  0
  1  8  1  0  0  0  0
  2  3  1  0  0  0  0
  2 11  1  0  0  0  0
  3  4  2  0  0  0  0
  3  7  1  0  0  0  0
  4  5  1  0  0  0  0
  5  6  2  0  0  0  0
  5 12  1  0  0  0  0
  7 20  1  0  0  0  0
  7 21  1  0  0  0  0
  8  9  2  0  0  0  0
  8 22  1  0  0  0  0
  9 10  1  0  0  0  0
  9 23  1  0  0  0  0
 10 11  2  0  0  0  0
 10 24  1  0  0  0  0
 11 13  1  0  0  0  0
 12 25  1  0  0  0  0
 12 26  1  0  0  0  0
 13 14  1  0  0  0  0
 14 15  2  0  0  0  0
 14 19  1  0  0  0  0
 15 16  1  0  0  0  0
 15 27  1  0  0  0  0
 16 17  2  0  0  0  0
 16 28  1  0  0  0  0
 17 18  1  0  0  0  0
 17 29  1  0  0  0  0
 18 19  2  0  0  0  0
 18 30  1  0  0  0  0
 19 31  1  0  0  0  0
M  END
>  <DRUGBANK_ID>
DB04163

>  <SECONDARY_ACCESSION_NUMBERS>
EXPT03099

>  <COMMON_NAME>
5-Phenylsulfanyl-2,4-Quinazolinediamine

$$$$
