
 OpenBabel10282417072D

 65 69  0  0  0  0  0  0  0  0999 V2000
    0.5756    1.2773    0.0000 P   0  0  1  0  0  0  0  0  0  0  0  0
    0.0436   -1.5716    0.0000 O   0  0  0  0  0  0  0  0  0  0  0  0
    1.4203    3.8931    0.0000 O   0  0  0  0  0  0  0  0  0  0  0  0
    0.3220    2.0623    0.0000 O   0  0  0  0  0  0  0  0  0  0  0  0
    0.8292    0.4921    0.0000 O   0  0  0  0  0  0  0  0  0  0  0  0
    1.9822   -0.6775    0.0000 O   0  0  0  0  0  0  0  0  0  0  0  0
    1.9791   -2.4725    0.0000 O   0  0  0  0  0  0  0  0  0  0  0  0
    2.1068    1.8716    0.0000 O   0  0  0  0  0  0  0  0  0  0  0  0
    3.0960    4.2944    0.0000 O   0  0  0  0  0  0  0  0  0  0  0  0
    1.3608    1.5309    0.0000 O   0  0  0  0  0  0  0  0  0  0  0  0
   -0.2093    1.0237    0.0000 O   0  0  0  0  0  0  0  0  0  0  0  0
    0.5354    5.1232    0.0000 O   0  0  0  0  0  0  0  0  0  0  0  0
   -1.2240   -5.3381    0.0000 O   0  0  0  0  0  0  0  0  0  0  0  0
    0.2710   -3.0241    0.0000 N   0  0  0  0  0  0  0  0  0  0  0  0
   -0.0480    3.8187    0.0000 N   0  0  0  0  0  0  0  0  0  0  0  0
   -1.2240   -2.8631    0.0000 N   0  0  0  0  0  0  0  0  0  0  0  0
    0.2710   -4.3520    0.0000 N   0  0  0  0  0  0  0  0  0  0  0  0
   -0.8860    4.9762    0.0000 N   0  0  0  0  0  0  0  0  0  0  0  0
   -1.9384   -4.1007    0.0000 N   0  0  0  0  0  0  0  0  0  0  0  0
   -2.6531   -2.8631    0.0000 N   0  0  0  0  0  0  0  0  0  0  0  0
   -2.3074    4.8293    0.0000 N   0  0  0  0  0  0  0  0  0  0  0  0
    0.8752    2.6746    0.0000 C   0  0  2  0  0  0  0  0  0  0  0  0
    0.5297   -0.9051    0.0000 C   0  0  1  0  0  0  0  0  0  0  0  0
    1.3139   -1.1613    0.0000 C   0  0  2  0  0  0  0  0  0  0  0  0
    1.3125   -1.9863    0.0000 C   0  0  2  0  0  0  0  0  0  0  0  0
    0.5274   -2.2399    0.0000 C   0  0  1  0  0  0  0  0  0  0  0  0
    1.6956    2.5869    0.0000 C   0  0  1  0  0  0  0  0  0  0  0  0
    0.7050    3.4818    0.0000 C   0  0  1  0  0  0  0  0  0  0  0  0
    2.0324    3.3400    0.0000 C   0  0  1  0  0  0  0  0  0  0  0  0
    0.2761   -0.1199    0.0000 C   0  0  0  0  0  0  0  0  0  0  0  0
    2.8397    3.5101    0.0000 C   0  0  0  0  0  0  0  0  0  0  0  0
   -0.5095   -3.2756    0.0000 C   0  0  0  0  0  0  0  0  0  0  0  0
    0.7525   -3.6881    0.0000 C   0  0  0  0  0  0  0  0  0  0  0  0
   -0.7163    3.3349    0.0000 C   0  0  0  0  0  0  0  0  0  0  0  0
   -0.5095   -4.1007    0.0000 C   0  0  0  0  0  0  0  0  0  0  0  0
   -0.1329    4.6394    0.0000 C   0  0  0  0  0  0  0  0  0  0  0  0
   -1.4694    3.6717    0.0000 C   0  0  0  0  0  0  0  0  0  0  0  0
   -1.2240   -4.5132    0.0000 C   0  0  0  0  0  0  0  0  0  0  0  0
   -1.9384   -3.2756    0.0000 C   0  0  0  0  0  0  0  0  0  0  0  0
   -1.5542    4.4925    0.0000 C   0  0  0  0  0  0  0  0  0  0  0  0
   -1.2240   -2.3516    0.0000 H   0  0  0  0  0  0  0  0  0  0  0  0
   -2.6531   -2.3516    0.0000 H   0  0  0  0  0  0  0  0  0  0  0  0
   -3.0960   -3.1188    0.0000 H   0  0  0  0  0  0  0  0  0  0  0  0
   -2.7218    4.5294    0.0000 H   0  0  0  0  0  0  0  0  0  0  0  0
   -2.3600    5.3381    0.0000 H   0  0  0  0  0  0  0  0  0  0  0  0
    2.8677   -1.0736    0.0000 H   0  0  0  0  0  0  0  0  0  0  0  0
    1.8759   -3.4370    0.0000 H   0  0  0  0  0  0  0  0  0  0  0  0
    1.6202    1.0325    0.0000 H   0  0  0  0  0  0  0  0  0  0  0  0
    4.0451    4.4945    0.0000 H   0  0  0  0  0  0  0  0  0  0  0  0
    2.0805    0.8806    0.0000 H   0  0  0  0  0  0  0  0  0  0  0  0
    1.2569    1.6750    0.0000 H   0  0  0  0  0  0  0  0  0  0  0  0
   -0.5268   -0.7358    0.0000 H   0  0  0  0  0  0  0  0  0  0  0  0
    1.1483   -0.1042    0.0000 H   0  0  0  0  0  0  0  0  0  0  0  0
    2.2667   -1.5022    0.0000 H   0  0  0  0  0  0  0  0  0  0  0  0
   -0.5297   -2.4054    0.0000 H   0  0  0  0  0  0  0  0  0  0  0  0
    1.1112    1.6906    0.0000 H   0  0  0  0  0  0  0  0  0  0  0  0
    0.6509    4.5504    0.0000 H   0  0  0  0  0  0  0  0  0  0  0  0
    2.3112    4.3730    0.0000 H   0  0  0  0  0  0  0  0  0  0  0  0
   -0.7701    0.1045    0.0000 H   0  0  0  0  0  0  0  0  0  0  0  0
   -0.4413   -0.9138    0.0000 H   0  0  0  0  0  0  0  0  0  0  0  0
    3.5543    2.7137    0.0000 H   0  0  0  0  0  0  0  0  0  0  0  0
    2.5073    2.4931    0.0000 H   0  0  0  0  0  0  0  0  0  0  0  0
    1.7845   -3.6881    0.0000 H   0  0  0  0  0  0  0  0  0  0  0  0
   -0.6102    2.3084    0.0000 H   0  0  0  0  0  0  0  0  0  0  0  0
   -2.3053    3.0665    0.0000 H   0  0  0  0  0  0  0  0  0  0  0  0
  1  4  1  0  0  0  0
  1  5  1  0  0  0  0
  1 10  1  0  0  0  0
  1 11  2  1  0  0  0
  2 23  1  0  0  0  0
  2 26  1  0  0  0  0
  3 28  1  0  0  0  0
  3 29  1  0  0  0  0
  5 30  1  0  0  0  0
  6 46  1  0  0  0  0
  7 47  1  0  0  0  0
  8 48  1  0  0  0  0
  9 31  1  0  0  0  0
  9 49  1  0  0  0  0
 10 50  1  0  0  0  0
 12 36  2  0  0  0  0
 13 38  2  0  0  0  0
 14 32  1  0  0  0  0
 14 33  1  0  0  0  0
 15 34  1  0  0  0  0
 15 36  1  0  0  0  0
 16 32  1  0  0  0  0
 16 39  1  0  0  0  0
 16 41  1  0  0  0  0
 17 33  2  0  0  0  0
 17 35  1  0  0  0  0
 18 36  1  0  0  0  0
 18 40  2  0  0  0  0
 19 38  1  0  0  0  0
 19 39  2  0  0  0  0
 20 39  1  0  0  0  0
 20 42  1  0  0  0  0
 20 43  1  0  0  0  0
 21 40  1  0  0  0  0
 21 44  1  0  0  0  0
 21 45  1  0  0  0  0
 22  4  1  0  0  0  0
 22 27  1  0  0  0  0
 22 28  1  0  0  0  0
 22 51  1  6  0  0  0
 23 24  1  0  0  0  0
 23 30  1  0  0  0  0
 23 52  1  1  0  0  0
 24  6  1  0  0  0  0
 24 25  1  0  0  0  0
 24 53  1  6  0  0  0
 25  7  1  0  0  0  0
 25 26  1  0  0  0  0
 25 54  1  6  0  0  0
 26 14  1  0  0  0  0
 26 55  1  1  0  0  0
 27  8  1  0  0  0  0
 27 29  1  0  0  0  0
 27 56  1  6  0  0  0
 28 15  1  0  0  0  0
 28 57  1  1  0  0  0
 29 31  1  0  0  0  0
 29 58  1  1  0  0  0
 30 59  1  0  0  0  0
 30 60  1  0  0  0  0
 31 61  1  0  0  0  0
 31 62  1  0  0  0  0
 32 35  2  0  0  0  0
 33 63  1  0  0  0  0
 34 37  2  0  0  0  0
 34 64  1  0  0  0  0
 35 38  1  0  0  0  0
 37 40  1  0  0  0  0
 37 65  1  0  0  0  0
M  END
>  <DRUGBANK_ID>
DB03638

>  <SECONDARY_ACCESSION_NUMBERS>
EXPT00898

>  <COMMON_NAME>
Cytidyl-2'-5'-phospho-guanosine

$$$$
