
 OpenBabel10282417072D

 57 59  0  0  0  0  0  0  0  0999 V2000
    0.6147   -2.4223    0.0000 O   0  0  0  0  0  0  0  0  0  0  0  0
   -0.8142   -2.4278    0.0000 O   0  0  0  0  0  0  0  0  0  0  0  0
    2.7437    1.2982    0.0000 O   0  0  0  0  0  0  0  0  0  0  0  0
    5.6047    0.4843    0.0000 O   0  0  0  0  0  0  0  0  0  0  0  0
   -3.7328    0.0271    0.0000 O   0  0  0  0  0  0  0  0  0  0  0  0
    4.8950   -0.7558    0.0000 O   0  0  0  0  0  0  0  0  0  0  0  0
    5.5951    2.9593    0.0000 O   0  0  0  0  0  0  0  0  0  0  0  0
    4.1662    2.9537    0.0000 O   0  0  0  0  0  0  0  0  0  0  0  0
    3.4629    0.0636    0.0000 N   0  0  0  0  0  0  0  0  0  0  0  0
   -3.7328   -2.4478    0.0000 N   0  0  0  0  0  0  0  0  0  0  0  0
   -4.4472   -1.2103    0.0000 N   0  0  0  0  0  0  0  0  0  0  0  0
   -5.1618   -2.4478    0.0000 N   0  0  0  0  0  0  0  0  0  0  0  0
   -0.1044   -1.1876    0.0000 C   0  0  2  0  0  0  0  0  0  0  0  0
   -0.8205   -0.7778    0.0000 C   0  0  0  0  0  0  0  0  0  0  0  0
    0.6083   -0.7724    0.0000 C   0  0  0  0  0  0  0  0  0  0  0  0
   -1.5334   -1.1931    0.0000 C   0  0  0  0  0  0  0  0  0  0  0  0
    4.1758    0.4788    0.0000 C   0  0  1  0  0  0  0  0  0  0  0  0
   -2.2808   -0.7692    0.0000 C   0  0  0  0  0  0  0  0  0  0  0  0
    0.6051    0.0525    0.0000 C   0  0  0  0  0  0  0  0  0  0  0  0
    1.3243   -1.1821    0.0000 C   0  0  0  0  0  0  0  0  0  0  0  0
   -0.1013   -2.0126    0.0000 C   0  0  0  0  0  0  0  0  0  0  0  0
   -1.5334   -2.0524    0.0000 C   0  0  0  0  0  0  0  0  0  0  0  0
   -3.0184   -1.2103    0.0000 C   0  0  0  0  0  0  0  0  0  0  0  0
    4.1726    1.3038    0.0000 C   0  0  0  0  0  0  0  0  0  0  0  0
    2.0340    0.0580    0.0000 C   0  0  0  0  0  0  0  0  0  0  0  0
   -3.0184   -2.0353    0.0000 C   0  0  0  0  0  0  0  0  0  0  0  0
    1.3180    0.4678    0.0000 C   0  0  0  0  0  0  0  0  0  0  0  0
    2.0372   -0.7669    0.0000 C   0  0  0  0  0  0  0  0  0  0  0  0
   -2.2808   -2.4763    0.0000 C   0  0  0  0  0  0  0  0  0  0  0  0
    2.7469    0.4733    0.0000 C   0  0  0  0  0  0  0  0  0  0  0  0
    4.8855    1.7191    0.0000 C   0  0  0  0  0  0  0  0  0  0  0  0
   -3.7328   -0.7978    0.0000 C   0  0  0  0  0  0  0  0  0  0  0  0
    4.8918    0.0691    0.0000 C   0  0  0  0  0  0  0  0  0  0  0  0
   -4.4472   -2.0353    0.0000 C   0  0  0  0  0  0  0  0  0  0  0  0
    4.8823    2.5440    0.0000 C   0  0  0  0  0  0  0  0  0  0  0  0
    3.4649   -0.4478    0.0000 H   0  0  0  0  0  0  0  0  0  0  0  0
   -3.7328   -2.9593    0.0000 H   0  0  0  0  0  0  0  0  0  0  0  0
   -5.1618   -2.9593    0.0000 H   0  0  0  0  0  0  0  0  0  0  0  0
   -5.6047   -2.1920    0.0000 H   0  0  0  0  0  0  0  0  0  0  0  0
    0.6183   -3.3593    0.0000 H   0  0  0  0  0  0  0  0  0  0  0  0
    6.4179    0.0189    0.0000 H   0  0  0  0  0  0  0  0  0  0  0  0
    6.4084    2.4940    0.0000 H   0  0  0  0  0  0  0  0  0  0  0  0
   -1.0290   -1.7261    0.0000 H   0  0  0  0  0  0  0  0  0  0  0  0
   -0.8246    0.2922    0.0000 H   0  0  0  0  0  0  0  0  0  0  0  0
   -1.7492   -0.2464    0.0000 H   0  0  0  0  0  0  0  0  0  0  0  0
    3.2471    1.0102    0.0000 H   0  0  0  0  0  0  0  0  0  0  0  0
   -2.2927    0.2627    0.0000 H   0  0  0  0  0  0  0  0  0  0  0  0
   -0.2906    0.5650    0.0000 H   0  0  0  0  0  0  0  0  0  0  0  0
    1.3282   -2.2141    0.0000 H   0  0  0  0  0  0  0  0  0  0  0  0
   -0.6416   -2.5718    0.0000 H   0  0  0  0  0  0  0  0  0  0  0  0
    3.2439    1.8352    0.0000 H   0  0  0  0  0  0  0  0  0  0  0  0
    4.1684    2.3738    0.0000 H   0  0  0  0  0  0  0  0  0  0  0  0
    1.3141    1.4998    0.0000 H   0  0  0  0  0  0  0  0  0  0  0  0
    2.9329   -1.2795    0.0000 H   0  0  0  0  0  0  0  0  0  0  0  0
   -2.2926   -3.5082    0.0000 H   0  0  0  0  0  0  0  0  0  0  0  0
    5.8142    1.1877    0.0000 H   0  0  0  0  0  0  0  0  0  0  0  0
    5.8101    2.2577    0.0000 H   0  0  0  0  0  0  0  0  0  0  0  0
  1 21  1  0  0  0  0
  1 40  1  0  0  0  0
  2 21  2  0  0  0  0
  3 30  2  0  0  0  0
  4 33  1  0  0  0  0
  4 41  1  0  0  0  0
  5 32  2  0  0  0  0
  6 33  2  0  0  0  0
  7 35  1  0  0  0  0
  7 42  1  0  0  0  0
  8 35  2  0  0  0  0
  9 30  1  0  0  0  0
  9 36  1  0  0  0  0
 10 26  1  0  0  0  0
 10 34  1  0  0  0  0
 10 37  1  0  0  0  0
 11 32  1  0  0  0  0
 11 34  2  0  0  0  0
 12 34  1  0  0  0  0
 12 38  1  0  0  0  0
 12 39  1  0  0  0  0
 13 14  1  0  0  0  0
 13 15  1  0  0  0  0
 13 21  1  0  0  0  0
 13 43  1  1  0  0  0
 14 16  1  0  0  0  0
 14 44  1  0  0  0  0
 14 45  1  0  0  0  0
 15 19  2  0  0  0  0
 15 20  1  0  0  0  0
 16 18  2  0  0  0  0
 16 22  1  0  0  0  0
 17  9  1  0  0  0  0
 17 24  1  0  0  0  0
 17 33  1  0  0  0  0
 17 46  1  6  0  0  0
 18 23  1  0  0  0  0
 18 47  1  0  0  0  0
 19 27  1  0  0  0  0
 19 48  1  0  0  0  0
 20 28  2  0  0  0  0
 20 49  1  0  0  0  0
 22 29  2  0  0  0  0
 22 50  1  0  0  0  0
 23 26  2  0  0  0  0
 23 32  1  0  0  0  0
 24 31  1  0  0  0  0
 24 51  1  0  0  0  0
 24 52  1  0  0  0  0
 25 27  2  0  0  0  0
 25 28  1  0  0  0  0
 25 30  1  0  0  0  0
 26 29  1  0  0  0  0
 27 53  1  0  0  0  0
 28 54  1  0  0  0  0
 29 55  1  0  0  0  0
 31 35  1  0  0  0  0
 31 56  1  0  0  0  0
 31 57  1  0  0  0  0
M  END
>  <DRUGBANK_ID>
DB04264

>  <SECONDARY_ACCESSION_NUMBERS>
EXPT02347

>  <COMMON_NAME>
(10R)-10-formyl-5,8,10-trideazafolic acid

$$$$
