1230
 OpenBabel10282417072D

 21 22  0  0  1  0  0  0  0  0999 V2000
    2.3888    0.5203    0.0000 O   0  0  0  0  0  0  0  0  0  0  0  0
    4.5083    0.2653    0.0000 O   0  0  0  0  0  0  0  0  0  0  0  0
    3.4687    1.3049    0.0000 N   0  0  0  0  0  0  0  0  0  0  0  0
    2.1587    1.9724    0.0000 N   0  0  0  0  0  0  0  0  0  0  0  0
    3.0562    0.0354    0.0000 C   0  0  3  0  0  0  0  0  0  0  0  0
    3.0562   -0.7896    0.0000 C   0  0  0  0  0  0  0  0  0  0  0  0
    3.7236    0.5203    0.0000 C   0  0  0  0  0  0  0  0  0  0  0  0
    3.7707   -1.2021    0.0000 C   0  0  0  0  0  0  0  0  0  0  0  0
    2.3417   -1.2021    0.0000 C   0  0  0  0  0  0  0  0  0  0  0  0
    2.6437    1.3049    0.0000 C   0  0  0  0  0  0  0  0  0  0  0  0
    3.7707   -2.0272    0.0000 C   0  0  0  0  0  0  0  0  0  0  0  0
    2.3417   -2.0272    0.0000 C   0  0  0  0  0  0  0  0  0  0  0  0
    3.0562   -2.4397    0.0000 C   0  0  0  0  0  0  0  0  0  0  0  0
    2.5591    2.8718    0.0000 H   0  0  0  0  0  0  0  0  0  0  0  0
    1.1796    1.8695    0.0000 H   0  0  0  0  0  0  0  0  0  0  0  0
    2.1028   -0.4504    0.0000 H   0  0  0  0  0  0  0  0  0  0  0  0
    4.6644   -0.6861    0.0000 H   0  0  0  0  0  0  0  0  0  0  0  0
    1.4480   -0.6861    0.0000 H   0  0  0  0  0  0  0  0  0  0  0  0
    4.6644   -2.5432    0.0000 H   0  0  0  0  0  0  0  0  0  0  0  0
    1.4480   -2.5432    0.0000 H   0  0  0  0  0  0  0  0  0  0  0  0
    3.0562   -3.4717    0.0000 H   0  0  0  0  0  0  0  0  0  0  0  0
  1  5  1  0  0  0  0
  1 10  1  0  0  0  0
  2  7  2  0  0  0  0
  3  7  1  0  0  0  0
  3 10  2  0  0  0  0
  4 10  1  0  0  0  0
  4 14  1  0  0  0  0
  4 15  1  0  0  0  0
  5  6  1  0  0  0  0
  5  7  1  0  0  0  0
  5 16  1  0  0  0  0
  6  8  2  0  0  0  0
  6  9  1  0  0  0  0
  8 11  1  0  0  0  0
  8 17  1  0  0  0  0
  9 12  2  0  0  0  0
  9 18  1  0  0  0  0
 11 13  2  0  0  0  0
 11 19  1  0  0  0  0
 12 13  1  0  0  0  0
 12 20  1  0  0  0  0
 13 21  1  0  0  0  0
M  END
>  <DRUGBANK_ID>
DB01230

>  <SECONDARY_ACCESSION_NUMBERS>
APRD01169

>  <COMMON_NAME>
Pemoline

>  <CAS_NUMBER>
2152-34-3

>  <UNII>
7GAQ2332NK

>  <SYNONYMS>
pemolina; Pemoline

$$$$
