
 OpenBabel10282417072D

 61 63  0  0  0  0  0  0  0  0999 V2000
   -4.2481    1.6790    0.0000 C   0  0  0  0  0  0  0  0  0  0  0  0
   -3.5337    2.0915    0.0000 C   0  0  0  0  0  0  0  0  0  0  0  0
   -3.5337    2.9165    0.0000 C   0  0  0  0  0  0  0  0  0  0  0  0
   -2.8192    3.3290    0.0000 C   0  0  0  0  0  0  0  0  0  0  0  0
   -2.1047    2.9165    0.0000 O   0  0  0  0  0  0  0  0  0  0  0  0
   -2.1047    2.0915    0.0000 C   0  0  0  0  0  0  0  0  0  0  0  0
   -2.8192    1.6790    0.0000 O   0  0  0  0  0  0  0  0  0  0  0  0
   -1.3903    1.6790    0.0000 N   0  0  0  0  0  0  0  0  0  0  0  0
   -1.3903    0.8540    0.0000 S   0  0  0  0  0  0  0  0  0  0  0  0
   -2.2153    0.8540    0.0000 O   0  0  0  0  0  0  0  0  0  0  0  0
   -0.5653    0.8540    0.0000 O   0  0  0  0  0  0  0  0  0  0  0  0
   -1.3903    0.0290    0.0000 C   0  0  0  0  0  0  0  0  0  0  0  0
   -0.7228   -0.4558    0.0000 C   0  0  0  0  0  0  0  0  0  0  0  0
   -0.9778   -1.2405    0.0000 C   0  0  0  0  0  0  0  0  0  0  0  0
   -1.8028   -1.2405    0.0000 C   0  0  0  0  0  0  0  0  0  0  0  0
   -2.2876   -1.9079    0.0000 C   0  0  0  0  0  0  0  0  0  0  0  0
   -1.9521   -2.6616    0.0000 C   0  0  0  0  0  0  0  0  0  0  0  0
   -1.1316   -2.7478    0.0000 C   0  0  0  0  0  0  0  0  0  0  0  0
   -2.4370   -3.3290    0.0000 C   0  0  0  0  0  0  0  0  0  0  0  0
   -2.0577   -0.4558    0.0000 S   0  0  0  0  0  0  0  0  0  0  0  0
    0.0617   -0.2009    0.0000 C   0  0  0  0  0  0  0  0  0  0  0  0
    0.2332    0.6060    0.0000 C   0  0  0  0  0  0  0  0  0  0  0  0
    1.0179    0.8609    0.0000 C   0  0  0  0  0  0  0  0  0  0  0  0
    1.6310    0.3089    0.0000 C   0  0  0  0  0  0  0  0  0  0  0  0
    2.4156    0.5638    0.0000 C   0  0  0  0  0  0  0  0  0  0  0  0
    3.0287    0.0118    0.0000 N   0  0  0  0  0  0  0  0  0  0  0  0
    3.8356    0.1833    0.0000 C   0  0  0  0  0  0  0  0  0  0  0  0
    4.2481   -0.5311    0.0000 C   0  0  0  0  0  0  0  0  0  0  0  0
    3.6961   -1.1441    0.0000 N   0  0  0  0  0  0  0  0  0  0  0  0
    2.9424   -0.8086    0.0000 C   0  0  0  0  0  0  0  0  0  0  0  0
    1.4594   -0.4980    0.0000 C   0  0  0  0  0  0  0  0  0  0  0  0
    0.6748   -0.7530    0.0000 C   0  0  0  0  0  0  0  0  0  0  0  0
   -5.1748    2.2140    0.0000 H   0  0  0  0  0  0  0  0  0  0  0  0
   -4.2481    0.6090    0.0000 H   0  0  0  0  0  0  0  0  0  0  0  0
   -5.1747    1.1440    0.0000 H   0  0  0  0  0  0  0  0  0  0  0  0
   -2.6070    1.5565    0.0000 H   0  0  0  0  0  0  0  0  0  0  0  0
   -2.6071    2.6265    0.0000 H   0  0  0  0  0  0  0  0  0  0  0  0
   -4.4603    3.4515    0.0000 H   0  0  0  0  0  0  0  0  0  0  0  0
   -3.5337    3.9865    0.0000 H   0  0  0  0  0  0  0  0  0  0  0  0
   -2.8192    4.3990    0.0000 H   0  0  0  0  0  0  0  0  0  0  0  0
   -1.8926    3.8640    0.0000 H   0  0  0  0  0  0  0  0  0  0  0  0
   -0.5377    2.1712    0.0000 H   0  0  0  0  0  0  0  0  0  0  0  0
   -0.3712   -2.0754    0.0000 H   0  0  0  0  0  0  0  0  0  0  0  0
   -3.3517   -1.7961    0.0000 H   0  0  0  0  0  0  0  0  0  0  0  0
   -2.9166   -2.7735    0.0000 H   0  0  0  0  0  0  0  0  0  0  0  0
   -1.5169   -3.6391    0.0000 H   0  0  0  0  0  0  0  0  0  0  0  0
   -0.6963   -3.7253    0.0000 H   0  0  0  0  0  0  0  0  0  0  0  0
   -0.5027   -1.8821    0.0000 H   0  0  0  0  0  0  0  0  0  0  0  0
   -0.0675   -2.8596    0.0000 H   0  0  0  0  0  0  0  0  0  0  0  0
   -3.5011   -3.2171    0.0000 H   0  0  0  0  0  0  0  0  0  0  0  0
   -2.0018   -4.3065    0.0000 H   0  0  0  0  0  0  0  0  0  0  0  0
   -3.0659   -4.1946    0.0000 H   0  0  0  0  0  0  0  0  0  0  0  0
   -0.5337    1.2966    0.0000 H   0  0  0  0  0  0  0  0  0  0  0  0
    1.2325    1.8703    0.0000 H   0  0  0  0  0  0  0  0  0  0  0  0
    2.6381    1.6104    0.0000 H   0  0  0  0  0  0  0  0  0  0  0  0
    3.4332    0.8945    0.0000 H   0  0  0  0  0  0  0  0  0  0  0  0
    4.2553    1.1261    0.0000 H   0  0  0  0  0  0  0  0  0  0  0  0
    5.2744   -0.6390    0.0000 H   0  0  0  0  0  0  0  0  0  0  0  0
    2.0487   -1.3246    0.0000 H   0  0  0  0  0  0  0  0  0  0  0  0
    2.2263   -1.1886    0.0000 H   0  0  0  0  0  0  0  0  0  0  0  0
    0.4602   -1.7625    0.0000 H   0  0  0  0  0  0  0  0  0  0  0  0
  1  2  1  0  0  0  0
  1 33  1  0  0  0  0
  1 34  1  0  0  0  0
  1 35  1  0  0  0  0
  2  3  1  0  0  0  0
  2 36  1  0  0  0  0
  2 37  1  0  0  0  0
  3  4  1  0  0  0  0
  3 38  1  0  0  0  0
  3 39  1  0  0  0  0
  4  5  1  0  0  0  0
  4 40  1  0  0  0  0
  4 41  1  0  0  0  0
  5  6  1  0  0  0  0
  6  7  2  0  0  0  0
  6  8  1  0  0  0  0
  8  9  1  0  0  0  0
  8 42  1  0  0  0  0
  9 10  2  0  0  0  0
  9 11  2  0  0  0  0
  9 12  1  0  0  0  0
 12 13  2  0  0  0  0
 12 20  1  0  0  0  0
 13 14  1  0  0  0  0
 13 21  1  0  0  0  0
 14 15  2  0  0  0  0
 14 43  1  0  0  0  0
 15 16  1  0  0  0  0
 15 20  1  0  0  0  0
 16 17  1  0  0  0  0
 16 44  1  0  0  0  0
 16 45  1  0  0  0  0
 17 18  1  0  0  0  0
 17 19  1  0  0  0  0
 17 46  1  0  0  0  0
 18 47  1  0  0  0  0
 18 48  1  0  0  0  0
 18 49  1  0  0  0  0
 19 50  1  0  0  0  0
 19 51  1  0  0  0  0
 19 52  1  0  0  0  0
 21 22  2  0  0  0  0
 21 32  1  0  0  0  0
 22 23  1  0  0  0  0
 22 53  1  0  0  0  0
 23 24  2  0  0  0  0
 23 54  1  0  0  0  0
 24 25  1  0  0  0  0
 24 31  1  0  0  0  0
 25 26  1  0  0  0  0
 25 55  1  0  0  0  0
 25 56  1  0  0  0  0
 26 27  1  0  0  0  0
 26 30  1  0  0  0  0
 27 28  2  0  0  0  0
 27 57  1  0  0  0  0
 28 29  1  0  0  0  0
 28 58  1  0  0  0  0
 29 30  2  0  0  0  0
 30 59  1  0  0  0  0
 31 32  2  0  0  0  0
 31 60  1  0  0  0  0
 32 61  1  0  0  0  0
M  END
>  <DRUGBANK_ID>
DB18038

>  <COMMON_NAME>
Buloxibutid

>  <CAS_NUMBER>
477775-14-7

>  <UNII>
RC2V4W0EYC

>  <SYNONYMS>
Butyl [3-[4-[(1H-imidazol-1-yl)methyl]phenyl]-5-isobutylthiophen-2-yl]sulfonylcarbamate; butyl [3-{4-[(1H-imidazol-1-yl)methyl]phenyl}-5-(2-methylpropyl)thiophene-2-sulfonyl]carbamate; Carbamic acid, [[3-[4-(1H-imidazol-1-ylmethyl)phenyl]-5-(2-methylpropyl)-2-thienyl]sulfonyl]-, butyl ester; COMPOUND 21; T2 AGONIST COMPOUND 21

$$$$
