ASE
 OpenBabel10282417072D

 30 31  0  0  0  0  0  0  0  0999 V2000
   -2.1330    0.9224    0.0000 C   0  0  0  0  0  0  0  0  0  0  0  0
   -1.3261    0.7509    0.0000 C   0  0  0  0  0  0  0  0  0  0  0  0
   -1.0711   -0.0337    0.0000 C   0  0  0  0  0  0  0  0  0  0  0  0
   -2.6851    0.3093    0.0000 C   0  0  0  0  0  0  0  0  0  0  0  0
   -2.4301   -0.4753    0.0000 C   0  0  0  0  0  0  0  0  0  0  0  0
   -1.6232   -0.6468    0.0000 C   0  0  0  0  0  0  0  0  0  0  0  0
   -0.3175   -0.3693    0.0000 C   0  0  0  0  0  0  0  0  0  0  0  0
   -0.4037   -1.1898    0.0000 C   0  0  0  0  0  0  0  0  0  0  0  0
   -1.2107   -1.3613    0.0000 N   0  0  0  0  0  0  0  0  0  0  0  0
   -2.3880    1.7070    0.0000 O   0  0  0  0  0  0  0  0  0  0  0  0
    0.3970    0.0432    0.0000 C   0  0  0  0  0  0  0  0  0  0  0  0
    1.1115   -0.3693    0.0000 C   0  0  0  0  0  0  0  0  0  0  0  0
    1.8260    0.0432    0.0000 N   0  0  0  0  0  0  0  0  0  0  0  0
    2.5404   -0.3693    0.0000 C   0  0  0  0  0  0  0  0  0  0  0  0
    3.2549    0.0432    0.0000 C   0  0  0  0  0  0  0  0  0  0  0  0
    2.5404   -1.1943    0.0000 O   0  0  0  0  0  0  0  0  0  0  0  0
   -0.6356    1.5179    0.0000 H   0  0  0  0  0  0  0  0  0  0  0  0
   -3.6946    0.5239    0.0000 H   0  0  0  0  0  0  0  0  0  0  0  0
   -3.1206   -1.2423    0.0000 H   0  0  0  0  0  0  0  0  0  0  0  0
    0.3632   -1.8803    0.0000 H   0  0  0  0  0  0  0  0  0  0  0  0
   -1.6112   -2.2607    0.0000 H   0  0  0  0  0  0  0  0  0  0  0  0
   -1.7611    2.4034    0.0000 H   0  0  0  0  0  0  0  0  0  0  0  0
    0.3970    1.1132    0.0000 H   0  0  0  0  0  0  0  0  0  0  0  0
    1.3236    0.5782    0.0000 H   0  0  0  0  0  0  0  0  0  0  0  0
    1.1115   -1.4393    0.0000 H   0  0  0  0  0  0  0  0  0  0  0  0
    2.0381   -0.9043    0.0000 H   0  0  0  0  0  0  0  0  0  0  0  0
    1.8260    1.0277    0.0000 H   0  0  0  0  0  0  0  0  0  0  0  0
    4.1815   -0.4918    0.0000 H   0  0  0  0  0  0  0  0  0  0  0  0
    3.2549    1.1132    0.0000 H   0  0  0  0  0  0  0  0  0  0  0  0
    4.1816    0.5782    0.0000 H   0  0  0  0  0  0  0  0  0  0  0  0
  1  2  2  0  0  0  0
  1  4  1  0  0  0  0
  1 10  1  0  0  0  0
  2  3  1  0  0  0  0
  2 17  1  0  0  0  0
  3  6  2  0  0  0  0
  3  7  1  0  0  0  0
  4  5  2  0  0  0  0
  4 18  1  0  0  0  0
  5  6  1  0  0  0  0
  5 19  1  0  0  0  0
  6  9  1  0  0  0  0
  7  8  2  0  0  0  0
  7 11  1  0  0  0  0
  8  9  1  0  0  0  0
  8 20  1  0  0  0  0
  9 21  1  0  0  0  0
 10 22  1  0  0  0  0
 11 12  1  0  0  0  0
 11 23  1  0  0  0  0
 11 24  1  0  0  0  0
 12 13  1  0  0  0  0
 12 25  1  0  0  0  0
 12 26  1  0  0  0  0
 13 14  1  0  0  0  0
 13 27  1  0  0  0  0
 14 15  1  0  0  0  0
 14 16  2  0  0  0  0
 15 28  1  0  0  0  0
 15 29  1  0  0  0  0
 15 30  1  0  0  0  0
M  END
>  <DRUGBANK_ID>
DB04275

>  <SECONDARY_ACCESSION_NUMBERS>
EXPT00570

>  <COMMON_NAME>
N-acetylserotonin

>  <CAS_NUMBER>
1210-83-9

>  <UNII>
P4TO3C82WV

>  <SYNONYMS>
N-(2-(5-Hydroxy-1H-indol-3-yl)ethyl)acetamide; N-acetyl serotonin; N-Acetyl-5-hydroxytryptamine

$$$$
