
 OpenBabel10282417072D

109112  0  0  1  0  0  0  0  0999 V2000
    6.6881  -10.5220    0.0000 C   0  0  0  0  0  0  0  0  0  0  0  0
    7.4025  -10.1094    0.0000 C   0  0  0  0  0  0  0  0  0  0  0  0
    8.1171  -10.5220    0.0000 N   0  0  0  0  0  0  0  0  0  0  0  0
    8.8315  -10.1094    0.0000 C   0  0  2  0  0  0  0  0  0  0  0  0
    9.5460  -10.5220    0.0000 C   0  0  0  0  0  0  0  0  0  0  0  0
   10.2605  -10.1094    0.0000 N   0  0  0  0  0  0  0  0  0  0  0  0
   10.9750  -10.5220    0.0000 C   0  0  2  0  0  0  0  0  0  0  0  0
   11.6895  -10.1094    0.0000 C   0  0  0  0  0  0  0  0  0  0  0  0
   12.4040  -10.5220    0.0000 N   0  0  0  0  0  0  0  0  0  0  0  0
   13.1185  -10.1094    0.0000 C   0  0  2  0  0  0  0  0  0  0  0  0
   13.8330  -10.5220    0.0000 C   0  0  0  0  0  0  0  0  0  0  0  0
   14.5474  -10.1094    0.0000 N   0  0  0  0  0  0  0  0  0  0  0  0
   15.2619  -10.5220    0.0000 C   0  0  2  0  0  0  0  0  0  0  0  0
   15.9765  -10.1094    0.0000 C   0  0  0  0  0  0  0  0  0  0  0  0
    5.9736  -10.1094    0.0000 N   0  0  0  0  0  0  0  0  0  0  0  0
   16.6390  -10.5165    0.0000 C   0  0  2  0  0  0  0  0  0  0  0  0
    5.9736   -9.2846    0.0000 C   0  0  0  0  0  0  0  0  0  0  0  0
    5.2592   -8.8721    0.0000 C   0  0  0  0  0  0  0  0  0  0  0  0
    4.5446   -9.2845    0.0000 O   0  0  0  0  0  0  0  0  0  0  0  0
    4.5446  -10.1094    0.0000 C   0  0  0  0  0  0  0  0  0  0  0  0
    5.2592  -10.5220    0.0000 C   0  0  0  0  0  0  0  0  0  0  0  0
   15.9466   -9.2846    0.0000 O   0  0  0  0  0  0  0  0  0  0  0  0
   13.8330  -11.3469    0.0000 O   0  0  0  0  0  0  0  0  0  0  0  0
   11.6895   -9.2845    0.0000 O   0  0  0  0  0  0  0  0  0  0  0  0
    9.5460  -11.3469    0.0000 O   0  0  0  0  0  0  0  0  0  0  0  0
    7.4025   -9.2846    0.0000 O   0  0  0  0  0  0  0  0  0  0  0  0
   13.1185   -9.2844    0.0000 C   0  0  0  0  0  0  0  0  0  0  0  0
    8.8315   -9.2844    0.0000 C   0  0  0  0  0  0  0  0  0  0  0  0
   15.2619  -11.3470    0.0000 C   0  0  0  0  0  0  0  0  0  0  0  0
   10.9750  -11.3470    0.0000 C   0  0  0  0  0  0  0  0  0  0  0  0
   17.3549  -10.1289    0.0000 O   0  0  0  0  0  0  0  0  0  0  0  0
   17.3535  -10.9291    0.0000 C   0  0  0  0  0  0  0  0  0  0  0  0
   13.8365   -8.8699    0.0000 C   0  0  0  0  0  0  0  0  0  0  0  0
    9.5472   -8.8712    0.0000 C   0  0  0  0  0  0  0  0  0  0  0  0
    9.5472   -8.0462    0.0000 C   0  0  0  0  0  0  0  0  0  0  0  0
   10.2517   -7.6393    0.0000 C   0  0  0  0  0  0  0  0  0  0  0  0
   10.2516   -6.8143    0.0000 C   0  0  0  0  0  0  0  0  0  0  0  0
    9.5371   -6.4019    0.0000 C   0  0  0  0  0  0  0  0  0  0  0  0
    8.8326   -6.8087    0.0000 C   0  0  0  0  0  0  0  0  0  0  0  0
    8.8327   -7.6337    0.0000 C   0  0  0  0  0  0  0  0  0  0  0  0
   14.5428   -9.2777    0.0000 C   0  0  0  0  0  0  0  0  0  0  0  0
   15.2573   -8.8653    0.0000 C   0  0  0  0  0  0  0  0  0  0  0  0
   15.2574   -8.0403    0.0000 C   0  0  0  0  0  0  0  0  0  0  0  0
   14.5511   -7.6324    0.0000 C   0  0  0  0  0  0  0  0  0  0  0  0
   13.8366   -8.0448    0.0000 C   0  0  0  0  0  0  0  0  0  0  0  0
   11.6895  -11.7595    0.0000 C   0  0  0  0  0  0  0  0  0  0  0  0
   12.3964  -11.3513    0.0000 C   0  0  0  0  0  0  0  0  0  0  0  0
   11.6895  -12.5844    0.0000 C   0  0  0  0  0  0  0  0  0  0  0  0
   15.9764  -11.7595    0.0000 C   0  0  0  0  0  0  0  0  0  0  0  0
   16.6857  -11.3499    0.0000 C   0  0  0  0  0  0  0  0  0  0  0  0
   15.9765  -12.5845    0.0000 C   0  0  0  0  0  0  0  0  0  0  0  0
   16.6390   -9.6915    0.0000 C   0  0  0  0  0  0  0  0  0  0  0  0
    6.6881  -11.5920    0.0000 H   0  0  0  0  0  0  0  0  0  0  0  0
    5.7614  -11.0570    0.0000 H   0  0  0  0  0  0  0  0  0  0  0  0
    8.1172  -11.5065    0.0000 H   0  0  0  0  0  0  0  0  0  0  0  0
    7.9048   -9.5745    0.0000 H   0  0  0  0  0  0  0  0  0  0  0  0
   10.2605   -9.1249    0.0000 H   0  0  0  0  0  0  0  0  0  0  0  0
   10.0483  -11.0570    0.0000 H   0  0  0  0  0  0  0  0  0  0  0  0
   12.4040  -11.5065    0.0000 H   0  0  0  0  0  0  0  0  0  0  0  0
   12.1918   -9.5744    0.0000 H   0  0  0  0  0  0  0  0  0  0  0  0
   14.5474   -9.1249    0.0000 H   0  0  0  0  0  0  0  0  0  0  0  0
   14.3352  -11.0570    0.0000 H   0  0  0  0  0  0  0  0  0  0  0  0
    6.9003   -8.7496    0.0000 H   0  0  0  0  0  0  0  0  0  0  0  0
    5.9736   -8.2146    0.0000 H   0  0  0  0  0  0  0  0  0  0  0  0
    5.2593   -7.8021    0.0000 H   0  0  0  0  0  0  0  0  0  0  0  0
    4.3326   -8.3370    0.0000 H   0  0  0  0  0  0  0  0  0  0  0  0
    3.6179  -10.6444    0.0000 H   0  0  0  0  0  0  0  0  0  0  0  0
    4.5446  -11.1794    0.0000 H   0  0  0  0  0  0  0  0  0  0  0  0
    5.2593  -11.5920    0.0000 H   0  0  0  0  0  0  0  0  0  0  0  0
    6.1859  -11.0569    0.0000 H   0  0  0  0  0  0  0  0  0  0  0  0
   12.1919   -8.7494    0.0000 H   0  0  0  0  0  0  0  0  0  0  0  0
   13.1185   -8.2144    0.0000 H   0  0  0  0  0  0  0  0  0  0  0  0
    7.9049   -8.7494    0.0000 H   0  0  0  0  0  0  0  0  0  0  0  0
    8.8315   -8.2144    0.0000 H   0  0  0  0  0  0  0  0  0  0  0  0
   14.3353  -11.8820    0.0000 H   0  0  0  0  0  0  0  0  0  0  0  0
   15.2619  -12.4170    0.0000 H   0  0  0  0  0  0  0  0  0  0  0  0
   10.0484  -11.8820    0.0000 H   0  0  0  0  0  0  0  0  0  0  0  0
   10.9750  -12.4170    0.0000 H   0  0  0  0  0  0  0  0  0  0  0  0
   17.8876  -11.8562    0.0000 H   0  0  0  0  0  0  0  0  0  0  0  0
   18.3874  -10.6535    0.0000 H   0  0  0  0  0  0  0  0  0  0  0  0
   10.4738   -9.4062    0.0000 H   0  0  0  0  0  0  0  0  0  0  0  0
   10.4738   -8.3362    0.0000 H   0  0  0  0  0  0  0  0  0  0  0  0
   11.1455   -8.1552    0.0000 H   0  0  0  0  0  0  0  0  0  0  0  0
   11.1453   -6.2982    0.0000 H   0  0  0  0  0  0  0  0  0  0  0  0
    9.5370   -5.3699    0.0000 H   0  0  0  0  0  0  0  0  0  0  0  0
    7.9388   -6.2928    0.0000 H   0  0  0  0  0  0  0  0  0  0  0  0
    7.9390   -8.1498    0.0000 H   0  0  0  0  0  0  0  0  0  0  0  0
   14.5427  -10.3097    0.0000 H   0  0  0  0  0  0  0  0  0  0  0  0
   16.1510   -9.3814    0.0000 H   0  0  0  0  0  0  0  0  0  0  0  0
   16.1512   -7.5244    0.0000 H   0  0  0  0  0  0  0  0  0  0  0  0
   14.5512   -6.6004    0.0000 H   0  0  0  0  0  0  0  0  0  0  0  0
   12.9429   -7.5287    0.0000 H   0  0  0  0  0  0  0  0  0  0  0  0
   12.6162  -12.2945    0.0000 H   0  0  0  0  0  0  0  0  0  0  0  0
   13.3231  -11.8862    0.0000 H   0  0  0  0  0  0  0  0  0  0  0  0
   12.3963  -10.2813    0.0000 H   0  0  0  0  0  0  0  0  0  0  0  0
   13.3230  -10.8162    0.0000 H   0  0  0  0  0  0  0  0  0  0  0  0
   10.7629  -13.1194    0.0000 H   0  0  0  0  0  0  0  0  0  0  0  0
   12.6161  -13.1194    0.0000 H   0  0  0  0  0  0  0  0  0  0  0  0
   11.6895  -13.6544    0.0000 H   0  0  0  0  0  0  0  0  0  0  0  0
   16.9031  -12.2944    0.0000 H   0  0  0  0  0  0  0  0  0  0  0  0
   17.6124  -11.8848    0.0000 H   0  0  0  0  0  0  0  0  0  0  0  0
   16.6856  -10.2799    0.0000 H   0  0  0  0  0  0  0  0  0  0  0  0
   17.6123  -10.8148    0.0000 H   0  0  0  0  0  0  0  0  0  0  0  0
   15.0499  -13.1196    0.0000 H   0  0  0  0  0  0  0  0  0  0  0  0
   16.9032  -13.1194    0.0000 H   0  0  0  0  0  0  0  0  0  0  0  0
   15.9766  -13.6545    0.0000 H   0  0  0  0  0  0  0  0  0  0  0  0
   17.5656   -9.1565    0.0000 H   0  0  0  0  0  0  0  0  0  0  0  0
   15.7124   -9.1565    0.0000 H   0  0  0  0  0  0  0  0  0  0  0  0
   16.6390   -8.6215    0.0000 H   0  0  0  0  0  0  0  0  0  0  0  0
  1  2  1  0  0  0  0
  1 15  1  0  0  0  0
  1 53  1  0  0  0  0
  1 54  1  0  0  0  0
  2  3  1  0  0  0  0
  2 26  2  0  0  0  0
  3  4  1  0  0  0  0
  3 55  1  0  0  0  0
  4  5  1  0  0  0  0
  4 28  1  0  0  0  0
  4 56  1  6  0  0  0
  5  6  1  0  0  0  0
  5 25  2  0  0  0  0
  6  7  1  0  0  0  0
  6 57  1  0  0  0  0
  7  8  1  0  0  0  0
  7 30  1  0  0  0  0
  7 58  1  1  0  0  0
  8  9  1  0  0  0  0
  8 24  2  0  0  0  0
  9 10  1  0  0  0  0
  9 59  1  0  0  0  0
 10 11  1  0  0  0  0
 10 27  1  0  0  0  0
 10 60  1  6  0  0  0
 11 12  1  0  0  0  0
 11 23  2  0  0  0  0
 12 13  1  0  0  0  0
 12 61  1  0  0  0  0
 13 14  1  0  0  0  0
 13 29  1  0  0  0  0
 13 62  1  1  0  0  0
 14 22  2  0  0  0  0
 15 17  1  0  0  0  0
 15 21  1  0  0  0  0
 16 14  1  6  0  0  0
 16 31  1  0  0  0  0
 16 32  1  0  0  0  0
 16 52  1  0  0  0  0
 17 18  1  0  0  0  0
 17 63  1  0  0  0  0
 17 64  1  0  0  0  0
 18 19  1  0  0  0  0
 18 65  1  0  0  0  0
 18 66  1  0  0  0  0
 19 20  1  0  0  0  0
 20 21  1  0  0  0  0
 20 67  1  0  0  0  0
 20 68  1  0  0  0  0
 21 69  1  0  0  0  0
 21 70  1  0  0  0  0
 27 33  1  0  0  0  0
 27 71  1  0  0  0  0
 27 72  1  0  0  0  0
 28 34  1  0  0  0  0
 28 73  1  0  0  0  0
 28 74  1  0  0  0  0
 29 49  1  0  0  0  0
 29 75  1  0  0  0  0
 29 76  1  0  0  0  0
 30 46  1  0  0  0  0
 30 77  1  0  0  0  0
 30 78  1  0  0  0  0
 31 32  1  0  0  0  0
 32 79  1  0  0  0  0
 32 80  1  0  0  0  0
 33 41  2  0  0  0  0
 33 45  1  0  0  0  0
 34 35  1  0  0  0  0
 34 81  1  0  0  0  0
 34 82  1  0  0  0  0
 35 36  2  0  0  0  0
 35 40  1  0  0  0  0
 36 37  1  0  0  0  0
 36 83  1  0  0  0  0
 37 38  2  0  0  0  0
 37 84  1  0  0  0  0
 38 39  1  0  0  0  0
 38 85  1  0  0  0  0
 39 40  2  0  0  0  0
 39 86  1  0  0  0  0
 40 87  1  0  0  0  0
 41 42  1  0  0  0  0
 41 88  1  0  0  0  0
 42 43  2  0  0  0  0
 42 89  1  0  0  0  0
 43 44  1  0  0  0  0
 43 90  1  0  0  0  0
 44 45  2  0  0  0  0
 44 91  1  0  0  0  0
 45 92  1  0  0  0  0
 46 47  1  0  0  0  0
 46 48  1  0  0  0  0
 46 93  1  0  0  0  0
 47 94  1  0  0  0  0
 47 95  1  0  0  0  0
 47 96  1  0  0  0  0
 48 97  1  0  0  0  0
 48 98  1  0  0  0  0
 48 99  1  0  0  0  0
 49 50  1  0  0  0  0
 49 51  1  0  0  0  0
 49100  1  0  0  0  0
 50101  1  0  0  0  0
 50102  1  0  0  0  0
 50103  1  0  0  0  0
 51104  1  0  0  0  0
 51105  1  0  0  0  0
 51106  1  0  0  0  0
 52107  1  0  0  0  0
 52108  1  0  0  0  0
 52109  1  0  0  0  0
M  END
>  <DRUGBANK_ID>
DB08889

>  <COMMON_NAME>
Carfilzomib

>  <CAS_NUMBER>
868540-17-4

>  <UNII>
72X6E3J5AR

>  <SYNONYMS>
Carfilzomib

$$$$
