
 OpenBabel10282417072D

140142  0  0  0  0  0  0  0  0999 V2000
    6.4303   -1.4437    0.0000 C   0  0  1  0  0  0  0  0  0  0  0  0
    5.7158   -1.0312    0.0000 O   0  0  0  0  0  0  0  0  0  0  0  0
    5.0013   -1.4437    0.0000 C   0  0  2  0  0  0  0  0  0  0  0  0
    5.0013   -2.2687    0.0000 C   0  0  2  0  0  0  0  0  0  0  0  0
    5.7158   -2.6812    0.0000 C   0  0  2  0  0  0  0  0  0  0  0  0
    6.4302   -2.2687    0.0000 C   0  0  2  0  0  0  0  0  0  0  0  0
    4.2868   -1.0312    0.0000 O   0  0  0  0  0  0  0  0  0  0  0  0
    4.2868   -0.2062    0.0000 C   0  0  2  0  0  0  0  0  0  0  0  0
    5.0013    0.2062    0.0000 C   0  0  0  0  0  0  0  0  0  0  0  0
    3.5724    0.2062    0.0000 C   0  0  0  0  0  0  0  0  0  0  0  0
    2.8579   -0.2062    0.0000 C   0  0  0  0  0  0  0  0  0  0  0  0
    2.1434    0.2062    0.0000 C   0  0  0  0  0  0  0  0  0  0  0  0
    1.4289   -0.2062    0.0000 C   0  0  0  0  0  0  0  0  0  0  0  0
    0.7144    0.2062    0.0000 C   0  0  0  0  0  0  0  0  0  0  0  0
    0.0000   -0.2062    0.0000 C   0  0  0  0  0  0  0  0  0  0  0  0
   -0.7144    0.2062    0.0000 C   0  0  0  0  0  0  0  0  0  0  0  0
   -1.4289   -0.2062    0.0000 C   0  0  0  0  0  0  0  0  0  0  0  0
   -2.1433    0.2062    0.0000 C   0  0  0  0  0  0  0  0  0  0  0  0
   -2.8579   -0.2062    0.0000 C   0  0  0  0  0  0  0  0  0  0  0  0
   -3.5723    0.2062    0.0000 C   0  0  0  0  0  0  0  0  0  0  0  0
   -4.2867   -0.2062    0.0000 C   0  0  0  0  0  0  0  0  0  0  0  0
   -5.0012    0.2062    0.0000 C   0  0  0  0  0  0  0  0  0  0  0  0
   -5.7158   -0.2062    0.0000 C   0  0  0  0  0  0  0  0  0  0  0  0
   -6.4302    0.2062    0.0000 C   0  0  2  0  0  0  0  0  0  0  0  0
   -7.1447   -0.2062    0.0000 C   0  0  0  0  0  0  0  0  0  0  0  0
   -6.4302    1.0312    0.0000 C   0  0  1  0  0  0  0  0  0  0  0  0
   -7.1447    1.4437    0.0000 O   0  0  0  0  0  0  0  0  0  0  0  0
   -5.7158    1.4437    0.0000 C   0  0  1  0  0  0  0  0  0  0  0  0
   -5.0012    1.0312    0.0000 C   0  0  0  0  0  0  0  0  0  0  0  0
   -5.7158    2.2687    0.0000 C   0  0  2  0  0  0  0  0  0  0  0  0
   -6.4302    2.6812    0.0000 C   0  0  0  0  0  0  0  0  0  0  0  0
   -5.0012    2.6812    0.0000 O   0  0  0  0  0  0  0  0  0  0  0  0
   -4.2867    2.2687    0.0000 C   0  0  0  0  0  0  0  0  0  0  0  0
   -3.5723    2.6812    0.0000 C   0  0  0  0  0  0  0  0  0  0  0  0
   -2.8579    2.2687    0.0000 C   0  0  1  0  0  0  0  0  0  0  0  0
   -2.1433    2.6812    0.0000 C   0  0  0  0  0  0  0  0  0  0  0  0
   -1.4289    2.2687    0.0000 C   0  0  1  0  0  0  0  0  0  0  0  0
   -0.7144    2.6812    0.0000 C   0  0  0  0  0  0  0  0  0  0  0  0
    0.0000    2.2687    0.0000 C   0  0  1  0  0  0  0  0  0  0  0  0
    0.7144    2.6812    0.0000 C   0  0  0  0  0  0  0  0  0  0  0  0
    1.4289    2.2687    0.0000 C   0  0  0  0  0  0  0  0  0  0  0  0
    2.1434    2.6812    0.0000 C   0  0  2  0  0  0  0  0  0  0  0  0
    2.8579    2.2687    0.0000 C   0  0  1  0  0  0  0  0  0  0  0  0
    3.5724    2.6812    0.0000 C   0  0  0  0  0  0  0  0  0  0  0  0
    4.2868    2.2687    0.0000 C   0  0  2  0  0  0  0  0  0  0  0  0
    5.0013    2.6812    0.0000 C   0  0  0  0  0  0  0  0  0  0  0  0
    5.7158    2.2687    0.0000 C   0  0  1  0  0  0  0  0  0  0  0  0
    5.7158    1.4437    0.0000 C   0  0  1  0  0  0  0  0  0  0  0  0
    6.4302    1.0312    0.0000 C   0  0  0  0  0  0  0  0  0  0  0  0
    5.0013    1.0312    0.0000 C   0  0  1  0  0  0  0  0  0  0  0  0
    6.4302    2.6812    0.0000 O   0  0  0  0  0  0  0  0  0  0  0  0
    6.4302    0.2062    0.0000 O   0  0  0  0  0  0  0  0  0  0  0  0
    7.1447    1.4437    0.0000 O   0  0  0  0  0  0  0  0  0  0  0  0
    7.1447   -1.0312    0.0000 C   0  0  0  0  0  0  0  0  0  0  0  0
    7.1447   -2.6812    0.0000 O   0  0  0  0  0  0  0  0  0  0  0  0
    5.7158   -3.5062    0.0000 N   0  0  0  0  0  0  0  0  0  0  0  0
    4.2868   -2.6812    0.0000 O   0  0  0  0  0  0  0  0  0  0  0  0
   -4.2867    1.4437    0.0000 O   0  0  0  0  0  0  0  0  0  0  0  0
   -2.8579    1.4437    0.0000 O   0  0  0  0  0  0  0  0  0  0  0  0
   -1.4289    1.4437    0.0000 O   0  0  0  0  0  0  0  0  0  0  0  0
    0.0000    1.4437    0.0000 O   0  0  0  0  0  0  0  0  0  0  0  0
    2.1434    3.5062    0.0000 O   0  0  0  0  0  0  0  0  0  0  0  0
    2.8579    1.4437    0.0000 O   0  0  0  0  0  0  0  0  0  0  0  0
    4.2868    1.4437    0.0000 O   0  0  0  0  0  0  0  0  0  0  0  0
    4.2868    3.0937    0.0000 O   0  0  0  0  0  0  0  0  0  0  0  0
    5.8673    0.5312    0.0000 H   0  0  0  0  0  0  0  0  0  0  0  0
    6.4303   -0.3737    0.0000 H   0  0  0  0  0  0  0  0  0  0  0  0
    5.0013   -0.3737    0.0000 H   0  0  0  0  0  0  0  0  0  0  0  0
    4.0747   -1.7337    0.0000 H   0  0  0  0  0  0  0  0  0  0  0  0
    4.7892   -3.2162    0.0000 H   0  0  0  0  0  0  0  0  0  0  0  0
    7.3569   -1.7337    0.0000 H   0  0  0  0  0  0  0  0  0  0  0  0
    5.2134   -0.7413    0.0000 H   0  0  0  0  0  0  0  0  0  0  0  0
    5.9279   -0.3289    0.0000 H   0  0  0  0  0  0  0  0  0  0  0  0
    5.9280    0.7412    0.0000 H   0  0  0  0  0  0  0  0  0  0  0  0
    3.5724    1.2382    0.0000 H   0  0  0  0  0  0  0  0  0  0  0  0
    2.8579   -1.2382    0.0000 H   0  0  0  0  0  0  0  0  0  0  0  0
    2.1434    1.2382    0.0000 H   0  0  0  0  0  0  0  0  0  0  0  0
    1.4289   -1.2382    0.0000 H   0  0  0  0  0  0  0  0  0  0  0  0
    0.7144    1.2382    0.0000 H   0  0  0  0  0  0  0  0  0  0  0  0
    0.0000   -1.2382    0.0000 H   0  0  0  0  0  0  0  0  0  0  0  0
   -0.7144    1.2382    0.0000 H   0  0  0  0  0  0  0  0  0  0  0  0
   -1.4289   -1.2382    0.0000 H   0  0  0  0  0  0  0  0  0  0  0  0
   -2.1432    1.2762    0.0000 H   0  0  0  0  0  0  0  0  0  0  0  0
   -3.0699    0.7413    0.0000 H   0  0  0  0  0  0  0  0  0  0  0  0
   -2.8580   -1.2762    0.0000 H   0  0  0  0  0  0  0  0  0  0  0  0
   -3.7845   -0.7412    0.0000 H   0  0  0  0  0  0  0  0  0  0  0  0
   -3.5723    1.2382    0.0000 H   0  0  0  0  0  0  0  0  0  0  0  0
   -4.2867   -1.2382    0.0000 H   0  0  0  0  0  0  0  0  0  0  0  0
   -5.0012    1.2382    0.0000 H   0  0  0  0  0  0  0  0  0  0  0  0
   -5.7159   -1.2382    0.0000 H   0  0  0  0  0  0  0  0  0  0  0  0
   -6.4302   -0.8638    0.0000 H   0  0  0  0  0  0  0  0  0  0  0  0
   -8.0713    0.3289    0.0000 H   0  0  0  0  0  0  0  0  0  0  0  0
   -7.1448   -1.2762    0.0000 H   0  0  0  0  0  0  0  0  0  0  0  0
   -8.0714   -0.7411    0.0000 H   0  0  0  0  0  0  0  0  0  0  0  0
   -7.3568    0.4962    0.0000 H   0  0  0  0  0  0  0  0  0  0  0  0
   -7.1447    2.4137    0.0000 H   0  0  0  0  0  0  0  0  0  0  0  0
   -5.7157    0.3737    0.0000 H   0  0  0  0  0  0  0  0  0  0  0  0
   -5.0011   -0.0388    0.0000 H   0  0  0  0  0  0  0  0  0  0  0  0
   -4.0746    1.5663    0.0000 H   0  0  0  0  0  0  0  0  0  0  0  0
   -4.0745    0.4963    0.0000 H   0  0  0  0  0  0  0  0  0  0  0  0
   -6.6425    1.7337    0.0000 H   0  0  0  0  0  0  0  0  0  0  0  0
   -6.4302    3.7512    0.0000 H   0  0  0  0  0  0  0  0  0  0  0  0
   -7.3569    2.1462    0.0000 H   0  0  0  0  0  0  0  0  0  0  0  0
   -7.3568    3.2162    0.0000 H   0  0  0  0  0  0  0  0  0  0  0  0
   -3.5723    3.7512    0.0000 H   0  0  0  0  0  0  0  0  0  0  0  0
   -2.6456    3.2162    0.0000 H   0  0  0  0  0  0  0  0  0  0  0  0
   -3.7846    1.7337    0.0000 H   0  0  0  0  0  0  0  0  0  0  0  0
   -2.1432    3.7512    0.0000 H   0  0  0  0  0  0  0  0  0  0  0  0
   -1.2166    3.2162    0.0000 H   0  0  0  0  0  0  0  0  0  0  0  0
   -2.3556    1.7337    0.0000 H   0  0  0  0  0  0  0  0  0  0  0  0
   -0.7144    3.7512    0.0000 H   0  0  0  0  0  0  0  0  0  0  0  0
    0.2123    3.2162    0.0000 H   0  0  0  0  0  0  0  0  0  0  0  0
   -0.9267    1.7337    0.0000 H   0  0  0  0  0  0  0  0  0  0  0  0
    0.7144    3.7512    0.0000 H   0  0  0  0  0  0  0  0  0  0  0  0
    1.6410    3.2162    0.0000 H   0  0  0  0  0  0  0  0  0  0  0  0
    1.4289    1.1987    0.0000 H   0  0  0  0  0  0  0  0  0  0  0  0
    2.3555    1.7337    0.0000 H   0  0  0  0  0  0  0  0  0  0  0  0
    1.2168    3.2162    0.0000 H   0  0  0  0  0  0  0  0  0  0  0  0
    1.9313    1.7337    0.0000 H   0  0  0  0  0  0  0  0  0  0  0  0
    3.5724    3.7512    0.0000 H   0  0  0  0  0  0  0  0  0  0  0  0
    4.4991    3.2162    0.0000 H   0  0  0  0  0  0  0  0  0  0  0  0
    5.0013    3.7512    0.0000 H   0  0  0  0  0  0  0  0  0  0  0  0
    5.9279    3.2162    0.0000 H   0  0  0  0  0  0  0  0  0  0  0  0
    5.7158    3.3387    0.0000 H   0  0  0  0  0  0  0  0  0  0  0  0
    6.6425    1.9787    0.0000 H   0  0  0  0  0  0  0  0  0  0  0  0
    7.2703    2.1962    0.0000 H   0  0  0  0  0  0  0  0  0  0  0  0
    5.6187   -0.2623    0.0000 H   0  0  0  0  0  0  0  0  0  0  0  0
    8.0714   -1.5662    0.0000 H   0  0  0  0  0  0  0  0  0  0  0  0
    7.1447    0.0388    0.0000 H   0  0  0  0  0  0  0  0  0  0  0  0
    8.0713   -0.4962    0.0000 H   0  0  0  0  0  0  0  0  0  0  0  0
    7.1447   -3.6512    0.0000 H   0  0  0  0  0  0  0  0  0  0  0  0
    4.8325   -4.0162    0.0000 H   0  0  0  0  0  0  0  0  0  0  0  0
    6.5991   -4.0162    0.0000 H   0  0  0  0  0  0  0  0  0  0  0  0
    3.4468   -2.1962    0.0000 H   0  0  0  0  0  0  0  0  0  0  0  0
   -3.6979    0.9587    0.0000 H   0  0  0  0  0  0  0  0  0  0  0  0
   -2.2689    0.9587    0.0000 H   0  0  0  0  0  0  0  0  0  0  0  0
   -0.8400    0.9587    0.0000 H   0  0  0  0  0  0  0  0  0  0  0  0
    2.9834    3.9912    0.0000 H   0  0  0  0  0  0  0  0  0  0  0  0
    2.0179    0.9587    0.0000 H   0  0  0  0  0  0  0  0  0  0  0  0
    5.1268    3.5787    0.0000 H   0  0  0  0  0  0  0  0  0  0  0  0
  1  2  1  0  0  0  0
  1 54  1  0  0  0  0
  1 67  1  1  0  0  0
  3  2  1  0  0  0  0
  3  7  1  0  0  0  0
  3 68  1  1  0  0  0
  4  3  1  0  0  0  0
  4  5  1  0  0  0  0
  4 57  1  0  0  0  0
  4 69  1  1  0  0  0
  5  6  1  0  0  0  0
  5 56  1  0  0  0  0
  5 70  1  1  0  0  0
  6  1  1  0  0  0  0
  6 55  1  0  0  0  0
  6 71  1  6  0  0  0
  8  7  1  0  0  0  0
  8  9  1  0  0  0  0
  8 10  1  0  0  0  0
  8 72  1  6  0  0  0
  9 73  1  0  0  0  0
  9 74  1  0  0  0  0
 10 11  2  0  0  0  0
 10 75  1  0  0  0  0
 11 12  1  0  0  0  0
 11 76  1  0  0  0  0
 12 13  2  0  0  0  0
 12 77  1  0  0  0  0
 13 14  1  0  0  0  0
 13 78  1  0  0  0  0
 14 15  2  0  0  0  0
 14 79  1  0  0  0  0
 15 16  1  0  0  0  0
 15 80  1  0  0  0  0
 16 17  2  0  0  0  0
 16 81  1  0  0  0  0
 17 18  1  0  0  0  0
 17 82  1  0  0  0  0
 18 19  1  0  0  0  0
 18 83  1  0  0  0  0
 18 84  1  0  0  0  0
 19 20  1  0  0  0  0
 19 85  1  0  0  0  0
 19 86  1  0  0  0  0
 20 21  2  0  0  0  0
 20 87  1  0  0  0  0
 21 22  1  0  0  0  0
 21 88  1  0  0  0  0
 22 23  2  0  0  0  0
 22 89  1  0  0  0  0
 23 90  1  0  0  0  0
 24 23  1  0  0  0  0
 24 25  1  0  0  0  0
 24 91  1  1  0  0  0
 25 92  1  0  0  0  0
 25 93  1  0  0  0  0
 25 94  1  0  0  0  0
 26 24  1  0  0  0  0
 26 27  1  0  0  0  0
 26 28  1  0  0  0  0
 26 95  1  6  0  0  0
 27 96  1  0  0  0  0
 28 29  1  0  0  0  0
 28 30  1  0  0  0  0
 28 97  1  1  0  0  0
 29 98  1  0  0  0  0
 29 99  1  0  0  0  0
 29100  1  0  0  0  0
 30 31  1  0  0  0  0
 30 32  1  0  0  0  0
 30101  1  1  0  0  0
 31102  1  0  0  0  0
 31103  1  0  0  0  0
 31104  1  0  0  0  0
 32 33  1  0  0  0  0
 33 34  1  0  0  0  0
 33 58  2  0  0  0  0
 34105  1  0  0  0  0
 34106  1  0  0  0  0
 35 34  1  0  0  0  0
 35 36  1  0  0  0  0
 35 59  1  0  0  0  0
 35107  1  6  0  0  0
 36108  1  0  0  0  0
 36109  1  0  0  0  0
 37 36  1  0  0  0  0
 37 38  1  0  0  0  0
 37 60  1  0  0  0  0
 37110  1  6  0  0  0
 38111  1  0  0  0  0
 38112  1  0  0  0  0
 39 38  1  0  0  0  0
 39 40  1  0  0  0  0
 39 61  1  0  0  0  0
 39113  1  6  0  0  0
 40 41  1  0  0  0  0
 40114  1  0  0  0  0
 40115  1  0  0  0  0
 41116  1  0  0  0  0
 41117  1  0  0  0  0
 42 41  1  0  0  0  0
 42 43  1  0  0  0  0
 42 62  1  0  0  0  0
 42118  1  6  0  0  0
 43 44  1  0  0  0  0
 43 63  1  0  0  0  0
 43119  1  6  0  0  0
 44120  1  0  0  0  0
 44121  1  0  0  0  0
 45 44  1  0  0  0  0
 45 46  1  0  0  0  0
 45 64  1  0  0  0  0
 45 65  1  1  0  0  0
 46122  1  0  0  0  0
 46123  1  0  0  0  0
 47 46  1  0  0  0  0
 47 51  1  0  0  0  0
 47124  1  1  0  0  0
 48 47  1  0  0  0  0
 48 49  1  0  0  0  0
 48 50  1  0  0  0  0
 48125  1  6  0  0  0
 49 52  1  0  0  0  0
 49 53  2  0  0  0  0
 50  9  1  0  0  0  0
 50 64  1  0  0  0  0
 50 66  1  1  0  0  0
 51126  1  0  0  0  0
 52127  1  0  0  0  0
 54128  1  0  0  0  0
 54129  1  0  0  0  0
 54130  1  0  0  0  0
 55131  1  0  0  0  0
 56132  1  0  0  0  0
 56133  1  0  0  0  0
 57134  1  0  0  0  0
 59135  1  0  0  0  0
 60136  1  0  0  0  0
 61137  1  0  0  0  0
 62138  1  0  0  0  0
 63139  1  0  0  0  0
 65140  1  0  0  0  0
M  END
>  <DRUGBANK_ID>
DB00646

>  <SECONDARY_ACCESSION_NUMBERS>
APRD01146

>  <COMMON_NAME>
Nystatin

>  <CAS_NUMBER>
1400-61-9

>  <UNII>
W1LX4T91WI

>  <SYNONYMS>
Nistatina; NYS; Nystatin; Nystatine; Nystatinum

$$$$
