
 OpenBabel10282417072D

 17 17  0  0  0  0  0  0  0  0999 V2000
   -0.9196   -0.3017    0.0000 C   0  0  0  0  0  0  0  0  0  0  0  0
   -0.3362    0.2816    0.0000 C   0  0  1  0  0  0  0  0  0  0  0  0
    0.2471   -0.3017    0.0000 C   0  0  0  0  0  0  0  0  0  0  0  0
   -0.3362   -0.8851    0.0000 C   0  0  1  0  0  0  0  0  0  0  0  0
   -0.3362   -1.7102    0.0000 F   0  0  0  0  0  0  0  0  0  0  0  0
   -0.7673    0.9851    0.0000 N   0  0  0  0  0  0  0  0  0  0  0  0
    0.0948    0.9851    0.0000 C   0  0  0  0  0  0  0  0  0  0  0  0
   -0.2988    1.7102    0.0000 O   0  0  0  0  0  0  0  0  0  0  0  0
    0.9196    0.9635    0.0000 O   0  0  0  0  0  0  0  0  0  0  0  0
   -1.9896   -0.3017    0.0000 H   0  0  0  0  0  0  0  0  0  0  0  0
   -1.3291   -1.2902    0.0000 H   0  0  0  0  0  0  0  0  0  0  0  0
    1.3171   -0.3017    0.0000 H   0  0  0  0  0  0  0  0  0  0  0  0
    0.6566   -1.2902    0.0000 H   0  0  0  0  0  0  0  0  0  0  0  0
    0.6524   -1.2945    0.0000 H   0  0  0  0  0  0  0  0  0  0  0  0
   -0.2806    1.8815    0.0000 H   0  0  0  0  0  0  0  0  0  0  0  0
   -1.7870    0.9584    0.0000 H   0  0  0  0  0  0  0  0  0  0  0  0
    1.3667    0.1400    0.0000 H   0  0  0  0  0  0  0  0  0  0  0  0
  1  2  1  0  0  0  0
  1  4  1  0  0  0  0
  1 10  1  0  0  0  0
  1 11  1  0  0  0  0
  2  3  1  0  0  0  0
  2  6  1  0  0  0  0
  2  7  1  1  0  0  0
  3  4  1  0  0  0  0
  3 12  1  0  0  0  0
  3 13  1  0  0  0  0
  4  5  1  0  0  0  0
  4 14  1  6  0  0  0
  6 15  1  0  0  0  0
  6 16  1  0  0  0  0
  7  8  2  0  0  0  0
  7  9  1  0  0  0  0
  9 17  1  0  0  0  0
M  ISO  1   5  18
M  END
>  <DRUGBANK_ID>
DB13146

>  <COMMON_NAME>
Fluciclovine (18F)

>  <CAS_NUMBER>
222727-39-1

>  <UNII>
38R1Q0L1ZE

>  <SYNONYMS>
(18F)FACBC; (1R,3R)-1-amino-3(18F)fluorocyclobutane-1-carboxylic acid; Anti-1-amino-3-(18F)fluorocyclobutane-1-carboxylic acid; FACBC F-18; Fluciclovine (18F); Fluciclovine F 18; Fluciclovine F-18

$$$$
