
 OpenBabel10282417072D

 48 50  0  0  0  0  0  0  0  0999 V2000
   -3.1759   -1.8613    0.0000 C   0  0  0  0  0  0  0  0  0  0  0  0
   -2.5346   -1.1776    0.0000 C   0  0  3  0  0  0  0  0  0  0  0  0
   -2.3714   -1.6362    0.0000 C   0  0  3  0  0  0  0  0  0  0  0  0
   -1.8233   -1.4403    0.0000 C   0  0  0  0  0  0  0  0  0  0  0  0
   -1.6187   -1.9391    0.0000 C   0  0  0  0  0  0  0  0  0  0  0  0
   -1.0764   -1.2552    0.0000 C   0  0  3  0  0  0  0  0  0  0  0  0
   -2.3740   -0.7837    0.0000 C   0  0  0  0  0  0  0  0  0  0  0  0
   -1.8175   -0.1258    0.0000 C   0  0  3  0  0  0  0  0  0  0  0  0
   -2.5391   -0.3822    0.0000 C   0  0  0  0  0  0  0  0  0  0  0  0
   -1.0696   -0.4359    0.0000 C   0  0  0  0  0  0  0  0  0  0  0  0
   -1.8228    0.6969    0.0000 N   0  0  0  0  0  0  0  0  0  0  0  0
   -1.1109    1.1141    0.0000 C   0  0  0  0  0  0  0  0  0  0  0  0
   -1.1162    1.9391    0.0000 O   0  0  0  0  0  0  0  0  0  0  0  0
   -0.3938    0.7060    0.0000 C   0  0  0  0  0  0  0  0  0  0  0  0
    0.3180    1.1231    0.0000 O   0  0  0  0  0  0  0  0  0  0  0  0
    1.0351    0.7152    0.0000 C   0  0  0  0  0  0  0  0  0  0  0  0
    1.7470    1.1321    0.0000 C   0  0  0  0  0  0  0  0  0  0  0  0
    2.4641    0.7242    0.0000 N   0  0  0  0  0  0  0  0  0  0  0  0
    3.1759    1.1413    0.0000 C   0  0  0  0  0  0  0  0  0  0  0  0
    2.4693   -0.1007    0.0000 C   0  0  0  0  0  0  0  0  0  0  0  0
   -4.0908   -2.4161    0.0000 H   0  0  0  0  0  0  0  0  0  0  0  0
   -2.7504   -2.8431    0.0000 H   0  0  0  0  0  0  0  0  0  0  0  0
   -2.2888   -2.2190    0.0000 H   0  0  0  0  0  0  0  0  0  0  0  0
   -2.4301   -2.7046    0.0000 H   0  0  0  0  0  0  0  0  0  0  0  0
   -1.8826   -2.5087    0.0000 H   0  0  0  0  0  0  0  0  0  0  0  0
   -0.9992   -2.1228    0.0000 H   0  0  0  0  0  0  0  0  0  0  0  0
   -1.3448   -2.9734    0.0000 H   0  0  0  0  0  0  0  0  0  0  0  0
   -0.5713   -2.1577    0.0000 H   0  0  0  0  0  0  0  0  0  0  0  0
   -1.9164   -0.5924    0.0000 H   0  0  0  0  0  0  0  0  0  0  0  0
   -3.3793   -0.4173    0.0000 H   0  0  0  0  0  0  0  0  0  0  0  0
   -3.2497   -1.3986    0.0000 H   0  0  0  0  0  0  0  0  0  0  0  0
   -3.4150    0.2324    0.0000 H   0  0  0  0  0  0  0  0  0  0  0  0
   -3.4870   -0.8785    0.0000 H   0  0  0  0  0  0  0  0  0  0  0  0
   -0.1774    0.1547    0.0000 H   0  0  0  0  0  0  0  0  0  0  0  0
   -1.1720    0.6292    0.0000 H   0  0  0  0  0  0  0  0  0  0  0  0
   -2.6786    1.1836    0.0000 H   0  0  0  0  0  0  0  0  0  0  0  0
   -0.3870   -0.3640    0.0000 H   0  0  0  0  0  0  0  0  0  0  0  0
    0.5362    0.1769    0.0000 H   0  0  0  0  0  0  0  0  0  0  0  0
    1.0418   -0.3548    0.0000 H   0  0  0  0  0  0  0  0  0  0  0  0
    1.9651    0.1860    0.0000 H   0  0  0  0  0  0  0  0  0  0  0  0
    1.7403    2.2021    0.0000 H   0  0  0  0  0  0  0  0  0  0  0  0
    2.6702    1.6730    0.0000 H   0  0  0  0  0  0  0  0  0  0  0  0
    4.1060    0.6123    0.0000 H   0  0  0  0  0  0  0  0  0  0  0  0
    3.1690    2.2113    0.0000 H   0  0  0  0  0  0  0  0  0  0  0  0
    4.0991    1.6823    0.0000 H   0  0  0  0  0  0  0  0  0  0  0  0
    1.5460   -0.6415    0.0000 H   0  0  0  0  0  0  0  0  0  0  0  0
    3.3993   -0.6298    0.0000 H   0  0  0  0  0  0  0  0  0  0  0  0
    2.4760   -1.1707    0.0000 H   0  0  0  0  0  0  0  0  0  0  0  0
  1  2  1  0  0  0  0
  1  3  1  0  0  0  0
  1 21  1  0  0  0  0
  1 22  1  0  0  0  0
  2  4  1  0  0  0  0
  2  9  1  0  0  0  0
  2 23  1  0  0  0  0
  3  5  1  0  0  0  0
  3  7  1  0  0  0  0
  3 24  1  0  0  0  0
  4  6  1  0  0  0  0
  4 25  1  0  0  0  0
  4 26  1  0  0  0  0
  5  6  1  0  0  0  0
  5 27  1  0  0  0  0
  5 28  1  0  0  0  0
  6 10  1  0  0  0  0
  6 29  1  0  0  0  0
  7  8  1  0  0  0  0
  7 30  1  0  0  0  0
  7 31  1  0  0  0  0
  8  9  1  0  0  0  0
  8 11  1  0  0  0  0
  9 32  1  0  0  0  0
  9 33  1  0  0  0  0
 10  8  1  0  0  0  0
 10 34  1  0  0  0  0
 10 35  1  0  0  0  0
 11 12  1  0  0  0  0
 11 36  1  0  0  0  0
 12 13  2  0  0  0  0
 12 14  1  0  0  0  0
 14 15  1  0  0  0  0
 14 37  1  0  0  0  0
 14 38  1  0  0  0  0
 15 16  1  0  0  0  0
 16 17  1  0  0  0  0
 16 39  1  0  0  0  0
 16 40  1  0  0  0  0
 17 18  1  0  0  0  0
 17 41  1  0  0  0  0
 17 42  1  0  0  0  0
 18 19  1  0  0  0  0
 18 20  1  0  0  0  0
 19 43  1  0  0  0  0
 19 44  1  0  0  0  0
 19 45  1  0  0  0  0
 20 46  1  0  0  0  0
 20 47  1  0  0  0  0
 20 48  1  0  0  0  0
M  END
>  <DRUGBANK_ID>
DB13288

>  <COMMON_NAME>
Tromantadine

>  <CAS_NUMBER>
53783-83-8

>  <UNII>
H191JFG8WA

>  <SYNONYMS>
Tromantadina; Tromantadine; Tromantadinum

$$$$
