
 OpenBabel10282417072D

 51 54  0  0  1  0  0  0  0  0999 V2000
    2.2581    0.8137    0.0000 C   0  0  0  0  0  0  0  0  0  0  0  0
    1.4717    0.5641    0.0000 C   0  0  1  0  0  0  0  0  0  0  0  0
    0.8760   -0.3738    0.0000 C   0  0  1  0  0  0  0  0  0  0  0  0
    1.6989   -0.3147    0.0000 C   0  0  0  0  0  0  0  0  0  0  0  0
    2.2389    0.3090    0.0000 C   0  0  0  0  0  0  0  0  0  0  0  0
    2.9811   -0.0512    0.0000 C   0  0  0  0  0  0  0  0  0  0  0  0
    3.6642    0.4115    0.0000 C   0  0  0  0  0  0  0  0  0  0  0  0
    3.6050    1.2344    0.0000 C   0  0  0  0  0  0  0  0  0  0  0  0
    2.8628    1.5946    0.0000 C   0  0  0  0  0  0  0  0  0  0  0  0
    2.1797    1.1319    0.0000 C   0  0  0  0  0  0  0  0  0  0  0  0
    1.5561    1.6719    0.0000 C   0  0  2  0  0  0  0  0  0  0  0  0
    0.7332    1.6128    0.0000 C   0  0  0  0  0  0  0  0  0  0  0  0
    0.1931    0.9891    0.0000 C   0  0  0  0  0  0  0  0  0  0  0  0
    0.2523    0.1662    0.0000 N   0  0  0  0  0  0  0  0  0  0  0  0
   -0.4853   -0.2033    0.0000 C   0  0  0  0  0  0  0  0  0  0  0  0
   -1.1741    0.2507    0.0000 C   0  0  0  0  0  0  0  0  0  0  0  0
   -1.9117   -0.1189    0.0000 C   0  0  0  0  0  0  0  0  0  0  0  0
   -1.9605   -0.9425    0.0000 C   0  0  0  0  0  0  0  0  0  0  0  0
   -2.6981   -1.3120    0.0000 C   0  0  0  0  0  0  0  0  0  0  0  0
   -3.3869   -0.8580    0.0000 C   0  0  0  0  0  0  0  0  0  0  0  0
   -3.3382   -0.0345    0.0000 C   0  0  0  0  0  0  0  0  0  0  0  0
   -2.6006    0.3351    0.0000 C   0  0  0  0  0  0  0  0  0  0  0  0
    1.8163    2.4548    0.0000 C   0  0  0  0  0  0  0  0  0  0  0  0
    4.2881    1.6971    0.0000 O   0  0  0  0  0  0  0  0  0  0  0  0
    3.0484    0.0923    0.0000 H   0  0  0  0  0  0  0  0  0  0  0  0
    2.4877    1.8588    0.0000 H   0  0  0  0  0  0  0  0  0  0  0  0
    3.2780    1.1374    0.0000 H   0  0  0  0  0  0  0  0  0  0  0  0
    2.1245   -0.2837    0.0000 H   0  0  0  0  0  0  0  0  0  0  0  0
    0.7207    0.6849    0.0000 H   0  0  0  0  0  0  0  0  0  0  0  0
    2.1782   -1.2714    0.0000 H   0  0  0  0  0  0  0  0  0  0  0  0
    2.7606   -0.4476    0.0000 H   0  0  0  0  0  0  0  0  0  0  0  0
    3.0551   -1.0805    0.0000 H   0  0  0  0  0  0  0  0  0  0  0  0
    4.5926   -0.0391    0.0000 H   0  0  0  0  0  0  0  0  0  0  0  0
    2.7888    2.6239    0.0000 H   0  0  0  0  0  0  0  0  0  0  0  0
    0.2540    2.5695    0.0000 H   0  0  0  0  0  0  0  0  0  0  0  0
   -0.3285    1.7458    0.0000 H   0  0  0  0  0  0  0  0  0  0  0  0
   -0.8223    1.3266    0.0000 H   0  0  0  0  0  0  0  0  0  0  0  0
   -0.6516    0.3324    0.0000 H   0  0  0  0  0  0  0  0  0  0  0  0
   -0.5486   -1.2714    0.0000 H   0  0  0  0  0  0  0  0  0  0  0  0
   -1.4420   -0.6826    0.0000 H   0  0  0  0  0  0  0  0  0  0  0  0
   -1.1109    1.3188    0.0000 H   0  0  0  0  0  0  0  0  0  0  0  0
   -2.0675    0.8395    0.0000 H   0  0  0  0  0  0  0  0  0  0  0  0
   -1.0988   -1.5105    0.0000 H   0  0  0  0  0  0  0  0  0  0  0  0
   -2.7591   -2.3422    0.0000 H   0  0  0  0  0  0  0  0  0  0  0  0
   -4.3096   -1.3203    0.0000 H   0  0  0  0  0  0  0  0  0  0  0  0
   -4.1999    0.5334    0.0000 H   0  0  0  0  0  0  0  0  0  0  0  0
   -2.5397    1.3653    0.0000 H   0  0  0  0  0  0  0  0  0  0  0  0
    2.8644    2.6702    0.0000 H   0  0  0  0  0  0  0  0  0  0  0  0
    1.1057    3.2548    0.0000 H   0  0  0  0  0  0  0  0  0  0  0  0
    2.1538    3.4702    0.0000 H   0  0  0  0  0  0  0  0  0  0  0  0
    5.1311    1.2880    0.0000 H   0  0  0  0  0  0  0  0  0  0  0  0
  1 25  1  0  0  0  0
  1 26  1  0  0  0  0
  1 27  1  0  0  0  0
  2  1  1  0  0  0  0
  2  3  1  0  0  0  0
  2 11  1  0  0  0  0
  2 28  1  6  0  0  0
  3  4  1  0  0  0  0
  3 14  1  0  0  0  0
  3 29  1  6  0  0  0
  4  5  1  0  0  0  0
  4 30  1  0  0  0  0
  4 31  1  0  0  0  0
  5  6  2  0  0  0  0
  5 10  1  0  0  0  0
  6  7  1  0  0  0  0
  6 32  1  0  0  0  0
  7  8  2  0  0  0  0
  7 33  1  0  0  0  0
  8  9  1  0  0  0  0
  8 24  1  0  0  0  0
  9 10  2  0  0  0  0
  9 34  1  0  0  0  0
 10 11  1  0  0  0  0
 11 12  1  0  0  0  0
 11 23  1  6  0  0  0
 12 13  1  0  0  0  0
 12 35  1  0  0  0  0
 12 36  1  0  0  0  0
 13 14  1  0  0  0  0
 13 37  1  0  0  0  0
 13 38  1  0  0  0  0
 14 15  1  0  0  0  0
 15 16  1  0  0  0  0
 15 39  1  0  0  0  0
 15 40  1  0  0  0  0
 16 17  1  0  0  0  0
 16 41  1  0  0  0  0
 16 42  1  0  0  0  0
 17 18  2  0  0  0  0
 17 22  1  0  0  0  0
 18 19  1  0  0  0  0
 18 43  1  0  0  0  0
 19 20  2  0  0  0  0
 19 44  1  0  0  0  0
 20 21  1  0  0  0  0
 20 45  1  0  0  0  0
 21 22  2  0  0  0  0
 21 46  1  0  0  0  0
 22 47  1  0  0  0  0
 23 48  1  0  0  0  0
 23 49  1  0  0  0  0
 23 50  1  0  0  0  0
 24 51  1  0  0  0  0
M  END
>  <DRUGBANK_ID>
DB13606

>  <COMMON_NAME>
Phenazocine

>  <CAS_NUMBER>
58073-76-0

>  <UNII>
J0ND6N0AQC

$$$$
