
 OpenBabel10282417072D

 54 57  0  0  0  0  0  0  0  0999 V2000
    0.4834    1.2986    0.0000 C   0  0  0  0  0  0  0  0  0  0  0  0
    0.4834    0.4683    0.0000 C   0  0  0  0  0  0  0  0  0  0  0  0
    1.2023    0.0532    0.0000 C   0  0  0  0  0  0  0  0  0  0  0  0
    1.9215    0.4683    0.0000 C   0  0  0  0  0  0  0  0  0  0  0  0
    1.9215    1.2986    0.0000 N   0  0  0  0  0  0  0  0  0  0  0  0
    1.2023    1.7137    0.0000 C   0  0  0  0  0  0  0  0  0  0  0  0
   -0.7881    0.8878    0.0000 N   0  0  0  0  0  0  0  0  0  0  0  0
   -0.3083    0.2189    0.0000 C   0  0  0  0  0  0  0  0  0  0  0  0
   -0.2986    1.5550    0.0000 N   0  0  0  0  0  0  0  0  0  0  0  0
    2.6405    2.5440    0.0000 C   0  0  0  0  0  0  0  0  0  0  0  0
    2.6405    1.7137    0.0000 N   0  0  0  0  0  0  0  0  0  0  0  0
    3.3594    1.2986    0.0000 C   0  0  0  0  0  0  0  0  0  0  0  0
    4.0786    1.7137    0.0000 C   0  0  0  0  0  0  0  0  0  0  0  0
    4.0786    2.5440    0.0000 C   0  0  0  0  0  0  0  0  0  0  0  0
    3.3594    2.9592    0.0000 C   0  0  0  0  0  0  0  0  0  0  0  0
    1.2023    2.5440    0.0000 O   0  0  0  0  0  0  0  0  0  0  0  0
   -1.6111    0.8878    0.0000 C   0  0  0  0  0  0  0  0  0  0  0  0
   -2.8434    0.1758    0.0000 C   0  0  0  0  0  0  0  0  0  0  0  0
   -2.0228    0.1750    0.0000 C   0  0  0  0  0  0  0  0  0  0  0  0
   -3.2552    0.8888    0.0000 C   0  0  0  0  0  0  0  0  0  0  0  0
   -2.0244    1.6036    0.0000 C   0  0  0  0  0  0  0  0  0  0  0  0
   -2.8470    1.5989    0.0000 C   0  0  0  0  0  0  0  0  0  0  0  0
   -0.5213   -0.5761    0.0000 C   0  0  0  0  0  0  0  0  0  0  0  0
   -0.1526   -1.9509    0.0000 C   0  0  0  0  0  0  0  0  0  0  0  0
    0.0604   -1.1583    0.0000 C   0  0  0  0  0  0  0  0  0  0  0  0
   -0.9479   -2.1638    0.0000 C   0  0  0  0  0  0  0  0  0  0  0  0
   -1.3199   -0.7901    0.0000 C   0  0  0  0  0  0  0  0  0  0  0  0
   -1.5281   -1.5858    0.0000 C   0  0  0  0  0  0  0  0  0  0  0  0
   -1.6132    2.3160    0.0000 Cl  0  0  0  0  0  0  0  0  0  0  0  0
   -4.0786    0.8888    0.0000 Cl  0  0  0  0  0  0  0  0  0  0  0  0
   -1.1610   -2.9592    0.0000 Br  0  0  0  0  0  0  0  0  0  0  0  0
    1.2022   -1.0168    0.0000 H   0  0  0  0  0  0  0  0  0  0  0  0
    0.2756   -0.4817    0.0000 H   0  0  0  0  0  0  0  0  0  0  0  0
    2.8481   -0.0668    0.0000 H   0  0  0  0  0  0  0  0  0  0  0  0
    1.9216    1.5383    0.0000 H   0  0  0  0  0  0  0  0  0  0  0  0
    2.8482    1.0032    0.0000 H   0  0  0  0  0  0  0  0  0  0  0  0
    1.9216    0.3141    0.0000 H   0  0  0  0  0  0  0  0  0  0  0  0
    1.7138    3.0789    0.0000 H   0  0  0  0  0  0  0  0  0  0  0  0
    2.6404    3.6140    0.0000 H   0  0  0  0  0  0  0  0  0  0  0  0
    3.3593    0.2286    0.0000 H   0  0  0  0  0  0  0  0  0  0  0  0
    2.4327    0.7637    0.0000 H   0  0  0  0  0  0  0  0  0  0  0  0
    5.0052    1.1786    0.0000 H   0  0  0  0  0  0  0  0  0  0  0  0
    4.0785    0.6437    0.0000 H   0  0  0  0  0  0  0  0  0  0  0  0
    5.0052    3.0790    0.0000 H   0  0  0  0  0  0  0  0  0  0  0  0
    5.0053    2.0090    0.0000 H   0  0  0  0  0  0  0  0  0  0  0  0
    3.3593    4.0292    0.0000 H   0  0  0  0  0  0  0  0  0  0  0  0
    2.4327    3.4941    0.0000 H   0  0  0  0  0  0  0  0  0  0  0  0
   -3.3598   -0.7177    0.0000 H   0  0  0  0  0  0  0  0  0  0  0  0
   -1.5073   -0.7190    0.0000 H   0  0  0  0  0  0  0  0  0  0  0  0
   -3.3664    2.4907    0.0000 H   0  0  0  0  0  0  0  0  0  0  0  0
    0.5768   -2.6810    0.0000 H   0  0  0  0  0  0  0  0  0  0  0  0
    1.0574   -0.8918    0.0000 H   0  0  0  0  0  0  0  0  0  0  0  0
   -2.0518   -0.0625    0.0000 H   0  0  0  0  0  0  0  0  0  0  0  0
   -2.5239   -1.8568    0.0000 H   0  0  0  0  0  0  0  0  0  0  0  0
  1  2  1  0  0  0  0
  1  6  1  0  0  0  0
  1  9  2  0  0  0  0
  2  3  1  0  0  0  0
  2  8  2  0  0  0  0
  3  4  1  0  0  0  0
  3 32  1  0  0  0  0
  3 33  1  0  0  0  0
  4 34  1  0  0  0  0
  4 35  1  0  0  0  0
  4 36  1  0  0  0  0
  5  6  1  0  0  0  0
  5 11  1  0  0  0  0
  5 37  1  0  0  0  0
  6 16  2  0  0  0  0
  7  8  1  0  0  0  0
  7 17  1  0  0  0  0
  9  7  1  0  0  0  0
 10 11  1  0  0  0  0
 10 15  1  0  0  0  0
 10 38  1  0  0  0  0
 10 39  1  0  0  0  0
 11 12  1  0  0  0  0
 12 13  1  0  0  0  0
 12 40  1  0  0  0  0
 12 41  1  0  0  0  0
 13 14  1  0  0  0  0
 13 42  1  0  0  0  0
 13 43  1  0  0  0  0
 14 15  1  0  0  0  0
 14 44  1  0  0  0  0
 14 45  1  0  0  0  0
 15 46  1  0  0  0  0
 15 47  1  0  0  0  0
 17 21  1  0  0  0  0
 18 19  1  0  0  0  0
 18 48  1  0  0  0  0
 19 17  2  0  0  0  0
 19 49  1  0  0  0  0
 20 18  2  0  0  0  0
 20 30  1  0  0  0  0
 21 22  2  0  0  0  0
 21 29  1  0  0  0  0
 22 20  1  0  0  0  0
 22 50  1  0  0  0  0
 23 27  1  0  0  0  0
 23  8  1  0  0  0  0
 24 25  1  0  0  0  0
 24 51  1  0  0  0  0
 25 23  2  0  0  0  0
 25 52  1  0  0  0  0
 26 24  2  0  0  0  0
 26 31  1  0  0  0  0
 27 28  2  0  0  0  0
 27 53  1  0  0  0  0
 28 26  1  0  0  0  0
 28 54  1  0  0  0  0
M  END
>  <DRUGBANK_ID>
DB13070

>  <COMMON_NAME>
Surinabant

>  <CAS_NUMBER>
288104-79-0

>  <UNII>
SF8R9VCB0X

>  <SYNONYMS>
Surinabant

$$$$
