1033
 OpenBabel10282417072D

 14 15  0  0  0  0  0  0  0  0999 V2000
    2.3644    1.4933    0.0000 S   0  0  0  0  0  0  0  0  0  0  0  0
    3.8596    0.5071    0.0000 N   0  0  0  0  0  0  0  0  0  0  0  0
    2.3644   -0.9818    0.0000 N   0  0  0  0  0  0  0  0  0  0  0  0
    3.8596   -0.8206    0.0000 N   0  0  0  0  0  0  0  0  0  0  0  0
    1.6500    0.2558    0.0000 N   0  0  0  0  0  0  0  0  0  0  0  0
    3.0790    0.2558    0.0000 C   0  0  0  0  0  0  0  0  0  0  0  0
    3.0790   -0.5692    0.0000 C   0  0  0  0  0  0  0  0  0  0  0  0
    2.3644    0.6683    0.0000 C   0  0  0  0  0  0  0  0  0  0  0  0
    4.3411   -0.1568    0.0000 C   0  0  0  0  0  0  0  0  0  0  0  0
    1.6500   -0.5692    0.0000 C   0  0  0  0  0  0  0  0  0  0  0  0
    4.1655    1.4429    0.0000 H   0  0  0  0  0  0  0  0  0  0  0  0
    2.3643   -1.9663    0.0000 H   0  0  0  0  0  0  0  0  0  0  0  0
    5.3731   -0.1568    0.0000 H   0  0  0  0  0  0  0  0  0  0  0  0
    0.7562   -1.0851    0.0000 H   0  0  0  0  0  0  0  0  0  0  0  0
  1  8  2  0  0  0  0
  2  6  1  0  0  0  0
  2  9  1  0  0  0  0
  2 11  1  0  0  0  0
  3  7  1  0  0  0  0
  3 10  1  0  0  0  0
  3 12  1  0  0  0  0
  4  7  1  0  0  0  0
  4  9  2  0  0  0  0
  5  8  1  0  0  0  0
  5 10  2  0  0  0  0
  6  7  2  0  0  0  0
  6  8  1  0  0  0  0
  9 13  1  0  0  0  0
 10 14  1  0  0  0  0
M  END
>  <DRUGBANK_ID>
DB01033

>  <SECONDARY_ACCESSION_NUMBERS>
APRD01096

>  <COMMON_NAME>
Mercaptopurine

>  <CAS_NUMBER>
50-44-2

>  <UNII>
PKK6MUZ20G

>  <SYNONYMS>
1,9-DIHYDRO-6H-PURINE-6-THIONE; 6 MP; 6-Mercaptopurine; 6-MP; 6-Thiohypoxanthine; 6-Thioxopurine; Mercaptopurina; Mercaptopurine; Mercaptopurine anhydrous; Mercaptopurinum; Mercapurin

$$$$
