
 OpenBabel10282417072D

 35 36  0  0  0  0  0  0  0  0999 V2000
   -0.6901    0.5203    0.0000 N   0  0  0  0  0  0  0  0  0  0  0  0
    0.0243    0.9328    0.0000 C   0  0  0  0  0  0  0  0  0  0  0  0
   -1.4046    0.9328    0.0000 C   0  0  0  0  0  0  0  0  0  0  0  0
    0.0243    1.7578    0.0000 N   0  0  0  0  0  0  0  0  0  0  0  0
   -0.6901    2.1703    0.0000 C   0  0  0  0  0  0  0  0  0  0  0  0
   -1.4046    1.7578    0.0000 C   0  0  0  0  0  0  0  0  0  0  0  0
   -0.6901   -0.3046    0.0000 C   0  0  2  0  0  0  0  0  0  0  0  0
   -1.3575   -0.7895    0.0000 O   0  0  0  0  0  0  0  0  0  0  0  0
   -0.0227   -0.7895    0.0000 C   0  0  1  0  0  0  0  0  0  0  0  0
   -1.1026   -1.5741    0.0000 C   0  0  1  0  0  0  0  0  0  0  0  0
   -0.2776   -1.5741    0.0000 C   0  0  1  0  0  0  0  0  0  0  0  0
    0.7619   -0.5346    0.0000 O   0  0  0  0  0  0  0  0  0  0  0  0
    0.7387    0.5203    0.0000 O   0  0  0  0  0  0  0  0  0  0  0  0
    0.2072   -2.2416    0.0000 O   0  0  0  0  0  0  0  0  0  0  0  0
   -0.6901    2.9953    0.0000 N   0  0  0  0  0  0  0  0  0  0  0  0
   -1.5875   -2.2416    0.0000 C   0  0  0  0  0  0  0  0  0  0  0  0
   -1.2520   -2.9953    0.0000 O   0  0  0  0  0  0  0  0  0  0  0  0
    1.0041   -2.0281    0.0000 P   0  0  0  0  0  0  0  0  0  0  0  0
    1.5875   -2.6114    0.0000 O   0  0  0  0  0  0  0  0  0  0  0  0
    1.2176   -1.2312    0.0000 O   0  0  0  0  0  0  0  0  0  0  0  0
    1.0041   -2.8531    0.0000 O   0  0  0  0  0  0  0  0  0  0  0  0
   -2.2983    0.4168    0.0000 H   0  0  0  0  0  0  0  0  0  0  0  0
   -2.2983    2.2738    0.0000 H   0  0  0  0  0  0  0  0  0  0  0  0
   -1.6435    0.1812    0.0000 H   0  0  0  0  0  0  0  0  0  0  0  0
    0.1447    0.2673    0.0000 H   0  0  0  0  0  0  0  0  0  0  0  0
   -2.1594   -1.4067    0.0000 H   0  0  0  0  0  0  0  0  0  0  0  0
    0.7792   -1.4068    0.0000 H   0  0  0  0  0  0  0  0  0  0  0  0
    1.4827   -1.1837    0.0000 H   0  0  0  0  0  0  0  0  0  0  0  0
    0.1625    3.4875    0.0000 H   0  0  0  0  0  0  0  0  0  0  0  0
   -1.5427    3.4875    0.0000 H   0  0  0  0  0  0  0  0  0  0  0  0
   -2.6516   -2.1297    0.0000 H   0  0  0  0  0  0  0  0  0  0  0  0
   -2.2165   -3.1072    0.0000 H   0  0  0  0  0  0  0  0  0  0  0  0
   -1.8222   -3.7800    0.0000 H   0  0  0  0  0  0  0  0  0  0  0  0
    1.3365   -3.5484    0.0000 H   0  0  0  0  0  0  0  0  0  0  0  0
    0.1641   -3.3381    0.0000 H   0  0  0  0  0  0  0  0  0  0  0  0
  1  2  1  0  0  0  0
  1  3  1  0  0  0  0
  2 13  2  0  0  0  0
  2  4  1  0  0  0  0
  3  6  2  0  0  0  0
  3 22  1  0  0  0  0
  4  5  2  0  0  0  0
  5 15  1  0  0  0  0
  6  5  1  0  0  0  0
  6 23  1  0  0  0  0
  7  1  1  0  0  0  0
  7  8  1  0  0  0  0
  7  9  1  0  0  0  0
  7 24  1  6  0  0  0
  8 10  1  0  0  0  0
  9 11  1  0  0  0  0
  9 12  1  0  0  0  0
  9 25  1  1  0  0  0
 10 16  1  0  0  0  0
 10 11  1  0  0  0  0
 10 26  1  6  0  0  0
 11 14  1  0  0  0  0
 11 27  1  1  0  0  0
 12 28  1  0  0  0  0
 14 18  1  0  0  0  0
 15 29  1  0  0  0  0
 15 30  1  0  0  0  0
 16 17  1  0  0  0  0
 16 31  1  0  0  0  0
 16 32  1  0  0  0  0
 17 33  1  0  0  0  0
 18 19  1  0  0  0  0
 18 20  2  0  0  0  0
 18 21  1  0  0  0  0
 19 34  1  0  0  0  0
 21 35  1  0  0  0  0
M  END
>  <DRUGBANK_ID>
DB01961

>  <SECONDARY_ACCESSION_NUMBERS>
EXPT00809

>  <COMMON_NAME>
Cytidine 3'-monophosphate

>  <CAS_NUMBER>
84-52-6

>  <UNII>
6DZL5I6D4D

>  <SYNONYMS>
3'-CMP; 3'-Cytidylic acid; Cytidine 3'-phosphate; Cytidine-3'-monophosphate

$$$$
