
 OpenBabel10282417072D

 32 34  0  0  0  0  0  0  0  0999 V2000
    0.4822    0.5251    0.0000 C   0  0  0  0  0  0  0  0  0  0  0  0
    1.2690    0.2787    0.0000 N   0  0  0  0  0  0  0  0  0  0  0  0
    0.4822    1.3594    0.0000 C   0  0  0  0  0  0  0  0  0  0  0  0
   -0.2244    0.1203    0.0000 N   0  0  0  0  0  0  0  0  0  0  0  0
    1.2276   -1.1547    0.0000 C   0  0  2  0  0  0  0  0  0  0  0  0
    1.7433    0.9423    0.0000 C   0  0  0  0  0  0  0  0  0  0  0  0
    1.2690    1.6094    0.0000 N   0  0  0  0  0  0  0  0  0  0  0  0
   -0.2244    1.7676    0.0000 C   0  0  0  0  0  0  0  0  0  0  0  0
   -0.9495    0.5251    0.0000 C   0  0  0  0  0  0  0  0  0  0  0  0
    0.5635   -0.6643    0.0000 O   0  0  0  0  0  0  0  0  0  0  0  0
    0.9729   -1.9339    0.0000 C   0  0  2  0  0  0  0  0  0  0  0  0
   -0.9495    1.3594    0.0000 N   0  0  0  0  0  0  0  0  0  0  0  0
   -0.2244    2.5972    0.0000 N   0  0  0  0  0  0  0  0  0  0  0  0
   -1.6632    0.1203    0.0000 F   0  0  0  0  0  0  0  0  0  0  0  0
   -0.0958   -1.1431    0.0000 C   0  0  1  0  0  0  0  0  0  0  0  0
    0.1512   -1.9377    0.0000 C   0  0  1  0  0  0  0  0  0  0  0  0
    1.4402   -2.5972    0.0000 O   0  0  0  0  0  0  0  0  0  0  0  0
   -0.7590   -0.4589    0.0000 C   0  0  0  0  0  0  0  0  0  0  0  0
   -0.3430   -2.5857    0.0000 O   0  0  0  0  0  0  0  0  0  0  0  0
   -1.7433   -0.8395    0.0000 O   0  0  0  0  0  0  0  0  0  0  0  0
    0.7594   -0.1926    0.0000 H   0  0  0  0  0  0  0  0  0  0  0  0
    2.7753    0.9410    0.0000 H   0  0  0  0  0  0  0  0  0  0  0  0
    2.0311   -1.7752    0.0000 H   0  0  0  0  0  0  0  0  0  0  0  0
    0.6282    3.0895    0.0000 H   0  0  0  0  0  0  0  0  0  0  0  0
   -1.0770    3.0894    0.0000 H   0  0  0  0  0  0  0  0  0  0  0  0
   -0.0034   -0.0771    0.0000 H   0  0  0  0  0  0  0  0  0  0  0  0
    0.6281   -2.8956    0.0000 H   0  0  0  0  0  0  0  0  0  0  0  0
    1.0328   -3.4775    0.0000 H   0  0  0  0  0  0  0  0  0  0  0  0
   -0.5297    0.5862    0.0000 H   0  0  0  0  0  0  0  0  0  0  0  0
   -1.5712    0.2377    0.0000 H   0  0  0  0  0  0  0  0  0  0  0  0
   -1.3051   -2.4619    0.0000 H   0  0  0  0  0  0  0  0  0  0  0  0
   -2.4986   -0.2309    0.0000 H   0  0  0  0  0  0  0  0  0  0  0  0
  1  2  1  0  0  0  0
  1  3  2  0  0  0  0
  1  4  1  0  0  0  0
  2  6  1  0  0  0  0
  3  7  1  0  0  0  0
  3  8  1  0  0  0  0
  4  9  2  0  0  0  0
  5  2  1  0  0  0  0
  5 10  1  0  0  0  0
  5 11  1  0  0  0  0
  5 21  1  6  0  0  0
  6  7  2  0  0  0  0
  6 22  1  0  0  0  0
  8 12  2  0  0  0  0
  8 13  1  0  0  0  0
  9 14  1  0  0  0  0
  9 12  1  0  0  0  0
 10 15  1  0  0  0  0
 11 16  1  0  0  0  0
 11 17  1  0  0  0  0
 11 23  1  6  0  0  0
 13 24  1  0  0  0  0
 13 25  1  0  0  0  0
 15 18  1  0  0  0  0
 15 16  1  0  0  0  0
 15 26  1  6  0  0  0
 16 19  1  0  0  0  0
 16 27  1  1  0  0  0
 17 28  1  0  0  0  0
 18 20  1  0  0  0  0
 18 29  1  0  0  0  0
 18 30  1  0  0  0  0
 19 31  1  0  0  0  0
 20 32  1  0  0  0  0
M  END
>  <DRUGBANK_ID>
DB01073

>  <SECONDARY_ACCESSION_NUMBERS>
APRD00594

>  <COMMON_NAME>
Fludarabine

>  <CAS_NUMBER>
21679-14-1

>  <UNII>
P2K93U8740

>  <SYNONYMS>
2-F-ARAA; 2-fluoro ARA-A; Fludarabina; Fludarabine; Fludarabinum

$$$$
