
 OpenBabel10282417072D

 44 46  0  0  1  0  0  0  0  0999 V2000
    3.9934    2.4750    0.0000 C   0  0  0  0  0  0  0  0  0  0  0  0
    3.2789    2.0625    0.0000 N   0  0  0  0  0  0  0  0  0  0  0  0
    2.5645    2.4750    0.0000 C   0  0  0  0  0  0  0  0  0  0  0  0
    3.2789    1.2375    0.0000 C   0  0  0  0  0  0  0  0  0  0  0  0
    3.9934    0.8250    0.0000 N   0  0  0  0  0  0  0  0  0  0  0  0
    3.9934    0.0000    0.0000 C   0  0  0  0  0  0  0  0  0  0  0  0
    3.2789   -0.4125    0.0000 N   0  0  0  0  0  0  0  0  0  0  0  0
    2.5645    0.0000    0.0000 C   0  0  0  0  0  0  0  0  0  0  0  0
    2.5645    0.8250    0.0000 C   0  0  0  0  0  0  0  0  0  0  0  0
    1.7798    1.0799    0.0000 N   0  0  0  0  0  0  0  0  0  0  0  0
    1.2949    0.4125    0.0000 C   0  0  0  0  0  0  0  0  0  0  0  0
    1.7798   -0.2549    0.0000 N   0  0  0  0  0  0  0  0  0  0  0  0
    1.5249   -1.0396    0.0000 C   0  0  2  0  0  0  0  0  0  0  0  0
    2.0098   -1.7070    0.0000 O   0  0  0  0  0  0  0  0  0  0  0  0
    1.5249   -2.3744    0.0000 C   0  0  2  0  0  0  0  0  0  0  0  0
    1.7798   -3.1591    0.0000 C   0  0  0  0  0  0  0  0  0  0  0  0
    1.2278   -3.7722    0.0000 O   0  0  0  0  0  0  0  0  0  0  0  0
    1.4827   -4.5568    0.0000 P   0  0  0  0  0  0  0  0  0  0  0  0
    1.7377   -5.3414    0.0000 O   0  0  0  0  0  0  0  0  0  0  0  0
    0.6981   -4.8117    0.0000 O   0  0  0  0  0  0  0  0  0  0  0  0
    2.2674   -4.3018    0.0000 O   0  0  0  0  0  0  0  0  0  0  0  0
    0.7403   -2.1195    0.0000 C   0  0  1  0  0  0  0  0  0  0  0  0
    0.0728   -2.6044    0.0000 N   0  0  0  0  0  0  0  0  0  0  0  0
    0.7403   -1.2945    0.0000 C   0  0  1  0  0  0  0  0  0  0  0  0
    0.0728   -0.8096    0.0000 O   0  0  0  0  0  0  0  0  0  0  0  0
    4.9200    1.9400    0.0000 H   0  0  0  0  0  0  0  0  0  0  0  0
    3.9934    3.5450    0.0000 H   0  0  0  0  0  0  0  0  0  0  0  0
    4.9201    3.0100    0.0000 H   0  0  0  0  0  0  0  0  0  0  0  0
    2.5645    3.5450    0.0000 H   0  0  0  0  0  0  0  0  0  0  0  0
    1.6378    1.9400    0.0000 H   0  0  0  0  0  0  0  0  0  0  0  0
    1.6379    3.0100    0.0000 H   0  0  0  0  0  0  0  0  0  0  0  0
    4.8871   -0.5160    0.0000 H   0  0  0  0  0  0  0  0  0  0  0  0
    0.2629    0.4125    0.0000 H   0  0  0  0  0  0  0  0  0  0  0  0
    2.5817   -0.8722    0.0000 H   0  0  0  0  0  0  0  0  0  0  0  0
    2.5817   -2.5418    0.0000 H   0  0  0  0  0  0  0  0  0  0  0  0
    2.8264   -3.3816    0.0000 H   0  0  0  0  0  0  0  0  0  0  0  0
    2.1105   -4.1767    0.0000 H   0  0  0  0  0  0  0  0  0  0  0  0
    1.0887   -6.0623    0.0000 H   0  0  0  0  0  0  0  0  0  0  0  0
   -0.0227   -4.1626    0.0000 H   0  0  0  0  0  0  0  0  0  0  0  0
    0.9077   -3.1763    0.0000 H   0  0  0  0  0  0  0  0  0  0  0  0
   -0.8590   -2.1895    0.0000 H   0  0  0  0  0  0  0  0  0  0  0  0
    0.1794   -3.6188    0.0000 H   0  0  0  0  0  0  0  0  0  0  0  0
   -0.2131   -1.7803    0.0000 H   0  0  0  0  0  0  0  0  0  0  0  0
    0.1741    0.1551    0.0000 H   0  0  0  0  0  0  0  0  0  0  0  0
  1  2  1  0  0  0  0
  1 26  1  0  0  0  0
  1 27  1  0  0  0  0
  1 28  1  0  0  0  0
  2  3  1  0  0  0  0
  2  4  1  0  0  0  0
  3 29  1  0  0  0  0
  3 30  1  0  0  0  0
  3 31  1  0  0  0  0
  4  5  2  0  0  0  0
  4  9  1  0  0  0  0
  5  6  1  0  0  0  0
  6  7  2  0  0  0  0
  6 32  1  0  0  0  0
  7  8  1  0  0  0  0
  8  9  2  0  0  0  0
  8 12  1  0  0  0  0
  9 10  1  0  0  0  0
 10 11  2  0  0  0  0
 11 12  1  0  0  0  0
 11 33  1  0  0  0  0
 13 12  1  0  0  0  0
 13 14  1  0  0  0  0
 13 24  1  0  0  0  0
 13 34  1  1  0  0  0
 14 15  1  0  0  0  0
 15 16  1  0  0  0  0
 15 22  1  0  0  0  0
 15 35  1  1  0  0  0
 16 17  1  0  0  0  0
 16 36  1  0  0  0  0
 16 37  1  0  0  0  0
 17 18  1  0  0  0  0
 18 19  1  0  0  0  0
 18 20  1  0  0  0  0
 18 21  2  0  0  0  0
 19 38  1  0  0  0  0
 20 39  1  0  0  0  0
 22 23  1  0  0  0  0
 22 24  1  0  0  0  0
 22 40  1  6  0  0  0
 23 41  1  0  0  0  0
 23 42  1  0  0  0  0
 24 25  1  0  0  0  0
 24 43  1  6  0  0  0
 25 44  1  0  0  0  0
M  END
>  <DRUGBANK_ID>
DB04602

>  <COMMON_NAME>
PUROMYCIN AMINONUCLEOSIDE-5'-MONOPHOSPHATE

$$$$
