
 OpenBabel10282417072D

 50 53  0  0  0  0  0  0  0  0999 V2000
   -1.4087   -5.6992    0.0000 C   0  0  0  0  0  0  0  0  0  0  0  0
   -1.8212   -4.9848    0.0000 C   0  0  0  0  0  0  0  0  0  0  0  0
   -1.4087   -4.2703    0.0000 C   0  0  0  0  0  0  0  0  0  0  0  0
   -0.5837   -4.2703    0.0000 C   0  0  0  0  0  0  0  0  0  0  0  0
   -0.1712   -3.5558    0.0000 C   0  0  0  0  0  0  0  0  0  0  0  0
   -1.8212   -3.5558    0.0000 C   0  0  3  0  0  0  0  0  0  0  0  0
   -1.4087   -2.8414    0.0000 C   0  0  0  0  0  0  0  0  0  0  0  0
   -1.8212   -2.1269    0.0000 C   0  0  0  0  0  0  0  0  0  0  0  0
   -1.4087   -1.4124    0.0000 C   0  0  0  0  0  0  0  0  0  0  0  0
   -0.5837   -1.4124    0.0000 C   0  0  0  0  0  0  0  0  0  0  0  0
   -0.1712   -2.1269    0.0000 C   0  0  0  0  0  0  0  0  0  0  0  0
   -0.5837   -2.8414    0.0000 C   0  0  0  0  0  0  0  0  0  0  0  0
   -0.1712   -0.6979    0.0000 N   0  0  0  0  0  0  0  0  0  0  0  0
    0.6538   -0.6979    0.0000 C   0  0  0  0  0  0  0  0  0  0  0  0
    1.1387   -0.0305    0.0000 N   0  0  0  0  0  0  0  0  0  0  0  0
    1.9233   -0.2854    0.0000 C   0  0  0  0  0  0  0  0  0  0  0  0
    2.6378    0.1271    0.0000 C   0  0  0  0  0  0  0  0  0  0  0  0
    3.3523   -0.2854    0.0000 C   0  0  0  0  0  0  0  0  0  0  0  0
    3.3523   -1.1104    0.0000 C   0  0  0  0  0  0  0  0  0  0  0  0
    2.6378   -1.5229    0.0000 C   0  0  0  0  0  0  0  0  0  0  0  0
    1.9233   -1.1104    0.0000 C   0  0  0  0  0  0  0  0  0  0  0  0
    1.1387   -1.3654    0.0000 S   0  0  0  0  0  0  0  0  0  0  0  0
   -2.6462   -3.5558    0.0000 N   0  0  0  0  0  0  0  0  0  0  0  0
   -3.1311   -4.2233    0.0000 C   0  0  0  0  0  0  0  0  0  0  0  0
   -3.9157   -3.9683    0.0000 N   0  0  0  0  0  0  0  0  0  0  0  0
   -3.9157   -3.1433    0.0000 C   0  0  0  0  0  0  0  0  0  0  0  0
   -3.1311   -2.8884    0.0000 N   0  0  0  0  0  0  0  0  0  0  0  0
   -1.9437   -6.6259    0.0000 H   0  0  0  0  0  0  0  0  0  0  0  0
   -0.3387   -5.6992    0.0000 H   0  0  0  0  0  0  0  0  0  0  0  0
   -0.8737   -6.6258    0.0000 H   0  0  0  0  0  0  0  0  0  0  0  0
   -2.8912   -4.9848    0.0000 H   0  0  0  0  0  0  0  0  0  0  0  0
   -2.3562   -4.0582    0.0000 H   0  0  0  0  0  0  0  0  0  0  0  0
   -0.8737   -3.3437    0.0000 H   0  0  0  0  0  0  0  0  0  0  0  0
   -0.0487   -5.1969    0.0000 H   0  0  0  0  0  0  0  0  0  0  0  0
    0.4863   -4.2703    0.0000 H   0  0  0  0  0  0  0  0  0  0  0  0
    0.8988   -3.5558    0.0000 H   0  0  0  0  0  0  0  0  0  0  0  0
   -0.7062   -2.6292    0.0000 H   0  0  0  0  0  0  0  0  0  0  0  0
    0.3638   -2.6291    0.0000 H   0  0  0  0  0  0  0  0  0  0  0  0
   -0.7512   -3.5558    0.0000 H   0  0  0  0  0  0  0  0  0  0  0  0
   -2.8532   -2.1269    0.0000 H   0  0  0  0  0  0  0  0  0  0  0  0
   -1.9247   -0.5187    0.0000 H   0  0  0  0  0  0  0  0  0  0  0  0
    0.8608   -2.1269    0.0000 H   0  0  0  0  0  0  0  0  0  0  0  0
   -0.0677   -3.7351    0.0000 H   0  0  0  0  0  0  0  0  0  0  0  0
   -0.6635    0.1547    0.0000 H   0  0  0  0  0  0  0  0  0  0  0  0
    2.6378    1.1591    0.0000 H   0  0  0  0  0  0  0  0  0  0  0  0
    4.2460    0.2306    0.0000 H   0  0  0  0  0  0  0  0  0  0  0  0
    4.2460   -1.6264    0.0000 H   0  0  0  0  0  0  0  0  0  0  0  0
    2.6378   -2.5549    0.0000 H   0  0  0  0  0  0  0  0  0  0  0  0
   -2.8122   -5.2048    0.0000 H   0  0  0  0  0  0  0  0  0  0  0  0
   -4.7506   -2.5367    0.0000 H   0  0  0  0  0  0  0  0  0  0  0  0
  1  2  1  0  0  0  0
  1 28  1  0  0  0  0
  1 29  1  0  0  0  0
  1 30  1  0  0  0  0
  2  3  1  0  0  0  0
  2 31  1  0  0  0  0
  2 32  1  0  0  0  0
  3  4  1  0  0  0  0
  3  6  1  0  0  0  0
  3 33  1  0  0  0  0
  4  5  1  0  0  0  0
  4 34  1  0  0  0  0
  4 35  1  0  0  0  0
  5 36  1  0  0  0  0
  5 37  1  0  0  0  0
  5 38  1  0  0  0  0
  6  7  1  0  0  0  0
  6 23  1  0  0  0  0
  6 39  1  0  0  0  0
  7  8  2  0  0  0  0
  7 12  1  0  0  0  0
  8  9  1  0  0  0  0
  8 40  1  0  0  0  0
  9 10  2  0  0  0  0
  9 41  1  0  0  0  0
 10 11  1  0  0  0  0
 10 13  1  0  0  0  0
 11 12  2  0  0  0  0
 11 42  1  0  0  0  0
 12 43  1  0  0  0  0
 13 14  1  0  0  0  0
 13 44  1  0  0  0  0
 14 15  2  0  0  0  0
 14 22  1  0  0  0  0
 15 16  1  0  0  0  0
 16 17  2  0  0  0  0
 16 21  1  0  0  0  0
 17 18  1  0  0  0  0
 17 45  1  0  0  0  0
 18 19  2  0  0  0  0
 18 46  1  0  0  0  0
 19 20  1  0  0  0  0
 19 47  1  0  0  0  0
 20 21  2  0  0  0  0
 20 48  1  0  0  0  0
 21 22  1  0  0  0  0
 23 24  1  0  0  0  0
 23 27  1  0  0  0  0
 24 25  2  0  0  0  0
 24 49  1  0  0  0  0
 25 26  1  0  0  0  0
 26 27  2  0  0  0  0
 26 50  1  0  0  0  0
M  END
>  <DRUGBANK_ID>
DB13083

>  <SECONDARY_ACCESSION_NUMBERS>
DB05681

>  <COMMON_NAME>
Talarozole

>  <CAS_NUMBER>
201410-53-9

>  <UNII>
XKD9N5CJ6W

>  <SYNONYMS>
Talarozole

$$$$
