
 OpenBabel10282417072D

 46 47  0  0  0  0  0  0  0  0999 V2000
   -4.2868   -4.1250    0.0000 C   0  0  0  0  0  0  0  0  0  0  0  0
   -3.5724   -4.5375    0.0000 N   0  0  0  0  0  0  0  0  0  0  0  0
   -2.8579   -4.1250    0.0000 C   0  0  0  0  0  0  0  0  0  0  0  0
   -2.8579   -3.3000    0.0000 O   0  0  0  0  0  0  0  0  0  0  0  0
   -2.1434   -4.5375    0.0000 C   0  0  0  0  0  0  0  0  0  0  0  0
   -1.4289   -4.1250    0.0000 O   0  0  0  0  0  0  0  0  0  0  0  0
   -0.7145   -4.5375    0.0000 C   0  0  0  0  0  0  0  0  0  0  0  0
    0.0000   -4.1250    0.0000 C   0  0  0  0  0  0  0  0  0  0  0  0
    0.7145   -4.5375    0.0000 C   0  0  0  0  0  0  0  0  0  0  0  0
    1.4289   -4.1250    0.0000 Cl  0  0  0  0  0  0  0  0  0  0  0  0
    0.7145   -5.3625    0.0000 C   0  0  0  0  0  0  0  0  0  0  0  0
    1.4289   -5.7750    0.0000 C   0  0  0  0  0  0  0  0  0  0  0  0
    2.1434   -5.3625    0.0000 C   0  0  0  0  0  0  0  0  0  0  0  0
    2.1434   -4.5375    0.0000 C   0  0  0  0  0  0  0  0  0  0  0  0
    2.8579   -4.1250    0.0000 C   0  0  0  0  0  0  0  0  0  0  0  0
    3.5724   -4.5375    0.0000 C   0  0  0  0  0  0  0  0  0  0  0  0
    4.2868   -4.1250    0.0000 O   0  0  0  0  0  0  0  0  0  0  0  0
    3.5724   -5.3625    0.0000 C   0  0  0  0  0  0  0  0  0  0  0  0
    2.8579   -5.7750    0.0000 C   0  0  0  0  0  0  0  0  0  0  0  0
    4.2868   -5.7750    0.0000 C   0  0  0  0  0  0  0  0  0  0  0  0
    4.2868   -6.6000    0.0000 C   0  0  0  0  0  0  0  0  0  0  0  0
    5.0013   -5.3625    0.0000 C   0  0  0  0  0  0  0  0  0  0  0  0
    0.0000   -5.7750    0.0000 C   0  0  0  0  0  0  0  0  0  0  0  0
    0.0000   -6.6000    0.0000 Cl  0  0  0  0  0  0  0  0  0  0  0  0
   -0.7145   -5.3625    0.0000 C   0  0  0  0  0  0  0  0  0  0  0  0
   -4.2868   -3.0550    0.0000 H   0  0  0  0  0  0  0  0  0  0  0  0
   -5.2135   -4.6600    0.0000 H   0  0  0  0  0  0  0  0  0  0  0  0
   -5.2134   -3.5900    0.0000 H   0  0  0  0  0  0  0  0  0  0  0  0
   -3.5724   -5.5220    0.0000 H   0  0  0  0  0  0  0  0  0  0  0  0
   -2.1434   -5.6075    0.0000 H   0  0  0  0  0  0  0  0  0  0  0  0
   -1.2168   -5.0725    0.0000 H   0  0  0  0  0  0  0  0  0  0  0  0
    0.0000   -3.0930    0.0000 H   0  0  0  0  0  0  0  0  0  0  0  0
    1.4289   -6.8450    0.0000 H   0  0  0  0  0  0  0  0  0  0  0  0
    2.3555   -6.3100    0.0000 H   0  0  0  0  0  0  0  0  0  0  0  0
    1.2497   -4.0215    0.0000 H   0  0  0  0  0  0  0  0  0  0  0  0
    2.8579   -3.0930    0.0000 H   0  0  0  0  0  0  0  0  0  0  0  0
    5.0983   -4.5935    0.0000 H   0  0  0  0  0  0  0  0  0  0  0  0
    2.8579   -6.8070    0.0000 H   0  0  0  0  0  0  0  0  0  0  0  0
    5.2134   -6.3100    0.0000 H   0  0  0  0  0  0  0  0  0  0  0  0
    3.3602   -7.1350    0.0000 H   0  0  0  0  0  0  0  0  0  0  0  0
    5.2134   -7.1350    0.0000 H   0  0  0  0  0  0  0  0  0  0  0  0
    4.2868   -7.6700    0.0000 H   0  0  0  0  0  0  0  0  0  0  0  0
    5.9279   -5.8975    0.0000 H   0  0  0  0  0  0  0  0  0  0  0  0
    5.0013   -4.2925    0.0000 H   0  0  0  0  0  0  0  0  0  0  0  0
    5.9280   -4.8275    0.0000 H   0  0  0  0  0  0  0  0  0  0  0  0
   -1.6082   -5.8785    0.0000 H   0  0  0  0  0  0  0  0  0  0  0  0
  1  2  1  0  0  0  0
  1 26  1  0  0  0  0
  1 27  1  0  0  0  0
  1 28  1  0  0  0  0
  2  3  1  0  0  0  0
  2 29  1  0  0  0  0
  3  4  2  0  0  0  0
  3  5  1  0  0  0  0
  5  6  1  0  0  0  0
  5 30  1  0  0  0  0
  5 31  1  0  0  0  0
  6  7  1  0  0  0  0
  7  8  2  0  0  0  0
  7 25  1  0  0  0  0
  8  9  1  0  0  0  0
  8 32  1  0  0  0  0
  9 10  1  0  0  0  0
  9 11  2  0  0  0  0
 11 12  1  0  0  0  0
 11 23  1  0  0  0  0
 12 13  1  0  0  0  0
 12 33  1  0  0  0  0
 12 34  1  0  0  0  0
 13 14  2  0  0  0  0
 13 19  1  0  0  0  0
 14 15  1  0  0  0  0
 14 35  1  0  0  0  0
 15 16  2  0  0  0  0
 15 36  1  0  0  0  0
 16 17  1  0  0  0  0
 16 18  1  0  0  0  0
 17 37  1  0  0  0  0
 18 19  2  0  0  0  0
 18 20  1  0  0  0  0
 19 38  1  0  0  0  0
 20 21  1  0  0  0  0
 20 22  1  0  0  0  0
 20 39  1  0  0  0  0
 21 40  1  0  0  0  0
 21 41  1  0  0  0  0
 21 42  1  0  0  0  0
 22 43  1  0  0  0  0
 22 44  1  0  0  0  0
 22 45  1  0  0  0  0
 23 24  1  0  0  0  0
 23 25  2  0  0  0  0
 25 46  1  0  0  0  0
M  END
>  <DRUGBANK_ID>
DB18157

>  <COMMON_NAME>
ABX-002

>  <CAS_NUMBER>
2156649-32-8

>  <UNII>
QTW4WC4BRX

>  <SYNONYMS>
2-(3,5-DICHLORO-4-((4-HYDROXY-3-(PROPAN-2-YL)PHENYL)METHYL)PHENOXY)-N-METHYLACETAMIDE

$$$$
