
 OpenBabel10282417072D

112111  0  0  0  0  0  0  0  0999 V2000
   15.8961   10.0026    0.0000 C   0  0  0  0  0  0  0  0  0  0  0  0
   16.6105   10.4151    0.0000 C   0  0  0  0  0  0  0  0  0  0  0  0
   17.3250   10.0026    0.0000 C   0  0  0  0  0  0  0  0  0  0  0  0
   18.0395   10.4151    0.0000 C   0  0  0  0  0  0  0  0  0  0  0  0
   18.7539   10.0026    0.0000 C   0  0  0  0  0  0  0  0  0  0  0  0
   19.4684   10.4151    0.0000 C   0  0  0  0  0  0  0  0  0  0  0  0
   20.1829   10.0026    0.0000 C   0  0  0  0  0  0  0  0  0  0  0  0
   20.8974   10.4151    0.0000 C   0  0  0  0  0  0  0  0  0  0  0  0
   21.6118   10.0026    0.0000 C   0  0  0  0  0  0  0  0  0  0  0  0
   22.3263   10.4151    0.0000 C   0  0  0  0  0  0  0  0  0  0  0  0
   23.0408   10.0026    0.0000 C   0  0  0  0  0  0  0  0  0  0  0  0
   23.7552   10.4151    0.0000 C   0  0  0  0  0  0  0  0  0  0  0  0
   24.4697   10.0026    0.0000 C   0  0  0  0  0  0  0  0  0  0  0  0
   25.1842   10.4151    0.0000 C   0  0  0  0  0  0  0  0  0  0  0  0
   25.1842   11.2401    0.0000 O   0  0  0  0  0  0  0  0  0  0  0  0
   25.8987   10.0026    0.0000 O   0  0  0  0  0  0  0  0  0  0  0  0
   26.6131   10.4151    0.0000 C   0  0  0  0  0  0  0  0  0  0  0  0
   27.3276   10.0026    0.0000 C   0  0  3  0  0  0  0  0  0  0  0  0
   27.3276    9.1776    0.0000 C   0  0  0  0  0  0  0  0  0  0  0  0
   28.0421    8.7651    0.0000 O   0  0  0  0  0  0  0  0  0  0  0  0
   28.0421    7.9401    0.0000 P   0  0  3  0  0  0  0  0  0  0  0  0
   28.8671    7.9401    0.0000 O   0  0  0  0  0  0  0  0  0  0  0  0
   27.2171    7.9401    0.0000 O   0  0  0  0  0  0  0  0  0  0  0  0
   28.0421    7.1151    0.0000 O   0  0  0  0  0  0  0  0  0  0  0  0
   27.3276    6.7026    0.0000 C   0  0  0  0  0  0  0  0  0  0  0  0
   27.3276    5.8776    0.0000 C   0  0  3  0  0  0  0  0  0  0  0  0
   28.0421    5.4651    0.0000 C   0  0  0  0  0  0  0  0  0  0  0  0
   28.0421    4.6401    0.0000 O   0  0  0  0  0  0  0  0  0  0  0  0
   26.6131    5.4651    0.0000 O   0  0  0  0  0  0  0  0  0  0  0  0
   28.0421   10.4151    0.0000 O   0  0  0  0  0  0  0  0  0  0  0  0
   28.7565   10.0026    0.0000 C   0  0  0  0  0  0  0  0  0  0  0  0
   28.7565    9.1776    0.0000 O   0  0  0  0  0  0  0  0  0  0  0  0
   29.4710   10.4151    0.0000 C   0  0  0  0  0  0  0  0  0  0  0  0
   30.1855   10.0026    0.0000 C   0  0  0  0  0  0  0  0  0  0  0  0
   30.8999   10.4151    0.0000 C   0  0  0  0  0  0  0  0  0  0  0  0
   31.6144   10.0026    0.0000 C   0  0  0  0  0  0  0  0  0  0  0  0
   32.3289   10.4151    0.0000 C   0  0  0  0  0  0  0  0  0  0  0  0
   33.0434   10.0026    0.0000 C   0  0  0  0  0  0  0  0  0  0  0  0
   33.7578   10.4151    0.0000 C   0  0  0  0  0  0  0  0  0  0  0  0
   34.4723   10.0026    0.0000 C   0  0  0  0  0  0  0  0  0  0  0  0
   35.1868   10.4151    0.0000 C   0  0  0  0  0  0  0  0  0  0  0  0
   35.9012   10.0026    0.0000 C   0  0  0  0  0  0  0  0  0  0  0  0
   36.6157   10.4151    0.0000 C   0  0  0  0  0  0  0  0  0  0  0  0
   37.3302   10.0026    0.0000 C   0  0  0  0  0  0  0  0  0  0  0  0
   38.0447   10.4151    0.0000 C   0  0  0  0  0  0  0  0  0  0  0  0
   14.9694   10.5376    0.0000 H   0  0  0  0  0  0  0  0  0  0  0  0
   15.8961    8.9326    0.0000 H   0  0  0  0  0  0  0  0  0  0  0  0
   14.9695    9.4676    0.0000 H   0  0  0  0  0  0  0  0  0  0  0  0
   16.6105   11.4851    0.0000 H   0  0  0  0  0  0  0  0  0  0  0  0
   17.5371   10.9501    0.0000 H   0  0  0  0  0  0  0  0  0  0  0  0
   17.3250    8.9326    0.0000 H   0  0  0  0  0  0  0  0  0  0  0  0
   18.2516    9.4676    0.0000 H   0  0  0  0  0  0  0  0  0  0  0  0
   18.0395   11.4851    0.0000 H   0  0  0  0  0  0  0  0  0  0  0  0
   18.9662   10.9501    0.0000 H   0  0  0  0  0  0  0  0  0  0  0  0
   18.7539    8.9326    0.0000 H   0  0  0  0  0  0  0  0  0  0  0  0
   19.6805    9.4676    0.0000 H   0  0  0  0  0  0  0  0  0  0  0  0
   19.4684   11.4851    0.0000 H   0  0  0  0  0  0  0  0  0  0  0  0
   20.3950   10.9501    0.0000 H   0  0  0  0  0  0  0  0  0  0  0  0
   20.1829    8.9326    0.0000 H   0  0  0  0  0  0  0  0  0  0  0  0
   21.1095    9.4676    0.0000 H   0  0  0  0  0  0  0  0  0  0  0  0
   20.8974   11.4851    0.0000 H   0  0  0  0  0  0  0  0  0  0  0  0
   21.8241   10.9501    0.0000 H   0  0  0  0  0  0  0  0  0  0  0  0
   21.6118    8.9326    0.0000 H   0  0  0  0  0  0  0  0  0  0  0  0
   22.5384    9.4676    0.0000 H   0  0  0  0  0  0  0  0  0  0  0  0
   22.3263   11.4851    0.0000 H   0  0  0  0  0  0  0  0  0  0  0  0
   23.2529   10.9501    0.0000 H   0  0  0  0  0  0  0  0  0  0  0  0
   23.0408    8.9326    0.0000 H   0  0  0  0  0  0  0  0  0  0  0  0
   23.9675    9.4676    0.0000 H   0  0  0  0  0  0  0  0  0  0  0  0
   23.7552   11.4851    0.0000 H   0  0  0  0  0  0  0  0  0  0  0  0
   24.6818   10.9501    0.0000 H   0  0  0  0  0  0  0  0  0  0  0  0
   24.4697    8.9326    0.0000 H   0  0  0  0  0  0  0  0  0  0  0  0
   25.3963    9.4676    0.0000 H   0  0  0  0  0  0  0  0  0  0  0  0
   26.6131   11.4851    0.0000 H   0  0  0  0  0  0  0  0  0  0  0  0
   27.5397   10.9501    0.0000 H   0  0  0  0  0  0  0  0  0  0  0  0
   26.4010    9.4676    0.0000 H   0  0  0  0  0  0  0  0  0  0  0  0
   26.4010    8.6426    0.0000 H   0  0  0  0  0  0  0  0  0  0  0  0
   27.3276    8.1076    0.0000 H   0  0  0  0  0  0  0  0  0  0  0  0
   26.7321    8.7801    0.0000 H   0  0  0  0  0  0  0  0  0  0  0  0
   26.4010    7.2376    0.0000 H   0  0  0  0  0  0  0  0  0  0  0  0
   26.4010    6.1676    0.0000 H   0  0  0  0  0  0  0  0  0  0  0  0
   28.2542    6.4126    0.0000 H   0  0  0  0  0  0  0  0  0  0  0  0
   28.9687    6.0001    0.0000 H   0  0  0  0  0  0  0  0  0  0  0  0
   28.9687    4.9301    0.0000 H   0  0  0  0  0  0  0  0  0  0  0  0
   27.2021    4.1551    0.0000 H   0  0  0  0  0  0  0  0  0  0  0  0
   25.7731    5.9501    0.0000 H   0  0  0  0  0  0  0  0  0  0  0  0
   29.4710   11.4851    0.0000 H   0  0  0  0  0  0  0  0  0  0  0  0
   30.3976   10.9501    0.0000 H   0  0  0  0  0  0  0  0  0  0  0  0
   30.1855    8.9326    0.0000 H   0  0  0  0  0  0  0  0  0  0  0  0
   31.1122    9.4676    0.0000 H   0  0  0  0  0  0  0  0  0  0  0  0
   30.8999   11.4851    0.0000 H   0  0  0  0  0  0  0  0  0  0  0  0
   31.8265   10.9501    0.0000 H   0  0  0  0  0  0  0  0  0  0  0  0
   31.6144    8.9326    0.0000 H   0  0  0  0  0  0  0  0  0  0  0  0
   32.5410    9.4676    0.0000 H   0  0  0  0  0  0  0  0  0  0  0  0
   32.3289   11.4851    0.0000 H   0  0  0  0  0  0  0  0  0  0  0  0
   33.2555   10.9501    0.0000 H   0  0  0  0  0  0  0  0  0  0  0  0
   33.0434    8.9326    0.0000 H   0  0  0  0  0  0  0  0  0  0  0  0
   33.9701    9.4676    0.0000 H   0  0  0  0  0  0  0  0  0  0  0  0
   33.7578   11.4851    0.0000 H   0  0  0  0  0  0  0  0  0  0  0  0
   34.6844   10.9501    0.0000 H   0  0  0  0  0  0  0  0  0  0  0  0
   34.4723    8.9326    0.0000 H   0  0  0  0  0  0  0  0  0  0  0  0
   35.3989    9.4676    0.0000 H   0  0  0  0  0  0  0  0  0  0  0  0
   35.1868   11.4851    0.0000 H   0  0  0  0  0  0  0  0  0  0  0  0
   36.1135   10.9501    0.0000 H   0  0  0  0  0  0  0  0  0  0  0  0
   35.9012    8.9326    0.0000 H   0  0  0  0  0  0  0  0  0  0  0  0
   36.8278    9.4676    0.0000 H   0  0  0  0  0  0  0  0  0  0  0  0
   36.6157   11.4851    0.0000 H   0  0  0  0  0  0  0  0  0  0  0  0
   37.5423   10.9501    0.0000 H   0  0  0  0  0  0  0  0  0  0  0  0
   37.3302    8.9326    0.0000 H   0  0  0  0  0  0  0  0  0  0  0  0
   38.2568    9.4676    0.0000 H   0  0  0  0  0  0  0  0  0  0  0  0
   38.9713    9.8801    0.0000 H   0  0  0  0  0  0  0  0  0  0  0  0
   38.0447   11.4851    0.0000 H   0  0  0  0  0  0  0  0  0  0  0  0
   38.9714   10.9501    0.0000 H   0  0  0  0  0  0  0  0  0  0  0  0
  1  2  1  0  0  0  0
  1 46  1  0  0  0  0
  1 47  1  0  0  0  0
  1 48  1  0  0  0  0
  2  3  1  0  0  0  0
  2 49  1  0  0  0  0
  2 50  1  0  0  0  0
  3  4  1  0  0  0  0
  3 51  1  0  0  0  0
  3 52  1  0  0  0  0
  4  5  1  0  0  0  0
  4 53  1  0  0  0  0
  4 54  1  0  0  0  0
  5  6  1  0  0  0  0
  5 55  1  0  0  0  0
  5 56  1  0  0  0  0
  6  7  1  0  0  0  0
  6 57  1  0  0  0  0
  6 58  1  0  0  0  0
  7  8  1  0  0  0  0
  7 59  1  0  0  0  0
  7 60  1  0  0  0  0
  8  9  1  0  0  0  0
  8 61  1  0  0  0  0
  8 62  1  0  0  0  0
  9 10  1  0  0  0  0
  9 63  1  0  0  0  0
  9 64  1  0  0  0  0
 10 11  1  0  0  0  0
 10 65  1  0  0  0  0
 10 66  1  0  0  0  0
 11 12  1  0  0  0  0
 11 67  1  0  0  0  0
 11 68  1  0  0  0  0
 12 13  1  0  0  0  0
 12 69  1  0  0  0  0
 12 70  1  0  0  0  0
 13 14  1  0  0  0  0
 13 71  1  0  0  0  0
 13 72  1  0  0  0  0
 14 15  2  0  0  0  0
 14 16  1  0  0  0  0
 16 17  1  0  0  0  0
 17 18  1  0  0  0  0
 17 73  1  0  0  0  0
 17 74  1  0  0  0  0
 18 19  1  0  0  0  0
 18 30  1  0  0  0  0
 18 75  1  0  0  0  0
 19 20  1  0  0  0  0
 19 76  1  0  0  0  0
 19 77  1  0  0  0  0
 20 21  1  0  0  0  0
 21 22  2  0  0  0  0
 21 23  1  0  0  0  0
 21 24  1  0  0  0  0
 23 78  1  0  0  0  0
 24 25  1  0  0  0  0
 25 26  1  0  0  0  0
 25 79  1  0  0  0  0
 25 80  1  0  0  0  0
 26 27  1  0  0  0  0
 26 29  1  0  0  0  0
 26 81  1  0  0  0  0
 27 28  1  0  0  0  0
 27 82  1  0  0  0  0
 27 83  1  0  0  0  0
 28 84  1  0  0  0  0
 29 85  1  0  0  0  0
 30 31  1  0  0  0  0
 31 32  2  0  0  0  0
 31 33  1  0  0  0  0
 33 34  1  0  0  0  0
 33 86  1  0  0  0  0
 33 87  1  0  0  0  0
 34 35  1  0  0  0  0
 34 88  1  0  0  0  0
 34 89  1  0  0  0  0
 35 36  1  0  0  0  0
 35 90  1  0  0  0  0
 35 91  1  0  0  0  0
 36 37  1  0  0  0  0
 36 92  1  0  0  0  0
 36 93  1  0  0  0  0
 37 38  1  0  0  0  0
 37 94  1  0  0  0  0
 37 95  1  0  0  0  0
 38 39  1  0  0  0  0
 38 96  1  0  0  0  0
 38 97  1  0  0  0  0
 39 40  1  0  0  0  0
 39 98  1  0  0  0  0
 39 99  1  0  0  0  0
 40 41  1  0  0  0  0
 40100  1  0  0  0  0
 40101  1  0  0  0  0
 41 42  1  0  0  0  0
 41102  1  0  0  0  0
 41103  1  0  0  0  0
 42 43  1  0  0  0  0
 42104  1  0  0  0  0
 42105  1  0  0  0  0
 43 44  1  0  0  0  0
 43106  1  0  0  0  0
 43107  1  0  0  0  0
 44 45  1  0  0  0  0
 44108  1  0  0  0  0
 44109  1  0  0  0  0
 45110  1  0  0  0  0
 45111  1  0  0  0  0
 45112  1  0  0  0  0
M  END
>  <DRUGBANK_ID>
DB11284

>  <SECONDARY_ACCESSION_NUMBERS>
DBSALT001575

>  <COMMON_NAME>
DL-dimyristoylphosphatidylglycerol

>  <CAS_NUMBER>
61361-72-6

>  <UNII>
BI71WT9P3R

>  <SYNONYMS>
Dimyristoylphosphatidylglycerol; DMPG

$$$$
