
 OpenBabel10282417072D

 83 82  0  0  1  0  0  0  0  0999 V2000
   22.4377   -8.1859    0.0000 C   0  0  0  0  0  0  0  0  0  0  0  0
   21.4766   -8.7409    0.0000 C   0  0  0  0  0  0  0  0  0  0  0  0
   20.5154   -8.1861    0.0000 C   0  0  0  0  0  0  0  0  0  0  0  0
   22.4377   -7.0761    0.0000 O   0  0  0  0  0  0  0  0  0  0  0  0
   19.5542   -8.7409    0.0000 O   0  0  0  0  0  0  0  0  0  0  0  0
   20.7265   -9.8509    0.0000 O   0  0  0  0  0  0  0  0  0  0  0  0
   22.2318   -9.8648    0.0000 H   0  0  0  0  0  0  0  0  0  0  0  0
   13.8384   -8.7409    0.0000 C   0  0  0  0  0  0  0  0  0  0  0  0
   14.5529   -8.3284    0.0000 C   0  0  0  0  0  0  0  0  0  0  0  0
   15.2674   -8.7409    0.0000 C   0  0  0  0  0  0  0  0  0  0  0  0
   15.9818   -8.3284    0.0000 C   0  0  0  0  0  0  0  0  0  0  0  0
   16.6963   -8.7409    0.0000 C   0  0  0  0  0  0  0  0  0  0  0  0
   17.4108   -8.3284    0.0000 C   0  0  0  0  0  0  0  0  0  0  0  0
   18.1252   -8.7409    0.0000 C   0  0  0  0  0  0  0  0  0  0  0  0
   18.8397   -8.3284    0.0000 C   0  0  0  0  0  0  0  0  0  0  0  0
   18.8397   -7.5034    0.0000 O   0  0  0  0  0  0  0  0  0  0  0  0
   15.0107   -9.8509    0.0000 C   0  0  0  0  0  0  0  0  0  0  0  0
   15.7252  -10.2634    0.0000 C   0  0  0  0  0  0  0  0  0  0  0  0
   16.4397   -9.8509    0.0000 C   0  0  0  0  0  0  0  0  0  0  0  0
   17.1541  -10.2634    0.0000 C   0  0  0  0  0  0  0  0  0  0  0  0
   17.8686   -9.8509    0.0000 C   0  0  0  0  0  0  0  0  0  0  0  0
   18.5831  -10.2634    0.0000 C   0  0  0  0  0  0  0  0  0  0  0  0
   19.2976   -9.8509    0.0000 C   0  0  0  0  0  0  0  0  0  0  0  0
   20.0121  -10.2634    0.0000 C   0  0  0  0  0  0  0  0  0  0  0  0
   20.0121  -11.0884    0.0000 O   0  0  0  0  0  0  0  0  0  0  0  0
   16.7219   -7.0761    0.0000 C   0  0  0  0  0  0  0  0  0  0  0  0
   17.4364   -6.6636    0.0000 C   0  0  0  0  0  0  0  0  0  0  0  0
   18.1508   -7.0761    0.0000 C   0  0  0  0  0  0  0  0  0  0  0  0
   18.8653   -6.6636    0.0000 C   0  0  0  0  0  0  0  0  0  0  0  0
   19.5798   -7.0761    0.0000 C   0  0  0  0  0  0  0  0  0  0  0  0
   20.2943   -6.6636    0.0000 C   0  0  0  0  0  0  0  0  0  0  0  0
   21.0087   -7.0761    0.0000 C   0  0  0  0  0  0  0  0  0  0  0  0
   21.7232   -6.6636    0.0000 C   0  0  0  0  0  0  0  0  0  0  0  0
   21.7232   -5.8386    0.0000 O   0  0  0  0  0  0  0  0  0  0  0  0
   23.3644   -8.7209    0.0000 H   0  0  0  0  0  0  0  0  0  0  0  0
   23.3643   -7.6509    0.0000 H   0  0  0  0  0  0  0  0  0  0  0  0
   20.5154   -7.1161    0.0000 H   0  0  0  0  0  0  0  0  0  0  0  0
   19.5888   -7.6510    0.0000 H   0  0  0  0  0  0  0  0  0  0  0  0
   12.9118   -8.2059    0.0000 H   0  0  0  0  0  0  0  0  0  0  0  0
   13.8384   -9.8109    0.0000 H   0  0  0  0  0  0  0  0  0  0  0  0
   12.9117   -9.2759    0.0000 H   0  0  0  0  0  0  0  0  0  0  0  0
   14.5529   -7.2584    0.0000 H   0  0  0  0  0  0  0  0  0  0  0  0
   15.4795   -7.7934    0.0000 H   0  0  0  0  0  0  0  0  0  0  0  0
   15.2674   -9.8109    0.0000 H   0  0  0  0  0  0  0  0  0  0  0  0
   16.1941   -9.2759    0.0000 H   0  0  0  0  0  0  0  0  0  0  0  0
   15.9818   -7.2584    0.0000 H   0  0  0  0  0  0  0  0  0  0  0  0
   16.9084   -7.7934    0.0000 H   0  0  0  0  0  0  0  0  0  0  0  0
   16.6963   -9.8109    0.0000 H   0  0  0  0  0  0  0  0  0  0  0  0
   17.6229   -9.2759    0.0000 H   0  0  0  0  0  0  0  0  0  0  0  0
   17.4108   -7.2584    0.0000 H   0  0  0  0  0  0  0  0  0  0  0  0
   18.3375   -7.7934    0.0000 H   0  0  0  0  0  0  0  0  0  0  0  0
   18.1252   -9.8109    0.0000 H   0  0  0  0  0  0  0  0  0  0  0  0
   19.0518   -9.2759    0.0000 H   0  0  0  0  0  0  0  0  0  0  0  0
   15.0107   -8.7809    0.0000 H   0  0  0  0  0  0  0  0  0  0  0  0
   14.0841  -10.3859    0.0000 H   0  0  0  0  0  0  0  0  0  0  0  0
   14.0840   -9.3159    0.0000 H   0  0  0  0  0  0  0  0  0  0  0  0
   15.7252  -11.3334    0.0000 H   0  0  0  0  0  0  0  0  0  0  0  0
   16.6518  -10.7984    0.0000 H   0  0  0  0  0  0  0  0  0  0  0  0
   16.4397   -8.7809    0.0000 H   0  0  0  0  0  0  0  0  0  0  0  0
   17.3664   -9.3159    0.0000 H   0  0  0  0  0  0  0  0  0  0  0  0
   17.1541  -11.3334    0.0000 H   0  0  0  0  0  0  0  0  0  0  0  0
   18.0807  -10.7984    0.0000 H   0  0  0  0  0  0  0  0  0  0  0  0
   17.8686   -8.7809    0.0000 H   0  0  0  0  0  0  0  0  0  0  0  0
   18.7952   -9.3159    0.0000 H   0  0  0  0  0  0  0  0  0  0  0  0
   18.5831  -11.3334    0.0000 H   0  0  0  0  0  0  0  0  0  0  0  0
   19.5097  -10.7984    0.0000 H   0  0  0  0  0  0  0  0  0  0  0  0
   19.2976   -8.7809    0.0000 H   0  0  0  0  0  0  0  0  0  0  0  0
   20.2242   -9.3159    0.0000 H   0  0  0  0  0  0  0  0  0  0  0  0
   15.7953   -6.5411    0.0000 H   0  0  0  0  0  0  0  0  0  0  0  0
   16.7219   -8.1461    0.0000 H   0  0  0  0  0  0  0  0  0  0  0  0
   15.7952   -7.6111    0.0000 H   0  0  0  0  0  0  0  0  0  0  0  0
   17.4364   -5.5936    0.0000 H   0  0  0  0  0  0  0  0  0  0  0  0
   18.3631   -6.1286    0.0000 H   0  0  0  0  0  0  0  0  0  0  0  0
   18.1508   -8.1461    0.0000 H   0  0  0  0  0  0  0  0  0  0  0  0
   19.0774   -7.6111    0.0000 H   0  0  0  0  0  0  0  0  0  0  0  0
   18.8653   -5.5936    0.0000 H   0  0  0  0  0  0  0  0  0  0  0  0
   19.7919   -6.1286    0.0000 H   0  0  0  0  0  0  0  0  0  0  0  0
   19.5798   -8.1461    0.0000 H   0  0  0  0  0  0  0  0  0  0  0  0
   20.5064   -7.6111    0.0000 H   0  0  0  0  0  0  0  0  0  0  0  0
   20.2943   -5.5936    0.0000 H   0  0  0  0  0  0  0  0  0  0  0  0
   21.2210   -6.1286    0.0000 H   0  0  0  0  0  0  0  0  0  0  0  0
   21.0087   -8.1461    0.0000 H   0  0  0  0  0  0  0  0  0  0  0  0
   21.9353   -7.6111    0.0000 H   0  0  0  0  0  0  0  0  0  0  0  0
  1 35  1  0  0  0  0
  1 36  1  0  0  0  0
  2  1  1  0  0  0  0
  2  6  1  0  0  0  0
  2  7  1  0  0  0  0
  3  2  1  0  0  0  0
  3 37  1  0  0  0  0
  3 38  1  0  0  0  0
  4  1  1  0  0  0  0
  5  3  1  0  0  0  0
  8  9  1  0  0  0  0
  8 39  1  0  0  0  0
  8 40  1  0  0  0  0
  8 41  1  0  0  0  0
  9 10  1  0  0  0  0
  9 42  1  0  0  0  0
  9 43  1  0  0  0  0
 10 11  1  0  0  0  0
 10 44  1  0  0  0  0
 10 45  1  0  0  0  0
 11 12  1  0  0  0  0
 11 46  1  0  0  0  0
 11 47  1  0  0  0  0
 12 13  1  0  0  0  0
 12 48  1  0  0  0  0
 12 49  1  0  0  0  0
 13 14  1  0  0  0  0
 13 50  1  0  0  0  0
 13 51  1  0  0  0  0
 14 15  1  0  0  0  0
 14 52  1  0  0  0  0
 14 53  1  0  0  0  0
 15  5  1  0  0  0  0
 15 16  2  0  0  0  0
 17 18  1  0  0  0  0
 17 54  1  0  0  0  0
 17 55  1  0  0  0  0
 17 56  1  0  0  0  0
 18 19  1  0  0  0  0
 18 57  1  0  0  0  0
 18 58  1  0  0  0  0
 19 20  1  0  0  0  0
 19 59  1  0  0  0  0
 19 60  1  0  0  0  0
 20 21  1  0  0  0  0
 20 61  1  0  0  0  0
 20 62  1  0  0  0  0
 21 22  1  0  0  0  0
 21 63  1  0  0  0  0
 21 64  1  0  0  0  0
 22 23  1  0  0  0  0
 22 65  1  0  0  0  0
 22 66  1  0  0  0  0
 23 24  1  0  0  0  0
 23 67  1  0  0  0  0
 23 68  1  0  0  0  0
 24  6  1  0  0  0  0
 24 25  2  0  0  0  0
 26 27  1  0  0  0  0
 26 69  1  0  0  0  0
 26 70  1  0  0  0  0
 26 71  1  0  0  0  0
 27 28  1  0  0  0  0
 27 72  1  0  0  0  0
 27 73  1  0  0  0  0
 28 29  1  0  0  0  0
 28 74  1  0  0  0  0
 28 75  1  0  0  0  0
 29 30  1  0  0  0  0
 29 76  1  0  0  0  0
 29 77  1  0  0  0  0
 30 31  1  0  0  0  0
 30 78  1  0  0  0  0
 30 79  1  0  0  0  0
 31 32  1  0  0  0  0
 31 80  1  0  0  0  0
 31 81  1  0  0  0  0
 32 33  1  0  0  0  0
 32 82  1  0  0  0  0
 32 83  1  0  0  0  0
 33  4  1  0  0  0  0
 33 34  2  0  0  0  0
M  END
>  <DRUGBANK_ID>
DB12176

>  <SECONDARY_ACCESSION_NUMBERS>
DB05781

>  <COMMON_NAME>
Tricaprylin

>  <CAS_NUMBER>
538-23-8

>  <UNII>
6P92858988

>  <SYNONYMS>
Caprylic acid triglyceride; Caprylic triglyceride; Glycerol tricaprylate; Glycerol trioctanoate; Tricaprilin; Tricaprylyl glycerin; Tricaprylyl glycerol

$$$$
