
 OpenBabel10282417072D

 69 73  0  0  1  0  0  0  0  0999 V2000
    6.4302    4.5375    0.0000 C   0  0  0  0  0  0  0  0  0  0  0  0
    6.4302    3.7125    0.0000 C   0  0  1  0  0  0  0  0  0  0  0  0
    7.1447    3.3000    0.0000 C   0  0  2  0  0  0  0  0  0  0  0  0
    7.1447    2.4750    0.0000 C   0  0  2  0  0  0  0  0  0  0  0  0
    6.4302    2.0625    0.0000 C   0  0  0  0  0  0  0  0  0  0  0  0
    5.7158    2.4750    0.0000 C   0  0  1  0  0  0  0  0  0  0  0  0
    5.7158    3.3000    0.0000 O   0  0  0  0  0  0  0  0  0  0  0  0
    5.0013    2.0625    0.0000 O   0  0  0  0  0  0  0  0  0  0  0  0
    5.0013    1.2375    0.0000 C   0  0  1  0  0  0  0  0  0  0  0  0
    5.7158    0.8250    0.0000 C   0  0  0  0  0  0  0  0  0  0  0  0
    5.7158    0.0000    0.0000 C   0  0  1  0  0  0  0  0  0  0  0  0
    5.0013   -0.4125    0.0000 C   0  0  0  0  0  0  0  0  0  0  0  0
    4.2868    0.0000    0.0000 C   0  0  0  0  0  0  0  0  0  0  0  0
    4.2868    0.8250    0.0000 C   0  0  0  0  0  0  0  0  0  0  0  0
    3.5724    1.2375    0.0000 C   0  0  0  0  0  0  0  0  0  0  0  0
    2.8579    0.8250    0.0000 C   0  0  0  0  0  0  0  0  0  0  0  0
    2.8579    0.0000    0.0000 C   0  0  0  0  0  0  0  0  0  0  0  0
    3.5724   -0.4125    0.0000 C   0  0  0  0  0  0  0  0  0  0  0  0
    3.5724   -1.2375    0.0000 O   0  0  0  0  0  0  0  0  0  0  0  0
    2.1434   -0.4125    0.0000 C   0  0  0  0  0  0  0  0  0  0  0  0
    2.1434   -1.2375    0.0000 O   0  0  0  0  0  0  0  0  0  0  0  0
    1.4289   -0.0000    0.0000 C   0  0  0  0  0  0  0  0  0  0  0  0
    0.7145   -0.4125    0.0000 C   0  0  0  0  0  0  0  0  0  0  0  0
   -0.0000    0.0000    0.0000 C   0  0  0  0  0  0  0  0  0  0  0  0
    0.0000    0.8250    0.0000 C   0  0  0  0  0  0  0  0  0  0  0  0
    0.7145    1.2375    0.0000 C   0  0  0  0  0  0  0  0  0  0  0  0
    1.4289    0.8250    0.0000 C   0  0  0  0  0  0  0  0  0  0  0  0
    2.1434    1.2375    0.0000 C   0  0  0  0  0  0  0  0  0  0  0  0
    2.1434    2.0625    0.0000 O   0  0  0  0  0  0  0  0  0  0  0  0
    0.7145    2.0625    0.0000 O   0  0  0  0  0  0  0  0  0  0  0  0
    1.4289    2.4750    0.0000 C   0  0  0  0  0  0  0  0  0  0  0  0
    3.5724    2.0625    0.0000 O   0  0  0  0  0  0  0  0  0  0  0  0
    6.5403   -0.0288    0.0000 C   0  0  0  0  0  0  0  0  0  0  0  0
    6.9774    0.6708    0.0000 C   0  0  0  0  0  0  0  0  0  0  0  0
    6.5901    1.3993    0.0000 O   0  0  0  0  0  0  0  0  0  0  0  0
    6.1530   -0.6996    0.0000 O   0  0  0  0  0  0  0  0  0  0  0  0
    7.8592    2.0625    0.0000 N   0  0  0  0  0  0  0  0  0  0  0  0
    7.8592    3.7125    0.0000 O   0  0  0  0  0  0  0  0  0  0  0  0
    7.3568    5.0725    0.0000 H   0  0  0  0  0  0  0  0  0  0  0  0
    5.5036    5.0725    0.0000 H   0  0  0  0  0  0  0  0  0  0  0  0
    6.4302    5.6075    0.0000 H   0  0  0  0  0  0  0  0  0  0  0  0
    7.3568    4.2475    0.0000 H   0  0  0  0  0  0  0  0  0  0  0  0
    7.1447    4.3700    0.0000 H   0  0  0  0  0  0  0  0  0  0  0  0
    8.0713    3.0100    0.0000 H   0  0  0  0  0  0  0  0  0  0  0  0
    6.4302    0.9925    0.0000 H   0  0  0  0  0  0  0  0  0  0  0  0
    5.5035    1.5275    0.0000 H   0  0  0  0  0  0  0  0  0  0  0  0
    5.7158    1.4050    0.0000 H   0  0  0  0  0  0  0  0  0  0  0  0
    5.9279    1.7725    0.0000 H   0  0  0  0  0  0  0  0  0  0  0  0
    6.6424    1.3600    0.0000 H   0  0  0  0  0  0  0  0  0  0  0  0
    6.6424    0.2900    0.0000 H   0  0  0  0  0  0  0  0  0  0  0  0
    5.0013   -1.4825    0.0000 H   0  0  0  0  0  0  0  0  0  0  0  0
    4.0747   -0.9475    0.0000 H   0  0  0  0  0  0  0  0  0  0  0  0
    2.7609   -1.7060    0.0000 H   0  0  0  0  0  0  0  0  0  0  0  0
    0.7145   -1.4445    0.0000 H   0  0  0  0  0  0  0  0  0  0  0  0
   -0.8937   -0.5160    0.0000 H   0  0  0  0  0  0  0  0  0  0  0  0
   -0.8937    1.3410    0.0000 H   0  0  0  0  0  0  0  0  0  0  0  0
    2.3556    1.9400    0.0000 H   0  0  0  0  0  0  0  0  0  0  0  0
    1.4289    3.5450    0.0000 H   0  0  0  0  0  0  0  0  0  0  0  0
    2.3555    3.0100    0.0000 H   0  0  0  0  0  0  0  0  0  0  0  0
    4.3839    2.5310    0.0000 H   0  0  0  0  0  0  0  0  0  0  0  0
    7.0427   -0.9735    0.0000 H   0  0  0  0  0  0  0  0  0  0  0  0
    7.6096   -0.0661    0.0000 H   0  0  0  0  0  0  0  0  0  0  0  0
    8.0467    0.6335    0.0000 H   0  0  0  0  0  0  0  0  0  0  0  0
    7.5444    1.5782    0.0000 H   0  0  0  0  0  0  0  0  0  0  0  0
    7.1042    2.2219    0.0000 H   0  0  0  0  0  0  0  0  0  0  0  0
    5.6976   -1.5561    0.0000 H   0  0  0  0  0  0  0  0  0  0  0  0
    7.8592    1.0425    0.0000 H   0  0  0  0  0  0  0  0  0  0  0  0
    8.7425    2.5725    0.0000 H   0  0  0  0  0  0  0  0  0  0  0  0
    8.6992    3.2275    0.0000 H   0  0  0  0  0  0  0  0  0  0  0  0
  1 39  1  0  0  0  0
  1 40  1  0  0  0  0
  1 41  1  0  0  0  0
  2  1  1  0  0  0  0
  2  7  1  0  0  0  0
  2 42  1  6  0  0  0
  3  2  1  0  0  0  0
  3  4  1  0  0  0  0
  3 38  1  0  0  0  0
  3 43  1  6  0  0  0
  4  5  1  0  0  0  0
  4 37  1  0  0  0  0
  4 44  1  6  0  0  0
  5 45  1  0  0  0  0
  5 46  1  0  0  0  0
  6  5  1  0  0  0  0
  6  7  1  0  0  0  0
  6  8  1  0  0  0  0
  6 47  1  1  0  0  0
  9  8  1  0  0  0  0
  9 10  1  0  0  0  0
  9 14  1  0  0  0  0
  9 48  1  6  0  0  0
 10 49  1  0  0  0  0
 10 50  1  0  0  0  0
 11 10  1  0  0  0  0
 11 12  1  0  0  0  0
 11 33  1  0  0  0  0
 11 36  1  1  0  0  0
 12 13  1  0  0  0  0
 12 51  1  0  0  0  0
 12 52  1  0  0  0  0
 13 14  2  0  0  0  0
 13 18  1  0  0  0  0
 14 15  1  0  0  0  0
 15 16  2  0  0  0  0
 15 32  1  0  0  0  0
 16 17  1  0  0  0  0
 16 28  1  0  0  0  0
 17 18  2  0  0  0  0
 17 20  1  0  0  0  0
 18 19  1  0  0  0  0
 19 53  1  0  0  0  0
 20 21  2  0  0  0  0
 20 22  1  0  0  0  0
 22 23  2  0  0  0  0
 22 27  1  0  0  0  0
 23 24  1  0  0  0  0
 23 54  1  0  0  0  0
 24 25  2  0  0  0  0
 24 55  1  0  0  0  0
 25 26  1  0  0  0  0
 25 56  1  0  0  0  0
 26 27  2  0  0  0  0
 26 30  1  0  0  0  0
 27 28  1  0  0  0  0
 28 29  2  0  0  0  0
 30 31  1  0  0  0  0
 31 57  1  0  0  0  0
 31 58  1  0  0  0  0
 31 59  1  0  0  0  0
 32 60  1  0  0  0  0
 33 34  1  0  0  0  0
 33 61  1  0  0  0  0
 33 62  1  0  0  0  0
 34 35  1  0  0  0  0
 34 63  1  0  0  0  0
 34 64  1  0  0  0  0
 35 65  1  0  0  0  0
 36 66  1  0  0  0  0
 37 67  1  0  0  0  0
 37 68  1  0  0  0  0
 38 69  1  0  0  0  0
M  END
>  <DRUGBANK_ID>
DB05706

>  <COMMON_NAME>
13-deoxydoxorubicin

>  <CAS_NUMBER>
628290-43-7

>  <UNII>
1S9VO1DQG5

$$$$
