
 OpenBabel10282417072D

 88 92  0  0  0  0  0  0  0  0999 V2000
   -7.2514    7.2402    0.0000 C   0  0  0  0  0  0  0  0  0  0  0  0
   -6.5369    6.8277    0.0000 C   0  0  0  0  0  0  0  0  0  0  0  0
   -5.8225    7.2402    0.0000 C   0  0  0  0  0  0  0  0  0  0  0  0
   -5.1080    6.8277    0.0000 C   0  0  0  0  0  0  0  0  0  0  0  0
   -4.3935    7.2402    0.0000 C   0  0  0  0  0  0  0  0  0  0  0  0
   -3.6791    6.8277    0.0000 C   0  0  0  0  0  0  0  0  0  0  0  0
   -2.9646    7.2402    0.0000 C   0  0  0  0  0  0  0  0  0  0  0  0
   -2.2501    6.8277    0.0000 C   0  0  0  0  0  0  0  0  0  0  0  0
   -2.2501    6.0027    0.0000 C   0  0  0  0  0  0  0  0  0  0  0  0
   -2.9646    5.5902    0.0000 C   0  0  0  0  0  0  0  0  0  0  0  0
   -3.6791    6.0027    0.0000 C   0  0  0  0  0  0  0  0  0  0  0  0
   -1.5356    5.5902    0.0000 C   0  0  0  0  0  0  0  0  0  0  0  0
   -1.5356    4.7652    0.0000 O   0  0  0  0  0  0  0  0  0  0  0  0
   -0.8212    6.0027    0.0000 N   0  0  0  0  0  0  0  0  0  0  0  0
   -0.8212    6.8277    0.0000 C   0  0  0  0  0  0  0  0  0  0  0  0
   -0.1067    7.2402    0.0000 C   0  0  0  0  0  0  0  0  0  0  0  0
   -0.1067    8.0652    0.0000 C   0  0  0  0  0  0  0  0  0  0  0  0
    0.6078    8.4777    0.0000 C   0  0  0  0  0  0  0  0  0  0  0  0
    1.3222    8.0652    0.0000 C   0  0  0  0  0  0  0  0  0  0  0  0
    1.3222    7.2402    0.0000 C   0  0  0  0  0  0  0  0  0  0  0  0
    0.6078    6.8277    0.0000 C   0  0  0  0  0  0  0  0  0  0  0  0
    2.0367    8.4777    0.0000 C   0  0  0  0  0  0  0  0  0  0  0  0
    2.0367    9.3027    0.0000 C   0  0  0  0  0  0  0  0  0  0  0  0
    2.7512    9.7152    0.0000 C   0  0  0  0  0  0  0  0  0  0  0  0
    3.4656    9.3027    0.0000 C   0  0  0  0  0  0  0  0  0  0  0  0
    4.1801    9.7152    0.0000 C   0  0  0  0  0  0  0  0  0  0  0  0
    4.1801   10.5402    0.0000 C   0  0  0  0  0  0  0  0  0  0  0  0
    3.4656   10.9527    0.0000 O   0  0  0  0  0  0  0  0  0  0  0  0
    4.8946   10.9527    0.0000 O   0  0  0  0  0  0  0  0  0  0  0  0
    4.8946   11.7777    0.0000 C   0  0  0  0  0  0  0  0  0  0  0  0
    3.4656    8.4777    0.0000 C   0  0  0  0  0  0  0  0  0  0  0  0
    2.7512    8.0652    0.0000 C   0  0  0  0  0  0  0  0  0  0  0  0
   -0.1067    5.5902    0.0000 C   0  0  0  0  0  0  0  0  0  0  0  0
    0.6078    6.0027    0.0000 C   0  0  0  0  0  0  0  0  0  0  0  0
    1.3222    5.5902    0.0000 C   0  0  0  0  0  0  0  0  0  0  0  0
    1.3222    4.7652    0.0000 N   0  0  0  0  0  0  0  0  0  0  0  0
    0.6078    4.3527    0.0000 C   0  0  0  0  0  0  0  0  0  0  0  0
   -0.1067    4.7652    0.0000 C   0  0  0  0  0  0  0  0  0  0  0  0
    2.0367    4.3527    0.0000 C   0  0  0  0  0  0  0  0  0  0  0  0
    2.0367    3.5277    0.0000 C   0  0  0  0  0  0  0  0  0  0  0  0
    2.7041    3.0428    0.0000 N   0  0  0  0  0  0  0  0  0  0  0  0
    2.4492    2.2581    0.0000 C   0  0  0  0  0  0  0  0  0  0  0  0
    1.6242    2.2581    0.0000 C   0  0  0  0  0  0  0  0  0  0  0  0
    1.3693    3.0428    0.0000 N   0  0  0  0  0  0  0  0  0  0  0  0
   -7.2514    8.3102    0.0000 H   0  0  0  0  0  0  0  0  0  0  0  0
   -8.1780    6.7052    0.0000 H   0  0  0  0  0  0  0  0  0  0  0  0
   -8.1781    7.7752    0.0000 H   0  0  0  0  0  0  0  0  0  0  0  0
   -6.5369    5.7577    0.0000 H   0  0  0  0  0  0  0  0  0  0  0  0
   -5.6102    6.2927    0.0000 H   0  0  0  0  0  0  0  0  0  0  0  0
   -5.8225    8.3102    0.0000 H   0  0  0  0  0  0  0  0  0  0  0  0
   -4.8959    7.7752    0.0000 H   0  0  0  0  0  0  0  0  0  0  0  0
   -5.1080    5.7577    0.0000 H   0  0  0  0  0  0  0  0  0  0  0  0
   -4.1814    6.2927    0.0000 H   0  0  0  0  0  0  0  0  0  0  0  0
   -4.3935    8.3102    0.0000 H   0  0  0  0  0  0  0  0  0  0  0  0
   -3.4668    7.7752    0.0000 H   0  0  0  0  0  0  0  0  0  0  0  0
   -2.9646    8.2722    0.0000 H   0  0  0  0  0  0  0  0  0  0  0  0
   -1.3564    7.3437    0.0000 H   0  0  0  0  0  0  0  0  0  0  0  0
   -2.9646    4.5582    0.0000 H   0  0  0  0  0  0  0  0  0  0  0  0
   -4.5728    5.4867    0.0000 H   0  0  0  0  0  0  0  0  0  0  0  0
   -1.7478    7.3627    0.0000 H   0  0  0  0  0  0  0  0  0  0  0  0
   -0.8212    7.8977    0.0000 H   0  0  0  0  0  0  0  0  0  0  0  0
   -1.0004    8.5812    0.0000 H   0  0  0  0  0  0  0  0  0  0  0  0
    0.6078    9.5097    0.0000 H   0  0  0  0  0  0  0  0  0  0  0  0
    2.2159    6.7242    0.0000 H   0  0  0  0  0  0  0  0  0  0  0  0
    0.6078    5.7957    0.0000 H   0  0  0  0  0  0  0  0  0  0  0  0
    1.1430    9.8187    0.0000 H   0  0  0  0  0  0  0  0  0  0  0  0
    2.7512   10.7472    0.0000 H   0  0  0  0  0  0  0  0  0  0  0  0
    5.1067    9.1802    0.0000 H   0  0  0  0  0  0  0  0  0  0  0  0
    5.1067   10.2502    0.0000 H   0  0  0  0  0  0  0  0  0  0  0  0
    5.8212   12.3127    0.0000 H   0  0  0  0  0  0  0  0  0  0  0  0
    3.9680   12.3127    0.0000 H   0  0  0  0  0  0  0  0  0  0  0  0
    4.8946   12.8477    0.0000 H   0  0  0  0  0  0  0  0  0  0  0  0
    4.3593    7.9617    0.0000 H   0  0  0  0  0  0  0  0  0  0  0  0
    2.7512    7.0332    0.0000 H   0  0  0  0  0  0  0  0  0  0  0  0
    0.8199    5.0552    0.0000 H   0  0  0  0  0  0  0  0  0  0  0  0
    0.6078    7.0727    0.0000 H   0  0  0  0  0  0  0  0  0  0  0  0
    1.5345    6.5377    0.0000 H   0  0  0  0  0  0  0  0  0  0  0  0
    2.2489    6.1252    0.0000 H   0  0  0  0  0  0  0  0  0  0  0  0
    2.2488    5.0552    0.0000 H   0  0  0  0  0  0  0  0  0  0  0  0
    0.6078    3.2827    0.0000 H   0  0  0  0  0  0  0  0  0  0  0  0
   -0.3188    3.8177    0.0000 H   0  0  0  0  0  0  0  0  0  0  0  0
   -1.0333    4.2302    0.0000 H   0  0  0  0  0  0  0  0  0  0  0  0
   -1.0333    5.3002    0.0000 H   0  0  0  0  0  0  0  0  0  0  0  0
    2.9633    4.8877    0.0000 H   0  0  0  0  0  0  0  0  0  0  0  0
    2.9633    3.8177    0.0000 H   0  0  0  0  0  0  0  0  0  0  0  0
    3.0558    1.4232    0.0000 H   0  0  0  0  0  0  0  0  0  0  0  0
    1.0176    1.4232    0.0000 H   0  0  0  0  0  0  0  0  0  0  0  0
    0.4330    3.3471    0.0000 H   0  0  0  0  0  0  0  0  0  0  0  0
  1  2  1  0  0  0  0
  1 45  1  0  0  0  0
  1 46  1  0  0  0  0
  1 47  1  0  0  0  0
  2  3  1  0  0  0  0
  2 48  1  0  0  0  0
  2 49  1  0  0  0  0
  3  4  1  0  0  0  0
  3 50  1  0  0  0  0
  3 51  1  0  0  0  0
  4  5  1  0  0  0  0
  4 52  1  0  0  0  0
  4 53  1  0  0  0  0
  5  6  1  0  0  0  0
  5 54  1  0  0  0  0
  5 55  1  0  0  0  0
  6  7  2  0  0  0  0
  6 11  1  0  0  0  0
  7  8  1  0  0  0  0
  7 56  1  0  0  0  0
  8  9  2  0  0  0  0
  8 57  1  0  0  0  0
  9 10  1  0  0  0  0
  9 12  1  0  0  0  0
 10 11  2  0  0  0  0
 10 58  1  0  0  0  0
 11 59  1  0  0  0  0
 12 13  2  0  0  0  0
 12 14  1  0  0  0  0
 14 15  1  0  0  0  0
 14 33  1  0  0  0  0
 15 16  1  0  0  0  0
 15 60  1  0  0  0  0
 15 61  1  0  0  0  0
 16 17  2  0  0  0  0
 16 21  1  0  0  0  0
 17 18  1  0  0  0  0
 17 62  1  0  0  0  0
 18 19  2  0  0  0  0
 18 63  1  0  0  0  0
 19 20  1  0  0  0  0
 19 22  1  0  0  0  0
 20 21  2  0  0  0  0
 20 64  1  0  0  0  0
 21 65  1  0  0  0  0
 22 23  2  0  0  0  0
 22 32  1  0  0  0  0
 23 24  1  0  0  0  0
 23 66  1  0  0  0  0
 24 25  2  0  0  0  0
 24 67  1  0  0  0  0
 25 26  1  0  0  0  0
 25 31  1  0  0  0  0
 26 27  1  0  0  0  0
 26 68  1  0  0  0  0
 26 69  1  0  0  0  0
 27 28  2  0  0  0  0
 27 29  1  0  0  0  0
 29 30  1  0  0  0  0
 30 70  1  0  0  0  0
 30 71  1  0  0  0  0
 30 72  1  0  0  0  0
 31 32  2  0  0  0  0
 31 73  1  0  0  0  0
 32 74  1  0  0  0  0
 33 34  1  0  0  0  0
 33 38  1  0  0  0  0
 33 75  1  0  0  0  0
 34 35  1  0  0  0  0
 34 76  1  0  0  0  0
 34 77  1  0  0  0  0
 35 36  1  0  0  0  0
 35 78  1  0  0  0  0
 35 79  1  0  0  0  0
 36 37  1  0  0  0  0
 36 39  1  0  0  0  0
 37 38  1  0  0  0  0
 37 80  1  0  0  0  0
 37 81  1  0  0  0  0
 38 82  1  0  0  0  0
 38 83  1  0  0  0  0
 39 40  1  0  0  0  0
 39 84  1  0  0  0  0
 39 85  1  0  0  0  0
 40 41  2  0  0  0  0
 40 44  1  0  0  0  0
 41 42  1  0  0  0  0
 42 43  2  0  0  0  0
 42 86  1  0  0  0  0
 43 44  1  0  0  0  0
 43 87  1  0  0  0  0
 44 88  1  0  0  0  0
M  END
>  <DRUGBANK_ID>
DB02505

>  <SECONDARY_ACCESSION_NUMBERS>
EXPT01851

>  <COMMON_NAME>
N-(R-Carboxy-Ethyl)-Alpha-(S)-(2-Phenylethyl)

$$$$
