
 OpenBabel10282417072D

 21 21  0  0  0  0  0  0  0  0999 V2000
    1.7862    0.4125    0.0000 O   0  0  0  0  0  0  0  0  0  0  0  0
    1.7862   -1.2376    0.0000 O   0  0  0  0  0  0  0  0  0  0  0  0
    0.3572    1.2376    0.0000 O   0  0  0  0  0  0  0  0  0  0  0  0
   -1.7862    0.0000    0.0000 O   0  0  0  0  0  0  0  0  0  0  0  0
   -0.3572   -0.8250    0.0000 N   0  0  0  0  0  0  0  0  0  0  0  0
   -1.0717    0.4125    0.0000 N   0  0  0  0  0  0  0  0  0  0  0  0
    1.0717    0.0000    0.0000 C   0  0  1  0  0  0  0  0  0  0  0  0
    1.0717   -0.8250    0.0000 C   0  0  1  0  0  0  0  0  0  0  0  0
    0.3572    0.4125    0.0000 C   0  0  2  0  0  0  0  0  0  0  0  0
    0.3572   -1.2376    0.0000 C   0  0  0  0  0  0  0  0  0  0  0  0
   -0.3572    0.0000    0.0000 C   0  0  0  0  0  0  0  0  0  0  0  0
   -1.0717    0.9240    0.0000 H   0  0  0  0  0  0  0  0  0  0  0  0
    2.6262   -0.0725    0.0000 H   0  0  0  0  0  0  0  0  0  0  0  0
    1.7861   -2.2076    0.0000 H   0  0  0  0  0  0  0  0  0  0  0  0
    1.1972    1.7226    0.0000 H   0  0  0  0  0  0  0  0  0  0  0  0
   -2.6262    0.4850    0.0000 H   0  0  0  0  0  0  0  0  0  0  0  0
    1.9983   -0.5350    0.0000 H   0  0  0  0  0  0  0  0  0  0  0  0
    1.9984   -0.2900    0.0000 H   0  0  0  0  0  0  0  0  0  0  0  0
    1.2838    0.9475    0.0000 H   0  0  0  0  0  0  0  0  0  0  0  0
    0.3572   -2.3076    0.0000 H   0  0  0  0  0  0  0  0  0  0  0  0
    1.2839   -1.7726    0.0000 H   0  0  0  0  0  0  0  0  0  0  0  0
  1 13  1  0  0  0  0
  2 14  1  0  0  0  0
  3 15  1  0  0  0  0
  4  6  1  0  0  0  0
  4 16  1  0  0  0  0
  5 10  1  0  0  0  0
  5 11  2  0  0  0  0
  6 11  1  0  0  0  0
  6 12  1  0  0  0  0
  7  1  1  0  0  0  0
  7  8  1  0  0  0  0
  7  9  1  0  0  0  0
  7 17  1  6  0  0  0
  8  2  1  0  0  0  0
  8 10  1  0  0  0  0
  8 18  1  1  0  0  0
  9  3  1  0  0  0  0
  9 11  1  0  0  0  0
  9 19  1  1  0  0  0
 10 20  1  0  0  0  0
 10 21  1  0  0  0  0
M  END
>  <DRUGBANK_ID>
DB01921

>  <SECONDARY_ACCESSION_NUMBERS>
EXPT02054

>  <COMMON_NAME>
Xylose-derived lactam oxime

$$$$
