
 OpenBabel10282417072D

 26 25  0  0  0  0  0  0  0  0999 V2000
   -3.5689   -0.2069    0.0000 O   0  0  0  0  0  0  0  0  0  0  0  0
   -2.8551   -0.6209    0.0000 V   0  0  0  0  0  0  0  0  0  0  0  0
   -2.8551   -1.4418    0.0000 O   0  5  0  0  0  0  0  0  0  0  0  0
   -2.1413   -0.2069    0.0000 O   0  3  3  0  0  0  0  0  0  0  0  0
   -1.4275   -0.6209    0.0000 V   0  0  0  0  0  0  0  0  0  0  0  0
   -1.4275   -1.4418    0.0000 O   0  0  0  0  0  0  0  0  0  0  0  0
   -0.7138   -0.2069    0.0000 O   0  0  0  0  0  0  0  0  0  0  0  0
    0.0000   -0.6209    0.0000 V   0  0  0  0  0  0  0  0  0  0  0  0
   -0.4140   -1.3347    0.0000 O   0  0  0  0  0  0  0  0  0  0  0  0
    0.4140    0.0927    0.0000 O   0  0  0  0  0  0  0  0  0  0  0  0
    0.7137   -1.0278    0.0000 O   0  0  0  0  0  0  0  0  0  0  0  0
    1.4275   -0.6209    0.0000 V   0  0  0  0  0  0  0  0  0  0  0  0
    1.8415   -1.3347    0.0000 O   0  0  0  0  0  0  0  0  0  0  0  0
    1.0136    0.0927    0.0000 O   0  0  0  0  0  0  0  0  0  0  0  0
    2.1413   -0.2069    0.0000 O   0  3  3  0  0  0  0  0  0  0  0  0
    2.8551   -0.6209    0.0000 V   0  0  0  0  0  0  0  0  0  0  0  0
    3.5689   -0.2069    0.0000 O   0  5  0  0  0  0  0  0  0  0  0  0
    2.8551   -1.4418    0.0000 O   0  0  0  0  0  0  0  0  0  0  0  0
    2.1413    0.6210    0.0000 V   0  0  0  0  0  0  0  0  0  0  0  0
    2.9621    0.6210    0.0000 O   0  0  0  0  0  0  0  0  0  0  0  0
    1.3204    0.6210    0.0000 O   0  0  0  0  0  0  0  0  0  0  0  0
    2.1413    1.4418    0.0000 O   0  0  0  0  0  0  0  0  0  0  0  0
   -2.1413    0.6210    0.0000 V   0  0  0  0  0  0  0  0  0  0  0  0
   -2.1413    1.4418    0.0000 O   0  0  0  0  0  0  0  0  0  0  0  0
   -1.3205    0.6210    0.0000 O   0  0  0  0  0  0  0  0  0  0  0  0
   -2.9622    0.6210    0.0000 O   0  0  0  0  0  0  0  0  0  0  0  0
  1  2  2  0  0  0  0
  2  3  1  0  0  0  0
  2  4  1  0  0  0  0
  4  5  1  0  0  0  0
  4 23  1  0  0  0  0
  5  6  2  0  0  0  0
  5  7  1  0  0  0  0
  7  8  1  0  0  0  0
  8  9  2  0  0  0  0
  8 10  2  0  0  0  0
  8 11  1  0  0  0  0
 11 12  1  0  0  0  0
 12 13  2  0  0  0  0
 12 14  2  0  0  0  0
 12 15  1  0  0  0  0
 15 16  1  0  0  0  0
 15 19  1  0  0  0  0
 16 17  1  0  0  0  0
 16 18  2  0  0  0  0
 19 20  2  0  0  0  0
 19 21  2  0  0  0  0
 19 22  2  0  0  0  0
 23 24  2  0  0  0  0
 23 25  2  0  0  0  0
 23 26  2  0  0  0  0
M  CHG  4   3  -1   4   1  15   1  17  -1
M  END
>  <DRUGBANK_ID>
DB02681

>  <SECONDARY_ACCESSION_NUMBERS>
EXPT03214

>  <COMMON_NAME>
2,8-bis[oxido(oxo)vanadio]-1,1,1,3,5,5,7,7,9,9,9-undecaoxopentavanadoxane-2,8-diium

$$$$
