Sialyllactose.mol
 OpenBabel10282417072D

 25 26  0  0  0  0  0  0  0  0999 V2000
    2.2339    0.6269    0.0000 N   0  0  0  0  0  0  0  0  0  0  0  0
    1.6208    0.0749    0.0000 C   0  0  0  0  0  0  0  0  0  0  0  0
    0.8362    0.3298    0.0000 C   0  0  0  0  0  0  0  0  0  0  0  0
    0.2231   -0.2222    0.0000 C   0  0  0  0  0  0  0  0  0  0  0  0
    0.3093   -1.0427    0.0000 C   0  0  0  0  0  0  0  0  0  0  0  0
   -0.4444   -1.3783    0.0000 N   0  0  0  0  0  0  0  0  0  0  0  0
   -0.9964   -0.7652    0.0000 C   0  0  0  0  0  0  0  0  0  0  0  0
   -1.8214   -0.7652    0.0000 C   0  0  0  0  0  0  0  0  0  0  0  0
   -2.2339   -0.0507    0.0000 C   0  0  0  0  0  0  0  0  0  0  0  0
   -1.8214    0.6638    0.0000 C   0  0  0  0  0  0  0  0  0  0  0  0
   -2.2339    1.3783    0.0000 O   0  0  0  0  0  0  0  0  0  0  0  0
   -0.9964    0.6638    0.0000 C   0  0  0  0  0  0  0  0  0  0  0  0
   -0.5839   -0.0507    0.0000 C   0  0  0  0  0  0  0  0  0  0  0  0
    3.2040    0.3117    0.0000 H   0  0  0  0  0  0  0  0  0  0  0  0
    2.0219    1.6246    0.0000 H   0  0  0  0  0  0  0  0  0  0  0  0
    1.8433   -0.9717    0.0000 H   0  0  0  0  0  0  0  0  0  0  0  0
    0.8256   -0.6411    0.0000 H   0  0  0  0  0  0  0  0  0  0  0  0
    0.6137    1.3764    0.0000 H   0  0  0  0  0  0  0  0  0  0  0  0
   -0.1814    0.6605    0.0000 H   0  0  0  0  0  0  0  0  0  0  0  0
    1.2030   -1.5587    0.0000 H   0  0  0  0  0  0  0  0  0  0  0  0
   -0.6491   -2.3413    0.0000 H   0  0  0  0  0  0  0  0  0  0  0  0
   -2.3374   -1.6589    0.0000 H   0  0  0  0  0  0  0  0  0  0  0  0
   -3.2659   -0.0507    0.0000 H   0  0  0  0  0  0  0  0  0  0  0  0
   -1.7654    2.1898    0.0000 H   0  0  0  0  0  0  0  0  0  0  0  0
   -0.4804    1.5575    0.0000 H   0  0  0  0  0  0  0  0  0  0  0  0
  1  2  1  0  0  0  0
  1 14  1  0  0  0  0
  1 15  1  0  0  0  0
  2  3  1  0  0  0  0
  2 16  1  0  0  0  0
  2 17  1  0  0  0  0
  3  4  1  0  0  0  0
  3 18  1  0  0  0  0
  3 19  1  0  0  0  0
  4  5  2  0  0  0  0
  4 13  1  0  0  0  0
  5  6  1  0  0  0  0
  5 20  1  0  0  0  0
  6  7  1  0  0  0  0
  6 21  1  0  0  0  0
  7  8  2  0  0  0  0
  7 13  1  0  0  0  0
  8  9  1  0  0  0  0
  8 22  1  0  0  0  0
  9 10  2  0  0  0  0
  9 23  1  0  0  0  0
 10 11  1  0  0  0  0
 10 12  1  0  0  0  0
 11 24  1  0  0  0  0
 12 13  2  0  0  0  0
 12 25  1  0  0  0  0
M  END
>  <DRUGBANK_ID>
DB08839

>  <COMMON_NAME>
Serotonin

>  <CAS_NUMBER>
50-67-9

>  <UNII>
333DO1RDJY

>  <SYNONYMS>
3-(2-Aminoethyl)-1H-indol-5-ol; 5-HT; 5-Hydroxytryptamine; Enteramine; s√©rotonine; thrombocytin; thrombotonin

$$$$
