NTS
 OpenBabel10282417072D

 27 28  0  0  0  0  0  0  0  0999 V2000
   -0.5657   -0.8132    0.0000 C   0  0  0  0  0  0  0  0  0  0  0  0
   -1.2802   -0.4007    0.0000 C   0  0  0  0  0  0  0  0  0  0  0  0
   -1.2802    0.4243    0.0000 C   0  0  0  0  0  0  0  0  0  0  0  0
   -0.5657    0.8368    0.0000 C   0  0  0  0  0  0  0  0  0  0  0  0
    0.8633    0.8368    0.0000 C   0  0  0  0  0  0  0  0  0  0  0  0
    1.5777    0.4243    0.0000 C   0  0  0  0  0  0  0  0  0  0  0  0
    1.5777   -0.4007    0.0000 C   0  0  0  0  0  0  0  0  0  0  0  0
    0.8633   -0.8132    0.0000 C   0  0  0  0  0  0  0  0  0  0  0  0
    0.1488   -0.4007    0.0000 C   0  0  0  0  0  0  0  0  0  0  0  0
    0.1488    0.4243    0.0000 C   0  0  0  0  0  0  0  0  0  0  0  0
   -0.5657   -2.4632    0.0000 O   0  0  0  0  0  0  0  0  0  0  0  0
    0.2593   -1.6382    0.0000 O   0  0  0  0  0  0  0  0  0  0  0  0
   -1.3907   -1.6382    0.0000 O   0  5  0  0  0  0  0  0  0  0  0  0
   -2.7091    1.2493    0.0000 O   0  0  0  0  0  0  0  0  0  0  0  0
   -1.5821    1.5513    0.0000 O   0  0  0  0  0  0  0  0  0  0  0  0
   -2.4071    0.1223    0.0000 O   0  5  0  0  0  0  0  0  0  0  0  0
    3.0067    1.2493    0.0000 O   0  0  0  0  0  0  0  0  0  0  0  0
    2.7047    0.1223    0.0000 O   0  0  0  0  0  0  0  0  0  0  0  0
    1.8797    1.5513    0.0000 O   0  5  0  0  0  0  0  0  0  0  0  0
   -0.5657   -1.6382    0.0000 S   0  0  0  0  0  0  0  0  0  0  0  0
   -1.9946    0.8368    0.0000 S   0  0  0  0  0  0  0  0  0  0  0  0
    2.2922    0.8368    0.0000 S   0  0  0  0  0  0  0  0  0  0  0  0
   -2.1739   -0.9167    0.0000 H   0  0  0  0  0  0  0  0  0  0  0  0
   -0.5657    1.8688    0.0000 H   0  0  0  0  0  0  0  0  0  0  0  0
    0.8633    1.8688    0.0000 H   0  0  0  0  0  0  0  0  0  0  0  0
    2.4714   -0.9167    0.0000 H   0  0  0  0  0  0  0  0  0  0  0  0
    0.8633   -1.8452    0.0000 H   0  0  0  0  0  0  0  0  0  0  0  0
  1  2  2  0  0  0  0
  1  9  1  0  0  0  0
  1 20  1  0  0  0  0
  2  3  1  0  0  0  0
  2 23  1  0  0  0  0
  3  4  2  0  0  0  0
  3 21  1  0  0  0  0
  4 10  1  0  0  0  0
  4 24  1  0  0  0  0
  5  6  2  0  0  0  0
  5 10  1  0  0  0  0
  5 25  1  0  0  0  0
  6  7  1  0  0  0  0
  6 22  1  0  0  0  0
  7  8  2  0  0  0  0
  7 26  1  0  0  0  0
  8  9  1  0  0  0  0
  8 27  1  0  0  0  0
  9 10  2  0  0  0  0
 11 20  2  0  0  0  0
 12 20  2  0  0  0  0
 13 20  1  0  0  0  0
 14 21  2  0  0  0  0
 15 21  2  0  0  0  0
 16 21  1  0  0  0  0
 17 22  2  0  0  0  0
 18 22  2  0  0  0  0
 19 22  1  0  0  0  0
M  CHG  3  13  -1  16  -1  19  -1
M  END
>  <DRUGBANK_ID>
DB04409

>  <SECONDARY_ACCESSION_NUMBERS>
EXPT02393

>  <COMMON_NAME>
Naphthalene Trisulfonate

$$$$
