
 OpenBabel10282417072D

 68 71  0  0  0  0  0  0  0  0999 V2000
   -4.2868   -4.1250    0.0000 C   0  0  0  0  0  0  0  0  0  0  0  0
   -3.5724   -3.7125    0.0000 C   0  0  0  0  0  0  0  0  0  0  0  0
   -2.8579   -4.1250    0.0000 C   0  0  0  0  0  0  0  0  0  0  0  0
   -3.5724   -2.8875    0.0000 C   0  0  0  0  0  0  0  0  0  0  0  0
   -4.2868   -2.4750    0.0000 C   0  0  0  0  0  0  0  0  0  0  0  0
   -5.0013   -2.8875    0.0000 O   0  0  0  0  0  0  0  0  0  0  0  0
   -4.2868   -1.6500    0.0000 C   0  0  0  0  0  0  0  0  0  0  0  0
   -5.0013   -1.2375    0.0000 O   0  0  0  0  0  0  0  0  0  0  0  0
   -3.5724   -1.2375    0.0000 C   0  0  0  0  0  0  0  0  0  0  0  0
   -3.5724   -0.4125    0.0000 C   0  0  0  0  0  0  0  0  0  0  0  0
   -2.8579   -0.0000    0.0000 O   0  0  0  0  0  0  0  0  0  0  0  0
   -2.8579   -1.6500    0.0000 C   0  0  0  0  0  0  0  0  0  0  0  0
   -2.1434   -1.2375    0.0000 C   0  0  0  0  0  0  0  0  0  0  0  0
   -2.1434   -0.4125    0.0000 O   0  0  0  0  0  0  0  0  0  0  0  0
   -1.4289   -1.6500    0.0000 C   0  0  0  0  0  0  0  0  0  0  0  0
   -1.4289   -2.4750    0.0000 C   0  0  0  0  0  0  0  0  0  0  0  0
   -0.7145   -2.8875    0.0000 C   0  0  0  0  0  0  0  0  0  0  0  0
   -2.1434   -2.8875    0.0000 C   0  0  0  0  0  0  0  0  0  0  0  0
   -2.8579   -2.4750    0.0000 C   0  0  0  0  0  0  0  0  0  0  0  0
   -0.7145   -1.2375    0.0000 C   0  0  0  0  0  0  0  0  0  0  0  0
    0.0000   -1.6500    0.0000 C   0  0  0  0  0  0  0  0  0  0  0  0
    0.0000   -2.4750    0.0000 O   0  0  0  0  0  0  0  0  0  0  0  0
    0.7145   -1.2375    0.0000 C   0  0  0  0  0  0  0  0  0  0  0  0
    0.7145   -0.4125    0.0000 C   0  0  0  0  0  0  0  0  0  0  0  0
    0.0000   -0.0000    0.0000 C   0  0  0  0  0  0  0  0  0  0  0  0
   -0.7145   -0.4125    0.0000 C   0  0  0  0  0  0  0  0  0  0  0  0
   -1.4289    0.0000    0.0000 C   0  0  0  0  0  0  0  0  0  0  0  0
    1.4289   -0.0000    0.0000 C   0  0  0  0  0  0  0  0  0  0  0  0
    1.4289    0.8250    0.0000 C   0  0  0  0  0  0  0  0  0  0  0  0
    0.7145    1.2375    0.0000 C   0  0  0  0  0  0  0  0  0  0  0  0
    2.1434    1.2375    0.0000 C   0  0  0  0  0  0  0  0  0  0  0  0
    2.1434   -0.4125    0.0000 C   0  0  0  0  0  0  0  0  0  0  0  0
    2.8579   -0.0000    0.0000 O   0  0  0  0  0  0  0  0  0  0  0  0
    2.1434   -1.2375    0.0000 C   0  0  0  0  0  0  0  0  0  0  0  0
    2.8579   -1.6500    0.0000 O   0  0  0  0  0  0  0  0  0  0  0  0
    1.4289   -1.6500    0.0000 C   0  0  0  0  0  0  0  0  0  0  0  0
    1.4289   -2.4750    0.0000 C   0  0  0  0  0  0  0  0  0  0  0  0
    0.7145   -2.8875    0.0000 O   0  0  0  0  0  0  0  0  0  0  0  0
   -5.2135   -3.5900    0.0000 H   0  0  0  0  0  0  0  0  0  0  0  0
   -4.2868   -5.1950    0.0000 H   0  0  0  0  0  0  0  0  0  0  0  0
   -5.2134   -4.6600    0.0000 H   0  0  0  0  0  0  0  0  0  0  0  0
   -2.6458   -3.1775    0.0000 H   0  0  0  0  0  0  0  0  0  0  0  0
   -2.8579   -5.1950    0.0000 H   0  0  0  0  0  0  0  0  0  0  0  0
   -1.9313   -3.5900    0.0000 H   0  0  0  0  0  0  0  0  0  0  0  0
   -1.9312   -4.6600    0.0000 H   0  0  0  0  0  0  0  0  0  0  0  0
   -5.8128   -2.4190    0.0000 H   0  0  0  0  0  0  0  0  0  0  0  0
   -5.0013   -0.3005    0.0000 H   0  0  0  0  0  0  0  0  0  0  0  0
   -4.4661    0.1035    0.0000 H   0  0  0  0  0  0  0  0  0  0  0  0
   -1.3319    0.0560    0.0000 H   0  0  0  0  0  0  0  0  0  0  0  0
   -0.7145   -3.9575    0.0000 H   0  0  0  0  0  0  0  0  0  0  0  0
    0.2122   -2.3525    0.0000 H   0  0  0  0  0  0  0  0  0  0  0  0
    0.2121   -3.4225    0.0000 H   0  0  0  0  0  0  0  0  0  0  0  0
   -2.1434   -3.9195    0.0000 H   0  0  0  0  0  0  0  0  0  0  0  0
   -0.8115   -2.9435    0.0000 H   0  0  0  0  0  0  0  0  0  0  0  0
    0.0000    1.0320    0.0000 H   0  0  0  0  0  0  0  0  0  0  0  0
   -1.4289    1.0700    0.0000 H   0  0  0  0  0  0  0  0  0  0  0  0
   -2.3556   -0.5350    0.0000 H   0  0  0  0  0  0  0  0  0  0  0  0
   -2.3555    0.5350    0.0000 H   0  0  0  0  0  0  0  0  0  0  0  0
    1.4289    1.8950    0.0000 H   0  0  0  0  0  0  0  0  0  0  0  0
    0.7145    2.3075    0.0000 H   0  0  0  0  0  0  0  0  0  0  0  0
   -0.2122    0.7025    0.0000 H   0  0  0  0  0  0  0  0  0  0  0  0
   -0.2121    1.7725    0.0000 H   0  0  0  0  0  0  0  0  0  0  0  0
    3.0700    0.7025    0.0000 H   0  0  0  0  0  0  0  0  0  0  0  0
    2.1434    2.3075    0.0000 H   0  0  0  0  0  0  0  0  0  0  0  0
    3.0701    1.7725    0.0000 H   0  0  0  0  0  0  0  0  0  0  0  0
    3.6694   -0.4685    0.0000 H   0  0  0  0  0  0  0  0  0  0  0  0
    2.8579   -2.5870    0.0000 H   0  0  0  0  0  0  0  0  0  0  0  0
    2.3226   -2.9910    0.0000 H   0  0  0  0  0  0  0  0  0  0  0  0
  1  2  1  0  0  0  0
  1 39  1  0  0  0  0
  1 40  1  0  0  0  0
  1 41  1  0  0  0  0
  2  3  1  0  0  0  0
  2  4  1  0  0  0  0
  2 42  1  0  0  0  0
  3 43  1  0  0  0  0
  3 44  1  0  0  0  0
  3 45  1  0  0  0  0
  4  5  2  0  0  0  0
  4 19  1  0  0  0  0
  5  6  1  0  0  0  0
  5  7  1  0  0  0  0
  6 46  1  0  0  0  0
  7  8  1  0  0  0  0
  7  9  2  0  0  0  0
  8 47  1  0  0  0  0
  9 10  1  0  0  0  0
  9 12  1  0  0  0  0
 10 11  2  0  0  0  0
 10 48  1  0  0  0  0
 12 13  2  0  0  0  0
 12 19  1  0  0  0  0
 13 14  1  0  0  0  0
 13 15  1  0  0  0  0
 14 49  1  0  0  0  0
 15 16  2  0  0  0  0
 15 20  1  0  0  0  0
 16 17  1  0  0  0  0
 16 18  1  0  0  0  0
 17 50  1  0  0  0  0
 17 51  1  0  0  0  0
 17 52  1  0  0  0  0
 18 19  2  0  0  0  0
 18 53  1  0  0  0  0
 20 21  2  0  0  0  0
 20 26  1  0  0  0  0
 21 22  1  0  0  0  0
 21 23  1  0  0  0  0
 22 54  1  0  0  0  0
 23 24  2  0  0  0  0
 23 36  1  0  0  0  0
 24 25  1  0  0  0  0
 24 28  1  0  0  0  0
 25 26  2  0  0  0  0
 25 55  1  0  0  0  0
 26 27  1  0  0  0  0
 27 56  1  0  0  0  0
 27 57  1  0  0  0  0
 27 58  1  0  0  0  0
 28 29  1  0  0  0  0
 28 32  2  0  0  0  0
 29 30  1  0  0  0  0
 29 31  1  0  0  0  0
 29 59  1  0  0  0  0
 30 60  1  0  0  0  0
 30 61  1  0  0  0  0
 30 62  1  0  0  0  0
 31 63  1  0  0  0  0
 31 64  1  0  0  0  0
 31 65  1  0  0  0  0
 32 33  1  0  0  0  0
 32 34  1  0  0  0  0
 33 66  1  0  0  0  0
 34 35  1  0  0  0  0
 34 36  2  0  0  0  0
 35 67  1  0  0  0  0
 36 37  1  0  0  0  0
 37 38  2  0  0  0  0
 37 68  1  0  0  0  0
M  END
>  <DRUGBANK_ID>
DB17379

>  <COMMON_NAME>
(R)-Gossypol

>  <CAS_NUMBER>
90141-22-3

>  <UNII>
8DY2X8LXW4

>  <SYNONYMS>
(-)-Gossypol; (r)-2,2'-bis(8-formyl-1,6,7-trihydroxy-5-isopropyl-3-methylnaphthalene); Gossypol r-form; Gossypol, (r)-; Gossypol, r-; R-(-)-gossypol

$$$$
