224
 OpenBabel10282417072D

 37 39  0  0  0  0  0  0  0  0999 V2000
    0.3104   -0.9592    0.0000 C   0  0  0  0  0  0  0  0  0  0  0  0
    0.9778   -1.4441    0.0000 N   0  0  0  0  0  0  0  0  0  0  0  0
   -0.3571   -1.4441    0.0000 C   0  0  0  0  0  0  0  0  0  0  0  0
   -0.1021   -2.2288    0.0000 N   0  0  0  0  0  0  0  0  0  0  0  0
    0.7229   -2.2288    0.0000 C   0  0  0  0  0  0  0  0  0  0  0  0
    1.7624   -1.1892    0.0000 C   0  0  0  0  0  0  0  0  0  0  0  0
    1.9340   -0.3822    0.0000 C   0  0  0  0  0  0  0  0  0  0  0  0
    2.7186   -0.6372    0.0000 O   0  0  0  0  0  0  0  0  0  0  0  0
    1.9340    0.4428    0.0000 O   0  0  0  0  0  0  0  0  0  0  0  0
    2.7186    0.6977    0.0000 C   0  0  0  0  0  0  0  0  0  0  0  0
    3.2035    0.0303    0.0000 C   0  0  0  0  0  0  0  0  0  0  0  0
    1.1135   -0.2960    0.0000 C   0  0  0  0  0  0  0  0  0  0  0  0
    0.7779    0.4577    0.0000 C   0  0  0  0  0  0  0  0  0  0  0  0
   -0.0426    0.5439    0.0000 C   0  0  0  0  0  0  0  0  0  0  0  0
   -0.5275   -0.1235    0.0000 C   0  0  0  0  0  0  0  0  0  0  0  0
   -0.3781    1.2976    0.0000 C   0  0  0  0  0  0  0  0  0  0  0  0
   -1.1986    1.3838    0.0000 C   0  0  0  0  0  0  0  0  0  0  0  0
   -1.3480   -0.0373    0.0000 C   0  0  0  0  0  0  0  0  0  0  0  0
   -1.6835    0.7164    0.0000 C   0  0  0  0  0  0  0  0  0  0  0  0
   -2.5040    0.8026    0.0000 Cl  0  0  0  0  0  0  0  0  0  0  0  0
    0.3104    0.0728    0.0000 H   0  0  0  0  0  0  0  0  0  0  0  0
   -1.3386   -1.1252    0.0000 H   0  0  0  0  0  0  0  0  0  0  0  0
    1.3295   -3.0637    0.0000 H   0  0  0  0  0  0  0  0  0  0  0  0
    2.5575   -1.9052    0.0000 H   0  0  0  0  0  0  0  0  0  0  0  0
    2.7801   -0.8586    0.0000 H   0  0  0  0  0  0  0  0  0  0  0  0
    3.0493    1.7153    0.0000 H   0  0  0  0  0  0  0  0  0  0  0  0
    3.7754    0.8651    0.0000 H   0  0  0  0  0  0  0  0  0  0  0  0
    4.2735    0.0303    0.0000 H   0  0  0  0  0  0  0  0  0  0  0  0
    3.6893    0.9837    0.0000 H   0  0  0  0  0  0  0  0  0  0  0  0
    0.4846   -1.1617    0.0000 H   0  0  0  0  0  0  0  0  0  0  0  0
    0.0494   -0.1842    0.0000 H   0  0  0  0  0  0  0  0  0  0  0  0
    1.4068    1.3234    0.0000 H   0  0  0  0  0  0  0  0  0  0  0  0
    0.3426    1.4352    0.0000 H   0  0  0  0  0  0  0  0  0  0  0  0
   -0.1077   -1.0663    0.0000 H   0  0  0  0  0  0  0  0  0  0  0  0
    0.2285    2.1325    0.0000 H   0  0  0  0  0  0  0  0  0  0  0  0
   -1.6184    2.3266    0.0000 H   0  0  0  0  0  0  0  0  0  0  0  0
   -1.9546   -0.8722    0.0000 H   0  0  0  0  0  0  0  0  0  0  0  0
  1  2  1  0  0  0  0
  1  3  2  0  0  0  0
  1 21  1  0  0  0  0
  2  5  1  0  0  0  0
  2  6  1  0  0  0  0
  3  4  1  0  0  0  0
  3 22  1  0  0  0  0
  4  5  2  0  0  0  0
  5 23  1  0  0  0  0
  6  7  1  0  0  0  0
  6 24  1  0  0  0  0
  6 25  1  0  0  0  0
  7  9  1  0  0  0  0
  7 12  1  0  0  0  0
  7  8  1  0  0  0  0
  8 11  1  0  0  0  0
  9 10  1  0  0  0  0
 10 11  1  0  0  0  0
 10 26  1  0  0  0  0
 10 27  1  0  0  0  0
 11 28  1  0  0  0  0
 11 29  1  0  0  0  0
 12 13  1  0  0  0  0
 12 30  1  0  0  0  0
 12 31  1  0  0  0  0
 13 14  1  0  0  0  0
 13 32  1  0  0  0  0
 13 33  1  0  0  0  0
 14 15  2  0  0  0  0
 14 16  1  0  0  0  0
 15 18  1  0  0  0  0
 15 34  1  0  0  0  0
 16 17  2  0  0  0  0
 16 35  1  0  0  0  0
 17 19  1  0  0  0  0
 17 36  1  0  0  0  0
 18 19  2  0  0  0  0
 18 37  1  0  0  0  0
 19 20  1  0  0  0  0
M  END
>  <DRUGBANK_ID>
DB06914

>  <COMMON_NAME>
1-({2-[2-(4-CHLOROPHENYL)ETHYL]-1,3-DIOXOLAN-2-YL}METHYL)-1H-IMIDAZOLE

$$$$
