
 OpenBabel10282417072D

 22 21  0  0  0  0  0  0  0  0999 V2000
   -0.7206    0.0000    0.0000 C   0  0  0  0  0  0  0  0  0  0  0  0
    0.0000    0.4017    0.0000 C   0  0  0  0  0  0  0  0  0  0  0  0
   -0.7331   -0.8249    0.0000 C   0  0  0  0  0  0  0  0  0  0  0  0
   -1.4260    0.4233    0.0000 C   0  0  0  0  0  0  0  0  0  0  0  0
    1.4415    0.3710    0.0000 C   0  0  0  0  0  0  0  0  0  0  0  0
    0.7053   -0.0214    0.0000 C   0  0  1  0  0  0  0  0  0  0  0  0
   -1.4538   -1.2268    0.0000 O   0  0  0  0  0  0  0  0  0  0  0  0
   -2.1468    0.0215    0.0000 O   0  0  0  0  0  0  0  0  0  0  0  0
    2.1468   -0.0521    0.0000 O   0  0  0  0  0  0  0  0  0  0  0  0
    0.7053   -0.8555    0.0000 N   0  0  0  0  0  0  0  0  0  0  0  0
   -0.0247   -1.2482    0.0000 O   0  0  0  0  0  0  0  0  0  0  0  0
   -1.4108    1.2482    0.0000 O   0  0  0  0  0  0  0  0  0  0  0  0
    1.4415    1.2054    0.0000 O   0  0  0  0  0  0  0  0  0  0  0  0
   -1.6557   -0.5201    0.0000 H   0  0  0  0  0  0  0  0  0  0  0  0
    0.0170    1.4716    0.0000 H   0  0  0  0  0  0  0  0  0  0  0  0
    0.9353    0.9215    0.0000 H   0  0  0  0  0  0  0  0  0  0  0  0
   -0.2258   -0.5486    0.0000 H   0  0  0  0  0  0  0  0  0  0  0  0
   -2.2582   -0.7463    0.0000 H   0  0  0  0  0  0  0  0  0  0  0  0
   -2.9511    0.5022    0.0000 H   0  0  0  0  0  0  0  0  0  0  0  0
    2.1311   -0.9890    0.0000 H   0  0  0  0  0  0  0  0  0  0  0  0
   -0.1780   -1.3655    0.0000 H   0  0  0  0  0  0  0  0  0  0  0  0
    1.5886   -1.3655    0.0000 H   0  0  0  0  0  0  0  0  0  0  0  0
  1 14  1  0  0  0  0
  2  1  1  0  0  0  0
  2 15  1  0  0  0  0
  2 16  1  0  0  0  0
  3  1  1  0  0  0  0
  4  1  1  0  0  0  0
  6  2  1  0  0  0  0
  6  5  1  0  0  0  0
  6 10  1  0  0  0  0
  6 17  1  6  0  0  0
  7  3  1  0  0  0  0
  7 18  1  0  0  0  0
  8  4  1  0  0  0  0
  8 19  1  0  0  0  0
  9  5  1  0  0  0  0
  9 20  1  0  0  0  0
 10 21  1  0  0  0  0
 10 22  1  0  0  0  0
 11  3  2  0  0  0  0
 12  4  2  0  0  0  0
 13  5  2  0  0  0  0
M  END
>  <DRUGBANK_ID>
DB03847

>  <SECONDARY_ACCESSION_NUMBERS>
EXPT00902

>  <COMMON_NAME>
gamma-carboxy-L-glutamic acid

>  <CAS_NUMBER>
53861-57-7

>  <UNII>
16FQV4RZKL

>  <SYNONYMS>
(3S)-3-amino-1,1,3-propanetricarboxylic acid; gamma-carboxy-glutamic acid; gamma-Carboxyglutamic acid; Î³-carboxy-L-glutamic acid

$$$$
