
 OpenBabel10282417072D

 37 38  0  0  0  0  0  0  0  0999 V2000
    0.3256   -1.5742    0.0000 O   0  0  0  0  0  0  0  0  0  0  0  0
   -0.1593   -0.9068    0.0000 C   0  0  1  0  0  0  0  0  0  0  0  0
    0.0956   -0.1221    0.0000 C   0  0  0  0  0  0  0  0  0  0  0  0
   -0.5718    0.3628    0.0000 C   0  0  1  0  0  0  0  0  0  0  0  0
   -1.2392   -0.1221    0.0000 O   0  0  0  0  0  0  0  0  0  0  0  0
   -0.9843   -0.9068    0.0000 C   0  0  2  0  0  0  0  0  0  0  0  0
   -1.4692   -1.5742    0.0000 C   0  0  0  0  0  0  0  0  0  0  0  0
   -1.1336   -2.3278    0.0000 O   0  0  0  0  0  0  0  0  0  0  0  0
   -1.6186   -2.9953    0.0000 P   0  0  0  0  0  0  0  0  0  0  0  0
   -2.1035   -3.6628    0.0000 O   0  0  0  0  0  0  0  0  0  0  0  0
   -0.9511   -3.4803    0.0000 O   0  0  0  0  0  0  0  0  0  0  0  0
   -2.2860   -2.5103    0.0000 O   0  0  0  0  0  0  0  0  0  0  0  0
   -0.5718    1.1878    0.0000 N   0  0  0  0  0  0  0  0  0  0  0  0
    0.1426    1.6003    0.0000 C   0  0  0  0  0  0  0  0  0  0  0  0
    0.1426    2.4253    0.0000 C   0  0  0  0  0  0  0  0  0  0  0  0
    0.8571    2.8378    0.0000 C   0  0  0  0  0  0  0  0  0  0  0  0
    1.5715    2.4253    0.0000 C   0  0  0  0  0  0  0  0  0  0  0  0
    2.2860    2.8378    0.0000 Br  0  0  0  0  0  0  0  0  0  0  0  0
   -0.5718    2.8378    0.0000 C   0  0  0  0  0  0  0  0  0  0  0  0
   -0.5718    3.6628    0.0000 O   0  0  0  0  0  0  0  0  0  0  0  0
   -1.2862    2.4253    0.0000 N   0  0  0  0  0  0  0  0  0  0  0  0
   -1.2862    1.6003    0.0000 C   0  0  0  0  0  0  0  0  0  0  0  0
   -2.0007    1.1878    0.0000 O   0  0  0  0  0  0  0  0  0  0  0  0
   -0.0689   -2.4603    0.0000 H   0  0  0  0  0  0  0  0  0  0  0  0
    0.8975   -0.7394    0.0000 H   0  0  0  0  0  0  0  0  0  0  0  0
    1.1132    0.2086    0.0000 H   0  0  0  0  0  0  0  0  0  0  0  0
    0.2630    0.9347    0.0000 H   0  0  0  0  0  0  0  0  0  0  0  0
    0.3816    0.8486    0.0000 H   0  0  0  0  0  0  0  0  0  0  0  0
   -0.4985   -1.8602    0.0000 H   0  0  0  0  0  0  0  0  0  0  0  0
   -2.5333   -1.4624    0.0000 H   0  0  0  0  0  0  0  0  0  0  0  0
   -2.0981   -2.4399    0.0000 H   0  0  0  0  0  0  0  0  0  0  0  0
   -1.0525   -4.4450    0.0000 H   0  0  0  0  0  0  0  0  0  0  0  0
   -2.1845   -1.5456    0.0000 H   0  0  0  0  0  0  0  0  0  0  0  0
    1.0363    1.0843    0.0000 H   0  0  0  0  0  0  0  0  0  0  0  0
    0.8571    3.8698    0.0000 H   0  0  0  0  0  0  0  0  0  0  0  0
    1.5715    1.3933    0.0000 H   0  0  0  0  0  0  0  0  0  0  0  0
   -2.1388    2.9175    0.0000 H   0  0  0  0  0  0  0  0  0  0  0  0
  1 24  1  0  0  0  0
  2  1  1  0  0  0  0
  2  6  1  0  0  0  0
  2 25  1  1  0  0  0
  3  2  1  0  0  0  0
  3 26  1  0  0  0  0
  3 27  1  0  0  0  0
  4  3  1  0  0  0  0
  4  5  1  0  0  0  0
  4 13  1  0  0  0  0
  4 28  1  6  0  0  0
  6  5  1  0  0  0  0
  6  7  1  0  0  0  0
  6 29  1  6  0  0  0
  7  8  1  0  0  0  0
  7 30  1  0  0  0  0
  7 31  1  0  0  0  0
  8  9  1  0  0  0  0
 10  9  2  0  0  0  0
 11  9  1  0  0  0  0
 11 32  1  0  0  0  0
 12  9  1  0  0  0  0
 12 33  1  0  0  0  0
 14 13  1  0  0  0  0
 14 34  1  0  0  0  0
 15 14  2  0  0  0  0
 15 16  1  0  0  0  0
 16 17  2  0  0  0  0
 16 35  1  0  0  0  0
 17 36  1  0  0  0  0
 18 17  1  0  0  0  0
 19 15  1  0  0  0  0
 19 20  2  0  0  0  0
 19 21  1  0  0  0  0
 21 37  1  0  0  0  0
 22 13  1  0  0  0  0
 22 21  1  0  0  0  0
 22 23  2  0  0  0  0
M  END
>  <DRUGBANK_ID>
DB04438

>  <SECONDARY_ACCESSION_NUMBERS>
EXPT00784

>  <COMMON_NAME>
Brivudine monophosphate

>  <CAS_NUMBER>
80860-82-8

>  <UNII>
O7N0Y11U8K

>  <SYNONYMS>
Bvdu 5'-monophosphate; BVDU-MP

$$$$
