513
 OpenBabel10282417072D

 22 21  0  0  0  0  0  0  0  0999 V2000
    2.0930    0.6188    0.0000 O   0  0  0  0  0  0  0  0  0  0  0  0
    2.8075   -0.6188    0.0000 O   0  0  0  0  0  0  0  0  0  0  0  0
    7.0944    0.2063    0.0000 N   0  0  0  0  0  0  0  0  0  0  0  0
    4.9509    0.6188    0.0000 C   0  0  0  0  0  0  0  0  0  0  0  0
    4.2365    0.2063    0.0000 C   0  0  0  0  0  0  0  0  0  0  0  0
    5.6655    0.2063    0.0000 C   0  0  0  0  0  0  0  0  0  0  0  0
    3.5220    0.6188    0.0000 C   0  0  0  0  0  0  0  0  0  0  0  0
    6.3799    0.6188    0.0000 C   0  0  0  0  0  0  0  0  0  0  0  0
    2.8075    0.2063    0.0000 C   0  0  0  0  0  0  0  0  0  0  0  0
    2.0930    1.5558    0.0000 H   0  0  0  0  0  0  0  0  0  0  0  0
    7.0944   -0.8137    0.0000 H   0  0  0  0  0  0  0  0  0  0  0  0
    7.9777    0.7163    0.0000 H   0  0  0  0  0  0  0  0  0  0  0  0
    4.9508    1.6888    0.0000 H   0  0  0  0  0  0  0  0  0  0  0  0
    5.8775    1.1539    0.0000 H   0  0  0  0  0  0  0  0  0  0  0  0
    4.2365   -0.8637    0.0000 H   0  0  0  0  0  0  0  0  0  0  0  0
    3.3099   -0.3287    0.0000 H   0  0  0  0  0  0  0  0  0  0  0  0
    5.6656   -0.8637    0.0000 H   0  0  0  0  0  0  0  0  0  0  0  0
    6.5922   -0.3287    0.0000 H   0  0  0  0  0  0  0  0  0  0  0  0
    3.5220    1.6888    0.0000 H   0  0  0  0  0  0  0  0  0  0  0  0
    2.5954    1.1538    0.0000 H   0  0  0  0  0  0  0  0  0  0  0  0
    6.3799    1.6888    0.0000 H   0  0  0  0  0  0  0  0  0  0  0  0
    5.4532    1.1538    0.0000 H   0  0  0  0  0  0  0  0  0  0  0  0
  1  9  1  0  0  0  0
  1 10  1  0  0  0  0
  2  9  2  0  0  0  0
  3  8  1  0  0  0  0
  3 11  1  0  0  0  0
  3 12  1  0  0  0  0
  4  5  1  0  0  0  0
  4  6  1  0  0  0  0
  4 13  1  0  0  0  0
  4 14  1  0  0  0  0
  5  7  1  0  0  0  0
  5 15  1  0  0  0  0
  5 16  1  0  0  0  0
  6  8  1  0  0  0  0
  6 17  1  0  0  0  0
  6 18  1  0  0  0  0
  7  9  1  0  0  0  0
  7 19  1  0  0  0  0
  7 20  1  0  0  0  0
  8 21  1  0  0  0  0
  8 22  1  0  0  0  0
M  END
>  <DRUGBANK_ID>
DB00513

>  <SECONDARY_ACCESSION_NUMBERS>
APRD00791; EXPT00408; EXPT00461; DB04134

>  <COMMON_NAME>
Aminocaproic acid

>  <CAS_NUMBER>
60-32-2

>  <UNII>
U6F3787206

>  <SYNONYMS>
6-Aminocaproic acid; 6-aminohexanoic acid; Acide aminocaproïque; Ácido aminocapróico; acidum aminocaproicum; Aminocaproic acid; Aminocapronsäure; EACA; EACS; Epsilcapramine; Epsilon Aminocaproic Acid; Epsilon-Aminocaproic acid; epsilon-Aminohexanoic acid; omega-Aminocaproic acid; omega-Aminohexanoic acid

$$$$
