
 OpenBabel10282417072D

161170  0  0  0  0  0  0  0  0999 V2000
   -6.5921   -3.0634    0.0000 C   0  0  0  0  0  0  0  0  0  0  0  0
   -7.1036   -3.7108    0.0000 C   0  0  3  0  0  0  0  0  0  0  0  0
   -7.9199   -3.5915    0.0000 O   0  0  0  0  0  0  0  0  0  0  0  0
   -6.7987   -4.4774    0.0000 C   0  0  0  0  0  0  0  0  0  0  0  0
   -7.2218   -5.1406    0.0000 C   0  0  0  0  0  0  0  0  0  0  0  0
   -8.0446   -5.1999    0.0000 C   0  0  0  0  0  0  0  0  0  0  0  0
   -6.6572   -5.7954    0.0000 C   0  0  0  0  0  0  0  0  0  0  0  0
   -6.8994   -6.5986    0.0000 C   0  0  0  0  0  0  0  0  0  0  0  0
   -6.3760   -7.2026    0.0000 C   0  0  0  0  0  0  0  0  0  0  0  0
   -5.5725   -7.1748    0.0000 N   0  0  0  0  0  0  0  0  0  0  0  0
   -5.2239   -7.9373    0.0000 C   0  0  0  0  0  0  0  0  0  0  0  0
   -4.4556   -8.1571    0.0000 C   0  0  0  0  0  0  0  0  0  0  0  0
   -3.8295   -7.5989    0.0000 C   0  0  0  0  0  0  0  0  0  0  0  0
   -2.9977   -7.8347    0.0000 C   0  0  0  0  0  0  0  0  0  0  0  0
   -2.7044   -8.6058    0.0000 C   0  0  0  0  0  0  0  0  0  0  0  0
   -1.8900   -8.7374    0.0000 C   0  0  0  0  0  0  0  0  0  0  0  0
   -1.5968   -9.5085    0.0000 C   0  0  0  0  0  0  0  0  0  0  0  0
   -2.1179  -10.1480    0.0000 O   0  0  0  0  0  0  0  0  0  0  0  0
   -0.7823   -9.6401    0.0000 O   0  0  0  0  0  0  0  0  0  0  0  0
   -2.5747   -7.1714    0.0000 C   0  0  0  0  0  0  0  0  0  0  0  0
   -1.7510   -7.1246    0.0000 C   0  0  0  0  0  0  0  0  0  0  0  0
   -3.1107   -6.5103    0.0000 C   0  0  0  0  0  0  0  0  0  0  0  0
   -3.8795   -6.8303    0.0000 N   0  0  0  0  0  0  0  0  0  0  0  0
   -2.8908   -5.7420    0.0000 C   0  0  0  0  0  0  0  0  0  0  0  0
   -3.4205   -5.1095    0.0000 C   0  0  0  0  0  0  0  0  0  0  0  0
   -4.2303   -5.1088    0.0000 N   0  0  0  0  0  0  0  0  0  0  0  0
   -4.5439   -4.3685    0.0000 C   0  0  0  0  0  0  0  0  0  0  0  0
   -5.3694   -4.1612    0.0000 C   0  0  0  0  0  0  0  0  0  0  0  0
   -5.9733   -4.6847    0.0000 C   0  0  0  0  0  0  0  0  0  0  0  0
   -5.9392   -5.5167    0.0000 N   0  0  0  0  0  0  0  0  0  0  0  0
   -3.9337   -3.8737    0.0000 C   0  0  0  0  0  0  0  0  0  0  0  0
   -3.9806   -3.0500    0.0000 C   0  0  0  0  0  0  0  0  0  0  0  0
   -3.2355   -4.3190    0.0000 C   0  0  0  0  0  0  0  0  0  0  0  0
   -2.4714   -4.0080    0.0000 C   0  0  3  0  0  0  0  0  0  0  0  0
   -1.8199   -4.5142    0.0000 C   0  0  0  0  0  0  0  0  0  0  0  0
   -2.3587   -3.1907    0.0000 O   0  0  0  0  0  0  0  0  0  0  0  0
   -1.5946   -2.8797    0.0000 C   0  0  3  0  0  0  0  0  0  0  0  0
   -0.9431   -3.3859    0.0000 C   0  0  0  0  0  0  0  0  0  0  0  0
   -1.4819   -2.0624    0.0000 C   0  0  0  0  0  0  0  0  0  0  0  0
   -0.7243   -1.6459    0.0000 C   0  0  0  0  0  0  0  0  0  0  0  0
   -0.8480   -0.8857    0.0000 N   0  0  0  0  0  0  0  0  0  0  0  0
   -1.6690   -0.7465    0.0000 C   0  0  0  0  0  0  0  0  0  0  0  0
   -2.0558   -0.0472    0.0000 C   0  0  0  0  0  0  0  0  0  0  0  0
   -1.6818    0.7174    0.0000 C   0  0  0  0  0  0  0  0  0  0  0  0
   -0.8926    0.8706    0.0000 N   0  0  0  0  0  0  0  0  0  0  0  0
   -0.7239    1.6627    0.0000 C   0  0  0  0  0  0  0  0  0  0  0  0
    0.0047    2.0496    0.0000 C   0  0  0  0  0  0  0  0  0  0  0  0
    0.7107    1.6752    0.0000 C   0  0  0  0  0  0  0  0  0  0  0  0
    0.8643    0.8567    0.0000 N   0  0  0  0  0  0  0  0  0  0  0  0
    1.6265    0.7462    0.0000 C   0  0  0  0  0  0  0  0  0  0  0  0
    2.0427    0.0179    0.0000 C   0  0  0  0  0  0  0  0  0  0  0  0
    1.6683   -0.6881    0.0000 C   0  0  0  0  0  0  0  0  0  0  0  0
    0.8501   -0.8709    0.0000 N   0  0  0  0  0  0  0  0  0  0  0  0
    0.7106   -1.6627    0.0000 C   0  0  0  0  0  0  0  0  0  0  0  0
    0.0112   -2.0494    0.0000 C   0  0  0  0  0  0  0  0  0  0  0  0
    1.5044   -2.0364    0.0000 C   0  0  0  0  0  0  0  0  0  0  0  0
    1.6497   -2.8485    0.0000 C   0  0  0  0  0  0  0  0  0  0  0  0
    2.0558   -1.4752    0.0000 C   0  0  0  0  0  0  0  0  0  0  0  0
    2.8703   -1.6063    0.0000 C   0  0  3  0  0  0  0  0  0  0  0  0
    3.1641   -2.3772    0.0000 C   0  0  0  0  0  0  0  0  0  0  0  0
    3.3911   -0.9664    0.0000 O   0  0  0  0  0  0  0  0  0  0  0  0
    2.0297    1.5110    0.0000 C   0  0  0  0  0  0  0  0  0  0  0  0
    2.8449    1.6379    0.0000 C   0  0  0  0  0  0  0  0  0  0  0  0
    1.4686    2.0624    0.0000 C   0  0  0  0  0  0  0  0  0  0  0  0
    1.5937    2.8779    0.0000 C   0  0  0  0  0  0  0  0  0  0  0  0
    2.3624    3.1773    0.0000 C   0  0  0  0  0  0  0  0  0  0  0  0
    2.4875    3.9928    0.0000 C   0  0  0  0  0  0  0  0  0  0  0  0
    3.2562    4.2922    0.0000 O   0  0  0  0  0  0  0  0  0  0  0  0
    1.8438    4.5088    0.0000 O   0  0  0  0  0  0  0  0  0  0  0  0
   -1.4588    2.0076    0.0000 C   0  0  0  0  0  0  0  0  0  0  0  0
   -1.6046    2.8196    0.0000 C   0  0  0  0  0  0  0  0  0  0  0  0
   -2.3807    3.0994    0.0000 C   0  0  0  0  0  0  0  0  0  0  0  0
   -2.5265    3.9114    0.0000 C   0  0  0  0  0  0  0  0  0  0  0  0
   -1.8962    4.4436    0.0000 O   0  0  0  0  0  0  0  0  0  0  0  0
   -3.3026    4.1911    0.0000 O   0  0  0  0  0  0  0  0  0  0  0  0
   -2.0393    1.4169    0.0000 C   0  0  0  0  0  0  0  0  0  0  0  0
   -2.8548    1.5419    0.0000 C   0  0  0  0  0  0  0  0  0  0  0  0
   -2.0430   -1.5110    0.0000 C   0  0  0  0  0  0  0  0  0  0  0  0
   -2.8562   -1.6502    0.0000 C   0  0  0  0  0  0  0  0  0  0  0  0
   -5.9135   -8.4796    0.0000 C   0  0  0  0  0  0  0  0  0  0  0  0
   -5.8728   -9.3036    0.0000 C   0  0  0  0  0  0  0  0  0  0  0  0
   -5.1389   -9.6803    0.0000 C   0  0  0  0  0  0  0  0  0  0  0  0
   -5.0981  -10.5043    0.0000 C   0  0  0  0  0  0  0  0  0  0  0  0
   -5.7914  -10.9516    0.0000 O   0  0  0  0  0  0  0  0  0  0  0  0
   -4.3642  -10.8811    0.0000 O   0  0  0  0  0  0  0  0  0  0  0  0
   -6.5769   -8.0566    0.0000 C   0  0  0  0  0  0  0  0  0  0  0  0
   -7.3412   -8.3672    0.0000 C   0  0  0  0  0  0  0  0  0  0  0  0
   -5.5333   -3.2181    0.0000 H   0  0  0  0  0  0  0  0  0  0  0  0
   -6.9875   -2.0691    0.0000 H   0  0  0  0  0  0  0  0  0  0  0  0
   -5.9288   -2.2238    0.0000 H   0  0  0  0  0  0  0  0  0  0  0  0
   -7.4990   -2.7165    0.0000 H   0  0  0  0  0  0  0  0  0  0  0  0
   -8.2783   -2.6901    0.0000 H   0  0  0  0  0  0  0  0  0  0  0  0
   -8.6448   -4.3141    0.0000 H   0  0  0  0  0  0  0  0  0  0  0  0
   -8.5116   -6.1626    0.0000 H   0  0  0  0  0  0  0  0  0  0  0  0
   -9.1118   -5.2768    0.0000 H   0  0  0  0  0  0  0  0  0  0  0  0
   -7.9086   -6.8143    0.0000 H   0  0  0  0  0  0  0  0  0  0  0  0
   -4.2256   -9.1631    0.0000 H   0  0  0  0  0  0  0  0  0  0  0  0
   -3.3803   -9.4353    0.0000 H   0  0  0  0  0  0  0  0  0  0  0  0
   -2.3241   -9.6059    0.0000 H   0  0  0  0  0  0  0  0  0  0  0  0
   -1.2140   -7.9080    0.0000 H   0  0  0  0  0  0  0  0  0  0  0  0
   -0.8337   -8.9081    0.0000 H   0  0  0  0  0  0  0  0  0  0  0  0
   -3.0429   -9.9986    0.0000 H   0  0  0  0  0  0  0  0  0  0  0  0
   -1.1643   -8.0194    0.0000 H   0  0  0  0  0  0  0  0  0  0  0  0
   -1.2694   -6.1691    0.0000 H   0  0  0  0  0  0  0  0  0  0  0  0
   -0.6827   -7.0639    0.0000 H   0  0  0  0  0  0  0  0  0  0  0  0
   -4.7159   -6.3109    0.0000 H   0  0  0  0  0  0  0  0  0  0  0  0
   -1.8813   -5.5277    0.0000 H   0  0  0  0  0  0  0  0  0  0  0  0
   -5.6088   -3.1573    0.0000 H   0  0  0  0  0  0  0  0  0  0  0  0
   -5.1156   -6.0561    0.0000 H   0  0  0  0  0  0  0  0  0  0  0  0
   -3.0859   -2.4632    0.0000 H   0  0  0  0  0  0  0  0  0  0  0  0
   -4.9362   -2.5685    0.0000 H   0  0  0  0  0  0  0  0  0  0  0  0
   -4.0414   -1.9817    0.0000 H   0  0  0  0  0  0  0  0  0  0  0  0
   -2.6175   -5.0680    0.0000 H   0  0  0  0  0  0  0  0  0  0  0  0
   -1.9660   -5.5742    0.0000 H   0  0  0  0  0  0  0  0  0  0  0  0
   -0.8289   -4.1107    0.0000 H   0  0  0  0  0  0  0  0  0  0  0  0
   -0.9750   -5.1707    0.0000 H   0  0  0  0  0  0  0  0  0  0  0  0
   -1.7407   -3.9397    0.0000 H   0  0  0  0  0  0  0  0  0  0  0  0
   -1.0892   -4.4459    0.0000 H   0  0  0  0  0  0  0  0  0  0  0  0
    0.0479   -2.9824    0.0000 H   0  0  0  0  0  0  0  0  0  0  0  0
   -0.0982   -4.0424    0.0000 H   0  0  0  0  0  0  0  0  0  0  0  0
   -0.1495   -0.1919    0.0000 H   0  0  0  0  0  0  0  0  0  0  0  0
   -3.0875   -0.0732    0.0000 H   0  0  0  0  0  0  0  0  0  0  0  0
    0.0044    3.0816    0.0000 H   0  0  0  0  0  0  0  0  0  0  0  0
    0.1828    0.1462    0.0000 H   0  0  0  0  0  0  0  0  0  0  0  0
    3.0746    0.0342    0.0000 H   0  0  0  0  0  0  0  0  0  0  0  0
    0.0129   -3.0814    0.0000 H   0  0  0  0  0  0  0  0  0  0  0  0
    0.8318   -3.5383    0.0000 H   0  0  0  0  0  0  0  0  0  0  0  0
    2.6561   -3.2119    0.0000 H   0  0  0  0  0  0  0  0  0  0  0  0
    1.8382   -3.9018    0.0000 H   0  0  0  0  0  0  0  0  0  0  0  0
    2.1949   -2.4362    0.0000 H   0  0  0  0  0  0  0  0  0  0  0  0
    2.4887   -3.2071    0.0000 H   0  0  0  0  0  0  0  0  0  0  0  0
    4.2205   -2.5471    0.0000 H   0  0  0  0  0  0  0  0  0  0  0  0
    3.5452   -3.3770    0.0000 H   0  0  0  0  0  0  0  0  0  0  0  0
    4.3488   -1.1205    0.0000 H   0  0  0  0  0  0  0  0  0  0  0  0
    3.5161    0.8046    0.0000 H   0  0  0  0  0  0  0  0  0  0  0  0
    3.2310    2.6358    0.0000 H   0  0  0  0  0  0  0  0  0  0  0  0
    3.9022    1.8025    0.0000 H   0  0  0  0  0  0  0  0  0  0  0  0
    0.7589    3.5472    0.0000 H   0  0  0  0  0  0  0  0  0  0  0  0
    1.7559    3.9355    0.0000 H   0  0  0  0  0  0  0  0  0  0  0  0
    3.1972    2.5080    0.0000 H   0  0  0  0  0  0  0  0  0  0  0  0
    3.3595    3.5656    0.0000 H   0  0  0  0  0  0  0  0  0  0  0  0
    3.9873    3.7061    0.0000 H   0  0  0  0  0  0  0  0  0  0  0  0
   -0.7871    3.5099    0.0000 H   0  0  0  0  0  0  0  0  0  0  0  0
   -1.7936    3.8728    0.0000 H   0  0  0  0  0  0  0  0  0  0  0  0
   -3.1982    2.4091    0.0000 H   0  0  0  0  0  0  0  0  0  0  0  0
   -3.3873    3.4622    0.0000 H   0  0  0  0  0  0  0  0  0  0  0  0
   -1.0147    4.1258    0.0000 H   0  0  0  0  0  0  0  0  0  0  0  0
   -3.2432    2.5389    0.0000 H   0  0  0  0  0  0  0  0  0  0  0  0
   -3.5240    0.7070    0.0000 H   0  0  0  0  0  0  0  0  0  0  0  0
   -3.9124    1.7040    0.0000 H   0  0  0  0  0  0  0  0  0  0  0  0
   -3.5399   -0.8271    0.0000 H   0  0  0  0  0  0  0  0  0  0  0  0
   -3.2272   -2.6538    0.0000 H   0  0  0  0  0  0  0  0  0  0  0  0
   -3.9109   -1.8307    0.0000 H   0  0  0  0  0  0  0  0  0  0  0  0
   -6.7719   -9.8837    0.0000 H   0  0  0  0  0  0  0  0  0  0  0  0
   -5.8200  -10.3723    0.0000 H   0  0  0  0  0  0  0  0  0  0  0  0
   -4.2398   -9.1002    0.0000 H   0  0  0  0  0  0  0  0  0  0  0  0
   -4.1869  -10.1688    0.0000 H   0  0  0  0  0  0  0  0  0  0  0  0
   -6.6250  -10.5237    0.0000 H   0  0  0  0  0  0  0  0  0  0  0  0
   -8.1857   -7.7102    0.0000 H   0  0  0  0  0  0  0  0  0  0  0  0
   -7.4880   -9.4271    0.0000 H   0  0  0  0  0  0  0  0  0  0  0  0
   -8.3325   -8.7700    0.0000 H   0  0  0  0  0  0  0  0  0  0  0  0
  1  2  1  0  0  0  0
  1 88  1  0  0  0  0
  1 89  1  0  0  0  0
  1 90  1  0  0  0  0
  2  3  1  0  0  0  0
  2  4  1  0  0  0  0
  2 91  1  0  0  0  0
  3 92  1  0  0  0  0
  4  5  2  0  0  0  0
  4 29  1  0  0  0  0
  5  6  1  0  0  0  0
  5  7  1  0  0  0  0
  6 93  1  0  0  0  0
  6 94  1  0  0  0  0
  6 95  1  0  0  0  0
  7  8  2  0  0  0  0
  7 30  1  0  0  0  0
  8  9  1  0  0  0  0
  8 96  1  0  0  0  0
  9 10  2  0  0  0  0
  9 86  1  0  0  0  0
 10 11  1  0  0  0  0
 11 12  2  0  0  0  0
 11 80  1  0  0  0  0
 12 13  1  0  0  0  0
 12 97  1  0  0  0  0
 13 14  2  0  0  0  0
 13 23  1  0  0  0  0
 14 15  1  0  0  0  0
 14 20  1  0  0  0  0
 15 16  1  0  0  0  0
 15 98  1  0  0  0  0
 15 99  1  0  0  0  0
 16 17  1  0  0  0  0
 16100  1  0  0  0  0
 16101  1  0  0  0  0
 17 18  1  0  0  0  0
 17 19  2  0  0  0  0
 18102  1  0  0  0  0
 20 21  1  0  0  0  0
 20 22  2  0  0  0  0
 21103  1  0  0  0  0
 21104  1  0  0  0  0
 21105  1  0  0  0  0
 22 23  1  0  0  0  0
 22 24  1  0  0  0  0
 23106  1  0  0  0  0
 24 25  2  0  0  0  0
 24107  1  0  0  0  0
 25 26  1  0  0  0  0
 25 33  1  0  0  0  0
 26 27  2  0  0  0  0
 27 28  1  0  0  0  0
 27 31  1  0  0  0  0
 28 29  2  0  0  0  0
 28108  1  0  0  0  0
 29 30  1  0  0  0  0
 30109  1  0  0  0  0
 31 32  1  0  0  0  0
 31 33  2  0  0  0  0
 32110  1  0  0  0  0
 32111  1  0  0  0  0
 32112  1  0  0  0  0
 33 34  1  0  0  0  0
 34 35  1  0  0  0  0
 34 36  1  0  0  0  0
 34113  1  0  0  0  0
 35114  1  0  0  0  0
 35115  1  0  0  0  0
 35116  1  0  0  0  0
 36 37  1  0  0  0  0
 37 38  1  0  0  0  0
 37 39  1  0  0  0  0
 37117  1  0  0  0  0
 38118  1  0  0  0  0
 38119  1  0  0  0  0
 38120  1  0  0  0  0
 39 40  2  0  0  0  0
 39 78  1  0  0  0  0
 40 41  1  0  0  0  0
 40 55  1  0  0  0  0
 41 42  1  0  0  0  0
 41121  1  0  0  0  0
 42 43  1  0  0  0  0
 42 78  2  0  0  0  0
 43 44  2  0  0  0  0
 43122  1  0  0  0  0
 44 45  1  0  0  0  0
 44 76  1  0  0  0  0
 45 46  2  0  0  0  0
 46 47  1  0  0  0  0
 46 70  1  0  0  0  0
 47 48  2  0  0  0  0
 47123  1  0  0  0  0
 48 49  1  0  0  0  0
 48 64  1  0  0  0  0
 49 50  1  0  0  0  0
 49124  1  0  0  0  0
 50 51  2  0  0  0  0
 50 62  1  0  0  0  0
 51 52  1  0  0  0  0
 51125  1  0  0  0  0
 52 53  2  0  0  0  0
 52 58  1  0  0  0  0
 53 54  1  0  0  0  0
 54 55  2  0  0  0  0
 54 56  1  0  0  0  0
 55126  1  0  0  0  0
 56 57  1  0  0  0  0
 56 58  2  0  0  0  0
 57127  1  0  0  0  0
 57128  1  0  0  0  0
 57129  1  0  0  0  0
 58 59  1  0  0  0  0
 59 60  1  0  0  0  0
 59 61  1  0  0  0  0
 59130  1  0  0  0  0
 60131  1  0  0  0  0
 60132  1  0  0  0  0
 60133  1  0  0  0  0
 61134  1  0  0  0  0
 62 63  1  0  0  0  0
 62 64  2  0  0  0  0
 63135  1  0  0  0  0
 63136  1  0  0  0  0
 63137  1  0  0  0  0
 64 65  1  0  0  0  0
 65 66  1  0  0  0  0
 65138  1  0  0  0  0
 65139  1  0  0  0  0
 66 67  1  0  0  0  0
 66140  1  0  0  0  0
 66141  1  0  0  0  0
 67 68  1  0  0  0  0
 67 69  2  0  0  0  0
 68142  1  0  0  0  0
 70 71  1  0  0  0  0
 70 76  2  0  0  0  0
 71 72  1  0  0  0  0
 71143  1  0  0  0  0
 71144  1  0  0  0  0
 72 73  1  0  0  0  0
 72145  1  0  0  0  0
 72146  1  0  0  0  0
 73 74  1  0  0  0  0
 73 75  2  0  0  0  0
 74147  1  0  0  0  0
 76 77  1  0  0  0  0
 77148  1  0  0  0  0
 77149  1  0  0  0  0
 77150  1  0  0  0  0
 78 79  1  0  0  0  0
 79151  1  0  0  0  0
 79152  1  0  0  0  0
 79153  1  0  0  0  0
 80 81  1  0  0  0  0
 80 86  2  0  0  0  0
 81 82  1  0  0  0  0
 81154  1  0  0  0  0
 81155  1  0  0  0  0
 82 83  1  0  0  0  0
 82156  1  0  0  0  0
 82157  1  0  0  0  0
 83 84  1  0  0  0  0
 83 85  2  0  0  0  0
 84158  1  0  0  0  0
 86 87  1  0  0  0  0
 87159  1  0  0  0  0
 87160  1  0  0  0  0
 87161  1  0  0  0  0
M  END
>  <DRUGBANK_ID>
DB15351

>  <COMMON_NAME>
Dihematoporphyrin ether

>  <CAS_NUMBER>
97067-70-4

>  <UNII>
625J2HS54G

>  <SYNONYMS>
bis-1-(8-(1-hydroxyethyl)deuteroporphyrin-3-yl)ethyl ether; DHP ether; Dihematoporphyrin ether

$$$$
