5NS
 OpenBabel10282417072D

 24 25  0  0  0  0  0  0  0  0999 V2000
   -1.7288   -0.1806    0.0000 C   0  0  0  0  0  0  0  0  0  0  0  0
   -1.7288    0.6444    0.0000 C   0  0  0  0  0  0  0  0  0  0  0  0
   -1.0143    1.0569    0.0000 C   0  0  0  0  0  0  0  0  0  0  0  0
   -0.2999    0.6444    0.0000 C   0  0  0  0  0  0  0  0  0  0  0  0
   -0.2999   -0.1806    0.0000 C   0  0  0  0  0  0  0  0  0  0  0  0
   -1.0143   -0.5931    0.0000 C   0  0  0  0  0  0  0  0  0  0  0  0
    1.1291   -0.1806    0.0000 C   0  0  0  0  0  0  0  0  0  0  0  0
    0.4146   -0.5931    0.0000 C   0  0  0  0  0  0  0  0  0  0  0  0
   -1.0143   -2.2431    0.0000 O   0  0  0  0  0  0  0  0  0  0  0  0
   -1.0143   -1.4181    0.0000 S   0  0  0  0  0  0  0  0  0  0  0  0
   -0.1893   -1.4181    0.0000 O   0  0  0  0  0  0  0  0  0  0  0  0
   -1.8393   -1.4181    0.0000 O   0  0  0  0  0  0  0  0  0  0  0  0
    1.1291    0.6444    0.0000 C   0  0  0  0  0  0  0  0  0  0  0  0
    0.4146    1.0569    0.0000 C   0  0  0  0  0  0  0  0  0  0  0  0
    0.4146    1.8819    0.0000 N   0  0  0  0  0  0  0  0  0  0  0  0
   -2.6225   -0.6966    0.0000 H   0  0  0  0  0  0  0  0  0  0  0  0
   -2.6225    1.1604    0.0000 H   0  0  0  0  0  0  0  0  0  0  0  0
   -1.0143    2.0889    0.0000 H   0  0  0  0  0  0  0  0  0  0  0  0
    2.0228   -0.6966    0.0000 H   0  0  0  0  0  0  0  0  0  0  0  0
    0.4146   -1.6251    0.0000 H   0  0  0  0  0  0  0  0  0  0  0  0
   -1.8543   -2.7281    0.0000 H   0  0  0  0  0  0  0  0  0  0  0  0
    2.0228    1.1604    0.0000 H   0  0  0  0  0  0  0  0  0  0  0  0
    1.2672    2.3742    0.0000 H   0  0  0  0  0  0  0  0  0  0  0  0
   -0.4380    2.3741    0.0000 H   0  0  0  0  0  0  0  0  0  0  0  0
  1  2  1  0  0  0  0
  1 16  1  0  0  0  0
  2  3  2  0  0  0  0
  2 17  1  0  0  0  0
  3 18  1  0  0  0  0
  4  3  1  0  0  0  0
  4 14  2  0  0  0  0
  5  4  1  0  0  0  0
  6  1  2  0  0  0  0
  6  5  1  0  0  0  0
  7 13  2  0  0  0  0
  7 19  1  0  0  0  0
  8  5  2  0  0  0  0
  8  7  1  0  0  0  0
  8 20  1  0  0  0  0
  9 10  1  0  0  0  0
  9 21  1  0  0  0  0
 10  6  1  0  0  0  0
 11 10  2  0  0  0  0
 12 10  2  0  0  0  0
 13 14  1  0  0  0  0
 13 22  1  0  0  0  0
 14 15  1  0  0  0  0
 15 23  1  0  0  0  0
 15 24  1  0  0  0  0
M  END
>  <DRUGBANK_ID>
DB07176

>  <COMMON_NAME>
1-Naphthylamine-5-sulfonic acid

>  <CAS_NUMBER>
84-89-9

>  <UNII>
W70WC365OD

>  <SYNONYMS>
1-Amino-5-naphthalenesufonic acid; 1-Amino-5-sulfonaphthalene; 5-Naphthylamine-1-sulfonic acid; Laurent acid

$$$$
