
 OpenBabel10282417072D

 63 66  0  0  0  0  0  0  0  0999 V2000
   -0.4339   -0.7787    0.0000 S   0  0  0  0  0  0  0  0  0  0  0  0
    0.6162   -2.2268    0.0000 S   0  0  3  0  0  0  0  0  0  0  0  0
    0.3502   -1.0350    0.0000 O   0  0  0  0  0  0  0  0  0  0  0  0
   -1.2180   -0.5224    0.0000 O   0  0  0  0  0  0  0  0  0  0  0  0
    1.0287   -1.5123    0.0000 O   0  0  0  0  0  0  0  0  0  0  0  0
   -3.6143   -3.0519    0.0000 O   0  0  0  0  0  0  0  0  0  0  0  0
    3.5037   -4.3702    0.0000 O   0  0  0  0  0  0  0  0  0  0  0  0
    0.5912    2.3579    0.0000 O   0  0  0  0  0  0  0  0  0  0  0  0
   -0.2543    4.3702    0.0000 O   0  0  0  0  0  0  0  0  0  0  0  0
    1.1038    3.9263    0.0000 O   0  0  0  0  0  0  0  0  0  0  0  0
   -0.6902   -1.5629    0.0000 N   0  0  0  0  0  0  0  0  0  0  0  0
   -0.6902   -2.8907    0.0000 N   0  0  0  0  0  0  0  0  0  0  0  0
    2.2662   -2.2268    0.0000 N   0  0  0  0  0  0  0  0  0  0  0  0
   -1.4708   -1.8143    0.0000 C   0  0  0  0  0  0  0  0  0  0  0  0
   -0.2087   -2.2268    0.0000 C   0  0  0  0  0  0  0  0  0  0  0  0
   -1.4708   -2.6394    0.0000 C   0  0  0  0  0  0  0  0  0  0  0  0
   -0.1776    0.0054    0.0000 C   0  0  0  0  0  0  0  0  0  0  0  0
    1.0287   -2.9413    0.0000 C   0  0  0  0  0  0  0  0  0  0  0  0
   -2.1853   -1.4018    0.0000 C   0  0  0  0  0  0  0  0  0  0  0  0
   -2.1853   -3.0519    0.0000 C   0  0  0  0  0  0  0  0  0  0  0  0
    1.8537   -2.9413    0.0000 C   0  0  0  0  0  0  0  0  0  0  0  0
   -2.8997   -2.6394    0.0000 C   0  0  0  0  0  0  0  0  0  0  0  0
   -2.8997   -1.8143    0.0000 C   0  0  0  0  0  0  0  0  0  0  0  0
    2.2662   -3.6558    0.0000 C   0  0  0  0  0  0  0  0  0  0  0  0
    0.6296    0.1755    0.0000 C   0  0  0  0  0  0  0  0  0  0  0  0
   -0.7286    0.6194    0.0000 C   0  0  0  0  0  0  0  0  0  0  0  0
    3.0912   -3.6558    0.0000 C   0  0  0  0  0  0  0  0  0  0  0  0
    3.5037   -2.9413    0.0000 C   0  0  0  0  0  0  0  0  0  0  0  0
    0.8859    0.9597    0.0000 C   0  0  0  0  0  0  0  0  0  0  0  0
   -0.4722    1.4036    0.0000 C   0  0  0  0  0  0  0  0  0  0  0  0
    1.8537   -4.3702    0.0000 C   0  0  0  0  0  0  0  0  0  0  0  0
    0.3349    1.5738    0.0000 C   0  0  0  0  0  0  0  0  0  0  0  0
    3.0912   -2.2268    0.0000 C   0  0  0  0  0  0  0  0  0  0  0  0
    4.3287   -2.9413    0.0000 C   0  0  0  0  0  0  0  0  0  0  0  0
   -4.3287   -2.6394    0.0000 C   0  0  0  0  0  0  0  0  0  0  0  0
    4.3287   -4.3702    0.0000 C   0  0  0  0  0  0  0  0  0  0  0  0
    0.0403    2.9720    0.0000 C   0  0  0  0  0  0  0  0  0  0  0  0
    0.2966    3.7562    0.0000 C   0  0  0  0  0  0  0  0  0  0  0  0
    0.0368    5.2608    0.0000 H   0  0  0  0  0  0  0  0  0  0  0  0
    0.4937   -3.8679    0.0000 H   0  0  0  0  0  0  0  0  0  0  0  0
    1.5637   -3.8679    0.0000 H   0  0  0  0  0  0  0  0  0  0  0  0
   -2.1853   -0.3698    0.0000 H   0  0  0  0  0  0  0  0  0  0  0  0
   -2.1853   -4.0839    0.0000 H   0  0  0  0  0  0  0  0  0  0  0  0
   -3.7934   -1.2983    0.0000 H   0  0  0  0  0  0  0  0  0  0  0  0
    1.3188   -0.5926    0.0000 H   0  0  0  0  0  0  0  0  0  0  0  0
   -1.7384    0.4066    0.0000 H   0  0  0  0  0  0  0  0  0  0  0  0
    1.8957    1.1725    0.0000 H   0  0  0  0  0  0  0  0  0  0  0  0
   -1.1614    2.1717    0.0000 H   0  0  0  0  0  0  0  0  0  0  0  0
    0.7837   -4.3702    0.0000 H   0  0  0  0  0  0  0  0  0  0  0  0
    2.3887   -5.2969    0.0000 H   0  0  0  0  0  0  0  0  0  0  0  0
    1.3187   -5.2968    0.0000 H   0  0  0  0  0  0  0  0  0  0  0  0
    3.6072   -1.3331    0.0000 H   0  0  0  0  0  0  0  0  0  0  0  0
    4.8637   -3.8679    0.0000 H   0  0  0  0  0  0  0  0  0  0  0  0
    4.8637   -2.0147    0.0000 H   0  0  0  0  0  0  0  0  0  0  0  0
    5.3987   -2.9413    0.0000 H   0  0  0  0  0  0  0  0  0  0  0  0
   -4.3287   -1.5694    0.0000 H   0  0  0  0  0  0  0  0  0  0  0  0
   -5.2554   -3.1744    0.0000 H   0  0  0  0  0  0  0  0  0  0  0  0
   -5.2553   -2.1044    0.0000 H   0  0  0  0  0  0  0  0  0  0  0  0
    4.8637   -5.2968    0.0000 H   0  0  0  0  0  0  0  0  0  0  0  0
    4.8637   -3.4436    0.0000 H   0  0  0  0  0  0  0  0  0  0  0  0
    5.3987   -4.3702    0.0000 H   0  0  0  0  0  0  0  0  0  0  0  0
   -1.0067    2.7514    0.0000 H   0  0  0  0  0  0  0  0  0  0  0  0
   -0.6743    3.7684    0.0000 H   0  0  0  0  0  0  0  0  0  0  0  0
  1  3  2  0  0  0  0
  1  4  2  0  0  0  0
  1 11  1  0  0  0  0
  1 17  1  0  0  0  0
  2  5  2  0  0  0  0
  2 15  1  0  0  0  0
  2 18  1  0  0  0  0
  6 22  1  0  0  0  0
  6 35  1  0  0  0  0
  7 27  1  0  0  0  0
  7 36  1  0  0  0  0
  8 32  1  0  0  0  0
  8 37  1  0  0  0  0
  9 38  1  0  0  0  0
  9 39  1  0  0  0  0
 10 38  2  0  0  0  0
 11 14  1  0  0  0  0
 11 15  1  0  0  0  0
 12 15  2  0  0  0  0
 12 16  1  0  0  0  0
 13 21  2  0  0  0  0
 13 33  1  0  0  0  0
 14 16  2  0  0  0  0
 14 19  1  0  0  0  0
 16 20  1  0  0  0  0
 17 25  2  0  0  0  0
 17 26  1  0  0  0  0
 18 21  1  0  0  0  0
 18 40  1  0  0  0  0
 18 41  1  0  0  0  0
 19 23  2  0  0  0  0
 19 42  1  0  0  0  0
 20 22  2  0  0  0  0
 20 43  1  0  0  0  0
 21 24  1  0  0  0  0
 22 23  1  0  0  0  0
 23 44  1  0  0  0  0
 24 27  2  0  0  0  0
 24 31  1  0  0  0  0
 25 29  1  0  0  0  0
 25 45  1  0  0  0  0
 26 30  2  0  0  0  0
 26 46  1  0  0  0  0
 27 28  1  0  0  0  0
 28 33  2  0  0  0  0
 28 34  1  0  0  0  0
 29 32  2  0  0  0  0
 29 47  1  0  0  0  0
 30 32  1  0  0  0  0
 30 48  1  0  0  0  0
 31 49  1  0  0  0  0
 31 50  1  0  0  0  0
 31 51  1  0  0  0  0
 33 52  1  0  0  0  0
 34 53  1  0  0  0  0
 34 54  1  0  0  0  0
 34 55  1  0  0  0  0
 35 56  1  0  0  0  0
 35 57  1  0  0  0  0
 35 58  1  0  0  0  0
 36 59  1  0  0  0  0
 36 60  1  0  0  0  0
 36 61  1  0  0  0  0
 37 38  1  0  0  0  0
 37 62  1  0  0  0  0
 37 63  1  0  0  0  0
M  END
>  <DRUGBANK_ID>
DB13135

>  <COMMON_NAME>
AGN-201904

>  <CAS_NUMBER>
651729-53-2

>  <UNII>
G0835O03ZM

$$$$
