
 OpenBabel10282417072D

 23 22  0  0  0  0  0  0  0  0999 V2000
    5.8559    2.5559    0.0000 C   0  0  0  0  0  0  0  0  0  0  0  0
    5.1414    2.1434    0.0000 C   0  0  0  0  0  0  0  0  0  0  0  0
    4.4270    2.5559    0.0000 C   0  0  0  0  0  0  0  0  0  0  0  0
    3.7125    2.1434    0.0000 C   0  0  0  0  0  0  0  0  0  0  0  0
    2.9980    2.5559    0.0000 O   0  0  0  0  0  0  0  0  0  0  0  0
    3.7125    1.3184    0.0000 O   0  0  0  0  0  0  0  0  0  0  0  0
    6.5704    2.1434    0.0000 C   0  0  0  0  0  0  0  0  0  0  0  0
    7.2849    2.5559    0.0000 C   0  0  0  0  0  0  0  0  0  0  0  0
    7.9993    2.1434    0.0000 C   0  0  0  0  0  0  0  0  0  0  0  0
    8.7138    2.5559    0.0000 O   0  0  0  0  0  0  0  0  0  0  0  0
    7.9993    1.3184    0.0000 O   0  0  0  0  0  0  0  0  0  0  0  0
    5.8559    3.6259    0.0000 H   0  0  0  0  0  0  0  0  0  0  0  0
    6.7825    3.0909    0.0000 H   0  0  0  0  0  0  0  0  0  0  0  0
    5.1414    1.0734    0.0000 H   0  0  0  0  0  0  0  0  0  0  0  0
    4.2147    1.6084    0.0000 H   0  0  0  0  0  0  0  0  0  0  0  0
    4.4270    3.6259    0.0000 H   0  0  0  0  0  0  0  0  0  0  0  0
    3.5004    3.0909    0.0000 H   0  0  0  0  0  0  0  0  0  0  0  0
    2.9010    0.8499    0.0000 H   0  0  0  0  0  0  0  0  0  0  0  0
    6.5704    1.0734    0.0000 H   0  0  0  0  0  0  0  0  0  0  0  0
    7.4970    1.6084    0.0000 H   0  0  0  0  0  0  0  0  0  0  0  0
    7.2849    3.6259    0.0000 H   0  0  0  0  0  0  0  0  0  0  0  0
    8.2116    3.0909    0.0000 H   0  0  0  0  0  0  0  0  0  0  0  0
    7.1878    0.8499    0.0000 H   0  0  0  0  0  0  0  0  0  0  0  0
  1  2  1  0  0  0  0
  1  7  1  0  0  0  0
  1 12  1  0  0  0  0
  1 13  1  0  0  0  0
  2  3  1  0  0  0  0
  2 14  1  0  0  0  0
  2 15  1  0  0  0  0
  3  4  1  0  0  0  0
  3 16  1  0  0  0  0
  3 17  1  0  0  0  0
  4  5  2  0  0  0  0
  4  6  1  0  0  0  0
  6 18  1  0  0  0  0
  7  8  1  0  0  0  0
  7 19  1  0  0  0  0
  7 20  1  0  0  0  0
  8  9  1  0  0  0  0
  8 21  1  0  0  0  0
  8 22  1  0  0  0  0
  9 10  2  0  0  0  0
  9 11  1  0  0  0  0
 11 23  1  0  0  0  0
M  END
>  <DRUGBANK_ID>
DB01856

>  <SECONDARY_ACCESSION_NUMBERS>
EXPT02618

>  <COMMON_NAME>
Pimelic Acid

>  <CAS_NUMBER>
111-16-0

>  <UNII>
BZQ96WX25F

$$$$
