
 OpenBabel10282417072D

 31 30  0  0  0  0  0  0  0  0999 V2000
    2.8600    0.2058    0.0000 C   0  0  0  0  0  0  0  0  0  0  0  0
    2.1448   -0.2058    0.0000 C   0  0  1  0  0  0  0  0  0  0  0  0
    2.1448   -1.0299    0.0000 N   0  0  0  0  0  0  0  0  0  0  0  0
    1.4299    0.2058    0.0000 C   0  0  0  0  0  0  0  0  0  0  0  0
    0.7149   -0.2058    0.0000 C   0  0  0  0  0  0  0  0  0  0  0  0
    0.0000    0.2058    0.0000 S   0  0  0  0  0  0  0  0  0  0  0  0
   -0.7149   -0.2058    0.0000 C   0  0  0  0  0  0  0  0  0  0  0  0
   -1.4299    0.2058    0.0000 C   0  0  0  0  0  0  0  0  0  0  0  0
   -2.1450   -0.2058    0.0000 N   0  0  0  0  0  0  0  0  0  0  0  0
   -2.8554    0.2058    0.0000 C   0  0  0  0  0  0  0  0  0  0  0  0
   -3.5703   -0.2058    0.0000 C   0  0  0  0  0  0  0  0  0  0  0  0
   -2.8554    1.0299    0.0000 N   0  0  0  0  0  0  0  0  0  0  0  0
    2.8600    1.0299    0.0000 O   0  0  0  0  0  0  0  0  0  0  0  0
    3.5703   -0.2058    0.0000 O   0  0  0  0  0  0  0  0  0  0  0  0
    3.0711   -0.7414    0.0000 H   0  0  0  0  0  0  0  0  0  0  0  0
    1.2615   -1.5399    0.0000 H   0  0  0  0  0  0  0  0  0  0  0  0
    3.0281   -1.5399    0.0000 H   0  0  0  0  0  0  0  0  0  0  0  0
    1.4299    1.2758    0.0000 H   0  0  0  0  0  0  0  0  0  0  0  0
    0.5036    0.7414    0.0000 H   0  0  0  0  0  0  0  0  0  0  0  0
    0.7149   -1.2758    0.0000 H   0  0  0  0  0  0  0  0  0  0  0  0
   -0.2114   -0.7413    0.0000 H   0  0  0  0  0  0  0  0  0  0  0  0
   -0.7149   -1.2758    0.0000 H   0  0  0  0  0  0  0  0  0  0  0  0
   -1.6412   -0.7414    0.0000 H   0  0  0  0  0  0  0  0  0  0  0  0
   -1.4299    1.2758    0.0000 H   0  0  0  0  0  0  0  0  0  0  0  0
   -2.3562    0.7414    0.0000 H   0  0  0  0  0  0  0  0  0  0  0  0
   -2.1464   -1.1903    0.0000 H   0  0  0  0  0  0  0  0  0  0  0  0
   -4.4963    0.3303    0.0000 H   0  0  0  0  0  0  0  0  0  0  0  0
   -3.5716   -1.2758    0.0000 H   0  0  0  0  0  0  0  0  0  0  0  0
   -4.4976   -0.7397    0.0000 H   0  0  0  0  0  0  0  0  0  0  0  0
   -2.0028    1.5222    0.0000 H   0  0  0  0  0  0  0  0  0  0  0  0
    3.5688   -1.1428    0.0000 H   0  0  0  0  0  0  0  0  0  0  0  0
  1  2  1  0  0  0  0
  1 13  2  0  0  0  0
  1 14  1  0  0  0  0
  2  3  1  0  0  0  0
  2  4  1  0  0  0  0
  2 15  1  6  0  0  0
  3 16  1  0  0  0  0
  3 17  1  0  0  0  0
  4  5  1  0  0  0  0
  4 18  1  0  0  0  0
  4 19  1  0  0  0  0
  5  6  1  0  0  0  0
  5 20  1  0  0  0  0
  5 21  1  0  0  0  0
  6  7  1  0  0  0  0
  7  8  1  0  0  0  0
  7 22  1  0  0  0  0
  7 23  1  0  0  0  0
  8  9  1  0  0  0  0
  8 24  1  0  0  0  0
  8 25  1  0  0  0  0
  9 10  1  0  0  0  0
  9 26  1  0  0  0  0
 10 11  1  0  0  0  0
 10 12  2  0  0  0  0
 11 27  1  0  0  0  0
 11 28  1  0  0  0  0
 11 29  1  0  0  0  0
 12 30  1  0  0  0  0
 14 31  1  0  0  0  0
M  END
>  <DRUGBANK_ID>
DB12237

>  <COMMON_NAME>
GW-274150

>  <CAS_NUMBER>
210354-22-6

>  <UNII>
0ZZF1V8G63

$$$$
