
 OpenBabel10282417072D

 27 27  0  0  0  0  0  0  0  0999 V2000
   -4.0992   -4.7732    0.0000 C   0  0  2  0  0  0  0  0  0  0  0  0
   -4.9242   -4.7732    0.0000 C   0  0  1  0  0  0  0  0  0  0  0  0
   -5.3367   -5.4877    0.0000 C   0  0  2  0  0  0  0  0  0  0  0  0
   -4.9242   -6.2022    0.0000 C   0  0  1  0  0  0  0  0  0  0  0  0
   -4.0992   -6.2022    0.0000 C   0  0  2  0  0  0  0  0  0  0  0  0
   -3.6867   -5.4877    0.0000 C   0  0  1  0  0  0  0  0  0  0  0  0
   -3.6867   -4.0587    0.0000 O   0  0  0  0  0  0  0  0  0  0  0  0
   -2.8617   -5.4877    0.0000 O   0  0  0  0  0  0  0  0  0  0  0  0
   -3.6867   -6.9166    0.0000 O   0  0  0  0  0  0  0  0  0  0  0  0
   -5.3367   -6.9166    0.0000 O   0  0  0  0  0  0  0  0  0  0  0  0
   -6.1617   -5.4877    0.0000 O   0  0  0  0  0  0  0  0  0  0  0  0
   -5.3367   -4.0587    0.0000 O   0  0  0  0  0  0  0  0  0  0  0  0
   -6.5742   -6.2021    0.0000 C   0  0  0  0  0  0  0  0  0  0  0  0
   -4.6342   -3.8466    0.0000 H   0  0  0  0  0  0  0  0  0  0  0  0
   -4.3892   -3.8466    0.0000 H   0  0  0  0  0  0  0  0  0  0  0  0
   -5.8717   -4.5611    0.0000 H   0  0  0  0  0  0  0  0  0  0  0  0
   -5.9942   -6.2022    0.0000 H   0  0  0  0  0  0  0  0  0  0  0  0
   -4.6342   -7.1289    0.0000 H   0  0  0  0  0  0  0  0  0  0  0  0
   -3.1517   -6.4143    0.0000 H   0  0  0  0  0  0  0  0  0  0  0  0
   -2.7167   -4.0587    0.0000 H   0  0  0  0  0  0  0  0  0  0  0  0
   -2.3767   -6.3277    0.0000 H   0  0  0  0  0  0  0  0  0  0  0  0
   -4.1717   -7.7567    0.0000 H   0  0  0  0  0  0  0  0  0  0  0  0
   -6.3067   -6.9166    0.0000 H   0  0  0  0  0  0  0  0  0  0  0  0
   -4.8517   -3.2187    0.0000 H   0  0  0  0  0  0  0  0  0  0  0  0
   -7.6442   -6.2021    0.0000 H   0  0  0  0  0  0  0  0  0  0  0  0
   -6.0392   -7.1288    0.0000 H   0  0  0  0  0  0  0  0  0  0  0  0
   -7.1092   -7.1287    0.0000 H   0  0  0  0  0  0  0  0  0  0  0  0
  1  2  1  0  0  0  0
  1  6  1  0  0  0  0
  1  7  1  0  0  0  0
  1 14  1  6  0  0  0
  2  3  1  0  0  0  0
  2 12  1  0  0  0  0
  2 15  1  6  0  0  0
  3  4  1  0  0  0  0
  3 11  1  0  0  0  0
  3 16  1  1  0  0  0
  4  5  1  0  0  0  0
  4 10  1  0  0  0  0
  4 17  1  6  0  0  0
  5  6  1  0  0  0  0
  5  9  1  0  0  0  0
  5 18  1  1  0  0  0
  6  8  1  0  0  0  0
  6 19  1  1  0  0  0
  7 20  1  0  0  0  0
  8 21  1  0  0  0  0
  9 22  1  0  0  0  0
 10 23  1  0  0  0  0
 11 13  1  0  0  0  0
 12 24  1  0  0  0  0
 13 25  1  0  0  0  0
 13 26  1  0  0  0  0
 13 27  1  0  0  0  0
M  END
>  <DRUGBANK_ID>
DB12969

>  <COMMON_NAME>
Methylinositol

>  <CAS_NUMBER>
10284-63-6

>  <UNII>
TF9HZN9T0M

>  <SYNONYMS>
Pinitol

$$$$
