
 OpenBabel10282417072D

 77 80  0  0  0  0  0  0  0  0999 V2000
   -1.4348    4.0557    0.0000 C   0  0  0  0  0  0  0  0  0  0  0  0
   -5.1610    0.6533    0.0000 C   0  0  0  0  0  0  0  0  0  0  0  0
    0.7316    2.5882    0.0000 C   0  0  0  0  0  0  0  0  0  0  0  0
   -3.9280    2.9614    0.0000 C   0  0  0  0  0  0  0  0  0  0  0  0
    1.3779   -0.4525    0.0000 C   0  0  0  0  0  0  0  0  0  0  0  0
   -3.8121   -1.7117    0.0000 C   0  0  0  0  0  0  0  0  0  0  0  0
   -0.7204    3.6432    0.0000 C   0  0  0  0  0  0  0  0  0  0  0  0
   -4.8255    1.4070    0.0000 C   0  0  0  0  0  0  0  0  0  0  0  0
    3.0176    0.2774    0.0000 C   0  0  0  0  0  0  0  0  0  0  0  0
   -2.1724   -2.4418    0.0000 C   0  0  0  0  0  0  0  0  0  0  0  0
    3.7321    0.6899    0.0000 C   0  0  0  0  0  0  0  0  0  0  0  0
   -1.3878   -2.6967    0.0000 C   0  0  0  0  0  0  0  0  0  0  0  0
    0.1770    0.8812    0.0000 C   0  0  0  0  0  0  0  0  0  0  0  0
   -2.1724    2.5882    0.0000 C   0  0  0  0  0  0  0  0  0  0  0  0
   -3.6245    0.0732    0.0000 C   0  0  0  0  0  0  0  0  0  0  0  0
   -0.0529    2.3333    0.0000 C   0  0  0  0  0  0  0  0  0  0  0  0
   -3.5925    2.2077    0.0000 C   0  0  0  0  0  0  0  0  0  0  0  0
    1.5495    0.3544    0.0000 C   0  0  0  0  0  0  0  0  0  0  0  0
   -3.0976   -1.2992    0.0000 C   0  0  0  0  0  0  0  0  0  0  0  0
   -0.7204    2.8182    0.0000 C   0  0  0  0  0  0  0  0  0  0  0  0
   -4.0050    1.4932    0.0000 C   0  0  0  0  0  0  0  0  0  0  0  0
    2.3031    0.6899    0.0000 C   0  0  0  0  0  0  0  0  0  0  0  0
   -2.3440   -1.6348    0.0000 C   0  0  0  0  0  0  0  0  0  0  0  0
   -0.3079    1.5487    0.0000 C   0  0  0  0  0  0  0  0  0  0  0  0
   -2.7855    2.0362    0.0000 C   0  0  0  0  0  0  0  0  0  0  0  0
    0.9974    0.9675    0.0000 C   0  0  0  0  0  0  0  0  0  0  0  0
   -3.0114   -0.4788    0.0000 C   0  0  0  0  0  0  0  0  0  0  0  0
   -1.3878    2.3333    0.0000 C   0  0  0  0  0  0  0  0  0  0  0  0
   -3.4530    0.8802    0.0000 C   0  0  0  0  0  0  0  0  0  0  0  0
    4.4466    0.2774    0.0000 C   0  0  0  0  0  0  0  0  0  0  0  0
   -1.2163   -3.5037    0.0000 C   0  0  0  0  0  0  0  0  0  0  0  0
    2.2169    1.5104    0.0000 C   0  0  0  0  0  0  0  0  0  0  0  0
   -1.7919   -1.0217    0.0000 C   0  0  0  0  0  0  0  0  0  0  0  0
   -1.1329    1.5487    0.0000 N   0  0  0  0  0  0  0  0  0  0  0  0
   -2.6993    1.2157    0.0000 N   0  0  0  0  0  0  0  0  0  0  0  0
    1.4099    1.6819    0.0000 N   0  0  0  0  0  0  0  0  0  0  0  0
   -2.2044   -0.3072    0.0000 N   0  0  0  0  0  0  0  0  0  0  0  0
    5.1610    0.6899    0.0000 O   0  0  0  0  0  0  0  0  0  0  0  0
    4.4466   -0.5475    0.0000 O   0  0  0  0  0  0  0  0  0  0  0  0
   -1.8294   -4.0557    0.0000 O   0  0  0  0  0  0  0  0  0  0  0  0
   -0.4317   -3.7586    0.0000 O   0  0  0  0  0  0  0  0  0  0  0  0
    2.8300    2.0624    0.0000 O   0  0  0  0  0  0  0  0  0  0  0  0
   -0.9714   -1.1079    0.0000 O   0  0  0  0  0  0  0  0  0  0  0  0
   -0.1585    0.1275    0.0000 H   0  0  0  0  0  0  0  0  0  0  0  0
   -2.3440    3.3952    0.0000 H   0  0  0  0  0  0  0  0  0  0  0  0
   -4.4091   -0.1817    0.0000 H   0  0  0  0  0  0  0  0  0  0  0  0
   -1.4348    5.0877    0.0000 H   0  0  0  0  0  0  0  0  0  0  0  0
   -2.3286    3.5397    0.0000 H   0  0  0  0  0  0  0  0  0  0  0  0
   -6.1873    0.5453    0.0000 H   0  0  0  0  0  0  0  0  0  0  0  0
   -4.5543   -0.1816    0.0000 H   0  0  0  0  0  0  0  0  0  0  0  0
    1.5268    1.8722    0.0000 H   0  0  0  0  0  0  0  0  0  0  0  0
    0.9541    3.6348    0.0000 H   0  0  0  0  0  0  0  0  0  0  0  0
    1.7492    2.9188    0.0000 H   0  0  0  0  0  0  0  0  0  0  0  0
   -3.2990    3.8270    0.0000 H   0  0  0  0  0  0  0  0  0  0  0  0
   -4.9921    3.0733    0.0000 H   0  0  0  0  0  0  0  0  0  0  0  0
   -4.3631    3.9389    0.0000 H   0  0  0  0  0  0  0  0  0  0  0  0
    0.3602   -0.7830    0.0000 H   0  0  0  0  0  0  0  0  0  0  0  0
    2.1730   -1.1686    0.0000 H   0  0  0  0  0  0  0  0  0  0  0  0
    1.1553   -1.4991    0.0000 H   0  0  0  0  0  0  0  0  0  0  0  0
   -4.7387   -1.1767    0.0000 H   0  0  0  0  0  0  0  0  0  0  0  0
   -3.8121   -2.7817    0.0000 H   0  0  0  0  0  0  0  0  0  0  0  0
   -4.7388   -2.2467    0.0000 H   0  0  0  0  0  0  0  0  0  0  0  0
    0.1733    4.1592    0.0000 H   0  0  0  0  0  0  0  0  0  0  0  0
   -5.4321    2.2419    0.0000 H   0  0  0  0  0  0  0  0  0  0  0  0
    3.0176   -0.7926    0.0000 H   0  0  0  0  0  0  0  0  0  0  0  0
    2.0910   -0.2576    0.0000 H   0  0  0  0  0  0  0  0  0  0  0  0
   -2.9675   -3.1578    0.0000 H   0  0  0  0  0  0  0  0  0  0  0  0
   -3.1901   -2.1112    0.0000 H   0  0  0  0  0  0  0  0  0  0  0  0
    3.7321    1.7599    0.0000 H   0  0  0  0  0  0  0  0  0  0  0  0
    4.6587    1.2249    0.0000 H   0  0  0  0  0  0  0  0  0  0  0  0
   -0.5926   -1.9807    0.0000 H   0  0  0  0  0  0  0  0  0  0  0  0
   -0.3702   -3.0274    0.0000 H   0  0  0  0  0  0  0  0  0  0  0  0
   -1.7116    0.7522    0.0000 H   0  0  0  0  0  0  0  0  0  0  0  0
   -1.8467    0.7234    0.0000 H   0  0  0  0  0  0  0  0  0  0  0  0
    3.6351   -1.0160    0.0000 H   0  0  0  0  0  0  0  0  0  0  0  0
   -0.2369   -4.6751    0.0000 H   0  0  0  0  0  0  0  0  0  0  0  0
    3.7211    1.7728    0.0000 H   0  0  0  0  0  0  0  0  0  0  0  0
  1 47  1  0  0  0  0
  1 48  1  0  0  0  0
  2 49  1  0  0  0  0
  2 50  1  0  0  0  0
  3 51  1  0  0  0  0
  3 52  1  0  0  0  0
  3 53  1  0  0  0  0
  4 54  1  0  0  0  0
  4 55  1  0  0  0  0
  4 56  1  0  0  0  0
  5 57  1  0  0  0  0
  5 58  1  0  0  0  0
  5 59  1  0  0  0  0
  6 60  1  0  0  0  0
  6 61  1  0  0  0  0
  6 62  1  0  0  0  0
  7  1  2  0  0  0  0
  7 63  1  0  0  0  0
  8  2  2  0  0  0  0
  8 64  1  0  0  0  0
  9 65  1  0  0  0  0
  9 66  1  0  0  0  0
 10 67  1  0  0  0  0
 10 68  1  0  0  0  0
 11  9  1  0  0  0  0
 11 69  1  0  0  0  0
 11 70  1  0  0  0  0
 12 10  1  0  0  0  0
 12 71  1  0  0  0  0
 12 72  1  0  0  0  0
 16  3  1  0  0  0  0
 17  4  1  0  0  0  0
 18  5  1  0  0  0  0
 19  6  1  0  0  0  0
 20  7  1  0  0  0  0
 20 16  1  0  0  0  0
 21  8  1  0  0  0  0
 21 17  2  0  0  0  0
 22  9  1  0  0  0  0
 22 18  2  0  0  0  0
 23 10  1  0  0  0  0
 23 19  2  0  0  0  0
 24 13  1  0  0  0  0
 24 16  2  0  0  0  0
 25 14  2  0  0  0  0
 25 17  1  0  0  0  0
 26 13  2  0  0  0  0
 26 18  1  0  0  0  0
 27 15  1  0  0  0  0
 27 19  1  0  0  0  0
 28 14  1  0  0  0  0
 28 20  2  0  0  0  0
 29 15  2  0  0  0  0
 29 21  1  0  0  0  0
 30 11  1  0  0  0  0
 31 12  1  0  0  0  0
 32 22  1  0  0  0  0
 33 23  1  0  0  0  0
 34 24  1  0  0  0  0
 34 28  1  0  0  0  0
 34 73  1  0  0  0  0
 35 25  1  0  0  0  0
 35 29  1  0  0  0  0
 35 74  1  0  0  0  0
 36 26  1  0  0  0  0
 36 32  2  0  0  0  0
 37 27  2  0  0  0  0
 37 33  1  0  0  0  0
 38 30  2  0  0  0  0
 39 30  1  0  0  0  0
 39 75  1  0  0  0  0
 40 31  2  0  0  0  0
 41 31  1  0  0  0  0
 41 76  1  0  0  0  0
 42 32  1  0  0  0  0
 42 77  1  0  0  0  0
 43 33  2  0  0  0  0
 44 13  1  0  0  0  0
 45 14  1  0  0  0  0
 46 15  1  0  0  0  0
M  END
>  <DRUGBANK_ID>
DB02864

>  <SECONDARY_ACCESSION_NUMBERS>
EXPT00720

>  <COMMON_NAME>
Biliverdin Ix Gamma Chromophore

$$$$
