
 OpenBabel10282417072D

 37 34  0  0  0  0  0  0  0  0999 V2000
    1.4320   -1.2423    0.0000 S   0  0  0  0  0  0  0  0  0  0  0  0
   -2.8641   -1.2423    0.0000 S   0  0  0  0  0  0  0  0  0  0  0  0
    0.0000    0.4078    0.0000 Mg  0  2  0  0  0  0  0  0  0  0  0  0
    0.7207    0.0000    0.0000 O   0  5  0  0  0  0  0  0  0  0  0  0
    1.4320    1.2423    0.0000 O   0  0  0  0  0  0  0  0  0  0  0  0
   -0.7207    0.0000    0.0000 O   0  5  0  0  0  0  0  0  0  0  0  0
   -1.4320    1.2423    0.0000 O   0  0  0  0  0  0  0  0  0  0  0  0
    3.5849   -0.8250    0.0000 O   0  0  0  0  0  0  0  0  0  0  0  0
   -3.5849   -0.8250    0.0000 O   0  0  0  0  0  0  0  0  0  0  0  0
    2.8641    0.4078    0.0000 N   0  0  0  0  0  0  0  0  0  0  0  0
   -2.8641    0.4078    0.0000 N   0  0  0  0  0  0  0  0  0  0  0  0
    2.1529    0.0000    0.0000 C   0  0  1  0  0  0  0  0  0  0  0  0
   -2.1529    0.0000    0.0000 C   0  0  1  0  0  0  0  0  0  0  0  0
    2.1529   -0.8250    0.0000 C   0  0  0  0  0  0  0  0  0  0  0  0
   -2.1529   -0.8250    0.0000 C   0  0  0  0  0  0  0  0  0  0  0  0
    1.4320    0.4078    0.0000 C   0  0  0  0  0  0  0  0  0  0  0  0
   -1.4320    0.4078    0.0000 C   0  0  0  0  0  0  0  0  0  0  0  0
    3.5849    0.0000    0.0000 C   0  0  0  0  0  0  0  0  0  0  0  0
   -3.5849    0.0000    0.0000 C   0  0  0  0  0  0  0  0  0  0  0  0
    4.2962    0.4078    0.0000 C   0  0  0  0  0  0  0  0  0  0  0  0
   -4.2962    0.4078    0.0000 C   0  0  0  0  0  0  0  0  0  0  0  0
    2.8641    0.9294    0.0000 H   0  0  0  0  0  0  0  0  0  0  0  0
   -2.8641    0.9294    0.0000 H   0  0  0  0  0  0  0  0  0  0  0  0
    0.2534   -0.5636    0.0000 H   0  0  0  0  0  0  0  0  0  0  0  0
   -4.0466   -0.5706    0.0000 H   0  0  0  0  0  0  0  0  0  0  0  0
    3.0788   -0.5364    0.0000 H   0  0  0  0  0  0  0  0  0  0  0  0
   -3.0788   -0.5364    0.0000 H   0  0  0  0  0  0  0  0  0  0  0  0
    3.0798   -1.3595    0.0000 H   0  0  0  0  0  0  0  0  0  0  0  0
    3.0794   -0.2897    0.0000 H   0  0  0  0  0  0  0  0  0  0  0  0
   -1.2244   -1.3567    0.0000 H   0  0  0  0  0  0  0  0  0  0  0  0
   -1.2272   -0.2884    0.0000 H   0  0  0  0  0  0  0  0  0  0  0  0
    5.2212   -0.1300    0.0000 H   0  0  0  0  0  0  0  0  0  0  0  0
    4.2994    1.4778    0.0000 H   0  0  0  0  0  0  0  0  0  0  0  0
    5.2245    0.9400    0.0000 H   0  0  0  0  0  0  0  0  0  0  0  0
   -4.2994    1.4778    0.0000 H   0  0  0  0  0  0  0  0  0  0  0  0
   -5.2212   -0.1300    0.0000 H   0  0  0  0  0  0  0  0  0  0  0  0
   -5.2245    0.9400    0.0000 H   0  0  0  0  0  0  0  0  0  0  0  0
  1 14  1  0  0  0  0
  1 24  1  0  0  0  0
  2 15  1  0  0  0  0
  2 25  1  0  0  0  0
  4 16  1  0  0  0  0
  5 16  2  0  0  0  0
  6 17  1  0  0  0  0
  7 17  2  0  0  0  0
  8 18  2  0  0  0  0
  9 19  2  0  0  0  0
 10 18  1  0  0  0  0
 10 22  1  0  0  0  0
 11 19  1  0  0  0  0
 11 23  1  0  0  0  0
 12 10  1  0  0  0  0
 12 14  1  0  0  0  0
 12 16  1  0  0  0  0
 12 26  1  6  0  0  0
 13 11  1  0  0  0  0
 13 15  1  0  0  0  0
 13 17  1  0  0  0  0
 13 27  1  1  0  0  0
 14 28  1  0  0  0  0
 14 29  1  0  0  0  0
 15 30  1  0  0  0  0
 15 31  1  0  0  0  0
 18 20  1  0  0  0  0
 19 21  1  0  0  0  0
 20 32  1  0  0  0  0
 20 33  1  0  0  0  0
 20 34  1  0  0  0  0
 21 35  1  0  0  0  0
 21 36  1  0  0  0  0
 21 37  1  0  0  0  0
M  CHG  3   3   2   4  -1   6  -1
M  END
>  <DRUGBANK_ID>
DB14080

>  <COMMON_NAME>
Acetylcysteine magnesium

>  <CAS_NUMBER>
36330-79-7

>  <UNII>
038D8XOK12

>  <SYNONYMS>
Magnesium acetylcysteinate; Magnesium acetylcysteine

$$$$
