
 OpenBabel10282417072D

 37 39  0  0  0  0  0  0  0  0999 V2000
    2.1434    1.4597    0.0000 N   0  0  0  0  0  0  0  0  0  0  0  0
    1.4290    1.8722    0.0000 C   0  0  0  0  0  0  0  0  0  0  0  0
    0.7145    1.4597    0.0000 C   0  0  2  0  0  0  0  0  0  0  0  0
    0.0000    1.8722    0.0000 C   0  0  0  0  0  0  0  0  0  0  0  0
   -0.7144    1.4597    0.0000 C   0  0  0  0  0  0  0  0  0  0  0  0
   -1.4288    1.8722    0.0000 C   0  0  0  0  0  0  0  0  0  0  0  0
   -1.4288    2.6972    0.0000 C   0  0  0  0  0  0  0  0  0  0  0  0
   -2.1433    3.1098    0.0000 Cl  0  0  0  0  0  0  0  0  0  0  0  0
   -0.7144    3.1098    0.0000 C   0  0  0  0  0  0  0  0  0  0  0  0
    0.0000    2.6972    0.0000 C   0  0  0  0  0  0  0  0  0  0  0  0
    0.7145    0.6347    0.0000 C   0  0  0  0  0  0  0  0  0  0  0  0
    1.4290    0.2222    0.0000 C   0  0  0  0  0  0  0  0  0  0  0  0
    1.4290   -0.6027    0.0000 C   0  0  0  0  0  0  0  0  0  0  0  0
    0.7145   -1.0152    0.0000 C   0  0  0  0  0  0  0  0  0  0  0  0
    0.0000   -0.6027    0.0000 C   0  0  0  0  0  0  0  0  0  0  0  0
    0.0000    0.2222    0.0000 C   0  0  0  0  0  0  0  0  0  0  0  0
    0.7145   -1.8402    0.0000 C   0  0  0  0  0  0  0  0  0  0  0  0
    1.3818   -2.3252    0.0000 C   0  0  0  0  0  0  0  0  0  0  0  0
    1.1270   -3.1098    0.0000 N   0  0  0  0  0  0  0  0  0  0  0  0
    0.3020   -3.1098    0.0000 N   0  0  0  0  0  0  0  0  0  0  0  0
    0.0470   -2.3252    0.0000 C   0  0  0  0  0  0  0  0  0  0  0  0
    2.1434    0.4397    0.0000 H   0  0  0  0  0  0  0  0  0  0  0  0
    3.0268    1.9697    0.0000 H   0  0  0  0  0  0  0  0  0  0  0  0
    1.4290    2.9422    0.0000 H   0  0  0  0  0  0  0  0  0  0  0  0
    0.5024    2.4072    0.0000 H   0  0  0  0  0  0  0  0  0  0  0  0
    1.6411    0.9247    0.0000 H   0  0  0  0  0  0  0  0  0  0  0  0
   -0.7144    0.4277    0.0000 H   0  0  0  0  0  0  0  0  0  0  0  0
   -2.3225    1.3562    0.0000 H   0  0  0  0  0  0  0  0  0  0  0  0
   -0.7144    4.1418    0.0000 H   0  0  0  0  0  0  0  0  0  0  0  0
    0.8938    3.2131    0.0000 H   0  0  0  0  0  0  0  0  0  0  0  0
    2.3227    0.7382    0.0000 H   0  0  0  0  0  0  0  0  0  0  0  0
    2.3227   -1.1187    0.0000 H   0  0  0  0  0  0  0  0  0  0  0  0
   -0.8937   -1.1187    0.0000 H   0  0  0  0  0  0  0  0  0  0  0  0
   -0.8937    0.7382    0.0000 H   0  0  0  0  0  0  0  0  0  0  0  0
    2.3633   -2.0063    0.0000 H   0  0  0  0  0  0  0  0  0  0  0  0
   -0.2766   -3.9063    0.0000 H   0  0  0  0  0  0  0  0  0  0  0  0
   -0.9345   -2.0063    0.0000 H   0  0  0  0  0  0  0  0  0  0  0  0
  1 22  1  0  0  0  0
  1 23  1  0  0  0  0
  2  1  1  0  0  0  0
  2  3  1  0  0  0  0
  2 24  1  0  0  0  0
  2 25  1  0  0  0  0
  3  4  1  0  0  0  0
  3 11  1  0  0  0  0
  3 26  1  6  0  0  0
  4  5  1  0  0  0  0
  5  6  2  0  0  0  0
  5 27  1  0  0  0  0
  6  7  1  0  0  0  0
  6 28  1  0  0  0  0
  7  8  1  0  0  0  0
  7  9  2  0  0  0  0
  9 29  1  0  0  0  0
 10  4  2  0  0  0  0
 10  9  1  0  0  0  0
 10 30  1  0  0  0  0
 11 12  1  0  0  0  0
 11 16  2  0  0  0  0
 12 13  2  0  0  0  0
 12 31  1  0  0  0  0
 13 14  1  0  0  0  0
 13 32  1  0  0  0  0
 14 15  2  0  0  0  0
 14 17  1  0  0  0  0
 15 16  1  0  0  0  0
 15 33  1  0  0  0  0
 16 34  1  0  0  0  0
 17 18  1  0  0  0  0
 17 21  2  0  0  0  0
 18 19  2  0  0  0  0
 18 35  1  0  0  0  0
 19 20  1  0  0  0  0
 20 36  1  0  0  0  0
 21 20  1  0  0  0  0
 21 37  1  0  0  0  0
M  END
>  <DRUGBANK_ID>
DB07858

>  <COMMON_NAME>
(2S)-2-(4-chlorophenyl)-2-[4-(1H-pyrazol-4-yl)phenyl]ethanamine

$$$$
