
 OpenBabel10282417072D

 46 48  0  0  1  0  0  0  0  0999 V2000
    3.4656    1.1759    0.0000 C   0  0  0  0  0  0  0  0  0  0  0  0
    3.4656    0.3509    0.0000 C   0  0  0  0  0  0  0  0  0  0  0  0
    4.1801   -0.0616    0.0000 C   0  0  0  0  0  0  0  0  0  0  0  0
    2.7512   -0.0616    0.0000 S   0  0  0  0  0  0  0  0  0  0  0  0
    2.3387    0.6529    0.0000 O   0  0  0  0  0  0  0  0  0  0  0  0
    3.1637   -0.7761    0.0000 O   0  0  0  0  0  0  0  0  0  0  0  0
    2.0367   -0.4741    0.0000 N   0  0  0  0  0  0  0  0  0  0  0  0
    2.0367   -1.2991    0.0000 C   0  0  1  0  0  0  0  0  0  0  0  0
    2.7041   -1.7840    0.0000 C   0  0  0  0  0  0  0  0  0  0  0  0
    2.4492   -2.5687    0.0000 O   0  0  0  0  0  0  0  0  0  0  0  0
    1.6242   -2.5687    0.0000 C   0  0  0  0  0  0  0  0  0  0  0  0
    1.3693   -1.7840    0.0000 C   0  0  1  0  0  0  0  0  0  0  0  0
    0.5846   -1.5291    0.0000 O   0  0  0  0  0  0  0  0  0  0  0  0
    0.4131   -0.7221    0.0000 C   0  0  0  0  0  0  0  0  0  0  0  0
   -0.3715   -0.4672    0.0000 C   0  0  0  0  0  0  0  0  0  0  0  0
   -0.5430    0.3398    0.0000 C   0  0  0  0  0  0  0  0  0  0  0  0
    0.0701    0.8918    0.0000 C   0  0  0  0  0  0  0  0  0  0  0  0
    0.8547    0.6369    0.0000 C   0  0  0  0  0  0  0  0  0  0  0  0
    1.0262   -0.1701    0.0000 C   0  0  0  0  0  0  0  0  0  0  0  0
   -0.1015    1.6988    0.0000 C   0  0  0  0  0  0  0  0  0  0  0  0
   -0.8551    2.0344    0.0000 C   0  0  0  0  0  0  0  0  0  0  0  0
   -0.7689    2.8548    0.0000 C   0  0  0  0  0  0  0  0  0  0  0  0
    0.0381    3.0264    0.0000 C   0  0  0  0  0  0  0  0  0  0  0  0
    0.4506    2.3119    0.0000 S   0  0  0  0  0  0  0  0  0  0  0  0
    0.3736    3.7800    0.0000 C   0  0  0  0  0  0  0  0  0  0  0  0
    0.7092    4.5337    0.0000 N   0  0  0  0  0  0  0  0  0  0  0  0
    4.3922    1.7109    0.0000 H   0  0  0  0  0  0  0  0  0  0  0  0
    2.5390    1.7109    0.0000 H   0  0  0  0  0  0  0  0  0  0  0  0
    3.4656    2.2459    0.0000 H   0  0  0  0  0  0  0  0  0  0  0  0
    3.4656   -0.7191    0.0000 H   0  0  0  0  0  0  0  0  0  0  0  0
    4.1801   -1.1316    0.0000 H   0  0  0  0  0  0  0  0  0  0  0  0
    5.1067    0.4734    0.0000 H   0  0  0  0  0  0  0  0  0  0  0  0
    5.1068   -0.5966    0.0000 H   0  0  0  0  0  0  0  0  0  0  0  0
    1.1534    0.0359    0.0000 H   0  0  0  0  0  0  0  0  0  0  0  0
    2.9901   -0.8133    0.0000 H   0  0  0  0  0  0  0  0  0  0  0  0
    3.7217   -1.4533    0.0000 H   0  0  0  0  0  0  0  0  0  0  0  0
    3.4607   -2.5406    0.0000 H   0  0  0  0  0  0  0  0  0  0  0  0
    0.9952   -3.4343    0.0000 H   0  0  0  0  0  0  0  0  0  0  0  0
    0.5674   -2.4013    0.0000 H   0  0  0  0  0  0  0  0  0  0  0  0
    0.6127   -2.5406    0.0000 H   0  0  0  0  0  0  0  0  0  0  0  0
   -1.1384   -1.1577    0.0000 H   0  0  0  0  0  0  0  0  0  0  0  0
   -1.5245    0.6587    0.0000 H   0  0  0  0  0  0  0  0  0  0  0  0
    1.6216    1.3274    0.0000 H   0  0  0  0  0  0  0  0  0  0  0  0
    2.0077   -0.4890    0.0000 H   0  0  0  0  0  0  0  0  0  0  0  0
   -1.7489    1.5184    0.0000 H   0  0  0  0  0  0  0  0  0  0  0  0
   -1.5359    3.5453    0.0000 H   0  0  0  0  0  0  0  0  0  0  0  0
  1  2  1  0  0  0  0
  1 27  1  0  0  0  0
  1 28  1  0  0  0  0
  1 29  1  0  0  0  0
  2  3  1  0  0  0  0
  2  4  1  0  0  0  0
  2 30  1  0  0  0  0
  3 31  1  0  0  0  0
  3 32  1  0  0  0  0
  3 33  1  0  0  0  0
  4  5  2  0  0  0  0
  4  6  2  0  0  0  0
  4  7  1  0  0  0  0
  7 34  1  0  0  0  0
  8  7  1  0  0  0  0
  8  9  1  0  0  0  0
  8 12  1  0  0  0  0
  8 35  1  6  0  0  0
  9 10  1  0  0  0  0
  9 36  1  0  0  0  0
  9 37  1  0  0  0  0
 10 11  1  0  0  0  0
 11 12  1  0  0  0  0
 11 38  1  0  0  0  0
 11 39  1  0  0  0  0
 12 13  1  0  0  0  0
 12 40  1  6  0  0  0
 13 14  1  0  0  0  0
 14 15  2  0  0  0  0
 14 19  1  0  0  0  0
 15 16  1  0  0  0  0
 15 41  1  0  0  0  0
 16 17  2  0  0  0  0
 16 42  1  0  0  0  0
 17 18  1  0  0  0  0
 17 20  1  0  0  0  0
 18 19  2  0  0  0  0
 18 43  1  0  0  0  0
 19 44  1  0  0  0  0
 20 21  2  0  0  0  0
 20 24  1  0  0  0  0
 21 22  1  0  0  0  0
 21 45  1  0  0  0  0
 22 23  2  0  0  0  0
 22 46  1  0  0  0  0
 23 24  1  0  0  0  0
 23 25  1  0  0  0  0
 25 26  3  0  0  0  0
M  END
>  <DRUGBANK_ID>
DB11843

>  <COMMON_NAME>
PF-04958242

>  <CAS_NUMBER>
1258963-59-5

>  <UNII>
9G1A824CC2

$$$$
