1296
 OpenBabel10282417072D

 25 25  0  0  1  0  0  0  0  0999 V2000
    4.2365   -0.0784    0.0000 O   0  0  0  0  0  0  0  0  0  0  0  0
    2.0930    1.1592    0.0000 O   0  0  0  0  0  0  0  0  0  0  0  0
    2.0930   -0.4909    0.0000 O   0  0  0  0  0  0  0  0  0  0  0  0
    4.9509    1.1592    0.0000 O   0  0  0  0  0  0  0  0  0  0  0  0
    4.2365   -1.7284    0.0000 O   0  0  0  0  0  0  0  0  0  0  0  0
    3.5220    1.9842    0.0000 N   0  0  0  0  0  0  0  0  0  0  0  0
    2.8075    0.7466    0.0000 C   0  0  1  0  0  0  0  0  0  0  0  0
    2.8075   -0.0784    0.0000 C   0  0  1  0  0  0  0  0  0  0  0  0
    3.5220    1.1592    0.0000 C   0  0  2  0  0  0  0  0  0  0  0  0
    3.5220   -0.4909    0.0000 C   0  0  1  0  0  0  0  0  0  0  0  0
    4.2365    0.7466    0.0000 C   0  0  3  0  0  0  0  0  0  0  0  0
    3.5220   -1.3159    0.0000 C   0  0  0  0  0  0  0  0  0  0  0  0
    2.0931    2.1292    0.0000 H   0  0  0  0  0  0  0  0  0  0  0  0
    1.2530   -0.0059    0.0000 H   0  0  0  0  0  0  0  0  0  0  0  0
    5.7910    0.6743    0.0000 H   0  0  0  0  0  0  0  0  0  0  0  0
    4.2365   -2.6984    0.0000 H   0  0  0  0  0  0  0  0  0  0  0  0
    4.4053    2.4942    0.0000 H   0  0  0  0  0  0  0  0  0  0  0  0
    2.6387    2.4942    0.0000 H   0  0  0  0  0  0  0  0  0  0  0  0
    1.8808    0.2116    0.0000 H   0  0  0  0  0  0  0  0  0  0  0  0
    1.8809    0.4566    0.0000 H   0  0  0  0  0  0  0  0  0  0  0  0
    2.5953    1.6942    0.0000 H   0  0  0  0  0  0  0  0  0  0  0  0
    4.4486   -1.0259    0.0000 H   0  0  0  0  0  0  0  0  0  0  0  0
    5.1632    0.2117    0.0000 H   0  0  0  0  0  0  0  0  0  0  0  0
    2.5954   -1.8509    0.0000 H   0  0  0  0  0  0  0  0  0  0  0  0
    2.5954   -0.7809    0.0000 H   0  0  0  0  0  0  0  0  0  0  0  0
  1 10  1  0  0  0  0
  1 11  1  0  0  0  0
  2 13  1  0  0  0  0
  3 14  1  0  0  0  0
  4 11  1  0  0  0  0
  4 15  1  0  0  0  0
  5 12  1  0  0  0  0
  5 16  1  0  0  0  0
  6 17  1  0  0  0  0
  6 18  1  0  0  0  0
  7  2  1  0  0  0  0
  7  8  1  0  0  0  0
  7  9  1  0  0  0  0
  7 19  1  1  0  0  0
  8  3  1  0  0  0  0
  8 10  1  0  0  0  0
  8 20  1  6  0  0  0
  9  6  1  0  0  0  0
  9 11  1  0  0  0  0
  9 21  1  6  0  0  0
 10 12  1  0  0  0  0
 10 22  1  1  0  0  0
 11 23  1  0  0  0  0
 12 24  1  0  0  0  0
 12 25  1  0  0  0  0
M  END
>  <DRUGBANK_ID>
DB01296

>  <SECONDARY_ACCESSION_NUMBERS>
EXPT01563

>  <COMMON_NAME>
Glucosamine

>  <CAS_NUMBER>
3416-24-8

>  <UNII>
N08U5BOQ1K

>  <SYNONYMS>
2-amino-2-deoxy-D-glucose; Chitosamine; D-Glucosamine; Glucosamina; Glucosamine

$$$$
