
 OpenBabel10282417072D

 38 39  0  0  1  0  0  0  0  0999 V2000
    2.1434    8.4161    0.0000 C   0  0  0  0  0  0  0  0  0  0  0  0
    2.8579    8.0036    0.0000 C   0  0  0  0  0  0  0  0  0  0  0  0
    2.8579    7.1786    0.0000 C   0  0  0  0  0  0  0  0  0  0  0  0
    2.1434    6.7661    0.0000 C   0  0  0  0  0  0  0  0  0  0  0  0
    1.4289    7.1786    0.0000 C   0  0  0  0  0  0  0  0  0  0  0  0
    1.4289    8.0036    0.0000 C   0  0  0  0  0  0  0  0  0  0  0  0
    2.1434    5.9411    0.0000 C   0  0  0  0  0  0  0  0  0  0  0  0
    2.8579    5.5286    0.0000 O   0  0  0  0  0  0  0  0  0  0  0  0
    1.4289    5.5286    0.0000 N   0  0  0  0  0  0  0  0  0  0  0  0
    1.4289    4.7036    0.0000 C   0  0  2  0  0  0  0  0  0  0  0  0
    2.0964    4.2187    0.0000 C   0  0  0  0  0  0  0  0  0  0  0  0
    1.8414    3.4340    0.0000 C   0  0  2  0  0  0  0  0  0  0  0  0
    1.0164    3.4340    0.0000 N   0  0  0  0  0  0  0  0  0  0  0  0
    0.7615    4.2187    0.0000 C   0  0  0  0  0  0  0  0  0  0  0  0
    0.5315    2.7666    0.0000 C   0  0  0  0  0  0  0  0  0  0  0  0
    0.8671    2.0129    0.0000 O   0  0  0  0  0  0  0  0  0  0  0  0
   -0.2890    2.8528    0.0000 C   0  0  0  0  0  0  0  0  0  0  0  0
   -0.7739    2.1854    0.0000 N   0  0  0  0  0  0  0  0  0  0  0  0
    2.3264    2.7666    0.0000 C   0  0  0  0  0  0  0  0  0  0  0  0
    1.9908    2.0129    0.0000 O   0  0  0  0  0  0  0  0  0  0  0  0
    3.1468    2.8528    0.0000 O   0  0  0  0  0  0  0  0  0  0  0  0
    2.1434    9.4481    0.0000 H   0  0  0  0  0  0  0  0  0  0  0  0
    3.7516    8.5196    0.0000 H   0  0  0  0  0  0  0  0  0  0  0  0
    3.7516    6.6626    0.0000 H   0  0  0  0  0  0  0  0  0  0  0  0
    0.5352    6.6626    0.0000 H   0  0  0  0  0  0  0  0  0  0  0  0
    0.5352    8.5196    0.0000 H   0  0  0  0  0  0  0  0  0  0  0  0
    0.5763    6.0209    0.0000 H   0  0  0  0  0  0  0  0  0  0  0  0
    2.3823    5.1894    0.0000 H   0  0  0  0  0  0  0  0  0  0  0  0
    3.1140    4.5494    0.0000 H   0  0  0  0  0  0  0  0  0  0  0  0
    2.8530    3.4621    0.0000 H   0  0  0  0  0  0  0  0  0  0  0  0
    2.8982    3.6014    0.0000 H   0  0  0  0  0  0  0  0  0  0  0  0
   -0.2561    4.5494    0.0000 H   0  0  0  0  0  0  0  0  0  0  0  0
    0.5941    5.2755    0.0000 H   0  0  0  0  0  0  0  0  0  0  0  0
   -0.7242    3.8303    0.0000 H   0  0  0  0  0  0  0  0  0  0  0  0
   -1.3531    2.9646    0.0000 H   0  0  0  0  0  0  0  0  0  0  0  0
   -1.7883    2.2920    0.0000 H   0  0  0  0  0  0  0  0  0  0  0  0
   -0.3590    1.2536    0.0000 H   0  0  0  0  0  0  0  0  0  0  0  0
    3.6975    2.0947    0.0000 H   0  0  0  0  0  0  0  0  0  0  0  0
  1  2  2  0  0  0  0
  1  6  1  0  0  0  0
  1 22  1  0  0  0  0
  2  3  1  0  0  0  0
  2 23  1  0  0  0  0
  3  4  2  0  0  0  0
  3 24  1  0  0  0  0
  4  5  1  0  0  0  0
  4  7  1  0  0  0  0
  5  6  2  0  0  0  0
  5 25  1  0  0  0  0
  6 26  1  0  0  0  0
  7  8  2  0  0  0  0
  7  9  1  0  0  0  0
  9 27  1  0  0  0  0
 10  9  1  0  0  0  0
 10 11  1  0  0  0  0
 10 14  1  0  0  0  0
 10 28  1  1  0  0  0
 11 12  1  0  0  0  0
 11 29  1  0  0  0  0
 11 30  1  0  0  0  0
 12 13  1  0  0  0  0
 12 19  1  0  0  0  0
 12 31  1  6  0  0  0
 13 14  1  0  0  0  0
 13 15  1  0  0  0  0
 14 32  1  0  0  0  0
 14 33  1  0  0  0  0
 15 16  2  0  0  0  0
 15 17  1  0  0  0  0
 17 18  1  0  0  0  0
 17 34  1  0  0  0  0
 17 35  1  0  0  0  0
 18 36  1  0  0  0  0
 18 37  1  0  0  0  0
 19 20  2  0  0  0  0
 19 21  1  0  0  0  0
 21 38  1  0  0  0  0
M  END
>  <DRUGBANK_ID>
DB11821

>  <SECONDARY_ACCESSION_NUMBERS>
DB06340

>  <COMMON_NAME>
Danegaptide

>  <CAS_NUMBER>
943134-39-2

>  <UNII>
PA0Y7735AT

>  <SYNONYMS>
Danegaptide

$$$$
