
 OpenBabel10282417072D

 55 60  0  0  1  0  0  0  0  0999 V2000
    6.0248   -9.1251    0.0000 C   0  0  0  0  0  0  0  0  0  0  0  0
    6.0248   -9.9502    0.0000 O   0  0  0  0  0  0  0  0  0  0  0  0
    6.8094  -10.2051    0.0000 C   0  0  2  0  0  0  0  0  0  0  0  0
    7.2944   -9.5377    0.0000 C   0  0  2  0  0  0  0  0  0  0  0  0
    6.8094   -8.8702    0.0000 C   0  0  2  0  0  0  0  0  0  0  0  0
    8.0790  -10.6176    0.0000 C   0  0  2  0  0  0  0  0  0  0  0  0
    8.0790   -9.7926    0.0000 C   0  0  1  0  0  0  0  0  0  0  0  0
    8.8637  -10.8725    0.0000 C   0  0  2  0  0  0  0  0  0  0  0  0
    9.3486  -10.2051    0.0000 C   0  0  2  0  0  0  0  0  0  0  0  0
    8.8637   -9.5377    0.0000 O   0  0  0  0  0  0  0  0  0  0  0  0
   10.1332  -10.4600    0.0000 O   0  0  0  0  0  0  0  0  0  0  0  0
   10.1332  -11.2850    0.0000 C   0  0  0  0  0  0  0  0  0  0  0  0
    9.3486  -11.5400    0.0000 C   0  0  2  0  0  0  0  0  0  0  0  0
    5.3573   -8.6402    0.0000 O   0  0  0  0  0  0  0  0  0  0  0  0
    7.2944  -10.8725    0.0000 C   0  0  1  0  0  0  0  0  0  0  0  0
    7.5941  -11.2850    0.0000 C   0  0  1  0  0  0  0  0  0  0  0  0
    8.8637  -11.6975    0.0000 C   0  0  1  0  0  0  0  0  0  0  0  0
    8.0790  -11.9525    0.0000 C   0  0  1  0  0  0  0  0  0  0  0  0
   10.7307  -11.7001    0.0000 O   0  0  0  0  0  0  0  0  0  0  0  0
    7.2759   -8.5346    0.0000 O   0  0  0  0  0  0  0  0  0  0  0  0
    6.8996  -11.5873    0.0000 O   0  0  0  0  0  0  0  0  0  0  0  0
    6.7427   -8.0716    0.0000 C   0  0  0  0  0  0  0  0  0  0  0  0
    7.9285   -9.0752    0.0000 C   0  0  0  0  0  0  0  0  0  0  0  0
    7.4251  -10.0680    0.0000 O   0  0  0  0  0  0  0  0  0  0  0  0
    7.9285   -8.4320    0.0000 O   0  0  0  0  0  0  0  0  0  0  0  0
    9.7464  -12.2214    0.0000 O   0  0  0  0  0  0  0  0  0  0  0  0
    8.9213  -12.3892    0.0000 C   0  0  0  0  0  0  0  0  0  0  0  0
    8.4180  -13.0464    0.0000 C   0  0  0  0  0  0  0  0  0  0  0  0
    9.0752  -13.2142    0.0000 C   0  0  0  0  0  0  0  0  0  0  0  0
    9.5786  -12.8786    0.0000 C   0  0  0  0  0  0  0  0  0  0  0  0
    7.5929  -12.5571    0.0000 O   0  0  0  0  0  0  0  0  0  0  0  0
    6.4788   -9.1875    0.0000 H   0  0  0  0  0  0  0  0  0  0  0  0
    7.8124   -8.4974    0.0000 H   0  0  0  0  0  0  0  0  0  0  0  0
    8.2786  -10.2051    0.0000 H   0  0  0  0  0  0  0  0  0  0  0  0
   10.3485  -11.9210    0.0000 H   0  0  0  0  0  0  0  0  0  0  0  0
    6.2264  -10.9387    0.0000 H   0  0  0  0  0  0  0  0  0  0  0  0
    8.5865  -10.8850    0.0000 H   0  0  0  0  0  0  0  0  0  0  0  0
    8.2713  -12.5885    0.0000 H   0  0  0  0  0  0  0  0  0  0  0  0
    8.6866  -12.8332    0.0000 H   0  0  0  0  0  0  0  0  0  0  0  0
    8.1069   -8.0342    0.0000 H   0  0  0  0  0  0  0  0  0  0  0  0
    5.9298  -11.6057    0.0000 H   0  0  0  0  0  0  0  0  0  0  0  0
    7.6216   -7.4613    0.0000 H   0  0  0  0  0  0  0  0  0  0  0  0
    5.7747   -7.6156    0.0000 H   0  0  0  0  0  0  0  0  0  0  0  0
    6.6536   -7.0053    0.0000 H   0  0  0  0  0  0  0  0  0  0  0  0
    9.2655  -13.0638    0.0000 H   0  0  0  0  0  0  0  0  0  0  0  0
    7.3570  -12.9077    0.0000 H   0  0  0  0  0  0  0  0  0  0  0  0
    8.8284  -14.0346    0.0000 H   0  0  0  0  0  0  0  0  0  0  0  0
    7.7674  -13.8959    0.0000 H   0  0  0  0  0  0  0  0  0  0  0  0
    8.2624  -13.9101    0.0000 H   0  0  0  0  0  0  0  0  0  0  0  0
   10.0842  -13.5702    0.0000 H   0  0  0  0  0  0  0  0  0  0  0  0
    9.2714  -14.2661    0.0000 H   0  0  0  0  0  0  0  0  0  0  0  0
    9.4543  -13.9414    0.0000 H   0  0  0  0  0  0  0  0  0  0  0  0
   10.5611  -12.4549    0.0000 H   0  0  0  0  0  0  0  0  0  0  0  0
   10.4368  -13.5176    0.0000 H   0  0  0  0  0  0  0  0  0  0  0  0
    6.6343  -12.4087    0.0000 H   0  0  0  0  0  0  0  0  0  0  0  0
  1  2  1  0  0  0  0
  1 14  2  0  0  0  0
  3  2  1  0  0  0  0
  3  4  1  0  0  0  0
  3 15  1  0  0  0  0
  3 32  1  1  0  0  0
  4  5  1  0  0  0  0
  4 20  1  1  0  0  0
  5  1  1  0  0  0  0
  5 22  1  0  0  0  0
  5 33  1  6  0  0  0
  6  7  1  0  0  0  0
  6  8  1  0  0  0  0
  6 16  1  0  0  0  0
  7  4  1  0  0  0  0
  7 23  1  0  0  0  0
  8  9  1  0  0  0  0
  8 17  1  0  0  0  0
  9 10  1  0  0  0  0
  9 11  1  0  0  0  0
  9 34  1  0  0  0  0
 10  7  1  0  0  0  0
 11 12  1  0  0  0  0
 12 13  1  0  0  0  0
 12 19  2  0  0  0  0
 13  8  1  0  0  0  0
 13 26  1  0  0  0  0
 13 35  1  0  0  0  0
 15  6  1  0  0  0  0
 15 21  1  0  0  0  0
 15 36  1  0  0  0  0
 16 24  1  0  0  0  0
 16 37  1  0  0  0  0
 17 18  1  0  0  0  0
 17 27  1  0  0  0  0
 17 38  1  0  0  0  0
 18 16  1  0  0  0  0
 18 31  1  0  0  0  0
 18 39  1  0  0  0  0
 20 40  1  0  0  0  0
 21 41  1  0  0  0  0
 22 42  1  0  0  0  0
 22 43  1  0  0  0  0
 22 44  1  0  0  0  0
 23 24  1  0  0  0  0
 23 25  2  0  0  0  0
 26 45  1  0  0  0  0
 27 28  1  0  0  0  0
 27 29  1  0  0  0  0
 27 30  1  0  0  0  0
 28 46  1  0  0  0  0
 28 47  1  0  0  0  0
 28 48  1  0  0  0  0
 29 49  1  0  0  0  0
 29 50  1  0  0  0  0
 29 51  1  0  0  0  0
 30 52  1  0  0  0  0
 30 53  1  0  0  0  0
 30 54  1  0  0  0  0
 31 55  1  0  0  0  0
M  END
>  <DRUGBANK_ID>
DB06745

>  <COMMON_NAME>
ginkgolide-C

>  <CAS_NUMBER>
15291-76-6

>  <UNII>
32ZQ957R4A

$$$$
