BN5
 OpenBabel10282417072D

 49 50  0  0  0  0  0  0  0  0999 V2000
   -5.2631   -0.1596    0.0000 C   0  0  0  0  0  0  0  0  0  0  0  0
   -4.5486    0.2529    0.0000 C   0  0  0  0  0  0  0  0  0  0  0  0
   -3.8342   -0.1596    0.0000 C   0  0  0  0  0  0  0  0  0  0  0  0
   -3.8342   -0.9846    0.0000 C   0  0  0  0  0  0  0  0  0  0  0  0
   -3.1197   -1.3971    0.0000 Cl  0  0  0  0  0  0  0  0  0  0  0  0
   -4.5486   -1.3971    0.0000 C   0  0  0  0  0  0  0  0  0  0  0  0
   -5.2631   -0.9846    0.0000 C   0  0  0  0  0  0  0  0  0  0  0  0
   -2.4052   -0.1596    0.0000 N   0  0  0  0  0  0  0  0  0  0  0  0
   -3.1197    0.2529    0.0000 C   0  0  0  0  0  0  0  0  0  0  0  0
   -3.1197    1.0779    0.0000 O   0  0  0  0  0  0  0  0  0  0  0  0
   -0.9763   -0.1596    0.0000 N   0  0  0  0  0  0  0  0  0  0  0  0
   -0.2618    0.2529    0.0000 C   0  0  0  0  0  0  0  0  0  0  0  0
   -0.2618    1.0779    0.0000 C   0  0  0  0  0  0  0  0  0  0  0  0
    0.4527    1.4904    0.0000 C   0  0  0  0  0  0  0  0  0  0  0  0
    0.4527   -0.9846    0.0000 C   0  0  0  0  0  0  0  0  0  0  0  0
    1.1671    1.0779    0.0000 C   0  0  0  0  0  0  0  0  0  0  0  0
    1.8816   -0.1596    0.0000 O   0  0  0  0  0  0  0  0  0  0  0  0
    2.5961    0.2529    0.0000 C   0  0  0  0  0  0  0  0  0  0  0  0
    3.3105   -0.1596    0.0000 C   0  0  0  0  0  0  0  0  0  0  0  0
    4.0250    0.2529    0.0000 C   0  0  0  0  0  0  0  0  0  0  0  0
    4.7395   -0.1596    0.0000 C   0  0  0  0  0  0  0  0  0  0  0  0
    5.4539    0.2529    0.0000 C   0  0  0  0  0  0  0  0  0  0  0  0
    6.1684   -0.1596    0.0000 O   0  0  0  0  0  0  0  0  0  0  0  0
    5.4539    1.0779    0.0000 O   0  0  0  0  0  0  0  0  0  0  0  0
    1.1671    0.2529    0.0000 C   0  0  0  0  0  0  0  0  0  0  0  0
    0.4527   -0.1596    0.0000 C   0  0  0  0  0  0  0  0  0  0  0  0
   -1.6908    0.2529    0.0000 C   0  0  0  0  0  0  0  0  0  0  0  0
   -1.6908    1.0779    0.0000 O   0  0  0  0  0  0  0  0  0  0  0  0
   -5.9776   -1.3971    0.0000 Cl  0  0  0  0  0  0  0  0  0  0  0  0
   -6.1568    0.3564    0.0000 H   0  0  0  0  0  0  0  0  0  0  0  0
   -4.5486    1.2849    0.0000 H   0  0  0  0  0  0  0  0  0  0  0  0
   -4.5486   -2.4291    0.0000 H   0  0  0  0  0  0  0  0  0  0  0  0
   -2.4052   -1.1441    0.0000 H   0  0  0  0  0  0  0  0  0  0  0  0
   -0.9763   -1.1441    0.0000 H   0  0  0  0  0  0  0  0  0  0  0  0
   -1.1555    1.5939    0.0000 H   0  0  0  0  0  0  0  0  0  0  0  0
    0.4527    2.5224    0.0000 H   0  0  0  0  0  0  0  0  0  0  0  0
   -0.4739   -1.5196    0.0000 H   0  0  0  0  0  0  0  0  0  0  0  0
    1.3793   -1.5196    0.0000 H   0  0  0  0  0  0  0  0  0  0  0  0
    0.4527   -2.0546    0.0000 H   0  0  0  0  0  0  0  0  0  0  0  0
    2.0608    1.5939    0.0000 H   0  0  0  0  0  0  0  0  0  0  0  0
    2.5961    1.3229    0.0000 H   0  0  0  0  0  0  0  0  0  0  0  0
    3.5228    0.7879    0.0000 H   0  0  0  0  0  0  0  0  0  0  0  0
    3.3105   -1.2296    0.0000 H   0  0  0  0  0  0  0  0  0  0  0  0
    4.2371   -0.6946    0.0000 H   0  0  0  0  0  0  0  0  0  0  0  0
    4.0250    1.3229    0.0000 H   0  0  0  0  0  0  0  0  0  0  0  0
    4.9516    0.7879    0.0000 H   0  0  0  0  0  0  0  0  0  0  0  0
    4.7395   -1.2296    0.0000 H   0  0  0  0  0  0  0  0  0  0  0  0
    5.6662   -0.6946    0.0000 H   0  0  0  0  0  0  0  0  0  0  0  0
    6.1684   -1.0966    0.0000 H   0  0  0  0  0  0  0  0  0  0  0  0
  1  2  1  0  0  0  0
  1  7  2  0  0  0  0
  1 30  1  0  0  0  0
  2  3  2  0  0  0  0
  2 31  1  0  0  0  0
  3  4  1  0  0  0  0
  3  9  1  0  0  0  0
  4  5  1  0  0  0  0
  4  6  2  0  0  0  0
  6  7  1  0  0  0  0
  6 32  1  0  0  0  0
  7 29  1  0  0  0  0
  8  9  1  0  0  0  0
  8 27  1  0  0  0  0
  8 33  1  0  0  0  0
  9 10  2  0  0  0  0
 11 12  1  0  0  0  0
 11 27  1  0  0  0  0
 11 34  1  0  0  0  0
 12 13  1  0  0  0  0
 12 26  2  0  0  0  0
 13 14  2  0  0  0  0
 13 35  1  0  0  0  0
 14 16  1  0  0  0  0
 14 36  1  0  0  0  0
 15 26  1  0  0  0  0
 15 37  1  0  0  0  0
 15 38  1  0  0  0  0
 15 39  1  0  0  0  0
 16 25  2  0  0  0  0
 16 40  1  0  0  0  0
 17 18  1  0  0  0  0
 17 25  1  0  0  0  0
 18 19  1  0  0  0  0
 18 41  1  0  0  0  0
 18 42  1  0  0  0  0
 19 20  1  0  0  0  0
 19 43  1  0  0  0  0
 19 44  1  0  0  0  0
 20 21  1  0  0  0  0
 20 45  1  0  0  0  0
 20 46  1  0  0  0  0
 21 22  1  0  0  0  0
 21 47  1  0  0  0  0
 21 48  1  0  0  0  0
 22 23  1  0  0  0  0
 22 24  2  0  0  0  0
 23 49  1  0  0  0  0
 25 26  1  0  0  0  0
 27 28  2  0  0  0  0
M  END
>  <DRUGBANK_ID>
DB04645

>  <COMMON_NAME>
5-{3-[3-(2,4-DICHLORO-BENZOYL)-UREIDO]-2-METHYL-PHENOXY}-PENTANOIC ACID

$$$$
