953
 OpenBabel10282417072D

 39 41  0  0  0  0  0  0  0  0999 V2000
    6.5944   -1.5972    0.0000 N   0  0  0  0  0  0  0  0  0  0  0  0
    7.9142    1.4693    0.0000 N   0  0  0  0  0  0  0  0  0  0  0  0
    2.9558   -0.5207    0.0000 N   0  0  0  0  0  0  0  0  0  0  0  0
    2.8695   -1.3411    0.0000 N   0  0  0  0  0  0  0  0  0  0  0  0
    1.6500   -0.7982    0.0000 N   0  0  0  0  0  0  0  0  0  0  0  0
    6.5944   -0.2693    0.0000 C   0  0  0  0  0  0  0  0  0  0  0  0
    5.8137   -0.5207    0.0000 C   0  0  0  0  0  0  0  0  0  0  0  0
    6.8507    0.5149    0.0000 C   0  0  0  0  0  0  0  0  0  0  0  0
    5.8137   -1.3457    0.0000 C   0  0  0  0  0  0  0  0  0  0  0  0
    7.6580    0.6851    0.0000 C   0  0  0  0  0  0  0  0  0  0  0  0
    5.0993   -0.1082    0.0000 C   0  0  0  0  0  0  0  0  0  0  0  0
    7.0759   -0.9332    0.0000 C   0  0  0  0  0  0  0  0  0  0  0  0
    4.3847   -0.5207    0.0000 C   0  0  0  0  0  0  0  0  0  0  0  0
    5.0993   -1.7582    0.0000 C   0  0  0  0  0  0  0  0  0  0  0  0
    4.3847   -1.3457    0.0000 C   0  0  0  0  0  0  0  0  0  0  0  0
    3.6703   -0.1082    0.0000 C   0  0  0  0  0  0  0  0  0  0  0  0
    7.3633    2.0833    0.0000 C   0  0  0  0  0  0  0  0  0  0  0  0
    8.7215    1.6394    0.0000 C   0  0  0  0  0  0  0  0  0  0  0  0
    2.2021   -0.1851    0.0000 C   0  0  0  0  0  0  0  0  0  0  0  0
    2.0625   -1.5128    0.0000 C   0  0  0  0  0  0  0  0  0  0  0  0
    6.9002   -2.5330    0.0000 H   0  0  0  0  0  0  0  0  0  0  0  0
    6.1361    1.3113    0.0000 H   0  0  0  0  0  0  0  0  0  0  0  0
    7.1831    1.5320    0.0000 H   0  0  0  0  0  0  0  0  0  0  0  0
    8.3727   -0.1112    0.0000 H   0  0  0  0  0  0  0  0  0  0  0  0
    7.3257   -0.3320    0.0000 H   0  0  0  0  0  0  0  0  0  0  0  0
    5.0994    0.9238    0.0000 H   0  0  0  0  0  0  0  0  0  0  0  0
    8.1079   -0.9332    0.0000 H   0  0  0  0  0  0  0  0  0  0  0  0
    5.0994   -2.7902    0.0000 H   0  0  0  0  0  0  0  0  0  0  0  0
    3.4910   -1.8617    0.0000 H   0  0  0  0  0  0  0  0  0  0  0  0
    3.6703    0.9618    0.0000 H   0  0  0  0  0  0  0  0  0  0  0  0
    4.5970    0.4268    0.0000 H   0  0  0  0  0  0  0  0  0  0  0  0
    7.6957    3.1003    0.0000 H   0  0  0  0  0  0  0  0  0  0  0  0
    6.3163    1.8627    0.0000 H   0  0  0  0  0  0  0  0  0  0  0  0
    6.6487    2.8797    0.0000 H   0  0  0  0  0  0  0  0  0  0  0  0
    9.4361    0.8430    0.0000 H   0  0  0  0  0  0  0  0  0  0  0  0
    9.0540    2.6564    0.0000 H   0  0  0  0  0  0  0  0  0  0  0  0
    9.7685    1.8600    0.0000 H   0  0  0  0  0  0  0  0  0  0  0  0
    1.9876    0.8244    0.0000 H   0  0  0  0  0  0  0  0  0  0  0  0
    1.6428   -2.4556    0.0000 H   0  0  0  0  0  0  0  0  0  0  0  0
  1  9  1  0  0  0  0
  1 12  1  0  0  0  0
  1 21  1  0  0  0  0
  2 10  1  0  0  0  0
  2 17  1  0  0  0  0
  2 18  1  0  0  0  0
  3  4  1  0  0  0  0
  3 16  1  0  0  0  0
  3 19  1  0  0  0  0
  4 20  2  0  0  0  0
  5 19  2  0  0  0  0
  5 20  1  0  0  0  0
  6  7  1  0  0  0  0
  6  8  1  0  0  0  0
  6 12  2  0  0  0  0
  7  9  2  0  0  0  0
  7 11  1  0  0  0  0
  8 10  1  0  0  0  0
  8 22  1  0  0  0  0
  8 23  1  0  0  0  0
  9 14  1  0  0  0  0
 10 24  1  0  0  0  0
 10 25  1  0  0  0  0
 11 13  2  0  0  0  0
 11 26  1  0  0  0  0
 12 27  1  0  0  0  0
 13 15  1  0  0  0  0
 13 16  1  0  0  0  0
 14 15  2  0  0  0  0
 14 28  1  0  0  0  0
 15 29  1  0  0  0  0
 16 30  1  0  0  0  0
 16 31  1  0  0  0  0
 17 32  1  0  0  0  0
 17 33  1  0  0  0  0
 17 34  1  0  0  0  0
 18 35  1  0  0  0  0
 18 36  1  0  0  0  0
 18 37  1  0  0  0  0
 19 38  1  0  0  0  0
 20 39  1  0  0  0  0
M  END
>  <DRUGBANK_ID>
DB00953

>  <SECONDARY_ACCESSION_NUMBERS>
APRD00008

>  <COMMON_NAME>
Rizatriptan

>  <CAS_NUMBER>
144034-80-0

>  <UNII>
51086HBW8G

>  <SYNONYMS>
N,N-Dimethyl-2-[5-(1,2,4-triazol-1-ylmethyl)-1H-indol-3-yl]-ethanamine; N,N-Dimethyl-5-(1H-1,2,4-triazol-1-ylmethyl)-1H-indole-3-ethanamine; Risatriptan; Rizatript√°n; Rizatriptan; Rizatriptanum

$$$$
