
 OpenBabel10282417072D

 61 64  0  0  1  0  0  0  0  0999 V2000
   -2.9909    1.9688    0.0000 C   0  0  0  0  0  0  0  0  0  0  0  0
   -3.2459    1.1842    0.0000 C   0  0  0  0  0  0  0  0  0  0  0  0
   -2.6938    0.5711    0.0000 C   0  0  0  0  0  0  0  0  0  0  0  0
   -1.8869    0.7427    0.0000 C   0  0  2  0  0  0  0  0  0  0  0  0
   -1.3348    0.1295    0.0000 N   0  0  0  0  0  0  0  0  0  0  0  0
   -1.4211   -0.6909    0.0000 C   0  0  0  0  0  0  0  0  0  0  0  0
   -0.7536   -1.1757    0.0000 C   0  0  0  0  0  0  0  0  0  0  0  0
   -0.7536   -2.0007    0.0000 C   0  0  0  0  0  0  0  0  0  0  0  0
   -0.0391   -2.4132    0.0000 C   0  0  0  0  0  0  0  0  0  0  0  0
    0.6752   -2.0007    0.0000 C   0  0  0  0  0  0  0  0  0  0  0  0
    0.7536   -1.1757    0.0000 C   0  0  0  0  0  0  0  0  0  0  0  0
    1.4211   -0.6909    0.0000 C   0  0  0  0  0  0  0  0  0  0  0  0
    1.3348    0.1295    0.0000 N   0  0  0  0  0  0  0  0  0  0  0  0
    1.8869    0.7427    0.0000 C   0  0  1  0  0  0  0  0  0  0  0  0
    2.6938    0.5711    0.0000 C   0  0  0  0  0  0  0  0  0  0  0  0
    3.2459    1.1842    0.0000 C   0  0  0  0  0  0  0  0  0  0  0  0
    2.9909    1.9688    0.0000 C   0  0  0  0  0  0  0  0  0  0  0  0
    2.1840    2.1403    0.0000 C   0  0  0  0  0  0  0  0  0  0  0  0
    1.6319    1.5273    0.0000 C   0  0  2  0  0  0  0  0  0  0  0  0
    0.8249    1.6988    0.0000 N   0  0  0  0  0  0  0  0  0  0  0  0
    0.4124    2.4132    0.0000 C   0  0  0  0  0  0  0  0  0  0  0  0
   -0.4125    2.4132    0.0000 C   0  0  0  0  0  0  0  0  0  0  0  0
   -0.8250    1.6988    0.0000 N   0  0  0  0  0  0  0  0  0  0  0  0
   -1.6319    1.5273    0.0000 C   0  0  1  0  0  0  0  0  0  0  0  0
   -2.1840    2.1403    0.0000 C   0  0  0  0  0  0  0  0  0  0  0  0
    0.0000   -0.8402    0.0000 N   0  0  0  0  0  0  0  0  0  0  0  0
   -3.7068    2.7640    0.0000 H   0  0  0  0  0  0  0  0  0  0  0  0
   -2.6602    2.9864    0.0000 H   0  0  0  0  0  0  0  0  0  0  0  0
   -4.2925    0.9617    0.0000 H   0  0  0  0  0  0  0  0  0  0  0  0
   -3.5765    0.1666    0.0000 H   0  0  0  0  0  0  0  0  0  0  0  0
   -3.0244   -0.4466    0.0000 H   0  0  0  0  0  0  0  0  0  0  0  0
   -1.9778   -0.2240    0.0000 H   0  0  0  0  0  0  0  0  0  0  0  0
   -2.2175   -0.2749    0.0000 H   0  0  0  0  0  0  0  0  0  0  0  0
   -0.3647    0.4446    0.0000 H   0  0  0  0  0  0  0  0  0  0  0  0
   -2.3986   -1.1261    0.0000 H   0  0  0  0  0  0  0  0  0  0  0  0
   -1.5328   -1.7550    0.0000 H   0  0  0  0  0  0  0  0  0  0  0  0
   -1.6473   -2.5167    0.0000 H   0  0  0  0  0  0  0  0  0  0  0  0
   -0.0390   -3.4452    0.0000 H   0  0  0  0  0  0  0  0  0  0  0  0
    1.5435   -2.5584    0.0000 H   0  0  0  0  0  0  0  0  0  0  0  0
    2.3986   -1.1261    0.0000 H   0  0  0  0  0  0  0  0  0  0  0  0
    2.2867   -0.0619    0.0000 H   0  0  0  0  0  0  0  0  0  0  0  0
    0.3647    0.4446    0.0000 H   0  0  0  0  0  0  0  0  0  0  0  0
    2.2175   -0.2749    0.0000 H   0  0  0  0  0  0  0  0  0  0  0  0
    3.0244   -0.4466    0.0000 H   0  0  0  0  0  0  0  0  0  0  0  0
    3.7404    0.3486    0.0000 H   0  0  0  0  0  0  0  0  0  0  0  0
    4.2925    0.9617    0.0000 H   0  0  0  0  0  0  0  0  0  0  0  0
    3.9618    1.9794    0.0000 H   0  0  0  0  0  0  0  0  0  0  0  0
    3.7068    2.7640    0.0000 H   0  0  0  0  0  0  0  0  0  0  0  0
    2.6602    2.9864    0.0000 H   0  0  0  0  0  0  0  0  0  0  0  0
    1.8534    3.1580    0.0000 H   0  0  0  0  0  0  0  0  0  0  0  0
    1.1374    2.3629    0.0000 H   0  0  0  0  0  0  0  0  0  0  0  0
    2.6785    1.3048    0.0000 H   0  0  0  0  0  0  0  0  0  0  0  0
    0.2254    0.8736    0.0000 H   0  0  0  0  0  0  0  0  0  0  0  0
    0.9474    3.3399    0.0000 H   0  0  0  0  0  0  0  0  0  0  0  0
   -0.1226    3.3398    0.0000 H   0  0  0  0  0  0  0  0  0  0  0  0
   -0.9475    3.3399    0.0000 H   0  0  0  0  0  0  0  0  0  0  0  0
   -1.4825    2.4132    0.0000 H   0  0  0  0  0  0  0  0  0  0  0  0
   -0.2255    0.8736    0.0000 H   0  0  0  0  0  0  0  0  0  0  0  0
   -1.3013    2.5450    0.0000 H   0  0  0  0  0  0  0  0  0  0  0  0
   -1.8534    3.1580    0.0000 H   0  0  0  0  0  0  0  0  0  0  0  0
   -2.9000    2.9354    0.0000 H   0  0  0  0  0  0  0  0  0  0  0  0
  1  2  1  0  0  0  0
  1 25  1  0  0  0  0
  1 27  1  0  0  0  0
  1 28  1  0  0  0  0
  2  3  1  0  0  0  0
  2 29  1  0  0  0  0
  2 30  1  0  0  0  0
  3 31  1  0  0  0  0
  3 32  1  0  0  0  0
  4  3  1  0  0  0  0
  4  5  1  0  0  0  0
  4 24  1  0  0  0  0
  4 33  1  6  0  0  0
  5  6  1  0  0  0  0
  5 34  1  0  0  0  0
  6  7  1  0  0  0  0
  6 35  1  0  0  0  0
  6 36  1  0  0  0  0
  7  8  2  0  0  0  0
  7 26  1  0  0  0  0
  8  9  1  0  0  0  0
  8 37  1  0  0  0  0
  9 10  2  0  0  0  0
  9 38  1  0  0  0  0
 10 11  1  0  0  0  0
 10 39  1  0  0  0  0
 11 12  1  0  0  0  0
 11 26  2  0  0  0  0
 12 13  1  0  0  0  0
 12 40  1  0  0  0  0
 12 41  1  0  0  0  0
 13 42  1  0  0  0  0
 14 13  1  0  0  0  0
 14 15  1  0  0  0  0
 14 19  1  0  0  0  0
 14 43  1  1  0  0  0
 15 16  1  0  0  0  0
 15 44  1  0  0  0  0
 15 45  1  0  0  0  0
 16 17  1  0  0  0  0
 16 46  1  0  0  0  0
 16 47  1  0  0  0  0
 17 18  1  0  0  0  0
 17 48  1  0  0  0  0
 17 49  1  0  0  0  0
 18 50  1  0  0  0  0
 18 51  1  0  0  0  0
 19 18  1  0  0  0  0
 19 20  1  0  0  0  0
 19 52  1  6  0  0  0
 20 21  1  0  0  0  0
 20 53  1  0  0  0  0
 21 22  1  0  0  0  0
 21 54  1  0  0  0  0
 21 55  1  0  0  0  0
 22 23  1  0  0  0  0
 22 56  1  0  0  0  0
 22 57  1  0  0  0  0
 23 58  1  0  0  0  0
 24 23  1  0  0  0  0
 24 25  1  0  0  0  0
 24 59  1  1  0  0  0
 25 60  1  0  0  0  0
 25 61  1  0  0  0  0
M  END
>  <DRUGBANK_ID>
DB18481

>  <COMMON_NAME>
Avasopasem

>  <UNII>
HP219O4H4V

>  <SYNONYMS>
(4AS,13AS,17AS,21AS)-1,2,3,4,4A,5,6,12,13,13A,14,15,16,17,17A,18,19,20,21,21A-EICOSAHYDRO-11,7-NITRILO-7H-DIBENZO(B,H)(1,4,7,10)TETRAAZACYCLOHEPTADECINE

$$$$
