
 OpenBabel10282417072D

 12 12  0  0  0  0  0  0  0  0999 V2000
    1.4289   -1.2374    0.0000 Cl  0  0  0  0  0  0  0  0  0  0  0  0
   -0.7145    0.0000    0.0000 C   0  0  0  0  0  0  0  0  0  0  0  0
    0.0000    0.4125    0.0000 C   0  0  0  0  0  0  0  0  0  0  0  0
   -0.7145   -0.8250    0.0000 C   0  0  0  0  0  0  0  0  0  0  0  0
    0.0000   -1.2374    0.0000 C   0  0  0  0  0  0  0  0  0  0  0  0
    0.7145   -0.8250    0.0000 C   0  0  0  0  0  0  0  0  0  0  0  0
    0.7145    0.0000    0.0000 C   0  0  0  0  0  0  0  0  0  0  0  0
   -1.4289   -1.2374    0.0000 Cl  0  0  0  0  0  0  0  0  0  0  0  0
    0.0000    1.2374    0.0000 Cl  0  0  0  0  0  0  0  0  0  0  0  0
   -1.6082    0.5160    0.0000 H   0  0  0  0  0  0  0  0  0  0  0  0
    0.0000   -2.2694    0.0000 H   0  0  0  0  0  0  0  0  0  0  0  0
    1.6082    0.5160    0.0000 H   0  0  0  0  0  0  0  0  0  0  0  0
  1  6  1  0  0  0  0
  2 10  1  0  0  0  0
  3  2  1  0  0  0  0
  4  2  2  0  0  0  0
  5  4  1  0  0  0  0
  5 11  1  0  0  0  0
  6  5  2  0  0  0  0
  7  3  2  0  0  0  0
  7  6  1  0  0  0  0
  7 12  1  0  0  0  0
  8  4  1  0  0  0  0
  9  3  1  0  0  0  0
M  END
>  <DRUGBANK_ID>
DB03836

>  <SECONDARY_ACCESSION_NUMBERS>
EXPT03027

>  <COMMON_NAME>
1,3,5-trichlorobenzene

>  <CAS_NUMBER>
108-70-3

>  <UNII>
2HS4M0BX3C

>  <SYNONYMS>
1,3,5-trichloro-benzene; s-trichlorobenzene; sym-trichlorobenzene

$$$$
