LI3
 OpenBabel10282417072D

 43 46  0  0  0  0  0  0  0  0999 V2000
    1.0514    2.5221    0.0000 F   0  0  0  0  0  0  0  0  0  0  0  0
    1.0514    1.6971    0.0000 C   0  0  0  0  0  0  0  0  0  0  0  0
    1.7659    1.2846    0.0000 C   0  0  0  0  0  0  0  0  0  0  0  0
    1.7659    0.4596    0.0000 C   0  0  0  0  0  0  0  0  0  0  0  0
    1.0514    0.0471    0.0000 C   0  0  0  0  0  0  0  0  0  0  0  0
    0.3370    0.4596    0.0000 C   0  0  0  0  0  0  0  0  0  0  0  0
    0.3370    1.2846    0.0000 C   0  0  0  0  0  0  0  0  0  0  0  0
   -0.3775    0.0471    0.0000 C   0  0  0  0  0  0  0  0  0  0  0  0
   -0.3775   -0.7779    0.0000 O   0  0  0  0  0  0  0  0  0  0  0  0
   -1.0920    0.4596    0.0000 N   0  0  0  0  0  0  0  0  0  0  0  0
   -1.8065    0.0471    0.0000 C   0  0  0  0  0  0  0  0  0  0  0  0
   -1.8065   -0.7779    0.0000 C   0  0  0  0  0  0  0  0  0  0  0  0
   -2.5209   -1.1904    0.0000 C   0  0  0  0  0  0  0  0  0  0  0  0
   -3.2354   -0.7779    0.0000 C   0  0  0  0  0  0  0  0  0  0  0  0
   -4.0200   -1.0329    0.0000 N   0  0  0  0  0  0  0  0  0  0  0  0
   -4.5049   -0.3654    0.0000 C   0  0  0  0  0  0  0  0  0  0  0  0
   -4.0200    0.3020    0.0000 C   0  0  0  0  0  0  0  0  0  0  0  0
   -3.2354    0.0471    0.0000 C   0  0  0  0  0  0  0  0  0  0  0  0
   -2.5209    0.4596    0.0000 C   0  0  0  0  0  0  0  0  0  0  0  0
    2.4804    0.0471    0.0000 N   0  0  0  0  0  0  0  0  0  0  0  0
    3.1948    0.4596    0.0000 C   0  0  0  0  0  0  0  0  0  0  0  0
    3.9093    0.0471    0.0000 C   0  0  0  0  0  0  0  0  0  0  0  0
    3.9093   -0.7779    0.0000 O   0  0  0  0  0  0  0  0  0  0  0  0
    3.1948   -1.1904    0.0000 C   0  0  0  0  0  0  0  0  0  0  0  0
    2.4804   -0.7779    0.0000 C   0  0  0  0  0  0  0  0  0  0  0  0
    2.6596    1.8006    0.0000 H   0  0  0  0  0  0  0  0  0  0  0  0
    1.0514   -0.9849    0.0000 H   0  0  0  0  0  0  0  0  0  0  0  0
   -0.5567    1.8006    0.0000 H   0  0  0  0  0  0  0  0  0  0  0  0
   -1.0920    1.4441    0.0000 H   0  0  0  0  0  0  0  0  0  0  0  0
   -0.9128   -1.2939    0.0000 H   0  0  0  0  0  0  0  0  0  0  0  0
   -2.5209   -2.2224    0.0000 H   0  0  0  0  0  0  0  0  0  0  0  0
   -4.3242   -1.9692    0.0000 H   0  0  0  0  0  0  0  0  0  0  0  0
   -5.5369   -0.3654    0.0000 H   0  0  0  0  0  0  0  0  0  0  0  0
   -4.3389    1.2835    0.0000 H   0  0  0  0  0  0  0  0  0  0  0  0
   -2.5209    1.4916    0.0000 H   0  0  0  0  0  0  0  0  0  0  0  0
    3.1948    1.5296    0.0000 H   0  0  0  0  0  0  0  0  0  0  0  0
    4.1214    0.9946    0.0000 H   0  0  0  0  0  0  0  0  0  0  0  0
    4.8359    0.5821    0.0000 H   0  0  0  0  0  0  0  0  0  0  0  0
    4.8359   -0.4879    0.0000 H   0  0  0  0  0  0  0  0  0  0  0  0
    3.1948   -2.2604    0.0000 H   0  0  0  0  0  0  0  0  0  0  0  0
    2.2681   -1.7254    0.0000 H   0  0  0  0  0  0  0  0  0  0  0  0
    1.5537   -1.3129    0.0000 H   0  0  0  0  0  0  0  0  0  0  0  0
    2.4804   -1.8479    0.0000 H   0  0  0  0  0  0  0  0  0  0  0  0
  1  2  1  0  0  0  0
  2  3  2  0  0  0  0
  2  7  1  0  0  0  0
  3  4  1  0  0  0  0
  3 26  1  0  0  0  0
  4  5  2  0  0  0  0
  4 20  1  0  0  0  0
  5  6  1  0  0  0  0
  5 27  1  0  0  0  0
  6  7  2  0  0  0  0
  6  8  1  0  0  0  0
  7 28  1  0  0  0  0
  8  9  2  0  0  0  0
  8 10  1  0  0  0  0
 10 11  1  0  0  0  0
 10 29  1  0  0  0  0
 11 12  2  0  0  0  0
 11 19  1  0  0  0  0
 12 13  1  0  0  0  0
 12 30  1  0  0  0  0
 13 14  2  0  0  0  0
 13 31  1  0  0  0  0
 14 15  1  0  0  0  0
 14 18  1  0  0  0  0
 15 16  1  0  0  0  0
 15 32  1  0  0  0  0
 16 17  2  0  0  0  0
 16 33  1  0  0  0  0
 17 18  1  0  0  0  0
 17 34  1  0  0  0  0
 18 19  2  0  0  0  0
 19 35  1  0  0  0  0
 20 21  1  0  0  0  0
 20 25  1  0  0  0  0
 21 22  1  0  0  0  0
 21 36  1  0  0  0  0
 21 37  1  0  0  0  0
 22 23  1  0  0  0  0
 22 38  1  0  0  0  0
 22 39  1  0  0  0  0
 23 24  1  0  0  0  0
 24 25  1  0  0  0  0
 24 40  1  0  0  0  0
 24 41  1  0  0  0  0
 25 42  1  0  0  0  0
 25 43  1  0  0  0  0
M  END
>  <DRUGBANK_ID>
DB08092

>  <COMMON_NAME>
3-fluoro-N-1H-indol-5-yl-5-morpholin-4-ylbenzamide

$$$$
