
 OpenBabel10282417072D

 51 53  0  0  0  0  0  0  0  0999 V2000
   -1.0781    1.3480    0.0000 C   0  0  0  0  0  0  0  0  0  0  0  0
   -0.6656    2.0625    0.0000 C   0  0  0  0  0  0  0  0  0  0  0  0
    0.1594    2.0625    0.0000 C   0  0  0  0  0  0  0  0  0  0  0  0
    0.6443    1.3951    0.0000 C   0  0  0  0  0  0  0  0  0  0  0  0
    1.4289    1.6500    0.0000 C   0  0  0  0  0  0  0  0  0  0  0  0
    1.4289    2.4750    0.0000 C   0  0  0  0  0  0  0  0  0  0  0  0
    0.6443    2.7299    0.0000 N   0  0  0  0  0  0  0  0  0  0  0  0
    0.3894    3.5146    0.0000 C   0  0  0  0  0  0  0  0  0  0  0  0
   -0.4176    3.6861    0.0000 C   0  0  0  0  0  0  0  0  0  0  0  0
   -0.9696    3.0730    0.0000 C   0  0  0  0  0  0  0  0  0  0  0  0
   -1.7766    3.2445    0.0000 C   0  0  0  0  0  0  0  0  0  0  0  0
   -2.0315    4.0291    0.0000 C   0  0  0  0  0  0  0  0  0  0  0  0
   -1.4795    4.6422    0.0000 C   0  0  0  0  0  0  0  0  0  0  0  0
   -0.6725    4.4707    0.0000 C   0  0  0  0  0  0  0  0  0  0  0  0
    2.1434    2.8875    0.0000 C   0  0  0  0  0  0  0  0  0  0  0  0
    2.8579    2.4750    0.0000 C   0  0  0  0  0  0  0  0  0  0  0  0
    2.8579    1.6500    0.0000 C   0  0  0  0  0  0  0  0  0  0  0  0
    2.1434    1.2375    0.0000 C   0  0  0  0  0  0  0  0  0  0  0  0
    2.1434    0.4125    0.0000 O   0  0  0  0  0  0  0  0  0  0  0  0
    2.8579    0.0000    0.0000 C   0  0  0  0  0  0  0  0  0  0  0  0
    3.5724    0.4125    0.0000 C   0  0  0  0  0  0  0  0  0  0  0  0
    3.5724    1.2375    0.0000 O   0  0  0  0  0  0  0  0  0  0  0  0
    4.2868    0.0000    0.0000 O   0  0  0  0  0  0  0  0  0  0  0  0
    5.0013    0.4125    0.0000 C   0  0  0  0  0  0  0  0  0  0  0  0
    0.3894    0.6104    0.0000 C   0  0  0  0  0  0  0  0  0  0  0  0
   -0.4176    0.4389    0.0000 O   0  0  0  0  0  0  0  0  0  0  0  0
    0.9414   -0.0027    0.0000 C   0  0  0  0  0  0  0  0  0  0  0  0
    0.6865   -0.7873    0.0000 O   0  0  0  0  0  0  0  0  0  0  0  0
    1.7484    0.1689    0.0000 N   0  0  0  0  0  0  0  0  0  0  0  0
   -2.1481    1.3480    0.0000 H   0  0  0  0  0  0  0  0  0  0  0  0
   -0.5431    0.4214    0.0000 H   0  0  0  0  0  0  0  0  0  0  0  0
   -1.6131    0.4213    0.0000 H   0  0  0  0  0  0  0  0  0  0  0  0
   -1.2006    2.9891    0.0000 H   0  0  0  0  0  0  0  0  0  0  0  0
   -0.1306    2.9891    0.0000 H   0  0  0  0  0  0  0  0  0  0  0  0
    1.1054    4.3098    0.0000 H   0  0  0  0  0  0  0  0  0  0  0  0
    0.0587    4.5322    0.0000 H   0  0  0  0  0  0  0  0  0  0  0  0
   -0.6507    2.0915    0.0000 H   0  0  0  0  0  0  0  0  0  0  0  0
   -2.4671    2.4776    0.0000 H   0  0  0  0  0  0  0  0  0  0  0  0
   -3.0409    4.2437    0.0000 H   0  0  0  0  0  0  0  0  0  0  0  0
   -1.7984    5.6237    0.0000 H   0  0  0  0  0  0  0  0  0  0  0  0
    0.0180    5.2376    0.0000 H   0  0  0  0  0  0  0  0  0  0  0  0
    2.1434    3.9195    0.0000 H   0  0  0  0  0  0  0  0  0  0  0  0
    3.7516    2.9910    0.0000 H   0  0  0  0  0  0  0  0  0  0  0  0
    3.7516    1.1340    0.0000 H   0  0  0  0  0  0  0  0  0  0  0  0
    2.8579   -1.0700    0.0000 H   0  0  0  0  0  0  0  0  0  0  0  0
    3.7845   -0.5350    0.0000 H   0  0  0  0  0  0  0  0  0  0  0  0
    5.9279   -0.1225    0.0000 H   0  0  0  0  0  0  0  0  0  0  0  0
    5.0013    1.4825    0.0000 H   0  0  0  0  0  0  0  0  0  0  0  0
    5.9280    0.9475    0.0000 H   0  0  0  0  0  0  0  0  0  0  0  0
    2.4072   -0.5627    0.0000 H   0  0  0  0  0  0  0  0  0  0  0  0
    2.0526    1.1052    0.0000 H   0  0  0  0  0  0  0  0  0  0  0  0
  1  2  1  0  0  0  0
  1 30  1  0  0  0  0
  1 31  1  0  0  0  0
  1 32  1  0  0  0  0
  2  3  1  0  0  0  0
  2 33  1  0  0  0  0
  2 34  1  0  0  0  0
  3  4  2  0  0  0  0
  3  7  1  0  0  0  0
  4  5  1  0  0  0  0
  4 25  1  0  0  0  0
  5  6  1  0  0  0  0
  5 18  2  0  0  0  0
  6  7  1  0  0  0  0
  6 15  2  0  0  0  0
  7  8  1  0  0  0  0
  8  9  1  0  0  0  0
  8 35  1  0  0  0  0
  8 36  1  0  0  0  0
  9 10  2  0  0  0  0
  9 14  1  0  0  0  0
 10 11  1  0  0  0  0
 10 37  1  0  0  0  0
 11 12  2  0  0  0  0
 11 38  1  0  0  0  0
 12 13  1  0  0  0  0
 12 39  1  0  0  0  0
 13 14  2  0  0  0  0
 13 40  1  0  0  0  0
 14 41  1  0  0  0  0
 15 16  1  0  0  0  0
 15 42  1  0  0  0  0
 16 17  2  0  0  0  0
 16 43  1  0  0  0  0
 17 18  1  0  0  0  0
 17 44  1  0  0  0  0
 18 19  1  0  0  0  0
 19 20  1  0  0  0  0
 20 21  1  0  0  0  0
 20 45  1  0  0  0  0
 20 46  1  0  0  0  0
 21 22  2  0  0  0  0
 21 23  1  0  0  0  0
 23 24  1  0  0  0  0
 24 47  1  0  0  0  0
 24 48  1  0  0  0  0
 24 49  1  0  0  0  0
 25 26  2  0  0  0  0
 25 27  1  0  0  0  0
 27 28  2  0  0  0  0
 27 29  1  0  0  0  0
 29 50  1  0  0  0  0
 29 51  1  0  0  0  0
M  END
>  <DRUGBANK_ID>
DB05737

>  <SECONDARY_ACCESSION_NUMBERS>
DB12164

>  <COMMON_NAME>
Varespladib methyl

>  <CAS_NUMBER>
172733-08-3

>  <UNII>
0NB98NBX3D

>  <SYNONYMS>
Varespladib methyl; Varespladib methyl ester

$$$$
