
 OpenBabel10282417072D

 29 31  0  0  0  0  0  0  0  0999 V2000
    2.6612   -2.6869    0.0000 C   0  0  0  0  0  0  0  0  0  0  0  0
    1.8362   -2.6869    0.0000 C   0  0  0  0  0  0  0  0  0  0  0  0
    2.2487   -1.9724    0.0000 C   0  0  0  0  0  0  0  0  0  0  0  0
    2.2487   -1.1474    0.0000 C   0  0  0  0  0  0  0  0  0  0  0  0
    2.9631   -0.7349    0.0000 C   0  0  0  0  0  0  0  0  0  0  0  0
    3.3756   -0.0204    0.0000 C   0  0  0  0  0  0  0  0  0  0  0  0
    3.7881   -0.7349    0.0000 C   0  0  0  0  0  0  0  0  0  0  0  0
    1.5342   -0.7349    0.0000 N   0  0  0  0  0  0  0  0  0  0  0  0
    1.5342    0.0901    0.0000 C   0  0  0  0  0  0  0  0  0  0  0  0
    0.8668    0.5750    0.0000 N   0  0  0  0  0  0  0  0  0  0  0  0
    1.1217    1.3596    0.0000 C   0  0  0  0  0  0  0  0  0  0  0  0
    1.9467    1.3596    0.0000 C   0  0  0  0  0  0  0  0  0  0  0  0
    2.2016    0.5750    0.0000 O   0  0  0  0  0  0  0  0  0  0  0  0
    3.5878   -3.2219    0.0000 H   0  0  0  0  0  0  0  0  0  0  0  0
    3.4178   -1.9303    0.0000 H   0  0  0  0  0  0  0  0  0  0  0  0
    0.9096   -3.2219    0.0000 H   0  0  0  0  0  0  0  0  0  0  0  0
    1.0796   -1.9303    0.0000 H   0  0  0  0  0  0  0  0  0  0  0  0
    3.2822   -1.6955    0.0000 H   0  0  0  0  0  0  0  0  0  0  0  0
    2.2487   -0.0774    0.0000 H   0  0  0  0  0  0  0  0  0  0  0  0
    3.8897   -0.1999    0.0000 H   0  0  0  0  0  0  0  0  0  0  0  0
    3.3756    1.0496    0.0000 H   0  0  0  0  0  0  0  0  0  0  0  0
    4.4091    0.2565    0.0000 H   0  0  0  0  0  0  0  0  0  0  0  0
    4.7147   -1.2699    0.0000 H   0  0  0  0  0  0  0  0  0  0  0  0
    3.5112   -1.7684    0.0000 H   0  0  0  0  0  0  0  0  0  0  0  0
    0.6816   -1.2272    0.0000 H   0  0  0  0  0  0  0  0  0  0  0  0
    0.4928    2.2252    0.0000 H   0  0  0  0  0  0  0  0  0  0  0  0
    1.6075    2.3130    0.0000 H   0  0  0  0  0  0  0  0  0  0  0  0
    2.5756    2.2252    0.0000 H   0  0  0  0  0  0  0  0  0  0  0  0
    3.0035    1.1922    0.0000 H   0  0  0  0  0  0  0  0  0  0  0  0
  1  2  1  0  0  0  0
  1  3  1  0  0  0  0
  1 14  1  0  0  0  0
  1 15  1  0  0  0  0
  2  3  1  0  0  0  0
  2 16  1  0  0  0  0
  2 17  1  0  0  0  0
  3  4  1  0  0  0  0
  3 18  1  0  0  0  0
  4  5  1  0  0  0  0
  4  8  1  0  0  0  0
  4 19  1  0  0  0  0
  5  6  1  0  0  0  0
  5  7  1  0  0  0  0
  5 20  1  0  0  0  0
  6  7  1  0  0  0  0
  6 21  1  0  0  0  0
  6 22  1  0  0  0  0
  7 23  1  0  0  0  0
  7 24  1  0  0  0  0
  8  9  1  0  0  0  0
  8 25  1  0  0  0  0
  9 10  2  0  0  0  0
  9 13  1  0  0  0  0
 10 11  1  0  0  0  0
 11 12  1  0  0  0  0
 11 26  1  0  0  0  0
 11 27  1  0  0  0  0
 12 13  1  0  0  0  0
 12 28  1  0  0  0  0
 12 29  1  0  0  0  0
M  END
>  <DRUGBANK_ID>
DB11738

>  <COMMON_NAME>
Rilmenidine

>  <CAS_NUMBER>
54187-04-1

>  <UNII>
P67IM25ID8

>  <SYNONYMS>
HYPERIUM; Rilmenidine

$$$$
