XIH
 OpenBabel10282417072D

 52 55  0  0  0  0  0  0  0  0999 V2000
    0.5644    0.4127    0.0000 C   0  0  0  0  0  0  0  0  0  0  0  0
    0.5644    1.2377    0.0000 C   0  0  0  0  0  0  0  0  0  0  0  0
   -0.7051    0.8252    0.0000 C   0  0  0  0  0  0  0  0  0  0  0  0
   -1.9426    1.5397    0.0000 C   0  0  0  0  0  0  0  0  0  0  0  0
   -2.7676    0.1108    0.0000 C   0  0  1  0  0  0  0  0  0  0  0  0
   -1.9426    0.1108    0.0000 C   0  0  0  0  0  0  0  0  0  0  0  0
   -0.4751   -0.6268    0.0000 C   0  0  0  0  0  0  0  0  0  0  0  0
    1.4359   -1.6815    0.0000 C   0  0  0  0  0  0  0  0  0  0  0  0
    1.1810   -2.4661    0.0000 C   0  0  0  0  0  0  0  0  0  0  0  0
    0.3740   -2.6376    0.0000 C   0  0  0  0  0  0  0  0  0  0  0  0
   -0.9850   -2.1961    0.0000 C   0  0  0  0  0  0  0  0  0  0  0  0
    1.9934    1.2377    0.0000 C   0  0  0  0  0  0  0  0  0  0  0  0
    2.7078    0.0002    0.0000 C   0  0  0  0  0  0  0  0  0  0  0  0
    1.9934    0.4127    0.0000 N   0  0  0  0  0  0  0  0  0  0  0  0
    1.2789    0.0002    0.0000 C   0  0  0  0  0  0  0  0  0  0  0  0
    1.2789   -0.8248    0.0000 O   0  0  0  0  0  0  0  0  0  0  0  0
   -0.2202    1.4927    0.0000 N   0  0  0  0  0  0  0  0  0  0  0  0
   -1.5301    0.8252    0.0000 N   0  0  0  0  0  0  0  0  0  0  0  0
   -2.7676    1.5397    0.0000 C   0  0  0  0  0  0  0  0  0  0  0  0
   -3.1801    0.8252    0.0000 C   0  0  0  0  0  0  0  0  0  0  0  0
   -3.1801   -0.6037    0.0000 N   0  0  0  0  0  0  0  0  0  0  0  0
   -0.2202    0.1578    0.0000 N   0  0  0  0  0  0  0  0  0  0  0  0
    0.0769   -1.2399    0.0000 C   0  0  0  0  0  0  0  0  0  0  0  0
    0.8839   -1.0684    0.0000 C   0  0  0  0  0  0  0  0  0  0  0  0
   -0.1780   -2.0245    0.0000 C   0  0  0  0  0  0  0  0  0  0  0  0
   -1.7920   -2.3676    0.0000 N   0  0  0  0  0  0  0  0  0  0  0  0
    1.2789    1.6502    0.0000 N   0  0  0  0  0  0  0  0  0  0  0  0
    1.2789    2.4752    0.0000 C   0  0  0  0  0  0  0  0  0  0  0  0
    2.7078    1.6502    0.0000 O   0  0  0  0  0  0  0  0  0  0  0  0
   -2.4757   -0.3949    0.0000 H   0  0  0  0  0  0  0  0  0  0  0  0
   -1.4076    2.4663    0.0000 H   0  0  0  0  0  0  0  0  0  0  0  0
   -2.4776    2.4663    0.0000 H   0  0  0  0  0  0  0  0  0  0  0  0
   -1.4076   -0.8159    0.0000 H   0  0  0  0  0  0  0  0  0  0  0  0
   -0.8726    0.1108    0.0000 H   0  0  0  0  0  0  0  0  0  0  0  0
   -1.5217   -0.8493    0.0000 H   0  0  0  0  0  0  0  0  0  0  0  0
   -0.8058   -1.6444    0.0000 H   0  0  0  0  0  0  0  0  0  0  0  0
    2.4453   -1.4669    0.0000 H   0  0  0  0  0  0  0  0  0  0  0  0
    1.8715   -3.2330    0.0000 H   0  0  0  0  0  0  0  0  0  0  0  0
    0.0551   -3.6191    0.0000 H   0  0  0  0  0  0  0  0  0  0  0  0
    2.7078   -1.0698    0.0000 H   0  0  0  0  0  0  0  0  0  0  0  0
    3.6345    0.5352    0.0000 H   0  0  0  0  0  0  0  0  0  0  0  0
    3.6344   -0.5348    0.0000 H   0  0  0  0  0  0  0  0  0  0  0  0
   -3.3026    2.4663    0.0000 H   0  0  0  0  0  0  0  0  0  0  0  0
   -3.8376    1.5397    0.0000 H   0  0  0  0  0  0  0  0  0  0  0  0
   -4.2501    0.8252    0.0000 H   0  0  0  0  0  0  0  0  0  0  0  0
   -3.7151    1.7518    0.0000 H   0  0  0  0  0  0  0  0  0  0  0  0
   -4.2001   -0.6037    0.0000 H   0  0  0  0  0  0  0  0  0  0  0  0
   -2.6701   -1.4870    0.0000 H   0  0  0  0  0  0  0  0  0  0  0  0
    1.2028   -0.0869    0.0000 H   0  0  0  0  0  0  0  0  0  0  0  0
    2.2055    3.0102    0.0000 H   0  0  0  0  0  0  0  0  0  0  0  0
    0.3523    3.0102    0.0000 H   0  0  0  0  0  0  0  0  0  0  0  0
    1.2789    3.5452    0.0000 H   0  0  0  0  0  0  0  0  0  0  0  0
  1  2  2  0  0  0  0
  1 15  1  0  0  0  0
  1 22  1  0  0  0  0
  2 17  1  0  0  0  0
  2 27  1  0  0  0  0
  3 17  2  0  0  0  0
  3 18  1  0  0  0  0
  3 22  1  0  0  0  0
  4 18  1  0  0  0  0
  4 19  1  0  0  0  0
  4 31  1  0  0  0  0
  4 32  1  0  0  0  0
  5  6  1  0  0  0  0
  5 20  1  0  0  0  0
  5 21  1  0  0  0  0
  5 30  1  1  0  0  0
  6 18  1  0  0  0  0
  6 33  1  0  0  0  0
  6 34  1  0  0  0  0
  7 22  1  0  0  0  0
  7 23  1  0  0  0  0
  7 35  1  0  0  0  0
  7 36  1  0  0  0  0
  8  9  2  0  0  0  0
  8 24  1  0  0  0  0
  8 37  1  0  0  0  0
  9 10  1  0  0  0  0
  9 38  1  0  0  0  0
 10 25  2  0  0  0  0
 10 39  1  0  0  0  0
 11 25  1  0  0  0  0
 11 26  3  0  0  0  0
 12 14  1  0  0  0  0
 12 27  1  0  0  0  0
 12 29  2  0  0  0  0
 13 14  1  0  0  0  0
 13 40  1  0  0  0  0
 13 41  1  0  0  0  0
 13 42  1  0  0  0  0
 14 15  1  0  0  0  0
 15 16  2  0  0  0  0
 19 20  1  0  0  0  0
 19 43  1  0  0  0  0
 19 44  1  0  0  0  0
 20 45  1  0  0  0  0
 20 46  1  0  0  0  0
 21 47  1  0  0  0  0
 21 48  1  0  0  0  0
 23 24  2  0  0  0  0
 23 25  1  0  0  0  0
 24 49  1  0  0  0  0
 27 28  1  0  0  0  0
 28 50  1  0  0  0  0
 28 51  1  0  0  0  0
 28 52  1  0  0  0  0
M  END
>  <DRUGBANK_ID>
DB08743

>  <COMMON_NAME>
2-({8-[(3R)-3-AMINOPIPERIDIN-1-YL]-1,3-DIMETHYL-2,6-DIOXO-1,2,3,6-TETRAHYDRO-7H-PURIN-7-YL}METHYL)BENZONITRILE

$$$$
