
 OpenBabel10282417072D

 27 26  0  0  0  0  0  0  0  0999 V2000
    0.5230    0.5230    0.0000 C   0  0  0  0  0  0  0  0  0  0  0  0
    1.2375    0.1105    0.0000 C   0  0  0  0  0  0  0  0  0  0  0  0
    1.2375   -0.7145    0.0000 C   0  0  3  0  0  0  0  0  0  0  0  0
    0.5230   -1.1270    0.0000 C   0  0  0  0  0  0  0  0  0  0  0  0
    1.9520   -1.1270    0.0000 C   0  0  3  0  0  0  0  0  0  0  0  0
    1.9520   -1.9520    0.0000 C   0  0  0  0  0  0  0  0  0  0  0  0
    2.6664   -2.3645    0.0000 C   0  0  0  0  0  0  0  0  0  0  0  0
    2.6664   -0.7145    0.0000 C   0  0  0  0  0  0  0  0  0  0  0  0
    2.6664    0.1105    0.0000 O   0  0  0  0  0  0  0  0  0  0  0  0
    3.3809   -1.1270    0.0000 N   0  0  0  0  0  0  0  0  0  0  0  0
    0.5230    1.5930    0.0000 H   0  0  0  0  0  0  0  0  0  0  0  0
   -0.4036   -0.0120    0.0000 H   0  0  0  0  0  0  0  0  0  0  0  0
   -0.4037    1.0580    0.0000 H   0  0  0  0  0  0  0  0  0  0  0  0
    2.1641    0.6455    0.0000 H   0  0  0  0  0  0  0  0  0  0  0  0
    2.1641   -0.4245    0.0000 H   0  0  0  0  0  0  0  0  0  0  0  0
    0.3109   -0.1795    0.0000 H   0  0  0  0  0  0  0  0  0  0  0  0
   -0.4036   -0.5920    0.0000 H   0  0  0  0  0  0  0  0  0  0  0  0
    0.5230   -2.1970    0.0000 H   0  0  0  0  0  0  0  0  0  0  0  0
   -0.4037   -1.6620    0.0000 H   0  0  0  0  0  0  0  0  0  0  0  0
    1.0254   -1.6620    0.0000 H   0  0  0  0  0  0  0  0  0  0  0  0
    1.0253   -2.4870    0.0000 H   0  0  0  0  0  0  0  0  0  0  0  0
    1.9520   -3.0220    0.0000 H   0  0  0  0  0  0  0  0  0  0  0  0
    2.6664   -3.4345    0.0000 H   0  0  0  0  0  0  0  0  0  0  0  0
    3.5931   -1.8295    0.0000 H   0  0  0  0  0  0  0  0  0  0  0  0
    3.5930   -2.8995    0.0000 H   0  0  0  0  0  0  0  0  0  0  0  0
    3.3809   -2.1115    0.0000 H   0  0  0  0  0  0  0  0  0  0  0  0
    4.2335   -0.6347    0.0000 H   0  0  0  0  0  0  0  0  0  0  0  0
  1  2  1  0  0  0  0
  1 11  1  0  0  0  0
  1 12  1  0  0  0  0
  1 13  1  0  0  0  0
  2  3  1  0  0  0  0
  2 14  1  0  0  0  0
  2 15  1  0  0  0  0
  3  4  1  0  0  0  0
  3  5  1  0  0  0  0
  3 16  1  0  0  0  0
  4 17  1  0  0  0  0
  4 18  1  0  0  0  0
  4 19  1  0  0  0  0
  5  6  1  0  0  0  0
  5  8  1  0  0  0  0
  5 20  1  0  0  0  0
  6  7  1  0  0  0  0
  6 21  1  0  0  0  0
  6 22  1  0  0  0  0
  7 23  1  0  0  0  0
  7 24  1  0  0  0  0
  7 25  1  0  0  0  0
  8  9  2  0  0  0  0
  8 10  1  0  0  0  0
 10 26  1  0  0  0  0
 10 27  1  0  0  0  0
M  END
>  <DRUGBANK_ID>
DB13099

>  <COMMON_NAME>
Valnoctamide

>  <CAS_NUMBER>
4171-13-5

>  <UNII>
3O25NRX9YG

>  <SYNONYMS>
Valnoctamide

$$$$
