
 OpenBabel10282417072D

 45 45  0  0  0  0  0  0  0  0999 V2000
   -1.6501    0.0077    0.0000 O   0  0  0  0  0  0  0  0  0  0  0  0
   -1.2357    0.7211    0.0000 C   0  0  0  0  0  0  0  0  0  0  0  0
   -0.4105    0.7190    0.0000 C   0  0  0  0  0  0  0  0  0  0  0  0
    0.0038    1.4324    0.0000 C   0  0  0  0  0  0  0  0  0  0  0  0
    0.8288    1.4302    0.0000 C   0  0  0  0  0  0  0  0  0  0  0  0
    1.2433    2.1435    0.0000 C   0  0  0  0  0  0  0  0  0  0  0  0
    2.0682    2.1414    0.0000 C   0  0  0  0  0  0  0  0  0  0  0  0
    2.4828    2.8547    0.0000 C   0  0  0  0  0  0  0  0  0  0  0  0
   -1.2395   -0.7078    0.0000 C   0  0  2  0  0  0  0  0  0  0  0  0
   -1.6539   -1.4213    0.0000 O   0  0  0  0  0  0  0  0  0  0  0  0
   -1.2433   -2.1369    0.0000 C   0  0  2  0  0  0  0  0  0  0  0  0
   -1.6578   -2.8503    0.0000 C   0  0  0  0  0  0  0  0  0  0  0  0
   -2.4828   -2.8481    0.0000 O   0  0  0  0  0  0  0  0  0  0  0  0
   -0.4182   -2.1390    0.0000 C   0  0  2  0  0  0  0  0  0  0  0  0
   -0.0038   -1.4257    0.0000 C   0  0  1  0  0  0  0  0  0  0  0  0
   -0.4144   -0.7101    0.0000 C   0  0  1  0  0  0  0  0  0  0  0  0
    0.0000    0.0033    0.0000 O   0  0  0  0  0  0  0  0  0  0  0  0
    0.8211   -1.4278    0.0000 O   0  0  0  0  0  0  0  0  0  0  0  0
   -0.0076   -2.8547    0.0000 O   0  0  0  0  0  0  0  0  0  0  0  0
   -1.7683    1.6491    0.0000 H   0  0  0  0  0  0  0  0  0  0  0  0
   -0.6983    1.6464    0.0000 H   0  0  0  0  0  0  0  0  0  0  0  0
    0.1221   -0.2090    0.0000 H   0  0  0  0  0  0  0  0  0  0  0  0
    0.6595    0.7163    0.0000 H   0  0  0  0  0  0  0  0  0  0  0  0
   -0.5288    2.3604    0.0000 H   0  0  0  0  0  0  0  0  0  0  0  0
    0.5412    2.3576    0.0000 H   0  0  0  0  0  0  0  0  0  0  0  0
    1.3613    0.5021    0.0000 H   0  0  0  0  0  0  0  0  0  0  0  0
    1.8988    1.4272    0.0000 H   0  0  0  0  0  0  0  0  0  0  0  0
    0.7108    3.0716    0.0000 H   0  0  0  0  0  0  0  0  0  0  0  0
    1.7807    3.0687    0.0000 H   0  0  0  0  0  0  0  0  0  0  0  0
    2.6007    1.2133    0.0000 H   0  0  0  0  0  0  0  0  0  0  0  0
    3.1382    2.1384    0.0000 H   0  0  0  0  0  0  0  0  0  0  0  0
    3.5528    2.8516    0.0000 H   0  0  0  0  0  0  0  0  0  0  0  0
    1.9505    3.7829    0.0000 H   0  0  0  0  0  0  0  0  0  0  0  0
    3.0205    3.7798    0.0000 H   0  0  0  0  0  0  0  0  0  0  0  0
   -2.3095   -0.7050    0.0000 H   0  0  0  0  0  0  0  0  0  0  0  0
   -2.3133   -2.1340    0.0000 H   0  0  0  0  0  0  0  0  0  0  0  0
   -1.1253   -3.7784    0.0000 H   0  0  0  0  0  0  0  0  0  0  0  0
   -2.1953   -3.7755    0.0000 H   0  0  0  0  0  0  0  0  0  0  0  0
   -2.9656   -2.0068    0.0000 H   0  0  0  0  0  0  0  0  0  0  0  0
   -0.9556   -3.0642    0.0000 H   0  0  0  0  0  0  0  0  0  0  0  0
    0.5288   -2.3537    0.0000 H   0  0  0  0  0  0  0  0  0  0  0  0
    0.6556   -0.7129    0.0000 H   0  0  0  0  0  0  0  0  0  0  0  0
    0.9700    0.0007    0.0000 H   0  0  0  0  0  0  0  0  0  0  0  0
    1.3040   -2.2691    0.0000 H   0  0  0  0  0  0  0  0  0  0  0  0
   -0.4949   -3.6934    0.0000 H   0  0  0  0  0  0  0  0  0  0  0  0
  1  2  1  0  0  0  0
  2  3  1  0  0  0  0
  2 20  1  0  0  0  0
  2 21  1  0  0  0  0
  3  4  1  0  0  0  0
  3 22  1  0  0  0  0
  3 23  1  0  0  0  0
  4  5  1  0  0  0  0
  4 24  1  0  0  0  0
  4 25  1  0  0  0  0
  5  6  1  0  0  0  0
  5 26  1  0  0  0  0
  5 27  1  0  0  0  0
  6  7  1  0  0  0  0
  6 28  1  0  0  0  0
  6 29  1  0  0  0  0
  7  8  1  0  0  0  0
  7 30  1  0  0  0  0
  7 31  1  0  0  0  0
  8 32  1  0  0  0  0
  8 33  1  0  0  0  0
  8 34  1  0  0  0  0
  9  1  1  0  0  0  0
  9 10  1  0  0  0  0
  9 16  1  0  0  0  0
  9 35  1  6  0  0  0
 10 11  1  0  0  0  0
 11 12  1  0  0  0  0
 11 14  1  0  0  0  0
 11 36  1  6  0  0  0
 12 13  1  0  0  0  0
 12 37  1  0  0  0  0
 12 38  1  0  0  0  0
 13 39  1  0  0  0  0
 14 19  1  0  0  0  0
 14 40  1  1  0  0  0
 15 14  1  0  0  0  0
 15 18  1  0  0  0  0
 15 41  1  6  0  0  0
 16 15  1  0  0  0  0
 16 17  1  0  0  0  0
 16 42  1  1  0  0  0
 17 43  1  0  0  0  0
 18 44  1  0  0  0  0
 19 45  1  0  0  0  0
M  END
>  <DRUGBANK_ID>
DB03338

>  <SECONDARY_ACCESSION_NUMBERS>
EXPT00614

>  <COMMON_NAME>
Heptyl glucoside

>  <CAS_NUMBER>
78617-12-6

>  <UNII>
BU2OC48XBR

>  <SYNONYMS>
1-Heptyl beta-D-glucoside; Heptyl beta-D-glucopyranoside; Heptyl glucoside; n-Heptyl beta-D-glucopyranoside; n-Heptyl beta-D-glucoside

$$$$
