DTM
 OpenBabel10282417072D

 49 51  0  0  0  0  0  0  0  0999 V2000
   -4.2302   -1.2852    0.0000 C   0  0  0  0  0  0  0  0  0  0  0  0
   -3.5158   -0.0477    0.0000 C   0  0  0  0  0  0  0  0  0  0  0  0
   -2.8013   -0.4602    0.0000 C   0  0  0  0  0  0  0  0  0  0  0  0
   -2.0868   -0.0477    0.0000 C   0  0  0  0  0  0  0  0  0  0  0  0
   -1.3724   -0.4602    0.0000 C   0  0  0  0  0  0  0  0  0  0  0  0
   -1.3724   -1.2852    0.0000 C   0  0  0  0  0  0  0  0  0  0  0  0
   -2.8013   -1.2852    0.0000 C   0  0  0  0  0  0  0  0  0  0  0  0
    0.0566   -0.4602    0.0000 C   0  0  0  0  0  0  0  0  0  0  0  0
    0.7711   -0.0477    0.0000 C   0  0  0  0  0  0  0  0  0  0  0  0
    0.7711    0.7773    0.0000 C   0  0  0  0  0  0  0  0  0  0  0  0
    1.4855    1.1898    0.0000 C   0  0  0  0  0  0  0  0  0  0  0  0
    2.2000    0.7773    0.0000 C   0  0  0  0  0  0  0  0  0  0  0  0
    2.2000   -0.0477    0.0000 C   0  0  0  0  0  0  0  0  0  0  0  0
    1.4855   -0.4602    0.0000 C   0  0  0  0  0  0  0  0  0  0  0  0
    2.2000    2.4273    0.0000 C   0  0  0  0  0  0  0  0  0  0  0  0
    3.6289    0.7773    0.0000 C   0  0  0  0  0  0  0  0  0  0  0  0
    2.9145   -1.2852    0.0000 C   0  0  0  0  0  0  0  0  0  0  0  0
   -0.6579    0.7773    0.0000 C   0  0  0  0  0  0  0  0  0  0  0  0
   -3.5158   -1.6977    0.0000 N   0  0  0  0  0  0  0  0  0  0  0  0
   -4.9447   -1.6977    0.0000 N   0  0  0  0  0  0  0  0  0  0  0  0
   -4.2302   -0.4602    0.0000 N   0  0  0  0  0  0  0  0  0  0  0  0
   -3.5158    0.7773    0.0000 N   0  0  0  0  0  0  0  0  0  0  0  0
   -2.0868   -1.6977    0.0000 N   0  0  0  0  0  0  0  0  0  0  0  0
   -0.6579   -0.0477    0.0000 N   0  0  0  0  0  0  0  0  0  0  0  0
    1.4855    2.0148    0.0000 O   0  0  0  0  0  0  0  0  0  0  0  0
    2.9145    1.1898    0.0000 O   0  0  0  0  0  0  0  0  0  0  0  0
    2.9145   -0.4602    0.0000 O   0  0  0  0  0  0  0  0  0  0  0  0
   -2.0868    0.9843    0.0000 H   0  0  0  0  0  0  0  0  0  0  0  0
   -0.4787   -1.8012    0.0000 H   0  0  0  0  0  0  0  0  0  0  0  0
    0.0566   -1.5302    0.0000 H   0  0  0  0  0  0  0  0  0  0  0  0
   -0.8700   -0.9952    0.0000 H   0  0  0  0  0  0  0  0  0  0  0  0
   -0.1226    1.2933    0.0000 H   0  0  0  0  0  0  0  0  0  0  0  0
    1.4855   -1.4922    0.0000 H   0  0  0  0  0  0  0  0  0  0  0  0
    3.1266    1.8923    0.0000 H   0  0  0  0  0  0  0  0  0  0  0  0
    2.2000    3.4973    0.0000 H   0  0  0  0  0  0  0  0  0  0  0  0
    3.1267    2.9623    0.0000 H   0  0  0  0  0  0  0  0  0  0  0  0
    3.6289   -0.2927    0.0000 H   0  0  0  0  0  0  0  0  0  0  0  0
    4.5556    1.3123    0.0000 H   0  0  0  0  0  0  0  0  0  0  0  0
    4.5555    0.2423    0.0000 H   0  0  0  0  0  0  0  0  0  0  0  0
    1.9879   -1.8202    0.0000 H   0  0  0  0  0  0  0  0  0  0  0  0
    3.8411   -1.8202    0.0000 H   0  0  0  0  0  0  0  0  0  0  0  0
    2.9145   -2.3552    0.0000 H   0  0  0  0  0  0  0  0  0  0  0  0
    0.2687    1.3123    0.0000 H   0  0  0  0  0  0  0  0  0  0  0  0
   -1.5845    1.3123    0.0000 H   0  0  0  0  0  0  0  0  0  0  0  0
   -0.6579    1.8473    0.0000 H   0  0  0  0  0  0  0  0  0  0  0  0
   -5.7973   -1.2054    0.0000 H   0  0  0  0  0  0  0  0  0  0  0  0
   -4.9447   -2.6822    0.0000 H   0  0  0  0  0  0  0  0  0  0  0  0
   -2.6632    1.2696    0.0000 H   0  0  0  0  0  0  0  0  0  0  0  0
   -4.3684    1.2695    0.0000 H   0  0  0  0  0  0  0  0  0  0  0  0
  1 19  2  0  0  0  0
  1 20  1  0  0  0  0
  1 21  1  0  0  0  0
  2  3  1  0  0  0  0
  2 21  2  0  0  0  0
  2 22  1  0  0  0  0
  3  4  2  0  0  0  0
  3  7  1  0  0  0  0
  4  5  1  0  0  0  0
  4 28  1  0  0  0  0
  5  6  2  0  0  0  0
  5 24  1  0  0  0  0
  6 23  1  0  0  0  0
  6 29  1  0  0  0  0
  7 19  1  0  0  0  0
  7 23  2  0  0  0  0
  8  9  1  0  0  0  0
  8 24  1  0  0  0  0
  8 30  1  0  0  0  0
  8 31  1  0  0  0  0
  9 10  2  0  0  0  0
  9 14  1  0  0  0  0
 10 11  1  0  0  0  0
 10 32  1  0  0  0  0
 11 12  2  0  0  0  0
 11 25  1  0  0  0  0
 12 13  1  0  0  0  0
 12 26  1  0  0  0  0
 13 14  2  0  0  0  0
 13 27  1  0  0  0  0
 14 33  1  0  0  0  0
 15 25  1  0  0  0  0
 15 34  1  0  0  0  0
 15 35  1  0  0  0  0
 15 36  1  0  0  0  0
 16 26  1  0  0  0  0
 16 37  1  0  0  0  0
 16 38  1  0  0  0  0
 16 39  1  0  0  0  0
 17 27  1  0  0  0  0
 17 40  1  0  0  0  0
 17 41  1  0  0  0  0
 17 42  1  0  0  0  0
 18 24  1  0  0  0  0
 18 43  1  0  0  0  0
 18 44  1  0  0  0  0
 18 45  1  0  0  0  0
 20 46  1  0  0  0  0
 20 47  1  0  0  0  0
 22 48  1  0  0  0  0
 22 49  1  0  0  0  0
M  END
>  <DRUGBANK_ID>
DB02919

>  <SECONDARY_ACCESSION_NUMBERS>
EXPT01286

>  <COMMON_NAME>
2,4-Diamino-6-[N-(3',4',5'-Trimethoxybenzyl)-N-Methylamino]Pyrido[2,3-D]Pyrimidine

$$$$
