
 OpenBabel10282417072D

 24 26  0  0  0  0  0  0  0  0999 V2000
   -1.5558    0.2567    0.0000 O   0  0  0  0  0  0  0  0  0  0  0  0
   -0.8411   -0.1554    0.0000 C   0  0  0  0  0  0  0  0  0  0  0  0
   -0.8411   -0.9804    0.0000 C   0  0  0  0  0  0  0  0  0  0  0  0
   -0.1286   -1.3929    0.0000 C   0  0  0  0  0  0  0  0  0  0  0  0
    0.5839   -0.9804    0.0000 C   0  0  0  0  0  0  0  0  0  0  0  0
    1.3018   -1.3929    0.0000 C   0  0  0  0  0  0  0  0  0  0  0  0
    2.0143   -0.9804    0.0000 C   0  0  0  0  0  0  0  0  0  0  0  0
    2.0143   -0.1554    0.0000 C   0  0  0  0  0  0  0  0  0  0  0  0
    1.3018    0.2571    0.0000 C   0  0  0  0  0  0  0  0  0  0  0  0
    0.5839   -0.1554    0.0000 C   0  0  0  0  0  0  0  0  0  0  0  0
   -0.1286    0.2571    0.0000 N   0  0  0  0  0  0  0  0  0  0  0  0
    0.1714    1.1143    0.0000 C   0  0  0  0  0  0  0  0  0  0  0  0
    0.9964    1.1143    0.0000 C   0  0  0  0  0  0  0  0  0  0  0  0
   -1.7681   -1.5148    0.0000 H   0  0  0  0  0  0  0  0  0  0  0  0
   -0.8421   -2.0504    0.0000 H   0  0  0  0  0  0  0  0  0  0  0  0
   -0.1286   -2.4629    0.0000 H   0  0  0  0  0  0  0  0  0  0  0  0
    0.7984   -1.9273    0.0000 H   0  0  0  0  0  0  0  0  0  0  0  0
    1.3035   -2.4249    0.0000 H   0  0  0  0  0  0  0  0  0  0  0  0
    2.9083   -1.4959    0.0000 H   0  0  0  0  0  0  0  0  0  0  0  0
    2.9083    0.3601    0.0000 H   0  0  0  0  0  0  0  0  0  0  0  0
   -0.4478    1.9870    0.0000 H   0  0  0  0  0  0  0  0  0  0  0  0
    0.6625    2.0649    0.0000 H   0  0  0  0  0  0  0  0  0  0  0  0
    1.6131    1.9887    0.0000 H   0  0  0  0  0  0  0  0  0  0  0  0
    2.0565    0.9692    0.0000 H   0  0  0  0  0  0  0  0  0  0  0  0
  1  2  2  0  0  0  0
  2  3  1  0  0  0  0
  2 11  1  0  0  0  0
  3  4  1  0  0  0  0
  3 14  1  0  0  0  0
  3 15  1  0  0  0  0
  4  5  1  0  0  0  0
  4 16  1  0  0  0  0
  4 17  1  0  0  0  0
  5  6  2  0  0  0  0
  5 10  1  0  0  0  0
  6  7  1  0  0  0  0
  6 18  1  0  0  0  0
  7  8  2  0  0  0  0
  7 19  1  0  0  0  0
  8  9  1  0  0  0  0
  8 20  1  0  0  0  0
  9 10  2  0  0  0  0
  9 13  1  0  0  0  0
 10 11  1  0  0  0  0
 11 12  1  0  0  0  0
 12 13  1  0  0  0  0
 12 21  1  0  0  0  0
 12 22  1  0  0  0  0
 13 23  1  0  0  0  0
 13 24  1  0  0  0  0
M  END
>  <DRUGBANK_ID>
DB02756

>  <SECONDARY_ACCESSION_NUMBERS>
EXPT02722

>  <COMMON_NAME>
Pyroquilon

>  <CAS_NUMBER>
57369-32-1

>  <UNII>
WS195Z0WJH

>  <SYNONYMS>
1,2,5,6-tetrahydropyrrolo[3,2,1-ij]quinolin-4-one

$$$$
