
 OpenBabel10282417072D

123125  0  0  1  0  0  0  0  0999 V2000
    7.5841   -3.2897    0.0000 C   0  0  0  0  0  0  0  0  0  0  0  0
    7.4282   -4.0998    0.0000 C   0  0  0  0  0  0  0  0  0  0  0  0
    6.6486   -4.3698    0.0000 C   0  0  2  0  0  0  0  0  0  0  0  0
    6.0250   -3.8298    0.0000 C   0  0  0  0  0  0  0  0  0  0  0  0
    6.4927   -5.1800    0.0000 C   0  0  1  0  0  0  0  0  0  0  0  0
    5.7131   -5.4500    0.0000 C   0  0  1  0  0  0  0  0  0  0  0  0
    5.0895   -4.9099    0.0000 C   0  0  0  0  0  0  0  0  0  0  0  0
    4.3099   -5.1800    0.0000 C   0  0  0  0  0  0  0  0  0  0  0  0
    4.1540   -5.9901    0.0000 O   0  0  0  0  0  0  0  0  0  0  0  0
    3.6863   -4.6399    0.0000 N   0  0  0  0  0  0  0  0  0  0  0  0
    2.8828   -4.8270    0.0000 C   0  0  0  0  0  0  0  0  0  0  0  0
    2.4566   -4.1206    0.0000 C   0  0  0  0  0  0  0  0  0  0  0  0
    2.9967   -3.4970    0.0000 C   0  0  0  0  0  0  0  0  0  0  0  0
    3.7567   -3.8179    0.0000 C   0  0  1  0  0  0  0  0  0  0  0  0
    4.4630   -3.3917    0.0000 C   0  0  1  0  0  0  0  0  0  0  0  0
    4.4471   -2.5668    0.0000 C   0  0  1  0  0  0  0  0  0  0  0  0
    3.7248   -2.1682    0.0000 C   0  0  0  0  0  0  0  0  0  0  0  0
    5.1535   -2.1406    0.0000 C   0  0  0  0  0  0  0  0  0  0  0  0
    5.8758   -2.5392    0.0000 O   0  0  0  0  0  0  0  0  0  0  0  0
    5.1376   -1.3158    0.0000 N   0  0  0  0  0  0  0  0  0  0  0  0
    5.8439   -0.8895    0.0000 C   0  0  1  0  0  0  0  0  0  0  0  0
    5.8280   -0.0647    0.0000 C   0  0  0  0  0  0  0  0  0  0  0  0
    6.5344    0.3615    0.0000 C   0  0  0  0  0  0  0  0  0  0  0  0
    6.5184    1.1864    0.0000 C   0  0  0  0  0  0  0  0  0  0  0  0
    7.2248    1.6126    0.0000 C   0  0  0  0  0  0  0  0  0  0  0  0
    7.9471    1.2140    0.0000 C   0  0  0  0  0  0  0  0  0  0  0  0
    7.9630    0.3891    0.0000 C   0  0  0  0  0  0  0  0  0  0  0  0
    7.2567   -0.0371    0.0000 C   0  0  0  0  0  0  0  0  0  0  0  0
    6.5662   -1.2882    0.0000 C   0  0  0  0  0  0  0  0  0  0  0  0
    6.6683   -2.1068    0.0000 N   0  0  0  0  0  0  0  0  0  0  0  0
    7.4784   -2.2627    0.0000 C   0  0  0  0  0  0  0  0  0  0  0  0
    7.8771   -1.5404    0.0000 C   0  0  0  0  0  0  0  0  0  0  0  0
    7.3133   -0.9381    0.0000 S   0  0  0  0  0  0  0  0  0  0  0  0
    5.1854   -3.7903    0.0000 O   0  0  0  0  0  0  0  0  0  0  0  0
    5.8917   -3.3641    0.0000 C   0  0  0  0  0  0  0  0  0  0  0  0
    5.5572   -6.2602    0.0000 O   0  0  0  0  0  0  0  0  0  0  0  0
    4.7777   -6.5302    0.0000 C   0  0  0  0  0  0  0  0  0  0  0  0
    7.1163   -5.7201    0.0000 N   0  0  0  0  0  0  0  0  0  0  0  0
    6.9604   -6.5302    0.0000 C   0  0  0  0  0  0  0  0  0  0  0  0
    7.8959   -5.4500    0.0000 C   0  0  0  0  0  0  0  0  0  0  0  0
    8.0518   -4.6399    0.0000 O   0  0  0  0  0  0  0  0  0  0  0  0
    8.5195   -5.9901    0.0000 C   0  0  2  0  0  0  0  0  0  0  0  0
    8.3636   -6.8003    0.0000 C   0  0  0  0  0  0  0  0  0  0  0  0
    8.9873   -7.3403    0.0000 C   0  0  0  0  0  0  0  0  0  0  0  0
    7.5841   -7.0703    0.0000 C   0  0  0  0  0  0  0  0  0  0  0  0
    9.2991   -5.7201    0.0000 N   0  0  0  0  0  0  0  0  0  0  0  0
    9.9227   -6.2602    0.0000 C   0  0  0  0  0  0  0  0  0  0  0  0
    9.7668   -7.0703    0.0000 O   0  0  0  0  0  0  0  0  0  0  0  0
   10.7023   -5.9901    0.0000 C   0  0  2  0  0  0  0  0  0  0  0  0
   11.3259   -6.5302    0.0000 C   0  0  0  0  0  0  0  0  0  0  0  0
   12.1055   -6.2602    0.0000 C   0  0  0  0  0  0  0  0  0  0  0  0
   11.1700   -7.3403    0.0000 C   0  0  0  0  0  0  0  0  0  0  0  0
   10.8582   -5.1800    0.0000 N   0  0  0  0  0  0  0  0  0  0  0  0
   10.2345   -4.6399    0.0000 C   0  0  0  0  0  0  0  0  0  0  0  0
   11.6377   -4.9099    0.0000 C   0  0  0  0  0  0  0  0  0  0  0  0
    8.5952   -2.9395    0.0000 H   0  0  0  0  0  0  0  0  0  0  0  0
    6.7753   -2.5892    0.0000 H   0  0  0  0  0  0  0  0  0  0  0  0
    7.7863   -2.2390    0.0000 H   0  0  0  0  0  0  0  0  0  0  0  0
    8.2370   -4.8003    0.0000 H   0  0  0  0  0  0  0  0  0  0  0  0
    7.2259   -5.1505    0.0000 H   0  0  0  0  0  0  0  0  0  0  0  0
    6.8508   -3.3191    0.0000 H   0  0  0  0  0  0  0  0  0  0  0  0
    6.2272   -2.7791    0.0000 H   0  0  0  0  0  0  0  0  0  0  0  0
    5.0140   -4.1801    0.0000 H   0  0  0  0  0  0  0  0  0  0  0  0
    5.2161   -3.1294    0.0000 H   0  0  0  0  0  0  0  0  0  0  0  0
    7.5038   -4.8298    0.0000 H   0  0  0  0  0  0  0  0  0  0  0  0
    6.5219   -6.1505    0.0000 H   0  0  0  0  0  0  0  0  0  0  0  0
    5.2917   -3.8592    0.0000 H   0  0  0  0  0  0  0  0  0  0  0  0
    4.2806   -4.2094    0.0000 H   0  0  0  0  0  0  0  0  0  0  0  0
    2.4665   -5.8127    0.0000 H   0  0  0  0  0  0  0  0  0  0  0  0
    1.8155   -4.9036    0.0000 H   0  0  0  0  0  0  0  0  0  0  0  0
    1.3905   -4.0293    0.0000 H   0  0  0  0  0  0  0  0  0  0  0  0
    2.0540   -3.1292    0.0000 H   0  0  0  0  0  0  0  0  0  0  0  0
    2.7541   -2.4549    0.0000 H   0  0  0  0  0  0  0  0  0  0  0  0
    3.8151   -2.8077    0.0000 H   0  0  0  0  0  0  0  0  0  0  0  0
    3.6800   -2.7506    0.0000 H   0  0  0  0  0  0  0  0  0  0  0  0
    5.3791   -2.8389    0.0000 H   0  0  0  0  0  0  0  0  0  0  0  0
    3.5310   -3.1196    0.0000 H   0  0  0  0  0  0  0  0  0  0  0  0
    3.7041   -1.0984    0.0000 H   0  0  0  0  0  0  0  0  0  0  0  0
    2.8087   -2.7210    0.0000 H   0  0  0  0  0  0  0  0  0  0  0  0
    2.7880   -1.6512    0.0000 H   0  0  0  0  0  0  0  0  0  0  0  0
    4.2756   -0.8401    0.0000 H   0  0  0  0  0  0  0  0  0  0  0  0
    4.9071   -0.3725    0.0000 H   0  0  0  0  0  0  0  0  0  0  0  0
    4.8912    0.4523    0.0000 H   0  0  0  0  0  0  0  0  0  0  0  0
    5.8074    1.0051    0.0000 H   0  0  0  0  0  0  0  0  0  0  0  0
    5.6149    1.6850    0.0000 H   0  0  0  0  0  0  0  0  0  0  0  0
    7.2049    2.6444    0.0000 H   0  0  0  0  0  0  0  0  0  0  0  0
    8.8307    1.7472    0.0000 H   0  0  0  0  0  0  0  0  0  0  0  0
    8.8665   -0.1096    0.0000 H   0  0  0  0  0  0  0  0  0  0  0  0
    7.2767   -1.0689    0.0000 H   0  0  0  0  0  0  0  0  0  0  0  0
    7.9162   -3.1972    0.0000 H   0  0  0  0  0  0  0  0  0  0  0  0
    8.9012   -1.4127    0.0000 H   0  0  0  0  0  0  0  0  0  0  0  0
    6.8285   -3.8811    0.0000 H   0  0  0  0  0  0  0  0  0  0  0  0
    5.8710   -2.2943    0.0000 H   0  0  0  0  0  0  0  0  0  0  0  0
    6.8078   -2.8113    0.0000 H   0  0  0  0  0  0  0  0  0  0  0  0
    3.9689   -5.8297    0.0000 H   0  0  0  0  0  0  0  0  0  0  0  0
    4.5755   -7.5809    0.0000 H   0  0  0  0  0  0  0  0  0  0  0  0
    3.7666   -6.8804    0.0000 H   0  0  0  0  0  0  0  0  0  0  0  0
    5.9493   -6.8804    0.0000 H   0  0  0  0  0  0  0  0  0  0  0  0
    7.7692   -7.2307    0.0000 H   0  0  0  0  0  0  0  0  0  0  0  0
    6.7582   -7.5809    0.0000 H   0  0  0  0  0  0  0  0  0  0  0  0
    8.7218   -4.9394    0.0000 H   0  0  0  0  0  0  0  0  0  0  0  0
    8.1614   -7.8510    0.0000 H   0  0  0  0  0  0  0  0  0  0  0  0
    8.7852   -8.3910    0.0000 H   0  0  0  0  0  0  0  0  0  0  0  0
    9.9983   -6.9899    0.0000 H   0  0  0  0  0  0  0  0  0  0  0  0
    9.7962   -8.0407    0.0000 H   0  0  0  0  0  0  0  0  0  0  0  0
    6.7753   -6.3698    0.0000 H   0  0  0  0  0  0  0  0  0  0  0  0
    7.3819   -8.1210    0.0000 H   0  0  0  0  0  0  0  0  0  0  0  0
    6.5730   -7.4205    0.0000 H   0  0  0  0  0  0  0  0  0  0  0  0
    9.4852   -4.7534    0.0000 H   0  0  0  0  0  0  0  0  0  0  0  0
    9.8934   -5.2896    0.0000 H   0  0  0  0  0  0  0  0  0  0  0  0
   12.1347   -7.2307    0.0000 H   0  0  0  0  0  0  0  0  0  0  0  0
   12.9143   -6.9607    0.0000 H   0  0  0  0  0  0  0  0  0  0  0  0
   12.3078   -5.2095    0.0000 H   0  0  0  0  0  0  0  0  0  0  0  0
   13.1166   -5.9100    0.0000 H   0  0  0  0  0  0  0  0  0  0  0  0
   10.1589   -7.6905    0.0000 H   0  0  0  0  0  0  0  0  0  0  0  0
   11.9788   -8.0408    0.0000 H   0  0  0  0  0  0  0  0  0  0  0  0
   10.9678   -8.3910    0.0000 H   0  0  0  0  0  0  0  0  0  0  0  0
   10.4367   -3.5892    0.0000 H   0  0  0  0  0  0  0  0  0  0  0  0
    9.2235   -4.9902    0.0000 H   0  0  0  0  0  0  0  0  0  0  0  0
    9.4256   -3.9395    0.0000 H   0  0  0  0  0  0  0  0  0  0  0  0
   12.4466   -5.6103    0.0000 H   0  0  0  0  0  0  0  0  0  0  0  0
   11.8398   -3.8592    0.0000 H   0  0  0  0  0  0  0  0  0  0  0  0
   12.6487   -4.5596    0.0000 H   0  0  0  0  0  0  0  0  0  0  0  0
  1  2  1  0  0  0  0
  1 56  1  0  0  0  0
  1 57  1  0  0  0  0
  1 58  1  0  0  0  0
  2  3  1  0  0  0  0
  2 59  1  0  0  0  0
  2 60  1  0  0  0  0
  3  4  1  0  0  0  0
  3  5  1  0  0  0  0
  3 61  1  6  0  0  0
  4 62  1  0  0  0  0
  4 63  1  0  0  0  0
  4 64  1  0  0  0  0
  5  6  1  0  0  0  0
  5 38  1  0  0  0  0
  5 65  1  1  0  0  0
  6  7  1  0  0  0  0
  6 36  1  0  0  0  0
  6 66  1  1  0  0  0
  7  8  1  0  0  0  0
  7 67  1  0  0  0  0
  7 68  1  0  0  0  0
  8  9  2  0  0  0  0
  8 10  1  0  0  0  0
 10 11  1  0  0  0  0
 10 14  1  0  0  0  0
 11 12  1  0  0  0  0
 11 69  1  0  0  0  0
 11 70  1  0  0  0  0
 12 13  1  0  0  0  0
 12 71  1  0  0  0  0
 12 72  1  0  0  0  0
 13 14  1  0  0  0  0
 13 73  1  0  0  0  0
 13 74  1  0  0  0  0
 14 15  1  0  0  0  0
 14 75  1  6  0  0  0
 15 16  1  0  0  0  0
 15 34  1  0  0  0  0
 15 76  1  6  0  0  0
 16 17  1  0  0  0  0
 16 18  1  0  0  0  0
 16 77  1  6  0  0  0
 17 78  1  0  0  0  0
 17 79  1  0  0  0  0
 17 80  1  0  0  0  0
 18 19  2  0  0  0  0
 18 20  1  0  0  0  0
 20 81  1  0  0  0  0
 21 20  1  0  0  0  0
 21 22  1  0  0  0  0
 21 29  1  0  0  0  0
 21 82  1  6  0  0  0
 22 23  1  0  0  0  0
 22 83  1  0  0  0  0
 22 84  1  0  0  0  0
 23 24  2  0  0  0  0
 23 28  1  0  0  0  0
 24 25  1  0  0  0  0
 24 85  1  0  0  0  0
 25 26  2  0  0  0  0
 25 86  1  0  0  0  0
 26 27  1  0  0  0  0
 26 87  1  0  0  0  0
 27 28  2  0  0  0  0
 27 88  1  0  0  0  0
 28 89  1  0  0  0  0
 29 30  2  0  0  0  0
 29 33  1  0  0  0  0
 30 31  1  0  0  0  0
 31 32  2  0  0  0  0
 31 90  1  0  0  0  0
 32 33  1  0  0  0  0
 32 91  1  0  0  0  0
 34 35  1  0  0  0  0
 35 92  1  0  0  0  0
 35 93  1  0  0  0  0
 35 94  1  0  0  0  0
 36 37  1  0  0  0  0
 37 95  1  0  0  0  0
 37 96  1  0  0  0  0
 37 97  1  0  0  0  0
 38 39  1  0  0  0  0
 38 40  1  0  0  0  0
 39 98  1  0  0  0  0
 39 99  1  0  0  0  0
 39100  1  0  0  0  0
 40 41  2  0  0  0  0
 40 42  1  0  0  0  0
 42 43  1  0  0  0  0
 42 46  1  0  0  0  0
 42101  1  6  0  0  0
 43 44  1  0  0  0  0
 43 45  1  0  0  0  0
 43102  1  0  0  0  0
 44103  1  0  0  0  0
 44104  1  0  0  0  0
 44105  1  0  0  0  0
 45106  1  0  0  0  0
 45107  1  0  0  0  0
 45108  1  0  0  0  0
 46 47  1  0  0  0  0
 46109  1  0  0  0  0
 47 48  2  0  0  0  0
 47 49  1  0  0  0  0
 49 50  1  0  0  0  0
 49 53  1  0  0  0  0
 49110  1  6  0  0  0
 50 51  1  0  0  0  0
 50 52  1  0  0  0  0
 50111  1  0  0  0  0
 51112  1  0  0  0  0
 51113  1  0  0  0  0
 51114  1  0  0  0  0
 52115  1  0  0  0  0
 52116  1  0  0  0  0
 52117  1  0  0  0  0
 53 54  1  0  0  0  0
 53 55  1  0  0  0  0
 54118  1  0  0  0  0
 54119  1  0  0  0  0
 54120  1  0  0  0  0
 55121  1  0  0  0  0
 55122  1  0  0  0  0
 55123  1  0  0  0  0
M  END
>  <DRUGBANK_ID>
DB12730

>  <COMMON_NAME>
Dolastatin 10

>  <CAS_NUMBER>
110417-88-4

>  <UNII>
EI946JT51X

$$$$
