
 OpenBabel10282417072D

 38 39  0  0  0  0  0  0  0  0999 V2000
   -1.1148   -0.4973    0.0000 C   0  0  0  0  0  0  0  0  0  0  0  0
   -1.8293   -0.0848    0.0000 C   0  0  2  0  0  0  0  0  0  0  0  0
   -1.5472    0.6903    0.0000 C   0  0  1  0  0  0  0  0  0  0  0  0
   -0.9151    1.2207    0.0000 C   0  0  0  0  0  0  0  0  0  0  0  0
   -2.3597    0.5471    0.0000 C   0  0  0  0  0  0  0  0  0  0  0  0
   -2.6418    1.3224    0.0000 Cl  0  0  0  0  0  0  0  0  0  0  0  0
   -3.0741    0.1346    0.0000 Cl  0  0  0  0  0  0  0  0  0  0  0  0
   -2.3597   -0.7169    0.0000 C   0  0  0  0  0  0  0  0  0  0  0  0
   -3.1722   -0.5735    0.0000 C   0  0  0  0  0  0  0  0  0  0  0  0
   -1.1148   -1.3224    0.0000 O   0  0  0  0  0  0  0  0  0  0  0  0
   -0.4003   -0.0848    0.0000 N   0  0  0  0  0  0  0  0  0  0  0  0
    0.3141   -0.4973    0.0000 C   0  0  1  0  0  0  0  0  0  0  0  0
    1.0287   -0.0848    0.0000 C   0  0  0  0  0  0  0  0  0  0  0  0
    1.7431   -0.4973    0.0000 C   0  0  0  0  0  0  0  0  0  0  0  0
    2.4577   -0.0848    0.0000 C   0  0  0  0  0  0  0  0  0  0  0  0
    2.4577    0.7401    0.0000 C   0  0  0  0  0  0  0  0  0  0  0  0
    3.1722    1.1527    0.0000 Cl  0  0  0  0  0  0  0  0  0  0  0  0
    1.7431    1.1527    0.0000 C   0  0  0  0  0  0  0  0  0  0  0  0
    1.0287    0.7401    0.0000 C   0  0  0  0  0  0  0  0  0  0  0  0
    0.3141   -1.3224    0.0000 C   0  0  0  0  0  0  0  0  0  0  0  0
   -0.6707    0.0766    0.0000 H   0  0  0  0  0  0  0  0  0  0  0  0
    0.0904    0.8547    0.0000 H   0  0  0  0  0  0  0  0  0  0  0  0
   -1.1009    2.2744    0.0000 H   0  0  0  0  0  0  0  0  0  0  0  0
   -0.0954    1.9085    0.0000 H   0  0  0  0  0  0  0  0  0  0  0  0
   -1.9938   -1.7224    0.0000 H   0  0  0  0  0  0  0  0  0  0  0  0
   -3.0476   -1.5365    0.0000 H   0  0  0  0  0  0  0  0  0  0  0  0
   -3.5380    0.4320    0.0000 H   0  0  0  0  0  0  0  0  0  0  0  0
   -3.8601   -1.3931    0.0000 H   0  0  0  0  0  0  0  0  0  0  0  0
   -4.2259   -0.3875    0.0000 H   0  0  0  0  0  0  0  0  0  0  0  0
   -0.4003    0.8997    0.0000 H   0  0  0  0  0  0  0  0  0  0  0  0
   -0.6126   -1.0323    0.0000 H   0  0  0  0  0  0  0  0  0  0  0  0
    1.7430   -1.5293    0.0000 H   0  0  0  0  0  0  0  0  0  0  0  0
    3.3514   -0.6008    0.0000 H   0  0  0  0  0  0  0  0  0  0  0  0
    1.7430    2.1847    0.0000 H   0  0  0  0  0  0  0  0  0  0  0  0
    0.1349    1.2560    0.0000 H   0  0  0  0  0  0  0  0  0  0  0  0
   -0.6125   -1.8574    0.0000 H   0  0  0  0  0  0  0  0  0  0  0  0
    1.2407   -1.8574    0.0000 H   0  0  0  0  0  0  0  0  0  0  0  0
    0.3141   -2.3924    0.0000 H   0  0  0  0  0  0  0  0  0  0  0  0
  1 10  2  0  0  0  0
  1 11  1  0  0  0  0
  2  1  1  1  0  0  0
  2  3  1  0  0  0  0
  2  5  1  0  0  0  0
  2  8  1  0  0  0  0
  3  4  1  0  0  0  0
  3 21  1  1  0  0  0
  4 22  1  0  0  0  0
  4 23  1  0  0  0  0
  4 24  1  0  0  0  0
  5  3  1  0  0  0  0
  5  6  1  0  0  0  0
  5  7  1  0  0  0  0
  8  9  1  0  0  0  0
  8 25  1  0  0  0  0
  8 26  1  0  0  0  0
  9 27  1  0  0  0  0
  9 28  1  0  0  0  0
  9 29  1  0  0  0  0
 11 12  1  0  0  0  0
 11 30  1  0  0  0  0
 12 13  1  0  0  0  0
 12 20  1  0  0  0  0
 12 31  1  6  0  0  0
 13 14  1  0  0  0  0
 13 19  2  0  0  0  0
 14 15  2  0  0  0  0
 14 32  1  0  0  0  0
 15 16  1  0  0  0  0
 15 33  1  0  0  0  0
 16 17  1  0  0  0  0
 18 16  2  0  0  0  0
 18 34  1  0  0  0  0
 19 18  1  0  0  0  0
 19 35  1  0  0  0  0
 20 36  1  0  0  0  0
 20 37  1  0  0  0  0
 20 38  1  0  0  0  0
M  END
>  <DRUGBANK_ID>
DB02946

>  <SECONDARY_ACCESSION_NUMBERS>
EXPT01898

>  <COMMON_NAME>
Carpropamide

>  <CAS_NUMBER>
127640-90-8

>  <UNII>
4748U7LZ6E

>  <SYNONYMS>
(1S,3R)-2,2-dichloro-N-[(1R)-1-(4-chlorophenyl)ethyl]-1-ethyl-3-methylcyclopropanecarboxamide

$$$$
