GAX
 OpenBabel10282417072D

 50 53  0  0  0  0  0  0  0  0999 V2000
    2.2763   -2.8094    0.0000 N   0  0  0  0  0  0  0  0  0  0  0  0
   -0.7826    2.6164    0.0000 N   0  0  0  0  0  0  0  0  0  0  0  0
   -1.1182    1.8627    0.0000 C   0  0  0  0  0  0  0  0  0  0  0  0
   -0.9320    4.0375    0.0000 N   0  0  0  0  0  0  0  0  0  0  0  0
   -1.1620    5.4896    0.0000 N   0  0  0  0  0  0  0  0  0  0  0  0
   -0.9688    0.4416    0.0000 C   0  0  0  0  0  0  0  0  0  0  0  0
    0.0010   -0.8933    0.0000 N   0  0  0  0  0  0  0  0  0  0  0  0
   -1.7893    0.3554    0.0000 C   0  0  0  0  0  0  0  0  0  0  0  0
   -2.2742    1.0228    0.0000 C   0  0  0  0  0  0  0  0  0  0  0  0
    0.1836    0.2591    0.0000 O   0  0  0  0  0  0  0  0  0  0  0  0
   -1.1513   -0.7108    0.0000 O   0  0  0  0  0  0  0  0  0  0  0  0
   -2.0880    3.1976    0.0000 O   0  0  0  0  0  0  0  0  0  0  0  0
   -1.2675    3.2838    0.0000 C   0  0  0  0  0  0  0  0  0  0  0  0
   -1.4169    4.7049    0.0000 C   0  0  0  0  0  0  0  0  0  0  0  0
   -1.8294    5.9745    0.0000 C   0  0  0  0  0  0  0  0  0  0  0  0
   -2.4968    5.4896    0.0000 C   0  0  0  0  0  0  0  0  0  0  0  0
   -2.2419    4.7049    0.0000 S   0  0  0  0  0  0  0  0  0  0  0  0
   -0.6332    1.1953    0.0000 C   0  0  0  0  0  0  0  0  0  0  0  0
   -1.9386    1.7765    0.0000 C   0  0  0  0  0  0  0  0  0  0  0  0
   -0.4839   -0.2258    0.0000 S   0  0  0  0  0  0  0  0  0  0  0  0
   -0.3345   -1.6469    0.0000 C   0  0  0  0  0  0  0  0  0  0  0  0
    0.1504   -2.3144    0.0000 C   0  0  0  0  0  0  0  0  0  0  0  0
    0.9709   -2.2282    0.0000 N   0  0  0  0  0  0  0  0  0  0  0  0
    1.3064   -1.4745    0.0000 C   0  0  0  0  0  0  0  0  0  0  0  0
    0.8215   -0.8070    0.0000 C   0  0  0  0  0  0  0  0  0  0  0  0
    1.4558   -2.8956    0.0000 C   0  0  0  0  0  0  0  0  0  0  0  0
    1.1203   -3.6493    0.0000 C   0  0  0  0  0  0  0  0  0  0  0  0
    1.6052   -4.3167    0.0000 C   0  0  0  0  0  0  0  0  0  0  0  0
    2.4257   -4.2305    0.0000 C   0  0  0  0  0  0  0  0  0  0  0  0
    2.7612   -3.4768    0.0000 C   0  0  0  0  0  0  0  0  0  0  0  0
    0.1965    2.7193    0.0000 H   0  0  0  0  0  0  0  0  0  0  0  0
    0.0471    4.1404    0.0000 H   0  0  0  0  0  0  0  0  0  0  0  0
   -2.2091   -0.5874    0.0000 H   0  0  0  0  0  0  0  0  0  0  0  0
   -3.3005    0.9149    0.0000 H   0  0  0  0  0  0  0  0  0  0  0  0
   -1.8294    7.0065    0.0000 H   0  0  0  0  0  0  0  0  0  0  0  0
   -3.4783    5.8085    0.0000 H   0  0  0  0  0  0  0  0  0  0  0  0
    0.3931    1.3032    0.0000 H   0  0  0  0  0  0  0  0  0  0  0  0
   -2.5452    2.6114    0.0000 H   0  0  0  0  0  0  0  0  0  0  0  0
   -1.3986   -1.7587    0.0000 H   0  0  0  0  0  0  0  0  0  0  0  0
   -0.7697   -2.6244    0.0000 H   0  0  0  0  0  0  0  0  0  0  0  0
   -0.2849   -3.2919    0.0000 H   0  0  0  0  0  0  0  0  0  0  0  0
   -0.9137   -2.4262    0.0000 H   0  0  0  0  0  0  0  0  0  0  0  0
    2.3705   -1.3626    0.0000 H   0  0  0  0  0  0  0  0  0  0  0  0
    1.7416   -0.4970    0.0000 H   0  0  0  0  0  0  0  0  0  0  0  0
    1.2567    0.1705    0.0000 H   0  0  0  0  0  0  0  0  0  0  0  0
    1.8856   -0.6952    0.0000 H   0  0  0  0  0  0  0  0  0  0  0  0
    0.0940   -3.7572    0.0000 H   0  0  0  0  0  0  0  0  0  0  0  0
    1.1854   -5.2595    0.0000 H   0  0  0  0  0  0  0  0  0  0  0  0
    3.0323   -5.0654    0.0000 H   0  0  0  0  0  0  0  0  0  0  0  0
    3.7875   -3.3689    0.0000 H   0  0  0  0  0  0  0  0  0  0  0  0
  2  3  1  0  0  0  0
  2 31  1  0  0  0  0
  3 18  2  0  0  0  0
  3 19  1  0  0  0  0
  4 13  1  0  0  0  0
  4 32  1  0  0  0  0
  5 14  2  0  0  0  0
  6 20  1  0  0  0  0
  6  8  2  0  0  0  0
  7 25  1  0  0  0  0
  7 20  1  0  0  0  0
  8 33  1  0  0  0  0
  9  8  1  0  0  0  0
  9 34  1  0  0  0  0
 12 13  2  0  0  0  0
 13  2  1  0  0  0  0
 14  4  1  0  0  0  0
 15 16  2  0  0  0  0
 15  5  1  0  0  0  0
 15 35  1  0  0  0  0
 16 17  1  0  0  0  0
 16 36  1  0  0  0  0
 17 14  1  0  0  0  0
 18  6  1  0  0  0  0
 18 37  1  0  0  0  0
 19  9  2  0  0  0  0
 19 38  1  0  0  0  0
 20 11  2  0  0  0  0
 20 10  2  0  0  0  0
 21  7  1  0  0  0  0
 21 39  1  0  0  0  0
 21 40  1  0  0  0  0
 22 23  1  0  0  0  0
 22 21  1  0  0  0  0
 22 41  1  0  0  0  0
 22 42  1  0  0  0  0
 23 24  1  0  0  0  0
 24 25  1  0  0  0  0
 24 43  1  0  0  0  0
 24 44  1  0  0  0  0
 25 45  1  0  0  0  0
 25 46  1  0  0  0  0
 26  1  1  0  0  0  0
 26 23  1  0  0  0  0
 27 26  2  0  0  0  0
 27 47  1  0  0  0  0
 28 29  2  0  0  0  0
 28 27  1  0  0  0  0
 28 48  1  0  0  0  0
 29 30  1  0  0  0  0
 29 49  1  0  0  0  0
 30  1  2  0  0  0  0
 30 50  1  0  0  0  0
M  END
>  <DRUGBANK_ID>
DB07817

>  <COMMON_NAME>
1-{3-[(4-pyridin-2-ylpiperazin-1-yl)sulfonyl]phenyl}-3-(1,3-thiazol-2-yl)urea

$$$$
