
 OpenBabel10282417072D

 89 93  0  0  1  0  0  0  0  0999 V2000
    4.4584    6.5820    0.0000 C   0  0  0  0  0  0  0  0  0  0  0  0
    2.2287    5.3490    0.0000 C   0  0  0  0  0  0  0  0  0  0  0  0
   -2.7565    5.9145    0.0000 C   0  0  0  0  0  0  0  0  0  0  0  0
   -3.4710    5.5020    0.0000 C   0  0  0  0  0  0  0  0  0  0  0  0
   -2.0420    5.5020    0.0000 C   0  0  0  0  0  0  0  0  0  0  0  0
   -4.1854    6.7395    0.0000 C   0  0  0  0  0  0  0  0  0  0  0  0
   -4.8999    5.5020    0.0000 C   0  0  0  0  0  0  0  0  0  0  0  0
    3.7439    8.6445    0.0000 C   0  0  0  0  0  0  0  0  0  0  0  0
   -4.8999    7.1520    0.0000 C   0  0  0  0  0  0  0  0  0  0  0  0
   -5.6144    5.9145    0.0000 C   0  0  0  0  0  0  0  0  0  0  0  0
    3.0294    8.2320    0.0000 C   0  0  0  0  0  0  0  0  0  0  0  0
    5.8873    7.4070    0.0000 C   0  0  0  0  0  0  0  0  0  0  0  0
    1.5303    7.2494    0.0000 C   0  0  0  0  0  0  0  0  0  0  0  0
    5.1728    6.9945    0.0000 C   0  0  0  0  0  0  0  0  0  0  0  0
    1.0454    6.5820    0.0000 C   0  0  0  0  0  0  0  0  0  0  0  0
   -7.7578    7.1520    0.0000 C   0  0  0  0  0  0  0  0  0  0  0  0
   -7.0433    8.3895    0.0000 C   0  0  0  0  0  0  0  0  0  0  0  0
   -7.0433    6.7395    0.0000 C   0  0  0  0  0  0  0  0  0  0  0  0
   -6.3289    7.9770    0.0000 C   0  0  0  0  0  0  0  0  0  0  0  0
    5.1728    8.6445    0.0000 C   0  0  0  0  0  0  0  0  0  0  0  0
    3.0294    5.7570    0.0000 C   0  0  0  0  0  0  0  0  0  0  0  0
    0.1014    5.9145    0.0000 C   0  0  0  0  0  0  0  0  0  0  0  0
   -4.1854    5.9145    0.0000 C   0  0  0  0  0  0  0  0  0  0  0  0
    4.4584    8.2320    0.0000 C   0  0  0  0  0  0  0  0  0  0  0  0
   -5.6144    6.7395    0.0000 C   0  0  0  0  0  0  0  0  0  0  0  0
    5.8873    8.2320    0.0000 C   0  0  0  0  0  0  0  0  0  0  0  0
    3.0294    7.4070    0.0000 C   0  0  1  0  0  0  0  0  0  0  0  0
    2.3149    6.9945    0.0000 C   0  0  1  0  0  0  0  0  0  0  0  0
    3.7439    6.1695    0.0000 C   0  0  1  0  0  0  0  0  0  0  0  0
    0.8158    5.5020    0.0000 C   0  0  0  0  0  0  0  0  0  0  0  0
   -1.3276    5.9145    0.0000 C   0  0  0  0  0  0  0  0  0  0  0  0
    3.7439    6.9945    0.0000 C   0  0  2  0  0  0  0  0  0  0  0  0
    4.4584    7.4070    0.0000 C   0  0  2  0  0  0  0  0  0  0  0  0
    2.3149    6.1695    0.0000 C   0  0  2  0  0  0  0  0  0  0  0  0
    1.5303    5.9145    0.0000 C   0  0  2  0  0  0  0  0  0  0  0  0
   -8.4723    6.7395    0.0000 Cl  0  0  0  0  0  0  0  0  0  0  0  0
   -7.0433    9.2145    0.0000 Cl  0  0  0  0  0  0  0  0  0  0  0  0
   -6.3289    7.1520    0.0000 N   0  0  0  0  0  0  0  0  0  0  0  0
    6.6018    8.6445    0.0000 O   0  0  0  0  0  0  0  0  0  0  0  0
    4.4584    5.7570    0.0000 O   0  0  0  0  0  0  0  0  0  0  0  0
    0.8158    4.6770    0.0000 O   0  0  0  0  0  0  0  0  0  0  0  0
   -1.3276    6.7395    0.0000 O   0  0  0  0  0  0  0  0  0  0  0  0
    1.8659    5.1609    0.0000 O   0  0  0  0  0  0  0  0  0  0  0  0
   -0.6131    5.5020    0.0000 O   0  0  0  0  0  0  0  0  0  0  0  0
    2.3149    7.8195    0.0000 H   0  0  0  0  0  0  0  0  0  0  0  0
    3.0294    6.5820    0.0000 H   0  0  0  0  0  0  0  0  0  0  0  0
    3.7439    5.3445    0.0000 H   0  0  0  0  0  0  0  0  0  0  0  0
    3.7439    7.8195    0.0000 H   0  0  0  0  0  0  0  0  0  0  0  0
    3.5318    6.0470    0.0000 H   0  0  0  0  0  0  0  0  0  0  0  0
    5.3850    6.0470    0.0000 H   0  0  0  0  0  0  0  0  0  0  0  0
    4.4584    5.5120    0.0000 H   0  0  0  0  0  0  0  0  0  0  0  0
    1.2512    4.9137    0.0000 H   0  0  0  0  0  0  0  0  0  0  0  0
    3.0944    4.7201    0.0000 H   0  0  0  0  0  0  0  0  0  0  0  0
    2.1169    4.2849    0.0000 H   0  0  0  0  0  0  0  0  0  0  0  0
   -2.7565    6.9845    0.0000 H   0  0  0  0  0  0  0  0  0  0  0  0
   -1.8299    6.4495    0.0000 H   0  0  0  0  0  0  0  0  0  0  0  0
   -3.4710    4.4320    0.0000 H   0  0  0  0  0  0  0  0  0  0  0  0
   -4.3977    4.9670    0.0000 H   0  0  0  0  0  0  0  0  0  0  0  0
   -2.0420    4.4320    0.0000 H   0  0  0  0  0  0  0  0  0  0  0  0
   -1.1153    4.9670    0.0000 H   0  0  0  0  0  0  0  0  0  0  0  0
   -3.2917    7.2555    0.0000 H   0  0  0  0  0  0  0  0  0  0  0  0
   -4.8999    4.4700    0.0000 H   0  0  0  0  0  0  0  0  0  0  0  0
    3.7439    9.7145    0.0000 H   0  0  0  0  0  0  0  0  0  0  0  0
    4.6705    9.1795    0.0000 H   0  0  0  0  0  0  0  0  0  0  0  0
   -4.8999    8.1840    0.0000 H   0  0  0  0  0  0  0  0  0  0  0  0
   -6.5081    5.3985    0.0000 H   0  0  0  0  0  0  0  0  0  0  0  0
    2.1028    8.7670    0.0000 H   0  0  0  0  0  0  0  0  0  0  0  0
    2.1028    7.6970    0.0000 H   0  0  0  0  0  0  0  0  0  0  0  0
    6.7810    6.8910    0.0000 H   0  0  0  0  0  0  0  0  0  0  0  0
    1.1996    8.2670    0.0000 H   0  0  0  0  0  0  0  0  0  0  0  0
    2.2869    8.0060    0.0000 H   0  0  0  0  0  0  0  0  0  0  0  0
    5.1728    5.9625    0.0000 H   0  0  0  0  0  0  0  0  0  0  0  0
   -0.0246    6.5820    0.0000 H   0  0  0  0  0  0  0  0  0  0  0  0
    0.5596    5.6286    0.0000 H   0  0  0  0  0  0  0  0  0  0  0  0
   -7.7578    8.2220    0.0000 H   0  0  0  0  0  0  0  0  0  0  0  0
   -8.6844    7.6870    0.0000 H   0  0  0  0  0  0  0  0  0  0  0  0
   -7.9700    7.8545    0.0000 H   0  0  0  0  0  0  0  0  0  0  0  0
   -7.9699    8.9245    0.0000 H   0  0  0  0  0  0  0  0  0  0  0  0
   -7.0433    5.6695    0.0000 H   0  0  0  0  0  0  0  0  0  0  0  0
   -6.1166    6.2045    0.0000 H   0  0  0  0  0  0  0  0  0  0  0  0
   -5.4022    8.5120    0.0000 H   0  0  0  0  0  0  0  0  0  0  0  0
   -5.4023    7.4420    0.0000 H   0  0  0  0  0  0  0  0  0  0  0  0
    5.1728    9.6765    0.0000 H   0  0  0  0  0  0  0  0  0  0  0  0
    3.0294    4.6870    0.0000 H   0  0  0  0  0  0  0  0  0  0  0  0
    2.1028    5.2220    0.0000 H   0  0  0  0  0  0  0  0  0  0  0  0
    0.1014    6.9845    0.0000 H   0  0  0  0  0  0  0  0  0  0  0  0
   -0.8252    6.4495    0.0000 H   0  0  0  0  0  0  0  0  0  0  0  0
    4.4584    4.7870    0.0000 H   0  0  0  0  0  0  0  0  0  0  0  0
    1.2958    4.3761    0.0000 H   0  0  0  0  0  0  0  0  0  0  0  0
  1 49  1  0  0  0  0
  1 50  1  0  0  0  0
  1 51  1  0  0  0  0
  2 52  1  0  0  0  0
  2 53  1  0  0  0  0
  2 54  1  0  0  0  0
  3 55  1  0  0  0  0
  3 56  1  0  0  0  0
  4  3  1  0  0  0  0
  4 57  1  0  0  0  0
  4 58  1  0  0  0  0
  5  3  1  0  0  0  0
  5 59  1  0  0  0  0
  5 60  1  0  0  0  0
  6 61  1  0  0  0  0
  7 62  1  0  0  0  0
  8 63  1  0  0  0  0
  8 64  1  0  0  0  0
  9  6  1  0  0  0  0
  9 65  1  0  0  0  0
 10  7  2  0  0  0  0
 10 66  1  0  0  0  0
 11  8  1  0  0  0  0
 11 67  1  0  0  0  0
 11 68  1  0  0  0  0
 12 69  1  0  0  0  0
 13 70  1  0  0  0  0
 13 71  1  0  0  0  0
 14 12  2  0  0  0  0
 14 72  1  0  0  0  0
 15 13  1  0  0  0  0
 15 73  1  0  0  0  0
 15 74  1  0  0  0  0
 16 75  1  0  0  0  0
 16 76  1  0  0  0  0
 17 77  1  0  0  0  0
 17 78  1  0  0  0  0
 18 16  1  0  0  0  0
 18 79  1  0  0  0  0
 18 80  1  0  0  0  0
 19 17  1  0  0  0  0
 19 81  1  0  0  0  0
 19 82  1  0  0  0  0
 20 83  1  0  0  0  0
 21 84  1  0  0  0  0
 21 85  1  0  0  0  0
 22 86  1  0  0  0  0
 22 87  1  0  0  0  0
 23  4  1  0  0  0  0
 23  6  2  0  0  0  0
 23  7  1  0  0  0  0
 24  8  1  0  0  0  0
 24 20  2  0  0  0  0
 25  9  2  0  0  0  0
 25 10  1  0  0  0  0
 26 12  1  0  0  0  0
 26 20  1  0  0  0  0
 27 11  1  0  0  0  0
 27 45  1  1  0  0  0
 28 13  1  0  0  0  0
 28 27  1  0  0  0  0
 28 46  1  6  0  0  0
 29 21  1  0  0  0  0
 29 40  1  0  0  0  0
 29 47  1  6  0  0  0
 30 22  1  0  0  0  0
 31  5  1  0  0  0  0
 32 27  1  0  0  0  0
 32 29  1  0  0  0  0
 32 48  1  6  0  0  0
 33  1  1  1  0  0  0
 33 14  1  0  0  0  0
 33 24  1  0  0  0  0
 33 32  1  0  0  0  0
 34  2  1  1  0  0  0
 34 21  1  0  0  0  0
 34 28  1  0  0  0  0
 35 15  1  0  0  0  0
 35 30  1  1  0  0  0
 35 34  1  0  0  0  0
 35 43  1  0  0  0  0
 36 16  1  0  0  0  0
 37 17  1  0  0  0  0
 38 18  1  0  0  0  0
 38 19  1  0  0  0  0
 38 25  1  0  0  0  0
 39 26  2  0  0  0  0
 40 88  1  0  0  0  0
 41 30  2  0  0  0  0
 42 31  2  0  0  0  0
 43 89  1  0  0  0  0
 44 22  1  0  0  0  0
 44 31  1  0  0  0  0
M  END
>  <DRUGBANK_ID>
DB12832

>  <COMMON_NAME>
Prednimustine

>  <CAS_NUMBER>
29069-24-7

>  <UNII>
9403SIO2S8

>  <SYNONYMS>
Prednimustine

$$$$
