BAT
 OpenBabel10282417072D

 63 64  0  0  0  0  0  0  0  0999 V2000
   -1.2822   -0.5073    0.0000 C   0  0  1  0  0  0  0  0  0  0  0  0
   -1.0841   -1.3081    0.0000 C   0  0  0  0  0  0  0  0  0  0  0  0
   -2.0749   -0.2784    0.0000 C   0  0  0  0  0  0  0  0  0  0  0  0
   -3.4620   -0.6217    0.0000 C   0  0  0  0  0  0  0  0  0  0  0  0
   -4.1130   -1.1284    0.0000 C   0  0  0  0  0  0  0  0  0  0  0  0
   -4.7961   -0.6659    0.0000 C   0  0  0  0  0  0  0  0  0  0  0  0
   -4.5673    0.1268    0.0000 C   0  0  0  0  0  0  0  0  0  0  0  0
   -0.6878    0.0648    0.0000 C   0  0  1  0  0  0  0  0  0  0  0  0
   -0.8859    0.8656    0.0000 C   0  0  0  0  0  0  0  0  0  0  0  0
   -1.6786    1.0944    0.0000 C   0  0  0  0  0  0  0  0  0  0  0  0
   -2.2730    0.5224    0.0000 C   0  0  0  0  0  0  0  0  0  0  0  0
   -1.8767    1.8953    0.0000 C   0  0  0  0  0  0  0  0  0  0  0  0
    0.1049   -0.1640    0.0000 C   0  0  0  0  0  0  0  0  0  0  0  0
    1.4920    0.1792    0.0000 C   0  0  2  0  0  0  0  0  0  0  0  0
    1.6901   -0.6217    0.0000 C   0  0  0  0  0  0  0  0  0  0  0  0
    2.6809   -1.6513    0.0000 C   0  0  0  0  0  0  0  0  0  0  0  0
    2.0865    0.7512    0.0000 C   0  0  0  0  0  0  0  0  0  0  0  0
    2.8791    0.5224    0.0000 C   0  0  0  0  0  0  0  0  0  0  0  0
    3.4736    1.0944    0.0000 C   0  0  0  0  0  0  0  0  0  0  0  0
    4.2662    0.8656    0.0000 C   0  0  0  0  0  0  0  0  0  0  0  0
    4.4644    0.0648    0.0000 C   0  0  0  0  0  0  0  0  0  0  0  0
    3.8699   -0.5073    0.0000 C   0  0  0  0  0  0  0  0  0  0  0  0
    3.0772   -0.2784    0.0000 C   0  0  0  0  0  0  0  0  0  0  0  0
   -0.2915   -1.5369    0.0000 N   0  0  0  0  0  0  0  0  0  0  0  0
    0.6993    0.4080    0.0000 N   0  0  0  0  0  0  0  0  0  0  0  0
    2.4828   -0.8505    0.0000 N   0  0  0  0  0  0  0  0  0  0  0  0
   -1.6786   -1.8801    0.0000 O   0  0  0  0  0  0  0  0  0  0  0  0
   -0.0933   -2.3378    0.0000 O   0  0  0  0  0  0  0  0  0  0  0  0
    0.3030   -0.9649    0.0000 O   0  0  0  0  0  0  0  0  0  0  0  0
    1.0957   -1.1937    0.0000 O   0  0  0  0  0  0  0  0  0  0  0  0
   -2.6694   -0.8505    0.0000 S   0  0  0  0  0  0  0  0  0  0  0  0
   -3.7428    0.1541    0.0000 S   0  0  0  0  0  0  0  0  0  0  0  0
   -1.7030   -0.9121    0.0000 H   0  0  0  0  0  0  0  0  0  0  0  0
   -1.2488    0.2267    0.0000 H   0  0  0  0  0  0  0  0  0  0  0  0
    2.0530    0.0172    0.0000 H   0  0  0  0  0  0  0  0  0  0  0  0
   -2.3319    0.7603    0.0000 H   0  0  0  0  0  0  0  0  0  0  0  0
   -3.1029    0.0184    0.0000 H   0  0  0  0  0  0  0  0  0  0  0  0
   -4.0788   -2.1598    0.0000 H   0  0  0  0  0  0  0  0  0  0  0  0
   -5.7665   -1.0172    0.0000 H   0  0  0  0  0  0  0  0  0  0  0  0
   -5.2012    0.9412    0.0000 H   0  0  0  0  0  0  0  0  0  0  0  0
   -0.1149    1.6075    0.0000 H   0  0  0  0  0  0  0  0  0  0  0  0
   -1.1429    1.9043    0.0000 H   0  0  0  0  0  0  0  0  0  0  0  0
   -2.7066    1.3912    0.0000 H   0  0  0  0  0  0  0  0  0  0  0  0
   -3.3010    0.8191    0.0000 H   0  0  0  0  0  0  0  0  0  0  0  0
   -2.0160   -0.5163    0.0000 H   0  0  0  0  0  0  0  0  0  0  0  0
   -3.0440   -0.2195    0.0000 H   0  0  0  0  0  0  0  0  0  0  0  0
   -1.1056    2.6371    0.0000 H   0  0  0  0  0  0  0  0  0  0  0  0
   -2.9047    2.1922    0.0000 H   0  0  0  0  0  0  0  0  0  0  0  0
   -2.1336    2.9340    0.0000 H   0  0  0  0  0  0  0  0  0  0  0  0
    1.9098   -2.3932    0.0000 H   0  0  0  0  0  0  0  0  0  0  0  0
    3.7089   -1.9481    0.0000 H   0  0  0  0  0  0  0  0  0  0  0  0
    2.9378   -2.6900    0.0000 H   0  0  0  0  0  0  0  0  0  0  0  0
    1.8295    1.7899    0.0000 H   0  0  0  0  0  0  0  0  0  0  0  0
    2.8575    1.4931    0.0000 H   0  0  0  0  0  0  0  0  0  0  0  0
    3.2257    2.0962    0.0000 H   0  0  0  0  0  0  0  0  0  0  0  0
    5.0098    1.5812    0.0000 H   0  0  0  0  0  0  0  0  0  0  0  0
    5.4559   -0.2214    0.0000 H   0  0  0  0  0  0  0  0  0  0  0  0
    4.1178   -1.5091    0.0000 H   0  0  0  0  0  0  0  0  0  0  0  0
    2.3335   -0.9939    0.0000 H   0  0  0  0  0  0  0  0  0  0  0  0
    0.4179   -0.8543    0.0000 H   0  0  0  0  0  0  0  0  0  0  0  0
    0.4628    1.3637    0.0000 H   0  0  0  0  0  0  0  0  0  0  0  0
    3.1922   -0.1679    0.0000 H   0  0  0  0  0  0  0  0  0  0  0  0
   -0.7922   -3.0104    0.0000 H   0  0  0  0  0  0  0  0  0  0  0  0
  1  2  1  0  0  0  0
  1  3  1  0  0  0  0
  1  8  1  0  0  0  0
  1 33  1  6  0  0  0
  2 24  1  0  0  0  0
  2 27  2  0  0  0  0
  3 31  1  0  0  0  0
  3 36  1  0  0  0  0
  3 37  1  0  0  0  0
  4  5  2  0  0  0  0
  4 31  1  0  0  0  0
  4 32  1  0  0  0  0
  5  6  1  0  0  0  0
  5 38  1  0  0  0  0
  6  7  2  0  0  0  0
  6 39  1  0  0  0  0
  7 32  1  0  0  0  0
  7 40  1  0  0  0  0
  8  9  1  0  0  0  0
  8 13  1  0  0  0  0
  8 34  1  6  0  0  0
  9 10  1  0  0  0  0
  9 41  1  0  0  0  0
  9 42  1  0  0  0  0
 10 11  1  0  0  0  0
 10 12  1  0  0  0  0
 10 43  1  0  0  0  0
 11 44  1  0  0  0  0
 11 45  1  0  0  0  0
 11 46  1  0  0  0  0
 12 47  1  0  0  0  0
 12 48  1  0  0  0  0
 12 49  1  0  0  0  0
 13 25  1  0  0  0  0
 13 29  2  0  0  0  0
 14 15  1  0  0  0  0
 14 17  1  0  0  0  0
 14 25  1  0  0  0  0
 14 35  1  6  0  0  0
 15 26  1  0  0  0  0
 15 30  2  0  0  0  0
 16 26  1  0  0  0  0
 16 50  1  0  0  0  0
 16 51  1  0  0  0  0
 16 52  1  0  0  0  0
 17 18  1  0  0  0  0
 17 53  1  0  0  0  0
 17 54  1  0  0  0  0
 18 19  2  0  0  0  0
 18 23  1  0  0  0  0
 19 20  1  0  0  0  0
 19 55  1  0  0  0  0
 20 21  2  0  0  0  0
 20 56  1  0  0  0  0
 21 22  1  0  0  0  0
 21 57  1  0  0  0  0
 22 23  2  0  0  0  0
 22 58  1  0  0  0  0
 23 59  1  0  0  0  0
 24 28  1  0  0  0  0
 24 60  1  0  0  0  0
 25 61  1  0  0  0  0
 26 62  1  0  0  0  0
 28 63  1  0  0  0  0
M  END
>  <DRUGBANK_ID>
DB03880

>  <SECONDARY_ACCESSION_NUMBERS>
EXPT00627

>  <COMMON_NAME>
Batimastat

>  <CAS_NUMBER>
130370-60-4

>  <UNII>
BK349F52C9

>  <SYNONYMS>
Batimastat

$$$$
