ABZ
 OpenBabel10282417072D

 41 44  0  0  0  0  0  0  0  0999 V2000
    1.7414    1.4458    0.0000 C   0  0  0  0  0  0  0  0  0  0  0  0
    1.7414    0.6208    0.0000 C   0  0  0  0  0  0  0  0  0  0  0  0
    1.0269    1.8583    0.0000 C   0  0  0  0  0  0  0  0  0  0  0  0
    0.2423    2.9382    0.0000 N   0  0  0  0  0  0  0  0  0  0  0  0
    1.0269    2.6833    0.0000 C   0  0  0  0  0  0  0  0  0  0  0  0
    1.7414    3.0958    0.0000 C   0  0  0  0  0  0  0  0  0  0  0  0
    2.4559    2.6833    0.0000 C   0  0  0  0  0  0  0  0  0  0  0  0
    2.4559    1.8583    0.0000 C   0  0  0  0  0  0  0  0  0  0  0  0
    0.2423    1.6033    0.0000 C   0  0  0  0  0  0  0  0  0  0  0  0
    1.0269    0.2083    0.0000 C   0  0  0  0  0  0  0  0  0  0  0  0
    1.0269   -0.6167    0.0000 N   0  0  0  0  0  0  0  0  0  0  0  0
    0.3125   -1.0292    0.0000 C   0  0  0  0  0  0  0  0  0  0  0  0
    0.3125   -1.8542    0.0000 N   0  0  0  0  0  0  0  0  0  0  0  0
   -0.4020   -0.6167    0.0000 N   0  0  0  0  0  0  0  0  0  0  0  0
   -0.4020    0.2083    0.0000 C   0  0  0  0  0  0  0  0  0  0  0  0
   -1.1165    0.6208    0.0000 N   0  0  0  0  0  0  0  0  0  0  0  0
    0.3125    0.6208    0.0000 N   0  0  0  0  0  0  0  0  0  0  0  0
   -0.4020   -2.2667    0.0000 C   0  0  0  0  0  0  0  0  0  0  0  0
   -0.4020   -3.0917    0.0000 C   0  0  0  0  0  0  0  0  0  0  0  0
   -1.1165   -3.5042    0.0000 C   0  0  0  0  0  0  0  0  0  0  0  0
   -1.8310   -3.0917    0.0000 C   0  0  0  0  0  0  0  0  0  0  0  0
   -1.8310   -2.2667    0.0000 C   0  0  0  0  0  0  0  0  0  0  0  0
   -1.1165   -1.8542    0.0000 C   0  0  0  0  0  0  0  0  0  0  0  0
   -2.5454   -3.5042    0.0000 C   0  0  0  0  0  0  0  0  0  0  0  0
   -3.2599   -3.9167    0.0000 N   0  0  0  0  0  0  0  0  0  0  0  0
   -0.2426    2.2708    0.0000 C   0  0  0  0  0  0  0  0  0  0  0  0
    3.1703    1.4458    0.0000 Cl  0  0  0  0  0  0  0  0  0  0  0  0
    2.6680    0.0858    0.0000 H   0  0  0  0  0  0  0  0  0  0  0  0
    1.7414   -0.4492    0.0000 H   0  0  0  0  0  0  0  0  0  0  0  0
   -0.0619    3.8745    0.0000 H   0  0  0  0  0  0  0  0  0  0  0  0
    1.7414    4.1278    0.0000 H   0  0  0  0  0  0  0  0  0  0  0  0
    3.3496    3.1993    0.0000 H   0  0  0  0  0  0  0  0  0  0  0  0
   -0.0766    0.6218    0.0000 H   0  0  0  0  0  0  0  0  0  0  0  0
    1.1651   -2.3465    0.0000 H   0  0  0  0  0  0  0  0  0  0  0  0
   -1.1165    1.6053    0.0000 H   0  0  0  0  0  0  0  0  0  0  0  0
   -1.9691    0.1285    0.0000 H   0  0  0  0  0  0  0  0  0  0  0  0
    0.4917   -3.6077    0.0000 H   0  0  0  0  0  0  0  0  0  0  0  0
   -1.1165   -4.5362    0.0000 H   0  0  0  0  0  0  0  0  0  0  0  0
   -2.7247   -1.7507    0.0000 H   0  0  0  0  0  0  0  0  0  0  0  0
   -1.1165   -0.8222    0.0000 H   0  0  0  0  0  0  0  0  0  0  0  0
   -1.2746    2.2708    0.0000 H   0  0  0  0  0  0  0  0  0  0  0  0
  1  2  1  0  0  0  0
  1  3  2  0  0  0  0
  1  8  1  0  0  0  0
  2 10  1  0  0  0  0
  2 28  1  0  0  0  0
  2 29  1  0  0  0  0
  3  5  1  0  0  0  0
  3  9  1  0  0  0  0
  4  5  1  0  0  0  0
  4 26  1  0  0  0  0
  4 30  1  0  0  0  0
  5  6  2  0  0  0  0
  6  7  1  0  0  0  0
  6 31  1  0  0  0  0
  7  8  2  0  0  0  0
  7 32  1  0  0  0  0
  8 27  1  0  0  0  0
  9 26  2  0  0  0  0
  9 33  1  0  0  0  0
 10 11  2  0  0  0  0
 10 17  1  0  0  0  0
 11 12  1  0  0  0  0
 12 13  1  0  0  0  0
 12 14  2  0  0  0  0
 13 18  1  0  0  0  0
 13 34  1  0  0  0  0
 14 15  1  0  0  0  0
 15 16  1  0  0  0  0
 15 17  2  0  0  0  0
 16 35  1  0  0  0  0
 16 36  1  0  0  0  0
 18 19  2  0  0  0  0
 18 23  1  0  0  0  0
 19 20  1  0  0  0  0
 19 37  1  0  0  0  0
 20 21  2  0  0  0  0
 20 38  1  0  0  0  0
 21 22  1  0  0  0  0
 21 24  1  0  0  0  0
 22 23  2  0  0  0  0
 22 39  1  0  0  0  0
 23 40  1  0  0  0  0
 24 25  3  0  0  0  0
 26 41  1  0  0  0  0
M  END
>  <DRUGBANK_ID>
DB07337

>  <COMMON_NAME>
4-[4-AMINO-6-(5-CHLORO-1H-INDOL-4-YLMETHYL)-[1,3,5]TRIAZIN-2-YLAMINO]-BENZONITRILE

$$$$
