S23
 OpenBabel10282417072D

 56 57  0  0  0  0  0  0  0  0999 V2000
   -0.2436   -0.0915    0.0000 O   0  0  0  0  0  0  0  0  0  0  0  0
   -0.9581   -0.5040    0.0000 P   0  0  2  0  0  0  0  0  0  0  0  0
   -1.6725   -0.9165    0.0000 O   0  0  0  0  0  0  0  0  0  0  0  0
   -0.5456   -1.2185    0.0000 C   0  0  1  0  0  0  0  0  0  0  0  0
    0.2794   -1.2185    0.0000 N   0  0  0  0  0  0  0  0  0  0  0  0
   -0.9581   -1.9330    0.0000 C   0  0  0  0  0  0  0  0  0  0  0  0
   -1.3706    0.2104    0.0000 C   0  0  0  0  0  0  0  0  0  0  0  0
   -0.9581    0.9249    0.0000 C   0  0  1  0  0  0  0  0  0  0  0  0
   -1.3706    1.6394    0.0000 C   0  0  0  0  0  0  0  0  0  0  0  0
   -2.1956    1.6394    0.0000 C   0  0  0  0  0  0  0  0  0  0  0  0
   -2.6081    2.3539    0.0000 C   0  0  0  0  0  0  0  0  0  0  0  0
   -3.4331    2.3539    0.0000 C   0  0  0  0  0  0  0  0  0  0  0  0
   -3.8456    1.6394    0.0000 C   0  0  0  0  0  0  0  0  0  0  0  0
   -3.4331    0.9249    0.0000 C   0  0  0  0  0  0  0  0  0  0  0  0
   -2.6081    0.9249    0.0000 C   0  0  0  0  0  0  0  0  0  0  0  0
   -0.1331    0.9249    0.0000 C   0  0  0  0  0  0  0  0  0  0  0  0
    0.2794    1.6394    0.0000 O   0  0  0  0  0  0  0  0  0  0  0  0
    0.2794    0.2104    0.0000 N   0  0  0  0  0  0  0  0  0  0  0  0
    1.1044    0.2104    0.0000 C   0  0  2  0  0  0  0  0  0  0  0  0
    1.5169    0.9249    0.0000 C   0  0  0  0  0  0  0  0  0  0  0  0
    1.1044    1.6394    0.0000 O   0  0  0  0  0  0  0  0  0  0  0  0
    2.3419    0.9249    0.0000 O   0  0  0  0  0  0  0  0  0  0  0  0
    1.5169   -0.5040    0.0000 C   0  0  0  0  0  0  0  0  0  0  0  0
    2.3419   -0.5040    0.0000 C   0  0  0  0  0  0  0  0  0  0  0  0
    2.7544   -1.2185    0.0000 C   0  0  0  0  0  0  0  0  0  0  0  0
    3.5794   -1.2185    0.0000 C   0  0  0  0  0  0  0  0  0  0  0  0
    3.9919   -0.5040    0.0000 C   0  0  0  0  0  0  0  0  0  0  0  0
    3.5794    0.2104    0.0000 C   0  0  0  0  0  0  0  0  0  0  0  0
    2.7544    0.2104    0.0000 C   0  0  0  0  0  0  0  0  0  0  0  0
   -0.2536   -0.7128    0.0000 H   0  0  0  0  0  0  0  0  0  0  0  0
   -0.6661    0.4192    0.0000 H   0  0  0  0  0  0  0  0  0  0  0  0
    0.8125   -0.2953    0.0000 H   0  0  0  0  0  0  0  0  0  0  0  0
   -2.5126   -0.4315    0.0000 H   0  0  0  0  0  0  0  0  0  0  0  0
    0.7894   -2.1018    0.0000 H   0  0  0  0  0  0  0  0  0  0  0  0
    0.7894   -0.3352    0.0000 H   0  0  0  0  0  0  0  0  0  0  0  0
   -2.0281   -1.9330    0.0000 H   0  0  0  0  0  0  0  0  0  0  0  0
   -0.4231   -2.8596    0.0000 H   0  0  0  0  0  0  0  0  0  0  0  0
   -1.4931   -2.8597    0.0000 H   0  0  0  0  0  0  0  0  0  0  0  0
   -2.4406    0.2104    0.0000 H   0  0  0  0  0  0  0  0  0  0  0  0
   -1.9056    1.1370    0.0000 H   0  0  0  0  0  0  0  0  0  0  0  0
   -0.8356    2.5660    0.0000 H   0  0  0  0  0  0  0  0  0  0  0  0
   -1.9056    2.5660    0.0000 H   0  0  0  0  0  0  0  0  0  0  0  0
   -2.0921    3.2476    0.0000 H   0  0  0  0  0  0  0  0  0  0  0  0
   -3.9491    3.2476    0.0000 H   0  0  0  0  0  0  0  0  0  0  0  0
   -4.8776    1.6394    0.0000 H   0  0  0  0  0  0  0  0  0  0  0  0
   -3.9491    0.0312    0.0000 H   0  0  0  0  0  0  0  0  0  0  0  0
   -2.0921    0.0312    0.0000 H   0  0  0  0  0  0  0  0  0  0  0  0
   -0.2129   -0.6422    0.0000 H   0  0  0  0  0  0  0  0  0  0  0  0
    2.8104    0.1134    0.0000 H   0  0  0  0  0  0  0  0  0  0  0  0
    0.9819   -1.4307    0.0000 H   0  0  0  0  0  0  0  0  0  0  0  0
    2.0519   -1.4306    0.0000 H   0  0  0  0  0  0  0  0  0  0  0  0
    2.2384   -2.1122    0.0000 H   0  0  0  0  0  0  0  0  0  0  0  0
    4.0954   -2.1122    0.0000 H   0  0  0  0  0  0  0  0  0  0  0  0
    5.0239   -0.5040    0.0000 H   0  0  0  0  0  0  0  0  0  0  0  0
    4.0954    1.1041    0.0000 H   0  0  0  0  0  0  0  0  0  0  0  0
    2.2384    1.1041    0.0000 H   0  0  0  0  0  0  0  0  0  0  0  0
  2  1  2  1  0  0  0
  2  3  1  0  0  0  0
  2  4  1  0  0  0  0
  2  7  1  0  0  0  0
  3 33  1  0  0  0  0
  4  5  1  0  0  0  0
  4  6  1  0  0  0  0
  4 30  1  6  0  0  0
  5 34  1  0  0  0  0
  5 35  1  0  0  0  0
  6 36  1  0  0  0  0
  6 37  1  0  0  0  0
  6 38  1  0  0  0  0
  7 39  1  0  0  0  0
  7 40  1  0  0  0  0
  8  7  1  0  0  0  0
  8 16  1  0  0  0  0
  8 31  1  6  0  0  0
  8  9  1  0  0  0  0
  9 41  1  0  0  0  0
  9 42  1  0  0  0  0
 10  9  1  0  0  0  0
 11 10  1  0  0  0  0
 11 43  1  0  0  0  0
 12 11  2  0  0  0  0
 12 44  1  0  0  0  0
 13 12  1  0  0  0  0
 13 14  2  0  0  0  0
 13 45  1  0  0  0  0
 14 15  1  0  0  0  0
 14 46  1  0  0  0  0
 15 10  2  0  0  0  0
 15 47  1  0  0  0  0
 16 18  1  0  0  0  0
 17 16  2  0  0  0  0
 18 48  1  0  0  0  0
 19 18  1  0  0  0  0
 19 23  1  0  0  0  0
 19 32  1  1  0  0  0
 20 19  1  0  0  0  0
 20 22  1  0  0  0  0
 21 20  2  0  0  0  0
 22 49  1  0  0  0  0
 23 24  1  0  0  0  0
 23 50  1  0  0  0  0
 23 51  1  0  0  0  0
 24 29  1  0  0  0  0
 25 24  2  0  0  0  0
 25 26  1  0  0  0  0
 25 52  1  0  0  0  0
 26 27  2  0  0  0  0
 26 53  1  0  0  0  0
 27 28  1  0  0  0  0
 27 54  1  0  0  0  0
 28 55  1  0  0  0  0
 29 28  2  0  0  0  0
 29 56  1  0  0  0  0
M  END
>  <DRUGBANK_ID>
DB08506

>  <COMMON_NAME>
N-{(2S)-3-[(1R)-1-aminoethyl](hydroxy)phosphoryl-2-benzylpropanoyl}-L-phenylalanine

$$$$
