
 OpenBabel10282417072D

 53 56  0  0  0  0  0  0  0  0999 V2000
   -3.7343    0.0337    0.0000 C   0  0  0  0  0  0  0  0  0  0  0  0
   -4.4488   -0.3787    0.0000 C   0  0  0  0  0  0  0  0  0  0  0  0
   -4.4488   -1.2038    0.0000 C   0  0  0  0  0  0  0  0  0  0  0  0
   -3.7343   -1.6162    0.0000 C   0  0  0  0  0  0  0  0  0  0  0  0
   -3.0198   -1.2038    0.0000 C   0  0  0  0  0  0  0  0  0  0  0  0
   -3.0198   -0.3787    0.0000 C   0  0  0  0  0  0  0  0  0  0  0  0
   -2.3053    0.0337    0.0000 S   0  0  0  0  0  0  0  0  0  0  0  0
   -1.5908   -0.3787    0.0000 C   0  0  0  0  0  0  0  0  0  0  0  0
   -0.8763    0.0337    0.0000 C   0  0  0  0  0  0  0  0  0  0  0  0
   -0.1617   -0.3787    0.0000 C   0  0  0  0  0  0  0  0  0  0  0  0
    0.5527    0.0337    0.0000 C   0  0  0  0  0  0  0  0  0  0  0  0
   -0.1617   -1.2038    0.0000 C   0  0  0  0  0  0  0  0  0  0  0  0
    0.5527   -1.6163    0.0000 C   0  0  0  0  0  0  0  0  0  0  0  0
    1.2672   -1.2038    0.0000 C   0  0  0  0  0  0  0  0  0  0  0  0
    1.2672   -0.3787    0.0000 C   0  0  0  0  0  0  0  0  0  0  0  0
    2.0519   -0.1237    0.0000 C   0  0  0  0  0  0  0  0  0  0  0  0
    2.0519   -1.4587    0.0000 N   0  0  0  0  0  0  0  0  0  0  0  0
    2.5369   -0.7912    0.0000 C   0  0  0  0  0  0  0  0  0  0  0  0
    2.3068    0.6608    0.0000 C   0  0  0  0  0  0  0  0  0  0  0  0
    3.1138    0.8324    0.0000 C   0  0  2  0  0  0  0  0  0  0  0  0
    4.4488    0.8283    0.0000 C   0  0  0  0  0  0  0  0  0  0  0  0
    3.7798    0.3454    0.0000 N   0  0  0  0  0  0  0  0  0  0  0  0
    3.3712    1.6163    0.0000 C   0  0  0  0  0  0  0  0  0  0  0  0
    4.1962    1.6138    0.0000 C   0  0  0  0  0  0  0  0  0  0  0  0
    3.7774   -0.4796    0.0000 C   0  0  0  0  0  0  0  0  0  0  0  0
   -1.8861    0.7525    0.0000 O   0  0  0  0  0  0  0  0  0  0  0  0
   -2.7111    0.7525    0.0000 O   0  0  0  0  0  0  0  0  0  0  0  0
   -3.7343    1.0657    0.0000 H   0  0  0  0  0  0  0  0  0  0  0  0
   -5.3425    0.1374    0.0000 H   0  0  0  0  0  0  0  0  0  0  0  0
   -5.3425   -1.7199    0.0000 H   0  0  0  0  0  0  0  0  0  0  0  0
   -3.7343   -2.6482    0.0000 H   0  0  0  0  0  0  0  0  0  0  0  0
   -2.1261   -1.7199    0.0000 H   0  0  0  0  0  0  0  0  0  0  0  0
   -1.5908   -1.4487    0.0000 H   0  0  0  0  0  0  0  0  0  0  0  0
   -0.6642   -0.9138    0.0000 H   0  0  0  0  0  0  0  0  0  0  0  0
   -0.8763    1.1037    0.0000 H   0  0  0  0  0  0  0  0  0  0  0  0
    0.0503    0.5688    0.0000 H   0  0  0  0  0  0  0  0  0  0  0  0
    0.5527    1.0657    0.0000 H   0  0  0  0  0  0  0  0  0  0  0  0
   -1.0554   -1.7198    0.0000 H   0  0  0  0  0  0  0  0  0  0  0  0
    0.5527   -2.6483    0.0000 H   0  0  0  0  0  0  0  0  0  0  0  0
    2.3561   -2.3950    0.0000 H   0  0  0  0  0  0  0  0  0  0  0  0
    3.5689   -0.7912    0.0000 H   0  0  0  0  0  0  0  0  0  0  0  0
    1.5908    1.4559    0.0000 H   0  0  0  0  0  0  0  0  0  0  0  0
    2.6374    1.6785    0.0000 H   0  0  0  0  0  0  0  0  0  0  0  0
    2.8898   -0.2139    0.0000 H   0  0  0  0  0  0  0  0  0  0  0  0
    5.4654    0.4945    0.0000 H   0  0  0  0  0  0  0  0  0  0  0  0
    5.2077    1.5826    0.0000 H   0  0  0  0  0  0  0  0  0  0  0  0
    2.7449    2.4839    0.0000 H   0  0  0  0  0  0  0  0  0  0  0  0
    3.8599    2.5682    0.0000 H   0  0  0  0  0  0  0  0  0  0  0  0
    4.8277    2.4775    0.0000 H   0  0  0  0  0  0  0  0  0  0  0  0
    3.7133    2.5686    0.0000 H   0  0  0  0  0  0  0  0  0  0  0  0
    2.8492   -1.0119    0.0000 H   0  0  0  0  0  0  0  0  0  0  0  0
    4.7025   -1.0173    0.0000 H   0  0  0  0  0  0  0  0  0  0  0  0
    3.7743   -1.5496    0.0000 H   0  0  0  0  0  0  0  0  0  0  0  0
  1  2  2  0  0  0  0
  1  6  1  0  0  0  0
  1 28  1  0  0  0  0
  2  3  1  0  0  0  0
  2 29  1  0  0  0  0
  3  4  2  0  0  0  0
  3 30  1  0  0  0  0
  4  5  1  0  0  0  0
  4 31  1  0  0  0  0
  5  6  2  0  0  0  0
  5 32  1  0  0  0  0
  6  7  1  0  0  0  0
  7  8  1  0  0  0  0
  7 26  2  0  0  0  0
  7 27  2  0  0  0  0
  8  9  1  0  0  0  0
  8 33  1  0  0  0  0
  8 34  1  0  0  0  0
  9 10  1  0  0  0  0
  9 35  1  0  0  0  0
  9 36  1  0  0  0  0
 10 12  1  0  0  0  0
 11 10  2  0  0  0  0
 11 15  1  0  0  0  0
 11 37  1  0  0  0  0
 12 13  2  0  0  0  0
 12 38  1  0  0  0  0
 13 14  1  0  0  0  0
 13 39  1  0  0  0  0
 14 17  1  0  0  0  0
 14 15  2  0  0  0  0
 16 15  1  0  0  0  0
 16 18  2  0  0  0  0
 16 19  1  0  0  0  0
 17 18  1  0  0  0  0
 17 40  1  0  0  0  0
 18 41  1  0  0  0  0
 19 42  1  0  0  0  0
 19 43  1  0  0  0  0
 20 19  1  0  0  0  0
 20 23  1  0  0  0  0
 20 44  1  6  0  0  0
 21 22  1  0  0  0  0
 21 24  1  0  0  0  0
 21 45  1  0  0  0  0
 21 46  1  0  0  0  0
 22 20  1  0  0  0  0
 22 25  1  0  0  0  0
 23 24  1  0  0  0  0
 23 47  1  0  0  0  0
 23 48  1  0  0  0  0
 24 49  1  0  0  0  0
 24 50  1  0  0  0  0
 25 51  1  0  0  0  0
 25 52  1  0  0  0  0
 25 53  1  0  0  0  0
M  END
>  <DRUGBANK_ID>
DB00216

>  <SECONDARY_ACCESSION_NUMBERS>
APRD00945

>  <COMMON_NAME>
Eletriptan

>  <CAS_NUMBER>
143322-58-1

>  <UNII>
22QOO9B8KI

>  <SYNONYMS>
Eletriptan; élétriptan; Eletriptán; Eletriptanum

$$$$
