
 OpenBabel10282417072D

 50 52  0  0  0  0  0  0  0  0999 V2000
   -1.8001   -1.6502    0.0000 F   0  0  0  0  0  0  0  0  0  0  0  0
    1.0950    1.6551    0.0000 O   0  0  0  0  0  0  0  0  0  0  0  0
    1.0950    0.0000    0.0000 O   0  0  0  0  0  0  0  0  0  0  0  0
   -1.8001    1.6551    0.0000 O   0  0  0  0  0  0  0  0  0  0  0  0
    0.3499   -2.0652    0.0000 O   0  0  0  0  0  0  0  0  0  0  0  0
    2.5002    0.8300    0.0000 N   0  0  0  0  0  0  0  0  0  0  0  0
    0.3499    0.4150    0.0000 C   0  0  1  0  0  0  0  0  0  0  0  0
    1.0950    0.8300    0.0000 C   0  0  2  0  0  0  0  0  0  0  0  0
    0.3499   -0.4100    0.0000 C   0  0  0  0  0  0  0  0  0  0  0  0
   -0.3499    0.8300    0.0000 C   0  0  0  0  0  0  0  0  0  0  0  0
   -1.0550    0.4150    0.0000 C   0  0  0  0  0  0  0  0  0  0  0  0
    1.8001    0.4150    0.0000 C   0  0  0  0  0  0  0  0  0  0  0  0
   -0.3499   -0.8251    0.0000 C   0  0  0  0  0  0  0  0  0  0  0  0
    1.0950   -0.8251    0.0000 C   0  0  0  0  0  0  0  0  0  0  0  0
   -1.8001    0.8300    0.0000 C   0  0  0  0  0  0  0  0  0  0  0  0
   -1.0550   -0.4100    0.0000 C   0  0  0  0  0  0  0  0  0  0  0  0
    1.8001    2.0652    0.0000 C   0  0  0  0  0  0  0  0  0  0  0  0
   -1.8001   -0.8251    0.0000 C   0  0  0  0  0  0  0  0  0  0  0  0
    2.5002    1.6551    0.0000 C   0  0  0  0  0  0  0  0  0  0  0  0
   -2.5002    0.4150    0.0000 C   0  0  0  0  0  0  0  0  0  0  0  0
    1.0950   -1.6502    0.0000 C   0  0  0  0  0  0  0  0  0  0  0  0
   -0.3499   -1.6502    0.0000 C   0  0  0  0  0  0  0  0  0  0  0  0
   -2.5002   -0.4100    0.0000 C   0  0  0  0  0  0  0  0  0  0  0  0
   -1.0550    2.0652    0.0000 C   0  0  0  0  0  0  0  0  0  0  0  0
    0.3499    1.2401    0.0000 H   0  0  0  0  0  0  0  0  0  0  0  0
    1.1100   -0.9699    0.0000 H   0  0  0  0  0  0  0  0  0  0  0  0
    3.3865    0.3251    0.0000 H   0  0  0  0  0  0  0  0  0  0  0  0
    0.3644   -1.4799    0.0000 H   0  0  0  0  0  0  0  0  0  0  0  0
   -0.3481    1.9000    0.0000 H   0  0  0  0  0  0  0  0  0  0  0  0
   -1.2783    1.3619    0.0000 H   0  0  0  0  0  0  0  0  0  0  0  0
    1.8018   -0.6550    0.0000 H   0  0  0  0  0  0  0  0  0  0  0  0
    0.8716   -0.1168    0.0000 H   0  0  0  0  0  0  0  0  0  0  0  0
   -1.2797   -0.2956    0.0000 H   0  0  0  0  0  0  0  0  0  0  0  0
   -1.2750   -1.3628    0.0000 H   0  0  0  0  0  0  0  0  0  0  0  0
    2.0175   -0.2830    0.0000 H   0  0  0  0  0  0  0  0  0  0  0  0
    2.0237   -1.3565    0.0000 H   0  0  0  0  0  0  0  0  0  0  0  0
   -0.1652   -0.9328    0.0000 H   0  0  0  0  0  0  0  0  0  0  0  0
    1.8018    3.1352    0.0000 H   0  0  0  0  0  0  0  0  0  0  0  0
    2.7288    2.5966    0.0000 H   0  0  0  0  0  0  0  0  0  0  0  0
    3.4285    2.1872    0.0000 H   0  0  0  0  0  0  0  0  0  0  0  0
    2.5053    2.7251    0.0000 H   0  0  0  0  0  0  0  0  0  0  0  0
   -3.3969    0.9259    0.0000 H   0  0  0  0  0  0  0  0  0  0  0  0
    2.0175   -2.1923    0.0000 H   0  0  0  0  0  0  0  0  0  0  0  0
    2.0237   -1.1188    0.0000 H   0  0  0  0  0  0  0  0  0  0  0  0
   -1.2797   -2.1798    0.0000 H   0  0  0  0  0  0  0  0  0  0  0  0
   -1.2750   -1.1125    0.0000 H   0  0  0  0  0  0  0  0  0  0  0  0
   -3.3969   -0.9208    0.0000 H   0  0  0  0  0  0  0  0  0  0  0  0
   -0.1395    1.5114    0.0000 H   0  0  0  0  0  0  0  0  0  0  0  0
   -1.0331    3.1350    0.0000 H   0  0  0  0  0  0  0  0  0  0  0  0
   -0.1176    2.5811    0.0000 H   0  0  0  0  0  0  0  0  0  0  0  0
  1 18  1  0  0  0  0
  2  8  1  0  0  0  0
  2 17  1  0  0  0  0
  3 26  1  0  0  0  0
  4 15  1  0  0  0  0
  4 24  1  0  0  0  0
  5 21  1  0  0  0  0
  5 22  1  0  0  0  0
  6 12  1  0  0  0  0
  6 19  1  0  0  0  0
  6 27  1  0  0  0  0
  7  3  1  1  0  0  0
  7  8  1  0  0  0  0
  7  9  1  0  0  0  0
  7 10  1  0  0  0  0
  8 12  1  0  0  0  0
  8 25  1  6  0  0  0
  9 13  1  0  0  0  0
  9 14  1  0  0  0  0
  9 28  1  0  0  0  0
 10 11  1  0  0  0  0
 10 29  1  0  0  0  0
 10 30  1  0  0  0  0
 11 15  2  0  0  0  0
 11 16  1  0  0  0  0
 12 31  1  0  0  0  0
 12 32  1  0  0  0  0
 13 22  1  0  0  0  0
 13 33  1  0  0  0  0
 13 34  1  0  0  0  0
 14 21  1  0  0  0  0
 14 35  1  0  0  0  0
 14 36  1  0  0  0  0
 15 20  1  0  0  0  0
 16 18  2  0  0  0  0
 16 37  1  0  0  0  0
 17 19  1  0  0  0  0
 17 38  1  0  0  0  0
 17 39  1  0  0  0  0
 18 23  1  0  0  0  0
 19 40  1  0  0  0  0
 19 41  1  0  0  0  0
 20 23  2  0  0  0  0
 20 42  1  0  0  0  0
 21 43  1  0  0  0  0
 21 44  1  0  0  0  0
 22 45  1  0  0  0  0
 22 46  1  0  0  0  0
 23 47  1  0  0  0  0
 24 48  1  0  0  0  0
 24 49  1  0  0  0  0
 24 50  1  0  0  0  0
M  END
>  <DRUGBANK_ID>
DB09184

>  <COMMON_NAME>
Edivoxetine

>  <CAS_NUMBER>
1194508-25-2

>  <UNII>
3W9N3F4JOO

>  <SYNONYMS>
Edivoxetine

$$$$
