
 OpenBabel10282417072D

 58 61  0  0  1  0  0  0  0  0999 V2000
   -2.1434    2.0625    0.0000 C   0  0  0  0  0  0  0  0  0  0  0  0
   -2.8579    1.6500    0.0000 C   0  0  0  0  0  0  0  0  0  0  0  0
   -2.8579    0.8250    0.0000 C   0  0  0  0  0  0  0  0  0  0  0  0
   -3.5724    0.4125    0.0000 O   0  0  0  0  0  0  0  0  0  0  0  0
   -2.1434    0.4125    0.0000 N   0  0  0  0  0  0  0  0  0  0  0  0
   -1.4289    0.8250    0.0000 C   0  0  0  0  0  0  0  0  0  0  0  0
   -1.4289    1.6500    0.0000 C   0  0  0  0  0  0  0  0  0  0  0  0
   -0.7145    2.0625    0.0000 C   0  0  0  0  0  0  0  0  0  0  0  0
    0.0000    1.6500    0.0000 C   0  0  0  0  0  0  0  0  0  0  0  0
    0.0000    0.8250    0.0000 C   0  0  0  0  0  0  0  0  0  0  0  0
   -0.7145    0.4125    0.0000 C   0  0  0  0  0  0  0  0  0  0  0  0
    0.7145    2.0625    0.0000 O   0  0  0  0  0  0  0  0  0  0  0  0
    1.4289    1.6500    0.0000 C   0  0  0  0  0  0  0  0  0  0  0  0
    2.1434    2.0625    0.0000 C   0  0  0  0  0  0  0  0  0  0  0  0
    2.8579    1.6500    0.0000 C   0  0  0  0  0  0  0  0  0  0  0  0
    3.5724    2.0625    0.0000 N   0  0  0  0  0  0  0  0  0  0  0  0
    4.2868    1.6500    0.0000 C   0  0  0  0  0  0  0  0  0  0  0  0
    4.2868    0.8250    0.0000 O   0  0  0  0  0  0  0  0  0  0  0  0
    5.0013    2.0625    0.0000 N   0  0  0  0  0  0  0  0  0  0  0  0
    5.7158    1.6500    0.0000 C   0  0  2  0  0  0  0  0  0  0  0  0
    6.4302    2.0625    0.0000 C   0  0  0  0  0  0  0  0  0  0  0  0
    7.1447    1.6500    0.0000 C   0  0  0  0  0  0  0  0  0  0  0  0
    7.1447    0.8250    0.0000 C   0  0  0  0  0  0  0  0  0  0  0  0
    6.4302    0.4125    0.0000 C   0  0  0  0  0  0  0  0  0  0  0  0
    5.7158    0.8250    0.0000 C   0  0  1  0  0  0  0  0  0  0  0  0
    5.0013    0.4125    0.0000 O   0  0  0  0  0  0  0  0  0  0  0  0
    5.0013    2.8875    0.0000 C   0  0  0  0  0  0  0  0  0  0  0  0
    4.5888    3.6020    0.0000 C   0  0  0  0  0  0  0  0  0  0  0  0
    5.4138    3.6020    0.0000 C   0  0  0  0  0  0  0  0  0  0  0  0
   -2.1434    3.0945    0.0000 H   0  0  0  0  0  0  0  0  0  0  0  0
   -3.7516    2.1660    0.0000 H   0  0  0  0  0  0  0  0  0  0  0  0
   -2.1434   -0.5720    0.0000 H   0  0  0  0  0  0  0  0  0  0  0  0
   -0.7145    3.0945    0.0000 H   0  0  0  0  0  0  0  0  0  0  0  0
    0.8937    0.3090    0.0000 H   0  0  0  0  0  0  0  0  0  0  0  0
   -0.7145   -0.6195    0.0000 H   0  0  0  0  0  0  0  0  0  0  0  0
    1.4289    0.5800    0.0000 H   0  0  0  0  0  0  0  0  0  0  0  0
    2.3555    1.1150    0.0000 H   0  0  0  0  0  0  0  0  0  0  0  0
    2.1434    3.1325    0.0000 H   0  0  0  0  0  0  0  0  0  0  0  0
    3.0700    2.5975    0.0000 H   0  0  0  0  0  0  0  0  0  0  0  0
    2.8579    0.5800    0.0000 H   0  0  0  0  0  0  0  0  0  0  0  0
    3.7845    1.1150    0.0000 H   0  0  0  0  0  0  0  0  0  0  0  0
    3.5724    3.0470    0.0000 H   0  0  0  0  0  0  0  0  0  0  0  0
    5.7158    2.7200    0.0000 H   0  0  0  0  0  0  0  0  0  0  0  0
    6.4302    3.1325    0.0000 H   0  0  0  0  0  0  0  0  0  0  0  0
    7.3568    2.5975    0.0000 H   0  0  0  0  0  0  0  0  0  0  0  0
    8.0713    2.1850    0.0000 H   0  0  0  0  0  0  0  0  0  0  0  0
    8.0713    1.1150    0.0000 H   0  0  0  0  0  0  0  0  0  0  0  0
    8.0713    0.2900    0.0000 H   0  0  0  0  0  0  0  0  0  0  0  0
    7.1447   -0.2450    0.0000 H   0  0  0  0  0  0  0  0  0  0  0  0
    6.4302   -0.6575    0.0000 H   0  0  0  0  0  0  0  0  0  0  0  0
    5.5035   -0.1225    0.0000 H   0  0  0  0  0  0  0  0  0  0  0  0
    5.7158   -0.2450    0.0000 H   0  0  0  0  0  0  0  0  0  0  0  0
    4.1613    0.8975    0.0000 H   0  0  0  0  0  0  0  0  0  0  0  0
    5.0013    3.9575    0.0000 H   0  0  0  0  0  0  0  0  0  0  0  0
    3.6622    4.1370    0.0000 H   0  0  0  0  0  0  0  0  0  0  0  0
    4.8657    4.6355    0.0000 H   0  0  0  0  0  0  0  0  0  0  0  0
    6.3404    4.1370    0.0000 H   0  0  0  0  0  0  0  0  0  0  0  0
    6.1704    2.8454    0.0000 H   0  0  0  0  0  0  0  0  0  0  0  0
  1  2  2  0  0  0  0
  1  7  1  0  0  0  0
  1 30  1  0  0  0  0
  2  3  1  0  0  0  0
  2 31  1  0  0  0  0
  3  4  2  0  0  0  0
  3  5  1  0  0  0  0
  5  6  1  0  0  0  0
  5 32  1  0  0  0  0
  6  7  1  0  0  0  0
  6 11  2  0  0  0  0
  7  8  2  0  0  0  0
  8  9  1  0  0  0  0
  8 33  1  0  0  0  0
  9 10  2  0  0  0  0
  9 12  1  0  0  0  0
 10 11  1  0  0  0  0
 10 34  1  0  0  0  0
 11 35  1  0  0  0  0
 12 13  1  0  0  0  0
 13 14  1  0  0  0  0
 13 36  1  0  0  0  0
 13 37  1  0  0  0  0
 14 15  1  0  0  0  0
 14 38  1  0  0  0  0
 14 39  1  0  0  0  0
 15 16  1  0  0  0  0
 15 40  1  0  0  0  0
 15 41  1  0  0  0  0
 16 17  1  0  0  0  0
 16 42  1  0  0  0  0
 17 18  2  0  0  0  0
 17 19  1  0  0  0  0
 19 27  1  0  0  0  0
 20 19  1  0  0  0  0
 20 21  1  0  0  0  0
 20 25  1  0  0  0  0
 20 43  1  1  0  0  0
 21 22  1  0  0  0  0
 21 44  1  0  0  0  0
 21 45  1  0  0  0  0
 22 23  1  0  0  0  0
 22 46  1  0  0  0  0
 22 47  1  0  0  0  0
 23 24  1  0  0  0  0
 23 48  1  0  0  0  0
 23 49  1  0  0  0  0
 24 25  1  0  0  0  0
 24 50  1  0  0  0  0
 24 51  1  0  0  0  0
 25 26  1  0  0  0  0
 25 52  1  6  0  0  0
 26 53  1  0  0  0  0
 27 28  1  0  0  0  0
 27 29  1  0  0  0  0
 27 54  1  0  0  0  0
 28 29  1  0  0  0  0
 28 55  1  0  0  0  0
 28 56  1  0  0  0  0
 29 57  1  0  0  0  0
 29 58  1  0  0  0  0
M  END
>  <DRUGBANK_ID>
DB12685

>  <COMMON_NAME>
K-134

>  <CAS_NUMBER>
189362-06-9

>  <UNII>
J9J6NK6W4U

$$$$
