PNB
 OpenBabel10282417072D

 41 41  0  0  0  0  0  0  0  0999 V2000
   -4.7623    0.7704    0.0000 N   0  3  0  0  0  0  0  0  0  0  0  0
   -4.8801    1.5870    0.0000 O   0  0  0  0  0  0  0  0  0  0  0  0
   -5.4105    0.2601    0.0000 O   0  5  0  0  0  0  0  0  0  0  0  0
   -2.4641   -0.1482    0.0000 C   0  0  0  0  0  0  0  0  0  0  0  0
   -3.1123   -0.6585    0.0000 C   0  0  0  0  0  0  0  0  0  0  0  0
   -3.8784   -0.3523    0.0000 C   0  0  0  0  0  0  0  0  0  0  0  0
   -3.9962    0.4642    0.0000 C   0  0  0  0  0  0  0  0  0  0  0  0
   -3.3480    0.9746    0.0000 C   0  0  0  0  0  0  0  0  0  0  0  0
   -2.5819    0.6684    0.0000 C   0  0  0  0  0  0  0  0  0  0  0  0
   -1.6980   -0.4544    0.0000 C   0  0  0  0  0  0  0  0  0  0  0  0
   -1.0498    0.0560    0.0000 O   0  0  0  0  0  0  0  0  0  0  0  0
   -0.2837   -0.2502    0.0000 P   0  0  1  0  0  0  0  0  0  0  0  0
   -0.5899   -1.0163    0.0000 O   0  0  0  0  0  0  0  0  0  0  0  0
    0.0225    0.5158    0.0000 O   0  0  0  0  0  0  0  0  0  0  0  0
    0.4824   -0.5564    0.0000 C   0  0  0  0  0  0  0  0  0  0  0  0
    1.1306   -0.0461    0.0000 C   0  0  0  0  0  0  0  0  0  0  0  0
    1.8966   -0.3523    0.0000 C   0  0  0  0  0  0  0  0  0  0  0  0
    2.5449    0.1580    0.0000 C   0  0  0  0  0  0  0  0  0  0  0  0
    2.4270    0.9746    0.0000 O   0  0  0  0  0  0  0  0  0  0  0  0
    3.3109   -0.1482    0.0000 N   0  0  0  0  0  0  0  0  0  0  0  0
    3.9591    0.3622    0.0000 C   0  0  0  0  0  0  0  0  0  0  0  0
    4.7252    0.0560    0.0000 C   0  0  0  0  0  0  0  0  0  0  0  0
    5.3734    0.5663    0.0000 O   0  0  0  0  0  0  0  0  0  0  0  0
    4.8431   -0.7606    0.0000 O   0  0  0  0  0  0  0  0  0  0  0  0
   -2.9649   -1.6799    0.0000 H   0  0  0  0  0  0  0  0  0  0  0  0
   -4.6893   -0.9907    0.0000 H   0  0  0  0  0  0  0  0  0  0  0  0
   -3.4955    1.9960    0.0000 H   0  0  0  0  0  0  0  0  0  0  0  0
   -1.7710    1.3068    0.0000 H   0  0  0  0  0  0  0  0  0  0  0  0
   -1.5451   -1.5134    0.0000 H   0  0  0  0  0  0  0  0  0  0  0  0
   -0.7044   -0.8515    0.0000 H   0  0  0  0  0  0  0  0  0  0  0  0
    0.9826    0.6543    0.0000 H   0  0  0  0  0  0  0  0  0  0  0  0
    0.6353   -1.6154    0.0000 H   0  0  0  0  0  0  0  0  0  0  0  0
    1.4760   -0.9535    0.0000 H   0  0  0  0  0  0  0  0  0  0  0  0
    0.9778    1.0129    0.0000 H   0  0  0  0  0  0  0  0  0  0  0  0
    1.9713    0.6158    0.0000 H   0  0  0  0  0  0  0  0  0  0  0  0
    2.0494   -1.4113    0.0000 H   0  0  0  0  0  0  0  0  0  0  0  0
    2.8901   -0.7495    0.0000 H   0  0  0  0  0  0  0  0  0  0  0  0
    3.4516   -1.1226    0.0000 H   0  0  0  0  0  0  0  0  0  0  0  0
    3.8062    1.4212    0.0000 H   0  0  0  0  0  0  0  0  0  0  0  0
    4.7998    1.0241    0.0000 H   0  0  0  0  0  0  0  0  0  0  0  0
    4.1069   -1.3402    0.0000 H   0  0  0  0  0  0  0  0  0  0  0  0
  1  2  2  0  0  0  0
  1  3  1  0  0  0  0
  1  7  1  0  0  0  0
  4  5  2  0  0  0  0
  4  9  1  0  0  0  0
  4 10  1  0  0  0  0
  5  6  1  0  0  0  0
  5 25  1  0  0  0  0
  6  7  2  0  0  0  0
  6 26  1  0  0  0  0
  7  8  1  0  0  0  0
  8  9  2  0  0  0  0
  8 27  1  0  0  0  0
  9 28  1  0  0  0  0
 10 11  1  0  0  0  0
 10 29  1  0  0  0  0
 10 30  1  0  0  0  0
 12 11  1  0  0  0  0
 12 13  2  6  0  0  0
 12 14  1  0  0  0  0
 12 15  1  0  0  0  0
 14 31  1  0  0  0  0
 15 16  1  0  0  0  0
 15 32  1  0  0  0  0
 15 33  1  0  0  0  0
 16 17  1  0  0  0  0
 16 34  1  0  0  0  0
 16 35  1  0  0  0  0
 17 18  1  0  0  0  0
 17 36  1  0  0  0  0
 17 37  1  0  0  0  0
 18 19  2  0  0  0  0
 18 20  1  0  0  0  0
 20 21  1  0  0  0  0
 20 38  1  0  0  0  0
 21 22  1  0  0  0  0
 21 39  1  0  0  0  0
 21 40  1  0  0  0  0
 22 23  2  0  0  0  0
 22 24  1  0  0  0  0
 24 41  1  0  0  0  0
M  CHG  2   1   1   3  -1
M  END
>  <DRUGBANK_ID>
DB08409

>  <COMMON_NAME>
4-NITRO-BENZYLPHOSPHONOBUTANOYL-GLYCINE

$$$$
