PC(16:0/16:0)
 OpenBabel10282417072D

130129  0  0  1  0  0  0  0  0999 V2000
   17.2908  -10.1901    0.0000 C   0  0  0  0  0  0  0  0  0  0  0  0
   16.5855  -10.5973    0.0000 C   0  0  1  0  0  0  0  0  0  0  0  0
   15.8804  -10.1901    0.0000 C   0  0  0  0  0  0  0  0  0  0  0  0
   17.9959  -10.5973    0.0000 O   0  0  0  0  0  0  0  0  0  0  0  0
   15.1752  -10.5973    0.0000 O   0  0  0  0  0  0  0  0  0  0  0  0
   16.5855  -11.4116    0.0000 O   0  0  0  0  0  0  0  0  0  0  0  0
   18.7012  -10.1901    0.0000 P   0  0  3  0  0  0  0  0  0  0  0  0
   19.1084  -10.8954    0.0000 O   0  5  0  0  0  0  0  0  0  0  0  0
   18.2941   -9.4849    0.0000 O   0  0  0  0  0  0  0  0  0  0  0  0
   19.4063   -9.7829    0.0000 O   0  0  0  0  0  0  0  0  0  0  0  0
   20.1115  -10.1901    0.0000 C   0  0  0  0  0  0  0  0  0  0  0  0
   20.8167   -9.7829    0.0000 C   0  0  0  0  0  0  0  0  0  0  0  0
   21.5219  -10.1901    0.0000 N   0  3  0  0  0  0  0  0  0  0  0  0
   21.1147  -10.8954    0.0000 C   0  0  0  0  0  0  0  0  0  0  0  0
   22.1746   -9.3375    0.0000 C   0  0  0  0  0  0  0  0  0  0  0  0
   22.2272  -10.5973    0.0000 C   0  0  0  0  0  0  0  0  0  0  0  0
   17.3747  -11.1477    0.0000 H   0  0  0  0  0  0  0  0  0  0  0  0
   14.4607  -10.1849    0.0000 C   0  0  0  0  0  0  0  0  0  0  0  0
   14.4607   -9.4134    0.0000 O   0  0  0  0  0  0  0  0  0  0  0  0
   13.7465  -10.5980    0.0000 C   0  0  0  0  0  0  0  0  0  0  0  0
   13.0324  -10.1849    0.0000 C   0  0  0  0  0  0  0  0  0  0  0  0
   12.3182  -10.5980    0.0000 C   0  0  0  0  0  0  0  0  0  0  0  0
   11.6041  -10.1849    0.0000 C   0  0  0  0  0  0  0  0  0  0  0  0
   10.8899  -10.5980    0.0000 C   0  0  0  0  0  0  0  0  0  0  0  0
   10.1758  -10.1849    0.0000 C   0  0  0  0  0  0  0  0  0  0  0  0
    9.4617  -10.5980    0.0000 C   0  0  0  0  0  0  0  0  0  0  0  0
    8.7476  -10.1849    0.0000 C   0  0  0  0  0  0  0  0  0  0  0  0
    8.0334  -10.5980    0.0000 C   0  0  0  0  0  0  0  0  0  0  0  0
    7.3193  -10.1849    0.0000 C   0  0  0  0  0  0  0  0  0  0  0  0
    6.6051  -10.5980    0.0000 C   0  0  0  0  0  0  0  0  0  0  0  0
    5.8910  -10.1849    0.0000 C   0  0  0  0  0  0  0  0  0  0  0  0
    5.1768  -10.5980    0.0000 C   0  0  0  0  0  0  0  0  0  0  0  0
    4.4627  -10.1849    0.0000 C   0  0  0  0  0  0  0  0  0  0  0  0
    3.7486  -10.5980    0.0000 C   0  0  0  0  0  0  0  0  0  0  0  0
   15.8711  -11.8240    0.0000 C   0  0  0  0  0  0  0  0  0  0  0  0
   15.8711  -12.5954    0.0000 O   0  0  0  0  0  0  0  0  0  0  0  0
   15.1570  -11.4109    0.0000 C   0  0  0  0  0  0  0  0  0  0  0  0
   14.4428  -11.8240    0.0000 C   0  0  0  0  0  0  0  0  0  0  0  0
   13.7287  -11.4109    0.0000 C   0  0  0  0  0  0  0  0  0  0  0  0
   13.0145  -11.8240    0.0000 C   0  0  0  0  0  0  0  0  0  0  0  0
   12.3004  -11.4109    0.0000 C   0  0  0  0  0  0  0  0  0  0  0  0
   11.5863  -11.8240    0.0000 C   0  0  0  0  0  0  0  0  0  0  0  0
   10.8721  -11.4109    0.0000 C   0  0  0  0  0  0  0  0  0  0  0  0
   10.1580  -11.8240    0.0000 C   0  0  0  0  0  0  0  0  0  0  0  0
    9.4439  -11.4109    0.0000 C   0  0  0  0  0  0  0  0  0  0  0  0
    8.7297  -11.8240    0.0000 C   0  0  0  0  0  0  0  0  0  0  0  0
    8.0156  -11.4109    0.0000 C   0  0  0  0  0  0  0  0  0  0  0  0
    7.3014  -11.8240    0.0000 C   0  0  0  0  0  0  0  0  0  0  0  0
    6.5873  -11.4109    0.0000 C   0  0  0  0  0  0  0  0  0  0  0  0
    5.8731  -11.8240    0.0000 C   0  0  0  0  0  0  0  0  0  0  0  0
    5.1590  -11.4109    0.0000 C   0  0  0  0  0  0  0  0  0  0  0  0
   17.2909   -9.1201    0.0000 H   0  0  0  0  0  0  0  0  0  0  0  0
   16.3642   -9.6551    0.0000 H   0  0  0  0  0  0  0  0  0  0  0  0
   15.8804   -9.1201    0.0000 H   0  0  0  0  0  0  0  0  0  0  0  0
   14.9537   -9.6551    0.0000 H   0  0  0  0  0  0  0  0  0  0  0  0
   20.1115  -11.2601    0.0000 H   0  0  0  0  0  0  0  0  0  0  0  0
   21.0382  -10.7251    0.0000 H   0  0  0  0  0  0  0  0  0  0  0  0
   20.8167   -8.7129    0.0000 H   0  0  0  0  0  0  0  0  0  0  0  0
   21.7434   -9.2479    0.0000 H   0  0  0  0  0  0  0  0  0  0  0  0
   20.0447  -10.8954    0.0000 H   0  0  0  0  0  0  0  0  0  0  0  0
   21.6497  -11.8220    0.0000 H   0  0  0  0  0  0  0  0  0  0  0  0
   20.5797  -11.8221    0.0000 H   0  0  0  0  0  0  0  0  0  0  0  0
   23.2356   -9.4760    0.0000 H   0  0  0  0  0  0  0  0  0  0  0  0
   21.7640   -8.3494    0.0000 H   0  0  0  0  0  0  0  0  0  0  0  0
   22.8250   -8.4879    0.0000 H   0  0  0  0  0  0  0  0  0  0  0  0
   22.2272  -11.6673    0.0000 H   0  0  0  0  0  0  0  0  0  0  0  0
   23.1538  -10.0623    0.0000 H   0  0  0  0  0  0  0  0  0  0  0  0
   23.1539  -11.1323    0.0000 H   0  0  0  0  0  0  0  0  0  0  0  0
   13.7465  -11.6680    0.0000 H   0  0  0  0  0  0  0  0  0  0  0  0
   12.8196  -11.1326    0.0000 H   0  0  0  0  0  0  0  0  0  0  0  0
   13.0324   -9.1149    0.0000 H   0  0  0  0  0  0  0  0  0  0  0  0
   12.1055   -9.6503    0.0000 H   0  0  0  0  0  0  0  0  0  0  0  0
   12.3182  -11.6680    0.0000 H   0  0  0  0  0  0  0  0  0  0  0  0
   11.3913  -11.1326    0.0000 H   0  0  0  0  0  0  0  0  0  0  0  0
   11.6041   -9.1149    0.0000 H   0  0  0  0  0  0  0  0  0  0  0  0
   10.6772   -9.6503    0.0000 H   0  0  0  0  0  0  0  0  0  0  0  0
   10.8899  -11.6680    0.0000 H   0  0  0  0  0  0  0  0  0  0  0  0
    9.9630  -11.1326    0.0000 H   0  0  0  0  0  0  0  0  0  0  0  0
   10.1758   -9.1149    0.0000 H   0  0  0  0  0  0  0  0  0  0  0  0
    9.2489   -9.6503    0.0000 H   0  0  0  0  0  0  0  0  0  0  0  0
    9.4617  -11.6680    0.0000 H   0  0  0  0  0  0  0  0  0  0  0  0
    8.5348  -11.1326    0.0000 H   0  0  0  0  0  0  0  0  0  0  0  0
    8.7476   -9.1149    0.0000 H   0  0  0  0  0  0  0  0  0  0  0  0
    7.8207   -9.6503    0.0000 H   0  0  0  0  0  0  0  0  0  0  0  0
    8.0334  -11.6680    0.0000 H   0  0  0  0  0  0  0  0  0  0  0  0
    7.1065  -11.1326    0.0000 H   0  0  0  0  0  0  0  0  0  0  0  0
    7.3193   -9.1149    0.0000 H   0  0  0  0  0  0  0  0  0  0  0  0
    6.3924   -9.6503    0.0000 H   0  0  0  0  0  0  0  0  0  0  0  0
    6.6051  -11.6680    0.0000 H   0  0  0  0  0  0  0  0  0  0  0  0
    5.6782  -11.1326    0.0000 H   0  0  0  0  0  0  0  0  0  0  0  0
    5.8910   -9.1149    0.0000 H   0  0  0  0  0  0  0  0  0  0  0  0
    4.9641   -9.6503    0.0000 H   0  0  0  0  0  0  0  0  0  0  0  0
    5.1768  -11.6680    0.0000 H   0  0  0  0  0  0  0  0  0  0  0  0
    4.2499  -11.1326    0.0000 H   0  0  0  0  0  0  0  0  0  0  0  0
    4.4627   -9.1149    0.0000 H   0  0  0  0  0  0  0  0  0  0  0  0
    3.5358   -9.6503    0.0000 H   0  0  0  0  0  0  0  0  0  0  0  0
    2.8215  -10.0638    0.0000 H   0  0  0  0  0  0  0  0  0  0  0  0
    3.7495  -11.6680    0.0000 H   0  0  0  0  0  0  0  0  0  0  0  0
    2.8224  -11.1338    0.0000 H   0  0  0  0  0  0  0  0  0  0  0  0
   15.1570  -10.3409    0.0000 H   0  0  0  0  0  0  0  0  0  0  0  0
   14.2301  -10.8763    0.0000 H   0  0  0  0  0  0  0  0  0  0  0  0
   14.4428  -12.8940    0.0000 H   0  0  0  0  0  0  0  0  0  0  0  0
   13.5159  -12.3586    0.0000 H   0  0  0  0  0  0  0  0  0  0  0  0
   13.7287  -10.3409    0.0000 H   0  0  0  0  0  0  0  0  0  0  0  0
   12.8018  -10.8763    0.0000 H   0  0  0  0  0  0  0  0  0  0  0  0
   13.0145  -12.8940    0.0000 H   0  0  0  0  0  0  0  0  0  0  0  0
   12.0876  -12.3586    0.0000 H   0  0  0  0  0  0  0  0  0  0  0  0
   12.3004  -10.3409    0.0000 H   0  0  0  0  0  0  0  0  0  0  0  0
   11.3735  -10.8763    0.0000 H   0  0  0  0  0  0  0  0  0  0  0  0
   11.5863  -12.8940    0.0000 H   0  0  0  0  0  0  0  0  0  0  0  0
   10.6594  -12.3586    0.0000 H   0  0  0  0  0  0  0  0  0  0  0  0
   10.8721  -10.3409    0.0000 H   0  0  0  0  0  0  0  0  0  0  0  0
    9.9452  -10.8763    0.0000 H   0  0  0  0  0  0  0  0  0  0  0  0
   10.1580  -12.8940    0.0000 H   0  0  0  0  0  0  0  0  0  0  0  0
    9.2311  -12.3586    0.0000 H   0  0  0  0  0  0  0  0  0  0  0  0
    9.4439  -10.3409    0.0000 H   0  0  0  0  0  0  0  0  0  0  0  0
    8.5170  -10.8763    0.0000 H   0  0  0  0  0  0  0  0  0  0  0  0
    8.7297  -12.8940    0.0000 H   0  0  0  0  0  0  0  0  0  0  0  0
    7.8028  -12.3586    0.0000 H   0  0  0  0  0  0  0  0  0  0  0  0
    8.0156  -10.3409    0.0000 H   0  0  0  0  0  0  0  0  0  0  0  0
    7.0887  -10.8763    0.0000 H   0  0  0  0  0  0  0  0  0  0  0  0
    7.3014  -12.8940    0.0000 H   0  0  0  0  0  0  0  0  0  0  0  0
    6.3745  -12.3586    0.0000 H   0  0  0  0  0  0  0  0  0  0  0  0
    6.5873  -10.3409    0.0000 H   0  0  0  0  0  0  0  0  0  0  0  0
    5.6604  -10.8763    0.0000 H   0  0  0  0  0  0  0  0  0  0  0  0
    5.8731  -12.8940    0.0000 H   0  0  0  0  0  0  0  0  0  0  0  0
    4.9462  -12.3586    0.0000 H   0  0  0  0  0  0  0  0  0  0  0  0
    5.1599  -10.3409    0.0000 H   0  0  0  0  0  0  0  0  0  0  0  0
    4.2319  -11.9451    0.0000 H   0  0  0  0  0  0  0  0  0  0  0  0
    4.2328  -10.8751    0.0000 H   0  0  0  0  0  0  0  0  0  0  0  0
  1  4  1  0  0  0  0
  1 52  1  0  0  0  0
  1 53  1  0  0  0  0
  2  1  1  0  0  0  0
  2  6  1  0  0  0  0
  2 17  1  1  0  0  0
  3  2  1  0  0  0  0
  3  5  1  0  0  0  0
  3 54  1  0  0  0  0
  3 55  1  0  0  0  0
  4  7  1  0  0  0  0
  5 18  1  0  0  0  0
  6 35  1  0  0  0  0
  7  8  1  0  0  0  0
  7  9  2  0  0  0  0
  7 10  1  0  0  0  0
 10 11  1  0  0  0  0
 11 12  1  0  0  0  0
 11 56  1  0  0  0  0
 11 57  1  0  0  0  0
 12 13  1  0  0  0  0
 12 58  1  0  0  0  0
 12 59  1  0  0  0  0
 13 14  1  0  0  0  0
 13 15  1  0  0  0  0
 13 16  1  0  0  0  0
 14 60  1  0  0  0  0
 14 61  1  0  0  0  0
 14 62  1  0  0  0  0
 15 63  1  0  0  0  0
 15 64  1  0  0  0  0
 15 65  1  0  0  0  0
 16 66  1  0  0  0  0
 16 67  1  0  0  0  0
 16 68  1  0  0  0  0
 18 19  2  0  0  0  0
 18 20  1  0  0  0  0
 20 21  1  0  0  0  0
 20 69  1  0  0  0  0
 20 70  1  0  0  0  0
 21 22  1  0  0  0  0
 21 71  1  0  0  0  0
 21 72  1  0  0  0  0
 22 23  1  0  0  0  0
 22 73  1  0  0  0  0
 22 74  1  0  0  0  0
 23 24  1  0  0  0  0
 23 75  1  0  0  0  0
 23 76  1  0  0  0  0
 24 25  1  0  0  0  0
 24 77  1  0  0  0  0
 24 78  1  0  0  0  0
 25 26  1  0  0  0  0
 25 79  1  0  0  0  0
 25 80  1  0  0  0  0
 26 27  1  0  0  0  0
 26 81  1  0  0  0  0
 26 82  1  0  0  0  0
 27 28  1  0  0  0  0
 27 83  1  0  0  0  0
 27 84  1  0  0  0  0
 28 29  1  0  0  0  0
 28 85  1  0  0  0  0
 28 86  1  0  0  0  0
 29 30  1  0  0  0  0
 29 87  1  0  0  0  0
 29 88  1  0  0  0  0
 30 31  1  0  0  0  0
 30 89  1  0  0  0  0
 30 90  1  0  0  0  0
 31 32  1  0  0  0  0
 31 91  1  0  0  0  0
 31 92  1  0  0  0  0
 32 33  1  0  0  0  0
 32 93  1  0  0  0  0
 32 94  1  0  0  0  0
 33 34  1  0  0  0  0
 33 95  1  0  0  0  0
 33 96  1  0  0  0  0
 34 97  1  0  0  0  0
 34 98  1  0  0  0  0
 34 99  1  0  0  0  0
 35 36  2  0  0  0  0
 35 37  1  0  0  0  0
 37 38  1  0  0  0  0
 37100  1  0  0  0  0
 37101  1  0  0  0  0
 38 39  1  0  0  0  0
 38102  1  0  0  0  0
 38103  1  0  0  0  0
 39 40  1  0  0  0  0
 39104  1  0  0  0  0
 39105  1  0  0  0  0
 40 41  1  0  0  0  0
 40106  1  0  0  0  0
 40107  1  0  0  0  0
 41 42  1  0  0  0  0
 41108  1  0  0  0  0
 41109  1  0  0  0  0
 42 43  1  0  0  0  0
 42110  1  0  0  0  0
 42111  1  0  0  0  0
 43 44  1  0  0  0  0
 43112  1  0  0  0  0
 43113  1  0  0  0  0
 44 45  1  0  0  0  0
 44114  1  0  0  0  0
 44115  1  0  0  0  0
 45 46  1  0  0  0  0
 45116  1  0  0  0  0
 45117  1  0  0  0  0
 46 47  1  0  0  0  0
 46118  1  0  0  0  0
 46119  1  0  0  0  0
 47 48  1  0  0  0  0
 47120  1  0  0  0  0
 47121  1  0  0  0  0
 48 49  1  0  0  0  0
 48122  1  0  0  0  0
 48123  1  0  0  0  0
 49 50  1  0  0  0  0
 49124  1  0  0  0  0
 49125  1  0  0  0  0
 50 51  1  0  0  0  0
 50126  1  0  0  0  0
 50127  1  0  0  0  0
 51128  1  0  0  0  0
 51129  1  0  0  0  0
 51130  1  0  0  0  0
M  CHG  2   8  -1  13   1
M  END
>  <DRUGBANK_ID>
DB09114

>  <COMMON_NAME>
Colfosceril palmitate

>  <CAS_NUMBER>
63-89-8

>  <UNII>
319X2NFW0A

>  <SYNONYMS>
Colfosceril palmitate; Colfoscerili palmitas; Dipalmitoylphosphatidylcholine; Palmitate de colfosceril; Palmitato de colfoscerilo

$$$$
