1625
 OpenBabel10282417072D

 59 60  0  0  0  0  0  0  0  0999 V2000
    6.1876    0.7145    0.0000 O   0  0  0  0  0  0  0  0  0  0  0  0
    2.8876    0.7145    0.0000 N   0  3  0  0  0  0  0  0  0  0  0  0
    6.4896   -0.4125    0.0000 N   0  0  0  0  0  0  0  0  0  0  0  0
    3.7126    0.7145    0.0000 C   0  0  0  0  0  0  0  0  0  0  0  0
    2.8876    1.5395    0.0000 C   0  0  0  0  0  0  0  0  0  0  0  0
    2.0625    0.7145    0.0000 C   0  0  0  0  0  0  0  0  0  0  0  0
    4.1251    0.0000    0.0000 C   0  0  0  0  0  0  0  0  0  0  0  0
    2.8876   -0.1106    0.0000 C   0  0  0  0  0  0  0  0  0  0  0  0
    4.9501    0.0000    0.0000 C   0  0  0  0  0  0  0  0  0  0  0  0
    2.1731    1.9520    0.0000 C   0  0  0  0  0  0  0  0  0  0  0  0
    3.6020    1.9520    0.0000 C   0  0  0  0  0  0  0  0  0  0  0  0
    1.6500    1.4290    0.0000 C   0  0  0  0  0  0  0  0  0  0  0  0
    1.6500    0.0000    0.0000 C   0  0  0  0  0  0  0  0  0  0  0  0
    4.9501    0.8250    0.0000 C   0  0  0  0  0  0  0  0  0  0  0  0
    4.9501   -0.8250    0.0000 C   0  0  0  0  0  0  0  0  0  0  0  0
    5.7751    0.0000    0.0000 C   0  0  0  0  0  0  0  0  0  0  0  0
    4.2356    1.2375    0.0000 C   0  0  0  0  0  0  0  0  0  0  0  0
    5.6646   -1.2375    0.0000 C   0  0  0  0  0  0  0  0  0  0  0  0
    5.6646    1.2375    0.0000 C   0  0  0  0  0  0  0  0  0  0  0  0
    4.2356   -1.2375    0.0000 C   0  0  0  0  0  0  0  0  0  0  0  0
    4.2356    2.0625    0.0000 C   0  0  0  0  0  0  0  0  0  0  0  0
    5.6646   -2.0625    0.0000 C   0  0  0  0  0  0  0  0  0  0  0  0
    5.6646    2.0625    0.0000 C   0  0  0  0  0  0  0  0  0  0  0  0
    4.2356   -2.0625    0.0000 C   0  0  0  0  0  0  0  0  0  0  0  0
    4.9501    2.4751    0.0000 C   0  0  0  0  0  0  0  0  0  0  0  0
    4.9501   -2.4751    0.0000 C   0  0  0  0  0  0  0  0  0  0  0  0
    6.4896   -1.3970    0.0000 H   0  0  0  0  0  0  0  0  0  0  0  0
    7.3422    0.0798    0.0000 H   0  0  0  0  0  0  0  0  0  0  0  0
    4.2476    1.6411    0.0000 H   0  0  0  0  0  0  0  0  0  0  0  0
    4.7826    0.7145    0.0000 H   0  0  0  0  0  0  0  0  0  0  0  0
    2.8876    2.6095    0.0000 H   0  0  0  0  0  0  0  0  0  0  0  0
    0.9925    0.7145    0.0000 H   0  0  0  0  0  0  0  0  0  0  0  0
    3.5901   -0.9266    0.0000 H   0  0  0  0  0  0  0  0  0  0  0  0
    4.6601   -0.9266    0.0000 H   0  0  0  0  0  0  0  0  0  0  0  0
    1.9610   -0.6456    0.0000 H   0  0  0  0  0  0  0  0  0  0  0  0
    3.8142   -0.6456    0.0000 H   0  0  0  0  0  0  0  0  0  0  0  0
    2.8876   -1.1806    0.0000 H   0  0  0  0  0  0  0  0  0  0  0  0
    2.1731    3.0220    0.0000 H   0  0  0  0  0  0  0  0  0  0  0  0
    1.2465    1.4170    0.0000 H   0  0  0  0  0  0  0  0  0  0  0  0
    1.2464    2.4870    0.0000 H   0  0  0  0  0  0  0  0  0  0  0  0
    4.5287    1.4170    0.0000 H   0  0  0  0  0  0  0  0  0  0  0  0
    3.6020    3.0220    0.0000 H   0  0  0  0  0  0  0  0  0  0  0  0
    4.5286    2.4870    0.0000 H   0  0  0  0  0  0  0  0  0  0  0  0
    2.1850    2.3556    0.0000 H   0  0  0  0  0  0  0  0  0  0  0  0
    0.5800    1.4290    0.0000 H   0  0  0  0  0  0  0  0  0  0  0  0
    1.1150    2.3557    0.0000 H   0  0  0  0  0  0  0  0  0  0  0  0
    0.5800   -0.0000    0.0000 H   0  0  0  0  0  0  0  0  0  0  0  0
    2.1850   -0.9266    0.0000 H   0  0  0  0  0  0  0  0  0  0  0  0
    1.1150   -0.9267    0.0000 H   0  0  0  0  0  0  0  0  0  0  0  0
    3.3419    0.7215    0.0000 H   0  0  0  0  0  0  0  0  0  0  0  0
    6.5583   -0.7215    0.0000 H   0  0  0  0  0  0  0  0  0  0  0  0
    6.5583    0.7215    0.0000 H   0  0  0  0  0  0  0  0  0  0  0  0
    3.3419   -0.7215    0.0000 H   0  0  0  0  0  0  0  0  0  0  0  0
    3.3418    2.5785    0.0000 H   0  0  0  0  0  0  0  0  0  0  0  0
    6.5584   -2.5785    0.0000 H   0  0  0  0  0  0  0  0  0  0  0  0
    6.5584    2.5785    0.0000 H   0  0  0  0  0  0  0  0  0  0  0  0
    3.3418   -2.5785    0.0000 H   0  0  0  0  0  0  0  0  0  0  0  0
    4.9501    3.5071    0.0000 H   0  0  0  0  0  0  0  0  0  0  0  0
    4.9501   -3.5071    0.0000 H   0  0  0  0  0  0  0  0  0  0  0  0
  1 16  2  0  0  0  0
  2  4  1  0  0  0  0
  2  5  1  0  0  0  0
  2  6  1  0  0  0  0
  2  8  1  0  0  0  0
  3 16  1  0  0  0  0
  3 27  1  0  0  0  0
  3 28  1  0  0  0  0
  4  7  1  0  0  0  0
  4 29  1  0  0  0  0
  4 30  1  0  0  0  0
  5 10  1  0  0  0  0
  5 11  1  0  0  0  0
  5 31  1  0  0  0  0
  6 12  1  0  0  0  0
  6 13  1  0  0  0  0
  6 32  1  0  0  0  0
  7  9  1  0  0  0  0
  7 33  1  0  0  0  0
  7 34  1  0  0  0  0
  8 35  1  0  0  0  0
  8 36  1  0  0  0  0
  8 37  1  0  0  0  0
  9 14  1  0  0  0  0
  9 15  1  0  0  0  0
  9 16  1  0  0  0  0
 10 38  1  0  0  0  0
 10 39  1  0  0  0  0
 10 40  1  0  0  0  0
 11 41  1  0  0  0  0
 11 42  1  0  0  0  0
 11 43  1  0  0  0  0
 12 44  1  0  0  0  0
 12 45  1  0  0  0  0
 12 46  1  0  0  0  0
 13 47  1  0  0  0  0
 13 48  1  0  0  0  0
 13 49  1  0  0  0  0
 14 17  2  0  0  0  0
 14 19  1  0  0  0  0
 15 18  2  0  0  0  0
 15 20  1  0  0  0  0
 17 21  1  0  0  0  0
 17 50  1  0  0  0  0
 18 22  1  0  0  0  0
 18 51  1  0  0  0  0
 19 23  2  0  0  0  0
 19 52  1  0  0  0  0
 20 24  2  0  0  0  0
 20 53  1  0  0  0  0
 21 25  2  0  0  0  0
 21 54  1  0  0  0  0
 22 26  2  0  0  0  0
 22 55  1  0  0  0  0
 23 25  1  0  0  0  0
 23 56  1  0  0  0  0
 24 26  1  0  0  0  0
 24 57  1  0  0  0  0
 25 58  1  0  0  0  0
 26 59  1  0  0  0  0
M  CHG  1   2   1
M  END
>  <DRUGBANK_ID>
DB01625

>  <COMMON_NAME>
Isopropamide

>  <CAS_NUMBER>
7492-32-2

>  <UNII>
8B9I31H724

>  <SYNONYMS>
Isopropamide

$$$$
