
 OpenBabel10282417072D

 71 75  0  0  1  0  0  0  0  0999 V2000
   25.6118  -20.8866    0.0000 C   0  0  0  0  0  0  0  0  0  0  0  0
   26.1628  -21.5006    0.0000 C   0  0  0  0  0  0  0  0  0  0  0  0
   24.8045  -21.0567    0.0000 C   0  0  0  0  0  0  0  0  0  0  0  0
   25.0992  -22.4549    0.0000 C   0  0  0  0  0  0  0  0  0  0  0  0
   18.9175  -30.6357    0.0000 C   0  0  0  0  0  0  0  0  0  0  0  0
   21.6086  -31.0482    0.0000 C   0  0  0  0  0  0  0  0  0  0  0  0
   21.1322  -27.4802    0.0000 C   0  0  0  0  0  0  0  0  0  0  0  0
   22.0307  -23.2886    0.0000 C   0  0  0  0  0  0  0  0  0  0  0  0
   25.9065  -22.2848    0.0000 C   0  0  0  0  0  0  0  0  0  0  0  0
   20.3465  -31.4607    0.0000 C   0  0  0  0  0  0  0  0  0  0  0  0
   19.6320  -31.8732    0.0000 C   0  0  0  0  0  0  0  0  0  0  0  0
   20.3465  -30.6357    0.0000 C   0  0  0  0  0  0  0  0  0  0  0  0
   21.3857  -28.2652    0.0000 C   0  0  2  0  0  0  0  0  0  0  0  0
   22.5838  -22.6764    0.0000 C   0  0  2  0  0  0  0  0  0  0  0  0
   22.1699  -28.5216    0.0000 C   0  0  2  0  0  0  0  0  0  0  0  0
   22.4136  -21.8691    0.0000 C   0  0  2  0  0  0  0  0  0  0  0  0
   22.1684  -29.3466    0.0000 C   0  0  2  0  0  0  0  0  0  0  0  0
   23.1288  -21.4579    0.0000 C   0  0  2  0  0  0  0  0  0  0  0  0
   21.3834  -29.6002    0.0000 C   0  0  2  0  0  0  0  0  0  0  0  0
   23.7410  -22.0110    0.0000 C   0  0  2  0  0  0  0  0  0  0  0  0
   26.4575  -22.8988    0.0000 C   0  0  0  0  0  0  0  0  0  0  0  0
   19.6320  -32.6983    0.0000 N   0  0  0  0  0  0  0  0  0  0  0  0
   18.9175  -31.4607    0.0000 N   0  0  0  0  0  0  0  0  0  0  0  0
   19.6320  -30.2232    0.0000 N   0  0  0  0  0  0  0  0  0  0  0  0
   21.1271  -31.7121    0.0000 N   0  0  0  0  0  0  0  0  0  0  0  0
   21.1271  -30.3844    0.0000 N   0  0  0  0  0  0  0  0  0  0  0  0
   24.5483  -21.8408    0.0000 N   0  3  0  0  0  0  0  0  0  0  0  0
   22.8382  -28.0378    0.0000 O   0  0  0  0  0  0  0  0  0  0  0  0
   21.6606  -21.5323    0.0000 O   0  0  0  0  0  0  0  0  0  0  0  0
   22.8351  -29.8327    0.0000 O   0  0  0  0  0  0  0  0  0  0  0  0
   23.2165  -20.6376    0.0000 O   0  0  0  0  0  0  0  0  0  0  0  0
   22.2167  -25.8294    0.0000 O   0  0  0  0  0  0  0  0  0  0  0  0
   21.1190  -24.1327    0.0000 O   0  0  0  0  0  0  0  0  0  0  0  0
   27.2648  -22.7287    0.0000 O   0  0  0  0  0  0  0  0  0  0  0  0
   26.2012  -23.6830    0.0000 O   0  0  0  0  0  0  0  0  0  0  0  0
   20.6466  -26.3365    0.0000 O   0  0  0  0  0  0  0  0  0  0  0  0
   22.3433  -25.2389    0.0000 O   0  0  0  0  0  0  0  0  0  0  0  0
   20.8996  -28.9319    0.0000 O   0  0  0  0  0  0  0  0  0  0  0  0
   23.4041  -22.7641    0.0000 O   0  0  0  0  0  0  0  0  0  0  0  0
   21.6852  -26.8681    0.0000 O   0  0  0  0  0  0  0  0  0  0  0  0
   22.2843  -24.0736    0.0000 O   0  0  0  0  0  0  0  0  0  0  0  0
   21.1780  -25.2979    0.0000 O   0  0  0  0  0  0  0  0  0  0  0  0
   21.4316  -26.0830    0.0000 P   0  0  3  0  0  0  0  0  0  0  0  0
   21.7312  -24.6858    0.0000 P   0  0  3  0  0  0  0  0  0  0  0  0
   25.9324  -19.9057    0.0000 H   0  0  0  0  0  0  0  0  0  0  0  0
   27.1726  -21.2877    0.0000 H   0  0  0  0  0  0  0  0  0  0  0  0
   24.1153  -20.2886    0.0000 H   0  0  0  0  0  0  0  0  0  0  0  0
   24.7785  -23.4358    0.0000 H   0  0  0  0  0  0  0  0  0  0  0  0
   18.0238  -30.1197    0.0000 H   0  0  0  0  0  0  0  0  0  0  0  0
   22.6406  -31.0482    0.0000 H   0  0  0  0  0  0  0  0  0  0  0  0
   20.0860  -27.2559    0.0000 H   0  0  0  0  0  0  0  0  0  0  0  0
   20.8033  -26.4620    0.0000 H   0  0  0  0  0  0  0  0  0  0  0  0
   20.9845  -23.0644    0.0000 H   0  0  0  0  0  0  0  0  0  0  0  0
   21.3134  -24.0826    0.0000 H   0  0  0  0  0  0  0  0  0  0  0  0
   22.1437  -27.5100    0.0000 H   0  0  0  0  0  0  0  0  0  0  0  0
   21.5507  -22.3977    0.0000 H   0  0  0  0  0  0  0  0  0  0  0  0
   22.0044  -27.4645    0.0000 H   0  0  0  0  0  0  0  0  0  0  0  0
   21.5809  -22.5411    0.0000 H   0  0  0  0  0  0  0  0  0  0  0  0
   23.1226  -28.8625    0.0000 H   0  0  0  0  0  0  0  0  0  0  0  0
   22.2325  -20.8735    0.0000 H   0  0  0  0  0  0  0  0  0  0  0  0
   22.1387  -30.3581    0.0000 H   0  0  0  0  0  0  0  0  0  0  0  0
   24.0197  -20.9779    0.0000 H   0  0  0  0  0  0  0  0  0  0  0  0
   18.7794  -33.1906    0.0000 H   0  0  0  0  0  0  0  0  0  0  0  0
   20.4846  -33.1906    0.0000 H   0  0  0  0  0  0  0  0  0  0  0  0
   23.7237  -28.4339    0.0000 H   0  0  0  0  0  0  0  0  0  0  0  0
   21.5609  -20.5674    0.0000 H   0  0  0  0  0  0  0  0  0  0  0  0
   22.7321  -30.7972    0.0000 H   0  0  0  0  0  0  0  0  0  0  0  0
   24.1033  -20.2447    0.0000 H   0  0  0  0  0  0  0  0  0  0  0  0
   22.9364  -26.4797    0.0000 H   0  0  0  0  0  0  0  0  0  0  0  0
   21.3223  -23.1842    0.0000 H   0  0  0  0  0  0  0  0  0  0  0  0
   27.8905  -23.4261    0.0000 H   0  0  0  0  0  0  0  0  0  0  0  0
  1  2  2  0  0  0  0
  1  3  1  0  0  0  0
  1 45  1  0  0  0  0
  2  9  1  0  0  0  0
  2 46  1  0  0  0  0
  3 27  2  0  0  0  0
  3 47  1  0  0  0  0
  4  9  2  0  0  0  0
  4 27  1  0  0  0  0
  4 48  1  0  0  0  0
  5 23  2  0  0  0  0
  5 24  1  0  0  0  0
  5 49  1  0  0  0  0
  6 25  2  0  0  0  0
  6 26  1  0  0  0  0
  6 50  1  0  0  0  0
  7 40  1  0  0  0  0
  7 51  1  0  0  0  0
  7 52  1  0  0  0  0
  8 41  1  0  0  0  0
  8 53  1  0  0  0  0
  8 54  1  0  0  0  0
  9 21  1  0  0  0  0
 10 11  2  0  0  0  0
 10 12  1  0  0  0  0
 10 25  1  0  0  0  0
 11 22  1  0  0  0  0
 11 23  1  0  0  0  0
 12 24  2  0  0  0  0
 12 26  1  0  0  0  0
 13  7  1  0  0  0  0
 13 15  1  0  0  0  0
 13 38  1  0  0  0  0
 13 55  1  1  0  0  0
 14  8  1  0  0  0  0
 14 16  1  0  0  0  0
 14 39  1  0  0  0  0
 14 56  1  1  0  0  0
 15 17  1  0  0  0  0
 15 28  1  0  0  0  0
 15 57  1  6  0  0  0
 16 18  1  0  0  0  0
 16 29  1  0  0  0  0
 16 58  1  6  0  0  0
 17 19  1  0  0  0  0
 17 30  1  0  0  0  0
 17 59  1  6  0  0  0
 18 20  1  0  0  0  0
 18 31  1  0  0  0  0
 18 60  1  6  0  0  0
 19 26  1  0  0  0  0
 19 38  1  0  0  0  0
 19 61  1  1  0  0  0
 20 27  1  0  0  0  0
 20 39  1  0  0  0  0
 20 62  1  1  0  0  0
 21 34  1  0  0  0  0
 21 35  2  0  0  0  0
 22 63  1  0  0  0  0
 22 64  1  0  0  0  0
 28 65  1  0  0  0  0
 29 66  1  0  0  0  0
 30 67  1  0  0  0  0
 31 68  1  0  0  0  0
 32 43  1  0  0  0  0
 32 69  1  0  0  0  0
 33 44  1  0  0  0  0
 33 70  1  0  0  0  0
 34 71  1  0  0  0  0
 36 43  2  0  0  0  0
 37 44  2  0  0  0  0
 40 43  1  0  0  0  0
 41 44  1  0  0  0  0
 42 43  1  0  0  0  0
 42 44  1  0  0  0  0
M  CHG  1  27   1
M  END
>  <DRUGBANK_ID>
DB04099

>  <SECONDARY_ACCESSION_NUMBERS>
EXPT01234

>  <COMMON_NAME>
Deamido-Nad+

$$$$
