1388
 OpenBabel10282417072D

 74 77  0  0  1  0  0  0  0  0999 V2000
   11.1048    3.2403    0.0000 F   0  0  0  0  0  0  0  0  0  0  0  0
    6.6529    1.9829    0.0000 O   0  0  0  0  0  0  0  0  0  0  0  0
    6.6529    3.4119    0.0000 O   0  0  0  0  0  0  0  0  0  0  0  0
    5.0029    3.4119    0.0000 O   0  0  0  0  0  0  0  0  0  0  0  0
    5.8279    0.5539    0.0000 N   0  0  0  0  0  0  0  0  0  0  0  0
    2.5371   -0.9601    0.0000 N   0  0  0  0  0  0  0  0  0  0  0  0
    3.6871   -1.6240    0.0000 N   0  0  0  0  0  0  0  0  0  0  0  0
    7.4780    1.9829    0.0000 C   0  0  1  0  0  0  0  0  0  0  0  0
    8.1924    1.5704    0.0000 C   0  0  1  0  0  0  0  0  0  0  0  0
    7.4780    2.8079    0.0000 C   0  0  0  0  0  0  0  0  0  0  0  0
    8.1924    0.7454    0.0000 C   0  0  0  0  0  0  0  0  0  0  0  0
    7.0655    1.2684    0.0000 C   0  0  0  0  0  0  0  0  0  0  0  0
    8.9069    1.9829    0.0000 C   0  0  0  0  0  0  0  0  0  0  0  0
    8.1924    3.2205    0.0000 C   0  0  0  0  0  0  0  0  0  0  0  0
    8.9069    2.8079    0.0000 C   0  0  0  0  0  0  0  0  0  0  0  0
    6.2404    1.2684    0.0000 C   0  0  0  0  0  0  0  0  0  0  0  0
    7.4780    0.3329    0.0000 C   0  0  0  0  0  0  0  0  0  0  0  0
    8.9069    0.3329    0.0000 C   0  0  0  0  0  0  0  0  0  0  0  0
    9.6444    1.5418    0.0000 C   0  0  0  0  0  0  0  0  0  0  0  0
    9.6444    3.2490    0.0000 C   0  0  0  0  0  0  0  0  0  0  0  0
   10.3919    1.9657    0.0000 C   0  0  0  0  0  0  0  0  0  0  0  0
    6.2404    2.6974    0.0000 C   0  0  0  0  0  0  0  0  0  0  0  0
   10.3919    2.8251    0.0000 C   0  0  0  0  0  0  0  0  0  0  0  0
    5.0029    0.5539    0.0000 C   0  0  0  0  0  0  0  0  0  0  0  0
    6.2404   -0.1605    0.0000 C   0  0  0  0  0  0  0  0  0  0  0  0
    4.5904   -0.1605    0.0000 C   0  0  0  0  0  0  0  0  0  0  0  0
    5.4154    2.6974    0.0000 C   0  0  0  0  0  0  0  0  0  0  0  0
    3.7654   -0.1605    0.0000 C   0  0  0  0  0  0  0  0  0  0  0  0
    3.3529   -0.8750    0.0000 C   0  0  0  0  0  0  0  0  0  0  0  0
    4.1779    3.4119    0.0000 C   0  0  0  0  0  0  0  0  0  0  0  0
    2.3645   -1.7618    0.0000 C   0  0  0  0  0  0  0  0  0  0  0  0
    3.0791   -2.1743    0.0000 C   0  0  0  0  0  0  0  0  0  0  0  0
    1.6500   -2.1743    0.0000 C   0  0  0  0  0  0  0  0  0  0  0  0
    3.0791   -2.9994    0.0000 C   0  0  0  0  0  0  0  0  0  0  0  0
    1.6500   -2.9994    0.0000 C   0  0  0  0  0  0  0  0  0  0  0  0
    2.3645   -3.4119    0.0000 C   0  0  0  0  0  0  0  0  0  0  0  0
    1.8796   -0.2274    0.0000 H   0  0  0  0  0  0  0  0  0  0  0  0
    7.2657    1.0354    0.0000 H   0  0  0  0  0  0  0  0  0  0  0  0
    6.5513    3.3428    0.0000 H   0  0  0  0  0  0  0  0  0  0  0  0
    7.4779    3.8779    0.0000 H   0  0  0  0  0  0  0  0  0  0  0  0
    8.1924   -0.3246    0.0000 H   0  0  0  0  0  0  0  0  0  0  0  0
    7.6005    0.3418    0.0000 H   0  0  0  0  0  0  0  0  0  0  0  0
    6.5305    0.3418    0.0000 H   0  0  0  0  0  0  0  0  0  0  0  0
    8.1924    4.2905    0.0000 H   0  0  0  0  0  0  0  0  0  0  0  0
    9.1191    3.7555    0.0000 H   0  0  0  0  0  0  0  0  0  0  0  0
    5.7054    2.1950    0.0000 H   0  0  0  0  0  0  0  0  0  0  0  0
    6.7754    2.1950    0.0000 H   0  0  0  0  0  0  0  0  0  0  0  0
    6.5513    0.8679    0.0000 H   0  0  0  0  0  0  0  0  0  0  0  0
    7.4780   -0.7371    0.0000 H   0  0  0  0  0  0  0  0  0  0  0  0
    6.5514   -0.2021    0.0000 H   0  0  0  0  0  0  0  0  0  0  0  0
    8.9069   -0.7371    0.0000 H   0  0  0  0  0  0  0  0  0  0  0  0
    9.8335    0.8679    0.0000 H   0  0  0  0  0  0  0  0  0  0  0  0
    9.8336   -0.2021    0.0000 H   0  0  0  0  0  0  0  0  0  0  0  0
    9.6325    0.5099    0.0000 H   0  0  0  0  0  0  0  0  0  0  0  0
    9.6325    4.2809    0.0000 H   0  0  0  0  0  0  0  0  0  0  0  0
   11.2836    1.4462    0.0000 H   0  0  0  0  0  0  0  0  0  0  0  0
    4.4679    1.4806    0.0000 H   0  0  0  0  0  0  0  0  0  0  0  0
    3.9329    0.5539    0.0000 H   0  0  0  0  0  0  0  0  0  0  0  0
    5.7054   -1.0872    0.0000 H   0  0  0  0  0  0  0  0  0  0  0  0
    7.3104   -0.1605    0.0000 H   0  0  0  0  0  0  0  0  0  0  0  0
    6.7754   -1.0871    0.0000 H   0  0  0  0  0  0  0  0  0  0  0  0
    5.1254   -1.0872    0.0000 H   0  0  0  0  0  0  0  0  0  0  0  0
    4.0554   -1.0871    0.0000 H   0  0  0  0  0  0  0  0  0  0  0  0
    4.8804    1.7708    0.0000 H   0  0  0  0  0  0  0  0  0  0  0  0
    5.9504    1.7708    0.0000 H   0  0  0  0  0  0  0  0  0  0  0  0
    3.2304    0.7661    0.0000 H   0  0  0  0  0  0  0  0  0  0  0  0
    2.6954   -0.1605    0.0000 H   0  0  0  0  0  0  0  0  0  0  0  0
    3.6429    4.3385    0.0000 H   0  0  0  0  0  0  0  0  0  0  0  0
    3.6429    2.4853    0.0000 H   0  0  0  0  0  0  0  0  0  0  0  0
    3.1079    3.4119    0.0000 H   0  0  0  0  0  0  0  0  0  0  0  0
    0.7563   -1.6583    0.0000 H   0  0  0  0  0  0  0  0  0  0  0  0
    3.9728   -3.5154    0.0000 H   0  0  0  0  0  0  0  0  0  0  0  0
    0.7563   -3.5154    0.0000 H   0  0  0  0  0  0  0  0  0  0  0  0
    2.3645   -4.4439    0.0000 H   0  0  0  0  0  0  0  0  0  0  0  0
  1 23  1  0  0  0  0
  2 22  1  0  0  0  0
  3 22  2  0  0  0  0
  4 27  1  0  0  0  0
  4 30  1  0  0  0  0
  5 16  1  0  0  0  0
  5 24  1  0  0  0  0
  5 25  1  0  0  0  0
  6 29  1  0  0  0  0
  6 31  1  0  0  0  0
  6 37  1  0  0  0  0
  7 29  2  0  0  0  0
  7 32  1  0  0  0  0
  8  2  1  6  0  0  0
  8  9  1  0  0  0  0
  8 10  1  0  0  0  0
  8 12  1  0  0  0  0
  9 11  1  0  0  0  0
  9 13  1  0  0  0  0
  9 38  1  1  0  0  0
 10 14  1  0  0  0  0
 10 39  1  0  0  0  0
 10 40  1  0  0  0  0
 11 17  1  0  0  0  0
 11 18  1  0  0  0  0
 11 41  1  0  0  0  0
 12 16  1  0  0  0  0
 12 42  1  0  0  0  0
 12 43  1  0  0  0  0
 13 15  2  0  0  0  0
 13 19  1  0  0  0  0
 14 15  1  0  0  0  0
 14 44  1  0  0  0  0
 14 45  1  0  0  0  0
 15 20  1  0  0  0  0
 16 46  1  0  0  0  0
 16 47  1  0  0  0  0
 17 48  1  0  0  0  0
 17 49  1  0  0  0  0
 17 50  1  0  0  0  0
 18 51  1  0  0  0  0
 18 52  1  0  0  0  0
 18 53  1  0  0  0  0
 19 21  2  0  0  0  0
 19 54  1  0  0  0  0
 20 23  2  0  0  0  0
 20 55  1  0  0  0  0
 21 23  1  0  0  0  0
 21 56  1  0  0  0  0
 22 27  1  0  0  0  0
 24 26  1  0  0  0  0
 24 57  1  0  0  0  0
 24 58  1  0  0  0  0
 25 59  1  0  0  0  0
 25 60  1  0  0  0  0
 25 61  1  0  0  0  0
 26 28  1  0  0  0  0
 26 62  1  0  0  0  0
 26 63  1  0  0  0  0
 27 64  1  0  0  0  0
 27 65  1  0  0  0  0
 28 29  1  0  0  0  0
 28 66  1  0  0  0  0
 28 67  1  0  0  0  0
 30 68  1  0  0  0  0
 30 69  1  0  0  0  0
 30 70  1  0  0  0  0
 31 32  1  0  0  0  0
 31 33  2  0  0  0  0
 32 34  2  0  0  0  0
 33 35  1  0  0  0  0
 33 71  1  0  0  0  0
 34 36  1  0  0  0  0
 34 72  1  0  0  0  0
 35 36  2  0  0  0  0
 35 73  1  0  0  0  0
 36 74  1  0  0  0  0
M  END
>  <DRUGBANK_ID>
DB01388

>  <COMMON_NAME>
Mibefradil

>  <CAS_NUMBER>
116644-53-2

>  <UNII>
27B90X776A

>  <SYNONYMS>
Mibefradil

$$$$
