
 OpenBabel10282417072D

 64 63  0  0  1  0  0  0  0  0999 V2000
    5.9961   -4.2868    0.0000 C   0  0  0  0  0  0  0  0  0  0  0  0
    6.7105   -3.8743    0.0000 C   0  0  0  0  0  0  0  0  0  0  0  0
    7.4250   -4.2868    0.0000 C   0  0  0  0  0  0  0  0  0  0  0  0
    8.1395   -3.8743    0.0000 C   0  0  0  0  0  0  0  0  0  0  0  0
    8.8539   -4.2868    0.0000 C   0  0  0  0  0  0  0  0  0  0  0  0
    8.8539   -5.1118    0.0000 O   0  0  0  0  0  0  0  0  0  0  0  0
    9.5684   -3.8743    0.0000 O   0  0  0  0  0  0  0  0  0  0  0  0
   10.2829   -4.2868    0.0000 C   0  0  0  0  0  0  0  0  0  0  0  0
   10.9974   -3.8743    0.0000 C   0  0  2  0  0  0  0  0  0  0  0  0
   11.7118   -4.2868    0.0000 C   0  0  0  0  0  0  0  0  0  0  0  0
   12.4263   -3.8743    0.0000 O   0  0  0  0  0  0  0  0  0  0  0  0
   13.1408   -4.2868    0.0000 P   0  0  1  0  0  0  0  0  0  0  0  0
   12.7283   -5.0013    0.0000 S   0  5  0  0  0  0  0  0  0  0  0  0
   13.5533   -3.5724    0.0000 S   0  0  0  0  0  0  0  0  0  0  0  0
   13.8552   -4.6993    0.0000 O   0  0  0  0  0  0  0  0  0  0  0  0
   14.5697   -4.2868    0.0000 C   0  0  0  0  0  0  0  0  0  0  0  0
   15.2842   -4.6993    0.0000 C   0  0  0  0  0  0  0  0  0  0  0  0
   15.9987   -4.2868    0.0000 N   0  3  0  0  0  0  0  0  0  0  0  0
   16.7131   -3.8743    0.0000 C   0  0  0  0  0  0  0  0  0  0  0  0
   16.4112   -5.0013    0.0000 C   0  0  0  0  0  0  0  0  0  0  0  0
   15.5862   -3.5724    0.0000 C   0  0  0  0  0  0  0  0  0  0  0  0
   10.9974   -3.0493    0.0000 O   0  0  0  0  0  0  0  0  0  0  0  0
   11.7118   -2.6368    0.0000 C   0  0  0  0  0  0  0  0  0  0  0  0
   12.4263   -3.0493    0.0000 O   0  0  0  0  0  0  0  0  0  0  0  0
   11.7118   -1.8118    0.0000 C   0  0  0  0  0  0  0  0  0  0  0  0
   12.4263   -1.3993    0.0000 C   0  0  0  0  0  0  0  0  0  0  0  0
   12.4263   -0.5743    0.0000 C   0  0  0  0  0  0  0  0  0  0  0  0
   13.1408   -0.1618    0.0000 C   0  0  0  0  0  0  0  0  0  0  0  0
    5.0694   -3.7518    0.0000 H   0  0  0  0  0  0  0  0  0  0  0  0
    5.9961   -5.3568    0.0000 H   0  0  0  0  0  0  0  0  0  0  0  0
    5.0695   -4.8218    0.0000 H   0  0  0  0  0  0  0  0  0  0  0  0
    6.7105   -2.8043    0.0000 H   0  0  0  0  0  0  0  0  0  0  0  0
    7.6371   -3.3393    0.0000 H   0  0  0  0  0  0  0  0  0  0  0  0
    7.4250   -5.3568    0.0000 H   0  0  0  0  0  0  0  0  0  0  0  0
    8.3516   -4.8218    0.0000 H   0  0  0  0  0  0  0  0  0  0  0  0
    8.1395   -2.8043    0.0000 H   0  0  0  0  0  0  0  0  0  0  0  0
    9.0662   -3.3393    0.0000 H   0  0  0  0  0  0  0  0  0  0  0  0
   10.2829   -5.3568    0.0000 H   0  0  0  0  0  0  0  0  0  0  0  0
   11.2095   -4.8218    0.0000 H   0  0  0  0  0  0  0  0  0  0  0  0
   10.0708   -3.3393    0.0000 H   0  0  0  0  0  0  0  0  0  0  0  0
   11.7118   -5.3568    0.0000 H   0  0  0  0  0  0  0  0  0  0  0  0
   12.6384   -4.8218    0.0000 H   0  0  0  0  0  0  0  0  0  0  0  0
   14.5697   -3.2168    0.0000 H   0  0  0  0  0  0  0  0  0  0  0  0
   15.4963   -3.7518    0.0000 H   0  0  0  0  0  0  0  0  0  0  0  0
   15.2842   -5.7693    0.0000 H   0  0  0  0  0  0  0  0  0  0  0  0
   16.2108   -5.2343    0.0000 H   0  0  0  0  0  0  0  0  0  0  0  0
   17.6398   -4.4093    0.0000 H   0  0  0  0  0  0  0  0  0  0  0  0
   16.7131   -2.8043    0.0000 H   0  0  0  0  0  0  0  0  0  0  0  0
   17.6397   -3.3393    0.0000 H   0  0  0  0  0  0  0  0  0  0  0  0
   15.8762   -5.9279    0.0000 H   0  0  0  0  0  0  0  0  0  0  0  0
   17.4812   -5.0013    0.0000 H   0  0  0  0  0  0  0  0  0  0  0  0
   16.9462   -5.9280    0.0000 H   0  0  0  0  0  0  0  0  0  0  0  0
   16.1212   -2.6457    0.0000 H   0  0  0  0  0  0  0  0  0  0  0  0
   14.5162   -3.5724    0.0000 H   0  0  0  0  0  0  0  0  0  0  0  0
   15.0512   -2.6458    0.0000 H   0  0  0  0  0  0  0  0  0  0  0  0
   10.7852   -1.2768    0.0000 H   0  0  0  0  0  0  0  0  0  0  0  0
   11.7118   -0.7418    0.0000 H   0  0  0  0  0  0  0  0  0  0  0  0
   13.3529   -1.9343    0.0000 H   0  0  0  0  0  0  0  0  0  0  0  0
   13.3529   -0.8643    0.0000 H   0  0  0  0  0  0  0  0  0  0  0  0
   11.4997   -0.0393    0.0000 H   0  0  0  0  0  0  0  0  0  0  0  0
   12.4263    0.4957    0.0000 H   0  0  0  0  0  0  0  0  0  0  0  0
   14.0674   -0.6968    0.0000 H   0  0  0  0  0  0  0  0  0  0  0  0
   13.1408    0.9082    0.0000 H   0  0  0  0  0  0  0  0  0  0  0  0
   14.0675    0.3732    0.0000 H   0  0  0  0  0  0  0  0  0  0  0  0
  1  2  1  0  0  0  0
  1 29  1  0  0  0  0
  1 30  1  0  0  0  0
  1 31  1  0  0  0  0
  2  3  1  0  0  0  0
  2 32  1  0  0  0  0
  2 33  1  0  0  0  0
  3  4  1  0  0  0  0
  3 34  1  0  0  0  0
  3 35  1  0  0  0  0
  4  5  1  0  0  0  0
  4 36  1  0  0  0  0
  4 37  1  0  0  0  0
  5  6  2  0  0  0  0
  5  7  1  0  0  0  0
  7  8  1  0  0  0  0
  8  9  1  0  0  0  0
  8 38  1  0  0  0  0
  8 39  1  0  0  0  0
  9 10  1  0  0  0  0
  9 22  1  0  0  0  0
  9 40  1  6  0  0  0
 10 11  1  0  0  0  0
 10 41  1  0  0  0  0
 10 42  1  0  0  0  0
 12 11  1  0  0  0  0
 12 13  1  6  0  0  0
 12 14  2  0  0  0  0
 12 15  1  0  0  0  0
 15 16  1  0  0  0  0
 16 17  1  0  0  0  0
 16 43  1  0  0  0  0
 16 44  1  0  0  0  0
 17 18  1  0  0  0  0
 17 45  1  0  0  0  0
 17 46  1  0  0  0  0
 18 19  1  0  0  0  0
 18 20  1  0  0  0  0
 18 21  1  0  0  0  0
 19 47  1  0  0  0  0
 19 48  1  0  0  0  0
 19 49  1  0  0  0  0
 20 50  1  0  0  0  0
 20 51  1  0  0  0  0
 20 52  1  0  0  0  0
 21 53  1  0  0  0  0
 21 54  1  0  0  0  0
 21 55  1  0  0  0  0
 22 23  1  0  0  0  0
 23 24  2  0  0  0  0
 23 25  1  0  0  0  0
 25 26  1  0  0  0  0
 25 56  1  0  0  0  0
 25 57  1  0  0  0  0
 26 27  1  0  0  0  0
 26 58  1  0  0  0  0
 26 59  1  0  0  0  0
 27 28  1  0  0  0  0
 27 60  1  0  0  0  0
 27 61  1  0  0  0  0
 28 62  1  0  0  0  0
 28 63  1  0  0  0  0
 28 64  1  0  0  0  0
M  CHG  2  13  -1  18   1
M  END
>  <DRUGBANK_ID>
DB02225

>  <SECONDARY_ACCESSION_NUMBERS>
EXPT02514

>  <COMMON_NAME>
1,2-Di-N-Pentanoyl-Sn-Glycero-3-Dithiophosphocholine

$$$$
