
 OpenBabel10282417072D

 60 64  0  0  1  0  0  0  0  0999 V2000
    2.4713   -2.0911    0.0000 Si  0  0  0  0  0  0  0  0  0  0  0  0
    6.5351    3.4162    0.0000 O   0  0  0  0  0  0  0  0  0  0  0  0
    7.6768    1.4080    0.0000 O   0  0  0  0  0  0  0  0  0  0  0  0
    4.3786    2.1216    0.0000 O   0  0  0  0  0  0  0  0  0  0  0  0
    7.9953    3.3963    0.0000 O   0  0  0  0  0  0  0  0  0  0  0  0
    5.0931    0.8842    0.0000 N   0  0  0  0  0  0  0  0  0  0  0  0
    6.1470   -1.0137    0.0000 N   0  0  0  0  0  0  0  0  0  0  0  0
    4.8193   -0.4150    0.0000 C   0  0  0  0  0  0  0  0  0  0  0  0
    4.4851    0.3339    0.0000 C   0  0  0  0  0  0  0  0  0  0  0  0
    4.4592   -1.1897    0.0000 C   0  0  0  0  0  0  0  0  0  0  0  0
    5.8075    0.4717    0.0000 C   0  0  0  0  0  0  0  0  0  0  0  0
    3.2928   -2.0151    0.0000 C   0  0  0  0  0  0  0  0  0  0  0  0
    3.6377   -1.2657    0.0000 C   0  0  0  0  0  0  0  0  0  0  0  0
    5.6349   -0.3301    0.0000 C   0  0  0  0  0  0  0  0  0  0  0  0
    6.5220    1.7092    0.0000 C   0  0  0  0  0  0  0  0  0  0  0  0
    7.2727    2.1272    0.0000 C   0  0  2  0  0  0  0  0  0  0  0  0
    5.8075    2.1216    0.0000 C   0  0  0  0  0  0  0  0  0  0  0  0
    6.5220    0.8842    0.0000 C   0  0  0  0  0  0  0  0  0  0  0  0
    5.0931    1.7092    0.0000 C   0  0  0  0  0  0  0  0  0  0  0  0
    4.9553   -1.8850    0.0000 C   0  0  0  0  0  0  0  0  0  0  0  0
    8.0976    2.1177    0.0000 C   0  0  0  0  0  0  0  0  0  0  0  0
    5.7943    2.9808    0.0000 C   0  0  0  0  0  0  0  0  0  0  0  0
    1.6499   -2.1672    0.0000 C   0  0  0  0  0  0  0  0  0  0  0  0
    2.5474   -2.9126    0.0000 C   0  0  0  0  0  0  0  0  0  0  0  0
    2.3954   -1.2697    0.0000 C   0  0  0  0  0  0  0  0  0  0  0  0
    5.8049   -1.7964    0.0000 C   0  0  0  0  0  0  0  0  0  0  0  0
    7.2793    2.9865    0.0000 C   0  0  0  0  0  0  0  0  0  0  0  0
    4.5802   -2.6918    0.0000 C   0  0  0  0  0  0  0  0  0  0  0  0
    8.5017    1.3986    0.0000 C   0  0  0  0  0  0  0  0  0  0  0  0
    6.3383   -2.5086    0.0000 C   0  0  0  0  0  0  0  0  0  0  0  0
    5.0970   -3.4162    0.0000 C   0  0  0  0  0  0  0  0  0  0  0  0
    5.9820   -3.3239    0.0000 C   0  0  0  0  0  0  0  0  0  0  0  0
    7.1820    0.5737    0.0000 H   0  0  0  0  0  0  0  0  0  0  0  0
    3.4381    0.5546    0.0000 H   0  0  0  0  0  0  0  0  0  0  0  0
    3.8128   -0.4985    0.0000 H   0  0  0  0  0  0  0  0  0  0  0  0
    3.9109   -2.8885    0.0000 H   0  0  0  0  0  0  0  0  0  0  0  0
    4.3582   -1.9165    0.0000 H   0  0  0  0  0  0  0  0  0  0  0  0
    3.0196   -0.3923    0.0000 H   0  0  0  0  0  0  0  0  0  0  0  0
    2.5723   -1.3643    0.0000 H   0  0  0  0  0  0  0  0  0  0  0  0
    7.4157    0.3682    0.0000 H   0  0  0  0  0  0  0  0  0  0  0  0
    8.6433    3.0381    0.0000 H   0  0  0  0  0  0  0  0  0  0  0  0
    9.1675    2.1053    0.0000 H   0  0  0  0  0  0  0  0  0  0  0  0
    4.8615    3.5051    0.0000 H   0  0  0  0  0  0  0  0  0  0  0  0
    4.8749    2.4334    0.0000 H   0  0  0  0  0  0  0  0  0  0  0  0
    1.0317   -1.2939    0.0000 H   0  0  0  0  0  0  0  0  0  0  0  0
    1.2027   -3.1393    0.0000 H   0  0  0  0  0  0  0  0  0  0  0  0
    0.5845   -2.2659    0.0000 H   0  0  0  0  0  0  0  0  0  0  0  0
    1.6741   -3.5308    0.0000 H   0  0  0  0  0  0  0  0  0  0  0  0
    3.5194   -3.3598    0.0000 H   0  0  0  0  0  0  0  0  0  0  0  0
    2.6461   -3.9780    0.0000 H   0  0  0  0  0  0  0  0  0  0  0  0
    3.2689   -0.6517    0.0000 H   0  0  0  0  0  0  0  0  0  0  0  0
    1.4235   -0.8222    0.0000 H   0  0  0  0  0  0  0  0  0  0  0  0
    2.2969   -0.2042    0.0000 H   0  0  0  0  0  0  0  0  0  0  0  0
    3.5526   -2.7869    0.0000 H   0  0  0  0  0  0  0  0  0  0  0  0
    7.9560    0.4782    0.0000 H   0  0  0  0  0  0  0  0  0  0  0  0
    9.5716    1.3862    0.0000 H   0  0  0  0  0  0  0  0  0  0  0  0
    9.0259    0.4658    0.0000 H   0  0  0  0  0  0  0  0  0  0  0  0
    7.3634   -2.3898    0.0000 H   0  0  0  0  0  0  0  0  0  0  0  0
    4.6728   -4.3570    0.0000 H   0  0  0  0  0  0  0  0  0  0  0  0
    6.5911   -4.1570    0.0000 H   0  0  0  0  0  0  0  0  0  0  0  0
  1 12  1  0  0  0  0
  1 23  1  0  0  0  0
  1 24  1  0  0  0  0
  1 25  1  0  0  0  0
  2 22  1  0  0  0  0
  2 27  1  0  0  0  0
  3 33  1  0  0  0  0
  4 19  2  0  0  0  0
  5 27  2  0  0  0  0
  6  9  1  0  0  0  0
  6 11  1  0  0  0  0
  6 19  1  0  0  0  0
  7 14  2  0  0  0  0
  7 26  1  0  0  0  0
  8  9  1  0  0  0  0
  8 10  2  0  0  0  0
  8 14  1  0  0  0  0
  9 34  1  0  0  0  0
  9 35  1  0  0  0  0
 10 13  1  0  0  0  0
 10 20  1  0  0  0  0
 11 14  1  0  0  0  0
 11 18  2  0  0  0  0
 12 13  1  0  0  0  0
 12 36  1  0  0  0  0
 12 37  1  0  0  0  0
 13 38  1  0  0  0  0
 13 39  1  0  0  0  0
 15 16  1  0  0  0  0
 15 17  2  0  0  0  0
 15 18  1  0  0  0  0
 16  3  1  1  0  0  0
 16 21  1  0  0  0  0
 16 27  1  0  0  0  0
 17 19  1  0  0  0  0
 17 22  1  0  0  0  0
 18 40  1  0  0  0  0
 20 26  1  0  0  0  0
 20 28  2  0  0  0  0
 21 29  1  0  0  0  0
 21 41  1  0  0  0  0
 21 42  1  0  0  0  0
 22 43  1  0  0  0  0
 22 44  1  0  0  0  0
 23 45  1  0  0  0  0
 23 46  1  0  0  0  0
 23 47  1  0  0  0  0
 24 48  1  0  0  0  0
 24 49  1  0  0  0  0
 24 50  1  0  0  0  0
 25 51  1  0  0  0  0
 25 52  1  0  0  0  0
 25 53  1  0  0  0  0
 26 30  2  0  0  0  0
 28 31  1  0  0  0  0
 28 54  1  0  0  0  0
 29 55  1  0  0  0  0
 29 56  1  0  0  0  0
 29 57  1  0  0  0  0
 30 32  1  0  0  0  0
 30 58  1  0  0  0  0
 31 32  2  0  0  0  0
 31 59  1  0  0  0  0
 32 60  1  0  0  0  0
M  END
>  <DRUGBANK_ID>
DB05806

>  <COMMON_NAME>
Cositecan

>  <CAS_NUMBER>
203923-89-1

>  <UNII>
24R60NVC41

>  <SYNONYMS>
Cositecan; Karenitecin

$$$$
