
 OpenBabel10282417072D

106112  0  0  0  0  0  0  0  0999 V2000
   -5.3883    1.7956    0.0000 N   0  0  0  0  0  0  0  0  0  0  0  0
   -6.1420    1.4600    0.0000 C   0  0  0  0  0  0  0  0  0  0  0  0
   -6.0556    0.6395    0.0000 C   0  0  0  0  0  0  0  0  0  0  0  0
   -5.2487    0.4680    0.0000 C   0  0  0  0  0  0  0  0  0  0  0  0
   -4.8362    1.1825    0.0000 C   0  0  1  0  0  0  0  0  0  0  0  0
   -5.2168    2.6025    0.0000 C   0  0  0  0  0  0  0  0  0  0  0  0
   -4.4323    2.8575    0.0000 O   0  0  0  0  0  0  0  0  0  0  0  0
   -5.8300    3.1545    0.0000 C   0  0  1  0  0  0  0  0  0  0  0  0
   -5.6585    3.9615    0.0000 N   0  0  0  0  0  0  0  0  0  0  0  0
   -6.6146    2.8996    0.0000 C   0  0  0  0  0  0  0  0  0  0  0  0
   -7.2277    3.4515    0.0000 C   0  0  0  0  0  0  0  0  0  0  0  0
   -6.7861    2.0926    0.0000 C   0  0  0  0  0  0  0  0  0  0  0  0
   -6.2716    4.5134    0.0000 C   0  0  0  0  0  0  0  0  0  0  0  0
   -6.1002    5.3205    0.0000 O   0  0  0  0  0  0  0  0  0  0  0  0
   -7.0562    4.2585    0.0000 O   0  0  0  0  0  0  0  0  0  0  0  0
   -7.6693    4.8105    0.0000 C   0  0  0  0  0  0  0  0  0  0  0  0
   -4.0158    1.2688    0.0000 C   0  0  0  0  0  0  0  0  0  0  0  0
   -3.6033    1.9833    0.0000 N   0  0  0  0  0  0  0  0  0  0  0  0
   -3.4638    0.6558    0.0000 N   0  0  0  0  0  0  0  0  0  0  0  0
   -2.7101    0.9913    0.0000 C   0  0  0  0  0  0  0  0  0  0  0  0
   -2.7963    1.8117    0.0000 C   0  0  0  0  0  0  0  0  0  0  0  0
   -1.9956    0.5788    0.0000 C   0  0  0  0  0  0  0  0  0  0  0  0
   -1.2812    0.9913    0.0000 C   0  0  0  0  0  0  0  0  0  0  0  0
   -1.9956   -0.2461    0.0000 C   0  0  0  0  0  0  0  0  0  0  0  0
   -1.2812   -0.6586    0.0000 C   0  0  0  0  0  0  0  0  0  0  0  0
   -0.5667   -0.2461    0.0000 C   0  0  0  0  0  0  0  0  0  0  0  0
   -0.5667    0.5788    0.0000 C   0  0  0  0  0  0  0  0  0  0  0  0
    0.1477   -0.6586    0.0000 C   0  0  0  0  0  0  0  0  0  0  0  0
    0.8622   -0.2461    0.0000 C   0  0  0  0  0  0  0  0  0  0  0  0
    0.8622    0.5788    0.0000 C   0  0  0  0  0  0  0  0  0  0  0  0
    0.1477    0.9913    0.0000 C   0  0  0  0  0  0  0  0  0  0  0  0
    1.5766   -0.6587    0.0000 C   0  0  0  0  0  0  0  0  0  0  0  0
    2.2911   -0.2461    0.0000 C   0  0  0  0  0  0  0  0  0  0  0  0
    1.5766   -1.4837    0.0000 C   0  0  0  0  0  0  0  0  0  0  0  0
    2.2911   -1.8963    0.0000 C   0  0  0  0  0  0  0  0  0  0  0  0
    3.0056   -1.4837    0.0000 C   0  0  0  0  0  0  0  0  0  0  0  0
    3.0056   -0.6587    0.0000 C   0  0  0  0  0  0  0  0  0  0  0  0
    3.7901   -1.7387    0.0000 N   0  0  0  0  0  0  0  0  0  0  0  0
    4.2751   -1.0713    0.0000 C   0  0  0  0  0  0  0  0  0  0  0  0
    3.7902   -0.4038    0.0000 N   0  0  0  0  0  0  0  0  0  0  0  0
    5.1001   -1.0713    0.0000 C   0  0  2  0  0  0  0  0  0  0  0  0
    5.6193   -0.4301    0.0000 C   0  0  0  0  0  0  0  0  0  0  0  0
    5.5494   -1.7632    0.0000 N   0  0  0  0  0  0  0  0  0  0  0  0
    6.3463   -1.5496    0.0000 C   0  0  0  0  0  0  0  0  0  0  0  0
    6.3894   -0.7258    0.0000 C   0  0  0  0  0  0  0  0  0  0  0  0
    5.3359   -2.5601    0.0000 C   0  0  0  0  0  0  0  0  0  0  0  0
    4.5390   -2.7736    0.0000 O   0  0  0  0  0  0  0  0  0  0  0  0
    5.9192   -3.1434    0.0000 C   0  0  1  0  0  0  0  0  0  0  0  0
    5.7057   -3.9403    0.0000 N   0  0  0  0  0  0  0  0  0  0  0  0
    6.7161   -2.9298    0.0000 C   0  0  0  0  0  0  0  0  0  0  0  0
    7.2995   -3.5133    0.0000 C   0  0  0  0  0  0  0  0  0  0  0  0
    6.9296   -2.1330    0.0000 C   0  0  0  0  0  0  0  0  0  0  0  0
    6.2891   -4.5237    0.0000 C   0  0  0  0  0  0  0  0  0  0  0  0
    6.0755   -5.3205    0.0000 O   0  0  0  0  0  0  0  0  0  0  0  0
    7.0860   -4.3102    0.0000 O   0  0  0  0  0  0  0  0  0  0  0  0
    7.6693   -4.8935    0.0000 C   0  0  0  0  0  0  0  0  0  0  0  0
   -7.0687    1.9949    0.0000 H   0  0  0  0  0  0  0  0  0  0  0  0
   -7.0393    0.8771    0.0000 H   0  0  0  0  0  0  0  0  0  0  0  0
   -6.8507   -0.0766    0.0000 H   0  0  0  0  0  0  0  0  0  0  0  0
   -5.7786   -0.3940    0.0000 H   0  0  0  0  0  0  0  0  0  0  0  0
   -4.8135   -0.5095    0.0000 H   0  0  0  0  0  0  0  0  0  0  0  0
   -4.1802    0.4120    0.0000 H   0  0  0  0  0  0  0  0  0  0  0  0
   -4.4528    2.1815    0.0000 H   0  0  0  0  0  0  0  0  0  0  0  0
   -4.8124    3.4852    0.0000 H   0  0  0  0  0  0  0  0  0  0  0  0
   -4.7222    4.2658    0.0000 H   0  0  0  0  0  0  0  0  0  0  0  0
   -7.6322    2.5689    0.0000 H   0  0  0  0  0  0  0  0  0  0  0  0
   -7.0054    4.4981    0.0000 H   0  0  0  0  0  0  0  0  0  0  0  0
   -8.2453    3.1207    0.0000 H   0  0  0  0  0  0  0  0  0  0  0  0
   -8.0230    4.1674    0.0000 H   0  0  0  0  0  0  0  0  0  0  0  0
   -7.8037    1.7619    0.0000 H   0  0  0  0  0  0  0  0  0  0  0  0
   -5.9909    1.3767    0.0000 H   0  0  0  0  0  0  0  0  0  0  0  0
   -7.0085    1.0460    0.0000 H   0  0  0  0  0  0  0  0  0  0  0  0
   -7.4469    5.8571    0.0000 H   0  0  0  0  0  0  0  0  0  0  0  0
   -8.6869    4.4798    0.0000 H   0  0  0  0  0  0  0  0  0  0  0  0
   -8.4645    5.5264    0.0000 H   0  0  0  0  0  0  0  0  0  0  0  0
   -4.0037    2.8827    0.0000 H   0  0  0  0  0  0  0  0  0  0  0  0
   -2.0293    2.5022    0.0000 H   0  0  0  0  0  0  0  0  0  0  0  0
   -1.2812    2.0233    0.0000 H   0  0  0  0  0  0  0  0  0  0  0  0
   -2.8893   -0.7621    0.0000 H   0  0  0  0  0  0  0  0  0  0  0  0
   -1.2812   -1.6906    0.0000 H   0  0  0  0  0  0  0  0  0  0  0  0
    0.1477   -1.6906    0.0000 H   0  0  0  0  0  0  0  0  0  0  0  0
    1.7559    1.0948    0.0000 H   0  0  0  0  0  0  0  0  0  0  0  0
    0.1477    2.0233    0.0000 H   0  0  0  0  0  0  0  0  0  0  0  0
    2.2911    0.7859    0.0000 H   0  0  0  0  0  0  0  0  0  0  0  0
    0.6828   -1.9997    0.0000 H   0  0  0  0  0  0  0  0  0  0  0  0
    2.2911   -2.9283    0.0000 H   0  0  0  0  0  0  0  0  0  0  0  0
    4.0942   -2.6750    0.0000 H   0  0  0  0  0  0  0  0  0  0  0  0
    4.6394   -0.1055    0.0000 H   0  0  0  0  0  0  0  0  0  0  0  0
    5.3424    0.6034    0.0000 H   0  0  0  0  0  0  0  0  0  0  0  0
    4.5727   -0.2076    0.0000 H   0  0  0  0  0  0  0  0  0  0  0  0
    7.1779   -2.2229    0.0000 H   0  0  0  0  0  0  0  0  0  0  0  0
    7.3238   -1.1143    0.0000 H   0  0  0  0  0  0  0  0  0  0  0  0
    7.2868   -0.1430    0.0000 H   0  0  0  0  0  0  0  0  0  0  0  0
    6.2776    0.3383    0.0000 H   0  0  0  0  0  0  0  0  0  0  0  0
    4.8857   -3.4204    0.0000 H   0  0  0  0  0  0  0  0  0  0  0  0
    4.7548   -4.1951    0.0000 H   0  0  0  0  0  0  0  0  0  0  0  0
    7.7497   -2.6529    0.0000 H   0  0  0  0  0  0  0  0  0  0  0  0
    7.0225   -4.5468    0.0000 H   0  0  0  0  0  0  0  0  0  0  0  0
    8.3331   -3.2365    0.0000 H   0  0  0  0  0  0  0  0  0  0  0  0
    8.0560   -4.2700    0.0000 H   0  0  0  0  0  0  0  0  0  0  0  0
    7.9631   -1.8561    0.0000 H   0  0  0  0  0  0  0  0  0  0  0  0
    6.1730   -1.3764    0.0000 H   0  0  0  0  0  0  0  0  0  0  0  0
    7.2065   -1.0995    0.0000 H   0  0  0  0  0  0  0  0  0  0  0  0
    7.3924   -5.9270    0.0000 H   0  0  0  0  0  0  0  0  0  0  0  0
    8.7028   -4.6166    0.0000 H   0  0  0  0  0  0  0  0  0  0  0  0
    8.4259   -5.6501    0.0000 H   0  0  0  0  0  0  0  0  0  0  0  0
  1  2  1  0  0  0  0
  1  5  1  0  0  0  0
  1  6  1  0  0  0  0
  2  3  1  0  0  0  0
  2 57  1  0  0  0  0
  2 58  1  0  0  0  0
  3  4  1  0  0  0  0
  3 59  1  0  0  0  0
  3 60  1  0  0  0  0
  4  5  1  0  0  0  0
  4 61  1  0  0  0  0
  4 62  1  0  0  0  0
  5 17  1  0  0  0  0
  5 63  1  1  0  0  0
  6  7  2  0  0  0  0
  6  8  1  0  0  0  0
  8  9  1  0  0  0  0
  8 10  1  0  0  0  0
  8 64  1  1  0  0  0
  9 13  1  0  0  0  0
  9 65  1  0  0  0  0
 10 11  1  0  0  0  0
 10 12  1  0  0  0  0
 10 66  1  0  0  0  0
 11 67  1  0  0  0  0
 11 68  1  0  0  0  0
 11 69  1  0  0  0  0
 12 70  1  0  0  0  0
 12 71  1  0  0  0  0
 12 72  1  0  0  0  0
 13 14  2  0  0  0  0
 13 15  1  0  0  0  0
 15 16  1  0  0  0  0
 16 73  1  0  0  0  0
 16 74  1  0  0  0  0
 16 75  1  0  0  0  0
 17 19  2  0  0  0  0
 18 21  1  0  0  0  0
 18 17  1  0  0  0  0
 18 76  1  0  0  0  0
 19 20  1  0  0  0  0
 20 21  2  0  0  0  0
 20 22  1  0  0  0  0
 21 77  1  0  0  0  0
 22 24  1  0  0  0  0
 23 27  1  0  0  0  0
 23 22  2  0  0  0  0
 23 78  1  0  0  0  0
 24 25  2  0  0  0  0
 24 79  1  0  0  0  0
 25 26  1  0  0  0  0
 25 80  1  0  0  0  0
 26 27  2  0  0  0  0
 26 28  1  0  0  0  0
 27 31  1  0  0  0  0
 28 29  2  0  0  0  0
 28 81  1  0  0  0  0
 29 30  1  0  0  0  0
 29 32  1  0  0  0  0
 30 31  2  0  0  0  0
 30 82  1  0  0  0  0
 31 83  1  0  0  0  0
 32 34  1  0  0  0  0
 33 37  1  0  0  0  0
 33 32  2  0  0  0  0
 33 84  1  0  0  0  0
 34 35  2  0  0  0  0
 34 85  1  0  0  0  0
 35 36  1  0  0  0  0
 35 86  1  0  0  0  0
 36 37  2  0  0  0  0
 36 38  1  0  0  0  0
 37 40  1  0  0  0  0
 38 39  1  0  0  0  0
 38 87  1  0  0  0  0
 39 40  2  0  0  0  0
 41 39  1  0  0  0  0
 41 43  1  0  0  0  0
 41 88  1  1  0  0  0
 42 45  1  0  0  0  0
 42 41  1  0  0  0  0
 42 89  1  0  0  0  0
 42 90  1  0  0  0  0
 43 44  1  0  0  0  0
 43 46  1  0  0  0  0
 44 45  1  0  0  0  0
 44 91  1  0  0  0  0
 44 92  1  0  0  0  0
 45 93  1  0  0  0  0
 45 94  1  0  0  0  0
 46 47  2  0  0  0  0
 46 48  1  0  0  0  0
 48 49  1  0  0  0  0
 48 50  1  0  0  0  0
 48 95  1  1  0  0  0
 49 53  1  0  0  0  0
 49 96  1  0  0  0  0
 50 51  1  0  0  0  0
 50 52  1  0  0  0  0
 50 97  1  0  0  0  0
 51 98  1  0  0  0  0
 51 99  1  0  0  0  0
 51100  1  0  0  0  0
 52101  1  0  0  0  0
 52102  1  0  0  0  0
 52103  1  0  0  0  0
 53 54  2  0  0  0  0
 53 55  1  0  0  0  0
 55 56  1  0  0  0  0
 56104  1  0  0  0  0
 56105  1  0  0  0  0
 56106  1  0  0  0  0
M  END
>  <DRUGBANK_ID>
DB15652

>  <COMMON_NAME>
Ravidasvir

>  <CAS_NUMBER>
1242087-93-9

>  <UNII>
AL3G001BI8

>  <SYNONYMS>
Ravidasvir

$$$$
