
 OpenBabel10282417072D

 38 39  0  0  0  0  0  0  0  0999 V2000
   -1.5261   -2.0495    0.0000 O   0  0  0  0  0  0  0  0  0  0  0  0
   -1.0395   -1.3860    0.0000 N   0  0  0  0  0  0  0  0  0  0  0  0
   -1.3786   -0.6339    0.0000 C   0  0  0  0  0  0  0  0  0  0  0  0
   -0.8921    0.0368    0.0000 C   0  0  0  0  0  0  0  0  0  0  0  0
   -1.1427    0.8184    0.0000 N   0  0  0  0  0  0  0  0  0  0  0  0
   -0.4791    1.3049    0.0000 O   0  0  0  0  0  0  0  0  0  0  0  0
    0.1917    0.8184    0.0000 N   0  0  0  0  0  0  0  0  0  0  0  0
   -0.0663    0.0368    0.0000 C   0  0  0  0  0  0  0  0  0  0  0  0
    0.4128   -0.6339    0.0000 N   0  0  0  0  0  0  0  0  0  0  0  0
    1.2312   -0.5455    0.0000 C   0  0  0  0  0  0  0  0  0  0  0  0
    1.7177   -1.2164    0.0000 C   0  0  0  0  0  0  0  0  0  0  0  0
    2.5361   -1.1280    0.0000 N   0  0  0  0  0  0  0  0  0  0  0  0
    3.0227   -1.7989    0.0000 S   0  0  0  0  0  0  0  0  0  0  0  0
    3.5020   -2.4624    0.0000 N   0  0  0  0  0  0  0  0  0  0  0  0
    3.6863   -1.3123    0.0000 O   0  0  0  0  0  0  0  0  0  0  0  0
    2.3518   -2.2782    0.0000 O   0  0  0  0  0  0  0  0  0  0  0  0
   -2.1971   -0.5455    0.0000 N   0  0  0  0  0  0  0  0  0  0  0  0
   -2.5287    0.2064    0.0000 C   0  0  0  0  0  0  0  0  0  0  0  0
   -3.3545    0.2948    0.0000 C   0  0  0  0  0  0  0  0  0  0  0  0
   -3.6863    1.0469    0.0000 C   0  0  0  0  0  0  0  0  0  0  0  0
   -3.2070    1.7103    0.0000 C   0  0  0  0  0  0  0  0  0  0  0  0
   -3.5462    2.4624    0.0000 F   0  0  0  0  0  0  0  0  0  0  0  0
   -2.3813    1.6292    0.0000 C   0  0  0  0  0  0  0  0  0  0  0  0
   -1.9020    2.3002    0.0000 Br  0  0  0  0  0  0  0  0  0  0  0  0
   -2.0422    0.8773    0.0000 C   0  0  0  0  0  0  0  0  0  0  0  0
   -2.4575   -1.9474    0.0000 H   0  0  0  0  0  0  0  0  0  0  0  0
    0.0100   -1.5322    0.0000 H   0  0  0  0  0  0  0  0  0  0  0  0
    1.6654    0.4324    0.0000 H   0  0  0  0  0  0  0  0  0  0  0  0
    2.2953   -0.4336    0.0000 H   0  0  0  0  0  0  0  0  0  0  0  0
    1.2835   -2.1943    0.0000 H   0  0  0  0  0  0  0  0  0  0  0  0
    2.3483   -2.0808    0.0000 H   0  0  0  0  0  0  0  0  0  0  0  0
    2.9500   -0.1958    0.0000 H   0  0  0  0  0  0  0  0  0  0  0  0
    3.0846   -3.3931    0.0000 H   0  0  0  0  0  0  0  0  0  0  0  0
    4.5167   -2.3585    0.0000 H   0  0  0  0  0  0  0  0  0  0  0  0
   -2.7783   -1.3401    0.0000 H   0  0  0  0  0  0  0  0  0  0  0  0
   -3.9633   -0.5385    0.0000 H   0  0  0  0  0  0  0  0  0  0  0  0
   -4.7126    1.1552    0.0000 H   0  0  0  0  0  0  0  0  0  0  0  0
   -1.0155    0.7724    0.0000 H   0  0  0  0  0  0  0  0  0  0  0  0
  1  2  1  0  0  0  0
  1 26  1  0  0  0  0
  2  3  2  0  0  0  0
  3  4  1  0  0  0  0
  3 17  1  0  0  0  0
  4  5  2  0  0  0  0
  4  8  1  0  0  0  0
  5  6  1  0  0  0  0
  6  7  1  0  0  0  0
  7  8  2  0  0  0  0
  8  9  1  0  0  0  0
  9 10  1  0  0  0  0
  9 27  1  0  0  0  0
 10 11  1  0  0  0  0
 10 28  1  0  0  0  0
 10 29  1  0  0  0  0
 11 12  1  0  0  0  0
 11 30  1  0  0  0  0
 11 31  1  0  0  0  0
 12 13  1  0  0  0  0
 12 32  1  0  0  0  0
 13 14  1  0  0  0  0
 13 15  2  0  0  0  0
 13 16  2  0  0  0  0
 14 33  1  0  0  0  0
 14 34  1  0  0  0  0
 17 18  1  0  0  0  0
 17 35  1  0  0  0  0
 18 19  2  0  0  0  0
 18 25  1  0  0  0  0
 19 20  1  0  0  0  0
 19 36  1  0  0  0  0
 20 21  2  0  0  0  0
 20 37  1  0  0  0  0
 21 22  1  0  0  0  0
 21 23  1  0  0  0  0
 23 24  1  0  0  0  0
 23 25  2  0  0  0  0
 25 38  1  0  0  0  0
M  END
>  <DRUGBANK_ID>
DB11717

>  <COMMON_NAME>
Epacadostat

>  <CAS_NUMBER>
1204669-58-8

>  <UNII>
71596A9R13

>  <SYNONYMS>
Epacadostat; Epacadostatum

$$$$
