
 OpenBabel10282417072D

 62 65  0  0  1  0  0  0  0  0999 V2000
    0.7145    1.2375    0.0000 C   0  0  0  0  0  0  0  0  0  0  0  0
    0.0000    0.8250    0.0000 C   0  0  1  0  0  0  0  0  0  0  0  0
    0.0000   -0.0000    0.0000 C   0  0  0  0  0  0  0  0  0  0  0  0
   -0.7145   -0.4125    0.0000 C   0  0  0  0  0  0  0  0  0  0  0  0
   -0.7145   -1.2375    0.0000 C   0  0  0  0  0  0  0  0  0  0  0  0
    0.0000   -1.6500    0.0000 C   0  0  0  0  0  0  0  0  0  0  0  0
    0.7145   -1.2375    0.0000 C   0  0  0  0  0  0  0  0  0  0  0  0
    0.7145   -0.4125    0.0000 C   0  0  0  0  0  0  0  0  0  0  0  0
    1.4289   -0.0000    0.0000 C   0  0  0  0  0  0  0  0  0  0  0  0
    2.1434   -0.4125    0.0000 C   0  0  0  0  0  0  0  0  0  0  0  0
    2.1434   -1.2375    0.0000 C   0  0  0  0  0  0  0  0  0  0  0  0
    1.4289   -1.6500    0.0000 C   0  0  0  0  0  0  0  0  0  0  0  0
   -1.4289   -1.6500    0.0000 Cl  0  0  0  0  0  0  0  0  0  0  0  0
   -0.7145    1.2375    0.0000 N   0  0  0  0  0  0  0  0  0  0  0  0
   -1.4289    0.8250    0.0000 C   0  0  0  0  0  0  0  0  0  0  0  0
   -0.7145    2.0625    0.0000 C   0  0  0  0  0  0  0  0  0  0  0  0
    0.0000    2.4750    0.0000 O   0  0  0  0  0  0  0  0  0  0  0  0
   -1.4289    2.4750    0.0000 C   0  0  0  0  0  0  0  0  0  0  0  0
   -1.4289    3.3000    0.0000 C   0  0  0  0  0  0  0  0  0  0  0  0
   -1.7111    4.0752    0.0000 C   0  0  0  0  0  0  0  0  0  0  0  0
   -1.1808    4.7072    0.0000 C   0  0  0  0  0  0  0  0  0  0  0  0
   -0.3683    4.5640    0.0000 N   0  0  0  0  0  0  0  0  0  0  0  0
   -0.0862    3.7887    0.0000 C   0  0  0  0  0  0  0  0  0  0  0  0
   -0.6165    3.1567    0.0000 C   0  0  0  0  0  0  0  0  0  0  0  0
    0.1620    5.1960    0.0000 C   0  0  0  0  0  0  0  0  0  0  0  0
   -2.2414    3.1567    0.0000 C   0  0  0  0  0  0  0  0  0  0  0  0
   -2.5236    2.3815    0.0000 C   0  0  0  0  0  0  0  0  0  0  0  0
   -3.3360    2.2382    0.0000 C   0  0  0  0  0  0  0  0  0  0  0  0
   -3.8663    2.8702    0.0000 C   0  0  0  0  0  0  0  0  0  0  0  0
   -3.5842    3.6455    0.0000 C   0  0  0  0  0  0  0  0  0  0  0  0
   -2.7717    3.7887    0.0000 C   0  0  0  0  0  0  0  0  0  0  0  0
   -4.6788    2.7270    0.0000 F   0  0  0  0  0  0  0  0  0  0  0  0
    1.6411    0.7025    0.0000 H   0  0  0  0  0  0  0  0  0  0  0  0
    0.7145    2.3075    0.0000 H   0  0  0  0  0  0  0  0  0  0  0  0
    1.6412    1.7725    0.0000 H   0  0  0  0  0  0  0  0  0  0  0  0
    0.9266    0.2900    0.0000 H   0  0  0  0  0  0  0  0  0  0  0  0
   -1.6082    0.1035    0.0000 H   0  0  0  0  0  0  0  0  0  0  0  0
    0.0000   -2.6820    0.0000 H   0  0  0  0  0  0  0  0  0  0  0  0
    1.4289    1.0320    0.0000 H   0  0  0  0  0  0  0  0  0  0  0  0
    3.0371    0.1035    0.0000 H   0  0  0  0  0  0  0  0  0  0  0  0
    3.0371   -1.7535    0.0000 H   0  0  0  0  0  0  0  0  0  0  0  0
    1.4289   -2.6820    0.0000 H   0  0  0  0  0  0  0  0  0  0  0  0
   -2.3556    1.3600    0.0000 H   0  0  0  0  0  0  0  0  0  0  0  0
   -1.4289   -0.2450    0.0000 H   0  0  0  0  0  0  0  0  0  0  0  0
   -2.3555    0.2900    0.0000 H   0  0  0  0  0  0  0  0  0  0  0  0
   -2.3556    1.9400    0.0000 H   0  0  0  0  0  0  0  0  0  0  0  0
   -2.3555    3.0100    0.0000 H   0  0  0  0  0  0  0  0  0  0  0  0
   -2.7649    4.2610    0.0000 H   0  0  0  0  0  0  0  0  0  0  0  0
   -2.0771    5.0807    0.0000 H   0  0  0  0  0  0  0  0  0  0  0  0
   -1.5468    5.7127    0.0000 H   0  0  0  0  0  0  0  0  0  0  0  0
   -0.4931    5.5269    0.0000 H   0  0  0  0  0  0  0  0  0  0  0  0
    0.9675    3.6029    0.0000 H   0  0  0  0  0  0  0  0  0  0  0  0
    0.2797    2.7832    0.0000 H   0  0  0  0  0  0  0  0  0  0  0  0
   -0.2506    2.1512    0.0000 H   0  0  0  0  0  0  0  0  0  0  0  0
   -1.3043    2.3371    0.0000 H   0  0  0  0  0  0  0  0  0  0  0  0
    1.2157    5.0102    0.0000 H   0  0  0  0  0  0  0  0  0  0  0  0
   -0.2040    6.2015    0.0000 H   0  0  0  0  0  0  0  0  0  0  0  0
    0.8498    6.0157    0.0000 H   0  0  0  0  0  0  0  0  0  0  0  0
   -1.8602    1.5909    0.0000 H   0  0  0  0  0  0  0  0  0  0  0  0
   -3.6889    1.2684    0.0000 H   0  0  0  0  0  0  0  0  0  0  0  0
   -4.2476    4.4361    0.0000 H   0  0  0  0  0  0  0  0  0  0  0  0
   -2.4187    4.7584    0.0000 H   0  0  0  0  0  0  0  0  0  0  0  0
  1 33  1  0  0  0  0
  1 34  1  0  0  0  0
  1 35  1  0  0  0  0
  2  1  1  0  0  0  0
  2  3  1  0  0  0  0
  2 14  1  0  0  0  0
  2 36  1  6  0  0  0
  3  4  1  0  0  0  0
  3  8  2  0  0  0  0
  4  5  2  0  0  0  0
  4 37  1  0  0  0  0
  5  6  1  0  0  0  0
  5 13  1  0  0  0  0
  6  7  2  0  0  0  0
  6 38  1  0  0  0  0
  7  8  1  0  0  0  0
  7 12  1  0  0  0  0
  8  9  1  0  0  0  0
  9 10  2  0  0  0  0
  9 39  1  0  0  0  0
 10 11  1  0  0  0  0
 10 40  1  0  0  0  0
 11 12  2  0  0  0  0
 11 41  1  0  0  0  0
 12 42  1  0  0  0  0
 14 15  1  0  0  0  0
 14 16  1  0  0  0  0
 15 43  1  0  0  0  0
 15 44  1  0  0  0  0
 15 45  1  0  0  0  0
 16 17  2  0  0  0  0
 16 18  1  0  0  0  0
 18 19  1  0  0  0  0
 18 46  1  0  0  0  0
 18 47  1  0  0  0  0
 19 20  1  0  0  0  0
 19 24  1  0  0  0  0
 19 26  1  0  0  0  0
 20 21  1  0  0  0  0
 20 48  1  0  0  0  0
 20 49  1  0  0  0  0
 21 22  1  0  0  0  0
 21 50  1  0  0  0  0
 21 51  1  0  0  0  0
 22 23  1  0  0  0  0
 22 25  1  0  0  0  0
 23 24  1  0  0  0  0
 23 52  1  0  0  0  0
 23 53  1  0  0  0  0
 24 54  1  0  0  0  0
 24 55  1  0  0  0  0
 25 56  1  0  0  0  0
 25 57  1  0  0  0  0
 25 58  1  0  0  0  0
 26 27  2  0  0  0  0
 26 31  1  0  0  0  0
 27 28  1  0  0  0  0
 27 59  1  0  0  0  0
 28 29  2  0  0  0  0
 28 60  1  0  0  0  0
 29 30  1  0  0  0  0
 29 32  1  0  0  0  0
 30 31  2  0  0  0  0
 30 61  1  0  0  0  0
 31 62  1  0  0  0  0
M  END
>  <DRUGBANK_ID>
DB12219

>  <COMMON_NAME>
GSK-424887

>  <UNII>
IYI99KCF2T

$$$$
