
 OpenBabel10282417072D

 56 59  0  0  1  0  0  0  0  0999 V2000
    4.7812    4.4104    0.0000 C   0  0  0  0  0  0  0  0  0  0  0  0
    4.7812    3.5854    0.0000 C   0  0  1  0  0  0  0  0  0  0  0  0
    4.0668    3.1729    0.0000 C   0  0  1  0  0  0  0  0  0  0  0  0
    3.3523    3.5854    0.0000 C   0  0  0  0  0  0  0  0  0  0  0  0
    2.6378    3.1729    0.0000 C   0  0  0  0  0  0  0  0  0  0  0  0
    1.9233    3.5854    0.0000 C   0  0  0  0  0  0  0  0  0  0  0  0
    1.9233    4.4104    0.0000 C   0  0  0  0  0  0  0  0  0  0  0  0
    2.6378    4.8229    0.0000 C   0  0  0  0  0  0  0  0  0  0  0  0
    3.3523    4.4104    0.0000 C   0  0  0  0  0  0  0  0  0  0  0  0
    2.6378    5.6479    0.0000 O   0  0  0  0  0  0  0  0  0  0  0  0
    3.3523    6.0604    0.0000 C   0  0  0  0  0  0  0  0  0  0  0  0
    4.0668    2.3479    0.0000 O   0  0  0  0  0  0  0  0  0  0  0  0
    3.3523    1.9354    0.0000 C   0  0  0  0  0  0  0  0  0  0  0  0
    3.3523    1.1104    0.0000 C   0  0  0  0  0  0  0  0  0  0  0  0
    2.6378    0.6979    0.0000 C   0  0  0  0  0  0  0  0  0  0  0  0
    1.9233    1.1104    0.0000 C   0  0  0  0  0  0  0  0  0  0  0  0
    1.9233    1.9354    0.0000 C   0  0  0  0  0  0  0  0  0  0  0  0
    2.6378    2.3479    0.0000 C   0  0  0  0  0  0  0  0  0  0  0  0
    1.1387    2.1904    0.0000 C   0  0  0  0  0  0  0  0  0  0  0  0
    0.6538    1.5229    0.0000 N   0  0  0  0  0  0  0  0  0  0  0  0
    1.1387    0.8555    0.0000 N   0  0  0  0  0  0  0  0  0  0  0  0
    0.8838    0.0709    0.0000 C   0  0  0  0  0  0  0  0  0  0  0  0
    1.4358   -0.5422    0.0000 C   0  0  0  0  0  0  0  0  0  0  0  0
    1.1809   -1.3268    0.0000 C   0  0  0  0  0  0  0  0  0  0  0  0
    0.3739   -1.4984    0.0000 C   0  0  0  0  0  0  0  0  0  0  0  0
   -0.1781   -0.8853    0.0000 C   0  0  0  0  0  0  0  0  0  0  0  0
    0.0768   -0.1006    0.0000 C   0  0  0  0  0  0  0  0  0  0  0  0
    0.1190   -2.2830    0.0000 F   0  0  0  0  0  0  0  0  0  0  0  0
    5.4957    3.1729    0.0000 N   0  0  0  0  0  0  0  0  0  0  0  0
    5.4957    2.3479    0.0000 C   0  0  0  0  0  0  0  0  0  0  0  0
    4.7812    1.9354    0.0000 O   0  0  0  0  0  0  0  0  0  0  0  0
    6.2102    1.9354    0.0000 C   0  0  0  0  0  0  0  0  0  0  0  0
    5.7977    1.2210    0.0000 F   0  0  0  0  0  0  0  0  0  0  0  0
    6.6227    2.6499    0.0000 F   0  0  0  0  0  0  0  0  0  0  0  0
    6.9246    1.5229    0.0000 F   0  0  0  0  0  0  0  0  0  0  0  0
    5.7078    4.9454    0.0000 H   0  0  0  0  0  0  0  0  0  0  0  0
    3.8546    4.9454    0.0000 H   0  0  0  0  0  0  0  0  0  0  0  0
    4.7812    5.4804    0.0000 H   0  0  0  0  0  0  0  0  0  0  0  0
    3.8545    4.1204    0.0000 H   0  0  0  0  0  0  0  0  0  0  0  0
    4.9935    2.6379    0.0000 H   0  0  0  0  0  0  0  0  0  0  0  0
    2.6378    2.1409    0.0000 H   0  0  0  0  0  0  0  0  0  0  0  0
    1.0296    3.0694    0.0000 H   0  0  0  0  0  0  0  0  0  0  0  0
    1.0296    4.9264    0.0000 H   0  0  0  0  0  0  0  0  0  0  0  0
    4.2460    4.9264    0.0000 H   0  0  0  0  0  0  0  0  0  0  0  0
    4.2789    5.5254    0.0000 H   0  0  0  0  0  0  0  0  0  0  0  0
    3.3523    7.1304    0.0000 H   0  0  0  0  0  0  0  0  0  0  0  0
    4.2790    6.5954    0.0000 H   0  0  0  0  0  0  0  0  0  0  0  0
    4.2460    0.5944    0.0000 H   0  0  0  0  0  0  0  0  0  0  0  0
    2.6378   -0.3341    0.0000 H   0  0  0  0  0  0  0  0  0  0  0  0
    2.6378    3.3799    0.0000 H   0  0  0  0  0  0  0  0  0  0  0  0
    0.8198    3.1719    0.0000 H   0  0  0  0  0  0  0  0  0  0  0  0
    2.4452   -0.3276    0.0000 H   0  0  0  0  0  0  0  0  0  0  0  0
    1.8715   -2.0937    0.0000 H   0  0  0  0  0  0  0  0  0  0  0  0
   -1.1875   -1.0999    0.0000 H   0  0  0  0  0  0  0  0  0  0  0  0
   -0.6138    0.6663    0.0000 H   0  0  0  0  0  0  0  0  0  0  0  0
    6.3483    3.6652    0.0000 H   0  0  0  0  0  0  0  0  0  0  0  0
  1 36  1  0  0  0  0
  1 37  1  0  0  0  0
  1 38  1  0  0  0  0
  2  1  1  0  0  0  0
  2  3  1  0  0  0  0
  2 29  1  0  0  0  0
  2 39  1  1  0  0  0
  3  4  1  0  0  0  0
  3 12  1  0  0  0  0
  3 40  1  1  0  0  0
  4  5  2  0  0  0  0
  4  9  1  0  0  0  0
  5  6  1  0  0  0  0
  5 41  1  0  0  0  0
  6  7  2  0  0  0  0
  6 42  1  0  0  0  0
  7  8  1  0  0  0  0
  7 43  1  0  0  0  0
  8  9  2  0  0  0  0
  8 10  1  0  0  0  0
  9 44  1  0  0  0  0
 10 11  1  0  0  0  0
 11 45  1  0  0  0  0
 11 46  1  0  0  0  0
 11 47  1  0  0  0  0
 12 13  1  0  0  0  0
 13 14  2  0  0  0  0
 13 18  1  0  0  0  0
 14 15  1  0  0  0  0
 14 48  1  0  0  0  0
 15 16  2  0  0  0  0
 15 49  1  0  0  0  0
 16 17  1  0  0  0  0
 16 21  1  0  0  0  0
 17 18  2  0  0  0  0
 17 19  1  0  0  0  0
 18 50  1  0  0  0  0
 19 20  2  0  0  0  0
 19 51  1  0  0  0  0
 20 21  1  0  0  0  0
 21 22  1  0  0  0  0
 22 23  2  0  0  0  0
 22 27  1  0  0  0  0
 23 24  1  0  0  0  0
 23 52  1  0  0  0  0
 24 25  2  0  0  0  0
 24 53  1  0  0  0  0
 25 26  1  0  0  0  0
 25 28  1  0  0  0  0
 26 27  2  0  0  0  0
 26 54  1  0  0  0  0
 27 55  1  0  0  0  0
 29 30  1  0  0  0  0
 29 56  1  0  0  0  0
 30 31  2  0  0  0  0
 30 32  1  0  0  0  0
 32 33  1  0  0  0  0
 32 34  1  0  0  0  0
 32 35  1  0  0  0  0
M  END
>  <DRUGBANK_ID>
DB12280

>  <COMMON_NAME>
AZD-5423

>  <CAS_NUMBER>
1034148-04-3

>  <UNII>
641H0Q518W

$$$$
