TYI
 OpenBabel10282417072D

 24 24  0  0  0  0  0  0  0  0999 V2000
   -0.0572    1.2630    0.0000 N   0  0  0  0  0  0  0  0  0  0  0  0
    0.6573    0.8505    0.0000 C   0  0  1  0  0  0  0  0  0  0  0  0
    0.6573    0.0255    0.0000 C   0  0  0  0  0  0  0  0  0  0  0  0
   -0.0572   -0.3870    0.0000 C   0  0  0  0  0  0  0  0  0  0  0  0
   -0.0572   -1.2120    0.0000 C   0  0  0  0  0  0  0  0  0  0  0  0
   -0.7716   -1.6245    0.0000 C   0  0  0  0  0  0  0  0  0  0  0  0
   -0.7716    0.0255    0.0000 C   0  0  0  0  0  0  0  0  0  0  0  0
   -1.4861   -0.3870    0.0000 C   0  0  0  0  0  0  0  0  0  0  0  0
   -1.4861   -1.2120    0.0000 C   0  0  0  0  0  0  0  0  0  0  0  0
   -2.2006   -1.6245    0.0000 O   0  0  0  0  0  0  0  0  0  0  0  0
    1.3718    1.2630    0.0000 C   0  0  0  0  0  0  0  0  0  0  0  0
    1.3718    2.0880    0.0000 O   0  0  0  0  0  0  0  0  0  0  0  0
    2.0863    0.8505    0.0000 O   0  0  0  0  0  0  0  0  0  0  0  0
   -0.7716   -2.4495    0.0000 I   0  0  0  0  0  0  0  0  0  0  0  0
   -2.2006    0.0255    0.0000 I   0  0  0  0  0  0  0  0  0  0  0  0
    0.1516    0.5585    0.0000 H   0  0  0  0  0  0  0  0  0  0  0  0
   -0.0572    2.2830    0.0000 H   0  0  0  0  0  0  0  0  0  0  0  0
   -0.9405    0.7530    0.0000 H   0  0  0  0  0  0  0  0  0  0  0  0
    1.5839   -0.5095    0.0000 H   0  0  0  0  0  0  0  0  0  0  0  0
    0.6573   -1.0445    0.0000 H   0  0  0  0  0  0  0  0  0  0  0  0
    0.8365   -1.7280    0.0000 H   0  0  0  0  0  0  0  0  0  0  0  0
   -0.7716    1.0575    0.0000 H   0  0  0  0  0  0  0  0  0  0  0  0
   -3.0121   -1.1560    0.0000 H   0  0  0  0  0  0  0  0  0  0  0  0
    2.0863   -0.0865    0.0000 H   0  0  0  0  0  0  0  0  0  0  0  0
  1 17  1  0  0  0  0
  1 18  1  0  0  0  0
  2  1  1  0  0  0  0
  2  3  1  0  0  0  0
  2 11  1  0  0  0  0
  2 16  1  1  0  0  0
  3  4  1  0  0  0  0
  3 19  1  0  0  0  0
  3 20  1  0  0  0  0
  4  5  2  0  0  0  0
  4  7  1  0  0  0  0
  5  6  1  0  0  0  0
  5 21  1  0  0  0  0
  6  9  2  0  0  0  0
  6 14  1  0  0  0  0
  7  8  2  0  0  0  0
  7 22  1  0  0  0  0
  8  9  1  0  0  0  0
  8 15  1  0  0  0  0
  9 10  1  0  0  0  0
 10 23  1  0  0  0  0
 11 12  2  0  0  0  0
 11 13  1  0  0  0  0
 13 24  1  0  0  0  0
M  END
>  <DRUGBANK_ID>
DB03374

>  <SECONDARY_ACCESSION_NUMBERS>
EXPT03137

>  <COMMON_NAME>
3,5-Diiodotyrosine

>  <CAS_NUMBER>
300-39-0

>  <UNII>
6L57Q44ZWW

$$$$
