660
 OpenBabel10282417072D

 31 32  0  0  1  0  0  0  0  0999 V2000
    4.4610    1.3727    0.0000 O   0  0  0  0  0  0  0  0  0  0  0  0
    3.0791   -0.3497    0.0000 O   0  0  0  0  0  0  0  0  0  0  0  0
    4.6910    2.8248    0.0000 O   0  0  0  0  0  0  0  0  0  0  0  0
    3.3810    2.1573    0.0000 N   0  0  0  0  0  0  0  0  0  0  0  0
    3.7935    0.8878    0.0000 C   0  0  3  0  0  0  0  0  0  0  0  0
    3.1261    1.3727    0.0000 C   0  0  0  0  0  0  0  0  0  0  0  0
    3.7935    0.0628    0.0000 C   0  0  0  0  0  0  0  0  0  0  0  0
    4.2060    2.1573    0.0000 C   0  0  0  0  0  0  0  0  0  0  0  0
    3.0791   -1.1747    0.0000 C   0  0  0  0  0  0  0  0  0  0  0  0
    3.7935   -1.5873    0.0000 C   0  0  0  0  0  0  0  0  0  0  0  0
    2.3645   -1.5873    0.0000 C   0  0  0  0  0  0  0  0  0  0  0  0
    3.7935   -2.4123    0.0000 C   0  0  0  0  0  0  0  0  0  0  0  0
    2.3645   -2.4123    0.0000 C   0  0  0  0  0  0  0  0  0  0  0  0
    3.0791   -2.8248    0.0000 C   0  0  0  0  0  0  0  0  0  0  0  0
    4.5080   -2.8248    0.0000 C   0  0  0  0  0  0  0  0  0  0  0  0
    1.6500   -2.8248    0.0000 C   0  0  0  0  0  0  0  0  0  0  0  0
    2.8023    2.9538    0.0000 H   0  0  0  0  0  0  0  0  0  0  0  0
    3.7935    1.9578    0.0000 H   0  0  0  0  0  0  0  0  0  0  0  0
    2.1085    1.0420    0.0000 H   0  0  0  0  0  0  0  0  0  0  0  0
    2.9587    0.3159    0.0000 H   0  0  0  0  0  0  0  0  0  0  0  0
    4.7202   -0.4722    0.0000 H   0  0  0  0  0  0  0  0  0  0  0  0
    4.7201    0.5978    0.0000 H   0  0  0  0  0  0  0  0  0  0  0  0
    4.6873   -1.0714    0.0000 H   0  0  0  0  0  0  0  0  0  0  0  0
    1.4708   -1.0713    0.0000 H   0  0  0  0  0  0  0  0  0  0  0  0
    3.0792   -3.8568    0.0000 H   0  0  0  0  0  0  0  0  0  0  0  0
    4.5080   -3.8948    0.0000 H   0  0  0  0  0  0  0  0  0  0  0  0
    5.4346   -2.2898    0.0000 H   0  0  0  0  0  0  0  0  0  0  0  0
    5.4347   -3.3598    0.0000 H   0  0  0  0  0  0  0  0  0  0  0  0
    0.7234   -2.2898    0.0000 H   0  0  0  0  0  0  0  0  0  0  0  0
    1.6500   -3.8948    0.0000 H   0  0  0  0  0  0  0  0  0  0  0  0
    0.7233   -3.3598    0.0000 H   0  0  0  0  0  0  0  0  0  0  0  0
  1  5  1  0  0  0  0
  1  8  1  0  0  0  0
  2  7  1  0  0  0  0
  2  9  1  0  0  0  0
  3  8  2  0  0  0  0
  4  6  1  0  0  0  0
  4  8  1  0  0  0  0
  4 17  1  0  0  0  0
  5  6  1  0  0  0  0
  5  7  1  0  0  0  0
  5 18  1  0  0  0  0
  6 19  1  0  0  0  0
  6 20  1  0  0  0  0
  7 21  1  0  0  0  0
  7 22  1  0  0  0  0
  9 10  2  0  0  0  0
  9 11  1  0  0  0  0
 10 12  1  0  0  0  0
 10 23  1  0  0  0  0
 11 13  2  0  0  0  0
 11 24  1  0  0  0  0
 12 14  2  0  0  0  0
 12 15  1  0  0  0  0
 13 14  1  0  0  0  0
 13 16  1  0  0  0  0
 14 25  1  0  0  0  0
 15 26  1  0  0  0  0
 15 27  1  0  0  0  0
 15 28  1  0  0  0  0
 16 29  1  0  0  0  0
 16 30  1  0  0  0  0
 16 31  1  0  0  0  0
M  END
>  <DRUGBANK_ID>
DB00660

>  <SECONDARY_ACCESSION_NUMBERS>
APRD00514

>  <COMMON_NAME>
Metaxalone

>  <CAS_NUMBER>
1665-48-1

>  <UNII>
1NMA9J598Y

>  <SYNONYMS>
Metassalone; Metaxalon; Metaxalona; Metaxalone; Metaxalonum

$$$$
