F77
 OpenBabel10282417072D

 39 40  0  0  0  0  0  0  0  0999 V2000
    1.3816    1.5786    0.0000 C   0  0  0  0  0  0  0  0  0  0  0  0
    2.0961    1.1661    0.0000 C   0  0  0  0  0  0  0  0  0  0  0  0
    2.0961    0.3411    0.0000 C   0  0  0  0  0  0  0  0  0  0  0  0
    2.8106   -0.0714    0.0000 C   0  0  0  0  0  0  0  0  0  0  0  0
    2.8106   -0.8964    0.0000 C   0  0  0  0  0  0  0  0  0  0  0  0
    2.0961   -1.3089    0.0000 C   0  0  0  0  0  0  0  0  0  0  0  0
    1.3816   -0.8964    0.0000 C   0  0  0  0  0  0  0  0  0  0  0  0
    1.3816   -0.0714    0.0000 C   0  0  0  0  0  0  0  0  0  0  0  0
    0.6672    0.3411    0.0000 C   0  0  0  0  0  0  0  0  0  0  0  0
    0.6672   -1.3089    0.0000 C   0  0  0  0  0  0  0  0  0  0  0  0
   -0.0473   -0.8964    0.0000 O   0  0  0  0  0  0  0  0  0  0  0  0
    0.6672   -2.1339    0.0000 O   0  0  0  0  0  0  0  0  0  0  0  0
    2.0961   -2.1339    0.0000 N   0  0  0  0  0  0  0  0  0  0  0  0
    1.3816   -2.5464    0.0000 S   0  0  0  0  0  0  0  0  0  0  0  0
    0.9691   -1.8319    0.0000 O   0  0  0  0  0  0  0  0  0  0  0  0
    1.7941   -3.2608    0.0000 O   0  0  0  0  0  0  0  0  0  0  0  0
    0.6672   -2.9589    0.0000 C   0  0  0  0  0  0  0  0  0  0  0  0
    0.6672   -3.7839    0.0000 C   0  0  0  0  0  0  0  0  0  0  0  0
   -0.0473   -4.1964    0.0000 C   0  0  0  0  0  0  0  0  0  0  0  0
   -0.7618   -3.7839    0.0000 C   0  0  0  0  0  0  0  0  0  0  0  0
   -0.7618   -2.9589    0.0000 C   0  0  0  0  0  0  0  0  0  0  0  0
   -0.0473   -2.5464    0.0000 C   0  0  0  0  0  0  0  0  0  0  0  0
   -1.4762   -4.1964    0.0000 F   0  0  0  0  0  0  0  0  0  0  0  0
    1.3816    2.6486    0.0000 H   0  0  0  0  0  0  0  0  0  0  0  0
    0.4550    1.0436    0.0000 H   0  0  0  0  0  0  0  0  0  0  0  0
    0.4549    2.1136    0.0000 H   0  0  0  0  0  0  0  0  0  0  0  0
    3.0227    1.7011    0.0000 H   0  0  0  0  0  0  0  0  0  0  0  0
    3.0227    0.6311    0.0000 H   0  0  0  0  0  0  0  0  0  0  0  0
    3.7043    0.4446    0.0000 H   0  0  0  0  0  0  0  0  0  0  0  0
    3.7043   -1.4124    0.0000 H   0  0  0  0  0  0  0  0  0  0  0  0
    0.6672    1.4111    0.0000 H   0  0  0  0  0  0  0  0  0  0  0  0
   -0.2595   -0.1939    0.0000 H   0  0  0  0  0  0  0  0  0  0  0  0
   -0.2594    0.8761    0.0000 H   0  0  0  0  0  0  0  0  0  0  0  0
   -0.1443   -2.6024    0.0000 H   0  0  0  0  0  0  0  0  0  0  0  0
    2.9487   -2.6262    0.0000 H   0  0  0  0  0  0  0  0  0  0  0  0
    1.5609   -4.2999    0.0000 H   0  0  0  0  0  0  0  0  0  0  0  0
   -0.0473   -5.2284    0.0000 H   0  0  0  0  0  0  0  0  0  0  0  0
   -1.6555   -2.4429    0.0000 H   0  0  0  0  0  0  0  0  0  0  0  0
   -0.0473   -1.5144    0.0000 H   0  0  0  0  0  0  0  0  0  0  0  0
  1  2  1  0  0  0  0
  1 24  1  0  0  0  0
  1 25  1  0  0  0  0
  1 26  1  0  0  0  0
  2  3  1  0  0  0  0
  2 27  1  0  0  0  0
  2 28  1  0  0  0  0
  3  4  2  0  0  0  0
  3  8  1  0  0  0  0
  4  5  1  0  0  0  0
  4 29  1  0  0  0  0
  5  6  2  0  0  0  0
  5 30  1  0  0  0  0
  6  7  1  0  0  0  0
  6 13  1  0  0  0  0
  7  8  2  0  0  0  0
  7 10  1  0  0  0  0
  8  9  1  0  0  0  0
  9 31  1  0  0  0  0
  9 32  1  0  0  0  0
  9 33  1  0  0  0  0
 10 11  2  0  0  0  0
 10 12  1  0  0  0  0
 12 34  1  0  0  0  0
 13 14  1  0  0  0  0
 13 35  1  0  0  0  0
 14 15  2  0  0  0  0
 14 16  2  0  0  0  0
 14 17  1  0  0  0  0
 17 18  2  0  0  0  0
 17 22  1  0  0  0  0
 18 19  1  0  0  0  0
 18 36  1  0  0  0  0
 19 20  2  0  0  0  0
 19 37  1  0  0  0  0
 20 21  1  0  0  0  0
 20 23  1  0  0  0  0
 21 22  2  0  0  0  0
 21 38  1  0  0  0  0
 22 39  1  0  0  0  0
M  END
>  <DRUGBANK_ID>
DB07746

>  <COMMON_NAME>
3-ETHYL-6-{[(4-FLUOROPHENYL)SULFONYL]AMINO}-2-METHYLBENZOIC ACID

$$$$
