DTC
 OpenBabel10282417072D

 37 40  0  0  0  0  0  0  0  0999 V2000
    0.2418   -1.2907    0.0000 O   0  0  0  0  0  0  0  0  0  0  0  0
    0.9563   -1.7032    0.0000 C   0  0  0  0  0  0  0  0  0  0  0  0
    1.6708   -1.2907    0.0000 C   0  0  0  0  0  0  0  0  0  0  0  0
    1.6708   -0.4657    0.0000 C   0  0  0  0  0  0  0  0  0  0  0  0
    2.3852   -0.0532    0.0000 O   0  0  0  0  0  0  0  0  0  0  0  0
    0.9563   -0.0532    0.0000 C   0  0  1  0  0  0  0  0  0  0  0  0
    0.9563    0.7718    0.0000 C   0  0  0  0  0  0  0  0  0  0  0  0
    0.2418   -0.4657    0.0000 C   0  0  0  0  0  0  0  0  0  0  0  0
   -0.4727   -0.0532    0.0000 O   0  0  0  0  0  0  0  0  0  0  0  0
    2.3852   -1.7032    0.0000 C   0  0  0  0  0  0  0  0  0  0  0  0
    2.3852   -2.5282    0.0000 C   0  0  0  0  0  0  0  0  0  0  0  0
    1.6708   -2.9407    0.0000 C   0  0  0  0  0  0  0  0  0  0  0  0
    0.9563   -2.5282    0.0000 C   0  0  0  0  0  0  0  0  0  0  0  0
   -1.9016    0.7718    0.0000 C   0  0  0  0  0  0  0  0  0  0  0  0
   -1.1871    1.1843    0.0000 C   0  0  0  0  0  0  0  0  0  0  0  0
   -1.1871    2.0093    0.0000 C   0  0  0  0  0  0  0  0  0  0  0  0
   -1.9016    2.4218    0.0000 C   0  0  0  0  0  0  0  0  0  0  0  0
   -2.6161    2.0093    0.0000 C   0  0  0  0  0  0  0  0  0  0  0  0
   -2.6161    1.1843    0.0000 C   0  0  0  0  0  0  0  0  0  0  0  0
   -0.4727    2.4218    0.0000 O   0  0  0  0  0  0  0  0  0  0  0  0
    0.2418    2.0093    0.0000 C   0  0  0  0  0  0  0  0  0  0  0  0
    0.9563    2.4218    0.0000 O   0  0  0  0  0  0  0  0  0  0  0  0
    0.2418    1.1843    0.0000 C   0  0  2  0  0  0  0  0  0  0  0  0
   -0.4727    0.7718    0.0000 C   0  0  0  0  0  0  0  0  0  0  0  0
   -0.9576    0.1043    0.0000 O   0  0  0  0  0  0  0  0  0  0  0  0
    1.4620    0.2387    0.0000 H   0  0  0  0  0  0  0  0  0  0  0  0
    0.7475    1.4762    0.0000 H   0  0  0  0  0  0  0  0  0  0  0  0
    1.8829    1.3068    0.0000 H   0  0  0  0  0  0  0  0  0  0  0  0
    0.9563    1.8418    0.0000 H   0  0  0  0  0  0  0  0  0  0  0  0
    3.2789   -1.1872    0.0000 H   0  0  0  0  0  0  0  0  0  0  0  0
    3.2789   -3.0442    0.0000 H   0  0  0  0  0  0  0  0  0  0  0  0
    1.6708   -3.9727    0.0000 H   0  0  0  0  0  0  0  0  0  0  0  0
    0.0626   -3.0442    0.0000 H   0  0  0  0  0  0  0  0  0  0  0  0
   -1.9016   -0.2602    0.0000 H   0  0  0  0  0  0  0  0  0  0  0  0
   -1.9016    3.4538    0.0000 H   0  0  0  0  0  0  0  0  0  0  0  0
   -3.5098    2.5253    0.0000 H   0  0  0  0  0  0  0  0  0  0  0  0
   -3.5098    0.6683    0.0000 H   0  0  0  0  0  0  0  0  0  0  0  0
  1  2  1  0  0  0  0
  1  8  1  0  0  0  0
  2  3  2  0  0  0  0
  2 13  1  0  0  0  0
  3  4  1  0  0  0  0
  3 10  1  0  0  0  0
  4  5  2  0  0  0  0
  4  6  1  0  0  0  0
  6  7  1  0  0  0  0
  6  8  1  0  0  0  0
  6 26  1  1  0  0  0
  7 28  1  0  0  0  0
  7 29  1  0  0  0  0
  8  9  2  0  0  0  0
 10 11  2  0  0  0  0
 10 30  1  0  0  0  0
 11 12  1  0  0  0  0
 11 31  1  0  0  0  0
 12 13  2  0  0  0  0
 12 32  1  0  0  0  0
 13 33  1  0  0  0  0
 14 15  2  0  0  0  0
 14 19  1  0  0  0  0
 14 34  1  0  0  0  0
 15 16  1  0  0  0  0
 15 24  1  0  0  0  0
 16 17  2  0  0  0  0
 16 20  1  0  0  0  0
 17 18  1  0  0  0  0
 17 35  1  0  0  0  0
 18 19  2  0  0  0  0
 18 36  1  0  0  0  0
 19 37  1  0  0  0  0
 20 21  1  0  0  0  0
 21 22  2  0  0  0  0
 21 23  1  0  0  0  0
 23  7  1  0  0  0  0
 23 24  1  0  0  0  0
 23 27  1  6  0  0  0
 24 25  2  0  0  0  0
M  END
>  <DRUGBANK_ID>
DB04392

>  <SECONDARY_ACCESSION_NUMBERS>
EXPT01281

>  <COMMON_NAME>
Bishydroxy[2h-1-Benzopyran-2-One,1,2-Benzopyrone]

$$$$
