
 OpenBabel10282417072D

 35 34  0  0  0  0  0  0  0  0999 V2000
    1.4289    1.0312    0.0000 C   0  0  2  0  0  0  0  0  0  0  0  0
    0.7145    1.4437    0.0000 C   0  0  0  0  0  0  0  0  0  0  0  0
    1.4289    0.2062    0.0000 N   0  0  0  0  0  0  0  0  0  0  0  0
    2.1434    1.4437    0.0000 C   0  0  0  0  0  0  0  0  0  0  0  0
    0.0000    1.0312    0.0000 C   0  0  0  0  0  0  0  0  0  0  0  0
    0.7145   -0.2062    0.0000 C   0  0  0  0  0  0  0  0  0  0  0  0
    2.8578    1.0312    0.0000 O   0  0  0  0  0  0  0  0  0  0  0  0
    2.1434    2.2688    0.0000 O   0  0  0  0  0  0  0  0  0  0  0  0
   -0.7145    1.4437    0.0000 C   0  0  0  0  0  0  0  0  0  0  0  0
    0.7145   -1.0312    0.0000 C   0  0  0  0  0  0  0  0  0  0  0  0
   -1.4289    1.0312    0.0000 N   0  0  0  0  0  0  0  0  0  0  0  0
    0.0000   -1.4437    0.0000 C   0  0  0  0  0  0  0  0  0  0  0  0
   -2.1434    1.4437    0.0000 C   0  0  0  0  0  0  0  0  0  0  0  0
   -0.7145   -1.0312    0.0000 O   0  0  0  0  0  0  0  0  0  0  0  0
    0.0000   -2.2688    0.0000 O   0  0  0  0  0  0  0  0  0  0  0  0
   -2.8578    1.0312    0.0000 N   0  0  0  0  0  0  0  0  0  0  0  0
   -2.1434    2.2688    0.0000 N   0  0  0  0  0  0  0  0  0  0  0  0
    0.5022    0.4962    0.0000 H   0  0  0  0  0  0  0  0  0  0  0  0
    0.7145    2.5137    0.0000 H   0  0  0  0  0  0  0  0  0  0  0  0
   -0.2121    1.9787    0.0000 H   0  0  0  0  0  0  0  0  0  0  0  0
    2.3122   -0.3038    0.0000 H   0  0  0  0  0  0  0  0  0  0  0  0
    0.0000   -0.0388    0.0000 H   0  0  0  0  0  0  0  0  0  0  0  0
   -0.9266    0.4962    0.0000 H   0  0  0  0  0  0  0  0  0  0  0  0
   -0.2121    0.3288    0.0000 H   0  0  0  0  0  0  0  0  0  0  0  0
   -0.2122   -0.7412    0.0000 H   0  0  0  0  0  0  0  0  0  0  0  0
    2.8578    0.0942    0.0000 H   0  0  0  0  0  0  0  0  0  0  0  0
   -0.7145    2.5137    0.0000 H   0  0  0  0  0  0  0  0  0  0  0  0
   -1.6412    1.9787    0.0000 H   0  0  0  0  0  0  0  0  0  0  0  0
    1.6411   -1.5662    0.0000 H   0  0  0  0  0  0  0  0  0  0  0  0
    0.7145   -2.1012    0.0000 H   0  0  0  0  0  0  0  0  0  0  0  0
   -1.4289    0.0467    0.0000 H   0  0  0  0  0  0  0  0  0  0  0  0
   -0.7145   -0.0942    0.0000 H   0  0  0  0  0  0  0  0  0  0  0  0
   -3.7104    1.5234    0.0000 H   0  0  0  0  0  0  0  0  0  0  0  0
   -2.8578    0.0467    0.0000 H   0  0  0  0  0  0  0  0  0  0  0  0
   -1.2908    2.7611    0.0000 H   0  0  0  0  0  0  0  0  0  0  0  0
  1  2  1  0  0  0  0
  1  3  1  0  0  0  0
  1  4  1  0  0  0  0
  1 18  1  6  0  0  0
  2  5  1  0  0  0  0
  2 19  1  0  0  0  0
  2 20  1  0  0  0  0
  3  6  1  0  0  0  0
  3 21  1  0  0  0  0
  4  7  1  0  0  0  0
  4  8  2  0  0  0  0
  5  9  1  0  0  0  0
  5 22  1  0  0  0  0
  5 23  1  0  0  0  0
  6 10  1  0  0  0  0
  6 24  1  0  0  0  0
  6 25  1  0  0  0  0
  7 26  1  0  0  0  0
  9 11  1  0  0  0  0
  9 27  1  0  0  0  0
  9 28  1  0  0  0  0
 10 12  1  0  0  0  0
 10 29  1  0  0  0  0
 10 30  1  0  0  0  0
 11 13  1  0  0  0  0
 11 31  1  0  0  0  0
 12 14  1  0  0  0  0
 12 15  2  0  0  0  0
 13 16  1  0  0  0  0
 13 17  2  0  0  0  0
 14 32  1  0  0  0  0
 16 33  1  0  0  0  0
 16 34  1  0  0  0  0
 17 35  1  0  0  0  0
M  END
>  <DRUGBANK_ID>
DB04189

>  <SECONDARY_ACCESSION_NUMBERS>
EXPT00953

>  <COMMON_NAME>
N(2)-(2-carboxyethyl)-L-arginine

>  <SYNONYMS>
L-N2-(2-Carboxyethyl)arginine; N2-(2-Carboxyethyl)-L-arginine; N2-(2-carboxyethyl)arginine; N2-(carboxyethyl)-L-arginine

$$$$
