
 OpenBabel10282417072D

 42 43  0  0  1  0  0  0  0  0999 V2000
    1.4289    0.0000    0.0000 C   0  0  0  0  0  0  0  0  0  0  0  0
    1.4289   -0.8250    0.0000 O   0  0  0  0  0  0  0  0  0  0  0  0
    0.7145   -1.2375    0.0000 N   0  0  0  0  0  0  0  0  0  0  0  0
    0.7145   -2.0625    0.0000 C   0  0  1  0  0  0  0  0  0  0  0  0
    1.3819   -2.5474    0.0000 C   0  0  0  0  0  0  0  0  0  0  0  0
    1.1270   -3.3320    0.0000 C   0  0  1  0  0  0  0  0  0  0  0  0
    0.3020   -3.3320    0.0000 N   0  0  0  0  0  0  0  0  0  0  0  0
    0.0470   -2.5474    0.0000 C   0  0  0  0  0  0  0  0  0  0  0  0
   -0.1830   -3.9995    0.0000 S   0  0  0  0  0  0  0  0  0  0  0  0
   -0.8504   -3.5146    0.0000 O   0  0  0  0  0  0  0  0  0  0  0  0
    0.4845   -4.4844    0.0000 O   0  0  0  0  0  0  0  0  0  0  0  0
   -0.6679   -4.6669    0.0000 C   0  0  0  0  0  0  0  0  0  0  0  0
   -0.3323   -5.4206    0.0000 C   0  0  0  0  0  0  0  0  0  0  0  0
   -0.8172   -6.0880    0.0000 C   0  0  0  0  0  0  0  0  0  0  0  0
   -1.6377   -6.0018    0.0000 C   0  0  0  0  0  0  0  0  0  0  0  0
   -2.1226   -6.6692    0.0000 O   0  0  0  0  0  0  0  0  0  0  0  0
   -1.7871   -7.4229    0.0000 C   0  0  0  0  0  0  0  0  0  0  0  0
   -1.9733   -5.2481    0.0000 C   0  0  0  0  0  0  0  0  0  0  0  0
   -1.4884   -4.5807    0.0000 C   0  0  0  0  0  0  0  0  0  0  0  0
    1.6119   -3.9995    0.0000 C   0  0  0  0  0  0  0  0  0  0  0  0
    1.2763   -4.7532    0.0000 O   0  0  0  0  0  0  0  0  0  0  0  0
    2.4324   -3.9132    0.0000 N   0  0  0  0  0  0  0  0  0  0  0  0
    2.9173   -4.5807    0.0000 O   0  0  0  0  0  0  0  0  0  0  0  0
    2.3555    0.5350    0.0000 H   0  0  0  0  0  0  0  0  0  0  0  0
    0.5023    0.5350    0.0000 H   0  0  0  0  0  0  0  0  0  0  0  0
    1.4289    1.0700    0.0000 H   0  0  0  0  0  0  0  0  0  0  0  0
   -0.1689   -0.7275    0.0000 H   0  0  0  0  0  0  0  0  0  0  0  0
    1.6679   -1.5767    0.0000 H   0  0  0  0  0  0  0  0  0  0  0  0
    2.3995   -2.2167    0.0000 H   0  0  0  0  0  0  0  0  0  0  0  0
    2.1385   -3.3040    0.0000 H   0  0  0  0  0  0  0  0  0  0  0  0
    2.1838   -3.1646    0.0000 H   0  0  0  0  0  0  0  0  0  0  0  0
   -0.9706   -2.2168    0.0000 H   0  0  0  0  0  0  0  0  0  0  0  0
   -0.1204   -1.4906    0.0000 H   0  0  0  0  0  0  0  0  0  0  0  0
    0.6940   -5.5285    0.0000 H   0  0  0  0  0  0  0  0  0  0  0  0
   -0.3974   -7.0308    0.0000 H   0  0  0  0  0  0  0  0  0  0  0  0
   -2.4161   -8.2885    0.0000 H   0  0  0  0  0  0  0  0  0  0  0  0
   -0.7230   -7.5348    0.0000 H   0  0  0  0  0  0  0  0  0  0  0  0
   -1.3520   -8.4004    0.0000 H   0  0  0  0  0  0  0  0  0  0  0  0
   -2.9996   -5.1402    0.0000 H   0  0  0  0  0  0  0  0  0  0  0  0
   -1.9082   -3.6379    0.0000 H   0  0  0  0  0  0  0  0  0  0  0  0
    2.8328   -3.0138    0.0000 H   0  0  0  0  0  0  0  0  0  0  0  0
    2.5227   -5.4668    0.0000 H   0  0  0  0  0  0  0  0  0  0  0  0
  1  2  1  0  0  0  0
  1 24  1  0  0  0  0
  1 25  1  0  0  0  0
  1 26  1  0  0  0  0
  2  3  1  0  0  0  0
  3 27  1  0  0  0  0
  4  3  1  0  0  0  0
  4  5  1  0  0  0  0
  4  8  1  0  0  0  0
  4 28  1  6  0  0  0
  5  6  1  0  0  0  0
  5 29  1  0  0  0  0
  5 30  1  0  0  0  0
  6  7  1  0  0  0  0
  6 20  1  0  0  0  0
  6 31  1  1  0  0  0
  7  8  1  0  0  0  0
  7  9  1  0  0  0  0
  8 32  1  0  0  0  0
  8 33  1  0  0  0  0
  9 10  2  0  0  0  0
  9 11  2  0  0  0  0
  9 12  1  0  0  0  0
 12 13  2  0  0  0  0
 12 19  1  0  0  0  0
 13 14  1  0  0  0  0
 13 34  1  0  0  0  0
 14 15  2  0  0  0  0
 14 35  1  0  0  0  0
 15 16  1  0  0  0  0
 15 18  1  0  0  0  0
 16 17  1  0  0  0  0
 17 36  1  0  0  0  0
 17 37  1  0  0  0  0
 17 38  1  0  0  0  0
 18 19  2  0  0  0  0
 18 39  1  0  0  0  0
 19 40  1  0  0  0  0
 20 21  2  0  0  0  0
 20 22  1  0  0  0  0
 22 23  1  0  0  0  0
 22 41  1  0  0  0  0
 23 42  1  0  0  0  0
M  END
>  <DRUGBANK_ID>
DB01877

>  <SECONDARY_ACCESSION_NUMBERS>
EXPT02941

>  <COMMON_NAME>
N-Hydroxy 1n(4-Methoxyphenyl)Sulfonyl-4-(Z,E-N-Methoxyimino)Pyrrolidine-2r-Carboxamide

$$$$
