
 OpenBabel10282417072D

 72 76  0  0  1  0  0  0  0  0999 V2000
    2.8579   -3.3000    0.0000 H   0  0  0  0  0  0  0  0  0  0  0  0
    2.8579   -2.4750    0.0000 C   0  0  1  0  0  0  0  0  0  0  0  0
    2.8579   -1.6500    0.0000 C   0  0  0  0  0  0  0  0  0  0  0  0
    3.5724   -1.2375    0.0000 C   0  0  0  0  0  0  0  0  0  0  0  0
    4.2868   -1.6500    0.0000 C   0  0  2  0  0  0  0  0  0  0  0  0
    4.5690   -0.8748    0.0000 O   0  0  0  0  0  0  0  0  0  0  0  0
    4.2868   -2.4750    0.0000 C   0  0  0  0  0  0  0  0  0  0  0  0
    3.5724   -2.8875    0.0000 C   0  0  0  0  0  0  0  0  0  0  0  0
    5.0993   -1.7933    0.0000 C   0  0  0  0  0  0  0  0  0  0  0  0
    5.6296   -1.1613    0.0000 C   0  0  0  0  0  0  0  0  0  0  0  0
    6.4421   -1.3045    0.0000 C   0  0  0  0  0  0  0  0  0  0  0  0
    6.7242   -2.0798    0.0000 C   0  0  0  0  0  0  0  0  0  0  0  0
    6.1939   -2.7118    0.0000 C   0  0  0  0  0  0  0  0  0  0  0  0
    5.3815   -2.5685    0.0000 N   0  0  0  0  0  0  0  0  0  0  0  0
    7.5367   -2.2230    0.0000 C   0  0  0  0  0  0  0  0  0  0  0  0
    8.0670   -1.5911    0.0000 N   0  0  0  0  0  0  0  0  0  0  0  0
    8.8795   -1.7343    0.0000 C   0  0  0  0  0  0  0  0  0  0  0  0
    9.1616   -2.5096    0.0000 C   0  0  0  0  0  0  0  0  0  0  0  0
    8.6313   -3.1415    0.0000 C   0  0  0  0  0  0  0  0  0  0  0  0
    7.8189   -2.9983    0.0000 N   0  0  0  0  0  0  0  0  0  0  0  0
    2.1434   -2.8875    0.0000 N   0  0  0  0  0  0  0  0  0  0  0  0
    2.1434   -3.7125    0.0000 C   0  0  1  0  0  0  0  0  0  0  0  0
    2.8109   -4.1974    0.0000 C   0  0  0  0  0  0  0  0  0  0  0  0
    2.5559   -4.9820    0.0000 C   0  0  0  0  0  0  0  0  0  0  0  0
    1.7309   -4.9820    0.0000 N   0  0  0  0  0  0  0  0  0  0  0  0
    1.4760   -4.1974    0.0000 C   0  0  0  0  0  0  0  0  0  0  0  0
    1.2460   -5.6495    0.0000 C   0  0  0  0  0  0  0  0  0  0  0  0
    0.4255   -5.5632    0.0000 O   0  0  0  0  0  0  0  0  0  0  0  0
    1.5815   -6.4032    0.0000 C   0  0  0  0  0  0  0  0  0  0  0  0
    1.0966   -7.0706    0.0000 N   0  0  0  0  0  0  0  0  0  0  0  0
    1.4322   -7.8243    0.0000 C   0  0  0  0  0  0  0  0  0  0  0  0
    2.2527   -7.9105    0.0000 O   0  0  0  0  0  0  0  0  0  0  0  0
    0.9473   -8.4917    0.0000 C   0  0  0  0  0  0  0  0  0  0  0  0
    1.2828   -9.2454    0.0000 C   0  0  0  0  0  0  0  0  0  0  0  0
    0.7979   -9.9128    0.0000 C   0  0  0  0  0  0  0  0  0  0  0  0
   -0.0226   -9.8266    0.0000 C   0  0  0  0  0  0  0  0  0  0  0  0
   -0.3581   -9.0729    0.0000 C   0  0  0  0  0  0  0  0  0  0  0  0
    0.1268   -8.4055    0.0000 C   0  0  0  0  0  0  0  0  0  0  0  0
    1.1335  -10.6665    0.0000 C   0  0  0  0  0  0  0  0  0  0  0  0
    1.4690  -11.4202    0.0000 F   0  0  0  0  0  0  0  0  0  0  0  0
    0.3798  -11.0021    0.0000 F   0  0  0  0  0  0  0  0  0  0  0  0
    1.8871  -10.3309    0.0000 F   0  0  0  0  0  0  0  0  0  0  0  0
    1.9313   -1.1150    0.0000 H   0  0  0  0  0  0  0  0  0  0  0  0
    2.8579   -0.5800    0.0000 H   0  0  0  0  0  0  0  0  0  0  0  0
    3.5724   -0.1675    0.0000 H   0  0  0  0  0  0  0  0  0  0  0  0
    4.4991   -0.7025    0.0000 H   0  0  0  0  0  0  0  0  0  0  0  0
    5.5243   -0.7064    0.0000 H   0  0  0  0  0  0  0  0  0  0  0  0
    5.2135   -3.0100    0.0000 H   0  0  0  0  0  0  0  0  0  0  0  0
    4.2868   -3.5450    0.0000 H   0  0  0  0  0  0  0  0  0  0  0  0
    3.5724   -3.9575    0.0000 H   0  0  0  0  0  0  0  0  0  0  0  0
    2.6458   -3.4225    0.0000 H   0  0  0  0  0  0  0  0  0  0  0  0
    5.2766   -0.1916    0.0000 H   0  0  0  0  0  0  0  0  0  0  0  0
    7.1055   -0.5139    0.0000 H   0  0  0  0  0  0  0  0  0  0  0  0
    6.5468   -3.6816    0.0000 H   0  0  0  0  0  0  0  0  0  0  0  0
    9.5429   -0.9437    0.0000 H   0  0  0  0  0  0  0  0  0  0  0  0
   10.1779   -2.6889    0.0000 H   0  0  0  0  0  0  0  0  0  0  0  0
    8.9843   -4.1113    0.0000 H   0  0  0  0  0  0  0  0  0  0  0  0
    1.2601   -2.3775    0.0000 H   0  0  0  0  0  0  0  0  0  0  0  0
    3.0968   -3.2267    0.0000 H   0  0  0  0  0  0  0  0  0  0  0  0
    3.8285   -3.8668    0.0000 H   0  0  0  0  0  0  0  0  0  0  0  0
    3.5675   -4.9540    0.0000 H   0  0  0  0  0  0  0  0  0  0  0  0
    3.1848   -5.8477    0.0000 H   0  0  0  0  0  0  0  0  0  0  0  0
    2.0701   -5.9354    0.0000 H   0  0  0  0  0  0  0  0  0  0  0  0
    0.4584   -3.8667    0.0000 H   0  0  0  0  0  0  0  0  0  0  0  0
    1.3086   -3.1406    0.0000 H   0  0  0  0  0  0  0  0  0  0  0  0
    2.6456   -6.5151    0.0000 H   0  0  0  0  0  0  0  0  0  0  0  0
    2.0167   -7.3807    0.0000 H   0  0  0  0  0  0  0  0  0  0  0  0
    0.1175   -6.9677    0.0000 H   0  0  0  0  0  0  0  0  0  0  0  0
    2.3091   -9.3533    0.0000 H   0  0  0  0  0  0  0  0  0  0  0  0
   -0.6292  -10.6615    0.0000 H   0  0  0  0  0  0  0  0  0  0  0  0
   -1.3844   -8.9650    0.0000 H   0  0  0  0  0  0  0  0  0  0  0  0
   -0.2930   -7.4627    0.0000 H   0  0  0  0  0  0  0  0  0  0  0  0
  2  1  1  6  0  0  0
  2  3  1  0  0  0  0
  2  8  1  0  0  0  0
  2 21  1  0  0  0  0
  3  4  1  0  0  0  0
  3 43  1  0  0  0  0
  3 44  1  0  0  0  0
  4 45  1  0  0  0  0
  4 46  1  0  0  0  0
  5  4  1  0  0  0  0
  5  6  1  6  0  0  0
  5  7  1  0  0  0  0
  5  9  1  0  0  0  0
  6 47  1  0  0  0  0
  7  8  1  0  0  0  0
  7 48  1  0  0  0  0
  7 49  1  0  0  0  0
  8 50  1  0  0  0  0
  8 51  1  0  0  0  0
  9 10  2  0  0  0  0
  9 14  1  0  0  0  0
 10 11  1  0  0  0  0
 10 52  1  0  0  0  0
 11 12  2  0  0  0  0
 11 53  1  0  0  0  0
 12 13  1  0  0  0  0
 12 15  1  0  0  0  0
 13 14  2  0  0  0  0
 13 54  1  0  0  0  0
 15 16  2  0  0  0  0
 15 20  1  0  0  0  0
 16 17  1  0  0  0  0
 17 18  2  0  0  0  0
 17 55  1  0  0  0  0
 18 19  1  0  0  0  0
 18 56  1  0  0  0  0
 19 20  2  0  0  0  0
 19 57  1  0  0  0  0
 21 58  1  0  0  0  0
 22 21  1  0  0  0  0
 22 23  1  0  0  0  0
 22 26  1  0  0  0  0
 22 59  1  6  0  0  0
 23 24  1  0  0  0  0
 23 60  1  0  0  0  0
 23 61  1  0  0  0  0
 24 25  1  0  0  0  0
 24 62  1  0  0  0  0
 24 63  1  0  0  0  0
 25 26  1  0  0  0  0
 25 27  1  0  0  0  0
 26 64  1  0  0  0  0
 26 65  1  0  0  0  0
 27 28  2  0  0  0  0
 27 29  1  0  0  0  0
 29 30  1  0  0  0  0
 29 66  1  0  0  0  0
 29 67  1  0  0  0  0
 30 31  1  0  0  0  0
 30 68  1  0  0  0  0
 31 32  2  0  0  0  0
 31 33  1  0  0  0  0
 33 34  2  0  0  0  0
 33 38  1  0  0  0  0
 34 35  1  0  0  0  0
 34 69  1  0  0  0  0
 35 36  2  0  0  0  0
 35 39  1  0  0  0  0
 36 37  1  0  0  0  0
 36 70  1  0  0  0  0
 37 38  2  0  0  0  0
 37 71  1  0  0  0  0
 38 72  1  0  0  0  0
 39 40  1  0  0  0  0
 39 41  1  0  0  0  0
 39 42  1  0  0  0  0
M  END
>  <DRUGBANK_ID>
DB17200

>  <COMMON_NAME>
PF-4136309

>  <CAS_NUMBER>
1341224-83-6

>  <UNII>
3M2595V4KT

>  <SYNONYMS>
Benzamide, n-(2-((3s)-3-((trans-4-hydroxy-4-(5-(2-pyrimidinyl)- 2-pyridinyl)cyclohexyl)amino)-1-pyrrolidinyl)-2-oxoethyl)-3-(trifluoromethyl)-; N-(2-((3s)-3-((trans-4-hydroxy-4-(5-(pyrimidin-2-yl)pyridin-2- yl)cyclohexyl)amino)pyrrolidin-1-yl)-2-oxoethyl)-3-(trifluoromethyl)benzamide

$$$$
