2PU
 OpenBabel10282417072D

 49 53  0  0  0  0  0  0  0  0999 V2000
    1.6199    1.8199    0.0000 C   0  0  0  0  0  0  0  0  0  0  0  0
    0.7950    1.8036    0.0000 C   0  0  1  0  0  0  0  0  0  0  0  0
    1.8593    2.6094    0.0000 C   0  0  0  0  0  0  0  0  0  0  0  0
    2.1839    1.2178    0.0000 C   0  0  0  0  0  0  0  0  0  0  0  0
    0.5247    2.5831    0.0000 N   0  0  0  0  0  0  0  0  0  0  0  0
    0.1373    1.3057    0.0000 C   0  0  0  0  0  0  0  0  0  0  0  0
    1.1824    3.0811    0.0000 C   0  0  0  0  0  0  0  0  0  0  0  0
    2.6627    2.7968    0.0000 C   0  0  0  0  0  0  0  0  0  0  0  0
    2.9873    1.4052    0.0000 C   0  0  0  0  0  0  0  0  0  0  0  0
    1.9444    0.4283    0.0000 N   0  0  0  0  0  0  0  0  0  0  0  0
   -0.3002    2.5668    0.0000 C   0  0  0  0  0  0  0  0  0  0  0  0
   -0.5396    1.7773    0.0000 C   0  0  0  0  0  0  0  0  0  0  0  0
    1.1661    3.9059    0.0000 O   0  0  0  0  0  0  0  0  0  0  0  0
    3.2267    2.1947    0.0000 C   0  0  0  0  0  0  0  0  0  0  0  0
    1.1410    0.2409    0.0000 C   0  0  0  0  0  0  0  0  0  0  0  0
    0.9016   -0.5486    0.0000 N   0  0  0  0  0  0  0  0  0  0  0  0
    0.5770    0.8430    0.0000 O   0  0  0  0  0  0  0  0  0  0  0  0
    0.0982   -0.7360    0.0000 C   0  0  0  0  0  0  0  0  0  0  0  0
   -0.2225   -1.4961    0.0000 C   0  0  0  0  0  0  0  0  0  0  0  0
   -0.5257   -0.1961    0.0000 N   0  0  0  0  0  0  0  0  0  0  0  0
   -1.0445   -1.4261    0.0000 C   0  0  0  0  0  0  0  0  0  0  0  0
   -1.2319   -0.6227    0.0000 N   0  0  0  0  0  0  0  0  0  0  0  0
   -1.5843   -2.0499    0.0000 C   0  0  2  0  0  0  0  0  0  0  0  0
   -1.3969   -2.8534    0.0000 C   0  0  0  0  0  0  0  0  0  0  0  0
   -2.4064   -1.9799    0.0000 N   0  0  0  0  0  0  0  0  0  0  0  0
   -2.1031   -3.2799    0.0000 C   0  0  0  0  0  0  0  0  0  0  0  0
   -2.7270   -2.7400    0.0000 C   0  0  0  0  0  0  0  0  0  0  0  0
    0.9864    1.2520    0.0000 H   0  0  0  0  0  0  0  0  0  0  0  0
   -1.0174   -2.1899    0.0000 H   0  0  0  0  0  0  0  0  0  0  0  0
    0.1584    0.2359    0.0000 H   0  0  0  0  0  0  0  0  0  0  0  0
   -0.8063    0.8012    0.0000 H   0  0  0  0  0  0  0  0  0  0  0  0
    2.9622    3.7844    0.0000 H   0  0  0  0  0  0  0  0  0  0  0  0
    3.6928    0.6520    0.0000 H   0  0  0  0  0  0  0  0  0  0  0  0
    2.6174   -0.2902    0.0000 H   0  0  0  0  0  0  0  0  0  0  0  0
   -0.9461    3.4199    0.0000 H   0  0  0  0  0  0  0  0  0  0  0  0
   -1.3535    2.3786    0.0000 H   0  0  0  0  0  0  0  0  0  0  0  0
   -1.5505    1.4266    0.0000 H   0  0  0  0  0  0  0  0  0  0  0  0
   -1.3110    2.5188    0.0000 H   0  0  0  0  0  0  0  0  0  0  0  0
    4.2317    2.4291    0.0000 H   0  0  0  0  0  0  0  0  0  0  0  0
    1.5747   -1.2671    0.0000 H   0  0  0  0  0  0  0  0  0  0  0  0
    0.3110   -2.3795    0.0000 H   0  0  0  0  0  0  0  0  0  0  0  0
   -2.1390   -0.2401    0.0000 H   0  0  0  0  0  0  0  0  0  0  0  0
   -0.4110   -3.2693    0.0000 H   0  0  0  0  0  0  0  0  0  0  0  0
   -1.3199   -3.9206    0.0000 H   0  0  0  0  0  0  0  0  0  0  0  0
   -2.9337   -1.1068    0.0000 H   0  0  0  0  0  0  0  0  0  0  0  0
   -2.1940   -4.3460    0.0000 H   0  0  0  0  0  0  0  0  0  0  0  0
   -3.0943   -3.6830    0.0000 H   0  0  0  0  0  0  0  0  0  0  0  0
   -3.7690   -2.9831    0.0000 H   0  0  0  0  0  0  0  0  0  0  0  0
   -2.9835   -3.7788    0.0000 H   0  0  0  0  0  0  0  0  0  0  0  0
  1  2  1  0  0  0  0
  1  3  2  0  0  0  0
  1  4  1  0  0  0  0
  2  5  1  0  0  0  0
  2  6  1  0  0  0  0
  2 28  1  1  0  0  0
  3  7  1  0  0  0  0
  3  8  1  0  0  0  0
  4  9  2  0  0  0  0
  4 10  1  0  0  0  0
  5  7  1  0  0  0  0
  5 11  1  0  0  0  0
  6 12  1  0  0  0  0
  6 30  1  0  0  0  0
  6 31  1  0  0  0  0
  7 13  2  0  0  0  0
  8 14  2  0  0  0  0
  8 32  1  0  0  0  0
  9 14  1  0  0  0  0
  9 33  1  0  0  0  0
 10 15  1  0  0  0  0
 10 34  1  0  0  0  0
 11 12  1  0  0  0  0
 11 35  1  0  0  0  0
 11 36  1  0  0  0  0
 12 37  1  0  0  0  0
 12 38  1  0  0  0  0
 14 39  1  0  0  0  0
 15 16  1  0  0  0  0
 15 17  2  0  0  0  0
 16 18  1  0  0  0  0
 16 40  1  0  0  0  0
 18 19  1  0  0  0  0
 18 20  2  0  0  0  0
 19 21  2  0  0  0  0
 19 41  1  0  0  0  0
 20 22  1  0  0  0  0
 21 22  1  0  0  0  0
 22 42  1  0  0  0  0
 23 21  1  0  0  0  0
 23 24  1  0  0  0  0
 23 25  1  0  0  0  0
 23 29  1  1  0  0  0
 24 26  1  0  0  0  0
 24 43  1  0  0  0  0
 24 44  1  0  0  0  0
 25 27  1  0  0  0  0
 25 45  1  0  0  0  0
 26 27  1  0  0  0  0
 26 46  1  0  0  0  0
 26 47  1  0  0  0  0
 27 48  1  0  0  0  0
 27 49  1  0  0  0  0
M  END
>  <DRUGBANK_ID>
DB06976

>  <COMMON_NAME>
1-(5-OXO-2,3,5,9B-TETRAHYDRO-1H-PYRROLO[2,1-A]ISOINDOL-9-YL)-3-(5-PYRROLIDIN-2-YL-1H-PYRAZOL-3-YL)-UREA

$$$$
