HQL
 OpenBabel10282417072D

 55 58  0  0  0  0  0  0  0  0999 V2000
   -3.1559    1.3594    0.0000 C   0  0  0  0  0  0  0  0  0  0  0  0
   -2.4414    1.7719    0.0000 C   0  0  0  0  0  0  0  0  0  0  0  0
   -1.7269    1.3594    0.0000 C   0  0  0  0  0  0  0  0  0  0  0  0
   -1.7269    0.5344    0.0000 C   0  0  0  0  0  0  0  0  0  0  0  0
   -1.0125    0.1219    0.0000 C   0  0  0  0  0  0  0  0  0  0  0  0
   -0.2980    0.5344    0.0000 O   0  0  0  0  0  0  0  0  0  0  0  0
    0.4165    0.1219    0.0000 C   0  0  0  0  0  0  0  0  0  0  0  0
    1.1310    0.5344    0.0000 C   0  0  0  0  0  0  0  0  0  0  0  0
    1.8454    0.1219    0.0000 C   0  0  0  0  0  0  0  0  0  0  0  0
    1.8454   -0.7031    0.0000 N   0  0  0  0  0  0  0  0  0  0  0  0
    2.5599   -1.1156    0.0000 C   0  0  0  0  0  0  0  0  0  0  0  0
    2.5599   -1.9406    0.0000 C   0  0  0  0  0  0  0  0  0  0  0  0
    3.2744   -2.3531    0.0000 C   0  0  0  0  0  0  0  0  0  0  0  0
    3.2744   -3.1781    0.0000 C   0  0  0  0  0  0  0  0  0  0  0  0
    3.9418   -3.6630    0.0000 N   0  0  0  0  0  0  0  0  0  0  0  0
    3.6869   -4.4476    0.0000 N   0  0  0  0  0  0  0  0  0  0  0  0
    2.8619   -4.4476    0.0000 N   0  0  0  0  0  0  0  0  0  0  0  0
    2.6069   -3.6630    0.0000 N   0  0  0  0  0  0  0  0  0  0  0  0
    1.1310   -1.1156    0.0000 C   0  0  0  0  0  0  0  0  0  0  0  0
    0.4165   -0.7031    0.0000 C   0  0  0  0  0  0  0  0  0  0  0  0
   -1.0125   -0.7031    0.0000 C   0  0  0  0  0  0  0  0  0  0  0  0
   -0.2980   -1.1156    0.0000 C   0  0  0  0  0  0  0  0  0  0  0  0
   -0.2980   -1.9406    0.0000 C   0  0  0  0  0  0  0  0  0  0  0  0
   -1.0125   -2.3531    0.0000 C   0  0  0  0  0  0  0  0  0  0  0  0
   -1.7269   -1.9406    0.0000 C   0  0  0  0  0  0  0  0  0  0  0  0
   -1.7269   -1.1156    0.0000 C   0  0  0  0  0  0  0  0  0  0  0  0
   -2.4414    0.1219    0.0000 C   0  0  0  0  0  0  0  0  0  0  0  0
   -3.1559    0.5344    0.0000 C   0  0  0  0  0  0  0  0  0  0  0  0
   -4.0496    1.8754    0.0000 H   0  0  0  0  0  0  0  0  0  0  0  0
   -2.4414    2.8039    0.0000 H   0  0  0  0  0  0  0  0  0  0  0  0
   -0.8332    1.8754    0.0000 H   0  0  0  0  0  0  0  0  0  0  0  0
   -0.0859   -0.4131    0.0000 H   0  0  0  0  0  0  0  0  0  0  0  0
    1.3431   -0.4131    0.0000 H   0  0  0  0  0  0  0  0  0  0  0  0
    1.1310    1.6044    0.0000 H   0  0  0  0  0  0  0  0  0  0  0  0
    2.0577    1.0694    0.0000 H   0  0  0  0  0  0  0  0  0  0  0  0
    2.7721    0.6569    0.0000 H   0  0  0  0  0  0  0  0  0  0  0  0
    2.7720   -0.4131    0.0000 H   0  0  0  0  0  0  0  0  0  0  0  0
    3.4865   -0.5806    0.0000 H   0  0  0  0  0  0  0  0  0  0  0  0
    3.4865   -1.6506    0.0000 H   0  0  0  0  0  0  0  0  0  0  0  0
    1.6333   -2.4756    0.0000 H   0  0  0  0  0  0  0  0  0  0  0  0
    2.5599   -3.0106    0.0000 H   0  0  0  0  0  0  0  0  0  0  0  0
    4.2010   -1.8181    0.0000 H   0  0  0  0  0  0  0  0  0  0  0  0
    4.2010   -2.8881    0.0000 H   0  0  0  0  0  0  0  0  0  0  0  0
    4.8781   -3.3588    0.0000 H   0  0  0  0  0  0  0  0  0  0  0  0
    1.1310   -2.1856    0.0000 H   0  0  0  0  0  0  0  0  0  0  0  0
    0.2044   -1.6506    0.0000 H   0  0  0  0  0  0  0  0  0  0  0  0
   -0.5101   -1.2381    0.0000 H   0  0  0  0  0  0  0  0  0  0  0  0
    0.4165   -1.7731    0.0000 H   0  0  0  0  0  0  0  0  0  0  0  0
    0.5957   -0.5996    0.0000 H   0  0  0  0  0  0  0  0  0  0  0  0
    0.5957   -2.4566    0.0000 H   0  0  0  0  0  0  0  0  0  0  0  0
   -1.0125   -3.3851    0.0000 H   0  0  0  0  0  0  0  0  0  0  0  0
   -2.6206   -2.4566    0.0000 H   0  0  0  0  0  0  0  0  0  0  0  0
   -2.6206   -0.5996    0.0000 H   0  0  0  0  0  0  0  0  0  0  0  0
   -2.4414   -0.9101    0.0000 H   0  0  0  0  0  0  0  0  0  0  0  0
   -4.0496    0.0184    0.0000 H   0  0  0  0  0  0  0  0  0  0  0  0
  1  2  1  0  0  0  0
  1 28  2  0  0  0  0
  1 29  1  0  0  0  0
  2  3  2  0  0  0  0
  2 30  1  0  0  0  0
  3  4  1  0  0  0  0
  3 31  1  0  0  0  0
  4  5  1  0  0  0  0
  4 27  2  0  0  0  0
  5  6  1  0  0  0  0
  5 21  1  0  0  0  0
  5 32  1  0  0  0  0
  6  7  1  0  0  0  0
  7  8  1  0  0  0  0
  7 20  1  0  0  0  0
  7 33  1  0  0  0  0
  8  9  1  0  0  0  0
  8 34  1  0  0  0  0
  8 35  1  0  0  0  0
  9 10  1  0  0  0  0
  9 36  1  0  0  0  0
  9 37  1  0  0  0  0
 10 11  1  0  0  0  0
 10 19  1  0  0  0  0
 11 12  1  0  0  0  0
 11 38  1  0  0  0  0
 11 39  1  0  0  0  0
 12 13  1  0  0  0  0
 12 40  1  0  0  0  0
 12 41  1  0  0  0  0
 13 14  1  0  0  0  0
 13 42  1  0  0  0  0
 13 43  1  0  0  0  0
 14 15  1  0  0  0  0
 14 18  2  0  0  0  0
 15 16  1  0  0  0  0
 15 44  1  0  0  0  0
 16 17  2  0  0  0  0
 17 18  1  0  0  0  0
 19 20  1  0  0  0  0
 19 45  1  0  0  0  0
 19 46  1  0  0  0  0
 20 47  1  0  0  0  0
 20 48  1  0  0  0  0
 21 22  2  0  0  0  0
 21 26  1  0  0  0  0
 22 23  1  0  0  0  0
 22 49  1  0  0  0  0
 23 24  2  0  0  0  0
 23 50  1  0  0  0  0
 24 25  1  0  0  0  0
 24 51  1  0  0  0  0
 25 26  2  0  0  0  0
 25 52  1  0  0  0  0
 26 53  1  0  0  0  0
 27 28  1  0  0  0  0
 27 54  1  0  0  0  0
 28 55  1  0  0  0  0
M  END
>  <DRUGBANK_ID>
DB07917

>  <COMMON_NAME>
4-(BENZHYDRYLOXY)-1-[3-(1H-TETRAAZOL-5-YL)PROPYL]PIPERIDINE

$$$$
