1442
 OpenBabel10282417072D

 30 31  0  0  1  0  0  0  0  0999 V2000
    6.4461   -1.0269    0.0000 O   0  0  0  0  0  0  0  0  0  0  0  0
    6.4461    0.3009    0.0000 O   0  0  0  0  0  0  0  0  0  0  0  0
    4.9509    1.2870    0.0000 O   0  0  0  0  0  0  0  0  0  0  0  0
    2.0930   -1.1880    0.0000 N   0  0  0  0  0  0  0  0  0  0  0  0
    3.5220   -1.1880    0.0000 C   0  0  0  0  0  0  0  0  0  0  0  0
    2.8075   -0.7755    0.0000 C   0  0  3  0  0  0  0  0  0  0  0  0
    4.2365   -0.7755    0.0000 C   0  0  0  0  0  0  0  0  0  0  0  0
    4.9509   -1.1880    0.0000 C   0  0  0  0  0  0  0  0  0  0  0  0
    5.6655   -0.7755    0.0000 C   0  0  0  0  0  0  0  0  0  0  0  0
    4.2365    0.0495    0.0000 C   0  0  0  0  0  0  0  0  0  0  0  0
    5.6655    0.0495    0.0000 C   0  0  0  0  0  0  0  0  0  0  0  0
    4.9509    0.4620    0.0000 C   0  0  0  0  0  0  0  0  0  0  0  0
    2.8075    0.0495    0.0000 C   0  0  0  0  0  0  0  0  0  0  0  0
    6.9276   -0.3630    0.0000 C   0  0  0  0  0  0  0  0  0  0  0  0
    4.2365    1.6995    0.0000 C   0  0  0  0  0  0  0  0  0  0  0  0
    1.2097   -0.6780    0.0000 H   0  0  0  0  0  0  0  0  0  0  0  0
    2.0930   -2.2080    0.0000 H   0  0  0  0  0  0  0  0  0  0  0  0
    3.5220   -2.2580    0.0000 H   0  0  0  0  0  0  0  0  0  0  0  0
    4.4486   -1.7230    0.0000 H   0  0  0  0  0  0  0  0  0  0  0  0
    2.8075   -1.8455    0.0000 H   0  0  0  0  0  0  0  0  0  0  0  0
    4.9508   -2.2200    0.0000 H   0  0  0  0  0  0  0  0  0  0  0  0
    3.3428    0.5655    0.0000 H   0  0  0  0  0  0  0  0  0  0  0  0
    3.7341    0.5845    0.0000 H   0  0  0  0  0  0  0  0  0  0  0  0
    1.8809    0.5845    0.0000 H   0  0  0  0  0  0  0  0  0  0  0  0
    2.8075    1.1195    0.0000 H   0  0  0  0  0  0  0  0  0  0  0  0
    7.9976   -0.3630    0.0000 H   0  0  0  0  0  0  0  0  0  0  0  0
    7.4138    0.5902    0.0000 H   0  0  0  0  0  0  0  0  0  0  0  0
    4.2365    2.7695    0.0000 H   0  0  0  0  0  0  0  0  0  0  0  0
    3.3098    1.1645    0.0000 H   0  0  0  0  0  0  0  0  0  0  0  0
    3.3099    2.2345    0.0000 H   0  0  0  0  0  0  0  0  0  0  0  0
  1  9  1  0  0  0  0
  1 14  1  0  0  0  0
  2 11  1  0  0  0  0
  2 14  1  0  0  0  0
  3 12  1  0  0  0  0
  3 15  1  0  0  0  0
  4  6  1  0  0  0  0
  4 16  1  0  0  0  0
  4 17  1  0  0  0  0
  5  6  1  0  0  0  0
  5  7  1  0  0  0  0
  5 18  1  0  0  0  0
  5 19  1  0  0  0  0
  6 13  1  0  0  0  0
  6 20  1  0  0  0  0
  7  8  2  0  0  0  0
  7 10  1  0  0  0  0
  8  9  1  0  0  0  0
  8 21  1  0  0  0  0
  9 11  2  0  0  0  0
 10 12  2  0  0  0  0
 10 22  1  0  0  0  0
 11 12  1  0  0  0  0
 13 23  1  0  0  0  0
 13 24  1  0  0  0  0
 13 25  1  0  0  0  0
 14 26  1  0  0  0  0
 14 27  1  0  0  0  0
 15 28  1  0  0  0  0
 15 29  1  0  0  0  0
 15 30  1  0  0  0  0
M  END
>  <DRUGBANK_ID>
DB01442

>  <COMMON_NAME>
MMDA

>  <CAS_NUMBER>
13674-05-0

>  <UNII>
RG7FY73ZAA

>  <SYNONYMS>
(+-)-MMDA; 3-Methoxy-4,5-methylenedioxyphenylisopropylamine; 3-Methoxy-alpha-methyl-4,5-methylenedioxyphenethylamine; 3-methoxy-methylenedioxyamphetamine; 5-Methoxy-3,4-methylenedioxyamphetamine

$$$$
