M1C
 OpenBabel10282417072D

 36 36  0  0  0  0  0  0  0  0999 V2000
   -2.9209   -1.0522    0.0000 C   0  0  0  0  0  0  0  0  0  0  0  0
   -3.3334   -0.3377    0.0000 C   0  0  0  0  0  0  0  0  0  0  0  0
   -2.5084   -0.3377    0.0000 C   0  0  0  0  0  0  0  0  0  0  0  0
    0.3495    1.3123    0.0000 N   0  0  0  0  0  0  0  0  0  0  0  0
    0.3495    0.4873    0.0000 C   0  0  2  0  0  0  0  0  0  0  0  0
   -0.3650    0.0748    0.0000 C   0  0  0  0  0  0  0  0  0  0  0  0
   -1.0794   -0.3377    0.0000 C   0  0  0  0  0  0  0  0  0  0  0  0
   -1.7939    0.0748    0.0000 N   0  0  0  0  0  0  0  0  0  0  0  0
    0.0475   -0.6397    0.0000 O   0  0  0  0  0  0  0  0  0  0  0  0
   -0.7775    0.7893    0.0000 O   0  0  0  0  0  0  0  0  0  0  0  0
    1.0640    0.0748    0.0000 C   0  0  0  0  0  0  0  0  0  0  0  0
    1.7785    0.4873    0.0000 C   0  0  0  0  0  0  0  0  0  0  0  0
    2.4929    0.0748    0.0000 C   0  0  0  0  0  0  0  0  0  0  0  0
    3.2074    0.4873    0.0000 C   0  0  0  0  0  0  0  0  0  0  0  0
   -0.1562    0.7793    0.0000 H   0  0  0  0  0  0  0  0  0  0  0  0
   -2.9209   -2.1222    0.0000 H   0  0  0  0  0  0  0  0  0  0  0  0
   -1.8874   -1.3291    0.0000 H   0  0  0  0  0  0  0  0  0  0  0  0
   -4.2600    0.1973    0.0000 H   0  0  0  0  0  0  0  0  0  0  0  0
   -3.0565    0.6958    0.0000 H   0  0  0  0  0  0  0  0  0  0  0  0
   -2.7853    0.6958    0.0000 H   0  0  0  0  0  0  0  0  0  0  0  0
    1.2328    1.8223    0.0000 H   0  0  0  0  0  0  0  0  0  0  0  0
   -0.5338    1.8223    0.0000 H   0  0  0  0  0  0  0  0  0  0  0  0
   -1.0794   -1.4077    0.0000 H   0  0  0  0  0  0  0  0  0  0  0  0
   -2.0060   -0.8727    0.0000 H   0  0  0  0  0  0  0  0  0  0  0  0
   -1.7939    1.0948    0.0000 H   0  0  0  0  0  0  0  0  0  0  0  0
   -0.4210   -1.4512    0.0000 H   0  0  0  0  0  0  0  0  0  0  0  0
   -0.3090    1.6008    0.0000 H   0  0  0  0  0  0  0  0  0  0  0  0
    1.0640   -0.9952    0.0000 H   0  0  0  0  0  0  0  0  0  0  0  0
    1.9906   -0.4602    0.0000 H   0  0  0  0  0  0  0  0  0  0  0  0
    1.7785    1.5573    0.0000 H   0  0  0  0  0  0  0  0  0  0  0  0
    2.7052    1.0223    0.0000 H   0  0  0  0  0  0  0  0  0  0  0  0
    2.4929   -0.9952    0.0000 H   0  0  0  0  0  0  0  0  0  0  0  0
    3.4195   -0.4602    0.0000 H   0  0  0  0  0  0  0  0  0  0  0  0
    4.1340   -0.0477    0.0000 H   0  0  0  0  0  0  0  0  0  0  0  0
    3.2074    1.5573    0.0000 H   0  0  0  0  0  0  0  0  0  0  0  0
    4.1341    1.0223    0.0000 H   0  0  0  0  0  0  0  0  0  0  0  0
  1  2  1  0  0  0  0
  1  3  1  0  0  0  0
  1 16  1  0  0  0  0
  1 17  1  0  0  0  0
  2  3  1  0  0  0  0
  2 18  1  0  0  0  0
  2 19  1  0  0  0  0
  3  8  1  0  0  0  0
  3 20  1  0  0  0  0
  4 21  1  0  0  0  0
  4 22  1  0  0  0  0
  5  4  1  0  0  0  0
  5  6  1  0  0  0  0
  5 11  1  0  0  0  0
  5 15  1  6  0  0  0
  6  7  1  0  0  0  0
  6  9  1  0  0  0  0
  6 10  1  0  0  0  0
  7  8  1  0  0  0  0
  7 23  1  0  0  0  0
  7 24  1  0  0  0  0
  8 25  1  0  0  0  0
  9 26  1  0  0  0  0
 10 27  1  0  0  0  0
 11 12  1  0  0  0  0
 11 28  1  0  0  0  0
 11 29  1  0  0  0  0
 12 13  1  0  0  0  0
 12 30  1  0  0  0  0
 12 31  1  0  0  0  0
 13 14  1  0  0  0  0
 13 32  1  0  0  0  0
 13 33  1  0  0  0  0
 14 34  1  0  0  0  0
 14 35  1  0  0  0  0
 14 36  1  0  0  0  0
M  END
>  <DRUGBANK_ID>
DB02408

>  <SECONDARY_ACCESSION_NUMBERS>
EXPT02083

>  <COMMON_NAME>
(3s)-3-Amino-1-(Cyclopropylamino)Heptane-2,2-Diol

$$$$
