
 OpenBabel10282417072D

 57 60  0  0  0  0  0  0  0  0999 V2000
    1.1067   -1.0011    0.0000 C   0  0  0  0  0  0  0  0  0  0  0  0
   -0.3923   -1.9837    0.0000 C   0  0  0  0  0  0  0  0  0  0  0  0
    1.1067    0.3337    0.0000 C   0  0  2  0  0  0  0  0  0  0  0  0
   -0.3923    0.4912    0.0000 C   0  0  0  0  0  0  0  0  0  0  0  0
    1.5916   -0.3337    0.0000 C   0  0  0  0  0  0  0  0  0  0  0  0
   -1.8213   -1.1587    0.0000 C   0  0  2  0  0  0  0  0  0  0  0  0
   -1.1068    0.0787    0.0000 C   0  0  0  0  0  0  0  0  0  0  0  0
   -1.1068   -2.3962    0.0000 C   0  0  0  0  0  0  0  0  0  0  0  0
   -1.8213   -1.9837    0.0000 C   0  0  0  0  0  0  0  0  0  0  0  0
   -2.5358   -0.7462    0.0000 C   0  0  0  0  0  0  0  0  0  0  0  0
   -2.5358   -2.3962    0.0000 C   0  0  0  0  0  0  0  0  0  0  0  0
   -3.2502   -1.1587    0.0000 C   0  0  0  0  0  0  0  0  0  0  0  0
   -0.3923   -1.1587    0.0000 C   0  0  2  0  0  0  0  0  0  0  0  0
   -0.3923   -0.3337    0.0000 H   0  0  0  0  0  0  0  0  0  0  0  0
   -1.1068   -0.7462    0.0000 C   0  0  1  0  0  0  0  0  0  0  0  0
   -1.1068   -1.5712    0.0000 H   0  0  0  0  0  0  0  0  0  0  0  0
    0.3220    0.0787    0.0000 C   0  0  2  0  0  0  0  0  0  0  0  0
    0.3220    0.9037    0.0000 C   0  0  0  0  0  0  0  0  0  0  0  0
    0.3220   -0.7462    0.0000 C   0  0  1  0  0  0  0  0  0  0  0  0
    0.3220   -1.5712    0.0000 H   0  0  0  0  0  0  0  0  0  0  0  0
   -3.9647   -2.3962    0.0000 O   0  0  0  0  0  0  0  0  0  0  0  0
   -3.2502   -1.9837    0.0000 C   0  0  0  0  0  0  0  0  0  0  0  0
   -1.8213   -0.3337    0.0000 C   0  0  0  0  0  0  0  0  0  0  0  0
    1.8213    0.1498    0.0000 O   0  0  0  0  0  0  0  0  0  0  0  0
    1.1067    1.1587    0.0000 C   0  0  0  0  0  0  0  0  0  0  0  0
   -1.8213    0.4912    0.0000 O   0  0  0  0  0  0  0  0  0  0  0  0
    0.3922    1.5712    0.0000 O   0  0  0  0  0  0  0  0  0  0  0  0
    1.8213    1.5712    0.0000 C   0  0  0  0  0  0  0  0  0  0  0  0
    2.5357    1.1587    0.0000 O   0  0  0  0  0  0  0  0  0  0  0  0
    3.2502    1.5712    0.0000 C   0  0  0  0  0  0  0  0  0  0  0  0
    3.9647    1.1587    0.0000 C   0  0  0  0  0  0  0  0  0  0  0  0
    3.2502    2.3962    0.0000 O   0  0  0  0  0  0  0  0  0  0  0  0
    1.4374   -2.0187    0.0000 H   0  0  0  0  0  0  0  0  0  0  0  0
    2.1635   -1.1685    0.0000 H   0  0  0  0  0  0  0  0  0  0  0  0
    0.5343   -2.5187    0.0000 H   0  0  0  0  0  0  0  0  0  0  0  0
   -0.3923   -3.0537    0.0000 H   0  0  0  0  0  0  0  0  0  0  0  0
   -0.3922    1.5612    0.0000 H   0  0  0  0  0  0  0  0  0  0  0  0
   -1.3189    1.0262    0.0000 H   0  0  0  0  0  0  0  0  0  0  0  0
    2.6616   -0.3337    0.0000 H   0  0  0  0  0  0  0  0  0  0  0  0
    2.0774    0.6197    0.0000 H   0  0  0  0  0  0  0  0  0  0  0  0
   -1.1068   -3.4662    0.0000 H   0  0  0  0  0  0  0  0  0  0  0  0
   -2.0334   -2.9312    0.0000 H   0  0  0  0  0  0  0  0  0  0  0  0
   -2.5358    0.2858    0.0000 H   0  0  0  0  0  0  0  0  0  0  0  0
   -2.5358   -3.4282    0.0000 H   0  0  0  0  0  0  0  0  0  0  0  0
   -4.1439   -0.6427    0.0000 H   0  0  0  0  0  0  0  0  0  0  0  0
    1.2486    1.4387    0.0000 H   0  0  0  0  0  0  0  0  0  0  0  0
   -0.6046    1.4387    0.0000 H   0  0  0  0  0  0  0  0  0  0  0  0
    0.3220    1.9737    0.0000 H   0  0  0  0  0  0  0  0  0  0  0  0
   -0.8947    0.2013    0.0000 H   0  0  0  0  0  0  0  0  0  0  0  0
   -2.7479    0.2013    0.0000 H   0  0  0  0  0  0  0  0  0  0  0  0
   -1.8213    0.7363    0.0000 H   0  0  0  0  0  0  0  0  0  0  0  0
    2.0816   -0.7846    0.0000 H   0  0  0  0  0  0  0  0  0  0  0  0
    1.8214    2.6412    0.0000 H   0  0  0  0  0  0  0  0  0  0  0  0
    2.7480    2.1062    0.0000 H   0  0  0  0  0  0  0  0  0  0  0  0
    3.9647    0.0887    0.0000 H   0  0  0  0  0  0  0  0  0  0  0  0
    4.8913    1.6937    0.0000 H   0  0  0  0  0  0  0  0  0  0  0  0
    4.8914    0.6237    0.0000 H   0  0  0  0  0  0  0  0  0  0  0  0
  1 33  1  0  0  0  0
  1 34  1  0  0  0  0
  2  8  1  0  0  0  0
  2 35  1  0  0  0  0
  2 36  1  0  0  0  0
  3  5  1  0  0  0  0
  3 24  1  6  0  0  0
  3 25  1  0  0  0  0
  4  7  1  0  0  0  0
  4 37  1  0  0  0  0
  4 38  1  0  0  0  0
  5  1  1  0  0  0  0
  5 39  1  0  0  0  0
  5 40  1  0  0  0  0
  6  9  1  0  0  0  0
  6 10  1  0  0  0  0
  6 23  1  1  0  0  0
  7 26  2  0  0  0  0
  8  9  1  0  0  0  0
  8 41  1  0  0  0  0
  8 42  1  0  0  0  0
  9 11  2  0  0  0  0
 10 12  2  0  0  0  0
 10 43  1  0  0  0  0
 11 22  1  0  0  0  0
 11 44  1  0  0  0  0
 12 22  1  0  0  0  0
 12 45  1  0  0  0  0
 13 15  1  0  0  0  0
 13  2  1  0  0  0  0
 13 14  1  1  0  0  0
 15  6  1  0  0  0  0
 15  7  1  0  0  0  0
 15 16  1  6  0  0  0
 17  3  1  0  0  0  0
 17  4  1  0  0  0  0
 17 18  1  1  0  0  0
 18 46  1  0  0  0  0
 18 47  1  0  0  0  0
 18 48  1  0  0  0  0
 19 13  1  0  0  0  0
 19 17  1  0  0  0  0
 19  1  1  0  0  0  0
 19 20  1  6  0  0  0
 22 21  2  0  0  0  0
 23 49  1  0  0  0  0
 23 50  1  0  0  0  0
 23 51  1  0  0  0  0
 24 52  1  0  0  0  0
 25 27  2  0  0  0  0
 25 28  1  0  0  0  0
 28 29  1  0  0  0  0
 28 53  1  0  0  0  0
 28 54  1  0  0  0  0
 29 30  1  0  0  0  0
 30 31  1  0  0  0  0
 30 32  2  0  0  0  0
 31 55  1  0  0  0  0
 31 56  1  0  0  0  0
 31 57  1  0  0  0  0
M  END
>  <DRUGBANK_ID>
DB14646

>  <SECONDARY_ACCESSION_NUMBERS>
DBSALT002337

>  <COMMON_NAME>
Prednisone acetate

>  <CAS_NUMBER>
125-10-0

>  <UNII>
OU93QEL83U

>  <SYNONYMS>
1,4-Pregnadien-17Î±,21-diol-3,11,20-trione-21-acetate; 21-Acetoxy-17alpha-hydroxypregna-1,4-diene-3,11,20-trione; Cortancyl; delta'-Dehydrocortisone acetate; delta1-Cortisone-21-acetate; Prednisone 21-acetate; Prednisone-21-acetate

$$$$
