
 OpenBabel10282417072D

 39 42  0  0  0  0  0  0  0  0999 V2000
   -1.0462    0.1317    0.0000 C   0  0  0  0  0  0  0  0  0  0  0  0
   -0.3317    0.5442    0.0000 C   0  0  0  0  0  0  0  0  0  0  0  0
   -1.0462   -0.6933    0.0000 C   0  0  0  0  0  0  0  0  0  0  0  0
   -1.7606    0.5442    0.0000 C   0  0  0  0  0  0  0  0  0  0  0  0
    0.3340   -0.1215    0.0000 N   0  0  0  0  0  0  0  0  0  0  0  0
   -0.3317    1.3692    0.0000 N   0  0  0  0  0  0  0  0  0  0  0  0
   -0.1367   -0.9369    0.0000 C   0  0  0  0  0  0  0  0  0  0  0  0
   -1.7606   -1.1057    0.0000 C   0  0  0  0  0  0  0  0  0  0  0  0
   -2.4751    0.1317    0.0000 N   0  0  0  0  0  0  0  0  0  0  0  0
   -1.7606    1.3692    0.0000 N   0  0  0  0  0  0  0  0  0  0  0  0
    1.1519   -0.0139    0.0000 C   0  0  2  0  0  0  0  0  0  0  0  0
   -1.0462    1.7817    0.0000 C   0  0  0  0  0  0  0  0  0  0  0  0
   -2.4751   -0.6933    0.0000 N   0  0  0  0  0  0  0  0  0  0  0  0
   -1.7606   -1.9308    0.0000 N   0  0  0  0  0  0  0  0  0  0  0  0
   -3.1895    0.5442    0.0000 C   0  0  0  0  0  0  0  0  0  0  0  0
    1.5456    0.7110    0.0000 O   0  0  0  0  0  0  0  0  0  0  0  0
    1.7198   -0.6123    0.0000 C   0  0  1  0  0  0  0  0  0  0  0  0
    2.3568    0.5607    0.0000 C   0  0  1  0  0  0  0  0  0  0  0  0
    2.4644   -0.2571    0.0000 C   0  0  1  0  0  0  0  0  0  0  0  0
    1.5695   -1.4236    0.0000 O   0  0  0  0  0  0  0  0  0  0  0  0
    2.9552    1.1287    0.0000 C   0  0  0  0  0  0  0  0  0  0  0  0
    3.1895   -0.6508    0.0000 O   0  0  0  0  0  0  0  0  0  0  0  0
    2.7626    1.9308    0.0000 O   0  0  0  0  0  0  0  0  0  0  0  0
    0.2583   -1.8903    0.0000 H   0  0  0  0  0  0  0  0  0  0  0  0
    0.5459    0.8680    0.0000 H   0  0  0  0  0  0  0  0  0  0  0  0
   -1.0462    2.8137    0.0000 H   0  0  0  0  0  0  0  0  0  0  0  0
   -2.6132   -2.4231    0.0000 H   0  0  0  0  0  0  0  0  0  0  0  0
   -0.9080   -2.4230    0.0000 H   0  0  0  0  0  0  0  0  0  0  0  0
   -3.1895    1.6142    0.0000 H   0  0  0  0  0  0  0  0  0  0  0  0
   -4.1162    0.0092    0.0000 H   0  0  0  0  0  0  0  0  0  0  0  0
   -4.1161    1.0792    0.0000 H   0  0  0  0  0  0  0  0  0  0  0  0
    0.6939   -0.9163    0.0000 H   0  0  0  0  0  0  0  0  0  0  0  0
    2.0528    1.5866    0.0000 H   0  0  0  0  0  0  0  0  0  0  0  0
    2.4364   -1.3267    0.0000 H   0  0  0  0  0  0  0  0  0  0  0  0
    0.6552   -1.7475    0.0000 H   0  0  0  0  0  0  0  0  0  0  0  0
    3.9812    0.8249    0.0000 H   0  0  0  0  0  0  0  0  0  0  0  0
    3.7313    1.8653    0.0000 H   0  0  0  0  0  0  0  0  0  0  0  0
    3.2149   -1.6205    0.0000 H   0  0  0  0  0  0  0  0  0  0  0  0
    3.4662    2.5985    0.0000 H   0  0  0  0  0  0  0  0  0  0  0  0
  1  2  2  0  0  0  0
  1  3  1  0  0  0  0
  1  4  1  0  0  0  0
  2  5  1  0  0  0  0
  2  6  1  0  0  0  0
  3  7  2  0  0  0  0
  3  8  1  0  0  0  0
  4  9  1  0  0  0  0
  4 10  2  0  0  0  0
  5  7  1  0  0  0  0
  6 12  2  0  0  0  0
  7 24  1  0  0  0  0
  8 13  2  0  0  0  0
  8 14  1  0  0  0  0
  9 15  1  0  0  0  0
  9 13  1  0  0  0  0
 10 12  1  0  0  0  0
 11  5  1  0  0  0  0
 11 16  1  0  0  0  0
 11 17  1  0  0  0  0
 11 25  1  1  0  0  0
 12 26  1  0  0  0  0
 14 27  1  0  0  0  0
 14 28  1  0  0  0  0
 15 29  1  0  0  0  0
 15 30  1  0  0  0  0
 15 31  1  0  0  0  0
 16 18  1  0  0  0  0
 17 19  1  0  0  0  0
 17 20  1  0  0  0  0
 17 32  1  6  0  0  0
 18 21  1  0  0  0  0
 18 19  1  0  0  0  0
 18 33  1  1  0  0  0
 19 22  1  0  0  0  0
 19 34  1  6  0  0  0
 20 35  1  0  0  0  0
 21 23  1  0  0  0  0
 21 36  1  0  0  0  0
 21 37  1  0  0  0  0
 22 38  1  0  0  0  0
 23 39  1  0  0  0  0
M  END
>  <DRUGBANK_ID>
DB12405

>  <COMMON_NAME>
Triciribine

>  <CAS_NUMBER>
35943-35-2

>  <UNII>
2421HMY9N6

>  <SYNONYMS>
Pentaazacentopthylene; TCN; Triciribina; Triciribine; Triciribinum

$$$$
