
 OpenBabel10282417072D

 69 72  0  0  1  0  0  0  0  0999 V2000
   -1.3738   -2.2495    0.0000 C   0  0  0  0  0  0  0  0  0  0  0  0
   -1.3738   -3.0745    0.0000 C   0  0  1  0  0  0  0  0  0  0  0  0
   -2.0883   -3.4870    0.0000 C   0  0  0  0  0  0  0  0  0  0  0  0
   -2.0883   -4.3120    0.0000 O   0  0  0  0  0  0  0  0  0  0  0  0
   -2.8027   -3.0745    0.0000 N   0  0  0  0  0  0  0  0  0  0  0  0
   -3.5172   -3.4870    0.0000 C   0  0  1  0  0  0  0  0  0  0  0  0
   -3.5172   -4.3120    0.0000 C   0  0  0  0  0  0  0  0  0  0  0  0
   -2.8027   -4.7245    0.0000 C   0  0  0  0  0  0  0  0  0  0  0  0
   -2.8027   -5.5495    0.0000 C   0  0  0  0  0  0  0  0  0  0  0  0
   -3.5172   -5.9620    0.0000 C   0  0  0  0  0  0  0  0  0  0  0  0
   -4.2317   -5.5495    0.0000 C   0  0  0  0  0  0  0  0  0  0  0  0
   -4.2317   -4.7245    0.0000 C   0  0  0  0  0  0  0  0  0  0  0  0
   -4.2317   -3.0745    0.0000 C   0  0  0  0  0  0  0  0  0  0  0  0
   -4.2317   -2.2495    0.0000 O   0  0  0  0  0  0  0  0  0  0  0  0
   -4.9462   -3.4870    0.0000 N   0  0  0  0  0  0  0  0  0  0  0  0
   -5.0324   -4.3075    0.0000 C   0  0  0  0  0  0  0  0  0  0  0  0
   -5.8394   -4.4790    0.0000 C   0  0  0  0  0  0  0  0  0  0  0  0
   -6.2519   -3.7645    0.0000 C   0  0  0  0  0  0  0  0  0  0  0  0
   -5.6998   -3.1514    0.0000 C   0  0  1  0  0  0  0  0  0  0  0  0
   -5.8714   -2.3445    0.0000 C   0  0  0  0  0  0  0  0  0  0  0  0
   -5.2583   -1.7924    0.0000 O   0  0  0  0  0  0  0  0  0  0  0  0
   -6.6560   -2.0895    0.0000 N   0  0  0  0  0  0  0  0  0  0  0  0
   -6.8275   -1.2826    0.0000 C   0  0  0  0  0  0  0  0  0  0  0  0
   -7.5812   -0.9470    0.0000 C   0  0  0  0  0  0  0  0  0  0  0  0
   -7.4949   -0.1265    0.0000 N   0  0  0  0  0  0  0  0  0  0  0  0
   -6.6880    0.0450    0.0000 N   0  0  0  0  0  0  0  0  0  0  0  0
   -6.2755   -0.6695    0.0000 S   0  0  0  0  0  0  0  0  0  0  0  0
   -8.2957   -1.3595    0.0000 C   0  0  0  0  0  0  0  0  0  0  0  0
   -8.2957   -2.1845    0.0000 C   0  0  0  0  0  0  0  0  0  0  0  0
   -9.0101   -2.5970    0.0000 C   0  0  0  0  0  0  0  0  0  0  0  0
   -9.7246   -2.1845    0.0000 C   0  0  0  0  0  0  0  0  0  0  0  0
   -9.7246   -1.3595    0.0000 C   0  0  0  0  0  0  0  0  0  0  0  0
   -9.0101   -0.9470    0.0000 C   0  0  0  0  0  0  0  0  0  0  0  0
   -0.6593   -3.4870    0.0000 N   0  0  0  0  0  0  0  0  0  0  0  0
    0.0551   -3.0745    0.0000 C   0  0  0  0  0  0  0  0  0  0  0  0
   -0.4472   -1.7145    0.0000 H   0  0  0  0  0  0  0  0  0  0  0  0
   -2.3004   -1.7145    0.0000 H   0  0  0  0  0  0  0  0  0  0  0  0
   -1.3738   -1.1795    0.0000 H   0  0  0  0  0  0  0  0  0  0  0  0
   -2.3004   -2.5395    0.0000 H   0  0  0  0  0  0  0  0  0  0  0  0
   -2.8027   -2.0900    0.0000 H   0  0  0  0  0  0  0  0  0  0  0  0
   -2.5906   -4.0220    0.0000 H   0  0  0  0  0  0  0  0  0  0  0  0
   -3.5172   -5.3820    0.0000 H   0  0  0  0  0  0  0  0  0  0  0  0
   -1.8761   -4.1895    0.0000 H   0  0  0  0  0  0  0  0  0  0  0  0
   -1.8761   -5.2595    0.0000 H   0  0  0  0  0  0  0  0  0  0  0  0
   -1.8761   -6.0845    0.0000 H   0  0  0  0  0  0  0  0  0  0  0  0
   -2.8027   -6.6195    0.0000 H   0  0  0  0  0  0  0  0  0  0  0  0
   -3.5172   -7.0320    0.0000 H   0  0  0  0  0  0  0  0  0  0  0  0
   -4.4438   -6.4970    0.0000 H   0  0  0  0  0  0  0  0  0  0  0  0
   -5.1583   -6.0845    0.0000 H   0  0  0  0  0  0  0  0  0  0  0  0
   -5.1583   -5.0145    0.0000 H   0  0  0  0  0  0  0  0  0  0  0  0
   -5.1583   -4.1895    0.0000 H   0  0  0  0  0  0  0  0  0  0  0  0
   -4.2317   -3.6545    0.0000 H   0  0  0  0  0  0  0  0  0  0  0  0
   -4.2372   -5.0235    0.0000 H   0  0  0  0  0  0  0  0  0  0  0  0
   -5.3094   -5.3410    0.0000 H   0  0  0  0  0  0  0  0  0  0  0  0
   -6.2746   -5.4565    0.0000 H   0  0  0  0  0  0  0  0  0  0  0  0
   -6.9079   -4.5350    0.0000 H   0  0  0  0  0  0  0  0  0  0  0  0
   -7.3160   -3.6526    0.0000 H   0  0  0  0  0  0  0  0  0  0  0  0
   -6.6353   -2.7656    0.0000 H   0  0  0  0  0  0  0  0  0  0  0  0
   -6.7333   -2.8745    0.0000 H   0  0  0  0  0  0  0  0  0  0  0  0
   -7.3877   -2.7482    0.0000 H   0  0  0  0  0  0  0  0  0  0  0  0
   -7.4020   -2.7005    0.0000 H   0  0  0  0  0  0  0  0  0  0  0  0
   -9.0101   -3.6290    0.0000 H   0  0  0  0  0  0  0  0  0  0  0  0
  -10.6183   -2.7005    0.0000 H   0  0  0  0  0  0  0  0  0  0  0  0
  -10.6183   -0.8435    0.0000 H   0  0  0  0  0  0  0  0  0  0  0  0
   -9.0101    0.0850    0.0000 H   0  0  0  0  0  0  0  0  0  0  0  0
   -0.6593   -4.5070    0.0000 H   0  0  0  0  0  0  0  0  0  0  0  0
    0.9818   -3.6095    0.0000 H   0  0  0  0  0  0  0  0  0  0  0  0
    0.0551   -2.0045    0.0000 H   0  0  0  0  0  0  0  0  0  0  0  0
    0.9817   -2.5395    0.0000 H   0  0  0  0  0  0  0  0  0  0  0  0
  1 36  1  0  0  0  0
  1 37  1  0  0  0  0
  1 38  1  0  0  0  0
  2  1  1  0  0  0  0
  2  3  1  0  0  0  0
  2 34  1  0  0  0  0
  2 39  1  1  0  0  0
  3  4  2  0  0  0  0
  3  5  1  0  0  0  0
  5 40  1  0  0  0  0
  6  5  1  0  0  0  0
  6  7  1  0  0  0  0
  6 13  1  0  0  0  0
  6 41  1  6  0  0  0
  7  8  1  0  0  0  0
  7 12  1  0  0  0  0
  7 42  1  0  0  0  0
  8  9  1  0  0  0  0
  8 43  1  0  0  0  0
  8 44  1  0  0  0  0
  9 10  1  0  0  0  0
  9 45  1  0  0  0  0
  9 46  1  0  0  0  0
 10 11  1  0  0  0  0
 10 47  1  0  0  0  0
 10 48  1  0  0  0  0
 11 12  1  0  0  0  0
 11 49  1  0  0  0  0
 11 50  1  0  0  0  0
 12 51  1  0  0  0  0
 12 52  1  0  0  0  0
 13 14  2  0  0  0  0
 13 15  1  0  0  0  0
 15 16  1  0  0  0  0
 15 19  1  0  0  0  0
 16 17  1  0  0  0  0
 16 53  1  0  0  0  0
 16 54  1  0  0  0  0
 17 18  1  0  0  0  0
 17 55  1  0  0  0  0
 17 56  1  0  0  0  0
 18 19  1  0  0  0  0
 18 57  1  0  0  0  0
 18 58  1  0  0  0  0
 19 20  1  0  0  0  0
 19 59  1  6  0  0  0
 20 21  2  0  0  0  0
 20 22  1  0  0  0  0
 22 23  1  0  0  0  0
 22 60  1  0  0  0  0
 23 24  2  0  0  0  0
 23 27  1  0  0  0  0
 24 25  1  0  0  0  0
 24 28  1  0  0  0  0
 25 26  2  0  0  0  0
 26 27  1  0  0  0  0
 28 29  2  0  0  0  0
 28 33  1  0  0  0  0
 29 30  1  0  0  0  0
 29 61  1  0  0  0  0
 30 31  2  0  0  0  0
 30 62  1  0  0  0  0
 31 32  1  0  0  0  0
 31 63  1  0  0  0  0
 32 33  2  0  0  0  0
 32 64  1  0  0  0  0
 33 65  1  0  0  0  0
 34 35  1  0  0  0  0
 34 66  1  0  0  0  0
 35 67  1  0  0  0  0
 35 68  1  0  0  0  0
 35 69  1  0  0  0  0
M  END
>  <DRUGBANK_ID>
DB12380

>  <COMMON_NAME>
GDC-0152

>  <CAS_NUMBER>
873652-48-3

>  <UNII>
4KW1M48SHS

$$$$
