812
 OpenBabel10282417072D

 43 45  0  0  0  0  0  0  0  0999 V2000
    2.3933    3.3864    0.0000 C   0  0  0  0  0  0  0  0  0  0  0  0
    1.7259    2.9014    0.0000 N   0  0  0  0  0  0  0  0  0  0  0  0
    3.0608    2.9014    0.0000 C   0  0  0  0  0  0  0  0  0  0  0  0
    2.8058    2.1168    0.0000 C   0  0  0  0  0  0  0  0  0  0  0  0
    1.9808    2.1168    0.0000 C   0  0  2  0  0  0  0  0  0  0  0  0
    1.4959    1.4494    0.0000 C   0  0  0  0  0  0  0  0  0  0  0  0
    0.6754    1.5356    0.0000 O   0  0  0  0  0  0  0  0  0  0  0  0
    0.1905    0.8682    0.0000 C   0  0  0  0  0  0  0  0  0  0  0  0
   -0.6300    0.9544    0.0000 C   0  0  0  0  0  0  0  0  0  0  0  0
   -1.1149    0.2870    0.0000 C   0  0  0  0  0  0  0  0  0  0  0  0
   -0.7793   -0.4667    0.0000 C   0  0  0  0  0  0  0  0  0  0  0  0
    0.0411   -0.5529    0.0000 C   0  0  0  0  0  0  0  0  0  0  0  0
    0.5261    0.1145    0.0000 C   0  0  0  0  0  0  0  0  0  0  0  0
   -1.2643   -1.1342    0.0000 N   0  0  0  0  0  0  0  0  0  0  0  0
   -0.9287   -1.8878    0.0000 C   0  0  0  0  0  0  0  0  0  0  0  0
   -1.4136   -2.5553    0.0000 C   0  0  0  0  0  0  0  0  0  0  0  0
   -1.0781   -3.3089    0.0000 C   0  0  0  0  0  0  0  0  0  0  0  0
   -1.5630   -3.9764    0.0000 C   0  0  0  0  0  0  0  0  0  0  0  0
   -2.3835   -3.8901    0.0000 C   0  0  0  0  0  0  0  0  0  0  0  0
   -2.7190   -3.1365    0.0000 C   0  0  0  0  0  0  0  0  0  0  0  0
   -2.2341   -2.4690    0.0000 C   0  0  0  0  0  0  0  0  0  0  0  0
    1.4041    2.2082    0.0000 H   0  0  0  0  0  0  0  0  0  0  0  0
    2.3933    4.4564    0.0000 H   0  0  0  0  0  0  0  0  0  0  0  0
    1.4399    3.8721    0.0000 H   0  0  0  0  0  0  0  0  0  0  0  0
    0.7558    3.2166    0.0000 H   0  0  0  0  0  0  0  0  0  0  0  0
    4.0784    3.2320    0.0000 H   0  0  0  0  0  0  0  0  0  0  0  0
    3.8174    2.1447    0.0000 H   0  0  0  0  0  0  0  0  0  0  0  0
    3.4347    1.2511    0.0000 H   0  0  0  0  0  0  0  0  0  0  0  0
    2.3200    1.1634    0.0000 H   0  0  0  0  0  0  0  0  0  0  0  0
    1.9311    0.4719    0.0000 H   0  0  0  0  0  0  0  0  0  0  0  0
    0.8670    0.5837    0.0000 H   0  0  0  0  0  0  0  0  0  0  0  0
   -1.0498    1.8972    0.0000 H   0  0  0  0  0  0  0  0  0  0  0  0
   -2.1412    0.3949    0.0000 H   0  0  0  0  0  0  0  0  0  0  0  0
    0.4608   -1.4957    0.0000 H   0  0  0  0  0  0  0  0  0  0  0  0
    1.5524    0.0066    0.0000 H   0  0  0  0  0  0  0  0  0  0  0  0
   -2.2434   -1.0313    0.0000 H   0  0  0  0  0  0  0  0  0  0  0  0
    0.1354   -1.9996    0.0000 H   0  0  0  0  0  0  0  0  0  0  0  0
   -0.4934   -2.8653    0.0000 H   0  0  0  0  0  0  0  0  0  0  0  0
   -0.0518   -3.4168    0.0000 H   0  0  0  0  0  0  0  0  0  0  0  0
   -1.1433   -4.9192    0.0000 H   0  0  0  0  0  0  0  0  0  0  0  0
   -2.9901   -4.7250    0.0000 H   0  0  0  0  0  0  0  0  0  0  0  0
   -3.7453   -3.0286    0.0000 H   0  0  0  0  0  0  0  0  0  0  0  0
   -2.6538   -1.5262    0.0000 H   0  0  0  0  0  0  0  0  0  0  0  0
  1  3  1  0  0  0  0
  1 23  1  0  0  0  0
  1 24  1  0  0  0  0
  2  1  1  0  0  0  0
  2 25  1  0  0  0  0
  3 26  1  0  0  0  0
  3 27  1  0  0  0  0
  4  3  1  0  0  0  0
  4 28  1  0  0  0  0
  4 29  1  0  0  0  0
  5  2  1  0  0  0  0
  5  4  1  0  0  0  0
  5 22  1  1  0  0  0
  5  6  1  0  0  0  0
  6  7  1  0  0  0  0
  6 30  1  0  0  0  0
  6 31  1  0  0  0  0
  7  8  1  0  0  0  0
  8 13  1  0  0  0  0
  9  8  2  0  0  0  0
  9 10  1  0  0  0  0
  9 32  1  0  0  0  0
 10 11  2  0  0  0  0
 10 33  1  0  0  0  0
 11 14  1  0  0  0  0
 11 12  1  0  0  0  0
 12 34  1  0  0  0  0
 13 12  2  0  0  0  0
 13 35  1  0  0  0  0
 14 15  1  0  0  0  0
 14 36  1  0  0  0  0
 15 16  1  0  0  0  0
 15 37  1  0  0  0  0
 15 38  1  0  0  0  0
 16 17  1  0  0  0  0
 17 18  2  0  0  0  0
 17 39  1  0  0  0  0
 18 40  1  0  0  0  0
 19 18  1  0  0  0  0
 19 41  1  0  0  0  0
 20 19  2  0  0  0  0
 20 42  1  0  0  0  0
 21 16  2  0  0  0  0
 21 20  1  0  0  0  0
 21 43  1  0  0  0  0
M  END
>  <DRUGBANK_ID>
DB07260

>  <COMMON_NAME>
N-benzyl-4-[(2R)-pyrrolidin-2-ylmethoxy]aniline

$$$$
