
 OpenBabel10282417072D

 53 55  0  0  0  0  0  0  0  0999 V2000
   -3.6215   -0.4373    0.0000 C   0  0  0  0  0  0  0  0  0  0  0  0
   -2.9069   -0.0248    0.0000 C   0  0  0  0  0  0  0  0  0  0  0  0
   -2.9069    0.8001    0.0000 C   0  0  0  0  0  0  0  0  0  0  0  0
   -2.1925    1.2126    0.0000 C   0  0  0  0  0  0  0  0  0  0  0  0
   -1.4780    0.8001    0.0000 C   0  0  0  0  0  0  0  0  0  0  0  0
   -1.4780   -0.0248    0.0000 C   0  0  0  0  0  0  0  0  0  0  0  0
   -2.1925   -0.4373    0.0000 C   0  0  0  0  0  0  0  0  0  0  0  0
   -3.6215   -1.2624    0.0000 O   0  0  0  0  0  0  0  0  0  0  0  0
   -4.3359   -0.0248    0.0000 O   0  0  0  0  0  0  0  0  0  0  0  0
   -0.7635    1.2126    0.0000 C   0  0  0  0  0  0  0  0  0  0  0  0
   -0.0490    0.8001    0.0000 C   0  0  0  0  0  0  0  0  0  0  0  0
    0.6654    1.2126    0.0000 C   0  0  0  0  0  0  0  0  0  0  0  0
    1.3799   -0.0248    0.0000 C   0  0  0  0  0  0  0  0  0  0  0  0
    1.3799    0.8001    0.0000 C   0  0  0  0  0  0  0  0  0  0  0  0
    2.0945    1.2126    0.0000 C   0  0  0  0  0  0  0  0  0  0  0  0
    2.8089    0.8001    0.0000 C   0  0  0  0  0  0  0  0  0  0  0  0
    2.8089   -0.0248    0.0000 C   0  0  0  0  0  0  0  0  0  0  0  0
    3.5235   -0.4373    0.0000 C   0  0  0  0  0  0  0  0  0  0  0  0
    3.5235   -1.2624    0.0000 C   0  0  0  0  0  0  0  0  0  0  0  0
    2.8089   -1.6749    0.0000 C   0  0  0  0  0  0  0  0  0  0  0  0
    2.0945   -1.2624    0.0000 C   0  0  0  0  0  0  0  0  0  0  0  0
    2.0945   -0.4373    0.0000 C   0  0  0  0  0  0  0  0  0  0  0  0
    1.8122   -2.0377    0.0000 C   0  0  0  0  0  0  0  0  0  0  0  0
    1.2819   -1.1191    0.0000 C   0  0  0  0  0  0  0  0  0  0  0  0
    3.8056    0.3378    0.0000 C   0  0  0  0  0  0  0  0  0  0  0  0
    4.3359   -0.5806    0.0000 C   0  0  0  0  0  0  0  0  0  0  0  0
    0.6654    2.0377    0.0000 O   0  0  0  0  0  0  0  0  0  0  0  0
   -3.8006    1.3161    0.0000 H   0  0  0  0  0  0  0  0  0  0  0  0
   -2.1925    2.2446    0.0000 H   0  0  0  0  0  0  0  0  0  0  0  0
   -0.5843   -0.5408    0.0000 H   0  0  0  0  0  0  0  0  0  0  0  0
   -2.1925   -1.4693    0.0000 H   0  0  0  0  0  0  0  0  0  0  0  0
   -4.3359    0.9122    0.0000 H   0  0  0  0  0  0  0  0  0  0  0  0
   -0.7635    2.2446    0.0000 H   0  0  0  0  0  0  0  0  0  0  0  0
   -0.0490   -0.2319    0.0000 H   0  0  0  0  0  0  0  0  0  0  0  0
    0.4862   -0.5408    0.0000 H   0  0  0  0  0  0  0  0  0  0  0  0
    2.0946    2.2446    0.0000 H   0  0  0  0  0  0  0  0  0  0  0  0
    3.7026    1.3161    0.0000 H   0  0  0  0  0  0  0  0  0  0  0  0
    4.4501   -1.7974    0.0000 H   0  0  0  0  0  0  0  0  0  0  0  0
    3.5234   -2.3324    0.0000 H   0  0  0  0  0  0  0  0  0  0  0  0
    2.8088   -2.7449    0.0000 H   0  0  0  0  0  0  0  0  0  0  0  0
    1.8822   -2.2099    0.0000 H   0  0  0  0  0  0  0  0  0  0  0  0
    0.7584   -2.2234    0.0000 H   0  0  0  0  0  0  0  0  0  0  0  0
    2.4999   -2.8575    0.0000 H   0  0  0  0  0  0  0  0  0  0  0  0
    1.4461   -3.0431    0.0000 H   0  0  0  0  0  0  0  0  0  0  0  0
    0.9160   -0.1136    0.0000 H   0  0  0  0  0  0  0  0  0  0  0  0
    0.5941   -1.9388    0.0000 H   0  0  0  0  0  0  0  0  0  0  0  0
    0.2282   -0.9333    0.0000 H   0  0  0  0  0  0  0  0  0  0  0  0
    4.8593    0.5236    0.0000 H   0  0  0  0  0  0  0  0  0  0  0  0
    3.1178    1.1575    0.0000 H   0  0  0  0  0  0  0  0  0  0  0  0
    4.1715    1.3433    0.0000 H   0  0  0  0  0  0  0  0  0  0  0  0
    4.7018   -1.5861    0.0000 H   0  0  0  0  0  0  0  0  0  0  0  0
    5.0237    0.2390    0.0000 H   0  0  0  0  0  0  0  0  0  0  0  0
    5.3896   -0.7665    0.0000 H   0  0  0  0  0  0  0  0  0  0  0  0
  1  2  1  0  0  0  0
  1  8  2  0  0  0  0
  1  9  1  0  0  0  0
  2  3  1  0  0  0  0
  2  7  2  0  0  0  0
  3  4  2  0  0  0  0
  3 28  1  0  0  0  0
  4  5  1  0  0  0  0
  4 29  1  0  0  0  0
  5  6  2  0  0  0  0
  5 10  1  0  0  0  0
  6  7  1  0  0  0  0
  6 30  1  0  0  0  0
  7 31  1  0  0  0  0
  9 32  1  0  0  0  0
 10 11  2  0  0  0  0
 10 33  1  0  0  0  0
 11 12  1  0  0  0  0
 11 34  1  0  0  0  0
 12 14  1  0  0  0  0
 12 27  2  0  0  0  0
 13 14  1  0  0  0  0
 13 22  2  0  0  0  0
 13 35  1  0  0  0  0
 14 15  2  0  0  0  0
 15 16  1  0  0  0  0
 15 36  1  0  0  0  0
 16 17  2  0  0  0  0
 16 37  1  0  0  0  0
 17 18  1  0  0  0  0
 17 22  1  0  0  0  0
 18 19  1  0  0  0  0
 18 25  1  0  0  0  0
 18 26  1  0  0  0  0
 19 20  1  0  0  0  0
 19 38  1  0  0  0  0
 19 39  1  0  0  0  0
 20 21  1  0  0  0  0
 20 40  1  0  0  0  0
 20 41  1  0  0  0  0
 21 22  1  0  0  0  0
 21 23  1  0  0  0  0
 21 24  1  0  0  0  0
 23 42  1  0  0  0  0
 23 43  1  0  0  0  0
 23 44  1  0  0  0  0
 24 45  1  0  0  0  0
 24 46  1  0  0  0  0
 24 47  1  0  0  0  0
 25 48  1  0  0  0  0
 25 49  1  0  0  0  0
 25 50  1  0  0  0  0
 26 51  1  0  0  0  0
 26 52  1  0  0  0  0
 26 53  1  0  0  0  0
M  END
>  <DRUGBANK_ID>
DB02466

>  <SECONDARY_ACCESSION_NUMBERS>
EXPT00042

>  <COMMON_NAME>
BMS-181156

>  <CAS_NUMBER>
110368-35-9

>  <UNII>
C9FL8WH6S4

>  <SYNONYMS>
(E)-4-(3-Oxo-3-(5,6,7,8-tetrahydro-5,5,8,8-tetramethyl-2-naphthalenyl)-1-propenyl)benzoic acid

$$$$
