
 OpenBabel10282417072D

 52 53  0  0  1  0  0  0  0  0999 V2000
    0.7145   -6.1875    0.0000 C   0  0  0  0  0  0  0  0  0  0  0  0
    1.4289   -6.6000    0.0000 C   0  0  0  0  0  0  0  0  0  0  0  0
    2.1434   -6.1875    0.0000 C   0  0  0  0  0  0  0  0  0  0  0  0
    2.8579   -6.6000    0.0000 N   0  0  0  0  0  0  0  0  0  0  0  0
    3.5724   -6.1875    0.0000 C   0  0  0  0  0  0  0  0  0  0  0  0
    4.2868   -6.6000    0.0000 C   0  0  2  0  0  0  0  0  0  0  0  0
    4.2868   -7.4250    0.0000 O   0  0  0  0  0  0  0  0  0  0  0  0
    5.0013   -6.1875    0.0000 C   0  0  0  0  0  0  0  0  0  0  0  0
    5.7158   -6.6000    0.0000 O   0  0  0  0  0  0  0  0  0  0  0  0
    6.4302   -6.1875    0.0000 C   0  0  0  0  0  0  0  0  0  0  0  0
    6.4302   -5.3625    0.0000 C   0  0  0  0  0  0  0  0  0  0  0  0
    7.1447   -4.9500    0.0000 C   0  0  0  0  0  0  0  0  0  0  0  0
    7.8592   -5.3625    0.0000 C   0  0  0  0  0  0  0  0  0  0  0  0
    7.8592   -6.1875    0.0000 C   0  0  0  0  0  0  0  0  0  0  0  0
    7.1447   -6.6000    0.0000 C   0  0  0  0  0  0  0  0  0  0  0  0
    7.1447   -7.4250    0.0000 C   0  0  0  0  0  0  0  0  0  0  0  0
    7.8592   -7.8375    0.0000 O   0  0  0  0  0  0  0  0  0  0  0  0
    6.4302   -7.8375    0.0000 C   0  0  0  0  0  0  0  0  0  0  0  0
    6.4302   -8.6625    0.0000 C   0  0  0  0  0  0  0  0  0  0  0  0
    7.1447   -9.0750    0.0000 C   0  0  0  0  0  0  0  0  0  0  0  0
    7.8592   -8.6625    0.0000 C   0  0  0  0  0  0  0  0  0  0  0  0
    8.5737   -9.0750    0.0000 C   0  0  0  0  0  0  0  0  0  0  0  0
    8.5737   -9.9000    0.0000 C   0  0  0  0  0  0  0  0  0  0  0  0
    7.8592  -10.3125    0.0000 C   0  0  0  0  0  0  0  0  0  0  0  0
    7.1447   -9.9000    0.0000 C   0  0  0  0  0  0  0  0  0  0  0  0
    0.7145   -5.1175    0.0000 H   0  0  0  0  0  0  0  0  0  0  0  0
   -0.2122   -6.7225    0.0000 H   0  0  0  0  0  0  0  0  0  0  0  0
   -0.2121   -5.6525    0.0000 H   0  0  0  0  0  0  0  0  0  0  0  0
    1.4289   -7.6700    0.0000 H   0  0  0  0  0  0  0  0  0  0  0  0
    2.3555   -7.1350    0.0000 H   0  0  0  0  0  0  0  0  0  0  0  0
    2.1434   -5.1175    0.0000 H   0  0  0  0  0  0  0  0  0  0  0  0
    3.0700   -5.6525    0.0000 H   0  0  0  0  0  0  0  0  0  0  0  0
    2.8579   -7.6200    0.0000 H   0  0  0  0  0  0  0  0  0  0  0  0
    3.5724   -5.1175    0.0000 H   0  0  0  0  0  0  0  0  0  0  0  0
    4.4991   -5.6525    0.0000 H   0  0  0  0  0  0  0  0  0  0  0  0
    3.3601   -7.1350    0.0000 H   0  0  0  0  0  0  0  0  0  0  0  0
    3.4468   -7.9100    0.0000 H   0  0  0  0  0  0  0  0  0  0  0  0
    5.0013   -5.1175    0.0000 H   0  0  0  0  0  0  0  0  0  0  0  0
    5.9279   -5.6525    0.0000 H   0  0  0  0  0  0  0  0  0  0  0  0
    5.5365   -4.8465    0.0000 H   0  0  0  0  0  0  0  0  0  0  0  0
    7.1447   -3.9180    0.0000 H   0  0  0  0  0  0  0  0  0  0  0  0
    8.7529   -4.8465    0.0000 H   0  0  0  0  0  0  0  0  0  0  0  0
    8.7529   -6.7035    0.0000 H   0  0  0  0  0  0  0  0  0  0  0  0
    5.5036   -7.3025    0.0000 H   0  0  0  0  0  0  0  0  0  0  0  0
    5.5036   -8.3725    0.0000 H   0  0  0  0  0  0  0  0  0  0  0  0
    5.5036   -9.1975    0.0000 H   0  0  0  0  0  0  0  0  0  0  0  0
    6.4302   -9.7325    0.0000 H   0  0  0  0  0  0  0  0  0  0  0  0
    7.8592   -7.6305    0.0000 H   0  0  0  0  0  0  0  0  0  0  0  0
    9.4674   -8.5590    0.0000 H   0  0  0  0  0  0  0  0  0  0  0  0
    9.4674  -10.4160    0.0000 H   0  0  0  0  0  0  0  0  0  0  0  0
    7.8592  -11.3445    0.0000 H   0  0  0  0  0  0  0  0  0  0  0  0
    6.2510  -10.4160    0.0000 H   0  0  0  0  0  0  0  0  0  0  0  0
  1  2  1  0  0  0  0
  1 26  1  0  0  0  0
  1 27  1  0  0  0  0
  1 28  1  0  0  0  0
  2  3  1  0  0  0  0
  2 29  1  0  0  0  0
  2 30  1  0  0  0  0
  3  4  1  0  0  0  0
  3 31  1  0  0  0  0
  3 32  1  0  0  0  0
  4  5  1  0  0  0  0
  4 33  1  0  0  0  0
  5 34  1  0  0  0  0
  5 35  1  0  0  0  0
  6  5  1  0  0  0  0
  6  7  1  0  0  0  0
  6  8  1  0  0  0  0
  6 36  1  6  0  0  0
  7 37  1  0  0  0  0
  8  9  1  0  0  0  0
  8 38  1  0  0  0  0
  8 39  1  0  0  0  0
  9 10  1  0  0  0  0
 10 11  2  0  0  0  0
 10 15  1  0  0  0  0
 11 12  1  0  0  0  0
 11 40  1  0  0  0  0
 12 13  2  0  0  0  0
 12 41  1  0  0  0  0
 13 14  1  0  0  0  0
 13 42  1  0  0  0  0
 14 15  2  0  0  0  0
 14 43  1  0  0  0  0
 15 16  1  0  0  0  0
 16 17  2  0  0  0  0
 16 18  1  0  0  0  0
 18 19  1  0  0  0  0
 18 44  1  0  0  0  0
 18 45  1  0  0  0  0
 19 20  1  0  0  0  0
 19 46  1  0  0  0  0
 19 47  1  0  0  0  0
 20 21  2  0  0  0  0
 20 25  1  0  0  0  0
 21 22  1  0  0  0  0
 21 48  1  0  0  0  0
 22 23  2  0  0  0  0
 22 49  1  0  0  0  0
 23 24  1  0  0  0  0
 23 50  1  0  0  0  0
 24 25  2  0  0  0  0
 24 51  1  0  0  0  0
 25 52  1  0  0  0  0
M  END
>  <DRUGBANK_ID>
DB15410

>  <COMMON_NAME>
(S)-Propafenone

>  <CAS_NUMBER>
107381-32-8

>  <UNII>
N0BQN4E2YT

>  <SYNONYMS>
(-)-(S)-Propafenone; (-)-Propafenone

$$$$
