XXZ
 OpenBabel10282417072D

 49 52  0  0  0  0  0  0  0  0999 V2000
    3.4378   -1.0794    0.0000 F   0  0  0  0  0  0  0  0  0  0  0  0
    3.2089   -0.2868    0.0000 C   0  0  0  0  0  0  0  0  0  0  0  0
    3.7810    0.3077    0.0000 C   0  0  0  0  0  0  0  0  0  0  0  0
    3.5522    1.1004    0.0000 C   0  0  0  0  0  0  0  0  0  0  0  0
    2.7513    1.2985    0.0000 C   0  0  0  0  0  0  0  0  0  0  0  0
    2.1793    0.7040    0.0000 C   0  0  0  0  0  0  0  0  0  0  0  0
    2.4081   -0.0886    0.0000 C   0  0  0  0  0  0  0  0  0  0  0  0
    1.8361   -0.6831    0.0000 C   0  0  0  0  0  0  0  0  0  0  0  0
    1.0352   -0.4849    0.0000 N   0  0  0  0  0  0  0  0  0  0  0  0
    2.0649   -1.4757    0.0000 N   0  0  0  0  0  0  0  0  0  0  0  0
    1.3784    0.9022    0.0000 N   0  0  0  0  0  0  0  0  0  0  0  0
    0.8064    0.3077    0.0000 C   0  0  0  0  0  0  0  0  0  0  0  0
    0.2344   -0.2868    0.0000 C   0  0  0  0  0  0  0  0  0  0  0  0
   -0.5665   -0.0886    0.0000 C   0  0  0  0  0  0  0  0  0  0  0  0
   -0.7953    0.7040    0.0000 N   0  0  0  0  0  0  0  0  0  0  0  0
   -0.2233    1.2985    0.0000 C   0  0  0  0  0  0  0  0  0  0  0  0
    0.5776    1.1004    0.0000 C   0  0  0  0  0  0  0  0  0  0  0  0
   -1.5961    0.9022    0.0000 C   0  0  0  0  0  0  0  0  0  0  0  0
   -1.8250    1.6948    0.0000 O   0  0  0  0  0  0  0  0  0  0  0  0
   -1.9394   -0.4849    0.0000 C   0  0  0  0  0  0  0  0  0  0  0  0
   -3.6555   -2.2683    0.0000 N   0  0  0  0  0  0  0  0  0  0  0  0
   -3.8843   -1.4757    0.0000 C   0  0  0  0  0  0  0  0  0  0  0  0
   -3.3122   -0.8812    0.0000 C   0  0  0  0  0  0  0  0  0  0  0  0
   -3.5411   -0.0886    0.0000 C   0  0  0  0  0  0  0  0  0  0  0  0
   -2.9690    0.5059    0.0000 C   0  0  0  0  0  0  0  0  0  0  0  0
   -2.5114   -1.0794    0.0000 C   0  0  0  0  0  0  0  0  0  0  0  0
   -2.1682    0.3077    0.0000 C   0  0  0  0  0  0  0  0  0  0  0  0
    4.7828    0.0598    0.0000 H   0  0  0  0  0  0  0  0  0  0  0  0
    4.2677    1.8441    0.0000 H   0  0  0  0  0  0  0  0  0  0  0  0
    2.4650    2.2900    0.0000 H   0  0  0  0  0  0  0  0  0  0  0  0
    1.3823   -2.1851    0.0000 H   0  0  0  0  0  0  0  0  0  0  0  0
    3.0206   -1.7122    0.0000 H   0  0  0  0  0  0  0  0  0  0  0  0
    1.1053    1.8481    0.0000 H   0  0  0  0  0  0  0  0  0  0  0  0
    0.5312   -1.3148    0.0000 H   0  0  0  0  0  0  0  0  0  0  0  0
   -0.5075   -1.0578    0.0000 H   0  0  0  0  0  0  0  0  0  0  0  0
   -1.3084   -0.8596    0.0000 H   0  0  0  0  0  0  0  0  0  0  0  0
   -1.6052    0.1684    0.0000 H   0  0  0  0  0  0  0  0  0  0  0  0
   -0.5201    2.3265    0.0000 H   0  0  0  0  0  0  0  0  0  0  0  0
    0.5186    2.0696    0.0000 H   0  0  0  0  0  0  0  0  0  0  0  0
    1.3195    1.8714    0.0000 H   0  0  0  0  0  0  0  0  0  0  0  0
    0.2808    2.1284    0.0000 H   0  0  0  0  0  0  0  0  0  0  0  0
   -0.9376   -0.7328    0.0000 H   0  0  0  0  0  0  0  0  0  0  0  0
   -4.3627   -3.0033    0.0000 H   0  0  0  0  0  0  0  0  0  0  0  0
   -2.6654   -2.5133    0.0000 H   0  0  0  0  0  0  0  0  0  0  0  0
   -4.9230   -1.2187    0.0000 H   0  0  0  0  0  0  0  0  0  0  0  0
   -4.1810   -0.4477    0.0000 H   0  0  0  0  0  0  0  0  0  0  0  0
   -4.5429    0.1592    0.0000 H   0  0  0  0  0  0  0  0  0  0  0  0
   -3.2552    1.4974    0.0000 H   0  0  0  0  0  0  0  0  0  0  0  0
   -2.2252   -2.0709    0.0000 H   0  0  0  0  0  0  0  0  0  0  0  0
  1  2  1  0  0  0  0
  2  3  1  0  0  0  0
  2  7  2  0  0  0  0
  3  4  2  0  0  0  0
  3 28  1  0  0  0  0
  4  5  1  0  0  0  0
  4 29  1  0  0  0  0
  5  6  2  0  0  0  0
  5 30  1  0  0  0  0
  6  7  1  0  0  0  0
  6 11  1  0  0  0  0
  7  8  1  0  0  0  0
  8  9  2  0  0  0  0
  8 10  1  0  0  0  0
  9 12  1  0  0  0  0
 10 31  1  0  0  0  0
 10 32  1  0  0  0  0
 11 12  1  0  0  0  0
 11 33  1  0  0  0  0
 12 13  1  0  0  0  0
 12 17  1  0  0  0  0
 13 14  1  0  0  0  0
 13 34  1  0  0  0  0
 13 35  1  0  0  0  0
 14 15  1  0  0  0  0
 14 36  1  0  0  0  0
 14 37  1  0  0  0  0
 15 16  1  0  0  0  0
 15 18  1  0  0  0  0
 16 17  1  0  0  0  0
 16 38  1  0  0  0  0
 16 39  1  0  0  0  0
 17 40  1  0  0  0  0
 17 41  1  0  0  0  0
 18 19  2  0  0  0  0
 18 27  1  0  0  0  0
 20 26  1  0  0  0  0
 20 27  2  0  0  0  0
 20 42  1  0  0  0  0
 21 22  1  0  0  0  0
 21 43  1  0  0  0  0
 21 44  1  0  0  0  0
 22 23  1  0  0  0  0
 22 45  1  0  0  0  0
 22 46  1  0  0  0  0
 23 24  1  0  0  0  0
 23 26  2  0  0  0  0
 24 25  2  0  0  0  0
 24 47  1  0  0  0  0
 25 27  1  0  0  0  0
 25 48  1  0  0  0  0
 26 49  1  0  0  0  0
M  END
>  <DRUGBANK_ID>
DB08750

>  <COMMON_NAME>
1-[4-(AMINOMETHYL)BENZOYL]-5'-FLUORO-1'H-SPIRO[PIPERIDINE-4,2'-QUINAZOLIN]-4'-AMINE

$$$$
