
 OpenBabel10282417072D

 60 64  0  0  0  0  0  0  0  0999 V2000
    5.6091    0.6402    0.0000 C   0  0  0  0  0  0  0  0  0  0  0  0
    5.6091   -0.1848    0.0000 C   0  0  0  0  0  0  0  0  0  0  0  0
    6.2765   -0.6697    0.0000 N   0  0  0  0  0  0  0  0  0  0  0  0
    6.0216   -1.4544    0.0000 N   0  0  0  0  0  0  0  0  0  0  0  0
    5.1966   -1.4544    0.0000 N   0  0  0  0  0  0  0  0  0  0  0  0
    4.9416   -0.6697    0.0000 N   0  0  0  0  0  0  0  0  0  0  0  0
    4.1570   -0.4148    0.0000 N   0  0  0  0  0  0  0  0  0  0  0  0
    3.9855    0.3922    0.0000 C   0  0  0  0  0  0  0  0  0  0  0  0
    3.2009    0.6471    0.0000 C   0  0  0  0  0  0  0  0  0  0  0  0
    2.5878    0.0951    0.0000 C   0  0  0  0  0  0  0  0  0  0  0  0
    1.8031    0.3500    0.0000 C   0  0  0  0  0  0  0  0  0  0  0  0
    1.6316    1.1570    0.0000 C   0  0  0  0  0  0  0  0  0  0  0  0
    2.2447    1.7090    0.0000 C   0  0  0  0  0  0  0  0  0  0  0  0
    3.0293    1.4541    0.0000 C   0  0  0  0  0  0  0  0  0  0  0  0
    2.0732    2.5160    0.0000 C   0  0  3  0  0  0  0  0  0  0  0  0
    1.2886    2.7709    0.0000 C   0  0  0  0  0  0  0  0  0  0  0  0
    0.6755    2.2189    0.0000 C   0  0  0  0  0  0  0  0  0  0  0  0
   -0.1092    2.4738    0.0000 C   0  0  0  0  0  0  0  0  0  0  0  0
   -0.2807    3.2808    0.0000 C   0  0  0  0  0  0  0  0  0  0  0  0
    0.3324    3.8328    0.0000 C   0  0  0  0  0  0  0  0  0  0  0  0
    1.1170    3.5779    0.0000 C   0  0  0  0  0  0  0  0  0  0  0  0
   -1.0653    3.5357    0.0000 O   0  0  0  0  0  0  0  0  0  0  0  0
    2.6863    3.0680    0.0000 C   0  0  0  0  0  0  0  0  0  0  0  0
    2.5147    3.8750    0.0000 C   0  0  0  0  0  0  0  0  0  0  0  0
    3.1278    4.4270    0.0000 C   0  0  0  0  0  0  0  0  0  0  0  0
    3.9125    4.1721    0.0000 C   0  0  0  0  0  0  0  0  0  0  0  0
    4.0840    3.3651    0.0000 C   0  0  0  0  0  0  0  0  0  0  0  0
    3.4709    2.8131    0.0000 C   0  0  0  0  0  0  0  0  0  0  0  0
    3.6424    2.0061    0.0000 O   0  0  0  0  0  0  0  0  0  0  0  0
    2.9563    5.2340    0.0000 C   0  0  0  0  0  0  0  0  0  0  0  0
    2.1717    5.4889    0.0000 N   0  0  0  0  0  0  0  0  0  0  0  0
    2.0002    6.2959    0.0000 N   0  0  0  0  0  0  0  0  0  0  0  0
    1.2465    6.6315    0.0000 C   0  0  0  0  0  0  0  0  0  0  0  0
    1.3327    7.4519    0.0000 N   0  0  0  0  0  0  0  0  0  0  0  0
    2.1397    7.6235    0.0000 N   0  0  0  0  0  0  0  0  0  0  0  0
    2.5522    6.9090    0.0000 N   0  0  0  0  0  0  0  0  0  0  0  0
    0.5320    6.2190    0.0000 C   0  0  0  0  0  0  0  0  0  0  0  0
    0.8470    1.4119    0.0000 O   0  0  0  0  0  0  0  0  0  0  0  0
    6.5357    1.1752    0.0000 H   0  0  0  0  0  0  0  0  0  0  0  0
    4.6825    1.1752    0.0000 H   0  0  0  0  0  0  0  0  0  0  0  0
    5.6091    1.7102    0.0000 H   0  0  0  0  0  0  0  0  0  0  0  0
    4.7524    1.0827    0.0000 H   0  0  0  0  0  0  0  0  0  0  0  0
    2.8024   -0.9143    0.0000 H   0  0  0  0  0  0  0  0  0  0  0  0
    1.0362   -0.3406    0.0000 H   0  0  0  0  0  0  0  0  0  0  0  0
    3.7962    2.1447    0.0000 H   0  0  0  0  0  0  0  0  0  0  0  0
    1.2780    1.8000    0.0000 H   0  0  0  0  0  0  0  0  0  0  0  0
    0.8901    1.2095    0.0000 H   0  0  0  0  0  0  0  0  0  0  0  0
   -0.8761    1.7832    0.0000 H   0  0  0  0  0  0  0  0  0  0  0  0
    0.1178    4.8422    0.0000 H   0  0  0  0  0  0  0  0  0  0  0  0
    1.8839    4.2685    0.0000 H   0  0  0  0  0  0  0  0  0  0  0  0
   -1.2601    4.4522    0.0000 H   0  0  0  0  0  0  0  0  0  0  0  0
    1.5332    4.1939    0.0000 H   0  0  0  0  0  0  0  0  0  0  0  0
    4.6794    4.8627    0.0000 H   0  0  0  0  0  0  0  0  0  0  0  0
    5.0655    3.0462    0.0000 H   0  0  0  0  0  0  0  0  0  0  0  0
    2.9460    1.3792    0.0000 H   0  0  0  0  0  0  0  0  0  0  0  0
    3.7232    5.9245    0.0000 H   0  0  0  0  0  0  0  0  0  0  0  0
   -0.3946    6.7540    0.0000 H   0  0  0  0  0  0  0  0  0  0  0  0
    0.5320    5.1490    0.0000 H   0  0  0  0  0  0  0  0  0  0  0  0
   -0.3947    5.6840    0.0000 H   0  0  0  0  0  0  0  0  0  0  0  0
    0.6522    2.3284    0.0000 H   0  0  0  0  0  0  0  0  0  0  0  0
  1  2  1  0  0  0  0
  1 39  1  0  0  0  0
  1 40  1  0  0  0  0
  1 41  1  0  0  0  0
  2  3  2  0  0  0  0
  2  6  1  0  0  0  0
  3  4  1  0  0  0  0
  4  5  2  0  0  0  0
  5  6  1  0  0  0  0
  7  6  1  0  0  0  0
  7  8  2  3  0  0  0
  8  9  1  0  0  0  0
  8 42  1  0  0  0  0
  9 10  2  0  0  0  0
  9 14  1  0  0  0  0
 10 11  1  0  0  0  0
 10 43  1  0  0  0  0
 11 12  2  0  0  0  0
 11 44  1  0  0  0  0
 12 13  1  0  0  0  0
 12 38  1  0  0  0  0
 13 14  2  0  0  0  0
 13 15  1  0  0  0  0
 14 45  1  0  0  0  0
 15 16  1  0  0  0  0
 15 23  1  0  0  0  0
 15 46  1  0  0  0  0
 16 17  2  0  0  0  0
 16 21  1  0  0  0  0
 17 18  1  0  0  0  0
 17 47  1  0  0  0  0
 18 19  2  0  0  0  0
 18 48  1  0  0  0  0
 19 20  1  0  0  0  0
 19 22  1  0  0  0  0
 20 21  2  0  0  0  0
 20 49  1  0  0  0  0
 21 50  1  0  0  0  0
 22 51  1  0  0  0  0
 23 24  2  0  0  0  0
 23 28  1  0  0  0  0
 24 25  1  0  0  0  0
 24 52  1  0  0  0  0
 25 26  2  0  0  0  0
 26 27  1  0  0  0  0
 26 53  1  0  0  0  0
 27 28  2  0  0  0  0
 27 54  1  0  0  0  0
 28 29  1  0  0  0  0
 29 55  1  0  0  0  0
 30 25  1  0  0  0  0
 30 31  2  3  0  0  0
 30 56  1  0  0  0  0
 31 32  1  0  0  0  0
 32 33  1  0  0  0  0
 32 36  1  0  0  0  0
 33 34  2  0  0  0  0
 33 37  1  0  0  0  0
 34 35  1  0  0  0  0
 35 36  2  0  0  0  0
 37 57  1  0  0  0  0
 37 58  1  0  0  0  0
 37 59  1  0  0  0  0
 38 60  1  0  0  0  0
M  END
>  <DRUGBANK_ID>
DB12195

>  <COMMON_NAME>
VP-14637

>  <CAS_NUMBER>
235106-62-4

>  <UNII>
HCW4G0O030

$$$$
