CK7
 OpenBabel10282417072D

 35 37  0  0  0  0  0  0  0  0999 V2000
   -0.1022    3.7826    0.0000 N   0  0  0  0  0  0  0  0  0  0  0  0
   -0.1022    2.9576    0.0000 C   0  0  0  0  0  0  0  0  0  0  0  0
    0.5652    2.4727    0.0000 N   0  0  0  0  0  0  0  0  0  0  0  0
    0.3103    1.6880    0.0000 C   0  0  0  0  0  0  0  0  0  0  0  0
    0.7952    1.0206    0.0000 C   0  0  0  0  0  0  0  0  0  0  0  0
   -0.7697    2.4727    0.0000 S   0  0  0  0  0  0  0  0  0  0  0  0
   -0.5147    1.6880    0.0000 C   0  0  0  0  0  0  0  0  0  0  0  0
   -0.9997    1.0206    0.0000 C   0  0  0  0  0  0  0  0  0  0  0  0
   -0.6641    0.2669    0.0000 N   0  0  0  0  0  0  0  0  0  0  0  0
   -1.8201    1.1068    0.0000 C   0  0  0  0  0  0  0  0  0  0  0  0
   -2.3051    0.4394    0.0000 C   0  0  0  0  0  0  0  0  0  0  0  0
   -1.9695   -0.3143    0.0000 N   0  0  0  0  0  0  0  0  0  0  0  0
   -1.1490   -0.4005    0.0000 C   0  0  0  0  0  0  0  0  0  0  0  0
   -0.8135   -1.1542    0.0000 N   0  0  0  0  0  0  0  0  0  0  0  0
    0.0070   -1.2404    0.0000 C   0  0  0  0  0  0  0  0  0  0  0  0
    0.4919   -0.5730    0.0000 C   0  0  0  0  0  0  0  0  0  0  0  0
    0.3426   -1.9941    0.0000 C   0  0  0  0  0  0  0  0  0  0  0  0
    1.1631   -2.0803    0.0000 C   0  0  0  0  0  0  0  0  0  0  0  0
    1.4986   -2.8340    0.0000 N   0  3  0  0  0  0  0  0  0  0  0  0
    2.3191   -2.9202    0.0000 O   0  5  0  0  0  0  0  0  0  0  0  0
    1.0137   -3.5014    0.0000 O   0  0  0  0  0  0  0  0  0  0  0  0
    1.6480   -1.4129    0.0000 C   0  0  0  0  0  0  0  0  0  0  0  0
    1.3124   -0.6592    0.0000 C   0  0  0  0  0  0  0  0  0  0  0  0
    0.7504    4.2748    0.0000 H   0  0  0  0  0  0  0  0  0  0  0  0
   -0.9548    4.2748    0.0000 H   0  0  0  0  0  0  0  0  0  0  0  0
    0.3600    0.0431    0.0000 H   0  0  0  0  0  0  0  0  0  0  0  0
    1.8593    1.1325    0.0000 H   0  0  0  0  0  0  0  0  0  0  0  0
    1.4241    0.1550    0.0000 H   0  0  0  0  0  0  0  0  0  0  0  0
   -2.2398    2.0496    0.0000 H   0  0  0  0  0  0  0  0  0  0  0  0
   -3.3314    0.5473    0.0000 H   0  0  0  0  0  0  0  0  0  0  0  0
   -1.3922   -1.9507    0.0000 H   0  0  0  0  0  0  0  0  0  0  0  0
    0.0721    0.3698    0.0000 H   0  0  0  0  0  0  0  0  0  0  0  0
   -0.2640   -2.8290    0.0000 H   0  0  0  0  0  0  0  0  0  0  0  0
    2.6743   -1.5208    0.0000 H   0  0  0  0  0  0  0  0  0  0  0  0
    1.9190    0.1757    0.0000 H   0  0  0  0  0  0  0  0  0  0  0  0
  1  2  1  0  0  0  0
  1 24  1  0  0  0  0
  1 25  1  0  0  0  0
  2  3  2  0  0  0  0
  2  6  1  0  0  0  0
  3  4  1  0  0  0  0
  4  5  1  0  0  0  0
  4  7  2  0  0  0  0
  5 26  1  0  0  0  0
  5 27  1  0  0  0  0
  5 28  1  0  0  0  0
  6  7  1  0  0  0  0
  7  8  1  0  0  0  0
  8  9  2  0  0  0  0
  8 10  1  0  0  0  0
  9 13  1  0  0  0  0
 10 11  2  0  0  0  0
 10 29  1  0  0  0  0
 11 12  1  0  0  0  0
 11 30  1  0  0  0  0
 12 13  2  0  0  0  0
 13 14  1  0  0  0  0
 14 15  1  0  0  0  0
 14 31  1  0  0  0  0
 15 16  2  0  0  0  0
 15 17  1  0  0  0  0
 16 23  1  0  0  0  0
 16 32  1  0  0  0  0
 17 18  2  0  0  0  0
 17 33  1  0  0  0  0
 18 19  1  0  0  0  0
 18 22  1  0  0  0  0
 19 20  1  0  0  0  0
 19 21  2  0  0  0  0
 22 23  2  0  0  0  0
 22 34  1  0  0  0  0
 23 35  1  0  0  0  0
M  CHG  2  19   1  20  -1
M  END
>  <DRUGBANK_ID>
DB02833

>  <SECONDARY_ACCESSION_NUMBERS>
EXPT00930

>  <COMMON_NAME>
[4-(2-Amino-4-Methyl-Thiazol-5-Yl)-Pyrimidin-2-Yl]-(3-Nitro-Phenyl)-Amine

>  <UNII>
2L9NBR9W3T

$$$$
