
 OpenBabel10282417072D

 54 56  0  0  0  0  0  0  0  0999 V2000
   -3.5516    0.8360    0.0000 C   0  0  1  0  0  0  0  0  0  0  0  0
   -3.1326    1.5449    0.0000 O   0  0  0  0  0  0  0  0  0  0  0  0
   -3.9561    1.5535    0.0000 H   0  0  0  0  0  0  0  0  0  0  0  0
    0.7267   -0.8468    0.0000 C   0  0  0  0  0  0  0  0  0  0  0  0
    0.7249    0.8038    0.0000 C   0  0  0  0  0  0  0  0  0  0  0  0
    0.0129   -0.4344    0.0000 C   0  0  0  0  0  0  0  0  0  0  0  0
    0.0171    0.3916    0.0000 C   0  0  0  0  0  0  0  0  0  0  0  0
   -0.6921    0.8061    0.0000 C   0  0  0  0  0  0  0  0  0  0  0  0
   -0.7005   -0.8463    0.0000 C   0  0  0  0  0  0  0  0  0  0  0  0
    1.4391    0.3952    0.0000 C   0  0  0  0  0  0  0  0  0  0  0  0
    1.4380   -0.4319    0.0000 C   0  0  0  0  0  0  0  0  0  0  0  0
    2.1523    0.8101    0.0000 O   0  0  0  0  0  0  0  0  0  0  0  0
    2.8686    0.3932    0.0000 C   0  0  0  0  0  0  0  0  0  0  0  0
    3.5812    0.8052    0.0000 C   0  0  0  0  0  0  0  0  0  0  0  0
    4.2946    0.3872    0.0000 O   0  0  0  0  0  0  0  0  0  0  0  0
    5.7174    0.3756    0.0000 C   0  0  0  0  0  0  0  0  0  0  0  0
    5.0072    0.7955    0.0000 C   0  0  0  0  0  0  0  0  0  0  0  0
   -1.4144   -0.4272    0.0000 C   0  0  0  0  0  0  0  0  0  0  0  0
   -1.4091    0.4021    0.0000 C   0  0  2  0  0  0  0  0  0  0  0  0
   -2.1208    0.8191    0.0000 N   0  0  0  0  0  0  0  0  0  0  0  0
   -2.8380    0.4145    0.0000 C   0  0  0  0  0  0  0  0  0  0  0  0
   -4.2869   -0.4014    0.0000 C   0  0  0  0  0  0  0  0  0  0  0  0
   -4.2740    0.4278    0.0000 C   0  0  0  0  0  0  0  0  0  0  0  0
   -4.9849    0.8517    0.0000 C   0  0  0  0  0  0  0  0  0  0  0  0
   -5.7086    0.4473    0.0000 C   0  0  0  0  0  0  0  0  0  0  0  0
   -5.7174   -0.3850    0.0000 C   0  0  0  0  0  0  0  0  0  0  0  0
   -5.0062   -0.8051    0.0000 C   0  0  0  0  0  0  0  0  0  0  0  0
    3.5835    1.6287    0.0000 O   0  0  0  0  0  0  0  0  0  0  0  0
   -1.9953   -0.1766    0.0000 H   0  0  0  0  0  0  0  0  0  0  0  0
   -5.0152   -1.6287    0.0000 Cl  0  0  0  0  0  0  0  0  0  0  0  0
   -2.1627    1.5350    0.0000 H   0  0  0  0  0  0  0  0  0  0  0  0
    0.7288   -1.8788    0.0000 H   0  0  0  0  0  0  0  0  0  0  0  0
    0.7209    1.8358    0.0000 H   0  0  0  0  0  0  0  0  0  0  0  0
   -0.6836    1.8761    0.0000 H   0  0  0  0  0  0  0  0  0  0  0  0
   -1.6138    1.3496    0.0000 H   0  0  0  0  0  0  0  0  0  0  0  0
   -0.7044   -1.9163    0.0000 H   0  0  0  0  0  0  0  0  0  0  0  0
   -1.6300   -1.3763    0.0000 H   0  0  0  0  0  0  0  0  0  0  0  0
    2.3325   -0.9465    0.0000 H   0  0  0  0  0  0  0  0  0  0  0  0
    2.8671   -0.6768    0.0000 H   0  0  0  0  0  0  0  0  0  0  0  0
    3.7950   -0.1422    0.0000 H   0  0  0  0  0  0  0  0  0  0  0  0
    5.7063   -0.6943    0.0000 H   0  0  0  0  0  0  0  0  0  0  0  0
    6.6495    0.9010    0.0000 H   0  0  0  0  0  0  0  0  0  0  0  0
    6.6385   -0.1690    0.0000 H   0  0  0  0  0  0  0  0  0  0  0  0
    5.0145    1.8655    0.0000 H   0  0  0  0  0  0  0  0  0  0  0  0
    5.9384    1.3225    0.0000 H   0  0  0  0  0  0  0  0  0  0  0  0
   -2.3447   -0.9559    0.0000 H   0  0  0  0  0  0  0  0  0  0  0  0
   -1.4219   -1.4972    0.0000 H   0  0  0  0  0  0  0  0  0  0  0  0
   -2.1125    1.8391    0.0000 H   0  0  0  0  0  0  0  0  0  0  0  0
   -2.8486   -0.6554    0.0000 H   0  0  0  0  0  0  0  0  0  0  0  0
   -3.7699   -0.1113    0.0000 H   0  0  0  0  0  0  0  0  0  0  0  0
   -3.4004   -0.9297    0.0000 H   0  0  0  0  0  0  0  0  0  0  0  0
   -4.9704    1.8836    0.0000 H   0  0  0  0  0  0  0  0  0  0  0  0
   -6.5959    0.9743    0.0000 H   0  0  0  0  0  0  0  0  0  0  0  0
   -6.6164   -0.8918    0.0000 H   0  0  0  0  0  0  0  0  0  0  0  0
  1 23  1  0  0  0  0
  1  3  1  6  0  0  0
  2  1  1  0  0  0  0
  2 31  1  0  0  0  0
  4 11  2  0  0  0  0
  4 32  1  0  0  0  0
  5  7  1  0  0  0  0
  5 33  1  0  0  0  0
  6  4  1  0  0  0  0
  6  9  1  0  0  0  0
  6  7  2  0  0  0  0
  7  8  1  0  0  0  0
  8 19  1  0  0  0  0
  8 34  1  0  0  0  0
  8 35  1  0  0  0  0
  9 36  1  0  0  0  0
  9 37  1  0  0  0  0
 10 11  1  0  0  0  0
 10  5  2  0  0  0  0
 10 12  1  0  0  0  0
 11 38  1  0  0  0  0
 13 12  1  0  0  0  0
 13 14  1  0  0  0  0
 13 39  1  0  0  0  0
 13 40  1  0  0  0  0
 14 28  2  0  0  0  0
 15 14  1  0  0  0  0
 15 17  1  0  0  0  0
 16 17  1  0  0  0  0
 16 41  1  0  0  0  0
 16 42  1  0  0  0  0
 16 43  1  0  0  0  0
 17 44  1  0  0  0  0
 17 45  1  0  0  0  0
 18 19  1  0  0  0  0
 18  9  1  0  0  0  0
 18 46  1  0  0  0  0
 18 47  1  0  0  0  0
 19 20  1  0  0  0  0
 19 29  1  1  0  0  0
 20 21  1  0  0  0  0
 20 48  1  0  0  0  0
 21  1  1  0  0  0  0
 21 49  1  0  0  0  0
 21 50  1  0  0  0  0
 22 23  2  0  0  0  0
 22 51  1  0  0  0  0
 23 24  1  0  0  0  0
 24 25  2  0  0  0  0
 24 52  1  0  0  0  0
 25 26  1  0  0  0  0
 25 53  1  0  0  0  0
 26 27  2  0  0  0  0
 26 54  1  0  0  0  0
 27 22  1  0  0  0  0
 27 30  1  0  0  0  0
M  END
>  <DRUGBANK_ID>
DB05395

>  <COMMON_NAME>
Amibegron

>  <CAS_NUMBER>
121524-08-1

>  <UNII>
PDQ3ME68U3

>  <SYNONYMS>
Amibegron

$$$$
