
 OpenBabel10282417072D

 49 51  0  0  0  0  0  0  0  0999 V2000
    0.5157   -0.1855    0.0000 C   0  0  0  0  0  0  0  0  0  0  0  0
    0.5157    0.6394    0.0000 C   0  0  0  0  0  0  0  0  0  0  0  0
    1.2171    1.0520    0.0000 C   0  0  0  0  0  0  0  0  0  0  0  0
    1.9597    0.6394    0.0000 C   0  0  0  0  0  0  0  0  0  0  0  0
    1.9597   -0.1855    0.0000 C   0  0  0  0  0  0  0  0  0  0  0  0
    1.2171   -0.5981    0.0000 C   0  0  0  0  0  0  0  0  0  0  0  0
    2.6612    1.0520    0.0000 C   0  0  0  0  0  0  0  0  0  0  0  0
    3.3626    0.6394    0.0000 C   0  0  0  0  0  0  0  0  0  0  0  0
    4.0639    1.0520    0.0000 C   0  0  0  0  0  0  0  0  0  0  0  0
    4.7653    0.6394    0.0000 N   0  0  0  0  0  0  0  0  0  0  0  0
    4.0639    1.9185    0.0000 O   0  0  0  0  0  0  0  0  0  0  0  0
    5.4667    1.0520    0.0000 O   0  0  0  0  0  0  0  0  0  0  0  0
   -0.2268   -0.5981    0.0000 C   0  0  0  0  0  0  0  0  0  0  0  0
   -0.9283   -0.1855    0.0000 N   0  0  0  0  0  0  0  0  0  0  0  0
   -1.6296   -0.5981    0.0000 C   0  0  0  0  0  0  0  0  0  0  0  0
   -2.3310   -0.1855    0.0000 C   0  0  0  0  0  0  0  0  0  0  0  0
   -3.0323   -0.5981    0.0000 C   0  0  0  0  0  0  0  0  0  0  0  0
   -3.0323   -1.4233    0.0000 C   0  0  0  0  0  0  0  0  0  0  0  0
   -3.8164   -1.6709    0.0000 N   0  0  0  0  0  0  0  0  0  0  0  0
   -4.3115   -1.0108    0.0000 C   0  0  0  0  0  0  0  0  0  0  0  0
   -3.8164   -0.3505    0.0000 C   0  0  0  0  0  0  0  0  0  0  0  0
   -5.1367   -0.9283    0.0000 C   0  0  0  0  0  0  0  0  0  0  0  0
   -5.4667   -0.1443    0.0000 C   0  0  0  0  0  0  0  0  0  0  0  0
   -4.9717    0.5157    0.0000 C   0  0  0  0  0  0  0  0  0  0  0  0
   -4.1465    0.4331    0.0000 C   0  0  0  0  0  0  0  0  0  0  0  0
   -2.3722   -1.9185    0.0000 C   0  0  0  0  0  0  0  0  0  0  0  0
   -0.3801    1.1518    0.0000 H   0  0  0  0  0  0  0  0  0  0  0  0
    1.2044    2.0839    0.0000 H   0  0  0  0  0  0  0  0  0  0  0  0
    2.8492   -0.7088    0.0000 H   0  0  0  0  0  0  0  0  0  0  0  0
    1.2044   -1.6300    0.0000 H   0  0  0  0  0  0  0  0  0  0  0  0
    2.6612    2.0840    0.0000 H   0  0  0  0  0  0  0  0  0  0  0  0
    3.3626   -0.3926    0.0000 H   0  0  0  0  0  0  0  0  0  0  0  0
    4.7653   -0.3451    0.0000 H   0  0  0  0  0  0  0  0  0  0  0  0
    6.3107    0.5739    0.0000 H   0  0  0  0  0  0  0  0  0  0  0  0
   -0.2399   -1.6680    0.0000 H   0  0  0  0  0  0  0  0  0  0  0  0
   -1.1588   -1.1237    0.0000 H   0  0  0  0  0  0  0  0  0  0  0  0
   -0.9284    0.8345    0.0000 H   0  0  0  0  0  0  0  0  0  0  0  0
   -1.6296   -1.6681    0.0000 H   0  0  0  0  0  0  0  0  0  0  0  0
   -2.5584   -1.1293    0.0000 H   0  0  0  0  0  0  0  0  0  0  0  0
   -2.3310    0.8845    0.0000 H   0  0  0  0  0  0  0  0  0  0  0  0
   -3.2598    0.3457    0.0000 H   0  0  0  0  0  0  0  0  0  0  0  0
   -4.1174   -2.6083    0.0000 H   0  0  0  0  0  0  0  0  0  0  0  0
   -5.7497   -1.7585    0.0000 H   0  0  0  0  0  0  0  0  0  0  0  0
   -6.4910   -0.0181    0.0000 H   0  0  0  0  0  0  0  0  0  0  0  0
   -5.3866    1.4606    0.0000 H   0  0  0  0  0  0  0  0  0  0  0  0
   -3.5336    1.2634    0.0000 H   0  0  0  0  0  0  0  0  0  0  0  0
   -2.5003   -2.9808    0.0000 H   0  0  0  0  0  0  0  0  0  0  0  0
   -1.3882   -1.4983    0.0000 H   0  0  0  0  0  0  0  0  0  0  0  0
   -1.5163   -2.5606    0.0000 H   0  0  0  0  0  0  0  0  0  0  0  0
  1  2  2  0  0  0  0
  1  6  1  0  0  0  0
  1 13  1  0  0  0  0
  2  3  1  0  0  0  0
  2 27  1  0  0  0  0
  3  4  2  0  0  0  0
  3 28  1  0  0  0  0
  4  5  1  0  0  0  0
  4  7  1  0  0  0  0
  5  6  2  0  0  0  0
  5 29  1  0  0  0  0
  6 30  1  0  0  0  0
  7  8  2  0  0  0  0
  7 31  1  0  0  0  0
  8  9  1  0  0  0  0
  8 32  1  0  0  0  0
  9 10  1  0  0  0  0
  9 11  2  0  0  0  0
 10 12  1  0  0  0  0
 10 33  1  0  0  0  0
 12 34  1  0  0  0  0
 13 14  1  0  0  0  0
 13 35  1  0  0  0  0
 13 36  1  0  0  0  0
 14 15  1  0  0  0  0
 14 37  1  0  0  0  0
 15 16  1  0  0  0  0
 15 38  1  0  0  0  0
 15 39  1  0  0  0  0
 16 17  1  0  0  0  0
 16 40  1  0  0  0  0
 16 41  1  0  0  0  0
 17 18  2  0  0  0  0
 17 21  1  0  0  0  0
 18 19  1  0  0  0  0
 18 26  1  0  0  0  0
 19 20  1  0  0  0  0
 19 42  1  0  0  0  0
 20 21  1  0  0  0  0
 20 22  2  0  0  0  0
 21 25  2  0  0  0  0
 22 23  1  0  0  0  0
 22 43  1  0  0  0  0
 23 24  2  0  0  0  0
 23 44  1  0  0  0  0
 24 25  1  0  0  0  0
 24 45  1  0  0  0  0
 25 46  1  0  0  0  0
 26 47  1  0  0  0  0
 26 48  1  0  0  0  0
 26 49  1  0  0  0  0
M  END
>  <DRUGBANK_ID>
DB06603

>  <COMMON_NAME>
Panobinostat

>  <CAS_NUMBER>
404950-80-7

>  <UNII>
9647FM7Y3Z

>  <SYNONYMS>
(2E)-N-hydroxy-3-[4-({[2-(2-methyl-1H-indol-3-yl)ethyl]amino}methyl)phenyl]acrylamide; 2-PROPENAMIDE, N-HYDROXY-3-(4-(((2-(2-METHYL-1H-INDOL-3-YL)ETHYL)AMINO)METHYL)PHENYL)-, (2E)-; hydroxypropyl-B-cyclodextrin-panobinostat complex; Panobinostat; Panobinostatum

$$$$
