
 OpenBabel10282417072D

 18 17  0  0  0  0  0  0  0  0999 V2000
    0.3610   -0.4091    0.0000 C   0  0  0  0  0  0  0  0  0  0  0  0
    0.3610   -1.2400    0.0000 C   0  0  0  0  0  0  0  0  0  0  0  0
    0.3610    0.4174    0.0000 C   0  0  3  0  0  0  0  0  0  0  0  0
   -0.3528    0.8309    0.0000 C   0  0  0  0  0  0  0  0  0  0  0  0
   -1.0750    0.4174    0.0000 C   0  0  0  0  0  0  0  0  0  0  0  0
   -1.7889    0.8309    0.0000 Cl  0  0  0  0  0  0  0  0  0  0  0  0
    0.3610    1.2400    0.0000 O   0  0  0  0  0  0  0  0  0  0  0  0
    1.0750    0.8309    0.0000 C   0  0  0  0  0  0  0  0  0  0  0  0
    1.7889    0.4174    0.0000 C   0  0  0  0  0  0  0  0  0  0  0  0
    0.3610   -2.2340    0.0000 H   0  0  0  0  0  0  0  0  0  0  0  0
   -0.3502    1.8629    0.0000 H   0  0  0  0  0  0  0  0  0  0  0  0
   -1.0776   -0.6146    0.0000 H   0  0  0  0  0  0  0  0  0  0  0  0
    1.2010    1.7250    0.0000 H   0  0  0  0  0  0  0  0  0  0  0  0
    1.0750    1.9009    0.0000 H   0  0  0  0  0  0  0  0  0  0  0  0
    2.0020    1.3652    0.0000 H   0  0  0  0  0  0  0  0  0  0  0  0
    1.7874   -0.6526    0.0000 H   0  0  0  0  0  0  0  0  0  0  0  0
    2.7163    0.9511    0.0000 H   0  0  0  0  0  0  0  0  0  0  0  0
    2.7148   -0.1189    0.0000 H   0  0  0  0  0  0  0  0  0  0  0  0
  2  1  3  0  0  0  0
  2 10  1  0  0  0  0
  3  1  1  0  0  0  0
  4  3  1  0  0  0  0
  4 11  1  0  0  0  0
  5  4  2  0  0  0  0
  5 12  1  0  0  0  0
  6  5  1  0  0  0  0
  7  3  1  0  0  0  0
  7 13  1  0  0  0  0
  8  3  1  0  0  0  0
  8 14  1  0  0  0  0
  8 15  1  0  0  0  0
  9  8  1  0  0  0  0
  9 16  1  0  0  0  0
  9 17  1  0  0  0  0
  9 18  1  0  0  0  0
M  END
>  <DRUGBANK_ID>
DB00189

>  <SECONDARY_ACCESSION_NUMBERS>
APRD00958

>  <COMMON_NAME>
Ethchlorvynol

>  <CAS_NUMBER>
113-18-8

>  <UNII>
6EIM3851UZ

>  <SYNONYMS>
1-chloro-3-ethyl-1-penten-4-yn-3-ol; 1-Chloro-3-ethyl-pent-1-en-4-yn-3-ol; 3-(beta-chlorovinyl)-1-pentyn-3-ol; 3-(β-chlorovinyl)-1-pentyn-3-ol; etclorvinol; Ethchlorvynol; ethyl β-chlorovinyl ethynyl carbinol; β-chlorovinyl ethyl ethynyl carbinol

$$$$
