
 OpenBabel10282417072D

 16 15  0  0  0  0  0  0  0  0999 V2000
   -0.1914    0.7146    0.0000 C   0  0  0  0  0  0  0  0  0  0  0  0
    0.5230    1.1271    0.0000 C   0  0  0  0  0  0  0  0  0  0  0  0
    1.2376    0.7146    0.0000 O   0  0  0  0  0  0  0  0  0  0  0  0
    1.9521    1.1271    0.0000 C   0  0  0  0  0  0  0  0  0  0  0  0
    1.9521    1.9521    0.0000 O   0  0  0  0  0  0  0  0  0  0  0  0
    2.6666    0.7146    0.0000 N   0  0  0  0  0  0  0  0  0  0  0  0
    3.3812    1.1271    0.0000 C   0  0  0  0  0  0  0  0  0  0  0  0
   -1.1181    1.2496    0.0000 H   0  0  0  0  0  0  0  0  0  0  0  0
   -0.1914   -0.3554    0.0000 H   0  0  0  0  0  0  0  0  0  0  0  0
   -1.1180    0.1796    0.0000 H   0  0  0  0  0  0  0  0  0  0  0  0
    0.5229    2.1971    0.0000 H   0  0  0  0  0  0  0  0  0  0  0  0
    1.4496    1.6622    0.0000 H   0  0  0  0  0  0  0  0  0  0  0  0
    2.6666   -0.2699    0.0000 H   0  0  0  0  0  0  0  0  0  0  0  0
    4.3078    0.5920    0.0000 H   0  0  0  0  0  0  0  0  0  0  0  0
    3.3813    2.1971    0.0000 H   0  0  0  0  0  0  0  0  0  0  0  0
    4.3079    1.6620    0.0000 H   0  0  0  0  0  0  0  0  0  0  0  0
  1  2  1  0  0  0  0
  1  8  1  0  0  0  0
  1  9  1  0  0  0  0
  1 10  1  0  0  0  0
  2  3  1  0  0  0  0
  2 11  1  0  0  0  0
  2 12  1  0  0  0  0
  3  4  1  0  0  0  0
  4  5  2  0  0  0  0
  4  6  1  0  0  0  0
  6  7  1  0  0  0  0
  6 13  1  0  0  0  0
  7 14  1  0  0  0  0
  7 15  1  0  0  0  0
  7 16  1  0  0  0  0
M  END
>  <DRUGBANK_ID>
DB02856

>  <SECONDARY_ACCESSION_NUMBERS>
EXPT01337

>  <COMMON_NAME>
Ethyl N-methylcarbamate

>  <CAS_NUMBER>
105-40-8

>  <UNII>
1W34GCF5CS

>  <SYNONYMS>
Ethyl methylcarbamate; Ethyl N-methylcarbamate; Ethyl-N-methylcarbamate; N-Methyl urethan; N-Methylurethan; N-Methylurethane

$$$$
