
 OpenBabel10282417072D

 30 30  0  0  0  0  0  0  0  0999 V2000
    2.5875    2.3582    0.0000 C   0  0  0  0  0  0  0  0  0  0  0  0
    2.0572    1.7262    0.0000 C   0  0  3  0  0  0  0  0  0  0  0  0
    1.2448    1.8695    0.0000 C   0  0  0  0  0  0  0  0  0  0  0  0
    0.7145    1.2375    0.0000 C   0  0  0  0  0  0  0  0  0  0  0  0
    1.4289    0.8250    0.0000 C   0  0  0  0  0  0  0  0  0  0  0  0
    2.2359    0.9965    0.0000 O   0  0  0  0  0  0  0  0  0  0  0  0
    1.4289   -0.0000    0.0000 N   0  0  0  0  0  0  0  0  0  0  0  0
    0.7145   -0.4125    0.0000 C   0  0  0  0  0  0  0  0  0  0  0  0
    0.7145   -1.2375    0.0000 O   0  0  0  0  0  0  0  0  0  0  0  0
    0.0000    0.0000    0.0000 N   0  0  0  0  0  0  0  0  0  0  0  0
    0.0000    0.8250    0.0000 C   0  0  0  0  0  0  0  0  0  0  0  0
   -0.7145    1.2375    0.0000 O   0  0  0  0  0  0  0  0  0  0  0  0
    0.1842    1.8695    0.0000 C   0  0  0  0  0  0  0  0  0  0  0  0
    0.4663    2.6447    0.0000 C   0  0  0  0  0  0  0  0  0  0  0  0
   -0.0640    3.2767    0.0000 C   0  0  0  0  0  0  0  0  0  0  0  0
    2.5652    1.0761    0.0000 O   0  0  0  0  0  0  0  0  0  0  0  0
    3.6412    2.1724    0.0000 H   0  0  0  0  0  0  0  0  0  0  0  0
    2.2215    3.3637    0.0000 H   0  0  0  0  0  0  0  0  0  0  0  0
    3.2753    3.1779    0.0000 H   0  0  0  0  0  0  0  0  0  0  0  0
    1.6913    2.7317    0.0000 H   0  0  0  0  0  0  0  0  0  0  0  0
    0.8789    2.8750    0.0000 H   0  0  0  0  0  0  0  0  0  0  0  0
    0.1911    2.0553    0.0000 H   0  0  0  0  0  0  0  0  0  0  0  0
    2.2815   -0.4922    0.0000 H   0  0  0  0  0  0  0  0  0  0  0  0
   -0.8526   -0.4923    0.0000 H   0  0  0  0  0  0  0  0  0  0  0  0
   -0.8695    1.6837    0.0000 H   0  0  0  0  0  0  0  0  0  0  0  0
   -0.5036    2.6891    0.0000 H   0  0  0  0  0  0  0  0  0  0  0  0
    1.4826    2.8239    0.0000 H   0  0  0  0  0  0  0  0  0  0  0  0
    0.2890    4.2465    0.0000 H   0  0  0  0  0  0  0  0  0  0  0  0
   -1.0803    3.0975    0.0000 H   0  0  0  0  0  0  0  0  0  0  0  0
    2.2019    0.1767    0.0000 H   0  0  0  0  0  0  0  0  0  0  0  0
  1  2  1  0  0  0  0
  1 17  1  0  0  0  0
  1 18  1  0  0  0  0
  1 19  1  0  0  0  0
  2  3  1  0  0  0  0
  2 16  1  0  0  0  0
  2 20  1  0  0  0  0
  3  4  1  0  0  0  0
  3 21  1  0  0  0  0
  3 22  1  0  0  0  0
  4  5  1  0  0  0  0
  4 11  1  0  0  0  0
  4 13  1  0  0  0  0
  5  6  2  0  0  0  0
  5  7  1  0  0  0  0
  7  8  1  0  0  0  0
  7 23  1  0  0  0  0
  8  9  2  0  0  0  0
  8 10  1  0  0  0  0
 10 11  1  0  0  0  0
 10 24  1  0  0  0  0
 11 12  2  0  0  0  0
 13 14  1  0  0  0  0
 13 25  1  0  0  0  0
 13 26  1  0  0  0  0
 14 15  2  0  0  0  0
 14 27  1  0  0  0  0
 15 28  1  0  0  0  0
 15 29  1  0  0  0  0
 16 30  1  0  0  0  0
M  END
>  <DRUGBANK_ID>
DB13253

>  <COMMON_NAME>
Proxibarbal

>  <CAS_NUMBER>
2537-29-3

>  <UNII>
F97OMS297F

>  <SYNONYMS>
Proxibarbal

$$$$
