OES
 OpenBabel10282417072D

 35 34  0  0  0  0  0  0  0  0999 V2000
   -3.5725   -0.1879    0.0000 C   0  0  0  0  0  0  0  0  0  0  0  0
   -2.8580    0.2246    0.0000 C   0  0  0  0  0  0  0  0  0  0  0  0
   -2.1436   -0.1879    0.0000 C   0  0  0  0  0  0  0  0  0  0  0  0
   -1.4291    0.2246    0.0000 C   0  0  0  0  0  0  0  0  0  0  0  0
   -0.7146   -0.1879    0.0000 C   0  0  0  0  0  0  0  0  0  0  0  0
   -0.0001    0.2246    0.0000 C   0  0  0  0  0  0  0  0  0  0  0  0
    0.7143   -0.1879    0.0000 C   0  0  0  0  0  0  0  0  0  0  0  0
    1.4288    0.2246    0.0000 C   0  0  0  0  0  0  0  0  0  0  0  0
    2.1433   -0.1879    0.0000 S   0  0  2  0  0  0  0  0  0  0  0  0
    2.8577    0.2246    0.0000 C   0  0  0  0  0  0  0  0  0  0  0  0
    3.5722   -0.1879    0.0000 C   0  0  0  0  0  0  0  0  0  0  0  0
    2.1433   -1.0129    0.0000 O   0  0  0  0  0  0  0  0  0  0  0  0
    4.2867    0.2246    0.0000 O   0  0  0  0  0  0  0  0  0  0  0  0
   -4.4991    0.3471    0.0000 H   0  0  0  0  0  0  0  0  0  0  0  0
   -3.5725   -1.2579    0.0000 H   0  0  0  0  0  0  0  0  0  0  0  0
   -4.4992   -0.7229    0.0000 H   0  0  0  0  0  0  0  0  0  0  0  0
   -2.8580    1.2946    0.0000 H   0  0  0  0  0  0  0  0  0  0  0  0
   -1.9313    0.7596    0.0000 H   0  0  0  0  0  0  0  0  0  0  0  0
   -2.1436   -1.2579    0.0000 H   0  0  0  0  0  0  0  0  0  0  0  0
   -1.2170   -0.7229    0.0000 H   0  0  0  0  0  0  0  0  0  0  0  0
   -1.4291    1.2946    0.0000 H   0  0  0  0  0  0  0  0  0  0  0  0
   -0.5025    0.7596    0.0000 H   0  0  0  0  0  0  0  0  0  0  0  0
   -0.7146   -1.2579    0.0000 H   0  0  0  0  0  0  0  0  0  0  0  0
    0.2120   -0.7229    0.0000 H   0  0  0  0  0  0  0  0  0  0  0  0
   -0.0001    1.2946    0.0000 H   0  0  0  0  0  0  0  0  0  0  0  0
    0.9266    0.7596    0.0000 H   0  0  0  0  0  0  0  0  0  0  0  0
    0.7143   -1.2579    0.0000 H   0  0  0  0  0  0  0  0  0  0  0  0
    1.6409   -0.7229    0.0000 H   0  0  0  0  0  0  0  0  0  0  0  0
    1.4288    1.2946    0.0000 H   0  0  0  0  0  0  0  0  0  0  0  0
    2.3554    0.7596    0.0000 H   0  0  0  0  0  0  0  0  0  0  0  0
    2.8577    1.2946    0.0000 H   0  0  0  0  0  0  0  0  0  0  0  0
    3.7843    0.7596    0.0000 H   0  0  0  0  0  0  0  0  0  0  0  0
    3.5722   -1.2579    0.0000 H   0  0  0  0  0  0  0  0  0  0  0  0
    4.4988   -0.7229    0.0000 H   0  0  0  0  0  0  0  0  0  0  0  0
    5.1267   -0.2604    0.0000 H   0  0  0  0  0  0  0  0  0  0  0  0
  1  2  1  0  0  0  0
  1 14  1  0  0  0  0
  1 15  1  0  0  0  0
  1 16  1  0  0  0  0
  2  3  1  0  0  0  0
  2 17  1  0  0  0  0
  2 18  1  0  0  0  0
  3  4  1  0  0  0  0
  3 19  1  0  0  0  0
  3 20  1  0  0  0  0
  4  5  1  0  0  0  0
  4 21  1  0  0  0  0
  4 22  1  0  0  0  0
  5  6  1  0  0  0  0
  5 23  1  0  0  0  0
  5 24  1  0  0  0  0
  6  7  1  0  0  0  0
  6 25  1  0  0  0  0
  6 26  1  0  0  0  0
  7  8  1  0  0  0  0
  7 27  1  0  0  0  0
  7 28  1  0  0  0  0
  8  9  1  0  0  0  0
  8 29  1  0  0  0  0
  8 30  1  0  0  0  0
  9 10  1  0  0  0  0
  9 12  2  6  0  0  0
 10 11  1  0  0  0  0
 10 31  1  0  0  0  0
 10 32  1  0  0  0  0
 11 13  1  0  0  0  0
 11 33  1  0  0  0  0
 11 34  1  0  0  0  0
 13 35  1  0  0  0  0
M  END
>  <DRUGBANK_ID>
DB02415

>  <SECONDARY_ACCESSION_NUMBERS>
EXPT02420

>  <COMMON_NAME>
N-Octyl-2-Hydroxyethyl Sulfoxide

$$$$
