
 OpenBabel10282417072D

  9  8  0  0  0  0  0  0  0  0999 V2000
    0.1105   -1.2375    0.0000 O   0  0  0  0  0  0  0  0  0  0  0  0
    0.8250   -0.8250    0.0000 C   0  0  0  0  0  0  0  0  0  0  0  0
    0.8250    0.0000    0.0000 C   0  0  0  0  0  0  0  0  0  0  0  0
    0.8250    0.8250    0.0000 F   0  0  0  0  0  0  0  0  0  0  0  0
    1.6500    0.0000    0.0000 F   0  0  0  0  0  0  0  0  0  0  0  0
    0.0000    0.0000    0.0000 F   0  0  0  0  0  0  0  0  0  0  0  0
   -0.7295   -0.7525    0.0000 H   0  0  0  0  0  0  0  0  0  0  0  0
    1.7516   -1.3600    0.0000 H   0  0  0  0  0  0  0  0  0  0  0  0
    1.7516   -0.2900    0.0000 H   0  0  0  0  0  0  0  0  0  0  0  0
  1  2  1  0  0  0  0
  1  7  1  0  0  0  0
  2  3  1  0  0  0  0
  2  8  1  0  0  0  0
  2  9  1  0  0  0  0
  3  4  1  0  0  0  0
  3  5  1  0  0  0  0
  3  6  1  0  0  0  0
M  END
>  <DRUGBANK_ID>
DB03226

>  <SECONDARY_ACCESSION_NUMBERS>
EXPT01368

>  <COMMON_NAME>
Trifluoroethanol

>  <CAS_NUMBER>
75-89-8

>  <UNII>
8T8I76KYF1

>  <SYNONYMS>
2,2,2-trifluoroethanol; 2,2,2-trifluoroethyl alcohol

$$$$
