
 OpenBabel10282417072D

 82 86  0  0  1  0  0  0  0  0999 V2000
   -6.4302   -3.7125    0.0000 C   0  0  0  0  0  0  0  0  0  0  0  0
   -6.4302   -2.8875    0.0000 C   0  0  1  0  0  0  0  0  0  0  0  0
   -7.1447   -2.4750    0.0000 C   0  0  1  0  0  0  0  0  0  0  0  0
   -7.1447   -1.6500    0.0000 C   0  0  2  0  0  0  0  0  0  0  0  0
   -6.4302   -1.2375    0.0000 C   0  0  2  0  0  0  0  0  0  0  0  0
   -5.7158   -1.6500    0.0000 C   0  0  1  0  0  0  0  0  0  0  0  0
   -5.7158   -2.4750    0.0000 O   0  0  0  0  0  0  0  0  0  0  0  0
   -5.0013   -1.2375    0.0000 O   0  0  0  0  0  0  0  0  0  0  0  0
   -4.2868   -1.6500    0.0000 C   0  0  0  0  0  0  0  0  0  0  0  0
   -3.5724   -1.2375    0.0000 C   0  0  2  0  0  0  0  0  0  0  0  0
   -3.5724   -0.4125    0.0000 C   0  0  2  0  0  0  0  0  0  0  0  0
   -2.8579    0.0000    0.0000 C   0  0  1  0  0  0  0  0  0  0  0  0
   -2.1434   -0.4125    0.0000 C   0  0  2  0  0  0  0  0  0  0  0  0
   -2.1434   -1.2375    0.0000 C   0  0  1  0  0  0  0  0  0  0  0  0
   -2.8579   -1.6500    0.0000 O   0  0  0  0  0  0  0  0  0  0  0  0
   -1.4289   -1.6500    0.0000 O   0  0  0  0  0  0  0  0  0  0  0  0
   -0.7145   -1.2375    0.0000 C   0  0  0  0  0  0  0  0  0  0  0  0
    0.0000   -1.6500    0.0000 C   0  0  0  0  0  0  0  0  0  0  0  0
    0.7145   -1.2375    0.0000 C   0  0  0  0  0  0  0  0  0  0  0  0
    0.7145   -0.4125    0.0000 C   0  0  0  0  0  0  0  0  0  0  0  0
    1.4289   -0.0000    0.0000 C   0  0  0  0  0  0  0  0  0  0  0  0
    1.4289    0.8250    0.0000 O   0  0  0  0  0  0  0  0  0  0  0  0
    2.1434   -0.4125    0.0000 C   0  0  0  0  0  0  0  0  0  0  0  0
    2.1434   -1.2375    0.0000 C   0  0  0  0  0  0  0  0  0  0  0  0
    1.4289   -1.6500    0.0000 O   0  0  0  0  0  0  0  0  0  0  0  0
    2.8579   -1.6500    0.0000 C   0  0  0  0  0  0  0  0  0  0  0  0
    3.5724   -1.2375    0.0000 C   0  0  0  0  0  0  0  0  0  0  0  0
    4.2868   -1.6500    0.0000 C   0  0  0  0  0  0  0  0  0  0  0  0
    4.2868   -2.4750    0.0000 C   0  0  0  0  0  0  0  0  0  0  0  0
    3.5724   -2.8875    0.0000 C   0  0  0  0  0  0  0  0  0  0  0  0
    2.8579   -2.4750    0.0000 C   0  0  0  0  0  0  0  0  0  0  0  0
    3.5724   -3.7125    0.0000 O   0  0  0  0  0  0  0  0  0  0  0  0
    5.0013   -2.8875    0.0000 O   0  0  0  0  0  0  0  0  0  0  0  0
    5.0013   -3.7125    0.0000 C   0  0  0  0  0  0  0  0  0  0  0  0
    0.0000   -0.0000    0.0000 C   0  0  0  0  0  0  0  0  0  0  0  0
   -0.7145   -0.4125    0.0000 C   0  0  0  0  0  0  0  0  0  0  0  0
    0.0000    0.8250    0.0000 O   0  0  0  0  0  0  0  0  0  0  0  0
   -0.7145    1.2375    0.0000 C   0  0  0  0  0  0  0  0  0  0  0  0
   -1.4289    0.8250    0.0000 C   0  0  0  0  0  0  0  0  0  0  0  0
   -2.1434    1.2375    0.0000 O   0  0  0  0  0  0  0  0  0  0  0  0
   -1.4289   -0.0000    0.0000 O   0  0  0  0  0  0  0  0  0  0  0  0
   -2.8579    0.8250    0.0000 O   0  0  0  0  0  0  0  0  0  0  0  0
   -4.2868    0.0000    0.0000 O   0  0  0  0  0  0  0  0  0  0  0  0
   -6.4302   -0.4125    0.0000 O   0  0  0  0  0  0  0  0  0  0  0  0
   -7.8592   -1.2375    0.0000 O   0  0  0  0  0  0  0  0  0  0  0  0
   -7.8592   -2.8875    0.0000 O   0  0  0  0  0  0  0  0  0  0  0  0
   -7.3568   -4.2475    0.0000 H   0  0  0  0  0  0  0  0  0  0  0  0
   -5.5036   -4.2475    0.0000 H   0  0  0  0  0  0  0  0  0  0  0  0
   -6.4302   -4.7825    0.0000 H   0  0  0  0  0  0  0  0  0  0  0  0
   -7.3568   -3.4225    0.0000 H   0  0  0  0  0  0  0  0  0  0  0  0
   -7.1447   -3.5450    0.0000 H   0  0  0  0  0  0  0  0  0  0  0  0
   -8.0713   -2.1850    0.0000 H   0  0  0  0  0  0  0  0  0  0  0  0
   -7.3568   -0.7025    0.0000 H   0  0  0  0  0  0  0  0  0  0  0  0
   -5.7158   -0.5800    0.0000 H   0  0  0  0  0  0  0  0  0  0  0  0
   -4.2868   -2.7200    0.0000 H   0  0  0  0  0  0  0  0  0  0  0  0
   -3.3601   -2.1850    0.0000 H   0  0  0  0  0  0  0  0  0  0  0  0
   -4.4991   -0.7025    0.0000 H   0  0  0  0  0  0  0  0  0  0  0  0
   -4.4991   -0.9475    0.0000 H   0  0  0  0  0  0  0  0  0  0  0  0
   -3.7845    0.5350    0.0000 H   0  0  0  0  0  0  0  0  0  0  0  0
   -2.1434    0.6575    0.0000 H   0  0  0  0  0  0  0  0  0  0  0  0
   -1.2168   -0.7025    0.0000 H   0  0  0  0  0  0  0  0  0  0  0  0
    0.0000   -2.6820    0.0000 H   0  0  0  0  0  0  0  0  0  0  0  0
    3.0371    0.1035    0.0000 H   0  0  0  0  0  0  0  0  0  0  0  0
    3.5724   -0.2055    0.0000 H   0  0  0  0  0  0  0  0  0  0  0  0
    5.1805   -1.1340    0.0000 H   0  0  0  0  0  0  0  0  0  0  0  0
    1.9642   -2.9910    0.0000 H   0  0  0  0  0  0  0  0  0  0  0  0
    2.7609   -4.1810    0.0000 H   0  0  0  0  0  0  0  0  0  0  0  0
    4.0747   -4.2475    0.0000 H   0  0  0  0  0  0  0  0  0  0  0  0
    5.9279   -4.2475    0.0000 H   0  0  0  0  0  0  0  0  0  0  0  0
    5.0013   -4.7825    0.0000 H   0  0  0  0  0  0  0  0  0  0  0  0
   -1.6082    0.1035    0.0000 H   0  0  0  0  0  0  0  0  0  0  0  0
   -0.7145    2.3075    0.0000 H   0  0  0  0  0  0  0  0  0  0  0  0
   -1.6412    1.7725    0.0000 H   0  0  0  0  0  0  0  0  0  0  0  0
   -1.4289   -0.2450    0.0000 H   0  0  0  0  0  0  0  0  0  0  0  0
   -2.3555    0.2900    0.0000 H   0  0  0  0  0  0  0  0  0  0  0  0
   -2.1434    2.2075    0.0000 H   0  0  0  0  0  0  0  0  0  0  0  0
   -0.5889   -0.4850    0.0000 H   0  0  0  0  0  0  0  0  0  0  0  0
   -2.0179    1.3100    0.0000 H   0  0  0  0  0  0  0  0  0  0  0  0
   -4.2868    0.9700    0.0000 H   0  0  0  0  0  0  0  0  0  0  0  0
   -5.5902    0.0725    0.0000 H   0  0  0  0  0  0  0  0  0  0  0  0
   -7.8592   -0.2675    0.0000 H   0  0  0  0  0  0  0  0  0  0  0  0
   -8.6992   -2.4025    0.0000 H   0  0  0  0  0  0  0  0  0  0  0  0
  1 47  1  0  0  0  0
  1 48  1  0  0  0  0
  1 49  1  0  0  0  0
  2  1  1  0  0  0  0
  2  3  1  0  0  0  0
  2  7  1  0  0  0  0
  2 50  1  6  0  0  0
  3  4  1  0  0  0  0
  3 46  1  0  0  0  0
  3 51  1  1  0  0  0
  4  5  1  0  0  0  0
  4 45  1  0  0  0  0
  4 52  1  6  0  0  0
  5  6  1  0  0  0  0
  5 44  1  0  0  0  0
  5 53  1  6  0  0  0
  6  7  1  0  0  0  0
  6  8  1  0  0  0  0
  6 54  1  1  0  0  0
  8  9  1  0  0  0  0
  9 55  1  0  0  0  0
  9 56  1  0  0  0  0
 10  9  1  0  0  0  0
 10 11  1  0  0  0  0
 10 15  1  0  0  0  0
 10 57  1  1  0  0  0
 11 12  1  0  0  0  0
 11 43  1  0  0  0  0
 11 58  1  6  0  0  0
 12 13  1  0  0  0  0
 12 42  1  0  0  0  0
 12 59  1  1  0  0  0
 13 14  1  0  0  0  0
 13 41  1  0  0  0  0
 13 60  1  6  0  0  0
 14 15  1  0  0  0  0
 14 16  1  0  0  0  0
 14 61  1  1  0  0  0
 16 17  1  0  0  0  0
 17 18  1  0  0  0  0
 17 36  2  0  0  0  0
 18 19  2  0  0  0  0
 18 62  1  0  0  0  0
 19 20  1  0  0  0  0
 19 25  1  0  0  0  0
 20 21  1  0  0  0  0
 20 35  2  0  0  0  0
 21 22  2  0  0  0  0
 21 23  1  0  0  0  0
 23 24  2  0  0  0  0
 23 63  1  0  0  0  0
 24 25  1  0  0  0  0
 24 26  1  0  0  0  0
 26 27  2  0  0  0  0
 26 31  1  0  0  0  0
 27 28  1  0  0  0  0
 27 64  1  0  0  0  0
 28 29  2  0  0  0  0
 28 65  1  0  0  0  0
 29 30  1  0  0  0  0
 29 33  1  0  0  0  0
 30 31  2  0  0  0  0
 30 32  1  0  0  0  0
 31 66  1  0  0  0  0
 32 67  1  0  0  0  0
 33 34  1  0  0  0  0
 34 68  1  0  0  0  0
 34 69  1  0  0  0  0
 34 70  1  0  0  0  0
 35 36  1  0  0  0  0
 35 37  1  0  0  0  0
 36 71  1  0  0  0  0
 37 38  1  0  0  0  0
 38 39  1  0  0  0  0
 38 72  1  0  0  0  0
 38 73  1  0  0  0  0
 39 40  1  0  0  0  0
 39 74  1  0  0  0  0
 39 75  1  0  0  0  0
 40 76  1  0  0  0  0
 41 77  1  0  0  0  0
 42 78  1  0  0  0  0
 43 79  1  0  0  0  0
 44 80  1  0  0  0  0
 45 81  1  0  0  0  0
 46 82  1  0  0  0  0
M  END
>  <DRUGBANK_ID>
DB13490

>  <COMMON_NAME>
Hidrosmin

>  <CAS_NUMBER>
115960-14-0

>  <UNII>
4I5K8199OQ

>  <SYNONYMS>
Hidrosmina

$$$$
