20A
 OpenBabel10282417072D

 53 56  0  0  0  0  0  0  0  0999 V2000
    2.2132   -1.1327    0.0000 O   0  0  0  0  0  0  0  0  0  0  0  0
    1.4987   -0.7202    0.0000 C   0  0  0  0  0  0  0  0  0  0  0  0
    1.4987    0.1048    0.0000 N   0  0  0  0  0  0  0  0  0  0  0  0
    2.2132    0.5173    0.0000 C   0  0  0  0  0  0  0  0  0  0  0  0
    2.2132    1.3423    0.0000 C   0  0  0  0  0  0  0  0  0  0  0  0
    2.9277    1.7548    0.0000 C   0  0  0  0  0  0  0  0  0  0  0  0
    2.9277    2.5798    0.0000 C   0  0  0  0  0  0  0  0  0  0  0  0
    2.2132    2.9923    0.0000 C   0  0  0  0  0  0  0  0  0  0  0  0
    1.4987    2.5798    0.0000 C   0  0  0  0  0  0  0  0  0  0  0  0
    1.4987    1.7548    0.0000 C   0  0  0  0  0  0  0  0  0  0  0  0
    0.7842   -1.1327    0.0000 C   0  0  0  0  0  0  0  0  0  0  0  0
    0.7842   -1.9577    0.0000 C   0  0  0  0  0  0  0  0  0  0  0  0
    0.0698   -2.3702    0.0000 N   0  0  0  0  0  0  0  0  0  0  0  0
   -0.6447   -1.9577    0.0000 C   0  0  0  0  0  0  0  0  0  0  0  0
   -1.4293   -2.2126    0.0000 N   0  0  0  0  0  0  0  0  0  0  0  0
   -1.6843   -2.9973    0.0000 C   0  0  0  0  0  0  0  0  0  0  0  0
   -2.4912   -3.1688    0.0000 C   0  0  0  0  0  0  0  0  0  0  0  0
   -1.9142   -1.5452    0.0000 N   0  0  0  0  0  0  0  0  0  0  0  0
   -0.6447   -1.1327    0.0000 C   0  0  0  0  0  0  0  0  0  0  0  0
   -1.4293   -0.8778    0.0000 C   0  0  0  0  0  0  0  0  0  0  0  0
    0.0698   -0.7202    0.0000 C   0  0  0  0  0  0  0  0  0  0  0  0
    0.0698    0.1048    0.0000 N   0  0  0  0  0  0  0  0  0  0  0  0
   -0.6447    0.5173    0.0000 C   0  0  0  0  0  0  0  0  0  0  0  0
   -1.3592    0.1048    0.0000 C   0  0  0  0  0  0  0  0  0  0  0  0
   -2.0736    0.5173    0.0000 C   0  0  0  0  0  0  0  0  0  0  0  0
   -2.0736    1.3423    0.0000 O   0  0  0  0  0  0  0  0  0  0  0  0
   -1.3592    1.7548    0.0000 C   0  0  0  0  0  0  0  0  0  0  0  0
   -0.6447    1.3423    0.0000 C   0  0  0  0  0  0  0  0  0  0  0  0
    0.6461    0.5971    0.0000 H   0  0  0  0  0  0  0  0  0  0  0  0
    3.1398   -0.0177    0.0000 H   0  0  0  0  0  0  0  0  0  0  0  0
    3.1398    1.0523    0.0000 H   0  0  0  0  0  0  0  0  0  0  0  0
    3.8214    1.2388    0.0000 H   0  0  0  0  0  0  0  0  0  0  0  0
    3.8214    3.0958    0.0000 H   0  0  0  0  0  0  0  0  0  0  0  0
    2.2132    4.0243    0.0000 H   0  0  0  0  0  0  0  0  0  0  0  0
    0.6050    3.0958    0.0000 H   0  0  0  0  0  0  0  0  0  0  0  0
    0.6050    1.2388    0.0000 H   0  0  0  0  0  0  0  0  0  0  0  0
    1.6779   -2.4737    0.0000 H   0  0  0  0  0  0  0  0  0  0  0  0
   -0.9684   -3.7925    0.0000 H   0  0  0  0  0  0  0  0  0  0  0  0
   -2.0150   -4.0149    0.0000 H   0  0  0  0  0  0  0  0  0  0  0  0
   -3.2072   -2.3736    0.0000 H   0  0  0  0  0  0  0  0  0  0  0  0
   -2.8219   -4.1864    0.0000 H   0  0  0  0  0  0  0  0  0  0  0  0
   -3.5378   -3.3913    0.0000 H   0  0  0  0  0  0  0  0  0  0  0  0
   -1.7482    0.1037    0.0000 H   0  0  0  0  0  0  0  0  0  0  0  0
    0.9224    0.5971    0.0000 H   0  0  0  0  0  0  0  0  0  0  0  0
   -1.5713    1.0523    0.0000 H   0  0  0  0  0  0  0  0  0  0  0  0
   -1.3592   -0.9652    0.0000 H   0  0  0  0  0  0  0  0  0  0  0  0
   -2.2859   -0.4302    0.0000 H   0  0  0  0  0  0  0  0  0  0  0  0
   -3.0003   -0.0177    0.0000 H   0  0  0  0  0  0  0  0  0  0  0  0
   -3.0002    1.0523    0.0000 H   0  0  0  0  0  0  0  0  0  0  0  0
   -1.3592    2.8248    0.0000 H   0  0  0  0  0  0  0  0  0  0  0  0
   -0.4326    2.2898    0.0000 H   0  0  0  0  0  0  0  0  0  0  0  0
    0.2819    1.8773    0.0000 H   0  0  0  0  0  0  0  0  0  0  0  0
    0.2819    0.8073    0.0000 H   0  0  0  0  0  0  0  0  0  0  0  0
  1  2  2  0  0  0  0
  2  3  1  0  0  0  0
  3  4  1  0  0  0  0
  3 29  1  0  0  0  0
  4 30  1  0  0  0  0
  4 31  1  0  0  0  0
  5  4  1  0  0  0  0
  5 10  1  0  0  0  0
  6  5  2  0  0  0  0
  6 32  1  0  0  0  0
  7  6  1  0  0  0  0
  7  8  2  0  0  0  0
  7 33  1  0  0  0  0
  8  9  1  0  0  0  0
  8 34  1  0  0  0  0
  9 10  2  0  0  0  0
  9 35  1  0  0  0  0
 10 36  1  0  0  0  0
 11  2  1  0  0  0  0
 11 12  1  0  0  0  0
 12 37  1  0  0  0  0
 13 12  2  0  0  0  0
 14 13  1  0  0  0  0
 15 14  1  0  0  0  0
 15 16  1  0  0  0  0
 16 17  1  0  0  0  0
 16 38  1  0  0  0  0
 16 39  1  0  0  0  0
 17 40  1  0  0  0  0
 17 41  1  0  0  0  0
 17 42  1  0  0  0  0
 18 15  1  0  0  0  0
 18 20  2  0  0  0  0
 19 14  2  0  0  0  0
 19 21  1  0  0  0  0
 20 19  1  0  0  0  0
 20 43  1  0  0  0  0
 21 11  2  0  0  0  0
 22 21  1  0  0  0  0
 22 44  1  0  0  0  0
 23 22  1  0  0  0  0
 23 24  1  0  0  0  0
 23 45  1  0  0  0  0
 24 46  1  0  0  0  0
 24 47  1  0  0  0  0
 25 24  1  0  0  0  0
 25 48  1  0  0  0  0
 25 49  1  0  0  0  0
 26 25  1  0  0  0  0
 27 26  1  0  0  0  0
 27 28  1  0  0  0  0
 27 50  1  0  0  0  0
 27 51  1  0  0  0  0
 28 23  1  0  0  0  0
 28 52  1  0  0  0  0
 28 53  1  0  0  0  0
M  END
>  <DRUGBANK_ID>
DB06909

>  <COMMON_NAME>
1-ethyl-N-(phenylmethyl)-4-(tetrahydro-2H-pyran-4-ylamino)-1H-pyrazolo[3,4-b]pyridine-5-carboxamide

$$$$
