
 OpenBabel10282417072D

 33 34  0  0  0  0  0  0  0  0999 V2000
   -0.4017   -0.6035    0.0000 C   0  0  0  0  0  0  0  0  0  0  0  0
   -1.1162   -1.0160    0.0000 C   0  0  0  0  0  0  0  0  0  0  0  0
   -1.1162   -1.8410    0.0000 C   0  0  0  0  0  0  0  0  0  0  0  0
   -0.4017   -2.2535    0.0000 C   0  0  0  0  0  0  0  0  0  0  0  0
    0.3126   -1.8410    0.0000 C   0  0  0  0  0  0  0  0  0  0  0  0
    0.3126   -1.0160    0.0000 C   0  0  0  0  0  0  0  0  0  0  0  0
   -0.4017    0.2214    0.0000 N   0  0  0  0  0  0  0  0  0  0  0  0
    1.0271   -0.6035    0.0000 Cl  0  0  0  0  0  0  0  0  0  0  0  0
   -1.8307   -0.6035    0.0000 F   0  0  0  0  0  0  0  0  0  0  0  0
   -1.1162    0.6339    0.0000 C   0  0  0  0  0  0  0  0  0  0  0  0
   -1.8307    0.2214    0.0000 C   0  0  0  0  0  0  0  0  0  0  0  0
   -1.1162    1.4589    0.0000 C   0  0  0  0  0  0  0  0  0  0  0  0
   -1.8307    1.8714    0.0000 C   0  0  0  0  0  0  0  0  0  0  0  0
   -2.5452    1.4589    0.0000 C   0  0  0  0  0  0  0  0  0  0  0  0
   -2.5452    0.6339    0.0000 C   0  0  0  0  0  0  0  0  0  0  0  0
   -3.2597    1.8714    0.0000 C   0  0  0  0  0  0  0  0  0  0  0  0
   -0.4018    1.8714    0.0000 C   0  0  0  0  0  0  0  0  0  0  0  0
   -0.4018    2.6964    0.0000 C   0  0  0  0  0  0  0  0  0  0  0  0
   -1.1163    3.1089    0.0000 O   0  0  0  0  0  0  0  0  0  0  0  0
    0.3126    3.1089    0.0000 O   0  0  0  0  0  0  0  0  0  0  0  0
   -2.0099   -2.3570    0.0000 H   0  0  0  0  0  0  0  0  0  0  0  0
   -0.4016   -3.2855    0.0000 H   0  0  0  0  0  0  0  0  0  0  0  0
    1.2064   -2.3570    0.0000 H   0  0  0  0  0  0  0  0  0  0  0  0
    0.4509    0.7137    0.0000 H   0  0  0  0  0  0  0  0  0  0  0  0
   -1.8307   -0.8106    0.0000 H   0  0  0  0  0  0  0  0  0  0  0  0
   -1.8307    2.9034    0.0000 H   0  0  0  0  0  0  0  0  0  0  0  0
   -3.4389    0.1179    0.0000 H   0  0  0  0  0  0  0  0  0  0  0  0
   -3.2597    2.9414    0.0000 H   0  0  0  0  0  0  0  0  0  0  0  0
   -4.1863    1.3364    0.0000 H   0  0  0  0  0  0  0  0  0  0  0  0
   -4.1864    2.4064    0.0000 H   0  0  0  0  0  0  0  0  0  0  0  0
    0.5249    1.3364    0.0000 H   0  0  0  0  0  0  0  0  0  0  0  0
    0.5248    2.4064    0.0000 H   0  0  0  0  0  0  0  0  0  0  0  0
    1.1241    2.6404    0.0000 H   0  0  0  0  0  0  0  0  0  0  0  0
  1  2  1  0  0  0  0
  1  6  2  0  0  0  0
  1  7  1  0  0  0  0
  2  3  2  0  0  0  0
  2  9  1  0  0  0  0
  3  4  1  0  0  0  0
  3 21  1  0  0  0  0
  4  5  2  0  0  0  0
  4 22  1  0  0  0  0
  5  6  1  0  0  0  0
  5 23  1  0  0  0  0
  6  8  1  0  0  0  0
  7 10  1  0  0  0  0
  7 24  1  0  0  0  0
 10 11  2  0  0  0  0
 10 12  1  0  0  0  0
 11 25  1  0  0  0  0
 12 13  2  0  0  0  0
 12 17  1  0  0  0  0
 13 14  1  0  0  0  0
 13 26  1  0  0  0  0
 14 15  2  0  0  0  0
 14 16  1  0  0  0  0
 15 11  1  0  0  0  0
 15 27  1  0  0  0  0
 16 28  1  0  0  0  0
 16 29  1  0  0  0  0
 16 30  1  0  0  0  0
 17 18  1  0  0  0  0
 17 31  1  0  0  0  0
 17 32  1  0  0  0  0
 18 19  2  0  0  0  0
 18 20  1  0  0  0  0
 20 33  1  0  0  0  0
M  END
>  <DRUGBANK_ID>
DB01283

>  <COMMON_NAME>
Lumiracoxib

>  <CAS_NUMBER>
220991-20-8

>  <UNII>
V91T9204HU

>  <SYNONYMS>
2-((2-chloro-6-fluorophenyl)amino)-5-methylbenzeneacetic acid; Lumiracoxib; Lumiracoxibum

$$$$
