
 OpenBabel10282417072D

 65 65  0  0  1  0  0  0  0  0999 V2000
   -0.6162   -5.1022    0.0000 C   0  0  0  0  0  0  0  0  0  0  0  0
   -1.2107   -5.6741    0.0000 C   0  0  0  0  0  0  0  0  0  0  0  0
   -1.0125   -6.4751    0.0000 C   0  0  0  0  0  0  0  0  0  0  0  0
   -0.2199   -6.7039    0.0000 C   0  0  0  0  0  0  0  0  0  0  0  0
    0.3745   -6.1319    0.0000 C   0  0  0  0  0  0  0  0  0  0  0  0
    1.1671   -6.3606    0.0000 C   0  0  0  0  0  0  0  0  0  0  0  0
    1.7616   -5.7886    0.0000 C   0  0  0  0  0  0  0  0  0  0  0  0
    2.5541   -6.0174    0.0000 C   0  0  0  0  0  0  0  0  0  0  0  0
    2.7524   -6.8183    0.0000 O   0  0  0  0  0  0  0  0  0  0  0  0
    3.1486   -5.4454    0.0000 C   0  0  0  0  0  0  0  0  0  0  0  0
    3.9412   -5.6741    0.0000 C   0  0  0  0  0  0  0  0  0  0  0  0
    4.5358   -5.1022    0.0000 C   0  0  1  0  0  0  0  0  0  0  0  0
    4.4225   -4.2850    0.0000 C   0  0  2  0  0  0  0  0  0  0  0  0
    3.6947   -3.8964    0.0000 O   0  0  0  0  0  0  0  0  0  0  0  0
    5.1646   -3.9247    0.0000 C   0  0  0  0  0  0  0  0  0  0  0  0
    5.7366   -4.5192    0.0000 C   0  0  2  0  0  0  0  0  0  0  0  0
    6.5538   -4.4058    0.0000 O   0  0  0  0  0  0  0  0  0  0  0  0
    5.3480   -5.2469    0.0000 C   0  0  2  0  0  0  0  0  0  0  0  0
    5.7083   -5.9890    0.0000 C   0  0  0  0  0  0  0  0  0  0  0  0
    5.2458   -6.6722    0.0000 C   0  0  0  0  0  0  0  0  0  0  0  0
    5.6061   -7.4143    0.0000 C   0  0  0  0  0  0  0  0  0  0  0  0
    6.4290   -7.4733    0.0000 C   0  0  0  0  0  0  0  0  0  0  0  0
    6.7894   -8.2155    0.0000 C   0  0  0  0  0  0  0  0  0  0  0  0
    7.6123   -8.2745    0.0000 C   0  0  0  0  0  0  0  0  0  0  0  0
    7.9726   -9.0167    0.0000 C   0  0  0  0  0  0  0  0  0  0  0  0
    7.5100   -9.6998    0.0000 O   0  0  0  0  0  0  0  0  0  0  0  0
    8.7955   -9.0757    0.0000 O   0  0  0  0  0  0  0  0  0  0  0  0
    0.4118   -5.3991    0.0000 H   0  0  0  0  0  0  0  0  0  0  0  0
   -0.8731   -4.0635    0.0000 H   0  0  0  0  0  0  0  0  0  0  0  0
    0.1549   -4.3604    0.0000 H   0  0  0  0  0  0  0  0  0  0  0  0
   -2.2387   -5.3773    0.0000 H   0  0  0  0  0  0  0  0  0  0  0  0
   -1.9817   -6.4160    0.0000 H   0  0  0  0  0  0  0  0  0  0  0  0
   -1.7835   -7.2170    0.0000 H   0  0  0  0  0  0  0  0  0  0  0  0
   -0.7555   -7.5138    0.0000 H   0  0  0  0  0  0  0  0  0  0  0  0
    0.0371   -7.7426    0.0000 H   0  0  0  0  0  0  0  0  0  0  0  0
    0.8081   -7.0006    0.0000 H   0  0  0  0  0  0  0  0  0  0  0  0
    0.1174   -5.0932    0.0000 H   0  0  0  0  0  0  0  0  0  0  0  0
    1.1454   -5.3899    0.0000 H   0  0  0  0  0  0  0  0  0  0  0  0
    1.4241   -7.3993    0.0000 H   0  0  0  0  0  0  0  0  0  0  0  0
    2.1951   -6.6574    0.0000 H   0  0  0  0  0  0  0  0  0  0  0  0
    1.5046   -4.7499    0.0000 H   0  0  0  0  0  0  0  0  0  0  0  0
    2.5326   -5.0467    0.0000 H   0  0  0  0  0  0  0  0  0  0  0  0
    2.8916   -4.4067    0.0000 H   0  0  0  0  0  0  0  0  0  0  0  0
    3.9196   -4.7034    0.0000 H   0  0  0  0  0  0  0  0  0  0  0  0
    4.1982   -6.7128    0.0000 H   0  0  0  0  0  0  0  0  0  0  0  0
    4.9692   -5.9710    0.0000 H   0  0  0  0  0  0  0  0  0  0  0  0
    3.5248   -4.7519    0.0000 H   0  0  0  0  0  0  0  0  0  0  0  0
    3.5449   -4.8971    0.0000 H   0  0  0  0  0  0  0  0  0  0  0  0
    3.6625   -2.9269    0.0000 H   0  0  0  0  0  0  0  0  0  0  0  0
    5.3523   -2.8713    0.0000 H   0  0  0  0  0  0  0  0  0  0  0  0
    6.1884   -3.6137    0.0000 H   0  0  0  0  0  0  0  0  0  0  0  0
    6.0868   -3.5081    0.0000 H   0  0  0  0  0  0  0  0  0  0  0  0
    7.1497   -5.1712    0.0000 H   0  0  0  0  0  0  0  0  0  0  0  0
    6.4178   -5.2675    0.0000 H   0  0  0  0  0  0  0  0  0  0  0  0
    6.7756   -6.0655    0.0000 H   0  0  0  0  0  0  0  0  0  0  0  0
    6.1757   -6.9515    0.0000 H   0  0  0  0  0  0  0  0  0  0  0  0
    4.2164   -6.5984    0.0000 H   0  0  0  0  0  0  0  0  0  0  0  0
    5.0275   -8.2688    0.0000 H   0  0  0  0  0  0  0  0  0  0  0  0
    7.0289   -6.5873    0.0000 H   0  0  0  0  0  0  0  0  0  0  0  0
    7.4963   -7.5498    0.0000 H   0  0  0  0  0  0  0  0  0  0  0  0
    6.1895   -9.1015    0.0000 H   0  0  0  0  0  0  0  0  0  0  0  0
    7.2568   -9.1780    0.0000 H   0  0  0  0  0  0  0  0  0  0  0  0
    8.2122   -7.3885    0.0000 H   0  0  0  0  0  0  0  0  0  0  0  0
    8.6796   -8.3511    0.0000 H   0  0  0  0  0  0  0  0  0  0  0  0
    9.2048   -9.9186    0.0000 H   0  0  0  0  0  0  0  0  0  0  0  0
  1  2  1  0  0  0  0
  1 28  1  0  0  0  0
  1 29  1  0  0  0  0
  1 30  1  0  0  0  0
  2  3  1  0  0  0  0
  2 31  1  0  0  0  0
  2 32  1  0  0  0  0
  3  4  1  0  0  0  0
  3 33  1  0  0  0  0
  3 34  1  0  0  0  0
  4  5  1  0  0  0  0
  4 35  1  0  0  0  0
  4 36  1  0  0  0  0
  5  6  1  0  0  0  0
  5 37  1  0  0  0  0
  5 38  1  0  0  0  0
  6  7  1  0  0  0  0
  6 39  1  0  0  0  0
  6 40  1  0  0  0  0
  7  8  1  0  0  0  0
  7 41  1  0  0  0  0
  7 42  1  0  0  0  0
  8  9  2  0  0  0  0
  8 10  1  0  0  0  0
 10 11  1  0  0  0  0
 10 43  1  0  0  0  0
 10 44  1  0  0  0  0
 11 45  1  0  0  0  0
 11 46  1  0  0  0  0
 12 11  1  0  0  0  0
 12 13  1  0  0  0  0
 12 18  1  0  0  0  0
 12 47  1  6  0  0  0
 13 14  1  0  0  0  0
 13 15  1  0  0  0  0
 13 48  1  1  0  0  0
 14 49  1  0  0  0  0
 15 16  1  0  0  0  0
 15 50  1  0  0  0  0
 15 51  1  0  0  0  0
 16 17  1  0  0  0  0
 16 18  1  0  0  0  0
 16 52  1  1  0  0  0
 17 53  1  0  0  0  0
 18 19  1  0  0  0  0
 18 54  1  1  0  0  0
 19 20  1  0  0  0  0
 19 55  1  0  0  0  0
 19 56  1  0  0  0  0
 20 21  2  0  0  0  0
 20 57  1  0  0  0  0
 21 22  1  0  0  0  0
 21 58  1  0  0  0  0
 22 23  1  0  0  0  0
 22 59  1  0  0  0  0
 22 60  1  0  0  0  0
 23 24  1  0  0  0  0
 23 61  1  0  0  0  0
 23 62  1  0  0  0  0
 24 25  1  0  0  0  0
 24 63  1  0  0  0  0
 24 64  1  0  0  0  0
 25 26  2  0  0  0  0
 25 27  1  0  0  0  0
 27 65  1  0  0  0  0
M  END
>  <DRUGBANK_ID>
DB06826

>  <COMMON_NAME>
Unoprostone

>  <CAS_NUMBER>
120373-36-6

>  <UNII>
6X4F561V3W

>  <SYNONYMS>
13,14-dihydro-15-keto-20-ethyl PGF2Î±; Unoprostone

$$$$
