
 OpenBabel10282417072D

 97 97  0  0  0  0  0  0  0  0999 V2000
    1.0716    1.6500    0.0000 O   0  0  0  0  0  0  0  0  0  0  0  0
   -1.0717   -0.4124    0.0000 O   0  0  0  0  0  0  0  0  0  0  0  0
   -3.2151    1.6500    0.0000 O   0  0  0  0  0  0  0  0  0  0  0  0
    3.2150   -0.4124    0.0000 O   0  0  0  0  0  0  0  0  0  0  0  0
   -1.7862    1.6500    0.0000 O   0  0  0  0  0  0  0  0  0  0  0  0
   -5.3585    2.0624    0.0000 O   0  0  0  0  0  0  0  0  0  0  0  0
   -1.0717    2.8874    0.0000 O   0  0  0  0  0  0  0  0  0  0  0  0
   -3.9296    2.0624    0.0000 O   0  0  0  0  0  0  0  0  0  0  0  0
   -8.2164    2.0624    0.0000 O   0  0  0  0  0  0  0  0  0  0  0  0
   -1.7862    0.8250    0.0000 N   0  0  0  0  0  0  0  0  0  0  0  0
    0.3572    0.4125    0.0000 N   0  0  0  0  0  0  0  0  0  0  0  0
    2.5007    0.8250    0.0000 N   0  0  0  0  0  0  0  0  0  0  0  0
   -3.9296    0.4125    0.0000 N   0  0  0  0  0  0  0  0  0  0  0  0
    3.9296    1.6500    0.0000 N   0  0  0  0  0  0  0  0  0  0  0  0
    3.2150   -2.8875    0.0000 N   0  0  0  0  0  0  0  0  0  0  0  0
    6.7874    0.8250    0.0000 N   0  0  0  0  0  0  0  0  0  0  0  0
    8.2164    0.8250    0.0000 N   0  0  0  0  0  0  0  0  0  0  0  0
    7.5020   -0.4124    0.0000 N   0  0  0  0  0  0  0  0  0  0  0  0
   -2.5006    0.4125    0.0000 C   0  0  3  0  0  0  0  0  0  0  0  0
    1.7862    0.4125    0.0000 C   0  0  1  0  0  0  0  0  0  0  0  0
   -2.5006   -0.4124    0.0000 C   0  0  0  0  0  0  0  0  0  0  0  0
    1.7862   -0.4124    0.0000 C   0  0  0  0  0  0  0  0  0  0  0  0
   -0.3572    0.8250    0.0000 C   0  0  2  0  0  0  0  0  0  0  0  0
    2.5007   -0.8249    0.0000 C   0  0  0  0  0  0  0  0  0  0  0  0
    1.0716    0.8250    0.0000 C   0  0  0  0  0  0  0  0  0  0  0  0
   -1.0717    0.4125    0.0000 C   0  0  0  0  0  0  0  0  0  0  0  0
   -3.2151    0.8250    0.0000 C   0  0  0  0  0  0  0  0  0  0  0  0
    2.5007   -1.6500    0.0000 C   0  0  0  0  0  0  0  0  0  0  0  0
   -3.2151   -0.8249    0.0000 C   0  0  0  0  0  0  0  0  0  0  0  0
   -1.7862   -0.8249    0.0000 C   0  0  0  0  0  0  0  0  0  0  0  0
   -0.3572    1.6500    0.0000 C   0  0  0  0  0  0  0  0  0  0  0  0
    3.9296    0.8250    0.0000 C   0  0  2  0  0  0  0  0  0  0  0  0
    3.2150    0.4125    0.0000 C   0  0  0  0  0  0  0  0  0  0  0  0
   -4.6440    0.8250    0.0000 C   0  0  1  0  0  0  0  0  0  0  0  0
    4.6440    0.4125    0.0000 C   0  0  0  0  0  0  0  0  0  0  0  0
    3.2150   -2.0625    0.0000 C   0  0  0  0  0  0  0  0  0  0  0  0
   -5.3585    0.4125    0.0000 C   0  0  0  0  0  0  0  0  0  0  0  0
    5.3585    0.8250    0.0000 C   0  0  0  0  0  0  0  0  0  0  0  0
   -1.0717    2.0624    0.0000 C   0  0  0  0  0  0  0  0  0  0  0  0
   -6.0730    0.8250    0.0000 C   0  0  0  0  0  0  0  0  0  0  0  0
    6.0730    0.4125    0.0000 C   0  0  0  0  0  0  0  0  0  0  0  0
   -4.6440    1.6500    0.0000 C   0  0  0  0  0  0  0  0  0  0  0  0
   -6.7875    0.4125    0.0000 C   0  0  0  0  0  0  0  0  0  0  0  0
   -6.0730    1.6500    0.0000 C   0  0  0  0  0  0  0  0  0  0  0  0
   -7.5019    0.8250    0.0000 C   0  0  0  0  0  0  0  0  0  0  0  0
   -6.7875    2.0624    0.0000 C   0  0  0  0  0  0  0  0  0  0  0  0
   -7.5019    1.6500    0.0000 C   0  0  0  0  0  0  0  0  0  0  0  0
    7.5020    0.4125    0.0000 C   0  0  0  0  0  0  0  0  0  0  0  0
   -2.5976    2.1186    0.0000 H   0  0  0  0  0  0  0  0  0  0  0  0
   -5.3586    2.9994    0.0000 H   0  0  0  0  0  0  0  0  0  0  0  0
   -8.2165    2.9994    0.0000 H   0  0  0  0  0  0  0  0  0  0  0  0
   -1.7862    1.8095    0.0000 H   0  0  0  0  0  0  0  0  0  0  0  0
    0.3572   -0.5720    0.0000 H   0  0  0  0  0  0  0  0  0  0  0  0
    2.5008    1.8095    0.0000 H   0  0  0  0  0  0  0  0  0  0  0  0
   -3.9296   -0.5720    0.0000 H   0  0  0  0  0  0  0  0  0  0  0  0
    4.8129    2.1600    0.0000 H   0  0  0  0  0  0  0  0  0  0  0  0
    3.0463    2.1600    0.0000 H   0  0  0  0  0  0  0  0  0  0  0  0
    2.3317   -3.3975    0.0000 H   0  0  0  0  0  0  0  0  0  0  0  0
    4.0983   -3.3975    0.0000 H   0  0  0  0  0  0  0  0  0  0  0  0
    9.0690    0.3328    0.0000 H   0  0  0  0  0  0  0  0  0  0  0  0
    8.2164    1.8095    0.0000 H   0  0  0  0  0  0  0  0  0  0  0  0
    6.6494   -0.9047    0.0000 H   0  0  0  0  0  0  0  0  0  0  0  0
    8.3546   -0.9046    0.0000 H   0  0  0  0  0  0  0  0  0  0  0  0
   -1.5739   -0.1225    0.0000 H   0  0  0  0  0  0  0  0  0  0  0  0
    2.7128   -0.1225    0.0000 H   0  0  0  0  0  0  0  0  0  0  0  0
   -2.5006   -1.4824    0.0000 H   0  0  0  0  0  0  0  0  0  0  0  0
    0.8596   -0.9474    0.0000 H   0  0  0  0  0  0  0  0  0  0  0  0
    1.7862   -1.4824    0.0000 H   0  0  0  0  0  0  0  0  0  0  0  0
   -0.3572   -0.2450    0.0000 H   0  0  0  0  0  0  0  0  0  0  0  0
    3.4273   -0.2899    0.0000 H   0  0  0  0  0  0  0  0  0  0  0  0
    3.4273   -1.3599    0.0000 H   0  0  0  0  0  0  0  0  0  0  0  0
    1.5740   -2.1850    0.0000 H   0  0  0  0  0  0  0  0  0  0  0  0
    2.5006   -2.7200    0.0000 H   0  0  0  0  0  0  0  0  0  0  0  0
   -4.1417   -0.2899    0.0000 H   0  0  0  0  0  0  0  0  0  0  0  0
   -3.2151   -1.8949    0.0000 H   0  0  0  0  0  0  0  0  0  0  0  0
   -4.1418   -1.3599    0.0000 H   0  0  0  0  0  0  0  0  0  0  0  0
   -1.7862   -1.8949    0.0000 H   0  0  0  0  0  0  0  0  0  0  0  0
   -0.8595   -0.2899    0.0000 H   0  0  0  0  0  0  0  0  0  0  0  0
   -0.8596   -1.3599    0.0000 H   0  0  0  0  0  0  0  0  0  0  0  0
    0.5694    2.1851    0.0000 H   0  0  0  0  0  0  0  0  0  0  0  0
   -0.3573    2.7200    0.0000 H   0  0  0  0  0  0  0  0  0  0  0  0
    3.0030    1.3600    0.0000 H   0  0  0  0  0  0  0  0  0  0  0  0
   -4.6440   -0.2450    0.0000 H   0  0  0  0  0  0  0  0  0  0  0  0
    4.6440   -0.6575    0.0000 H   0  0  0  0  0  0  0  0  0  0  0  0
    5.5706   -0.1225    0.0000 H   0  0  0  0  0  0  0  0  0  0  0  0
    4.1417   -1.5275    0.0000 H   0  0  0  0  0  0  0  0  0  0  0  0
    3.2151   -0.9925    0.0000 H   0  0  0  0  0  0  0  0  0  0  0  0
   -5.3585   -0.6575    0.0000 H   0  0  0  0  0  0  0  0  0  0  0  0
   -6.2851   -0.1225    0.0000 H   0  0  0  0  0  0  0  0  0  0  0  0
    5.3585    1.8950    0.0000 H   0  0  0  0  0  0  0  0  0  0  0  0
    6.2851    1.3600    0.0000 H   0  0  0  0  0  0  0  0  0  0  0  0
    6.0730   -0.6575    0.0000 H   0  0  0  0  0  0  0  0  0  0  0  0
    5.1464   -0.1225    0.0000 H   0  0  0  0  0  0  0  0  0  0  0  0
   -6.7875   -0.6195    0.0000 H   0  0  0  0  0  0  0  0  0  0  0  0
   -5.1793    2.1661    0.0000 H   0  0  0  0  0  0  0  0  0  0  0  0
   -8.3956    0.3090    0.0000 H   0  0  0  0  0  0  0  0  0  0  0  0
   -6.7875    3.0944    0.0000 H   0  0  0  0  0  0  0  0  0  0  0  0
  1 25  2  0  0  0  0
  2 26  2  0  0  0  0
  3 27  2  0  0  0  0
  4 33  2  0  0  0  0
  5 39  1  0  0  0  0
  5 49  1  0  0  0  0
  6 42  1  0  0  0  0
  6 50  1  0  0  0  0
  7 39  2  0  0  0  0
  8 42  2  0  0  0  0
  9 47  1  0  0  0  0
  9 51  1  0  0  0  0
 10 19  1  0  0  0  0
 10 26  1  0  0  0  0
 10 52  1  0  0  0  0
 11 25  1  0  0  0  0
 11 53  1  0  0  0  0
 12 33  1  0  0  0  0
 12 54  1  0  0  0  0
 13 27  1  0  0  0  0
 13 55  1  0  0  0  0
 14 56  1  0  0  0  0
 14 57  1  0  0  0  0
 15 36  1  0  0  0  0
 15 58  1  0  0  0  0
 15 59  1  0  0  0  0
 16 41  1  0  0  0  0
 16 48  2  0  0  0  0
 17 48  1  0  0  0  0
 17 60  1  0  0  0  0
 17 61  1  0  0  0  0
 18 48  1  0  0  0  0
 18 62  1  0  0  0  0
 18 63  1  0  0  0  0
 19 21  1  0  0  0  0
 19 27  1  0  0  0  0
 19 64  1  0  0  0  0
 20 12  1  0  0  0  0
 20 22  1  0  0  0  0
 20 25  1  0  0  0  0
 20 65  1  6  0  0  0
 21 29  1  0  0  0  0
 21 30  1  0  0  0  0
 21 66  1  0  0  0  0
 22 24  1  0  0  0  0
 22 67  1  0  0  0  0
 22 68  1  0  0  0  0
 23 11  1  0  0  0  0
 23 26  1  0  0  0  0
 23 31  1  0  0  0  0
 23 69  1  1  0  0  0
 24 28  1  0  0  0  0
 24 70  1  0  0  0  0
 24 71  1  0  0  0  0
 28 36  1  0  0  0  0
 28 72  1  0  0  0  0
 28 73  1  0  0  0  0
 29 74  1  0  0  0  0
 29 75  1  0  0  0  0
 29 76  1  0  0  0  0
 30 77  1  0  0  0  0
 30 78  1  0  0  0  0
 30 79  1  0  0  0  0
 31 39  1  0  0  0  0
 31 80  1  0  0  0  0
 31 81  1  0  0  0  0
 32 14  1  0  0  0  0
 32 33  1  0  0  0  0
 32 35  1  0  0  0  0
 32 82  1  6  0  0  0
 34 13  1  0  0  0  0
 34 37  1  0  0  0  0
 34 42  1  0  0  0  0
 34 83  1  6  0  0  0
 35 38  1  0  0  0  0
 35 84  1  0  0  0  0
 35 85  1  0  0  0  0
 36 86  1  0  0  0  0
 36 87  1  0  0  0  0
 37 40  1  0  0  0  0
 37 88  1  0  0  0  0
 37 89  1  0  0  0  0
 38 41  1  0  0  0  0
 38 90  1  0  0  0  0
 38 91  1  0  0  0  0
 40 43  2  0  0  0  0
 40 44  1  0  0  0  0
 41 92  1  0  0  0  0
 41 93  1  0  0  0  0
 43 45  1  0  0  0  0
 43 94  1  0  0  0  0
 44 46  2  0  0  0  0
 44 95  1  0  0  0  0
 45 47  2  0  0  0  0
 45 96  1  0  0  0  0
 46 47  1  0  0  0  0
 46 97  1  0  0  0  0
M  END
>  <DRUGBANK_ID>
DB11996

>  <COMMON_NAME>
Thymopentin

>  <CAS_NUMBER>
69558-55-0

>  <UNII>
O3Y80ZF13F

>  <SYNONYMS>
Thymopentin; Thymopentine; Thymopentinum; Timopentina

$$$$
