
 OpenBabel10282417072D

 73 75  0  0  0  0  0  0  0  0999 V2000
    4.2868    2.4750    0.0000 C   0  0  0  0  0  0  0  0  0  0  0  0
    3.5724    2.0625    0.0000 O   0  0  0  0  0  0  0  0  0  0  0  0
    3.5724    1.2375    0.0000 C   0  0  0  0  0  0  0  0  0  0  0  0
    4.2868    0.8250    0.0000 C   0  0  0  0  0  0  0  0  0  0  0  0
    4.2868   -0.0000    0.0000 C   0  0  0  0  0  0  0  0  0  0  0  0
    5.0013   -0.4125    0.0000 O   0  0  0  0  0  0  0  0  0  0  0  0
    5.0013   -1.2375    0.0000 C   0  0  0  0  0  0  0  0  0  0  0  0
    3.5724   -0.4125    0.0000 C   0  0  0  0  0  0  0  0  0  0  0  0
    2.8579    0.0000    0.0000 C   0  0  0  0  0  0  0  0  0  0  0  0
    2.1434   -0.4125    0.0000 C   0  0  0  0  0  0  0  0  0  0  0  0
    1.4289    0.0000    0.0000 O   0  0  0  0  0  0  0  0  0  0  0  0
    0.7145   -0.4125    0.0000 C   0  0  0  0  0  0  0  0  0  0  0  0
    0.7145   -1.2375    0.0000 C   0  0  0  0  0  0  0  0  0  0  0  0
   -0.0000   -1.6500    0.0000 C   0  0  0  0  0  0  0  0  0  0  0  0
   -0.0000   -2.4750    0.0000 N   0  0  0  0  0  0  0  0  0  0  0  0
   -0.7145   -1.2375    0.0000 C   0  0  0  0  0  0  0  0  0  0  0  0
   -1.4289   -1.6500    0.0000 Cl  0  0  0  0  0  0  0  0  0  0  0  0
   -0.7145   -0.4125    0.0000 C   0  0  0  0  0  0  0  0  0  0  0  0
    0.0000    0.0000    0.0000 C   0  0  0  0  0  0  0  0  0  0  0  0
    0.0000    0.8250    0.0000 C   0  0  0  0  0  0  0  0  0  0  0  0
   -0.7145    1.2375    0.0000 O   0  0  0  0  0  0  0  0  0  0  0  0
    0.7145    1.2375    0.0000 C   0  0  0  0  0  0  0  0  0  0  0  0
    0.7145    2.0625    0.0000 C   0  0  0  0  0  0  0  0  0  0  0  0
    1.4289    2.4750    0.0000 C   0  0  0  0  0  0  0  0  0  0  0  0
    1.4289    3.3000    0.0000 C   0  0  0  0  0  0  0  0  0  0  0  0
    2.1434    3.7125    0.0000 C   0  0  0  0  0  0  0  0  0  0  0  0
    2.8579    3.3000    0.0000 N   0  0  0  0  0  0  0  0  0  0  0  0
    3.5724    3.7125    0.0000 C   0  0  0  0  0  0  0  0  0  0  0  0
    3.5724    4.5375    0.0000 C   0  0  0  0  0  0  0  0  0  0  0  0
    4.2868    4.9500    0.0000 N   0  0  0  0  0  0  0  0  0  0  0  0
    4.2868    5.7750    0.0000 S   0  0  0  0  0  0  0  0  0  0  0  0
    4.2868    6.6000    0.0000 C   0  0  0  0  0  0  0  0  0  0  0  0
    5.1118    5.7750    0.0000 O   0  0  0  0  0  0  0  0  0  0  0  0
    3.4618    5.7750    0.0000 O   0  0  0  0  0  0  0  0  0  0  0  0
    2.8579    2.4750    0.0000 C   0  0  0  0  0  0  0  0  0  0  0  0
    2.1434    2.0625    0.0000 C   0  0  0  0  0  0  0  0  0  0  0  0
    2.8579    0.8250    0.0000 C   0  0  0  0  0  0  0  0  0  0  0  0
    5.2135    1.9400    0.0000 H   0  0  0  0  0  0  0  0  0  0  0  0
    4.2868    3.5450    0.0000 H   0  0  0  0  0  0  0  0  0  0  0  0
    5.2134    3.0100    0.0000 H   0  0  0  0  0  0  0  0  0  0  0  0
    5.1805    1.3410    0.0000 H   0  0  0  0  0  0  0  0  0  0  0  0
    4.0747   -1.7725    0.0000 H   0  0  0  0  0  0  0  0  0  0  0  0
    5.9279   -1.7725    0.0000 H   0  0  0  0  0  0  0  0  0  0  0  0
    5.0013   -2.3075    0.0000 H   0  0  0  0  0  0  0  0  0  0  0  0
    3.5724   -1.4445    0.0000 H   0  0  0  0  0  0  0  0  0  0  0  0
    2.1434   -1.4825    0.0000 H   0  0  0  0  0  0  0  0  0  0  0  0
    1.2168   -0.9475    0.0000 H   0  0  0  0  0  0  0  0  0  0  0  0
    1.6082   -1.7535    0.0000 H   0  0  0  0  0  0  0  0  0  0  0  0
   -0.8526   -2.9672    0.0000 H   0  0  0  0  0  0  0  0  0  0  0  0
    0.8526   -2.9672    0.0000 H   0  0  0  0  0  0  0  0  0  0  0  0
   -1.6082    0.1035    0.0000 H   0  0  0  0  0  0  0  0  0  0  0  0
    1.6411    0.7025    0.0000 H   0  0  0  0  0  0  0  0  0  0  0  0
    1.6411    1.7725    0.0000 H   0  0  0  0  0  0  0  0  0  0  0  0
   -0.2122    2.5975    0.0000 H   0  0  0  0  0  0  0  0  0  0  0  0
    0.7145    3.1325    0.0000 H   0  0  0  0  0  0  0  0  0  0  0  0
    2.3555    3.0100    0.0000 H   0  0  0  0  0  0  0  0  0  0  0  0
    0.5023    3.8350    0.0000 H   0  0  0  0  0  0  0  0  0  0  0  0
    1.4289    4.3700    0.0000 H   0  0  0  0  0  0  0  0  0  0  0  0
    2.1434    4.7825    0.0000 H   0  0  0  0  0  0  0  0  0  0  0  0
    3.0700    4.2475    0.0000 H   0  0  0  0  0  0  0  0  0  0  0  0
    4.4990    3.1775    0.0000 H   0  0  0  0  0  0  0  0  0  0  0  0
    4.4990    4.2475    0.0000 H   0  0  0  0  0  0  0  0  0  0  0  0
    2.6457    5.0725    0.0000 H   0  0  0  0  0  0  0  0  0  0  0  0
    3.5724    5.6075    0.0000 H   0  0  0  0  0  0  0  0  0  0  0  0
    5.1702    4.4400    0.0000 H   0  0  0  0  0  0  0  0  0  0  0  0
    5.2134    7.1350    0.0000 H   0  0  0  0  0  0  0  0  0  0  0  0
    3.3602    7.1350    0.0000 H   0  0  0  0  0  0  0  0  0  0  0  0
    4.2868    7.6700    0.0000 H   0  0  0  0  0  0  0  0  0  0  0  0
    3.7845    1.9400    0.0000 H   0  0  0  0  0  0  0  0  0  0  0  0
    2.8579    1.4050    0.0000 H   0  0  0  0  0  0  0  0  0  0  0  0
    2.1434    0.9925    0.0000 H   0  0  0  0  0  0  0  0  0  0  0  0
    1.2168    1.5275    0.0000 H   0  0  0  0  0  0  0  0  0  0  0  0
    1.9642    1.3410    0.0000 H   0  0  0  0  0  0  0  0  0  0  0  0
  1  2  1  0  0  0  0
  1 38  1  0  0  0  0
  1 39  1  0  0  0  0
  1 40  1  0  0  0  0
  2  3  1  0  0  0  0
  3  4  2  0  0  0  0
  3 37  1  0  0  0  0
  4  5  1  0  0  0  0
  4 41  1  0  0  0  0
  5  6  1  0  0  0  0
  5  8  2  0  0  0  0
  6  7  1  0  0  0  0
  7 42  1  0  0  0  0
  7 43  1  0  0  0  0
  7 44  1  0  0  0  0
  8  9  1  0  0  0  0
  8 45  1  0  0  0  0
  9 10  1  0  0  0  0
  9 37  2  0  0  0  0
 10 11  1  0  0  0  0
 10 46  1  0  0  0  0
 10 47  1  0  0  0  0
 11 12  1  0  0  0  0
 12 13  2  0  0  0  0
 12 19  1  0  0  0  0
 13 14  1  0  0  0  0
 13 48  1  0  0  0  0
 14 15  1  0  0  0  0
 14 16  2  0  0  0  0
 15 49  1  0  0  0  0
 15 50  1  0  0  0  0
 16 17  1  0  0  0  0
 16 18  1  0  0  0  0
 18 19  2  0  0  0  0
 18 51  1  0  0  0  0
 19 20  1  0  0  0  0
 20 21  2  0  0  0  0
 20 22  1  0  0  0  0
 22 23  1  0  0  0  0
 22 52  1  0  0  0  0
 22 53  1  0  0  0  0
 23 24  1  0  0  0  0
 23 54  1  0  0  0  0
 23 55  1  0  0  0  0
 24 25  1  0  0  0  0
 24 36  1  0  0  0  0
 24 56  1  0  0  0  0
 25 26  1  0  0  0  0
 25 57  1  0  0  0  0
 25 58  1  0  0  0  0
 26 27  1  0  0  0  0
 26 59  1  0  0  0  0
 26 60  1  0  0  0  0
 27 28  1  0  0  0  0
 27 35  1  0  0  0  0
 28 29  1  0  0  0  0
 28 61  1  0  0  0  0
 28 62  1  0  0  0  0
 29 30  1  0  0  0  0
 29 63  1  0  0  0  0
 29 64  1  0  0  0  0
 30 31  1  0  0  0  0
 30 65  1  0  0  0  0
 31 32  1  0  0  0  0
 31 33  2  0  0  0  0
 31 34  2  0  0  0  0
 32 66  1  0  0  0  0
 32 67  1  0  0  0  0
 32 68  1  0  0  0  0
 35 36  1  0  0  0  0
 35 69  1  0  0  0  0
 35 70  1  0  0  0  0
 36 71  1  0  0  0  0
 36 72  1  0  0  0  0
 37 73  1  0  0  0  0
M  END
>  <DRUGBANK_ID>
DB17050

>  <COMMON_NAME>
RS-39604

>  <CAS_NUMBER>
161362-65-8

>  <UNII>
0RP0I19CSC

>  <SYNONYMS>
Methanesulfonamide, n-(2-(4-(3-(4-amino-5-chloro-2-((3,5-dimethoxyphenyl)methoxy)phenyl)-3-oxopropyl)-1-piperidinyl)ethyl)-

$$$$
