
 OpenBabel10282417072D

 63 66  0  0  0  0  0  0  0  0999 V2000
    3.5724   -6.1875    0.0000 C   0  0  0  0  0  0  0  0  0  0  0  0
    3.5724   -5.3625    0.0000 C   0  0  0  0  0  0  0  0  0  0  0  0
    5.0013   -3.7125    0.0000 C   0  0  0  0  0  0  0  0  0  0  0  0
    3.5724   -3.7125    0.0000 C   0  0  0  0  0  0  0  0  0  0  0  0
    5.0013   -6.1875    0.0000 C   0  0  0  0  0  0  0  0  0  0  0  0
    5.7158   -4.9500    0.0000 C   0  0  0  0  0  0  0  0  0  0  0  0
    2.8080  -10.5031    0.0000 C   0  0  0  0  0  0  0  0  0  0  0  0
    5.0013   -2.8875    0.0000 C   0  0  0  0  0  0  0  0  0  0  0  0
    3.5724   -2.8875    0.0000 C   0  0  0  0  0  0  0  0  0  0  0  0
    5.7158   -6.6000    0.0000 C   0  0  0  0  0  0  0  0  0  0  0  0
    6.4302   -5.3625    0.0000 C   0  0  0  0  0  0  0  0  0  0  0  0
    3.1953  -11.2315    0.0000 C   0  0  0  0  0  0  0  0  0  0  0  0
    3.5724   -8.6625    0.0000 C   0  0  0  0  0  0  0  0  0  0  0  0
    2.1434   -8.6625    0.0000 C   0  0  0  0  0  0  0  0  0  0  0  0
    2.8579   -6.6000    0.0000 C   0  0  0  0  0  0  0  0  0  0  0  0
    3.5724   -7.8375    0.0000 C   0  0  0  0  0  0  0  0  0  0  0  0
    2.1434   -7.8375    0.0000 C   0  0  0  0  0  0  0  0  0  0  0  0
    4.0697   -9.8322    0.0000 C   0  0  0  0  0  0  0  0  0  0  0  0
    4.2868   -4.1250    0.0000 C   0  0  0  0  0  0  0  0  0  0  0  0
    5.0013   -5.3625    0.0000 C   0  0  0  0  0  0  0  0  0  0  0  0
    3.2452   -9.8034    0.0000 C   0  0  0  0  0  0  0  0  0  0  0  0
    4.2868   -2.4750    0.0000 C   0  0  0  0  0  0  0  0  0  0  0  0
    6.4302   -6.1875    0.0000 C   0  0  0  0  0  0  0  0  0  0  0  0
    4.2868   -4.9500    0.0000 C   0  0  0  0  0  0  0  0  0  0  0  0
    4.4570  -10.5607    0.0000 C   0  0  0  0  0  0  0  0  0  0  0  0
    4.0198  -11.2603    0.0000 C   0  0  0  0  0  0  0  0  0  0  0  0
    2.8579   -9.0750    0.0000 C   0  0  0  0  0  0  0  0  0  0  0  0
    5.2815  -10.5894    0.0000 C   0  0  0  0  0  0  0  0  0  0  0  0
    4.4071  -11.9887    0.0000 Cl  0  0  0  0  0  0  0  0  0  0  0  0
    4.2868   -1.6500    0.0000 F   0  0  0  0  0  0  0  0  0  0  0  0
    7.1447   -6.6000    0.0000 F   0  0  0  0  0  0  0  0  0  0  0  0
    6.1060  -10.6182    0.0000 F   0  0  0  0  0  0  0  0  0  0  0  0
    5.2527  -11.4139    0.0000 F   0  0  0  0  0  0  0  0  0  0  0  0
    5.3103   -9.7650    0.0000 F   0  0  0  0  0  0  0  0  0  0  0  0
    2.8579   -7.4250    0.0000 N   0  0  0  0  0  0  0  0  0  0  0  0
    2.4706   -9.8034    0.0000 O   0  0  0  0  0  0  0  0  0  0  0  0
    4.4990   -6.7225    0.0000 H   0  0  0  0  0  0  0  0  0  0  0  0
    3.5724   -7.2575    0.0000 H   0  0  0  0  0  0  0  0  0  0  0  0
    2.6457   -4.8275    0.0000 H   0  0  0  0  0  0  0  0  0  0  0  0
    3.5724   -4.2925    0.0000 H   0  0  0  0  0  0  0  0  0  0  0  0
    5.8950   -4.2285    0.0000 H   0  0  0  0  0  0  0  0  0  0  0  0
    2.6787   -4.2285    0.0000 H   0  0  0  0  0  0  0  0  0  0  0  0
    4.1076   -6.7035    0.0000 H   0  0  0  0  0  0  0  0  0  0  0  0
    5.7158   -3.9180    0.0000 H   0  0  0  0  0  0  0  0  0  0  0  0
    1.7766  -10.4671    0.0000 H   0  0  0  0  0  0  0  0  0  0  0  0
    5.8950   -2.3715    0.0000 H   0  0  0  0  0  0  0  0  0  0  0  0
    2.6787   -2.3715    0.0000 H   0  0  0  0  0  0  0  0  0  0  0  0
    5.7158   -7.6320    0.0000 H   0  0  0  0  0  0  0  0  0  0  0  0
    7.3239   -4.8465    0.0000 H   0  0  0  0  0  0  0  0  0  0  0  0
    2.6484  -12.1067    0.0000 H   0  0  0  0  0  0  0  0  0  0  0  0
    4.4990   -9.1975    0.0000 H   0  0  0  0  0  0  0  0  0  0  0  0
    3.5724   -9.7325    0.0000 H   0  0  0  0  0  0  0  0  0  0  0  0
    1.2168   -9.1975    0.0000 H   0  0  0  0  0  0  0  0  0  0  0  0
    2.1434   -9.7325    0.0000 H   0  0  0  0  0  0  0  0  0  0  0  0
    1.9313   -6.0650    0.0000 H   0  0  0  0  0  0  0  0  0  0  0  0
    1.9313   -7.1350    0.0000 H   0  0  0  0  0  0  0  0  0  0  0  0
    4.4990   -7.3025    0.0000 H   0  0  0  0  0  0  0  0  0  0  0  0
    3.5724   -6.7675    0.0000 H   0  0  0  0  0  0  0  0  0  0  0  0
    1.2168   -7.3025    0.0000 H   0  0  0  0  0  0  0  0  0  0  0  0
    2.1434   -6.7675    0.0000 H   0  0  0  0  0  0  0  0  0  0  0  0
    4.6166   -8.9570    0.0000 H   0  0  0  0  0  0  0  0  0  0  0  0
    5.2134   -4.4150    0.0000 H   0  0  0  0  0  0  0  0  0  0  0  0
    1.5012   -9.8372    0.0000 H   0  0  0  0  0  0  0  0  0  0  0  0
  1 37  1  0  0  0  0
  1 38  1  0  0  0  0
  2  1  1  0  0  0  0
  2 39  1  0  0  0  0
  2 40  1  0  0  0  0
  3 41  1  0  0  0  0
  4 42  1  0  0  0  0
  5 43  1  0  0  0  0
  6 44  1  0  0  0  0
  7 45  1  0  0  0  0
  8  3  1  0  0  0  0
  8 46  1  0  0  0  0
  9  4  2  0  0  0  0
  9 47  1  0  0  0  0
 10  5  1  0  0  0  0
 10 48  1  0  0  0  0
 11  6  2  0  0  0  0
 11 49  1  0  0  0  0
 12  7  2  0  0  0  0
 12 50  1  0  0  0  0
 13 51  1  0  0  0  0
 13 52  1  0  0  0  0
 14 53  1  0  0  0  0
 14 54  1  0  0  0  0
 15  1  1  0  0  0  0
 15 55  1  0  0  0  0
 15 56  1  0  0  0  0
 16 13  1  0  0  0  0
 16 57  1  0  0  0  0
 16 58  1  0  0  0  0
 17 14  1  0  0  0  0
 17 59  1  0  0  0  0
 17 60  1  0  0  0  0
 18 61  1  0  0  0  0
 19  3  2  0  0  0  0
 19  4  1  0  0  0  0
 20  5  2  0  0  0  0
 20  6  1  0  0  0  0
 21  7  1  0  0  0  0
 21 18  2  0  0  0  0
 22  8  2  0  0  0  0
 22  9  1  0  0  0  0
 23 10  2  0  0  0  0
 23 11  1  0  0  0  0
 24  2  1  0  0  0  0
 24 19  1  0  0  0  0
 24 20  1  0  0  0  0
 24 62  1  0  0  0  0
 25 18  1  0  0  0  0
 26 12  1  0  0  0  0
 26 25  2  0  0  0  0
 27 13  1  0  0  0  0
 27 14  1  0  0  0  0
 27 21  1  0  0  0  0
 28 25  1  0  0  0  0
 29 26  1  0  0  0  0
 30 22  1  0  0  0  0
 31 23  1  0  0  0  0
 32 28  1  0  0  0  0
 33 28  1  0  0  0  0
 34 28  1  0  0  0  0
 35 15  1  0  0  0  0
 35 16  1  0  0  0  0
 35 17  1  0  0  0  0
 36 27  1  0  0  0  0
 36 63  1  0  0  0  0
M  END
>  <DRUGBANK_ID>
DB13791

>  <COMMON_NAME>
Penfluridol

>  <CAS_NUMBER>
26864-56-2

>  <UNII>
25TLU22Q8H

>  <SYNONYMS>
Penfluridol

$$$$
