
 OpenBabel10282417072D

116116  0  0  1  0  0  0  0  0999 V2000
    6.8373  -12.2836    0.0000 C   0  0  0  0  0  0  0  0  0  0  0  0
    6.6627  -13.0899    0.0000 C   0  0  1  0  0  0  0  0  0  0  0  0
    7.2737  -13.6442    0.0000 O   0  0  0  0  0  0  0  0  0  0  0  0
    5.8772  -13.3418    0.0000 C   0  0  2  0  0  0  0  0  0  0  0  0
    5.7026  -14.1482    0.0000 N   0  0  0  0  0  0  0  0  0  0  0  0
    6.3136  -14.7025    0.0000 C   0  0  0  0  0  0  0  0  0  0  0  0
    7.0992  -14.4505    0.0000 O   0  0  0  0  0  0  0  0  0  0  0  0
    6.1390  -15.5088    0.0000 C   0  0  2  0  0  0  0  0  0  0  0  0
    6.7500  -16.0632    0.0000 C   0  0  0  0  0  0  0  0  0  0  0  0
    7.5356  -15.8112    0.0000 C   0  0  0  0  0  0  0  0  0  0  0  0
    7.7102  -15.0049    0.0000 C   0  0  0  0  0  0  0  0  0  0  0  0
    8.4958  -14.7529    0.0000 C   0  0  0  0  0  0  0  0  0  0  0  0
    9.1068  -15.3072    0.0000 C   0  0  0  0  0  0  0  0  0  0  0  0
    9.8923  -15.0553    0.0000 O   0  0  0  0  0  0  0  0  0  0  0  0
    8.9322  -16.1136    0.0000 C   0  0  0  0  0  0  0  0  0  0  0  0
    8.1466  -16.3655    0.0000 C   0  0  0  0  0  0  0  0  0  0  0  0
    5.3534  -15.7608    0.0000 N   0  0  0  0  0  0  0  0  0  0  0  0
    4.7424  -15.2065    0.0000 C   0  0  0  0  0  0  0  0  0  0  0  0
    4.9170  -14.4001    0.0000 O   0  0  0  0  0  0  0  0  0  0  0  0
    3.9569  -15.4584    0.0000 C   0  0  2  0  0  0  0  0  0  0  0  0
    3.7823  -16.2647    0.0000 C   0  0  0  0  0  0  0  0  0  0  0  0
    4.3933  -16.8191    0.0000 C   0  0  0  0  0  0  0  0  0  0  0  0
    5.1789  -16.5671    0.0000 N   0  0  0  0  0  0  0  0  0  0  0  0
    4.2187  -17.6254    0.0000 O   0  0  0  0  0  0  0  0  0  0  0  0
    3.3459  -14.9041    0.0000 N   0  0  0  0  0  0  0  0  0  0  0  0
    2.5603  -15.1561    0.0000 C   0  0  0  0  0  0  0  0  0  0  0  0
    2.3857  -15.9624    0.0000 O   0  0  0  0  0  0  0  0  0  0  0  0
    1.9493  -14.6017    0.0000 C   0  0  1  0  0  0  0  0  0  0  0  0
    1.1637  -14.8537    0.0000 N   0  0  0  0  0  0  0  0  0  0  0  0
    0.5527  -14.2993    0.0000 C   0  0  0  0  0  0  0  0  0  0  0  0
    0.7273  -13.4930    0.0000 O   0  0  0  0  0  0  0  0  0  0  0  0
   -0.2329  -14.5513    0.0000 C   0  0  1  0  0  0  0  0  0  0  0  0
   -0.8439  -13.9970    0.0000 N   0  0  0  0  0  0  0  0  0  0  0  0
   -1.6295  -14.2490    0.0000 C   0  0  0  0  0  0  0  0  0  0  0  0
   -1.8041  -15.0553    0.0000 O   0  0  0  0  0  0  0  0  0  0  0  0
   -2.2405  -13.6946    0.0000 C   0  0  1  0  0  0  0  0  0  0  0  0
   -3.0261  -13.9466    0.0000 N   0  0  0  0  0  0  0  0  0  0  0  0
   -3.6371  -13.3922    0.0000 C   0  0  0  0  0  0  0  0  0  0  0  0
   -3.4625  -12.5859    0.0000 O   0  0  0  0  0  0  0  0  0  0  0  0
   -4.4226  -13.6442    0.0000 C   0  0  2  0  0  0  0  0  0  0  0  0
   -4.5972  -14.4505    0.0000 C   0  0  0  0  0  0  0  0  0  0  0  0
   -5.3828  -14.7025    0.0000 O   0  0  0  0  0  0  0  0  0  0  0  0
   -5.0337  -13.0899    0.0000 N   0  0  0  0  0  0  0  0  0  0  0  0
   -5.8192  -13.3418    0.0000 C   0  0  0  0  0  0  0  0  0  0  0  0
   -5.9938  -14.1482    0.0000 O   0  0  0  0  0  0  0  0  0  0  0  0
   -6.4302  -12.7875    0.0000 C   0  0  1  0  0  0  0  0  0  0  0  0
   -7.2158  -13.0395    0.0000 C   0  0  0  0  0  0  0  0  0  0  0  0
   -6.2557  -11.9812    0.0000 N   0  0  0  0  0  0  0  0  0  0  0  0
   -2.0659  -12.8883    0.0000 C   0  0  1  0  0  0  0  0  0  0  0  0
   -2.6769  -12.3339    0.0000 C   0  0  0  0  0  0  0  0  0  0  0  0
   -1.2803  -12.6363    0.0000 O   0  0  0  0  0  0  0  0  0  0  0  0
   -0.4075  -15.3576    0.0000 C   0  0  1  0  0  0  0  0  0  0  0  0
   -1.1930  -15.6096    0.0000 C   0  0  0  0  0  0  0  0  0  0  0  0
    0.2035  -15.9120    0.0000 O   0  0  0  0  0  0  0  0  0  0  0  0
    2.1238  -13.7954    0.0000 C   0  0  1  0  0  0  0  0  0  0  0  0
    1.5128  -13.2411    0.0000 C   0  0  0  0  0  0  0  0  0  0  0  0
    2.9094  -13.5434    0.0000 O   0  0  0  0  0  0  0  0  0  0  0  0
    5.2662  -12.7875    0.0000 C   0  0  0  0  0  0  0  0  0  0  0  0
    4.4806  -13.0395    0.0000 N   0  0  0  0  0  0  0  0  0  0  0  0
    5.4407  -11.9812    0.0000 O   0  0  0  0  0  0  0  0  0  0  0  0
    7.8562  -11.9568    0.0000 H   0  0  0  0  0  0  0  0  0  0  0  0
    6.0449  -11.5646    0.0000 H   0  0  0  0  0  0  0  0  0  0  0  0
    7.0638  -11.2378    0.0000 H   0  0  0  0  0  0  0  0  0  0  0  0
    7.6816  -12.7631    0.0000 H   0  0  0  0  0  0  0  0  0  0  0  0
    7.0685  -14.5922    0.0000 H   0  0  0  0  0  0  0  0  0  0  0  0
    6.6696  -14.0608    0.0000 H   0  0  0  0  0  0  0  0  0  0  0  0
    4.7651  -14.4489    0.0000 H   0  0  0  0  0  0  0  0  0  0  0  0
    5.3465  -14.7898    0.0000 H   0  0  0  0  0  0  0  0  0  0  0  0
    6.5236  -17.1090    0.0000 H   0  0  0  0  0  0  0  0  0  0  0  0
    7.5425  -16.7822    0.0000 H   0  0  0  0  0  0  0  0  0  0  0  0
    6.9459  -14.3115    0.0000 H   0  0  0  0  0  0  0  0  0  0  0  0
    8.7141  -13.7443    0.0000 H   0  0  0  0  0  0  0  0  0  0  0  0
   10.5862  -15.6849    0.0000 H   0  0  0  0  0  0  0  0  0  0  0  0
    9.6965  -16.8071    0.0000 H   0  0  0  0  0  0  0  0  0  0  0  0
    7.9282  -17.3741    0.0000 H   0  0  0  0  0  0  0  0  0  0  0  0
    5.1451  -16.7230    0.0000 H   0  0  0  0  0  0  0  0  0  0  0  0
    4.1833  -14.4126    0.0000 H   0  0  0  0  0  0  0  0  0  0  0  0
    2.7634  -16.5915    0.0000 H   0  0  0  0  0  0  0  0  0  0  0  0
    3.5558  -17.3105    0.0000 H   0  0  0  0  0  0  0  0  0  0  0  0
    5.9080  -17.2286    0.0000 H   0  0  0  0  0  0  0  0  0  0  0  0
    5.3872  -15.6049    0.0000 H   0  0  0  0  0  0  0  0  0  0  0  0
    3.5542  -13.9419    0.0000 H   0  0  0  0  0  0  0  0  0  0  0  0
    1.7229  -15.6475    0.0000 H   0  0  0  0  0  0  0  0  0  0  0  0
    0.9554  -15.8159    0.0000 H   0  0  0  0  0  0  0  0  0  0  0  0
   -0.0065  -13.5055    0.0000 H   0  0  0  0  0  0  0  0  0  0  0  0
   -0.6356  -13.0348    0.0000 H   0  0  0  0  0  0  0  0  0  0  0  0
   -2.4669  -14.7404    0.0000 H   0  0  0  0  0  0  0  0  0  0  0  0
   -3.2344  -14.9088    0.0000 H   0  0  0  0  0  0  0  0  0  0  0  0
   -4.1963  -12.5984    0.0000 H   0  0  0  0  0  0  0  0  0  0  0  0
   -3.8047  -15.1695    0.0000 H   0  0  0  0  0  0  0  0  0  0  0  0
   -4.8236  -15.4963    0.0000 H   0  0  0  0  0  0  0  0  0  0  0  0
   -6.1012  -14.0507    0.0000 H   0  0  0  0  0  0  0  0  0  0  0  0
   -4.8254  -12.1277    0.0000 H   0  0  0  0  0  0  0  0  0  0  0  0
   -5.4113  -12.4606    0.0000 H   0  0  0  0  0  0  0  0  0  0  0  0
   -8.0083  -12.3205    0.0000 H   0  0  0  0  0  0  0  0  0  0  0  0
   -7.4422  -14.0853    0.0000 H   0  0  0  0  0  0  0  0  0  0  0  0
   -8.2347  -13.3663    0.0000 H   0  0  0  0  0  0  0  0  0  0  0  0
   -5.2845  -11.6696    0.0000 H   0  0  0  0  0  0  0  0  0  0  0  0
   -7.0112  -11.2959    0.0000 H   0  0  0  0  0  0  0  0  0  0  0  0
   -1.2734  -13.6073    0.0000 H   0  0  0  0  0  0  0  0  0  0  0  0
   -2.4504  -11.2881    0.0000 H   0  0  0  0  0  0  0  0  0  0  0  0
   -3.6958  -12.6606    0.0000 H   0  0  0  0  0  0  0  0  0  0  0  0
   -3.4693  -11.6149    0.0000 H   0  0  0  0  0  0  0  0  0  0  0  0
   -0.5619  -13.2881    0.0000 H   0  0  0  0  0  0  0  0  0  0  0  0
    0.6114  -15.0308    0.0000 H   0  0  0  0  0  0  0  0  0  0  0  0
   -1.9855  -14.8907    0.0000 H   0  0  0  0  0  0  0  0  0  0  0  0
   -1.4194  -16.6554    0.0000 H   0  0  0  0  0  0  0  0  0  0  0  0
   -2.2119  -15.9365    0.0000 H   0  0  0  0  0  0  0  0  0  0  0  0
   -0.0018  -16.8600    0.0000 H   0  0  0  0  0  0  0  0  0  0  0  0
    2.9163  -14.5143    0.0000 H   0  0  0  0  0  0  0  0  0  0  0  0
    1.7392  -12.1953    0.0000 H   0  0  0  0  0  0  0  0  0  0  0  0
    0.4939  -13.5679    0.0000 H   0  0  0  0  0  0  0  0  0  0  0  0
    0.7203  -12.5222    0.0000 H   0  0  0  0  0  0  0  0  0  0  0  0
    3.6278  -14.1952    0.0000 H   0  0  0  0  0  0  0  0  0  0  0  0
    3.7515  -12.3780    0.0000 H   0  0  0  0  0  0  0  0  0  0  0  0
    4.2723  -14.0017    0.0000 H   0  0  0  0  0  0  0  0  0  0  0  0
  1 61  1  0  0  0  0
  1 62  1  0  0  0  0
  1 63  1  0  0  0  0
  2  1  1  0  0  0  0
  2  3  1  0  0  0  0
  2  4  1  0  0  0  0
  2 64  1  6  0  0  0
  3 65  1  0  0  0  0
  4  5  1  0  0  0  0
  4 58  1  0  0  0  0
  4 66  1  1  0  0  0
  5  6  1  0  0  0  0
  5 67  1  0  0  0  0
  6  7  2  0  0  0  0
  8  6  1  0  0  0  0
  8  9  1  0  0  0  0
  8 17  1  0  0  0  0
  8 68  1  1  0  0  0
  9 10  1  0  0  0  0
  9 69  1  0  0  0  0
  9 70  1  0  0  0  0
 10 11  2  0  0  0  0
 10 16  1  0  0  0  0
 11 12  1  0  0  0  0
 11 71  1  0  0  0  0
 12 13  2  0  0  0  0
 12 72  1  0  0  0  0
 13 14  1  0  0  0  0
 13 15  1  0  0  0  0
 14 73  1  0  0  0  0
 15 16  2  0  0  0  0
 15 74  1  0  0  0  0
 16 75  1  0  0  0  0
 17 18  1  0  0  0  0
 17 76  1  0  0  0  0
 18 19  2  0  0  0  0
 20 18  1  0  0  0  0
 20 21  1  0  0  0  0
 20 25  1  0  0  0  0
 20 77  1  1  0  0  0
 21 22  1  0  0  0  0
 21 78  1  0  0  0  0
 21 79  1  0  0  0  0
 22 23  1  0  0  0  0
 22 24  2  0  0  0  0
 23 80  1  0  0  0  0
 23 81  1  0  0  0  0
 25 26  1  0  0  0  0
 25 82  1  0  0  0  0
 26 27  2  0  0  0  0
 28 26  1  0  0  0  0
 28 29  1  0  0  0  0
 28 55  1  0  0  0  0
 28 83  1  6  0  0  0
 29 30  1  0  0  0  0
 29 84  1  0  0  0  0
 30 31  2  0  0  0  0
 32 30  1  0  0  0  0
 32 33  1  0  0  0  0
 32 52  1  0  0  0  0
 32 85  1  1  0  0  0
 33 34  1  0  0  0  0
 33 86  1  0  0  0  0
 34 35  2  0  0  0  0
 36 34  1  0  0  0  0
 36 37  1  0  0  0  0
 36 49  1  0  0  0  0
 36 87  1  6  0  0  0
 37 38  1  0  0  0  0
 37 88  1  0  0  0  0
 38 39  2  0  0  0  0
 40 38  1  0  0  0  0
 40 41  1  0  0  0  0
 40 43  1  0  0  0  0
 40 89  1  1  0  0  0
 41 42  1  0  0  0  0
 41 90  1  0  0  0  0
 41 91  1  0  0  0  0
 42 92  1  0  0  0  0
 43 44  1  0  0  0  0
 43 93  1  0  0  0  0
 44 45  2  0  0  0  0
 46 44  1  0  0  0  0
 46 47  1  0  0  0  0
 46 48  1  0  0  0  0
 46 94  1  6  0  0  0
 47 95  1  0  0  0  0
 47 96  1  0  0  0  0
 47 97  1  0  0  0  0
 48 98  1  0  0  0  0
 48 99  1  0  0  0  0
 49 50  1  0  0  0  0
 49 51  1  0  0  0  0
 49100  1  6  0  0  0
 50101  1  0  0  0  0
 50102  1  0  0  0  0
 50103  1  0  0  0  0
 51104  1  0  0  0  0
 52 53  1  0  0  0  0
 52 54  1  0  0  0  0
 52105  1  1  0  0  0
 53106  1  0  0  0  0
 53107  1  0  0  0  0
 53108  1  0  0  0  0
 54109  1  0  0  0  0
 55 56  1  0  0  0  0
 55 57  1  0  0  0  0
 55110  1  6  0  0  0
 56111  1  0  0  0  0
 56112  1  0  0  0  0
 56113  1  0  0  0  0
 57114  1  0  0  0  0
 58 59  1  0  0  0  0
 58 60  2  0  0  0  0
 59115  1  0  0  0  0
 59116  1  0  0  0  0
M  END
>  <DRUGBANK_ID>
DB16290

>  <COMMON_NAME>
DAPTA

>  <CAS_NUMBER>
106362-34-9

>  <UNII>
J208V4ZMP2

>  <SYNONYMS>
Adaptavir; Peptide t amide, 1(d-ala)

$$$$
