
 OpenBabel10282417072D

 36 36  0  0  1  0  0  0  0  0999 V2000
   -1.2375   -0.9355    0.0000 C   0  0  0  0  0  0  0  0  0  0  0  0
   -1.4289   -1.6500    0.0000 C   0  0  0  0  0  0  0  0  0  0  0  0
    2.1434    1.2375    0.0000 C   0  0  0  0  0  0  0  0  0  0  0  0
    1.4289    0.8250    0.0000 C   0  0  2  0  0  0  0  0  0  0  0  0
    0.7145    1.2375    0.0000 C   0  0  2  0  0  0  0  0  0  0  0  0
    0.0000    0.8250    0.0000 C   0  0  1  0  0  0  0  0  0  0  0  0
    0.0000    0.0000    0.0000 C   0  0  2  0  0  0  0  0  0  0  0  0
    0.7145   -0.4125    0.0000 C   0  0  2  0  0  0  0  0  0  0  0  0
    0.7145   -1.2375    0.0000 N   0  0  0  0  0  0  0  0  0  0  0  0
    2.1434    2.0625    0.0000 O   0  0  0  0  0  0  0  0  0  0  0  0
    0.7145    2.0625    0.0000 O   0  0  0  0  0  0  0  0  0  0  0  0
   -0.7145    1.2375    0.0000 O   0  0  0  0  0  0  0  0  0  0  0  0
   -0.7145   -0.4125    0.0000 O   0  0  0  0  0  0  0  0  0  0  0  0
    0.4125   -2.3645    0.0000 O   0  0  0  0  0  0  0  0  0  0  0  0
   -0.4125   -0.9355    0.0000 O   0  0  0  0  0  0  0  0  0  0  0  0
   -0.7145   -2.0625    0.0000 O   0  0  0  0  0  0  0  0  0  0  0  0
    1.4289   -0.0000    0.0000 O   0  0  0  0  0  0  0  0  0  0  0  0
   -0.0000   -1.6500    0.0000 P   0  0  0  0  0  0  0  0  0  0  0  0
    1.1468    1.6002    0.0000 H   0  0  0  0  0  0  0  0  0  0  0  0
    1.2448    1.8695    0.0000 H   0  0  0  0  0  0  0  0  0  0  0  0
    0.0000    1.6500    0.0000 H   0  0  0  0  0  0  0  0  0  0  0  0
   -0.7145    0.4125    0.0000 H   0  0  0  0  0  0  0  0  0  0  0  0
   -0.0000   -0.8250    0.0000 H   0  0  0  0  0  0  0  0  0  0  0  0
   -1.7725   -0.0089    0.0000 H   0  0  0  0  0  0  0  0  0  0  0  0
   -1.7725   -1.8621    0.0000 H   0  0  0  0  0  0  0  0  0  0  0  0
   -2.3075   -0.9355    0.0000 H   0  0  0  0  0  0  0  0  0  0  0  0
   -1.4289   -0.5800    0.0000 H   0  0  0  0  0  0  0  0  0  0  0  0
   -2.3556   -2.1850    0.0000 H   0  0  0  0  0  0  0  0  0  0  0  0
   -2.3555   -1.1150    0.0000 H   0  0  0  0  0  0  0  0  0  0  0  0
    3.0700    0.7025    0.0000 H   0  0  0  0  0  0  0  0  0  0  0  0
    3.0700    1.7725    0.0000 H   0  0  0  0  0  0  0  0  0  0  0  0
    1.5978   -1.7475    0.0000 H   0  0  0  0  0  0  0  0  0  0  0  0
    2.9834    2.5475    0.0000 H   0  0  0  0  0  0  0  0  0  0  0  0
    1.5545    2.5475    0.0000 H   0  0  0  0  0  0  0  0  0  0  0  0
   -0.7145    2.2075    0.0000 H   0  0  0  0  0  0  0  0  0  0  0  0
   -1.5545    0.0725    0.0000 H   0  0  0  0  0  0  0  0  0  0  0  0
  1 24  1  0  0  0  0
  1 25  1  0  0  0  0
  1 26  1  0  0  0  0
  2 27  1  0  0  0  0
  2 28  1  0  0  0  0
  2 29  1  0  0  0  0
  3 30  1  0  0  0  0
  3 31  1  0  0  0  0
  4  3  1  0  0  0  0
  4 19  1  6  0  0  0
  5  4  1  0  0  0  0
  5 11  1  0  0  0  0
  5 20  1  1  0  0  0
  6  5  1  0  0  0  0
  6 12  1  0  0  0  0
  6 21  1  6  0  0  0
  7  6  1  0  0  0  0
  7 13  1  0  0  0  0
  7 22  1  1  0  0  0
  8  7  1  0  0  0  0
  8  9  1  0  0  0  0
  8 23  1  6  0  0  0
  9 32  1  0  0  0  0
 10  3  1  0  0  0  0
 10 33  1  0  0  0  0
 11 34  1  0  0  0  0
 12 35  1  0  0  0  0
 13 36  1  0  0  0  0
 15  1  1  0  0  0  0
 16  2  1  0  0  0  0
 17  4  1  0  0  0  0
 17  8  1  0  0  0  0
 18  9  1  0  0  0  0
 18 14  2  0  0  0  0
 18 15  1  0  0  0  0
 18 16  1  0  0  0  0
M  END
>  <DRUGBANK_ID>
DB03392

>  <SECONDARY_ACCESSION_NUMBERS>
EXPT01599

>  <COMMON_NAME>
(3,4,5-Trihydroxy-6-Hydroxymethyl-Tetrahydro-Pyran-2-Yl)-Phosphoramidic Acid Dimethyl Ester

$$$$
