HMDB02124.mol
 OpenBabel10282417072D

 30 32  0  0  0  0  0  0  0  0999 V2000
   -2.4992    0.2064    0.0000 C   0  0  0  0  0  0  0  0  0  0  0  0
   -2.4992   -0.6193    0.0000 C   0  0  0  0  0  0  0  0  0  0  0  0
   -1.7850   -1.0322    0.0000 C   0  0  0  0  0  0  0  0  0  0  0  0
   -1.0721   -0.6193    0.0000 C   0  0  0  0  0  0  0  0  0  0  0  0
   -1.0721    0.2064    0.0000 C   0  0  0  0  0  0  0  0  0  0  0  0
   -1.7850    0.6179    0.0000 C   0  0  0  0  0  0  0  0  0  0  0  0
   -0.3578   -1.0322    0.0000 C   0  0  0  0  0  0  0  0  0  0  0  0
    0.3551   -0.6193    0.0000 C   0  0  0  0  0  0  0  0  0  0  0  0
    0.3551    0.2064    0.0000 C   0  0  0  0  0  0  0  0  0  0  0  0
   -0.3578    0.6179    0.0000 O   0  0  0  0  0  0  0  0  0  0  0  0
   -0.3578   -1.8579    0.0000 O   0  0  0  0  0  0  0  0  0  0  0  0
    1.0707    0.6193    0.0000 C   0  0  0  0  0  0  0  0  0  0  0  0
    1.7863    0.2064    0.0000 C   0  0  0  0  0  0  0  0  0  0  0  0
    2.5006    0.6193    0.0000 C   0  0  0  0  0  0  0  0  0  0  0  0
    2.5006    1.4437    0.0000 C   0  0  0  0  0  0  0  0  0  0  0  0
    1.7863    1.8551    0.0000 C   0  0  0  0  0  0  0  0  0  0  0  0
    1.0707    1.4437    0.0000 C   0  0  0  0  0  0  0  0  0  0  0  0
    3.2149    1.8565    0.0000 O   0  0  0  0  0  0  0  0  0  0  0  0
   -1.7850   -1.8579    0.0000 O   0  0  0  0  0  0  0  0  0  0  0  0
   -3.2135    0.6193    0.0000 O   0  0  0  0  0  0  0  0  0  0  0  0
   -3.3931   -1.1350    0.0000 H   0  0  0  0  0  0  0  0  0  0  0  0
   -1.7846    1.6499    0.0000 H   0  0  0  0  0  0  0  0  0  0  0  0
    1.2492   -1.1347    0.0000 H   0  0  0  0  0  0  0  0  0  0  0  0
    1.7867   -0.8256    0.0000 H   0  0  0  0  0  0  0  0  0  0  0  0
    3.3945    0.1035    0.0000 H   0  0  0  0  0  0  0  0  0  0  0  0
    1.7867    2.8871    0.0000 H   0  0  0  0  0  0  0  0  0  0  0  0
    0.1774    1.9605    0.0000 H   0  0  0  0  0  0  0  0  0  0  0  0
    4.0266    1.3883    0.0000 H   0  0  0  0  0  0  0  0  0  0  0  0
   -2.5965   -2.3264    0.0000 H   0  0  0  0  0  0  0  0  0  0  0  0
   -3.2130    1.5563    0.0000 H   0  0  0  0  0  0  0  0  0  0  0  0
  1  2  2  0  0  0  0
  1  6  1  0  0  0  0
  1 20  1  0  0  0  0
  2  3  1  0  0  0  0
  2 21  1  0  0  0  0
  3  4  2  0  0  0  0
  3 19  1  0  0  0  0
  4  5  1  0  0  0  0
  4  7  1  0  0  0  0
  5  6  2  0  0  0  0
  5 10  1  0  0  0  0
  6 22  1  0  0  0  0
  7  8  1  0  0  0  0
  7 11  2  0  0  0  0
  8  9  2  0  0  0  0
  8 23  1  0  0  0  0
  9 10  1  0  0  0  0
  9 12  1  0  0  0  0
 12 13  2  0  0  0  0
 12 17  1  0  0  0  0
 13 14  1  0  0  0  0
 13 24  1  0  0  0  0
 14 15  2  0  0  0  0
 14 25  1  0  0  0  0
 15 16  1  0  0  0  0
 15 18  1  0  0  0  0
 16 17  2  0  0  0  0
 16 26  1  0  0  0  0
 17 27  1  0  0  0  0
 18 28  1  0  0  0  0
 19 29  1  0  0  0  0
 20 30  1  0  0  0  0
M  END
>  <DRUGBANK_ID>
DB07352

>  <COMMON_NAME>
Apigenin

>  <CAS_NUMBER>
520-36-5

>  <UNII>
7V515PI7F6

$$$$
