
 OpenBabel10282417072D

 40 43  0  0  0  0  0  0  0  0999 V2000
   -2.2350   -0.6167    0.0000 C   0  0  0  0  0  0  0  0  0  0  0  0
   -0.4797    2.2836    0.0000 C   0  0  0  0  0  0  0  0  0  0  0  0
    0.3071    2.5314    0.0000 C   0  0  0  0  0  0  0  0  0  0  0  0
   -0.6587    1.4782    0.0000 C   0  0  0  0  0  0  0  0  0  0  0  0
    0.9153    1.9738    0.0000 C   0  0  0  0  0  0  0  0  0  0  0  0
    2.2350    0.2649    0.0000 C   0  0  0  0  0  0  0  0  0  0  0  0
    1.9038   -0.4906    0.0000 C   0  0  0  0  0  0  0  0  0  0  0  0
    0.9261    0.8386    0.0000 C   0  0  0  0  0  0  0  0  0  0  0  0
   -0.6165   -1.3202    0.0000 C   0  0  0  0  0  0  0  0  0  0  0  0
   -1.4600    0.6326    0.0000 C   0  0  0  0  0  0  0  0  0  0  0  0
   -1.5292   -0.1895    0.0000 C   0  0  3  0  0  0  0  0  0  0  0  0
    1.7461    0.9296    0.0000 C   0  0  0  0  0  0  0  0  0  0  0  0
   -0.0505    0.9206    0.0000 C   0  0  0  0  0  0  0  0  0  0  0  0
    0.5949    0.0829    0.0000 C   0  0  0  0  0  0  0  0  0  0  0  0
    0.7364    1.1683    0.0000 C   0  0  0  0  0  0  0  0  0  0  0  0
    1.0838   -0.5816    0.0000 C   0  0  0  0  0  0  0  0  0  0  0  0
    0.1121   -1.7069    0.0000 C   0  0  0  0  0  0  0  0  0  0  0  0
   -0.2294    0.1151    0.0000 C   0  0  3  0  0  0  0  0  0  0  0  0
    2.0773    1.6852    0.0000 Cl  0  0  0  0  0  0  0  0  0  0  0  0
    1.5449    1.3325    0.0000 Cl  0  0  0  0  0  0  0  0  0  0  0  0
    0.8689   -1.3783    0.0000 N   0  0  0  0  0  0  0  0  0  0  0  0
   -0.7687   -0.5093    0.0000 N   0  0  3  0  0  0  0  0  0  0  0  0
    0.0799   -2.5314    0.0000 O   0  0  0  0  0  0  0  0  0  0  0  0
   -0.6568    0.8209    0.0000 O   0  0  0  0  0  0  0  0  0  0  0  0
   -3.1725   -0.1010    0.0000 H   0  0  0  0  0  0  0  0  0  0  0  0
   -2.2129   -1.6865    0.0000 H   0  0  0  0  0  0  0  0  0  0  0  0
   -3.1504   -1.1708    0.0000 H   0  0  0  0  0  0  0  0  0  0  0  0
   -1.2403    2.9811    0.0000 H   0  0  0  0  0  0  0  0  0  0  0  0
    0.5308    3.5389    0.0000 H   0  0  0  0  0  0  0  0  0  0  0  0
   -1.6431    1.1683    0.0000 H   0  0  0  0  0  0  0  0  0  0  0  0
    1.8996    2.2838    0.0000 H   0  0  0  0  0  0  0  0  0  0  0  0
    3.2607    0.3787    0.0000 H   0  0  0  0  0  0  0  0  0  0  0  0
    2.5152   -1.3220    0.0000 H   0  0  0  0  0  0  0  0  0  0  0  0
    0.3147    1.6700    0.0000 H   0  0  0  0  0  0  0  0  0  0  0  0
   -1.4784   -1.9542    0.0000 H   0  0  0  0  0  0  0  0  0  0  0  0
   -1.6119   -0.9278    0.0000 H   0  0  0  0  0  0  0  0  0  0  0  0
   -2.2699    1.3319    0.0000 H   0  0  0  0  0  0  0  0  0  0  0  0
   -1.2046    1.6717    0.0000 H   0  0  0  0  0  0  0  0  0  0  0  0
   -2.4385    0.3746    0.0000 H   0  0  0  0  0  0  0  0  0  0  0  0
   -0.7492   -2.9679    0.0000 H   0  0  0  0  0  0  0  0  0  0  0  0
  1 25  1  0  0  0  0
  1 26  1  0  0  0  0
  1 27  1  0  0  0  0
  2 28  1  0  0  0  0
  3  2  2  0  0  0  0
  3 29  1  0  0  0  0
  4  2  1  0  0  0  0
  4 30  1  0  0  0  0
  5  3  1  0  0  0  0
  5 31  1  0  0  0  0
  6 32  1  0  0  0  0
  7  6  2  0  0  0  0
  7 33  1  0  0  0  0
  8 34  1  0  0  0  0
  9 35  1  0  0  0  0
  9 36  1  0  0  0  0
 10 37  1  0  0  0  0
 10 38  1  0  0  0  0
 11  1  1  0  0  0  0
 11 10  1  0  0  0  0
 11 39  1  0  0  0  0
 12  6  1  0  0  0  0
 12  8  2  0  0  0  0
 13  4  2  0  0  0  0
 14  8  1  0  0  0  0
 15  5  2  0  0  0  0
 15 13  1  0  0  0  0
 16  7  1  0  0  0  0
 16 14  2  0  0  0  0
 17  9  1  0  0  0  0
 18 13  1  0  0  0  0
 18 14  1  0  0  0  0
 19 12  1  0  0  0  0
 20 15  1  0  0  0  0
 21 16  1  0  0  0  0
 21 17  2  0  0  0  0
 22  9  1  0  0  0  0
 22 11  1  0  0  0  0
 22 18  1  0  0  0  0
 23 17  1  0  0  0  0
 23 40  1  0  0  0  0
 24 10  1  0  0  0  0
 24 18  1  0  0  0  0
M  END
>  <DRUGBANK_ID>
DB15489

>  <COMMON_NAME>
Mexazolam

>  <CAS_NUMBER>
31868-18-5

>  <UNII>
S5969B6237

>  <SYNONYMS>
Mexazolam; Mexazolamum

$$$$
