
 OpenBabel10282417072D

 23 23  0  0  1  0  0  0  0  0999 V2000
   14.1389  -12.8057    0.0000 C   0  0  0  0  0  0  0  0  0  0  0  0
   12.9016  -12.0912    0.0000 C   0  0  0  0  0  0  0  0  0  0  0  0
   14.5514  -12.0912    0.0000 C   0  0  2  0  0  0  0  0  0  0  0  0
   13.3140  -11.3767    0.0000 C   0  0  0  0  0  0  0  0  0  0  0  0
   14.1389  -11.3767    0.0000 C   0  0  1  0  0  0  0  0  0  0  0  0
   13.3140  -13.6307    0.0000 C   0  0  0  0  0  0  0  0  0  0  0  0
   13.3140  -12.8057    0.0000 C   0  0  1  0  0  0  0  0  0  0  0  0
   15.3763  -12.0912    0.0000 O   0  0  0  0  0  0  0  0  0  0  0  0
   12.9016  -10.6621    0.0000 O   0  0  0  0  0  0  0  0  0  0  0  0
   14.5514  -10.6621    0.0000 O   0  0  0  0  0  0  0  0  0  0  0  0
   12.5995  -14.0431    0.0000 O   0  0  0  0  0  0  0  0  0  0  0  0
   14.0285  -14.0431    0.0000 O   0  0  0  0  0  0  0  0  0  0  0  0
   12.5995  -13.2182    0.0000 O   0  0  0  0  0  0  0  0  0  0  0  0
   14.6739  -13.7323    0.0000 H   0  0  0  0  0  0  0  0  0  0  0  0
   13.6039  -13.7323    0.0000 H   0  0  0  0  0  0  0  0  0  0  0  0
   11.8316  -12.0912    0.0000 H   0  0  0  0  0  0  0  0  0  0  0  0
   12.3665  -11.1646    0.0000 H   0  0  0  0  0  0  0  0  0  0  0  0
   15.0864  -13.0178    0.0000 H   0  0  0  0  0  0  0  0  0  0  0  0
   15.2089  -11.3767    0.0000 H   0  0  0  0  0  0  0  0  0  0  0  0
   15.8613  -12.9312    0.0000 H   0  0  0  0  0  0  0  0  0  0  0  0
   15.5214  -10.6620    0.0000 H   0  0  0  0  0  0  0  0  0  0  0  0
   11.7881  -13.5745    0.0000 H   0  0  0  0  0  0  0  0  0  0  0  0
   11.7595  -12.7332    0.0000 H   0  0  0  0  0  0  0  0  0  0  0  0
  1  3  1  0  0  0  0
  1  7  1  0  0  0  0
  1 14  1  0  0  0  0
  1 15  1  0  0  0  0
  2  7  1  0  0  0  0
  2  4  1  0  0  0  0
  2 16  1  0  0  0  0
  2 17  1  0  0  0  0
  3  8  1  0  0  0  0
  3  5  1  0  0  0  0
  3 18  1  1  0  0  0
  4  9  2  0  0  0  0
  4  5  1  0  0  0  0
  5 10  1  0  0  0  0
  5 19  1  6  0  0  0
  6 11  1  0  0  0  0
  6 12  2  0  0  0  0
  7  6  1  6  0  0  0
  7 13  1  0  0  0  0
  8 20  1  0  0  0  0
 10 21  1  0  0  0  0
 11 22  1  0  0  0  0
 13 23  1  0  0  0  0
M  END
>  <DRUGBANK_ID>
DB03868

>  <SECONDARY_ACCESSION_NUMBERS>
EXPT01264

>  <COMMON_NAME>
3-Dehydroquinic Acid

>  <UNII>
Q8HL497GUU

$$$$
