
 OpenBabel10282417072D

 37 38  0  0  0  0  0  0  0  0999 V2000
   -0.2073   -0.3578    0.0000 C   0  0  0  0  0  0  0  0  0  0  0  0
    0.2052    0.3566    0.0000 C   0  0  0  0  0  0  0  0  0  0  0  0
    1.0303    0.3566    0.0000 C   0  0  0  0  0  0  0  0  0  0  0  0
   -1.0323   -0.3578    0.0000 C   0  0  0  0  0  0  0  0  0  0  0  0
    1.4411   -0.3600    0.0000 C   0  0  0  0  0  0  0  0  0  0  0  0
    2.2654   -0.3604    0.0000 C   0  0  0  0  0  0  0  0  0  0  0  0
    2.6788    0.3545    0.0000 C   0  0  0  0  0  0  0  0  0  0  0  0
    2.2619    1.0715    0.0000 C   0  0  0  0  0  0  0  0  0  0  0  0
    1.4388    1.0683    0.0000 C   0  0  0  0  0  0  0  0  0  0  0  0
   -1.4410    0.3599    0.0000 C   0  0  0  0  0  0  0  0  0  0  0  0
   -2.2654    0.3604    0.0000 C   0  0  0  0  0  0  0  0  0  0  0  0
   -2.6787   -0.3546    0.0000 C   0  0  0  0  0  0  0  0  0  0  0  0
   -2.2617   -1.0716    0.0000 C   0  0  0  0  0  0  0  0  0  0  0  0
   -1.4388   -1.0683    0.0000 C   0  0  0  0  0  0  0  0  0  0  0  0
   -1.0262    1.0732    0.0000 O   0  0  0  0  0  0  0  0  0  0  0  0
   -3.5038   -0.3557    0.0000 C   0  0  0  0  0  0  0  0  0  0  0  0
   -3.9173    0.3582    0.0000 N   0  0  0  0  0  0  0  0  0  0  0  0
   -3.9153   -1.0708    0.0000 N   0  0  0  0  0  0  0  0  0  0  0  0
    3.5038    0.3557    0.0000 C   0  0  0  0  0  0  0  0  0  0  0  0
    3.9173   -0.3582    0.0000 N   0  0  0  0  0  0  0  0  0  0  0  0
    3.9154    1.0707    0.0000 N   0  0  0  0  0  0  0  0  0  0  0  0
    0.3087   -1.2515    0.0000 H   0  0  0  0  0  0  0  0  0  0  0  0
   -0.3108    1.2503    0.0000 H   0  0  0  0  0  0  0  0  0  0  0  0
    0.9235   -1.2528    0.0000 H   0  0  0  0  0  0  0  0  0  0  0  0
    2.7809   -1.2544    0.0000 H   0  0  0  0  0  0  0  0  0  0  0  0
    2.7748    1.9670    0.0000 H   0  0  0  0  0  0  0  0  0  0  0  0
    0.9199    1.9604    0.0000 H   0  0  0  0  0  0  0  0  0  0  0  0
   -2.7809    1.2544    0.0000 H   0  0  0  0  0  0  0  0  0  0  0  0
   -2.7745   -1.9672    0.0000 H   0  0  0  0  0  0  0  0  0  0  0  0
   -0.9193   -1.9600    0.0000 H   0  0  0  0  0  0  0  0  0  0  0  0
   -0.0892    1.0703    0.0000 H   0  0  0  0  0  0  0  0  0  0  0  0
   -3.4262    1.2115    0.0000 H   0  0  0  0  0  0  0  0  0  0  0  0
   -4.8998   -1.0722    0.0000 H   0  0  0  0  0  0  0  0  0  0  0  0
   -3.4218   -1.9227    0.0000 H   0  0  0  0  0  0  0  0  0  0  0  0
    3.4262   -1.2115    0.0000 H   0  0  0  0  0  0  0  0  0  0  0  0
    4.8999    1.0719    0.0000 H   0  0  0  0  0  0  0  0  0  0  0  0
    3.4221    1.9227    0.0000 H   0  0  0  0  0  0  0  0  0  0  0  0
  1  4  1  0  0  0  0
  1  2  2  0  0  0  0
  1 22  1  0  0  0  0
  2  3  1  0  0  0  0
  2 23  1  0  0  0  0
  3  5  2  0  0  0  0
  4 10  2  0  0  0  0
  5  6  1  0  0  0  0
  5 24  1  0  0  0  0
  6  7  2  0  0  0  0
  6 25  1  0  0  0  0
  7  8  1  0  0  0  0
  7 19  1  0  0  0  0
  8  9  2  0  0  0  0
  8 26  1  0  0  0  0
  9  3  1  0  0  0  0
  9 27  1  0  0  0  0
 10 11  1  0  0  0  0
 10 15  1  0  0  0  0
 11 12  2  0  0  0  0
 11 28  1  0  0  0  0
 12 16  1  0  0  0  0
 12 13  1  0  0  0  0
 13 14  2  0  0  0  0
 13 29  1  0  0  0  0
 14  4  1  0  0  0  0
 14 30  1  0  0  0  0
 15 31  1  0  0  0  0
 16 17  2  0  0  0  0
 16 18  1  0  0  0  0
 17 32  1  0  0  0  0
 18 33  1  0  0  0  0
 18 34  1  0  0  0  0
 19 20  2  0  0  0  0
 19 21  1  0  0  0  0
 20 35  1  0  0  0  0
 21 36  1  0  0  0  0
 21 37  1  0  0  0  0
M  END
>  <DRUGBANK_ID>
DB14753

>  <COMMON_NAME>
Hydroxystilbamidine

>  <CAS_NUMBER>
495-99-8

>  <UNII>
39J262E49W

>  <SYNONYMS>
2-Hydroxy-4,4'-diguanylstilbene; 2-Hydroxy-4,4'-stilbenedicarboxamidine; Hidroxiestilbamidina; Hydroxystilbamidine; Hydroxystilbamidinum; Idrossistilbamidina; Oxistilbamidinum

$$$$
