
 OpenBabel10282417072D

 33 34  0  0  1  0  0  0  0  0999 V2000
    2.0367    1.1759    0.0000 C   0  0  0  0  0  0  0  0  0  0  0  0
    2.0367    2.0009    0.0000 C   0  0  0  0  0  0  0  0  0  0  0  0
    2.7512    2.4134    0.0000 C   0  0  0  0  0  0  0  0  0  0  0  0
    2.7512    3.2384    0.0000 O   0  0  0  0  0  0  0  0  0  0  0  0
    3.4656    2.0009    0.0000 N   0  0  0  0  0  0  0  0  0  0  0  0
    3.4656    1.1759    0.0000 C   0  0  0  0  0  0  0  0  0  0  0  0
    4.1801    0.7634    0.0000 O   0  0  0  0  0  0  0  0  0  0  0  0
    2.7512    0.7634    0.0000 N   0  0  0  0  0  0  0  0  0  0  0  0
    2.7512   -0.0616    0.0000 C   0  0  1  0  0  0  0  0  0  0  0  0
    3.4186   -0.5465    0.0000 C   0  0  2  0  0  0  0  0  0  0  0  0
    3.1637   -1.3312    0.0000 C   0  0  1  0  0  0  0  0  0  0  0  0
    2.3387   -1.3312    0.0000 C   0  0  2  0  0  0  0  0  0  0  0  0
    2.0837   -0.5465    0.0000 O   0  0  0  0  0  0  0  0  0  0  0  0
    1.8538   -1.9986    0.0000 C   0  0  0  0  0  0  0  0  0  0  0  0
    2.1893   -2.7523    0.0000 O   0  0  0  0  0  0  0  0  0  0  0  0
    3.6486   -1.9986    0.0000 O   0  0  0  0  0  0  0  0  0  0  0  0
    4.2032   -0.2916    0.0000 O   0  0  0  0  0  0  0  0  0  0  0  0
    1.3222    2.4134    0.0000 C   0  0  0  0  0  0  0  0  0  0  0  0
    1.3222    3.2384    0.0000 C   0  0  0  0  0  0  0  0  0  0  0  0
    0.6078    3.6509    0.0000 Br  0  0  0  0  0  0  0  0  0  0  0  0
    1.1430    0.6599    0.0000 H   0  0  0  0  0  0  0  0  0  0  0  0
    4.3182    2.4931    0.0000 H   0  0  0  0  0  0  0  0  0  0  0  0
    3.7046    0.4242    0.0000 H   0  0  0  0  0  0  0  0  0  0  0  0
    3.5860    0.5103    0.0000 H   0  0  0  0  0  0  0  0  0  0  0  0
    4.2205   -1.1638    0.0000 H   0  0  0  0  0  0  0  0  0  0  0  0
    2.8245   -2.2846    0.0000 H   0  0  0  0  0  0  0  0  0  0  0  0
    0.7897   -1.8867    0.0000 H   0  0  0  0  0  0  0  0  0  0  0  0
    1.2248   -2.8642    0.0000 H   0  0  0  0  0  0  0  0  0  0  0  0
    1.6191   -3.5370    0.0000 H   0  0  0  0  0  0  0  0  0  0  0  0
    3.2541   -2.8847    0.0000 H   0  0  0  0  0  0  0  0  0  0  0  0
    4.9240   -0.9407    0.0000 H   0  0  0  0  0  0  0  0  0  0  0  0
    0.4285    1.8974    0.0000 H   0  0  0  0  0  0  0  0  0  0  0  0
    2.2159    3.7544    0.0000 H   0  0  0  0  0  0  0  0  0  0  0  0
  1  2  2  0  0  0  0
  1  8  1  0  0  0  0
  1 21  1  0  0  0  0
  2  3  1  0  0  0  0
  2 18  1  0  0  0  0
  3  4  2  0  0  0  0
  3  5  1  0  0  0  0
  5  6  1  0  0  0  0
  5 22  1  0  0  0  0
  6  7  2  0  0  0  0
  6  8  1  0  0  0  0
  9  8  1  0  0  0  0
  9 10  1  0  0  0  0
  9 13  1  0  0  0  0
  9 23  1  6  0  0  0
 10 11  1  0  0  0  0
 10 17  1  0  0  0  0
 10 24  1  6  0  0  0
 11 12  1  0  0  0  0
 11 16  1  0  0  0  0
 11 25  1  1  0  0  0
 12 13  1  0  0  0  0
 12 14  1  0  0  0  0
 12 26  1  6  0  0  0
 14 15  1  0  0  0  0
 14 27  1  0  0  0  0
 14 28  1  0  0  0  0
 15 29  1  0  0  0  0
 16 30  1  0  0  0  0
 17 31  1  0  0  0  0
 18 19  2  0  0  0  0
 18 32  1  0  0  0  0
 19 20  1  0  0  0  0
 19 33  1  0  0  0  0
M  END
>  <DRUGBANK_ID>
DB11998

>  <COMMON_NAME>
Sorivudine

>  <CAS_NUMBER>
77181-69-2

>  <UNII>
C7VOZ162LV

>  <SYNONYMS>
Sorivudine

$$$$
