
 OpenBabel10282417072D

 49 52  0  0  0  0  0  0  0  0999 V2000
    5.9784    0.6456    0.0000 Cl  0  0  0  0  0  0  0  0  0  0  0  0
    3.2522    0.6456    0.0000 S   0  0  0  0  0  0  0  0  0  0  0  0
    4.6153    0.5620    0.0000 S   0  0  0  0  0  0  0  0  0  0  0  0
   -5.2729   -0.1913    0.0000 F   0  0  0  0  0  0  0  0  0  0  0  0
   -2.4153    0.6456    0.0000 O   0  0  0  0  0  0  0  0  0  0  0  0
   -1.0163   -1.8414    0.0000 O   0  0  0  0  0  0  0  0  0  0  0  0
    2.8338   -0.2032    0.0000 O   0  0  0  0  0  0  0  0  0  0  0  0
    3.6588   -0.2032    0.0000 O   0  0  0  0  0  0  0  0  0  0  0  0
    1.8414   -0.1913    0.0000 O   0  0  0  0  0  0  0  0  0  0  0  0
   -1.7218   -0.5978    0.0000 N   0  0  0  0  0  0  0  0  0  0  0  0
   -2.4153   -1.8414    0.0000 N   0  0  0  0  0  0  0  0  0  0  0  0
    2.5468    1.0522    0.0000 N   0  0  0  0  0  0  0  0  0  0  0  0
    1.1359    1.0522    0.0000 N   0  0  0  0  0  0  0  0  0  0  0  0
   -5.2729   -1.8414    0.0000 N   0  0  0  0  0  0  0  0  0  0  0  0
   -3.1208   -0.5978    0.0000 C   0  0  0  0  0  0  0  0  0  0  0  0
   -2.4153   -0.1913    0.0000 C   0  0  0  0  0  0  0  0  0  0  0  0
   -3.1208   -1.4228    0.0000 C   0  0  0  0  0  0  0  0  0  0  0  0
   -1.7218   -1.4228    0.0000 C   0  0  0  0  0  0  0  0  0  0  0  0
   -1.0163   -0.1913    0.0000 C   0  0  0  0  0  0  0  0  0  0  0  0
   -3.8740   -0.1913    0.0000 C   0  0  0  0  0  0  0  0  0  0  0  0
   -3.8740   -1.8414    0.0000 C   0  0  0  0  0  0  0  0  0  0  0  0
   -4.5675   -1.4228    0.0000 C   0  0  0  0  0  0  0  0  0  0  0  0
   -4.5675   -0.5978    0.0000 C   0  0  0  0  0  0  0  0  0  0  0  0
    3.9458    1.0522    0.0000 C   0  0  0  0  0  0  0  0  0  0  0  0
   -1.0163    0.6456    0.0000 C   0  0  0  0  0  0  0  0  0  0  0  0
   -0.3109   -0.5978    0.0000 C   0  0  0  0  0  0  0  0  0  0  0  0
    0.4304    0.6456    0.0000 C   0  0  0  0  0  0  0  0  0  0  0  0
    1.8414    0.6456    0.0000 C   0  0  0  0  0  0  0  0  0  0  0  0
   -0.2630    1.0522    0.0000 C   0  0  0  0  0  0  0  0  0  0  0  0
    0.4304   -0.1913    0.0000 C   0  0  0  0  0  0  0  0  0  0  0  0
    4.1969    1.8414    0.0000 C   0  0  0  0  0  0  0  0  0  0  0  0
    5.2729    1.0522    0.0000 C   0  0  0  0  0  0  0  0  0  0  0  0
    5.0219    1.8414    0.0000 C   0  0  0  0  0  0  0  0  0  0  0  0
   -5.9784   -1.4228    0.0000 C   0  0  0  0  0  0  0  0  0  0  0  0
   -2.4116   -2.8259    0.0000 H   0  0  0  0  0  0  0  0  0  0  0  0
    2.5468    2.0367    0.0000 H   0  0  0  0  0  0  0  0  0  0  0  0
    1.1359    2.0367    0.0000 H   0  0  0  0  0  0  0  0  0  0  0  0
   -5.2729   -2.8259    0.0000 H   0  0  0  0  0  0  0  0  0  0  0  0
   -3.8922    0.8405    0.0000 H   0  0  0  0  0  0  0  0  0  0  0  0
   -3.8925   -2.8732    0.0000 H   0  0  0  0  0  0  0  0  0  0  0  0
   -1.9026    1.1744    0.0000 H   0  0  0  0  0  0  0  0  0  0  0  0
   -0.3218   -1.6297    0.0000 H   0  0  0  0  0  0  0  0  0  0  0  0
   -0.2447    2.0840    0.0000 H   0  0  0  0  0  0  0  0  0  0  0  0
    1.3184   -0.7171    0.0000 H   0  0  0  0  0  0  0  0  0  0  0  0
    3.5878    2.6744    0.0000 H   0  0  0  0  0  0  0  0  0  0  0  0
    5.6311    2.6744    0.0000 H   0  0  0  0  0  0  0  0  0  0  0  0
   -5.9657   -0.3529    0.0000 H   0  0  0  0  0  0  0  0  0  0  0  0
   -6.9114   -1.9467    0.0000 H   0  0  0  0  0  0  0  0  0  0  0  0
   -6.8986   -0.8768    0.0000 H   0  0  0  0  0  0  0  0  0  0  0  0
  1 32  1  0  0  0  0
  2  7  2  0  0  0  0
  2  8  2  0  0  0  0
  2 12  1  0  0  0  0
  2 24  1  0  0  0  0
  3 24  1  0  0  0  0
  3 32  1  0  0  0  0
  4 23  1  0  0  0  0
  5 16  2  0  0  0  0
  6 18  2  0  0  0  0
  9 28  2  0  0  0  0
 10 16  1  0  0  0  0
 10 18  1  0  0  0  0
 10 19  1  0  0  0  0
 11 17  1  0  0  0  0
 11 18  1  0  0  0  0
 11 35  1  0  0  0  0
 12 28  1  0  0  0  0
 12 36  1  0  0  0  0
 13 27  1  0  0  0  0
 13 28  1  0  0  0  0
 13 37  1  0  0  0  0
 14 22  1  0  0  0  0
 14 34  1  0  0  0  0
 14 38  1  0  0  0  0
 15 16  1  0  0  0  0
 15 17  1  0  0  0  0
 15 20  2  0  0  0  0
 17 21  2  0  0  0  0
 19 25  2  0  0  0  0
 19 26  1  0  0  0  0
 20 23  1  0  0  0  0
 20 39  1  0  0  0  0
 21 22  1  0  0  0  0
 21 40  1  0  0  0  0
 22 23  2  0  0  0  0
 24 31  2  0  0  0  0
 25 29  1  0  0  0  0
 25 41  1  0  0  0  0
 26 30  2  0  0  0  0
 26 42  1  0  0  0  0
 27 29  2  0  0  0  0
 27 30  1  0  0  0  0
 29 43  1  0  0  0  0
 30 44  1  0  0  0  0
 31 33  1  0  0  0  0
 31 45  1  0  0  0  0
 32 33  2  0  0  0  0
 33 46  1  0  0  0  0
 34 47  1  0  0  0  0
 34 48  1  0  0  0  0
 34 49  1  0  0  0  0
M  END
>  <DRUGBANK_ID>
DB06350

>  <COMMON_NAME>
Elinogrel

>  <CAS_NUMBER>
936500-94-6

>  <UNII>
915Y8E749J

>  <SYNONYMS>
Elinogrel

$$$$
