
 OpenBabel10282417072D

 38 41  0  0  0  0  0  0  0  0999 V2000
   -0.8166    0.5235    0.0000 C   0  0  0  0  0  0  0  0  0  0  0  0
   -0.0414    0.8057    0.0000 C   0  0  0  0  0  0  0  0  0  0  0  0
    0.5906    0.2754    0.0000 C   0  0  0  0  0  0  0  0  0  0  0  0
    0.4474   -0.5371    0.0000 C   0  0  0  0  0  0  0  0  0  0  0  0
   -0.3279   -0.8192    0.0000 C   0  0  0  0  0  0  0  0  0  0  0  0
   -0.9599   -0.2889    0.0000 C   0  0  0  0  0  0  0  0  0  0  0  0
    1.0793   -1.0674    0.0000 C   0  0  0  0  0  0  0  0  0  0  0  0
    1.4918   -1.7818    0.0000 C   0  0  0  0  0  0  0  0  0  0  0  0
    0.6668   -1.7818    0.0000 C   0  0  3  0  0  0  0  0  0  0  0  0
   -0.0476   -2.1943    0.0000 C   0  0  0  0  0  0  0  0  0  0  0  0
   -0.1339   -3.0148    0.0000 N   0  0  0  0  0  0  0  0  0  0  0  0
   -0.9408   -3.1863    0.0000 C   0  0  0  0  0  0  0  0  0  0  0  0
   -1.3533   -2.4719    0.0000 C   0  0  0  0  0  0  0  0  0  0  0  0
   -0.8013   -1.8588    0.0000 N   0  0  0  0  0  0  0  0  0  0  0  0
    1.7113   -0.5371    0.0000 C   0  0  0  0  0  0  0  0  0  0  0  0
    1.5681    0.2754    0.0000 C   0  0  0  0  0  0  0  0  0  0  0  0
    2.2001    0.8057    0.0000 C   0  0  0  0  0  0  0  0  0  0  0  0
    2.9753    0.5235    0.0000 C   0  0  0  0  0  0  0  0  0  0  0  0
    3.1186   -0.2889    0.0000 C   0  0  0  0  0  0  0  0  0  0  0  0
    2.4866   -0.8192    0.0000 C   0  0  0  0  0  0  0  0  0  0  0  0
   -1.6072    1.1869    0.0000 H   0  0  0  0  0  0  0  0  0  0  0  0
    0.1378    1.8220    0.0000 H   0  0  0  0  0  0  0  0  0  0  0  0
    1.5603    0.6284    0.0000 H   0  0  0  0  0  0  0  0  0  0  0  0
   -0.5071   -1.8355    0.0000 H   0  0  0  0  0  0  0  0  0  0  0  0
   -1.9297   -0.6418    0.0000 H   0  0  0  0  0  0  0  0  0  0  0  0
    2.4185   -2.3168    0.0000 H   0  0  0  0  0  0  0  0  0  0  0  0
    1.2149   -2.8153    0.0000 H   0  0  0  0  0  0  0  0  0  0  0  0
    1.5935   -1.2468    0.0000 H   0  0  0  0  0  0  0  0  0  0  0  0
   -1.3760   -4.1638    0.0000 H   0  0  0  0  0  0  0  0  0  0  0  0
   -2.0093   -3.2423    0.0000 H   0  0  0  0  0  0  0  0  0  0  0  0
   -2.4174   -2.3601    0.0000 H   0  0  0  0  0  0  0  0  0  0  0  0
   -1.7368   -1.4730    0.0000 H   0  0  0  0  0  0  0  0  0  0  0  0
   -1.0060   -0.8958    0.0000 H   0  0  0  0  0  0  0  0  0  0  0  0
    0.5984    0.6284    0.0000 H   0  0  0  0  0  0  0  0  0  0  0  0
    2.0209    1.8220    0.0000 H   0  0  0  0  0  0  0  0  0  0  0  0
    3.7659    1.1869    0.0000 H   0  0  0  0  0  0  0  0  0  0  0  0
    4.0884   -0.6418    0.0000 H   0  0  0  0  0  0  0  0  0  0  0  0
    2.6658   -1.8355    0.0000 H   0  0  0  0  0  0  0  0  0  0  0  0
  1  2  2  0  0  0  0
  1  6  1  0  0  0  0
  1 21  1  0  0  0  0
  2  3  1  0  0  0  0
  2 22  1  0  0  0  0
  3  4  2  0  0  0  0
  3 23  1  0  0  0  0
  4  5  1  0  0  0  0
  4  7  1  0  0  0  0
  5  6  2  0  0  0  0
  5 24  1  0  0  0  0
  6 25  1  0  0  0  0
  7  8  1  0  0  0  0
  7  9  1  0  0  0  0
  7 15  1  0  0  0  0
  8  9  1  0  0  0  0
  8 26  1  0  0  0  0
  8 27  1  0  0  0  0
  9 10  1  0  0  0  0
  9 28  1  0  0  0  0
 10 11  2  0  0  0  0
 10 14  1  0  0  0  0
 11 12  1  0  0  0  0
 12 13  1  0  0  0  0
 12 29  1  0  0  0  0
 12 30  1  0  0  0  0
 13 14  1  0  0  0  0
 13 31  1  0  0  0  0
 13 32  1  0  0  0  0
 14 33  1  0  0  0  0
 15 16  2  0  0  0  0
 15 20  1  0  0  0  0
 16 17  1  0  0  0  0
 16 34  1  0  0  0  0
 17 18  2  0  0  0  0
 17 35  1  0  0  0  0
 18 19  1  0  0  0  0
 18 36  1  0  0  0  0
 19 20  2  0  0  0  0
 19 37  1  0  0  0  0
 20 38  1  0  0  0  0
M  END
>  <DRUGBANK_ID>
DB13358

>  <COMMON_NAME>
Cibenzoline

>  <CAS_NUMBER>
53267-01-9

>  <UNII>
Z7489237QT

>  <SYNONYMS>
Cibenzoline; Cifenline

$$$$
