
 OpenBabel10282417072D

 23 25  0  0  0  0  0  0  0  0999 V2000
    0.7145    3.0151    0.0000 S   0  0  0  0  0  0  0  0  0  0  0  0
    1.5395    3.0151    0.0000 P   0  0  0  0  0  0  0  0  0  0  0  0
    1.5395    2.1901    0.0000 N   0  0  0  0  0  0  0  0  0  0  0  0
    1.9520    1.4757    0.0000 C   0  0  0  0  0  0  0  0  0  0  0  0
    1.1270    1.4757    0.0000 C   0  0  0  0  0  0  0  0  0  0  0  0
    1.5395    3.8401    0.0000 N   0  0  0  0  0  0  0  0  0  0  0  0
    1.1270    4.5546    0.0000 C   0  0  0  0  0  0  0  0  0  0  0  0
    1.9520    4.5546    0.0000 C   0  0  0  0  0  0  0  0  0  0  0  0
    2.3645    3.0151    0.0000 N   0  0  0  0  0  0  0  0  0  0  0  0
    3.0789    3.4276    0.0000 C   0  0  0  0  0  0  0  0  0  0  0  0
    3.0789    2.6026    0.0000 C   0  0  0  0  0  0  0  0  0  0  0  0
    2.8787    0.9407    0.0000 H   0  0  0  0  0  0  0  0  0  0  0  0
    1.6751    0.4422    0.0000 H   0  0  0  0  0  0  0  0  0  0  0  0
    0.2003    0.9407    0.0000 H   0  0  0  0  0  0  0  0  0  0  0  0
    0.3704    2.2323    0.0000 H   0  0  0  0  0  0  0  0  0  0  0  0
    0.2004    5.0896    0.0000 H   0  0  0  0  0  0  0  0  0  0  0  0
    1.4039    5.5881    0.0000 H   0  0  0  0  0  0  0  0  0  0  0  0
    2.8786    5.0896    0.0000 H   0  0  0  0  0  0  0  0  0  0  0  0
    2.7086    3.7980    0.0000 H   0  0  0  0  0  0  0  0  0  0  0  0
    3.6139    4.3543    0.0000 H   0  0  0  0  0  0  0  0  0  0  0  0
    4.1124    3.1507    0.0000 H   0  0  0  0  0  0  0  0  0  0  0  0
    3.6139    1.6759    0.0000 H   0  0  0  0  0  0  0  0  0  0  0  0
    2.3223    1.8460    0.0000 H   0  0  0  0  0  0  0  0  0  0  0  0
  1  2  2  0  0  0  0
  2  3  1  0  0  0  0
  2  6  1  0  0  0  0
  2  9  1  0  0  0  0
  3  4  1  0  0  0  0
  3  5  1  0  0  0  0
  4  5  1  0  0  0  0
  4 12  1  0  0  0  0
  4 13  1  0  0  0  0
  5 14  1  0  0  0  0
  5 15  1  0  0  0  0
  6  7  1  0  0  0  0
  6  8  1  0  0  0  0
  7  8  1  0  0  0  0
  7 16  1  0  0  0  0
  7 17  1  0  0  0  0
  8 18  1  0  0  0  0
  8 19  1  0  0  0  0
  9 10  1  0  0  0  0
  9 11  1  0  0  0  0
 10 11  1  0  0  0  0
 10 20  1  0  0  0  0
 10 21  1  0  0  0  0
 11 22  1  0  0  0  0
 11 23  1  0  0  0  0
M  END
>  <DRUGBANK_ID>
DB04572

>  <COMMON_NAME>
Thiotepa

>  <CAS_NUMBER>
52-24-4

>  <UNII>
905Z5W3GKH

>  <SYNONYMS>
Thiotepa

$$$$
