
 OpenBabel10282417072D

 81 88  0  0  0  0  0  0  0  0999 V2000
   -1.6487    0.7096    0.0000 C   0  0  0  0  0  0  0  0  0  0  0  0
   -0.7096    1.6696    0.0000 C   0  0  0  0  0  0  0  0  0  0  0  0
    0.0000    2.0870    0.0000 C   0  0  0  0  0  0  0  0  0  0  0  0
    0.7305    1.6696    0.0000 C   0  0  0  0  0  0  0  0  0  0  0  0
    1.6696    0.7096    0.0000 C   0  0  0  0  0  0  0  0  0  0  0  0
    2.0871    0.0000    0.0000 C   0  0  0  0  0  0  0  0  0  0  0  0
    1.6696   -0.7096    0.0000 C   0  0  0  0  0  0  0  0  0  0  0  0
    0.7305   -1.6697    0.0000 C   0  0  0  0  0  0  0  0  0  0  0  0
    0.0000   -2.0871    0.0000 C   0  0  0  0  0  0  0  0  0  0  0  0
   -0.7096   -1.6697    0.0000 C   0  0  0  0  0  0  0  0  0  0  0  0
   -1.6487   -0.7096    0.0000 C   0  0  0  0  0  0  0  0  0  0  0  0
   -2.0661    0.0000    0.0000 C   0  0  0  0  0  0  0  0  0  0  0  0
    0.8557    0.8557    0.0000 N   0  3  0  0  0  0  0  0  0  0  0  0
    0.8557   -0.8557    0.0000 N   0  0  0  0  0  0  0  0  0  0  0  0
   -0.8348   -0.8557    0.0000 N   0  3  0  0  0  0  0  0  0  0  0  0
   -2.0244    1.4609    0.0000 C   0  0  0  0  0  0  0  0  0  0  0  0
   -2.8213    1.6744    0.0000 C   0  0  0  0  0  0  0  0  0  0  0  0
    1.4610    2.0453    0.0000 C   0  0  0  0  0  0  0  0  0  0  0  0
    1.6745    2.8422    0.0000 C   0  0  0  0  0  0  0  0  0  0  0  0
    2.0662   -1.4609    0.0000 C   0  0  0  0  0  0  0  0  0  0  0  0
    2.8630   -1.6744    0.0000 C   0  0  0  0  0  0  0  0  0  0  0  0
   -2.0244   -1.4609    0.0000 C   0  0  0  0  0  0  0  0  0  0  0  0
   -2.8213   -1.6744    0.0000 C   0  0  0  0  0  0  0  0  0  0  0  0
   -1.4400    2.0453    0.0000 C   0  0  0  0  0  0  0  0  0  0  0  0
   -1.6535    2.8422    0.0000 C   0  0  3  0  0  0  0  0  0  0  0  0
   -2.4504    3.0557    0.0000 S   0  0  0  0  0  0  0  0  0  0  0  0
    2.0662    1.4609    0.0000 C   0  0  0  0  0  0  0  0  0  0  0  0
    2.8630    1.6744    0.0000 C   0  0  3  0  0  0  0  0  0  0  0  0
    3.0765    2.4713    0.0000 S   0  0  0  0  0  0  0  0  0  0  0  0
   -1.4400   -2.0453    0.0000 C   0  0  0  0  0  0  0  0  0  0  0  0
   -1.6535   -2.8422    0.0000 C   0  0  0  0  0  0  0  0  0  0  0  0
   -2.4504   -3.0557    0.0000 C   0  0  0  0  0  0  0  0  0  0  0  0
    1.4610   -2.0453    0.0000 C   0  0  0  0  0  0  0  0  0  0  0  0
    1.6745   -2.8422    0.0000 C   0  0  0  0  0  0  0  0  0  0  0  0
    2.4714   -3.0557    0.0000 C   0  0  0  0  0  0  0  0  0  0  0  0
   -3.4608   -4.0661    0.0000 O   0  0  0  0  0  0  0  0  0  0  0  0
   -2.6639   -3.8526    0.0000 C   0  0  0  0  0  0  0  0  0  0  0  0
   -2.0806   -4.4360    0.0000 O   0  0  0  0  0  0  0  0  0  0  0  0
    2.1016   -4.4360    0.0000 O   0  0  0  0  0  0  0  0  0  0  0  0
    2.6848   -3.8526    0.0000 C   0  0  0  0  0  0  0  0  0  0  0  0
    3.4817   -4.0661    0.0000 O   0  0  0  0  0  0  0  0  0  0  0  0
   -0.8348    0.8557    0.0000 N   0  0  0  0  0  0  0  0  0  0  0  0
    0.0000    0.0000    0.0000 Fe  0  6  3  0  0  0  0  0  0  0  0  0
   -1.0701    3.4256    0.0000 C   0  0  0  0  0  0  0  0  0  0  0  0
    3.4464    1.0910    0.0000 C   0  0  0  0  0  0  0  0  0  0  0  0
   -0.0065    3.1190    0.0000 H   0  0  0  0  0  0  0  0  0  0  0  0
    3.1191    0.0000    0.0000 H   0  0  0  0  0  0  0  0  0  0  0  0
   -0.0065   -3.1191    0.0000 H   0  0  0  0  0  0  0  0  0  0  0  0
   -3.0981    0.0000    0.0000 H   0  0  0  0  0  0  0  0  0  0  0  0
   -3.0983    2.7079    0.0000 H   0  0  0  0  0  0  0  0  0  0  0  0
   -3.5779    0.9178    0.0000 H   0  0  0  0  0  0  0  0  0  0  0  0
   -3.8548    1.9513    0.0000 H   0  0  0  0  0  0  0  0  0  0  0  0
    2.7080    3.1192    0.0000 H   0  0  0  0  0  0  0  0  0  0  0  0
    0.9179    3.5988    0.0000 H   0  0  0  0  0  0  0  0  0  0  0  0
    1.9514    3.8757    0.0000 H   0  0  0  0  0  0  0  0  0  0  0  0
    3.1399   -2.7079    0.0000 H   0  0  0  0  0  0  0  0  0  0  0  0
    3.6196   -0.9178    0.0000 H   0  0  0  0  0  0  0  0  0  0  0  0
    3.8965   -1.9513    0.0000 H   0  0  0  0  0  0  0  0  0  0  0  0
   -3.5779   -0.9178    0.0000 H   0  0  0  0  0  0  0  0  0  0  0  0
   -3.0983   -2.7079    0.0000 H   0  0  0  0  0  0  0  0  0  0  0  0
   -3.8548   -1.9513    0.0000 H   0  0  0  0  0  0  0  0  0  0  0  0
   -2.4101    2.0856    0.0000 H   0  0  0  0  0  0  0  0  0  0  0  0
   -2.8024    4.3693    0.0000 H   0  0  0  0  0  0  0  0  0  0  0  0
    2.1064    2.4310    0.0000 H   0  0  0  0  0  0  0  0  0  0  0  0
    4.3901    2.8233    0.0000 H   0  0  0  0  0  0  0  0  0  0  0  0
   -0.8969   -3.5988    0.0000 H   0  0  0  0  0  0  0  0  0  0  0  0
   -1.9305   -3.8757    0.0000 H   0  0  0  0  0  0  0  0  0  0  0  0
   -3.2070   -2.2991    0.0000 H   0  0  0  0  0  0  0  0  0  0  0  0
   -3.4839   -3.3327    0.0000 H   0  0  0  0  0  0  0  0  0  0  0  0
    0.9179   -3.5988    0.0000 H   0  0  0  0  0  0  0  0  0  0  0  0
    1.9515   -3.8757    0.0000 H   0  0  0  0  0  0  0  0  0  0  0  0
    3.2280   -2.2991    0.0000 H   0  0  0  0  0  0  0  0  0  0  0  0
    3.5049   -3.3327    0.0000 H   0  0  0  0  0  0  0  0  0  0  0  0
   -4.1233   -3.4035    0.0000 H   0  0  0  0  0  0  0  0  0  0  0  0
    1.1965   -4.1936    0.0000 H   0  0  0  0  0  0  0  0  0  0  0  0
   -0.0366    3.1487    0.0000 H   0  0  0  0  0  0  0  0  0  0  0  0
   -1.3470    4.4591    0.0000 H   0  0  0  0  0  0  0  0  0  0  0  0
   -0.3135    4.1822    0.0000 H   0  0  0  0  0  0  0  0  0  0  0  0
    3.1695    0.0575    0.0000 H   0  0  0  0  0  0  0  0  0  0  0  0
    4.4799    1.3679    0.0000 H   0  0  0  0  0  0  0  0  0  0  0  0
    4.2030    0.3344    0.0000 H   0  0  0  0  0  0  0  0  0  0  0  0
  1 42  1  0  0  0  0
  1 12  1  0  0  0  0
  2  3  1  0  0  0  0
  3  4  2  0  0  0  0
  3 46  1  0  0  0  0
  4 13  1  0  0  0  0
  5  6  1  0  0  0  0
  6  7  2  0  0  0  0
  6 47  1  0  0  0  0
  7 14  1  0  0  0  0
  7 20  1  0  0  0  0
  8  9  2  0  0  0  0
  9 48  1  0  0  0  0
 10  9  1  0  0  0  0
 11 12  2  0  0  0  0
 12 49  1  0  0  0  0
 13  5  2  0  0  0  0
 13 43  1  0  0  0  0
 14  8  1  0  0  0  0
 15 10  2  0  0  0  0
 15 11  1  0  0  0  0
 15 43  1  0  0  0  0
 16  1  2  0  0  0  0
 16 17  1  0  0  0  0
 17 50  1  0  0  0  0
 17 51  1  0  0  0  0
 17 52  1  0  0  0  0
 18  4  1  0  0  0  0
 18 27  2  0  0  0  0
 18 19  1  0  0  0  0
 19 53  1  0  0  0  0
 19 54  1  0  0  0  0
 19 55  1  0  0  0  0
 20 33  2  0  0  0  0
 20 21  1  0  0  0  0
 21 56  1  0  0  0  0
 21 57  1  0  0  0  0
 21 58  1  0  0  0  0
 22 11  1  0  0  0  0
 22 30  2  0  0  0  0
 22 23  1  0  0  0  0
 23 59  1  0  0  0  0
 23 60  1  0  0  0  0
 23 61  1  0  0  0  0
 24  2  2  0  0  0  0
 24 16  1  0  0  0  0
 24 25  1  0  0  0  0
 25 26  1  0  0  0  0
 25 44  1  0  0  0  0
 25 62  1  0  0  0  0
 26 63  1  0  0  0  0
 27  5  1  0  0  0  0
 27 28  1  0  0  0  0
 28 29  1  0  0  0  0
 28 45  1  0  0  0  0
 28 64  1  0  0  0  0
 29 65  1  0  0  0  0
 30 10  1  0  0  0  0
 30 31  1  0  0  0  0
 31 32  1  0  0  0  0
 31 66  1  0  0  0  0
 31 67  1  0  0  0  0
 32 37  1  0  0  0  0
 32 68  1  0  0  0  0
 32 69  1  0  0  0  0
 33  8  1  0  0  0  0
 33 34  1  0  0  0  0
 34 35  1  0  0  0  0
 34 70  1  0  0  0  0
 34 71  1  0  0  0  0
 35 40  1  0  0  0  0
 35 72  1  0  0  0  0
 35 73  1  0  0  0  0
 36 74  1  0  0  0  0
 37 36  1  0  0  0  0
 37 38  2  0  0  0  0
 39 75  1  0  0  0  0
 40 39  1  0  0  0  0
 40 41  2  0  0  0  0
 42  2  1  0  0  0  0
 42 43  1  0  0  0  0
 43 14  1  0  0  0  0
 44 76  1  0  0  0  0
 44 77  1  0  0  0  0
 44 78  1  0  0  0  0
 45 79  1  0  0  0  0
 45 80  1  0  0  0  0
 45 81  1  0  0  0  0
M  CHG  3  13   1  15   1  43  -2
M  END
>  <DRUGBANK_ID>
DB03317

>  <SECONDARY_ACCESSION_NUMBERS>
EXPT01722

>  <COMMON_NAME>
Ferroheme C

>  <CAS_NUMBER>
26598-29-8

>  <SYNONYMS>
Heme C

$$$$
