J80
 OpenBabel10282417072D

 60 62  0  0  0  0  0  0  0  0999 V2000
   -5.9350   -1.8285    0.0000 C   0  0  0  0  0  0  0  0  0  0  0  0
   -5.2205   -1.4160    0.0000 C   0  0  0  0  0  0  0  0  0  0  0  0
   -5.2205   -0.5910    0.0000 C   0  0  0  0  0  0  0  0  0  0  0  0
   -4.5061   -0.1785    0.0000 C   0  0  0  0  0  0  0  0  0  0  0  0
   -3.7916   -0.5910    0.0000 C   0  0  0  0  0  0  0  0  0  0  0  0
   -3.7916   -1.4160    0.0000 N   0  0  0  0  0  0  0  0  0  0  0  0
   -4.5061   -1.8285    0.0000 N   0  0  0  0  0  0  0  0  0  0  0  0
   -3.0771   -0.1785    0.0000 N   0  0  0  0  0  0  0  0  0  0  0  0
   -3.0771    0.6465    0.0000 C   0  0  0  0  0  0  0  0  0  0  0  0
   -2.3627    1.0590    0.0000 C   0  0  0  0  0  0  0  0  0  0  0  0
   -1.6482    0.6465    0.0000 C   0  0  0  0  0  0  0  0  0  0  0  0
   -1.6482   -0.1785    0.0000 C   0  0  0  0  0  0  0  0  0  0  0  0
   -2.3627   -0.5910    0.0000 C   0  0  0  0  0  0  0  0  0  0  0  0
   -0.9337    1.0590    0.0000 C   0  0  0  0  0  0  0  0  0  0  0  0
   -0.2192    0.6465    0.0000 C   0  0  0  0  0  0  0  0  0  0  0  0
    0.4952    1.0590    0.0000 C   0  0  0  0  0  0  0  0  0  0  0  0
    1.2097    0.6465    0.0000 C   0  0  0  0  0  0  0  0  0  0  0  0
    1.9242    1.0590    0.0000 O   0  0  0  0  0  0  0  0  0  0  0  0
    2.6386    0.6465    0.0000 C   0  0  0  0  0  0  0  0  0  0  0  0
    3.3531    1.0590    0.0000 C   0  0  0  0  0  0  0  0  0  0  0  0
    4.0676    0.6465    0.0000 C   0  0  0  0  0  0  0  0  0  0  0  0
    4.0676   -0.1785    0.0000 C   0  0  0  0  0  0  0  0  0  0  0  0
    3.3531   -0.5910    0.0000 C   0  0  0  0  0  0  0  0  0  0  0  0
    2.6386   -0.1785    0.0000 C   0  0  0  0  0  0  0  0  0  0  0  0
    4.7820   -0.5910    0.0000 C   0  0  0  0  0  0  0  0  0  0  0  0
    4.7820   -1.4160    0.0000 O   0  0  0  0  0  0  0  0  0  0  0  0
    5.4965   -0.1785    0.0000 O   0  0  0  0  0  0  0  0  0  0  0  0
    6.2110   -0.5910    0.0000 C   0  0  0  0  0  0  0  0  0  0  0  0
    6.9255   -0.1785    0.0000 C   0  0  0  0  0  0  0  0  0  0  0  0
   -6.8616   -1.2935    0.0000 H   0  0  0  0  0  0  0  0  0  0  0  0
   -5.9350   -2.8985    0.0000 H   0  0  0  0  0  0  0  0  0  0  0  0
   -6.8617   -2.3635    0.0000 H   0  0  0  0  0  0  0  0  0  0  0  0
   -6.1142   -0.0750    0.0000 H   0  0  0  0  0  0  0  0  0  0  0  0
   -4.5061    0.8535    0.0000 H   0  0  0  0  0  0  0  0  0  0  0  0
   -4.0038    1.1815    0.0000 H   0  0  0  0  0  0  0  0  0  0  0  0
   -3.0771    1.7165    0.0000 H   0  0  0  0  0  0  0  0  0  0  0  0
   -2.3627    2.1290    0.0000 H   0  0  0  0  0  0  0  0  0  0  0  0
   -1.4361    1.5940    0.0000 H   0  0  0  0  0  0  0  0  0  0  0  0
   -0.7216    0.1115    0.0000 H   0  0  0  0  0  0  0  0  0  0  0  0
   -0.7216   -0.7135    0.0000 H   0  0  0  0  0  0  0  0  0  0  0  0
   -1.6482   -1.2485    0.0000 H   0  0  0  0  0  0  0  0  0  0  0  0
   -2.3627   -1.6610    0.0000 H   0  0  0  0  0  0  0  0  0  0  0  0
   -1.4361   -1.1260    0.0000 H   0  0  0  0  0  0  0  0  0  0  0  0
   -0.9337    2.1290    0.0000 H   0  0  0  0  0  0  0  0  0  0  0  0
   -0.0071    1.5940    0.0000 H   0  0  0  0  0  0  0  0  0  0  0  0
   -0.2192   -0.4235    0.0000 H   0  0  0  0  0  0  0  0  0  0  0  0
    0.7075    0.1115    0.0000 H   0  0  0  0  0  0  0  0  0  0  0  0
    0.4952    2.1290    0.0000 H   0  0  0  0  0  0  0  0  0  0  0  0
    1.4218    1.5940    0.0000 H   0  0  0  0  0  0  0  0  0  0  0  0
    1.2097   -0.4235    0.0000 H   0  0  0  0  0  0  0  0  0  0  0  0
    2.1363    0.1115    0.0000 H   0  0  0  0  0  0  0  0  0  0  0  0
    3.3531    2.0910    0.0000 H   0  0  0  0  0  0  0  0  0  0  0  0
    4.9613    1.1625    0.0000 H   0  0  0  0  0  0  0  0  0  0  0  0
    3.3531   -1.6230    0.0000 H   0  0  0  0  0  0  0  0  0  0  0  0
    1.7449   -0.6945    0.0000 H   0  0  0  0  0  0  0  0  0  0  0  0
    6.2110   -1.6610    0.0000 H   0  0  0  0  0  0  0  0  0  0  0  0
    7.1376   -1.1260    0.0000 H   0  0  0  0  0  0  0  0  0  0  0  0
    7.8521   -0.7135    0.0000 H   0  0  0  0  0  0  0  0  0  0  0  0
    6.9255    0.8915    0.0000 H   0  0  0  0  0  0  0  0  0  0  0  0
    7.8522    0.3565    0.0000 H   0  0  0  0  0  0  0  0  0  0  0  0
  1  2  1  0  0  0  0
  1 30  1  0  0  0  0
  1 31  1  0  0  0  0
  1 32  1  0  0  0  0
  2  3  1  0  0  0  0
  2  7  2  0  0  0  0
  3  4  2  0  0  0  0
  3 33  1  0  0  0  0
  4  5  1  0  0  0  0
  4 34  1  0  0  0  0
  5  6  2  0  0  0  0
  5  8  1  0  0  0  0
  6  7  1  0  0  0  0
  8  9  1  0  0  0  0
  8 13  1  0  0  0  0
  9 10  1  0  0  0  0
  9 35  1  0  0  0  0
  9 36  1  0  0  0  0
 10 11  1  0  0  0  0
 10 37  1  0  0  0  0
 10 38  1  0  0  0  0
 11 12  1  0  0  0  0
 11 14  1  0  0  0  0
 11 39  1  0  0  0  0
 12 13  1  0  0  0  0
 12 40  1  0  0  0  0
 12 41  1  0  0  0  0
 13 42  1  0  0  0  0
 13 43  1  0  0  0  0
 14 15  1  0  0  0  0
 14 44  1  0  0  0  0
 14 45  1  0  0  0  0
 15 16  1  0  0  0  0
 15 46  1  0  0  0  0
 15 47  1  0  0  0  0
 16 17  1  0  0  0  0
 16 48  1  0  0  0  0
 16 49  1  0  0  0  0
 17 18  1  0  0  0  0
 17 50  1  0  0  0  0
 17 51  1  0  0  0  0
 18 19  1  0  0  0  0
 19 20  2  0  0  0  0
 19 24  1  0  0  0  0
 20 21  1  0  0  0  0
 20 52  1  0  0  0  0
 21 22  2  0  0  0  0
 21 53  1  0  0  0  0
 22 23  1  0  0  0  0
 22 25  1  0  0  0  0
 23 24  2  0  0  0  0
 23 54  1  0  0  0  0
 24 55  1  0  0  0  0
 25 26  2  0  0  0  0
 25 27  1  0  0  0  0
 27 28  1  0  0  0  0
 28 29  1  0  0  0  0
 28 56  1  0  0  0  0
 28 57  1  0  0  0  0
 29 58  1  0  0  0  0
 29 59  1  0  0  0  0
 29 60  1  0  0  0  0
M  END
>  <DRUGBANK_ID>
DB08014

>  <COMMON_NAME>
(METHYLPYRIDAZINE PIPERIDINE BUTYLOXYPHENYL)ETHYLACETATE

$$$$
