
 OpenBabel10282417072D

102106  0  0  1  0  0  0  0  0999 V2000
    7.2607    0.1836    0.0000 O   0  0  0  0  0  0  0  0  0  0  0  0
    6.6001   -0.7254    0.0000 O   0  0  0  0  0  0  0  0  0  0  0  0
    5.7751   -3.5834    0.0000 O   0  0  0  0  0  0  0  0  0  0  0  0
    9.7238    1.8515    0.0000 O   0  0  0  0  0  0  0  0  0  0  0  0
    7.8548    2.9791    0.0000 O   0  0  0  0  0  0  0  0  0  0  0  0
    2.8876   -2.8689    0.0000 O   0  0  0  0  0  0  0  0  0  0  0  0
    7.8377   -1.4399    0.0000 N   0  0  0  0  0  0  0  0  0  0  0  0
    8.6197    0.6253    0.0000 N   0  0  0  0  0  0  0  0  0  0  0  0
    5.7751   -2.1545    0.0000 N   0  0  0  0  0  0  0  0  0  0  0  0
    4.1251   -2.1545    0.0000 N   0  0  0  0  0  0  0  0  0  0  0  0
    9.2139    3.4208    0.0000 N   0  0  0  0  0  0  0  0  0  0  0  0
    2.0625   -1.4399    0.0000 N   0  0  0  0  0  0  0  0  0  0  0  0
    2.8876   -0.0110    0.0000 N   0  0  0  0  0  0  0  0  0  0  0  0
    9.1072   -1.0274    0.0000 C   0  0  1  0  0  0  0  0  0  0  0  0
    9.1072   -1.8524    0.0000 C   0  0  1  0  0  0  0  0  0  0  0  0
    8.3226   -0.7725    0.0000 C   0  0  1  0  0  0  0  0  0  0  0  0
    9.8879   -0.7760    0.0000 C   0  0  0  0  0  0  0  0  0  0  0  0
    9.8879   -2.1039    0.0000 C   0  0  0  0  0  0  0  0  0  0  0  0
    8.3226   -2.1074    0.0000 C   0  0  0  0  0  0  0  0  0  0  0  0
   10.3694   -1.4399    0.0000 C   0  0  0  0  0  0  0  0  0  0  0  0
    8.0677    0.0121    0.0000 C   0  0  0  0  0  0  0  0  0  0  0  0
    7.0127   -1.4399    0.0000 C   0  0  0  0  0  0  0  0  0  0  0  0
    6.6001   -2.1545    0.0000 C   0  0  2  0  0  0  0  0  0  0  0  0
    7.0127   -2.8689    0.0000 C   0  0  0  0  0  0  0  0  0  0  0  0
    8.3648    1.4099    0.0000 C   0  0  1  0  0  0  0  0  0  0  0  0
    7.4252   -3.5834    0.0000 C   0  0  0  0  0  0  0  0  0  0  0  0
    6.2982   -3.2814    0.0000 C   0  0  0  0  0  0  0  0  0  0  0  0
    7.7271   -2.4564    0.0000 C   0  0  0  0  0  0  0  0  0  0  0  0
    4.1251   -3.5834    0.0000 C   0  0  0  0  0  0  0  0  0  0  0  0
    4.5376   -2.8689    0.0000 C   0  0  1  0  0  0  0  0  0  0  0  0
    5.3626   -2.8689    0.0000 C   0  0  0  0  0  0  0  0  0  0  0  0
    7.5577    1.5814    0.0000 C   0  0  0  0  0  0  0  0  0  0  0  0
    3.3001   -3.5834    0.0000 C   0  0  0  0  0  0  0  0  0  0  0  0
    4.5376   -4.2979    0.0000 C   0  0  0  0  0  0  0  0  0  0  0  0
    8.9168    2.0230    0.0000 C   0  0  0  0  0  0  0  0  0  0  0  0
    2.8876   -4.2979    0.0000 C   0  0  0  0  0  0  0  0  0  0  0  0
    4.1251   -5.0124    0.0000 C   0  0  0  0  0  0  0  0  0  0  0  0
    3.3001   -5.0124    0.0000 C   0  0  0  0  0  0  0  0  0  0  0  0
    8.9590    4.2054    0.0000 C   0  0  0  0  0  0  0  0  0  0  0  0
    7.3028    2.3661    0.0000 C   0  0  0  0  0  0  0  0  0  0  0  0
    9.1305    5.0124    0.0000 C   0  0  0  0  0  0  0  0  0  0  0  0
    8.3459    4.7575    0.0000 C   0  0  0  0  0  0  0  0  0  0  0  0
    8.6619    2.8076    0.0000 C   0  0  0  0  0  0  0  0  0  0  0  0
    6.4959    2.5376    0.0000 C   0  0  0  0  0  0  0  0  0  0  0  0
    3.3001   -2.1545    0.0000 C   0  0  0  0  0  0  0  0  0  0  0  0
    2.8876   -1.4399    0.0000 C   0  0  0  0  0  0  0  0  0  0  0  0
    3.3001   -0.7254    0.0000 C   0  0  0  0  0  0  0  0  0  0  0  0
    1.6500   -0.7254    0.0000 C   0  0  0  0  0  0  0  0  0  0  0  0
    2.0625   -0.0110    0.0000 C   0  0  0  0  0  0  0  0  0  0  0  0
    9.1081   -0.3674    0.0000 H   0  0  0  0  0  0  0  0  0  0  0  0
    9.1081   -2.5124    0.0000 H   0  0  0  0  0  0  0  0  0  0  0  0
    9.5827    0.4206    0.0000 H   0  0  0  0  0  0  0  0  0  0  0  0
    5.2829   -1.3019    0.0000 H   0  0  0  0  0  0  0  0  0  0  0  0
    4.6173   -1.3019    0.0000 H   0  0  0  0  0  0  0  0  0  0  0  0
   10.1769    3.2161    0.0000 H   0  0  0  0  0  0  0  0  0  0  0  0
    7.2658   -0.6051    0.0000 H   0  0  0  0  0  0  0  0  0  0  0  0
   10.2203    0.2411    0.0000 H   0  0  0  0  0  0  0  0  0  0  0  0
   10.9449   -0.6100    0.0000 H   0  0  0  0  0  0  0  0  0  0  0  0
   10.2203   -3.1210    0.0000 H   0  0  0  0  0  0  0  0  0  0  0  0
   10.9449   -2.2699    0.0000 H   0  0  0  0  0  0  0  0  0  0  0  0
    7.9920   -3.1250    0.0000 H   0  0  0  0  0  0  0  0  0  0  0  0
    9.0792   -2.8640    0.0000 H   0  0  0  0  0  0  0  0  0  0  0  0
   11.4394   -1.4399    0.0000 H   0  0  0  0  0  0  0  0  0  0  0  0
   10.8556   -2.3930    0.0000 H   0  0  0  0  0  0  0  0  0  0  0  0
    6.0651   -1.2278    0.0000 H   0  0  0  0  0  0  0  0  0  0  0  0
    7.6488    0.6147    0.0000 H   0  0  0  0  0  0  0  0  0  0  0  0
    6.8902   -4.5100    0.0000 H   0  0  0  0  0  0  0  0  0  0  0  0
    8.4952   -3.5834    0.0000 H   0  0  0  0  0  0  0  0  0  0  0  0
    7.9602   -4.5101    0.0000 H   0  0  0  0  0  0  0  0  0  0  0  0
    5.3716   -2.7464    0.0000 H   0  0  0  0  0  0  0  0  0  0  0  0
    6.2982   -4.3514    0.0000 H   0  0  0  0  0  0  0  0  0  0  0  0
    5.3715   -3.8164    0.0000 H   0  0  0  0  0  0  0  0  0  0  0  0
    8.6538   -2.9914    0.0000 H   0  0  0  0  0  0  0  0  0  0  0  0
    7.7271   -1.3864    0.0000 H   0  0  0  0  0  0  0  0  0  0  0  0
    8.6537   -1.9214    0.0000 H   0  0  0  0  0  0  0  0  0  0  0  0
    3.5901   -4.5100    0.0000 H   0  0  0  0  0  0  0  0  0  0  0  0
    3.4676   -2.8689    0.0000 H   0  0  0  0  0  0  0  0  0  0  0  0
    6.8417    0.7862    0.0000 H   0  0  0  0  0  0  0  0  0  0  0  0
    6.5111    1.8039    0.0000 H   0  0  0  0  0  0  0  0  0  0  0  0
    2.7651   -2.6568    0.0000 H   0  0  0  0  0  0  0  0  0  0  0  0
    2.2301   -3.5834    0.0000 H   0  0  0  0  0  0  0  0  0  0  0  0
    5.6076   -4.2979    0.0000 H   0  0  0  0  0  0  0  0  0  0  0  0
    5.0726   -5.2245    0.0000 H   0  0  0  0  0  0  0  0  0  0  0  0
    1.8176   -4.2979    0.0000 H   0  0  0  0  0  0  0  0  0  0  0  0
    2.3526   -5.2245    0.0000 H   0  0  0  0  0  0  0  0  0  0  0  0
    4.6601   -5.9390    0.0000 H   0  0  0  0  0  0  0  0  0  0  0  0
    3.5901   -5.9390    0.0000 H   0  0  0  0  0  0  0  0  0  0  0  0
    2.7651   -5.9390    0.0000 H   0  0  0  0  0  0  0  0  0  0  0  0
    3.8351   -5.9390    0.0000 H   0  0  0  0  0  0  0  0  0  0  0  0
    8.6284    5.2230    0.0000 H   0  0  0  0  0  0  0  0  0  0  0  0
    8.0188    3.1612    0.0000 H   0  0  0  0  0  0  0  0  0  0  0  0
    6.9722    3.3837    0.0000 H   0  0  0  0  0  0  0  0  0  0  0  0
    9.8465    5.8076    0.0000 H   0  0  0  0  0  0  0  0  0  0  0  0
    8.5478    5.9098    0.0000 H   0  0  0  0  0  0  0  0  0  0  0  0
    7.2993    4.9800    0.0000 H   0  0  0  0  0  0  0  0  0  0  0  0
    8.2899    5.8260    0.0000 H   0  0  0  0  0  0  0  0  0  0  0  0
    6.1652    3.5552    0.0000 H   0  0  0  0  0  0  0  0  0  0  0  0
    5.7799    1.7424    0.0000 H   0  0  0  0  0  0  0  0  0  0  0  0
    5.4493    2.7601    0.0000 H   0  0  0  0  0  0  0  0  0  0  0  0
    4.3321   -0.7254    0.0000 H   0  0  0  0  0  0  0  0  0  0  0  0
    0.6180   -0.7254    0.0000 H   0  0  0  0  0  0  0  0  0  0  0  0
    1.5465    0.8827    0.0000 H   0  0  0  0  0  0  0  0  0  0  0  0
  1 21  2  0  0  0  0
  2 22  2  0  0  0  0
  3 31  2  0  0  0  0
  4 35  2  0  0  0  0
  5 43  2  0  0  0  0
  6 45  2  0  0  0  0
  7 16  1  0  0  0  0
  7 19  1  0  0  0  0
  7 22  1  0  0  0  0
  8 21  1  0  0  0  0
  8 52  1  0  0  0  0
  9 31  1  0  0  0  0
  9 53  1  0  0  0  0
 10 45  1  0  0  0  0
 10 54  1  0  0  0  0
 11 39  1  0  0  0  0
 11 43  1  0  0  0  0
 11 55  1  0  0  0  0
 12 46  2  0  0  0  0
 12 48  1  0  0  0  0
 13 47  2  0  0  0  0
 13 49  1  0  0  0  0
 14 15  1  0  0  0  0
 14 16  1  0  0  0  0
 14 17  1  0  0  0  0
 14 50  1  6  0  0  0
 15 18  1  0  0  0  0
 15 19  1  0  0  0  0
 15 51  1  6  0  0  0
 16 21  1  0  0  0  0
 16 56  1  1  0  0  0
 17 20  1  0  0  0  0
 17 57  1  0  0  0  0
 17 58  1  0  0  0  0
 18 20  1  0  0  0  0
 18 59  1  0  0  0  0
 18 60  1  0  0  0  0
 19 61  1  0  0  0  0
 19 62  1  0  0  0  0
 20 63  1  0  0  0  0
 20 64  1  0  0  0  0
 22 23  1  0  0  0  0
 23  9  1  0  0  0  0
 23 24  1  0  0  0  0
 23 65  1  1  0  0  0
 24 26  1  0  0  0  0
 24 27  1  0  0  0  0
 24 28  1  0  0  0  0
 25  8  1  0  0  0  0
 25 32  1  0  0  0  0
 25 35  1  0  0  0  0
 25 66  1  6  0  0  0
 26 67  1  0  0  0  0
 26 68  1  0  0  0  0
 26 69  1  0  0  0  0
 27 70  1  0  0  0  0
 27 71  1  0  0  0  0
 27 72  1  0  0  0  0
 28 73  1  0  0  0  0
 28 74  1  0  0  0  0
 28 75  1  0  0  0  0
 29 30  1  0  0  0  0
 29 33  1  0  0  0  0
 29 34  1  0  0  0  0
 29 76  1  0  0  0  0
 30 10  1  0  0  0  0
 30 31  1  0  0  0  0
 30 77  1  1  0  0  0
 32 40  1  0  0  0  0
 32 78  1  0  0  0  0
 32 79  1  0  0  0  0
 33 36  1  0  0  0  0
 33 80  1  0  0  0  0
 33 81  1  0  0  0  0
 34 37  1  0  0  0  0
 34 82  1  0  0  0  0
 34 83  1  0  0  0  0
 35 43  1  0  0  0  0
 36 38  1  0  0  0  0
 36 84  1  0  0  0  0
 36 85  1  0  0  0  0
 37 38  1  0  0  0  0
 37 86  1  0  0  0  0
 37 87  1  0  0  0  0
 38 88  1  0  0  0  0
 38 89  1  0  0  0  0
 39 41  1  0  0  0  0
 39 42  1  0  0  0  0
 39 90  1  0  0  0  0
 40 44  1  0  0  0  0
 40 91  1  0  0  0  0
 40 92  1  0  0  0  0
 41 42  1  0  0  0  0
 41 93  1  0  0  0  0
 41 94  1  0  0  0  0
 42 95  1  0  0  0  0
 42 96  1  0  0  0  0
 44 97  1  0  0  0  0
 44 98  1  0  0  0  0
 44 99  1  0  0  0  0
 45 46  1  0  0  0  0
 46 47  1  0  0  0  0
 47100  1  0  0  0  0
 48 49  2  0  0  0  0
 48101  1  0  0  0  0
 49102  1  0  0  0  0
M  END
>  <DRUGBANK_ID>
DB05521

>  <COMMON_NAME>
Telaprevir

>  <CAS_NUMBER>
402957-28-2

>  <UNII>
655M5O3W0U

>  <SYNONYMS>
(1S,3aR,6aS)-(2S)-2-cyclohexyl-N-(pyrazinylcarbonyl)glycyl-3-methyl-L-valyl-N-((1S)-1-((cyclopropylamino)oxoacetyl)butyl)octahydrocyclopenta(c)pyrrole-1-carboxamide; Telaprevir

$$$$
