
 OpenBabel10282417072D

 42 43  0  0  0  0  0  0  0  0999 V2000
    0.3572   -1.0312    0.0000 P   0  0  3  0  0  0  0  0  0  0  0  0
   -0.3572   -1.4437    0.0000 O   0  0  0  0  0  0  0  0  0  0  0  0
    0.7697   -1.7457    0.0000 O   0  5  0  0  0  0  0  0  0  0  0  0
   -0.0552   -0.3168    0.0000 O   0  0  0  0  0  0  0  0  0  0  0  0
    2.5007    2.6813    0.0000 O   0  0  0  0  0  0  0  0  0  0  0  0
    1.0716    2.6813    0.0000 N   0  0  0  0  0  0  0  0  0  0  0  0
   -0.3572   -2.2687    0.0000 C   0  0  2  0  0  0  0  0  0  0  0  0
    1.0716   -0.6187    0.0000 C   0  0  0  0  0  0  0  0  0  0  0  0
    1.0716    0.2062    0.0000 C   0  0  0  0  0  0  0  0  0  0  0  0
   -1.0716   -2.6813    0.0000 C   0  0  0  0  0  0  0  0  0  0  0  0
    0.3572   -2.6813    0.0000 C   0  0  0  0  0  0  0  0  0  0  0  0
    0.3572    0.6187    0.0000 C   0  0  0  0  0  0  0  0  0  0  0  0
    1.7862    0.6187    0.0000 C   0  0  0  0  0  0  0  0  0  0  0  0
   -1.0716   -3.5063    0.0000 C   0  0  0  0  0  0  0  0  0  0  0  0
   -1.7862   -2.2687    0.0000 C   0  0  0  0  0  0  0  0  0  0  0  0
    1.0716    1.8562    0.0000 C   0  0  0  0  0  0  0  0  0  0  0  0
    0.3572    1.4437    0.0000 C   0  0  0  0  0  0  0  0  0  0  0  0
    1.7862    1.4437    0.0000 C   0  0  0  0  0  0  0  0  0  0  0  0
   -1.7862   -3.9188    0.0000 C   0  0  0  0  0  0  0  0  0  0  0  0
   -2.5007   -2.6813    0.0000 C   0  0  0  0  0  0  0  0  0  0  0  0
   -2.5007   -3.5063    0.0000 C   0  0  0  0  0  0  0  0  0  0  0  0
    1.7862    3.0938    0.0000 C   0  0  0  0  0  0  0  0  0  0  0  0
    1.7862    3.9188    0.0000 C   0  0  0  0  0  0  0  0  0  0  0  0
    0.6287    2.9370    0.0000 H   0  0  0  0  0  0  0  0  0  0  0  0
   -1.2839   -1.7338    0.0000 H   0  0  0  0  0  0  0  0  0  0  0  0
    1.9983   -1.1537    0.0000 H   0  0  0  0  0  0  0  0  0  0  0  0
    1.9982   -0.0837    0.0000 H   0  0  0  0  0  0  0  0  0  0  0  0
    0.3570   -3.7513    0.0000 H   0  0  0  0  0  0  0  0  0  0  0  0
    1.2839   -2.1464    0.0000 H   0  0  0  0  0  0  0  0  0  0  0  0
    1.2838   -3.2164    0.0000 H   0  0  0  0  0  0  0  0  0  0  0  0
   -0.5365    0.1027    0.0000 H   0  0  0  0  0  0  0  0  0  0  0  0
    2.6799    0.1027    0.0000 H   0  0  0  0  0  0  0  0  0  0  0  0
   -0.1779   -4.0223    0.0000 H   0  0  0  0  0  0  0  0  0  0  0  0
   -1.7862   -1.2367    0.0000 H   0  0  0  0  0  0  0  0  0  0  0  0
   -0.5365    1.9597    0.0000 H   0  0  0  0  0  0  0  0  0  0  0  0
    2.6799    1.9597    0.0000 H   0  0  0  0  0  0  0  0  0  0  0  0
   -1.7862   -4.9508    0.0000 H   0  0  0  0  0  0  0  0  0  0  0  0
   -3.3945   -2.1653    0.0000 H   0  0  0  0  0  0  0  0  0  0  0  0
   -3.3944   -4.0223    0.0000 H   0  0  0  0  0  0  0  0  0  0  0  0
    2.7128    4.4538    0.0000 H   0  0  0  0  0  0  0  0  0  0  0  0
    0.8596    4.4538    0.0000 H   0  0  0  0  0  0  0  0  0  0  0  0
    1.7862    4.9888    0.0000 H   0  0  0  0  0  0  0  0  0  0  0  0
  1  2  1  0  0  0  0
  1  3  1  0  0  0  0
  1  4  2  0  0  0  0
  1  8  1  0  0  0  0
  5 22  2  0  0  0  0
  6 16  1  0  0  0  0
  6 22  1  0  0  0  0
  6 24  1  0  0  0  0
  7  2  1  0  0  0  0
  7 10  1  0  0  0  0
  7 11  1  0  0  0  0
  7 25  1  6  0  0  0
  8  9  1  0  0  0  0
  8 26  1  0  0  0  0
  8 27  1  0  0  0  0
  9 12  2  0  0  0  0
  9 13  1  0  0  0  0
 10 14  2  0  0  0  0
 10 15  1  0  0  0  0
 11 28  1  0  0  0  0
 11 29  1  0  0  0  0
 11 30  1  0  0  0  0
 12 17  1  0  0  0  0
 12 31  1  0  0  0  0
 13 18  2  0  0  0  0
 13 32  1  0  0  0  0
 14 19  1  0  0  0  0
 14 33  1  0  0  0  0
 15 20  2  0  0  0  0
 15 34  1  0  0  0  0
 16 17  2  0  0  0  0
 16 18  1  0  0  0  0
 17 35  1  0  0  0  0
 18 36  1  0  0  0  0
 19 21  2  0  0  0  0
 19 37  1  0  0  0  0
 20 21  1  0  0  0  0
 20 38  1  0  0  0  0
 21 39  1  0  0  0  0
 22 23  1  0  0  0  0
 23 40  1  0  0  0  0
 23 41  1  0  0  0  0
 23 42  1  0  0  0  0
M  CHG  1   3  -1
M  END
>  <DRUGBANK_ID>
DB08545

>  <COMMON_NAME>
(1S)-1-Phenylethyl (4-acetamidobenzyl)phosphonate

$$$$
