
 OpenBabel10282417072D

 31 30  0  0  1  0  0  0  0  0999 V2000
    9.1577  -10.8077    0.0000 O   0  0  0  0  0  0  0  0  0  0  0  0
    9.8722  -10.3952    0.0000 C   0  0  0  0  0  0  0  0  0  0  0  0
   10.5867  -10.8077    0.0000 C   0  0  1  0  0  0  0  0  0  0  0  0
   11.3012  -10.3952    0.0000 C   0  0  2  0  0  0  0  0  0  0  0  0
   12.0156  -10.8077    0.0000 C   0  0  1  0  0  0  0  0  0  0  0  0
   12.7301  -10.3952    0.0000 C   0  0  1  0  0  0  0  0  0  0  0  0
   13.4446  -10.8077    0.0000 C   0  0  0  0  0  0  0  0  0  0  0  0
   14.1591  -10.3952    0.0000 O   0  0  0  0  0  0  0  0  0  0  0  0
   10.5867  -11.6326    0.0000 O   0  0  0  0  0  0  0  0  0  0  0  0
   11.3012   -9.5702    0.0000 O   0  0  0  0  0  0  0  0  0  0  0  0
   12.0156  -11.6327    0.0000 O   0  0  0  0  0  0  0  0  0  0  0  0
   12.7301   -9.5704    0.0000 O   0  0  0  0  0  0  0  0  0  0  0  0
   14.9841  -10.3952    0.0000 P   0  0  0  0  0  0  0  0  0  0  0  0
   15.8091  -10.3952    0.0000 O   0  0  0  0  0  0  0  0  0  0  0  0
   14.9841   -9.5702    0.0000 O   0  0  0  0  0  0  0  0  0  0  0  0
   14.9841  -11.2202    0.0000 O   0  0  0  0  0  0  0  0  0  0  0  0
    8.3177  -10.3227    0.0000 H   0  0  0  0  0  0  0  0  0  0  0  0
    9.8722   -9.3252    0.0000 H   0  0  0  0  0  0  0  0  0  0  0  0
   10.7988   -9.8602    0.0000 H   0  0  0  0  0  0  0  0  0  0  0  0
    9.6601  -11.3427    0.0000 H   0  0  0  0  0  0  0  0  0  0  0  0
   10.3746   -9.8602    0.0000 H   0  0  0  0  0  0  0  0  0  0  0  0
   11.0889  -11.3427    0.0000 H   0  0  0  0  0  0  0  0  0  0  0  0
   11.8035   -9.8602    0.0000 H   0  0  0  0  0  0  0  0  0  0  0  0
   13.4446  -11.8777    0.0000 H   0  0  0  0  0  0  0  0  0  0  0  0
   14.3712  -11.3427    0.0000 H   0  0  0  0  0  0  0  0  0  0  0  0
    9.7467  -12.1176    0.0000 H   0  0  0  0  0  0  0  0  0  0  0  0
   12.1412   -9.0852    0.0000 H   0  0  0  0  0  0  0  0  0  0  0  0
   11.1756  -12.1177    0.0000 H   0  0  0  0  0  0  0  0  0  0  0  0
   13.5701   -9.0854    0.0000 H   0  0  0  0  0  0  0  0  0  0  0  0
   16.2941  -11.2352    0.0000 H   0  0  0  0  0  0  0  0  0  0  0  0
   14.1441  -11.7052    0.0000 H   0  0  0  0  0  0  0  0  0  0  0  0
  1  2  1  0  0  0  0
  1 17  1  0  0  0  0
  2  3  1  0  0  0  0
  2 18  1  0  0  0  0
  2 19  1  0  0  0  0
  3  4  1  0  0  0  0
  3  9  1  0  0  0  0
  3 20  1  6  0  0  0
  4  5  1  0  0  0  0
  4 10  1  0  0  0  0
  4 21  1  6  0  0  0
  5  6  1  0  0  0  0
  5 11  1  0  0  0  0
  5 22  1  6  0  0  0
  6  7  1  0  0  0  0
  6 12  1  0  0  0  0
  6 23  1  1  0  0  0
  7  8  1  0  0  0  0
  7 24  1  0  0  0  0
  7 25  1  0  0  0  0
  8 13  1  0  0  0  0
  9 26  1  0  0  0  0
 10 27  1  0  0  0  0
 11 28  1  0  0  0  0
 12 29  1  0  0  0  0
 13 14  1  0  0  0  0
 13 15  2  0  0  0  0
 13 16  1  0  0  0  0
 14 30  1  0  0  0  0
 16 31  1  0  0  0  0
M  END
>  <DRUGBANK_ID>
DB02548

>  <SECONDARY_ACCESSION_NUMBERS>
EXPT02834

>  <COMMON_NAME>
D-glucitol 6-phosphate

>  <CAS_NUMBER>
20479-58-7

>  <SYNONYMS>
D-Glucitol, 6-(dihydrogen phosphate); D-Sorbitol 6-phosphate; D-sorbitol-6-phosphate; Sorbitol 6-phosphate; Sorbitol-6-phosphate

$$$$
