NND
 OpenBabel10282417072D

 51 51  0  0  0  0  0  0  0  0999 V2000
    0.2211   -0.6248    0.0000 O   0  0  0  0  0  0  0  0  0  0  0  0
   -0.4934   -1.0374    0.0000 C   0  0  0  0  0  0  0  0  0  0  0  0
   -1.2080   -0.6248    0.0000 C   0  0  2  0  0  0  0  0  0  0  0  0
   -1.9225   -1.0374    0.0000 C   0  0  1  0  0  0  0  0  0  0  0  0
   -1.9225   -1.8624    0.0000 O   0  0  0  0  0  0  0  0  0  0  0  0
   -3.3515   -1.0374    0.0000 O   0  0  0  0  0  0  0  0  0  0  0  0
   -2.6370    0.2002    0.0000 C   0  0  1  0  0  0  0  0  0  0  0  0
   -3.3515    0.6127    0.0000 O   0  0  0  0  0  0  0  0  0  0  0  0
   -1.2080    0.2002    0.0000 N   0  0  0  0  0  0  0  0  0  0  0  0
   -0.4934    0.6127    0.0000 C   0  0  0  0  0  0  0  0  0  0  0  0
    0.2211    0.2002    0.0000 C   0  0  0  0  0  0  0  0  0  0  0  0
   -1.9225    0.6127    0.0000 C   0  0  0  0  0  0  0  0  0  0  0  0
    0.9356    0.6127    0.0000 C   0  0  0  0  0  0  0  0  0  0  0  0
    1.6501    0.2002    0.0000 C   0  0  0  0  0  0  0  0  0  0  0  0
    2.3647    0.6127    0.0000 C   0  0  0  0  0  0  0  0  0  0  0  0
    3.0791    0.2002    0.0000 C   0  0  0  0  0  0  0  0  0  0  0  0
    3.7937    0.6127    0.0000 C   0  0  0  0  0  0  0  0  0  0  0  0
    5.2228    0.6127    0.0000 C   0  0  0  0  0  0  0  0  0  0  0  0
    4.5082    0.2002    0.0000 C   0  0  0  0  0  0  0  0  0  0  0  0
   -2.6370   -0.6248    0.0000 C   0  0  2  0  0  0  0  0  0  0  0  0
   -1.0083   -1.1737    0.0000 H   0  0  0  0  0  0  0  0  0  0  0  0
   -1.5471   -1.4848    0.0000 H   0  0  0  0  0  0  0  0  0  0  0  0
   -2.6370   -1.2089    0.0000 H   0  0  0  0  0  0  0  0  0  0  0  0
   -2.6370    0.7842    0.0000 H   0  0  0  0  0  0  0  0  0  0  0  0
    1.0612   -1.1097    0.0000 H   0  0  0  0  0  0  0  0  0  0  0  0
   -0.4934   -2.1074    0.0000 H   0  0  0  0  0  0  0  0  0  0  0  0
   -1.4200   -1.5724    0.0000 H   0  0  0  0  0  0  0  0  0  0  0  0
   -2.7625   -2.3474    0.0000 H   0  0  0  0  0  0  0  0  0  0  0  0
   -4.1916   -0.5525    0.0000 H   0  0  0  0  0  0  0  0  0  0  0  0
   -3.3515    1.5827    0.0000 H   0  0  0  0  0  0  0  0  0  0  0  0
   -0.4934    1.6827    0.0000 H   0  0  0  0  0  0  0  0  0  0  0  0
    0.4333    1.1477    0.0000 H   0  0  0  0  0  0  0  0  0  0  0  0
    0.2211   -0.8698    0.0000 H   0  0  0  0  0  0  0  0  0  0  0  0
    1.1477   -0.3348    0.0000 H   0  0  0  0  0  0  0  0  0  0  0  0
   -1.9225    1.6827    0.0000 H   0  0  0  0  0  0  0  0  0  0  0  0
   -0.9959    1.1477    0.0000 H   0  0  0  0  0  0  0  0  0  0  0  0
    0.9356    1.6827    0.0000 H   0  0  0  0  0  0  0  0  0  0  0  0
    1.8622    1.1477    0.0000 H   0  0  0  0  0  0  0  0  0  0  0  0
    1.6501   -0.8698    0.0000 H   0  0  0  0  0  0  0  0  0  0  0  0
    2.5767   -0.3349    0.0000 H   0  0  0  0  0  0  0  0  0  0  0  0
    2.3648    1.6827    0.0000 H   0  0  0  0  0  0  0  0  0  0  0  0
    3.2914    1.1477    0.0000 H   0  0  0  0  0  0  0  0  0  0  0  0
    3.0790   -0.8698    0.0000 H   0  0  0  0  0  0  0  0  0  0  0  0
    4.0057   -0.3349    0.0000 H   0  0  0  0  0  0  0  0  0  0  0  0
    3.7937    1.6827    0.0000 H   0  0  0  0  0  0  0  0  0  0  0  0
    4.7204    1.1477    0.0000 H   0  0  0  0  0  0  0  0  0  0  0  0
    6.1494    0.0776    0.0000 H   0  0  0  0  0  0  0  0  0  0  0  0
    5.2229    1.6827    0.0000 H   0  0  0  0  0  0  0  0  0  0  0  0
    6.1495    1.1476    0.0000 H   0  0  0  0  0  0  0  0  0  0  0  0
    4.5082   -0.8698    0.0000 H   0  0  0  0  0  0  0  0  0  0  0  0
    5.4348   -0.3349    0.0000 H   0  0  0  0  0  0  0  0  0  0  0  0
  1  2  1  0  0  0  0
  1 25  1  0  0  0  0
  2 26  1  0  0  0  0
  2 27  1  0  0  0  0
  3  2  1  0  0  0  0
  3  4  1  0  0  0  0
  3  9  1  0  0  0  0
  3 21  1  1  0  0  0
  4  5  1  0  0  0  0
  4 20  1  0  0  0  0
  4 22  1  6  0  0  0
  5 28  1  0  0  0  0
  6 29  1  0  0  0  0
  7  8  1  0  0  0  0
  7 12  1  0  0  0  0
  7 20  1  0  0  0  0
  7 24  1  6  0  0  0
  8 30  1  0  0  0  0
  9 10  1  0  0  0  0
  9 12  1  0  0  0  0
 10 11  1  0  0  0  0
 10 31  1  0  0  0  0
 10 32  1  0  0  0  0
 11 13  1  0  0  0  0
 11 33  1  0  0  0  0
 11 34  1  0  0  0  0
 12 35  1  0  0  0  0
 12 36  1  0  0  0  0
 13 14  1  0  0  0  0
 13 37  1  0  0  0  0
 13 38  1  0  0  0  0
 14 15  1  0  0  0  0
 14 39  1  0  0  0  0
 14 40  1  0  0  0  0
 15 16  1  0  0  0  0
 15 41  1  0  0  0  0
 15 42  1  0  0  0  0
 16 17  1  0  0  0  0
 16 43  1  0  0  0  0
 16 44  1  0  0  0  0
 17 19  1  0  0  0  0
 17 45  1  0  0  0  0
 17 46  1  0  0  0  0
 18 19  1  0  0  0  0
 18 47  1  0  0  0  0
 18 48  1  0  0  0  0
 18 49  1  0  0  0  0
 19 50  1  0  0  0  0
 19 51  1  0  0  0  0
 20  6  1  0  0  0  0
 20 23  1  1  0  0  0
M  END
>  <DRUGBANK_ID>
DB08283

>  <COMMON_NAME>
(2R,3R,4R,5S)-2-(HYDROXYMETHYL)-1-NONYLPIPERIDINE-3,4,5-TRIOL

$$$$
