
 OpenBabel10282417072D

 30 30  0  0  1  0  0  0  0  0999 V2000
    0.7145   -0.4125    0.0000 C   0  0  1  0  0  0  0  0  0  0  0  0
    0.7145    0.4125    0.0000 C   0  0  2  0  0  0  0  0  0  0  0  0
    0.0000    0.8250    0.0000 O   0  0  0  0  0  0  0  0  0  0  0  0
    0.0000   -0.8250    0.0000 C   0  0  2  0  0  0  0  0  0  0  0  0
   -0.7145    0.4125    0.0000 C   0  0  1  0  0  0  0  0  0  0  0  0
   -0.7145   -0.4125    0.0000 C   0  0  1  0  0  0  0  0  0  0  0  0
    1.4289   -0.8250    0.0000 N   0  0  0  0  0  0  0  0  0  0  0  0
    0.0000   -1.6500    0.0000 O   0  0  0  0  0  0  0  0  0  0  0  0
   -1.4289   -0.8250    0.0000 O   0  0  0  0  0  0  0  0  0  0  0  0
   -1.4289    0.8250    0.0000 C   0  0  0  0  0  0  0  0  0  0  0  0
   -2.1434    0.4125    0.0000 O   0  0  0  0  0  0  0  0  0  0  0  0
    1.4289    0.8250    0.0000 O   0  0  0  0  0  0  0  0  0  0  0  0
    1.4289    2.4750    0.0000 O   0  0  0  0  0  0  0  0  0  0  0  0
    2.1434    2.0625    0.0000 O   0  0  0  0  0  0  0  0  0  0  0  0
    1.4289    1.6500    0.0000 P   0  0  0  0  0  0  0  0  0  0  0  0
    0.7144    2.0625    0.0000 O   0  0  0  0  0  0  0  0  0  0  0  0
    1.6412    0.1225    0.0000 H   0  0  0  0  0  0  0  0  0  0  0  0
    1.6412   -0.1225    0.0000 H   0  0  0  0  0  0  0  0  0  0  0  0
    0.9266   -1.3600    0.0000 H   0  0  0  0  0  0  0  0  0  0  0  0
   -0.7145    1.4825    0.0000 H   0  0  0  0  0  0  0  0  0  0  0  0
   -0.7145   -1.4825    0.0000 H   0  0  0  0  0  0  0  0  0  0  0  0
    1.4289   -1.8450    0.0000 H   0  0  0  0  0  0  0  0  0  0  0  0
    2.3123   -0.3150    0.0000 H   0  0  0  0  0  0  0  0  0  0  0  0
   -0.8400   -2.1350    0.0000 H   0  0  0  0  0  0  0  0  0  0  0  0
   -2.2690   -0.3400    0.0000 H   0  0  0  0  0  0  0  0  0  0  0  0
   -1.4289    1.8950    0.0000 H   0  0  0  0  0  0  0  0  0  0  0  0
   -2.3555    1.3600    0.0000 H   0  0  0  0  0  0  0  0  0  0  0  0
   -2.9834    0.8975    0.0000 H   0  0  0  0  0  0  0  0  0  0  0  0
    2.9834    1.5775    0.0000 H   0  0  0  0  0  0  0  0  0  0  0  0
    0.7144    3.0325    0.0000 H   0  0  0  0  0  0  0  0  0  0  0  0
  1  7  1  0  0  0  0
  1  4  1  0  0  0  0
  1 17  1  1  0  0  0
  2  1  1  0  0  0  0
  2 12  1  0  0  0  0
  2  3  1  0  0  0  0
  2 18  1  1  0  0  0
  3  5  1  0  0  0  0
  4  8  1  0  0  0  0
  4  6  1  0  0  0  0
  4 19  1  6  0  0  0
  5 10  1  0  0  0  0
  5  6  1  0  0  0  0
  5 20  1  6  0  0  0
  6  9  1  0  0  0  0
  6 21  1  1  0  0  0
  7 22  1  0  0  0  0
  7 23  1  0  0  0  0
  8 24  1  0  0  0  0
  9 25  1  0  0  0  0
 10 11  1  0  0  0  0
 10 26  1  0  0  0  0
 10 27  1  0  0  0  0
 11 28  1  0  0  0  0
 12 15  1  0  0  0  0
 14 29  1  0  0  0  0
 15 13  2  0  0  0  0
 15 14  1  0  0  0  0
 15 16  1  0  0  0  0
 16 30  1  0  0  0  0
M  END
>  <DRUGBANK_ID>
DB03111

>  <SECONDARY_ACCESSION_NUMBERS>
EXPT01631

>  <COMMON_NAME>
Glucosamine 1-Phosphate

>  <UNII>
BSG3MU7VAE

$$$$
