
 OpenBabel10282417072D

 37 33  0  0  0  0  0  0  0  0999 V2000
   -3.2520    1.6904    0.0000 C   0  0  0  0  0  0  0  0  0  0  0  0
   -2.5375    2.1029    0.0000 C   0  0  1  0  0  0  0  0  0  0  0  0
   -1.8231    1.6904    0.0000 C   0  0  0  0  0  0  0  0  0  0  0  0
   -2.5375    2.9279    0.0000 N   0  0  0  0  0  0  0  0  0  0  0  0
   -1.8231    0.8654    0.0000 O   0  0  0  0  0  0  0  0  0  0  0  0
   -1.1086    2.1029    0.0000 O   0  5  0  0  0  0  0  0  0  0  0  0
   -3.9665    2.1029    0.0000 S   0  5  0  0  0  0  0  0  0  0  0  0
    2.3165    2.4554    0.0000 C   0  0  0  0  0  0  0  0  0  0  0  0
    2.7290    1.7410    0.0000 C   0  0  1  0  0  0  0  0  0  0  0  0
    3.5540    1.7410    0.0000 C   0  0  0  0  0  0  0  0  0  0  0  0
    2.3165    1.0265    0.0000 N   0  0  0  0  0  0  0  0  0  0  0  0
    3.9665    1.0265    0.0000 O   0  0  0  0  0  0  0  0  0  0  0  0
    3.9665    2.4554    0.0000 O   0  0  0  0  0  0  0  0  0  0  0  0
    1.4915    2.4554    0.0000 S   0  0  0  0  0  0  0  0  0  0  0  0
   -1.8075   -1.4990    0.0000 C   0  0  0  0  0  0  0  0  0  0  0  0
   -2.2200   -2.2134    0.0000 C   0  0  0  0  0  0  0  0  0  0  0  0
   -2.2200   -0.7845    0.0000 N   0  0  0  0  0  0  0  0  0  0  0  0
   -1.8075   -2.9279    0.0000 O   0  0  0  0  0  0  0  0  0  0  0  0
   -3.0450   -2.2134    0.0000 O   0  0  0  0  0  0  0  0  0  0  0  0
   -0.3941    2.5154    0.0000 Fe  0  2  0  0  0  0  0  0  0  0  0  0
   -2.5375    1.2779    0.0000 H   0  0  0  0  0  0  0  0  0  0  0  0
    3.1415    2.4554    0.0000 H   0  0  0  0  0  0  0  0  0  0  0  0
   -3.2520    0.6204    0.0000 H   0  0  0  0  0  0  0  0  0  0  0  0
   -4.1786    1.1554    0.0000 H   0  0  0  0  0  0  0  0  0  0  0  0
   -1.6542    3.4379    0.0000 H   0  0  0  0  0  0  0  0  0  0  0  0
   -3.4208    3.4379    0.0000 H   0  0  0  0  0  0  0  0  0  0  0  0
    2.8515    3.3821    0.0000 H   0  0  0  0  0  0  0  0  0  0  0  0
    1.7815    3.3820    0.0000 H   0  0  0  0  0  0  0  0  0  0  0  0
    1.2965    1.0265    0.0000 H   0  0  0  0  0  0  0  0  0  0  0  0
    2.8265    0.1432    0.0000 H   0  0  0  0  0  0  0  0  0  0  0  0
    4.9035    2.4554    0.0000 H   0  0  0  0  0  0  0  0  0  0  0  0
    0.8115    3.6332    0.0000 H   0  0  0  0  0  0  0  0  0  0  0  0
   -0.7375   -1.4990    0.0000 H   0  0  0  0  0  0  0  0  0  0  0  0
   -1.2725   -0.5724    0.0000 H   0  0  0  0  0  0  0  0  0  0  0  0
   -1.7100    0.0988    0.0000 H   0  0  0  0  0  0  0  0  0  0  0  0
   -3.2400   -0.7845    0.0000 H   0  0  0  0  0  0  0  0  0  0  0  0
   -3.5135   -1.4019    0.0000 H   0  0  0  0  0  0  0  0  0  0  0  0
  1 23  1  0  0  0  0
  1 24  1  0  0  0  0
  2  1  1  0  0  0  0
  2  3  1  0  0  0  0
  2  4  1  0  0  0  0
  2 21  1  1  0  0  0
  4 25  1  0  0  0  0
  4 26  1  0  0  0  0
  5  3  2  0  0  0  0
  6  3  1  0  0  0  0
  7  1  1  0  0  0  0
  8 27  1  0  0  0  0
  8 28  1  0  0  0  0
  9  8  1  0  0  0  0
  9 10  1  0  0  0  0
  9 11  1  0  0  0  0
  9 22  1  6  0  0  0
 11 29  1  0  0  0  0
 11 30  1  0  0  0  0
 12 10  2  0  0  0  0
 13 10  1  0  0  0  0
 13 31  1  0  0  0  0
 14  8  1  0  0  0  0
 14 32  1  0  0  0  0
 15 33  1  0  0  0  0
 15 34  1  0  0  0  0
 16 15  1  0  0  0  0
 17 15  1  0  0  0  0
 17 35  1  0  0  0  0
 17 36  1  0  0  0  0
 18 16  2  0  0  0  0
 19 16  1  0  0  0  0
 19 37  1  0  0  0  0
M  CHG  3   6  -1   7  -1  20   2
M  END
>  <DRUGBANK_ID>
DB11197

>  <COMMON_NAME>
Ferrous cysteine glycinate

>  <UNII>
8B4OP7RK5N

>  <SYNONYMS>
Ferrous cysteine glycinate chelate (1:2:1)

$$$$
