391
 OpenBabel10282417072D

 46 47  0  0  1  0  0  0  0  0999 V2000
    5.2224   -2.0965    0.0000 S   0  0  0  0  0  0  0  0  0  0  0  0
    3.0791    0.7910    0.0000 O   0  0  0  0  0  0  0  0  0  0  0  0
    2.3645   -0.4465    0.0000 O   0  0  0  0  0  0  0  0  0  0  0  0
    5.6350   -1.3821    0.0000 O   0  0  0  0  0  0  0  0  0  0  0  0
    4.8099   -2.8110    0.0000 O   0  0  0  0  0  0  0  0  0  0  0  0
    5.9762    1.6929    0.0000 N   0  0  0  0  0  0  0  0  0  0  0  0
    4.5080    0.7910    0.0000 N   0  0  0  0  0  0  0  0  0  0  0  0
    5.9370   -2.5090    0.0000 N   0  0  0  0  0  0  0  0  0  0  0  0
    5.2224    2.0286    0.0000 C   0  0  3  0  0  0  0  0  0  0  0  0
    5.3087    2.8490    0.0000 C   0  0  0  0  0  0  0  0  0  0  0  0
    6.1157    3.0206    0.0000 C   0  0  0  0  0  0  0  0  0  0  0  0
    6.5282    2.3061    0.0000 C   0  0  0  0  0  0  0  0  0  0  0  0
    4.5080    1.6160    0.0000 C   0  0  0  0  0  0  0  0  0  0  0  0
    6.1477    0.8860    0.0000 C   0  0  0  0  0  0  0  0  0  0  0  0
    6.9323    0.6311    0.0000 C   0  0  0  0  0  0  0  0  0  0  0  0
    3.7935    0.3785    0.0000 C   0  0  0  0  0  0  0  0  0  0  0  0
    3.7935   -0.4465    0.0000 C   0  0  0  0  0  0  0  0  0  0  0  0
    4.5080   -0.8590    0.0000 C   0  0  0  0  0  0  0  0  0  0  0  0
    3.0791   -0.8590    0.0000 C   0  0  0  0  0  0  0  0  0  0  0  0
    4.5080   -1.6840    0.0000 C   0  0  0  0  0  0  0  0  0  0  0  0
    3.0791   -1.6840    0.0000 C   0  0  0  0  0  0  0  0  0  0  0  0
    3.7935   -2.0965    0.0000 C   0  0  0  0  0  0  0  0  0  0  0  0
    1.6500   -0.8590    0.0000 C   0  0  0  0  0  0  0  0  0  0  0  0
    5.3606    0.2987    0.0000 H   0  0  0  0  0  0  0  0  0  0  0  0
    5.9371   -3.5290    0.0000 H   0  0  0  0  0  0  0  0  0  0  0  0
    6.8203   -1.9989    0.0000 H   0  0  0  0  0  0  0  0  0  0  0  0
    6.1491    2.5635    0.0000 H   0  0  0  0  0  0  0  0  0  0  0  0
    4.5135    3.5650    0.0000 H   0  0  0  0  0  0  0  0  0  0  0  0
    5.5856    3.8826    0.0000 H   0  0  0  0  0  0  0  0  0  0  0  0
    6.5509    3.9981    0.0000 H   0  0  0  0  0  0  0  0  0  0  0  0
    7.1842    3.0766    0.0000 H   0  0  0  0  0  0  0  0  0  0  0  0
    7.5923    2.1943    0.0000 H   0  0  0  0  0  0  0  0  0  0  0  0
    7.1109    3.2035    0.0000 H   0  0  0  0  0  0  0  0  0  0  0  0
    3.5813    2.1509    0.0000 H   0  0  0  0  0  0  0  0  0  0  0  0
    4.5079    2.6860    0.0000 H   0  0  0  0  0  0  0  0  0  0  0  0
    5.3525    0.1700    0.0000 H   0  0  0  0  0  0  0  0  0  0  0  0
    6.3702   -0.1606    0.0000 H   0  0  0  0  0  0  0  0  0  0  0  0
    7.1548   -0.4155    0.0000 H   0  0  0  0  0  0  0  0  0  0  0  0
    7.7274    1.3471    0.0000 H   0  0  0  0  0  0  0  0  0  0  0  0
    7.9499    0.3005    0.0000 H   0  0  0  0  0  0  0  0  0  0  0  0
    5.4017   -0.3430    0.0000 H   0  0  0  0  0  0  0  0  0  0  0  0
    2.1854   -2.2000    0.0000 H   0  0  0  0  0  0  0  0  0  0  0  0
    3.7935   -3.1285    0.0000 H   0  0  0  0  0  0  0  0  0  0  0  0
    0.7234   -0.3240    0.0000 H   0  0  0  0  0  0  0  0  0  0  0  0
    1.6500   -1.9290    0.0000 H   0  0  0  0  0  0  0  0  0  0  0  0
    0.7233   -1.3940    0.0000 H   0  0  0  0  0  0  0  0  0  0  0  0
  1  4  2  0  0  0  0
  1  5  2  0  0  0  0
  1  8  1  0  0  0  0
  1 20  1  0  0  0  0
  2 16  2  0  0  0  0
  3 19  1  0  0  0  0
  3 23  1  0  0  0  0
  6  9  1  0  0  0  0
  6 12  1  0  0  0  0
  6 14  1  0  0  0  0
  7 13  1  0  0  0  0
  7 16  1  0  0  0  0
  7 24  1  0  0  0  0
  8 25  1  0  0  0  0
  8 26  1  0  0  0  0
  9 10  1  0  0  0  0
  9 13  1  0  0  0  0
  9 27  1  0  0  0  0
 10 11  1  0  0  0  0
 10 28  1  0  0  0  0
 10 29  1  0  0  0  0
 11 12  1  0  0  0  0
 11 30  1  0  0  0  0
 11 31  1  0  0  0  0
 12 32  1  0  0  0  0
 12 33  1  0  0  0  0
 13 34  1  0  0  0  0
 13 35  1  0  0  0  0
 14 15  1  0  0  0  0
 14 36  1  0  0  0  0
 14 37  1  0  0  0  0
 15 38  1  0  0  0  0
 15 39  1  0  0  0  0
 15 40  1  0  0  0  0
 16 17  1  0  0  0  0
 17 18  1  0  0  0  0
 17 19  2  0  0  0  0
 18 20  2  0  0  0  0
 18 41  1  0  0  0  0
 19 21  1  0  0  0  0
 20 22  1  0  0  0  0
 21 22  2  0  0  0  0
 21 42  1  0  0  0  0
 22 43  1  0  0  0  0
 23 44  1  0  0  0  0
 23 45  1  0  0  0  0
 23 46  1  0  0  0  0
M  END
>  <DRUGBANK_ID>
DB00391

>  <SECONDARY_ACCESSION_NUMBERS>
APRD00032

>  <COMMON_NAME>
Sulpiride

>  <CAS_NUMBER>
15676-16-1

>  <UNII>
7MNE9M8287

>  <SYNONYMS>
(Â±)-sulpiride; 5-(Aminosulfonyl)-N-((1-ethyl-2-pyrrolidinyl)methyl)-2-methoxybenzamide; N-((1-Ethyl-2-pyrrolidinyl)methyl)-2-methoxy-5-sulfamoylbenzamide; N-((1-Ethyl-2-pyrrolidinyl)methyl)-5-sulfamoyl-o-anisamide; Sulpirid; Sulpirida; Sulpiride; Sulpiridum; Sulpyrid

$$$$
