
 OpenBabel10282417072D

 39 40  0  0  0  0  0  0  0  0999 V2000
    1.4531    0.1421    0.0000 C   0  0  0  0  0  0  0  0  0  0  0  0
    0.0242    0.1421    0.0000 C   0  0  0  0  0  0  0  0  0  0  0  0
    0.7388    0.5546    0.0000 C   0  0  0  0  0  0  0  0  0  0  0  0
   -0.6903    0.5546    0.0000 C   0  0  0  0  0  0  0  0  0  0  0  0
    0.7388    1.3796    0.0000 C   0  0  0  0  0  0  0  0  0  0  0  0
   -0.6903    1.3796    0.0000 C   0  0  0  0  0  0  0  0  0  0  0  0
   -1.4046    0.1421    0.0000 C   0  0  0  0  0  0  0  0  0  0  0  0
    0.0242    1.7921    0.0000 O   0  0  0  0  0  0  0  0  0  0  0  0
   -1.4046    1.7921    0.0000 C   0  0  0  0  0  0  0  0  0  0  0  0
    1.4531    1.7921    0.0000 C   0  0  0  0  0  0  0  0  0  0  0  0
   -1.4046    2.6171    0.0000 Hg  0  0  0  0  0  0  0  0  0  0  0  0
    2.1677    0.5546    0.0000 C   0  0  0  0  0  0  0  0  0  0  0  0
   -2.1192    0.5546    0.0000 C   0  0  0  0  0  0  0  0  0  0  0  0
    2.1677    1.3796    0.0000 C   0  0  0  0  0  0  0  0  0  0  0  0
   -2.1192    1.3796    0.0000 C   0  0  0  0  0  0  0  0  0  0  0  0
   -2.8822    1.7759    0.0000 O   0  5  0  0  0  0  0  0  0  0  0  0
    2.8822    1.7921    0.0000 O   0  0  0  0  0  0  0  0  0  0  0  0
   -2.8337    0.1421    0.0000 Br  0  0  0  0  0  0  0  0  0  0  0  0
    2.8822    0.1421    0.0000 Br  0  0  0  0  0  0  0  0  0  0  0  0
    0.0242   -1.3796    0.0000 C   0  0  0  0  0  0  0  0  0  0  0  0
   -0.6903   -1.7921    0.0000 C   0  0  0  0  0  0  0  0  0  0  0  0
   -0.6903   -2.6171    0.0000 C   0  0  0  0  0  0  0  0  0  0  0  0
    0.0242   -3.0296    0.0000 C   0  0  0  0  0  0  0  0  0  0  0  0
    0.7388   -2.6171    0.0000 C   0  0  0  0  0  0  0  0  0  0  0  0
    0.7388   -1.7921    0.0000 C   0  0  0  0  0  0  0  0  0  0  0  0
    1.4531   -1.3796    0.0000 C   0  0  0  0  0  0  0  0  0  0  0  0
    2.1677   -1.7921    0.0000 O   0  5  0  0  0  0  0  0  0  0  0  0
    1.4531   -0.5546    0.0000 O   0  0  0  0  0  0  0  0  0  0  0  0
   -0.6901    3.0296    0.0000 O   0  0  0  0  0  0  0  0  0  0  0  0
   -1.9200   -0.7445    0.0000 Na  0  3  0  0  0  0  0  0  0  0  0  0
   -1.9039   -1.7490    0.0000 Na  0  3  0  0  0  0  0  0  0  0  0  0
    1.4530   -0.8899    0.0000 H   0  0  0  0  0  0  0  0  0  0  0  0
   -1.4045   -0.8899    0.0000 H   0  0  0  0  0  0  0  0  0  0  0  0
    1.4530    2.8241    0.0000 H   0  0  0  0  0  0  0  0  0  0  0  0
   -1.5840   -1.2761    0.0000 H   0  0  0  0  0  0  0  0  0  0  0  0
   -1.5840   -3.1331    0.0000 H   0  0  0  0  0  0  0  0  0  0  0  0
    0.0242   -4.0616    0.0000 H   0  0  0  0  0  0  0  0  0  0  0  0
    1.6325   -3.1331    0.0000 H   0  0  0  0  0  0  0  0  0  0  0  0
    0.1499    2.5446    0.0000 H   0  0  0  0  0  0  0  0  0  0  0  0
  1 12  2  0  0  0  0
  1 32  1  0  0  0  0
  2  3  2  0  0  0  0
  2  4  1  0  0  0  0
  2 20  1  0  0  0  0
  3  1  1  0  0  0  0
  3  5  1  0  0  0  0
  4  6  2  0  0  0  0
  4  7  1  0  0  0  0
  5 10  2  0  0  0  0
  5  8  1  0  0  0  0
  6  8  1  0  0  0  0
  6  9  1  0  0  0  0
  7 13  2  0  0  0  0
  7 33  1  0  0  0  0
  9 15  2  0  0  0  0
  9 11  1  0  0  0  0
 10 14  1  0  0  0  0
 10 34  1  0  0  0  0
 11 29  1  0  0  0  0
 12 14  1  0  0  0  0
 12 19  1  0  0  0  0
 13 15  1  0  0  0  0
 13 18  1  0  0  0  0
 14 17  2  0  0  0  0
 15 16  1  0  0  0  0
 20 21  2  0  0  0  0
 20 25  1  0  0  0  0
 21 22  1  0  0  0  0
 21 35  1  0  0  0  0
 22 23  2  0  0  0  0
 22 36  1  0  0  0  0
 23 24  1  0  0  0  0
 23 37  1  0  0  0  0
 24 25  2  0  0  0  0
 24 38  1  0  0  0  0
 25 26  1  0  0  0  0
 26 27  1  0  0  0  0
 26 28  2  0  0  0  0
 29 39  1  0  0  0  0
M  CHG  4  16  -1  27  -1  30   1  31   1
M  END
>  <DRUGBANK_ID>
DB13392

>  <COMMON_NAME>
Merbromin

>  <CAS_NUMBER>
129-16-8

>  <UNII>
M0T18YH28D

>  <SYNONYMS>
Merbromin; Merbromina; Merbromine; Merbrominum; Mercurochrome

$$$$
