
 OpenBabel10282417072D

 28 28  0  0  0  0  0  0  0  0999 V2000
   -2.5007   -0.4125    0.0000 O   0  0  0  0  0  0  0  0  0  0  0  0
   -1.7862   -0.8250    0.0000 C   0  0  0  0  0  0  0  0  0  0  0  0
   -1.0716    0.4125    0.0000 N   0  0  0  0  0  0  0  0  0  0  0  0
   -1.0716   -0.4125    0.0000 C   0  0  0  0  0  0  0  0  0  0  0  0
   -1.7862    0.8250    0.0000 C   0  0  0  0  0  0  0  0  0  0  0  0
   -2.5007    0.4125    0.0000 C   0  0  0  0  0  0  0  0  0  0  0  0
    1.7862   -0.4125    0.0000 O   0  0  0  0  0  0  0  0  0  0  0  0
    2.5006    0.8250    0.0000 O   0  0  0  0  0  0  0  0  0  0  0  0
    1.0716    0.8250    0.0000 C   0  0  0  0  0  0  0  0  0  0  0  0
    0.3572    0.4125    0.0000 C   0  0  0  0  0  0  0  0  0  0  0  0
   -0.3572    0.8250    0.0000 C   0  0  0  0  0  0  0  0  0  0  0  0
    1.7862    0.4125    0.0000 S   0  0  0  0  0  0  0  0  0  0  0  0
    2.5007    0.0000    0.0000 O   0  0  0  0  0  0  0  0  0  0  0  0
   -1.7862   -1.8950    0.0000 H   0  0  0  0  0  0  0  0  0  0  0  0
   -0.8596   -1.3601    0.0000 H   0  0  0  0  0  0  0  0  0  0  0  0
   -0.1450   -0.9475    0.0000 H   0  0  0  0  0  0  0  0  0  0  0  0
   -1.0717   -1.4825    0.0000 H   0  0  0  0  0  0  0  0  0  0  0  0
   -1.7862    1.8950    0.0000 H   0  0  0  0  0  0  0  0  0  0  0  0
   -2.7129    1.3600    0.0000 H   0  0  0  0  0  0  0  0  0  0  0  0
   -3.4273    0.9475    0.0000 H   0  0  0  0  0  0  0  0  0  0  0  0
   -2.5007    1.4825    0.0000 H   0  0  0  0  0  0  0  0  0  0  0  0
    1.0715    1.8950    0.0000 H   0  0  0  0  0  0  0  0  0  0  0  0
    0.1449    1.3600    0.0000 H   0  0  0  0  0  0  0  0  0  0  0  0
    0.3572   -0.6575    0.0000 H   0  0  0  0  0  0  0  0  0  0  0  0
   -0.5695   -0.1225    0.0000 H   0  0  0  0  0  0  0  0  0  0  0  0
   -0.3572    1.8950    0.0000 H   0  0  0  0  0  0  0  0  0  0  0  0
    0.5695    1.3600    0.0000 H   0  0  0  0  0  0  0  0  0  0  0  0
    2.5007   -0.9700    0.0000 H   0  0  0  0  0  0  0  0  0  0  0  0
  2  1  1  0  0  0  0
  2  4  1  0  0  0  0
  2 14  1  0  0  0  0
  2 15  1  0  0  0  0
  4  3  1  0  0  0  0
  4 16  1  0  0  0  0
  4 17  1  0  0  0  0
  5  3  1  0  0  0  0
  5 18  1  0  0  0  0
  5 19  1  0  0  0  0
  6  1  1  0  0  0  0
  6  5  1  0  0  0  0
  6 20  1  0  0  0  0
  6 21  1  0  0  0  0
  7 12  2  0  0  0  0
  8 12  2  0  0  0  0
  9 12  1  0  0  0  0
  9 22  1  0  0  0  0
  9 23  1  0  0  0  0
 10  9  1  0  0  0  0
 10 24  1  0  0  0  0
 10 25  1  0  0  0  0
 11  3  1  0  0  0  0
 11 10  1  0  0  0  0
 11 26  1  0  0  0  0
 11 27  1  0  0  0  0
 12 13  1  0  0  0  0
 13 28  1  0  0  0  0
M  END
>  <DRUGBANK_ID>
DB03434

>  <SECONDARY_ACCESSION_NUMBERS>
EXPT02224

>  <COMMON_NAME>
3-(N-morpholino)propanesulfonic acid

>  <CAS_NUMBER>
1132-61-2

>  <UNII>
273BP63NV3

>  <SYNONYMS>
3-morpholinopropanesulfonic acid; MOPS; Morpholinopropane sulfonic acid

$$$$
