
 OpenBabel10282417072D

 68 73  0  0  1  0  0  0  0  0999 V2000
    1.4358   -2.7631    0.0000 C   0  0  0  0  0  0  0  0  0  0  0  0
    0.8838   -2.1500    0.0000 C   0  0  0  0  0  0  0  0  0  0  0  0
    0.0768   -2.3215    0.0000 O   0  0  0  0  0  0  0  0  0  0  0  0
    1.1387   -1.3654    0.0000 C   0  0  0  0  0  0  0  0  0  0  0  0
    0.6538   -0.6979    0.0000 N   0  0  0  0  0  0  0  0  0  0  0  0
    1.1387   -0.0305    0.0000 N   0  0  0  0  0  0  0  0  0  0  0  0
    0.8838    0.7541    0.0000 C   0  0  0  0  0  0  0  0  0  0  0  0
    0.0768    0.9256    0.0000 C   0  0  0  0  0  0  0  0  0  0  0  0
   -0.4752    0.3126    0.0000 O   0  0  0  0  0  0  0  0  0  0  0  0
   -0.1781    1.7103    0.0000 N   0  0  0  0  0  0  0  0  0  0  0  0
   -0.9628    1.9652    0.0000 C   0  0  2  0  0  0  0  0  0  0  0  0
   -1.6772    2.3777    0.0000 C   0  0  0  0  0  0  0  0  0  0  0  0
   -0.9628    2.7902    0.0000 C   0  0  1  0  0  0  0  0  0  0  0  0
   -1.2983    3.5439    0.0000 C   0  0  0  0  0  0  0  0  0  0  0  0
   -0.1781    3.0451    0.0000 C   0  0  0  0  0  0  0  0  0  0  0  0
    0.3068    2.3777    0.0000 C   0  0  1  0  0  0  0  0  0  0  0  0
    1.1318    2.3777    0.0000 C   0  0  0  0  0  0  0  0  0  0  0  0
    1.5443    1.6632    0.0000 O   0  0  0  0  0  0  0  0  0  0  0  0
    1.5443    3.0922    0.0000 N   0  0  0  0  0  0  0  0  0  0  0  0
    2.3693    3.0922    0.0000 C   0  0  0  0  0  0  0  0  0  0  0  0
    2.7818    3.8066    0.0000 N   0  0  0  0  0  0  0  0  0  0  0  0
    3.6068    3.8066    0.0000 C   0  0  0  0  0  0  0  0  0  0  0  0
    4.0193    4.5211    0.0000 Br  0  0  0  0  0  0  0  0  0  0  0  0
    4.0193    3.0922    0.0000 C   0  0  0  0  0  0  0  0  0  0  0  0
    3.6068    2.3777    0.0000 C   0  0  0  0  0  0  0  0  0  0  0  0
    2.7818    2.3777    0.0000 C   0  0  0  0  0  0  0  0  0  0  0  0
    2.3693    1.6632    0.0000 C   0  0  0  0  0  0  0  0  0  0  0  0
    1.9233   -0.2854    0.0000 C   0  0  0  0  0  0  0  0  0  0  0  0
    2.6378    0.1271    0.0000 C   0  0  0  0  0  0  0  0  0  0  0  0
    3.3523   -0.2854    0.0000 C   0  0  0  0  0  0  0  0  0  0  0  0
    3.3523   -1.1104    0.0000 C   0  0  0  0  0  0  0  0  0  0  0  0
    2.6378   -1.5229    0.0000 C   0  0  0  0  0  0  0  0  0  0  0  0
    1.9233   -1.1104    0.0000 C   0  0  0  0  0  0  0  0  0  0  0  0
    4.0668   -1.5229    0.0000 C   0  0  0  0  0  0  0  0  0  0  0  0
    4.7812   -1.1104    0.0000 C   0  0  0  0  0  0  0  0  0  0  0  0
    5.4957   -1.5229    0.0000 N   0  0  0  0  0  0  0  0  0  0  0  0
    5.4957   -2.3479    0.0000 C   0  0  0  0  0  0  0  0  0  0  0  0
    6.2102   -2.7604    0.0000 C   0  0  0  0  0  0  0  0  0  0  0  0
    4.7812   -2.7604    0.0000 N   0  0  0  0  0  0  0  0  0  0  0  0
    4.0668   -2.3479    0.0000 C   0  0  0  0  0  0  0  0  0  0  0  0
    1.1051   -3.7807    0.0000 H   0  0  0  0  0  0  0  0  0  0  0  0
    2.4824   -2.5407    0.0000 H   0  0  0  0  0  0  0  0  0  0  0  0
    2.1517   -3.5583    0.0000 H   0  0  0  0  0  0  0  0  0  0  0  0
    1.5998    1.5493    0.0000 H   0  0  0  0  0  0  0  0  0  0  0  0
    0.5531    1.7717    0.0000 H   0  0  0  0  0  0  0  0  0  0  0  0
   -0.5276    2.9427    0.0000 H   0  0  0  0  0  0  0  0  0  0  0  0
   -2.7472    2.3777    0.0000 H   0  0  0  0  0  0  0  0  0  0  0  0
   -1.9542    3.4112    0.0000 H   0  0  0  0  0  0  0  0  0  0  0  0
   -0.6693    4.4095    0.0000 H   0  0  0  0  0  0  0  0  0  0  0  0
   -2.3624    3.6558    0.0000 H   0  0  0  0  0  0  0  0  0  0  0  0
   -1.7334    4.5214    0.0000 H   0  0  0  0  0  0  0  0  0  0  0  0
    0.1526    4.0627    0.0000 H   0  0  0  0  0  0  0  0  0  0  0  0
    0.8787    3.2125    0.0000 H   0  0  0  0  0  0  0  0  0  0  0  0
    0.7926    3.3311    0.0000 H   0  0  0  0  0  0  0  0  0  0  0  0
    1.0520    3.9448    0.0000 H   0  0  0  0  0  0  0  0  0  0  0  0
    5.0513    3.0922    0.0000 H   0  0  0  0  0  0  0  0  0  0  0  0
    4.1228    1.4840    0.0000 H   0  0  0  0  0  0  0  0  0  0  0  0
    1.2993    1.6632    0.0000 H   0  0  0  0  0  0  0  0  0  0  0  0
    2.9043    0.7366    0.0000 H   0  0  0  0  0  0  0  0  0  0  0  0
    1.8343    0.7365    0.0000 H   0  0  0  0  0  0  0  0  0  0  0  0
    2.6378    1.1591    0.0000 H   0  0  0  0  0  0  0  0  0  0  0  0
    4.2460    0.2306    0.0000 H   0  0  0  0  0  0  0  0  0  0  0  0
    2.6378   -2.5549    0.0000 H   0  0  0  0  0  0  0  0  0  0  0  0
    4.7812   -0.0784    0.0000 H   0  0  0  0  0  0  0  0  0  0  0  0
    6.2102   -3.8304    0.0000 H   0  0  0  0  0  0  0  0  0  0  0  0
    7.1368   -2.2254    0.0000 H   0  0  0  0  0  0  0  0  0  0  0  0
    7.1369   -3.2954    0.0000 H   0  0  0  0  0  0  0  0  0  0  0  0
    3.1731   -2.8639    0.0000 H   0  0  0  0  0  0  0  0  0  0  0  0
  1  2  1  0  0  0  0
  1 41  1  0  0  0  0
  1 42  1  0  0  0  0
  1 43  1  0  0  0  0
  2  3  2  0  0  0  0
  2  4  1  0  0  0  0
  4  5  2  0  0  0  0
  4 33  1  0  0  0  0
  5  6  1  0  0  0  0
  6  7  1  0  0  0  0
  6 28  1  0  0  0  0
  7  8  1  0  0  0  0
  7 44  1  0  0  0  0
  7 45  1  0  0  0  0
  8  9  2  0  0  0  0
  8 10  1  0  0  0  0
 11 10  1  0  0  0  0
 11 12  1  0  0  0  0
 11 13  1  0  0  0  0
 11 46  1  1  0  0  0
 12 47  1  0  0  0  0
 12 48  1  0  0  0  0
 13 12  1  0  0  0  0
 13 14  1  1  0  0  0
 13 15  1  0  0  0  0
 14 49  1  0  0  0  0
 14 50  1  0  0  0  0
 14 51  1  0  0  0  0
 15 52  1  0  0  0  0
 15 53  1  0  0  0  0
 16 15  1  0  0  0  0
 16 10  1  0  0  0  0
 16 17  1  0  0  0  0
 16 54  1  6  0  0  0
 17 18  2  0  0  0  0
 17 19  1  0  0  0  0
 19 20  1  0  0  0  0
 19 55  1  0  0  0  0
 20 21  2  0  0  0  0
 20 26  1  0  0  0  0
 21 22  1  0  0  0  0
 22 23  1  0  0  0  0
 22 24  2  0  0  0  0
 24 25  1  0  0  0  0
 24 56  1  0  0  0  0
 25 26  2  0  0  0  0
 25 57  1  0  0  0  0
 26 27  1  0  0  0  0
 27 58  1  0  0  0  0
 27 59  1  0  0  0  0
 27 60  1  0  0  0  0
 28 29  2  0  0  0  0
 28 33  1  0  0  0  0
 29 30  1  0  0  0  0
 29 61  1  0  0  0  0
 30 31  2  0  0  0  0
 30 62  1  0  0  0  0
 31 32  1  0  0  0  0
 31 34  1  0  0  0  0
 32 33  2  0  0  0  0
 32 63  1  0  0  0  0
 34 35  2  0  0  0  0
 34 40  1  0  0  0  0
 35 36  1  0  0  0  0
 35 64  1  0  0  0  0
 36 37  2  0  0  0  0
 37 38  1  0  0  0  0
 37 39  1  0  0  0  0
 38 65  1  0  0  0  0
 38 66  1  0  0  0  0
 38 67  1  0  0  0  0
 39 40  2  0  0  0  0
 40 68  1  0  0  0  0
M  END
>  <DRUGBANK_ID>
DB18012

>  <COMMON_NAME>
Vemircopan

>  <CAS_NUMBER>
2086178-00-7

>  <UNII>
HN6I4K50QB

>  <SYNONYMS>
2-azabicyclo(3.1.0)hexane-3-carboxamide, 2-(2-(3-acetyl-5-(2-methyl-5-pyrimidinyl)-1h-indazol-1-yl)acetyl)-n-(6-bromo-3-methyl-2-pyridinyl)-5-methyl-, (1r,3s,5r)-

$$$$
