
 OpenBabel10282417072D

 58 57  0  0  0  0  0  0  0  0999 V2000
    8.4711    5.7158    0.0000 C   0  0  0  0  0  0  0  0  0  0  0  0
    9.1855    6.1283    0.0000 C   0  0  0  0  0  0  0  0  0  0  0  0
    9.9000    5.7158    0.0000 N   0  0  0  0  0  0  0  0  0  0  0  0
   10.6145    6.1283    0.0000 C   0  0  0  0  0  0  0  0  0  0  0  0
   11.3289    5.7158    0.0000 C   0  0  0  0  0  0  0  0  0  0  0  0
   12.0434    6.1283    0.0000 C   0  0  0  0  0  0  0  0  0  0  0  0
   12.7579    5.7158    0.0000 C   0  0  0  0  0  0  0  0  0  0  0  0
   13.4724    6.1283    0.0000 N   0  0  0  0  0  0  0  0  0  0  0  0
   14.1868    5.7158    0.0000 C   0  0  0  0  0  0  0  0  0  0  0  0
   14.9013    6.1283    0.0000 C   0  0  0  0  0  0  0  0  0  0  0  0
   15.6158    5.7158    0.0000 C   0  0  0  0  0  0  0  0  0  0  0  0
   16.3302    6.1283    0.0000 C   0  0  0  0  0  0  0  0  0  0  0  0
   17.0447    5.7158    0.0000 N   0  0  0  0  0  0  0  0  0  0  0  0
   17.7592    6.1283    0.0000 C   0  0  0  0  0  0  0  0  0  0  0  0
   18.4737    5.7158    0.0000 C   0  0  0  0  0  0  0  0  0  0  0  0
   19.1881    6.1283    0.0000 C   0  0  0  0  0  0  0  0  0  0  0  0
   19.9026    5.7158    0.0000 C   0  0  0  0  0  0  0  0  0  0  0  0
   20.6171    6.1283    0.0000 N   0  0  0  0  0  0  0  0  0  0  0  0
   21.3315    5.7158    0.0000 C   0  0  0  0  0  0  0  0  0  0  0  0
   22.0460    6.1283    0.0000 C   0  0  0  0  0  0  0  0  0  0  0  0
    7.5444    6.2508    0.0000 H   0  0  0  0  0  0  0  0  0  0  0  0
    8.4711    4.6458    0.0000 H   0  0  0  0  0  0  0  0  0  0  0  0
    7.5445    5.1808    0.0000 H   0  0  0  0  0  0  0  0  0  0  0  0
    9.1855    7.1983    0.0000 H   0  0  0  0  0  0  0  0  0  0  0  0
   10.1121    6.6633    0.0000 H   0  0  0  0  0  0  0  0  0  0  0  0
    9.9000    4.6958    0.0000 H   0  0  0  0  0  0  0  0  0  0  0  0
   10.6145    7.1983    0.0000 H   0  0  0  0  0  0  0  0  0  0  0  0
   11.5412    6.6633    0.0000 H   0  0  0  0  0  0  0  0  0  0  0  0
   11.3289    4.6458    0.0000 H   0  0  0  0  0  0  0  0  0  0  0  0
   12.2555    5.1808    0.0000 H   0  0  0  0  0  0  0  0  0  0  0  0
   12.0434    7.1983    0.0000 H   0  0  0  0  0  0  0  0  0  0  0  0
   12.9700    6.6633    0.0000 H   0  0  0  0  0  0  0  0  0  0  0  0
   12.7579    4.6458    0.0000 H   0  0  0  0  0  0  0  0  0  0  0  0
   13.6845    5.1808    0.0000 H   0  0  0  0  0  0  0  0  0  0  0  0
   13.4724    7.1483    0.0000 H   0  0  0  0  0  0  0  0  0  0  0  0
   14.1868    4.6458    0.0000 H   0  0  0  0  0  0  0  0  0  0  0  0
   15.1134    5.1808    0.0000 H   0  0  0  0  0  0  0  0  0  0  0  0
   14.9013    7.1983    0.0000 H   0  0  0  0  0  0  0  0  0  0  0  0
   15.8279    6.6633    0.0000 H   0  0  0  0  0  0  0  0  0  0  0  0
   15.6158    4.6458    0.0000 H   0  0  0  0  0  0  0  0  0  0  0  0
   16.5425    5.1808    0.0000 H   0  0  0  0  0  0  0  0  0  0  0  0
   16.3302    7.1983    0.0000 H   0  0  0  0  0  0  0  0  0  0  0  0
   17.2568    6.6633    0.0000 H   0  0  0  0  0  0  0  0  0  0  0  0
   17.0447    4.6958    0.0000 H   0  0  0  0  0  0  0  0  0  0  0  0
   17.7592    7.1983    0.0000 H   0  0  0  0  0  0  0  0  0  0  0  0
   18.6858    6.6633    0.0000 H   0  0  0  0  0  0  0  0  0  0  0  0
   18.4737    4.6458    0.0000 H   0  0  0  0  0  0  0  0  0  0  0  0
   19.4004    5.1808    0.0000 H   0  0  0  0  0  0  0  0  0  0  0  0
   19.1881    7.1983    0.0000 H   0  0  0  0  0  0  0  0  0  0  0  0
   20.1147    6.6633    0.0000 H   0  0  0  0  0  0  0  0  0  0  0  0
   19.9026    4.6458    0.0000 H   0  0  0  0  0  0  0  0  0  0  0  0
   20.8292    5.1808    0.0000 H   0  0  0  0  0  0  0  0  0  0  0  0
   20.6171    7.1483    0.0000 H   0  0  0  0  0  0  0  0  0  0  0  0
   21.3315    4.6458    0.0000 H   0  0  0  0  0  0  0  0  0  0  0  0
   22.2581    5.1808    0.0000 H   0  0  0  0  0  0  0  0  0  0  0  0
   22.9726    5.5933    0.0000 H   0  0  0  0  0  0  0  0  0  0  0  0
   22.0460    7.1983    0.0000 H   0  0  0  0  0  0  0  0  0  0  0  0
   22.9727    6.6633    0.0000 H   0  0  0  0  0  0  0  0  0  0  0  0
  1  2  1  0  0  0  0
  1 21  1  0  0  0  0
  1 22  1  0  0  0  0
  1 23  1  0  0  0  0
  2  3  1  0  0  0  0
  2 24  1  0  0  0  0
  2 25  1  0  0  0  0
  3  4  1  0  0  0  0
  3 26  1  0  0  0  0
  4  5  1  0  0  0  0
  4 27  1  0  0  0  0
  4 28  1  0  0  0  0
  5  6  1  0  0  0  0
  5 29  1  0  0  0  0
  5 30  1  0  0  0  0
  6  7  1  0  0  0  0
  6 31  1  0  0  0  0
  6 32  1  0  0  0  0
  7  8  1  0  0  0  0
  7 33  1  0  0  0  0
  7 34  1  0  0  0  0
  8  9  1  0  0  0  0
  8 35  1  0  0  0  0
  9 10  1  0  0  0  0
  9 36  1  0  0  0  0
  9 37  1  0  0  0  0
 10 11  1  0  0  0  0
 10 38  1  0  0  0  0
 10 39  1  0  0  0  0
 11 12  1  0  0  0  0
 11 40  1  0  0  0  0
 11 41  1  0  0  0  0
 12 13  1  0  0  0  0
 12 42  1  0  0  0  0
 12 43  1  0  0  0  0
 13 14  1  0  0  0  0
 13 44  1  0  0  0  0
 14 15  1  0  0  0  0
 14 45  1  0  0  0  0
 14 46  1  0  0  0  0
 15 16  1  0  0  0  0
 15 47  1  0  0  0  0
 15 48  1  0  0  0  0
 16 17  1  0  0  0  0
 16 49  1  0  0  0  0
 16 50  1  0  0  0  0
 17 18  1  0  0  0  0
 17 51  1  0  0  0  0
 17 52  1  0  0  0  0
 18 19  1  0  0  0  0
 18 53  1  0  0  0  0
 19 20  1  0  0  0  0
 19 54  1  0  0  0  0
 19 55  1  0  0  0  0
 20 56  1  0  0  0  0
 20 57  1  0  0  0  0
 20 58  1  0  0  0  0
M  END
>  <DRUGBANK_ID>
DB13011

>  <COMMON_NAME>
Diethylhomospermine

>  <CAS_NUMBER>
119422-08-1

>  <UNII>
8G6X94GNHO

$$$$
