1206
 OpenBabel10282417072D

 31 31  0  0  0  0  0  0  0  0999 V2000
    4.5080    2.6813    0.0000 Cl  0  0  0  0  0  0  0  0  0  0  0  0
    3.7935   -0.2063    0.0000 O   0  0  0  0  0  0  0  0  0  0  0  0
    2.3645    2.2688    0.0000 O   0  0  0  0  0  0  0  0  0  0  0  0
    2.3645   -0.2063    0.0000 N   0  0  0  0  0  0  0  0  0  0  0  0
    3.0791    1.0313    0.0000 N   0  0  0  0  0  0  0  0  0  0  0  0
    2.3645    1.4438    0.0000 N   0  0  0  0  0  0  0  0  0  0  0  0
    2.3645   -1.0313    0.0000 C   0  0  0  0  0  0  0  0  0  0  0  0
    1.6500   -1.4438    0.0000 C   0  0  0  0  0  0  0  0  0  0  0  0
    3.0791   -1.4438    0.0000 C   0  0  0  0  0  0  0  0  0  0  0  0
    1.6500   -2.2688    0.0000 C   0  0  0  0  0  0  0  0  0  0  0  0
    3.0791   -2.2688    0.0000 C   0  0  0  0  0  0  0  0  0  0  0  0
    2.3645   -2.6813    0.0000 C   0  0  0  0  0  0  0  0  0  0  0  0
    3.0791    0.2063    0.0000 C   0  0  0  0  0  0  0  0  0  0  0  0
    3.7935    1.4438    0.0000 C   0  0  0  0  0  0  0  0  0  0  0  0
    3.7935    2.2688    0.0000 C   0  0  0  0  0  0  0  0  0  0  0  0
    1.5119    0.2859    0.0000 H   0  0  0  0  0  0  0  0  0  0  0  0
    2.3645   -2.1013    0.0000 H   0  0  0  0  0  0  0  0  0  0  0  0
    0.7234   -0.9088    0.0000 H   0  0  0  0  0  0  0  0  0  0  0  0
    0.7234   -1.9788    0.0000 H   0  0  0  0  0  0  0  0  0  0  0  0
    4.0057   -0.9088    0.0000 H   0  0  0  0  0  0  0  0  0  0  0  0
    4.0058   -1.9788    0.0000 H   0  0  0  0  0  0  0  0  0  0  0  0
    0.7234   -2.8038    0.0000 H   0  0  0  0  0  0  0  0  0  0  0  0
    1.6500   -3.3388    0.0000 H   0  0  0  0  0  0  0  0  0  0  0  0
    4.0057   -2.8038    0.0000 H   0  0  0  0  0  0  0  0  0  0  0  0
    3.0790   -3.3388    0.0000 H   0  0  0  0  0  0  0  0  0  0  0  0
    2.3645   -3.7513    0.0000 H   0  0  0  0  0  0  0  0  0  0  0  0
    3.2911   -3.2164    0.0000 H   0  0  0  0  0  0  0  0  0  0  0  0
    4.7202    0.9088    0.0000 H   0  0  0  0  0  0  0  0  0  0  0  0
    4.7201    1.9788    0.0000 H   0  0  0  0  0  0  0  0  0  0  0  0
    2.8669    2.8038    0.0000 H   0  0  0  0  0  0  0  0  0  0  0  0
    2.8669    1.7338    0.0000 H   0  0  0  0  0  0  0  0  0  0  0  0
  1 15  1  0  0  0  0
  2 13  2  0  0  0  0
  3  6  2  0  0  0  0
  4  7  1  0  0  0  0
  4 13  1  0  0  0  0
  4 16  1  0  0  0  0
  5  6  1  0  0  0  0
  5 13  1  0  0  0  0
  5 14  1  0  0  0  0
  7  8  1  0  0  0  0
  7  9  1  0  0  0  0
  7 17  1  0  0  0  0
  8 10  1  0  0  0  0
  8 18  1  0  0  0  0
  8 19  1  0  0  0  0
  9 11  1  0  0  0  0
  9 20  1  0  0  0  0
  9 21  1  0  0  0  0
 10 12  1  0  0  0  0
 10 22  1  0  0  0  0
 10 23  1  0  0  0  0
 11 12  1  0  0  0  0
 11 24  1  0  0  0  0
 11 25  1  0  0  0  0
 12 26  1  0  0  0  0
 12 27  1  0  0  0  0
 14 15  1  0  0  0  0
 14 28  1  0  0  0  0
 14 29  1  0  0  0  0
 15 30  1  0  0  0  0
 15 31  1  0  0  0  0
M  END
>  <DRUGBANK_ID>
DB01206

>  <SECONDARY_ACCESSION_NUMBERS>
APRD00292

>  <COMMON_NAME>
Lomustine

>  <CAS_NUMBER>
13010-47-4

>  <UNII>
7BRF0Z81KG

>  <SYNONYMS>
1-(2-Chloroethyl)-3-cyclohexyl-1-nitrosourea; 1-(2-chloroethyl)-3-cyclohexylnitrosourea; Chloroethylcyclohexylnitrosourea; CINU; Cyclohexyl chloroethyl nitrosourea; Lomustina; Lomustine; Lomustinum; N-(2-chloroethyl)-N'-cyclohexyl-N-nitrosourea

$$$$
