1403
 OpenBabel10282417072D

 47 49  0  0  1  0  0  0  0  0999 V2000
   12.2932  -12.4596    0.0000 C   0  0  0  0  0  0  0  0  0  0  0  0
   12.2932  -13.2846    0.0000 C   0  0  0  0  0  0  0  0  0  0  0  0
   13.0357  -13.6971    0.0000 C   0  0  0  0  0  0  0  0  0  0  0  0
   13.0357  -12.0472    0.0000 C   0  0  0  0  0  0  0  0  0  0  0  0
   13.7369  -12.4596    0.0000 C   0  0  0  0  0  0  0  0  0  0  0  0
   13.7369  -13.2846    0.0000 C   0  0  0  0  0  0  0  0  0  0  0  0
   14.4381  -13.6971    0.0000 S   0  0  0  0  0  0  0  0  0  0  0  0
   14.4381  -12.0472    0.0000 N   0  0  0  0  0  0  0  0  0  0  0  0
   15.1806  -12.4596    0.0000 C   0  0  0  0  0  0  0  0  0  0  0  0
   15.1806  -13.2846    0.0000 C   0  0  0  0  0  0  0  0  0  0  0  0
   15.8406  -13.6971    0.0000 C   0  0  0  0  0  0  0  0  0  0  0  0
   16.5831  -13.2846    0.0000 C   0  0  0  0  0  0  0  0  0  0  0  0
   16.5831  -12.4596    0.0000 C   0  0  0  0  0  0  0  0  0  0  0  0
   15.8818  -12.0472    0.0000 C   0  0  0  0  0  0  0  0  0  0  0  0
   14.4381  -11.2221    0.0000 C   0  0  0  0  0  0  0  0  0  0  0  0
   15.1806  -10.8097    0.0000 C   0  0  1  0  0  0  0  0  0  0  0  0
   15.1806   -9.9847    0.0000 C   0  0  0  0  0  0  0  0  0  0  0  0
   15.8818  -11.2221    0.0000 C   0  0  0  0  0  0  0  0  0  0  0  0
   15.8818   -9.5722    0.0000 N   0  0  0  0  0  0  0  0  0  0  0  0
   15.8818   -8.7472    0.0000 C   0  0  0  0  0  0  0  0  0  0  0  0
   16.6243   -9.9847    0.0000 C   0  0  0  0  0  0  0  0  0  0  0  0
   17.3030  -12.0479    0.0000 O   0  0  0  0  0  0  0  0  0  0  0  0
   18.0098  -12.4598    0.0000 C   0  0  0  0  0  0  0  0  0  0  0  0
   11.4038  -11.9362    0.0000 H   0  0  0  0  0  0  0  0  0  0  0  0
   11.4037  -13.8080    0.0000 H   0  0  0  0  0  0  0  0  0  0  0  0
   13.0484  -14.7290    0.0000 H   0  0  0  0  0  0  0  0  0  0  0  0
   13.0484  -11.0153    0.0000 H   0  0  0  0  0  0  0  0  0  0  0  0
   15.8140  -14.7288    0.0000 H   0  0  0  0  0  0  0  0  0  0  0  0
   17.4726  -13.8080    0.0000 H   0  0  0  0  0  0  0  0  0  0  0  0
   15.8818  -11.0152    0.0000 H   0  0  0  0  0  0  0  0  0  0  0  0
   13.5159  -10.6794    0.0000 H   0  0  0  0  0  0  0  0  0  0  0  0
   14.4514  -10.1522    0.0000 H   0  0  0  0  0  0  0  0  0  0  0  0
   15.1674  -11.8796    0.0000 H   0  0  0  0  0  0  0  0  0  0  0  0
   14.2518   -9.4535    0.0000 H   0  0  0  0  0  0  0  0  0  0  0  0
   15.1741   -8.9147    0.0000 H   0  0  0  0  0  0  0  0  0  0  0  0
   15.8732  -12.2921    0.0000 H   0  0  0  0  0  0  0  0  0  0  0  0
   16.8127  -10.6946    0.0000 H   0  0  0  0  0  0  0  0  0  0  0  0
   16.8041  -11.7645    0.0000 H   0  0  0  0  0  0  0  0  0  0  0  0
   16.8084   -8.2122    0.0000 H   0  0  0  0  0  0  0  0  0  0  0  0
   14.9552   -8.2122    0.0000 H   0  0  0  0  0  0  0  0  0  0  0  0
   15.8818   -7.6772    0.0000 H   0  0  0  0  0  0  0  0  0  0  0  0
   16.6420  -11.0546    0.0000 H   0  0  0  0  0  0  0  0  0  0  0  0
   17.5420   -9.4345    0.0000 H   0  0  0  0  0  0  0  0  0  0  0  0
   17.5596  -10.5043    0.0000 H   0  0  0  0  0  0  0  0  0  0  0  0
   18.0055  -13.5298    0.0000 H   0  0  0  0  0  0  0  0  0  0  0  0
   18.9386  -11.9286    0.0000 H   0  0  0  0  0  0  0  0  0  0  0  0
   18.9343  -12.9986    0.0000 H   0  0  0  0  0  0  0  0  0  0  0  0
  1  2  1  0  0  0  0
  1 24  1  0  0  0  0
  2  3  2  0  0  0  0
  2 25  1  0  0  0  0
  3  6  1  0  0  0  0
  3 26  1  0  0  0  0
  4  1  2  0  0  0  0
  4 27  1  0  0  0  0
  5  6  2  0  0  0  0
  5  4  1  0  0  0  0
  6  7  1  0  0  0  0
  7 10  1  0  0  0  0
  8 15  1  0  0  0  0
  8  5  1  0  0  0  0
  9  8  1  0  0  0  0
  9 10  2  0  0  0  0
 10 11  1  0  0  0  0
 11 12  2  0  0  0  0
 11 28  1  0  0  0  0
 12 13  1  0  0  0  0
 12 29  1  0  0  0  0
 13 14  2  0  0  0  0
 13 22  1  0  0  0  0
 14  9  1  0  0  0  0
 14 30  1  0  0  0  0
 15 16  1  0  0  0  0
 15 31  1  0  0  0  0
 15 32  1  0  0  0  0
 16 17  1  0  0  0  0
 16 18  1  0  0  0  0
 16 33  1  6  0  0  0
 17 19  1  0  0  0  0
 17 34  1  0  0  0  0
 17 35  1  0  0  0  0
 18 36  1  0  0  0  0
 18 37  1  0  0  0  0
 18 38  1  0  0  0  0
 19 20  1  0  0  0  0
 19 21  1  0  0  0  0
 20 39  1  0  0  0  0
 20 40  1  0  0  0  0
 20 41  1  0  0  0  0
 21 42  1  0  0  0  0
 21 43  1  0  0  0  0
 21 44  1  0  0  0  0
 22 23  1  0  0  0  0
 23 45  1  0  0  0  0
 23 46  1  0  0  0  0
 23 47  1  0  0  0  0
M  END
>  <DRUGBANK_ID>
DB01403

>  <COMMON_NAME>
Methotrimeprazine

>  <CAS_NUMBER>
60-99-1

>  <UNII>
9G0LAW7ATQ

>  <SYNONYMS>
(-)-(2R)-3-(2-methoxy-10H-phenothiazin-10-yl)-N,N,2-trimethylpropan-1-amine; (-)-10-(3-(Dimethylamino)-2-methylpropyl)-2-methoxyphenothiazine; 2-Methoxytrimeprazine; Levomepromazina; Levomepromazine; Lévomépromazine; Levomepromazinum; Methotrimeprazine

$$$$
