
 OpenBabel10282417072D

 41 44  0  0  0  0  0  0  0  0999 V2000
   -3.9284   -1.3349    0.0000 C   0  0  0  0  0  0  0  0  0  0  0  0
   -3.1034   -1.3349    0.0000 C   0  0  0  0  0  0  0  0  0  0  0  0
   -4.3409   -0.6205    0.0000 C   0  0  0  0  0  0  0  0  0  0  0  0
   -2.6909    2.2374    0.0000 C   0  0  0  0  0  0  0  0  0  0  0  0
   -2.6909   -0.6205    0.0000 C   0  0  0  0  0  0  0  0  0  0  0  0
   -3.9284    0.0940    0.0000 C   0  0  0  0  0  0  0  0  0  0  0  0
   -3.1034    1.5229    0.0000 C   0  0  0  0  0  0  0  0  0  0  0  0
   -1.8659    2.2374    0.0000 C   0  0  0  0  0  0  0  0  0  0  0  0
    1.3556    0.6979    0.0000 C   0  0  0  0  0  0  0  0  0  0  0  0
    1.3556    2.3479    0.0000 C   0  0  0  0  0  0  0  0  0  0  0  0
   -3.1034    0.0940    0.0000 C   0  0  0  0  0  0  0  0  0  0  0  0
   -2.6909    0.8085    0.0000 C   0  0  0  0  0  0  0  0  0  0  0  0
   -1.4534    1.5229    0.0000 C   0  0  0  0  0  0  0  0  0  0  0  0
    2.0701    1.1104    0.0000 C   0  0  0  0  0  0  0  0  0  0  0  0
    2.0701    1.9354    0.0000 C   0  0  0  0  0  0  0  0  0  0  0  0
    0.6411    1.1104    0.0000 C   0  0  0  0  0  0  0  0  0  0  0  0
    0.6411    1.9354    0.0000 C   0  0  0  0  0  0  0  0  0  0  0  0
   -1.8659    0.8085    0.0000 C   0  0  0  0  0  0  0  0  0  0  0  0
    2.7845    0.6979    0.0000 C   0  0  0  0  0  0  0  0  0  0  0  0
   -0.6284    1.5229    0.0000 C   0  0  0  0  0  0  0  0  0  0  0  0
    2.7845    2.3479    0.0000 Cl  0  0  0  0  0  0  0  0  0  0  0  0
    3.4990    1.1104    0.0000 N   0  0  0  0  0  0  0  0  0  0  0  0
    2.7845   -0.1271    0.0000 N   0  0  0  0  0  0  0  0  0  0  0  0
   -0.1435    0.8555    0.0000 N   0  0  0  0  0  0  0  0  0  0  0  0
   -0.1435    2.1904    0.0000 N   0  0  0  0  0  0  0  0  0  0  0  0
   -1.4534    0.0940    0.0000 O   0  0  0  0  0  0  0  0  0  0  0  0
   -4.4444   -2.2286    0.0000 H   0  0  0  0  0  0  0  0  0  0  0  0
   -2.5874   -2.2286    0.0000 H   0  0  0  0  0  0  0  0  0  0  0  0
   -5.3729   -0.6205    0.0000 H   0  0  0  0  0  0  0  0  0  0  0  0
   -3.2069    3.1311    0.0000 H   0  0  0  0  0  0  0  0  0  0  0  0
   -1.6589   -0.6205    0.0000 H   0  0  0  0  0  0  0  0  0  0  0  0
   -4.4444    0.9877    0.0000 H   0  0  0  0  0  0  0  0  0  0  0  0
   -4.1354    1.5229    0.0000 H   0  0  0  0  0  0  0  0  0  0  0  0
   -1.3499    3.1311    0.0000 H   0  0  0  0  0  0  0  0  0  0  0  0
    1.3556   -0.3341    0.0000 H   0  0  0  0  0  0  0  0  0  0  0  0
    1.3556    3.3799    0.0000 H   0  0  0  0  0  0  0  0  0  0  0  0
    4.3516    0.6181    0.0000 H   0  0  0  0  0  0  0  0  0  0  0  0
    1.9319   -0.6194    0.0000 H   0  0  0  0  0  0  0  0  0  0  0  0
    3.6371   -0.6193    0.0000 H   0  0  0  0  0  0  0  0  0  0  0  0
   -0.4477    3.1267    0.0000 H   0  0  0  0  0  0  0  0  0  0  0  0
   -1.9219   -0.7175    0.0000 H   0  0  0  0  0  0  0  0  0  0  0  0
  1 27  1  0  0  0  0
  2  1  2  0  0  0  0
  2 28  1  0  0  0  0
  3  1  1  0  0  0  0
  3 29  1  0  0  0  0
  4 30  1  0  0  0  0
  5  2  1  0  0  0  0
  5 31  1  0  0  0  0
  6  3  2  0  0  0  0
  6 32  1  0  0  0  0
  7  4  2  0  0  0  0
  7 33  1  0  0  0  0
  8  4  1  0  0  0  0
  8 34  1  0  0  0  0
  9 35  1  0  0  0  0
 10 36  1  0  0  0  0
 11  5  2  0  0  0  0
 11  6  1  0  0  0  0
 12  7  1  0  0  0  0
 12 11  1  0  0  0  0
 13  8  2  0  0  0  0
 14  9  2  0  0  0  0
 15 10  2  0  0  0  0
 15 14  1  0  0  0  0
 16  9  1  0  0  0  0
 17 10  1  0  0  0  0
 17 16  2  0  0  0  0
 18 12  2  0  0  0  0
 18 13  1  0  0  0  0
 19 14  1  0  0  0  0
 20 13  1  0  0  0  0
 21 15  1  0  0  0  0
 22 19  2  0  0  0  0
 22 37  1  0  0  0  0
 23 19  1  0  0  0  0
 23 38  1  0  0  0  0
 23 39  1  0  0  0  0
 24 16  1  0  0  0  0
 24 20  2  0  0  0  0
 25 17  1  0  0  0  0
 25 20  1  0  0  0  0
 25 40  1  0  0  0  0
 26 18  1  0  0  0  0
 26 41  1  0  0  0  0
M  END
>  <DRUGBANK_ID>
DB02366

>  <SECONDARY_ACCESSION_NUMBERS>
EXPT00299

>  <COMMON_NAME>
CRA_10762

$$$$
