553
 OpenBabel10282417072D

 34 36  0  0  0  0  0  0  0  0999 V2000
    1.1708   -2.0625    0.0000 O   0  0  0  0  0  0  0  0  0  0  0  0
    1.1708   -1.2375    0.0000 C   0  0  0  0  0  0  0  0  0  0  0  0
    1.8852   -0.8250    0.0000 N   0  0  0  0  0  0  0  0  0  0  0  0
    1.8852    0.0000    0.0000 C   0  0  0  0  0  0  0  0  0  0  0  0
    1.1708    0.4125    0.0000 C   0  0  2  0  0  0  0  0  0  0  0  0
    1.1708    1.2375    0.0000 C   0  0  0  0  0  0  0  0  0  0  0  0
    1.8852    1.6500    0.0000 C   0  0  0  0  0  0  0  0  0  0  0  0
    1.8852    2.4750    0.0000 F   0  0  0  0  0  0  0  0  0  0  0  0
    0.4563    0.0000    0.0000 C   0  0  0  0  0  0  0  0  0  0  0  0
   -0.3283    0.2549    0.0000 N   0  0  0  0  0  0  0  0  0  0  0  0
    0.4563   -0.8250    0.0000 C   0  0  0  0  0  0  0  0  0  0  0  0
   -0.3283   -1.0800    0.0000 C   0  0  0  0  0  0  0  0  0  0  0  0
   -0.8132   -0.4125    0.0000 C   0  0  0  0  0  0  0  0  0  0  0  0
   -1.6382   -0.4125    0.0000 C   0  0  0  0  0  0  0  0  0  0  0  0
   -2.0507   -1.1270    0.0000 C   0  0  0  0  0  0  0  0  0  0  0  0
   -2.8757   -1.1270    0.0000 C   0  0  0  0  0  0  0  0  0  0  0  0
   -2.0507    0.3019    0.0000 N   0  0  0  0  0  0  0  0  0  0  0  0
   -2.8757    0.3019    0.0000 C   0  0  0  0  0  0  0  0  0  0  0  0
   -3.2882   -0.4125    0.0000 N   0  0  0  0  0  0  0  0  0  0  0  0
   -3.2882    1.0164    0.0000 N   0  0  0  0  0  0  0  0  0  0  0  0
    1.6765    0.7044    0.0000 H   0  0  0  0  0  0  0  0  0  0  0  0
    2.7378   -1.3172    0.0000 H   0  0  0  0  0  0  0  0  0  0  0  0
    2.8119    0.5350    0.0000 H   0  0  0  0  0  0  0  0  0  0  0  0
    1.8852    1.0700    0.0000 H   0  0  0  0  0  0  0  0  0  0  0  0
    0.2441    1.7725    0.0000 H   0  0  0  0  0  0  0  0  0  0  0  0
    1.1708    2.3075    0.0000 H   0  0  0  0  0  0  0  0  0  0  0  0
    2.8119    1.1150    0.0000 H   0  0  0  0  0  0  0  0  0  0  0  0
    2.8118    2.1850    0.0000 H   0  0  0  0  0  0  0  0  0  0  0  0
   -0.6325    1.1912    0.0000 H   0  0  0  0  0  0  0  0  0  0  0  0
   -0.6472   -2.0615    0.0000 H   0  0  0  0  0  0  0  0  0  0  0  0
   -1.5347   -2.0207    0.0000 H   0  0  0  0  0  0  0  0  0  0  0  0
   -3.3917   -2.0207    0.0000 H   0  0  0  0  0  0  0  0  0  0  0  0
   -2.7959    1.8690    0.0000 H   0  0  0  0  0  0  0  0  0  0  0  0
   -4.2727    1.0164    0.0000 H   0  0  0  0  0  0  0  0  0  0  0  0
  2  1  2  0  0  0  0
  2 11  1  0  0  0  0
  3  2  1  0  0  0  0
  3 22  1  0  0  0  0
  4  3  1  0  0  0  0
  4  5  1  0  0  0  0
  4 23  1  0  0  0  0
  4 24  1  0  0  0  0
  5  6  1  0  0  0  0
  5  9  1  0  0  0  0
  5 21  1  6  0  0  0
  6 25  1  0  0  0  0
  6 26  1  0  0  0  0
  7  6  1  0  0  0  0
  7 27  1  0  0  0  0
  7 28  1  0  0  0  0
  8  7  1  0  0  0  0
  9 11  2  0  0  0  0
  9 10  1  0  0  0  0
 10 13  1  0  0  0  0
 10 29  1  0  0  0  0
 11 12  1  0  0  0  0
 12 13  2  0  0  0  0
 12 30  1  0  0  0  0
 13 14  1  0  0  0  0
 14 15  1  0  0  0  0
 15 16  2  0  0  0  0
 15 31  1  0  0  0  0
 16 32  1  0  0  0  0
 17 14  2  0  0  0  0
 17 18  1  0  0  0  0
 18 19  2  0  0  0  0
 19 16  1  0  0  0  0
 20 18  1  0  0  0  0
 20 33  1  0  0  0  0
 20 34  1  0  0  0  0
M  END
>  <DRUGBANK_ID>
DB07149

>  <COMMON_NAME>
(7S)-2-(2-aminopyrimidin-4-yl)-7-(2-fluoroethyl)-1,5,6,7-tetrahydro-4H-pyrrolo[3,2-c]pyridin-4-one

$$$$
