1320
 OpenBabel10282417072D

 40 42  0  0  0  0  0  0  0  0999 V2000
    6.9218    1.8428    0.0000 P   0  0  0  0  0  0  0  0  0  0  0  0
    5.4110   -0.9262    0.0000 O   0  0  0  0  0  0  0  0  0  0  0  0
    6.1371    1.5878    0.0000 O   0  0  0  0  0  0  0  0  0  0  0  0
    4.5135    1.8358    0.0000 O   0  0  0  0  0  0  0  0  0  0  0  0
    6.6668    2.6274    0.0000 O   0  0  0  0  0  0  0  0  0  0  0  0
    7.7064    2.0978    0.0000 O   0  0  0  0  0  0  0  0  0  0  0  0
    7.1768    1.0582    0.0000 O   0  0  0  0  0  0  0  0  0  0  0  0
    3.8461    0.5259    0.0000 N   0  0  0  0  0  0  0  0  0  0  0  0
    5.1809    0.5259    0.0000 N   0  0  0  0  0  0  0  0  0  0  0  0
    4.1010   -0.2587    0.0000 C   0  0  0  0  0  0  0  0  0  0  0  0
    4.9260   -0.2587    0.0000 C   0  0  0  0  0  0  0  0  0  0  0  0
    4.1010   -1.0837    0.0000 C   0  0  0  0  0  0  0  0  0  0  0  0
    3.2840   -0.3735    0.0000 C   0  0  0  0  0  0  0  0  0  0  0  0
    4.5135    1.0108    0.0000 C   0  0  0  0  0  0  0  0  0  0  0  0
    5.9656    0.7809    0.0000 C   0  0  0  0  0  0  0  0  0  0  0  0
    4.8155   -1.4963    0.0000 C   0  0  0  0  0  0  0  0  0  0  0  0
    2.9749   -1.1385    0.0000 C   0  0  0  0  0  0  0  0  0  0  0  0
    3.3865   -1.4963    0.0000 C   0  0  0  0  0  0  0  0  0  0  0  0
    2.7761    0.2765    0.0000 C   0  0  0  0  0  0  0  0  0  0  0  0
    4.8155   -2.3213    0.0000 C   0  0  0  0  0  0  0  0  0  0  0  0
    2.1580   -1.2533    0.0000 C   0  0  0  0  0  0  0  0  0  0  0  0
    3.3865   -2.3213    0.0000 C   0  0  0  0  0  0  0  0  0  0  0  0
    1.9591    0.1618    0.0000 C   0  0  0  0  0  0  0  0  0  0  0  0
    4.1010   -2.7338    0.0000 C   0  0  0  0  0  0  0  0  0  0  0  0
    1.6500   -0.6032    0.0000 C   0  0  0  0  0  0  0  0  0  0  0  0
    7.3158    3.3483    0.0000 H   0  0  0  0  0  0  0  0  0  0  0  0
    8.4273    1.4488    0.0000 H   0  0  0  0  0  0  0  0  0  0  0  0
    2.9098    0.8301    0.0000 H   0  0  0  0  0  0  0  0  0  0  0  0
    6.7608    0.0650    0.0000 H   0  0  0  0  0  0  0  0  0  0  0  0
    5.7432   -0.2657    0.0000 H   0  0  0  0  0  0  0  0  0  0  0  0
    5.7093   -0.9803    0.0000 H   0  0  0  0  0  0  0  0  0  0  0  0
    3.6102   -1.9517    0.0000 H   0  0  0  0  0  0  0  0  0  0  0  0
    2.4927   -0.9803    0.0000 H   0  0  0  0  0  0  0  0  0  0  0  0
    3.1627    1.2333    0.0000 H   0  0  0  0  0  0  0  0  0  0  0  0
    5.7092   -2.8373    0.0000 H   0  0  0  0  0  0  0  0  0  0  0  0
    1.7714   -2.2102    0.0000 H   0  0  0  0  0  0  0  0  0  0  0  0
    2.4928   -2.8373    0.0000 H   0  0  0  0  0  0  0  0  0  0  0  0
    1.3238    0.9751    0.0000 H   0  0  0  0  0  0  0  0  0  0  0  0
    4.1010   -3.7658    0.0000 H   0  0  0  0  0  0  0  0  0  0  0  0
    0.6280   -0.7469    0.0000 H   0  0  0  0  0  0  0  0  0  0  0  0
  1  3  1  0  0  0  0
  1  5  1  0  0  0  0
  1  6  1  0  0  0  0
  1  7  2  0  0  0  0
  2 11  2  0  0  0  0
  3 15  1  0  0  0  0
  4 14  2  0  0  0  0
  5 26  1  0  0  0  0
  6 27  1  0  0  0  0
  8 10  1  0  0  0  0
  8 14  1  0  0  0  0
  8 28  1  0  0  0  0
  9 11  1  0  0  0  0
  9 14  1  0  0  0  0
  9 15  1  0  0  0  0
 10 11  1  0  0  0  0
 10 12  1  0  0  0  0
 10 13  1  0  0  0  0
 12 16  2  0  0  0  0
 12 18  1  0  0  0  0
 13 17  2  0  0  0  0
 13 19  1  0  0  0  0
 15 29  1  0  0  0  0
 15 30  1  0  0  0  0
 16 20  1  0  0  0  0
 16 31  1  0  0  0  0
 17 21  1  0  0  0  0
 17 32  1  0  0  0  0
 18 22  2  0  0  0  0
 18 33  1  0  0  0  0
 19 23  2  0  0  0  0
 19 34  1  0  0  0  0
 20 24  2  0  0  0  0
 20 35  1  0  0  0  0
 21 25  2  0  0  0  0
 21 36  1  0  0  0  0
 22 24  1  0  0  0  0
 22 37  1  0  0  0  0
 23 25  1  0  0  0  0
 23 38  1  0  0  0  0
 24 39  1  0  0  0  0
 25 40  1  0  0  0  0
M  END
>  <DRUGBANK_ID>
DB01320

>  <COMMON_NAME>
Fosphenytoin

>  <CAS_NUMBER>
93390-81-9

>  <UNII>
B4SF212641

>  <SYNONYMS>
(3-Phosphoryloxymethyl)phenytoin; Fosfenitoina; Fosphenytoin; Fosphenytoine; Fosphenytoinum

$$$$
