
 OpenBabel10282417072D

 60 63  0  0  1  0  0  0  0  0999 V2000
    2.0630   -1.4167    0.0000 C   0  0  0  0  0  0  0  0  0  0  0  0
    2.8390   -1.6970    0.0000 C   0  0  1  0  0  0  0  0  0  0  0  0
    3.5218   -1.2340    0.0000 C   0  0  0  0  0  0  0  0  0  0  0  0
    4.1731   -1.7404    0.0000 C   0  0  1  0  0  0  0  0  0  0  0  0
    4.9853   -1.5952    0.0000 C   0  0  2  0  0  0  0  0  0  0  0  0
    5.2655   -0.8192    0.0000 C   0  0  0  0  0  0  0  0  0  0  0  0
    6.0777   -0.6740    0.0000 C   0  0  0  0  0  0  0  0  0  0  0  0
    6.6095   -1.3047    0.0000 C   0  0  0  0  0  0  0  0  0  0  0  0
    7.4216   -1.1595    0.0000 C   0  0  0  0  0  0  0  0  0  0  0  0
    7.9534   -1.7902    0.0000 C   0  0  0  0  0  0  0  0  0  0  0  0
    8.7655   -1.6450    0.0000 O   0  0  0  0  0  0  0  0  0  0  0  0
    7.6731   -2.5662    0.0000 C   0  0  0  0  0  0  0  0  0  0  0  0
    6.8610   -2.7114    0.0000 C   0  0  0  0  0  0  0  0  0  0  0  0
    6.3292   -2.0807    0.0000 C   0  0  2  0  0  0  0  0  0  0  0  0
    5.5171   -2.2259    0.0000 C   0  0  1  0  0  0  0  0  0  0  0  0
    5.2368   -3.0018    0.0000 C   0  0  0  0  0  0  0  0  0  0  0  0
    5.7686   -3.6325    0.0000 O   0  0  0  0  0  0  0  0  0  0  0  0
    4.4247   -3.1470    0.0000 C   0  0  0  0  0  0  0  0  0  0  0  0
    3.8928   -2.5163    0.0000 C   0  0  2  0  0  0  0  0  0  0  0  0
    3.0683   -2.4895    0.0000 C   0  0  1  0  0  0  0  0  0  0  0  0
    2.9469   -3.3055    0.0000 C   0  0  0  0  0  0  0  0  0  0  0  0
    3.5929   -3.8187    0.0000 O   0  0  0  0  0  0  0  0  0  0  0  0
    2.1795   -3.6084    0.0000 C   0  0  0  0  0  0  0  0  0  0  0  0
    2.0581   -4.4244    0.0000 O   0  0  0  0  0  0  0  0  0  0  0  0
    1.2907   -4.7273    0.0000 C   0  0  0  0  0  0  0  0  0  0  0  0
    1.1693   -5.5433    0.0000 O   0  0  0  0  0  0  0  0  0  0  0  0
    0.6447   -4.2141    0.0000 C   0  0  0  0  0  0  0  0  0  0  0  0
    2.3074   -2.8084    0.0000 O   0  0  0  0  0  0  0  0  0  0  0  0
    3.5330   -3.2587    0.0000 C   0  0  0  0  0  0  0  0  0  0  0  0
    6.0489   -2.8566    0.0000 C   0  0  0  0  0  0  0  0  0  0  0  0
    1.8746   -0.3634    0.0000 H   0  0  0  0  0  0  0  0  0  0  0  0
    1.2450   -2.1065    0.0000 H   0  0  0  0  0  0  0  0  0  0  0  0
    1.0566   -1.0532    0.0000 H   0  0  0  0  0  0  0  0  0  0  0  0
    2.7060   -0.6353    0.0000 H   0  0  0  0  0  0  0  0  0  0  0  0
    3.5566   -0.1646    0.0000 H   0  0  0  0  0  0  0  0  0  0  0  0
    4.4905   -0.7795    0.0000 H   0  0  0  0  0  0  0  0  0  0  0  0
    4.4295   -0.7016    0.0000 H   0  0  0  0  0  0  0  0  0  0  0  0
    4.2955   -0.7772    0.0000 H   0  0  0  0  0  0  0  0  0  0  0  0
    4.5757   -0.0012    0.0000 H   0  0  0  0  0  0  0  0  0  0  0  0
    5.6290    0.1872    0.0000 H   0  0  0  0  0  0  0  0  0  0  0  0
    6.4413    0.3323    0.0000 H   0  0  0  0  0  0  0  0  0  0  0  0
    7.1310   -0.4857    0.0000 H   0  0  0  0  0  0  0  0  0  0  0  0
    7.7722   -0.1889    0.0000 H   0  0  0  0  0  0  0  0  0  0  0  0
    8.3384   -3.3552    0.0000 H   0  0  0  0  0  0  0  0  0  0  0  0
    6.5104   -3.6820    0.0000 H   0  0  0  0  0  0  0  0  0  0  0  0
    6.2068   -3.0439    0.0000 H   0  0  0  0  0  0  0  0  0  0  0  0
    4.0612   -4.1534    0.0000 H   0  0  0  0  0  0  0  0  0  0  0  0
    3.3714   -3.3354    0.0000 H   0  0  0  0  0  0  0  0  0  0  0  0
    1.3417   -2.9429    0.0000 H   0  0  0  0  0  0  0  0  0  0  0  0
    1.1842   -4.0012    0.0000 H   0  0  0  0  0  0  0  0  0  0  0  0
    0.8022   -3.1558    0.0000 H   0  0  0  0  0  0  0  0  0  0  0  0
   -0.3506   -4.6069    0.0000 H   0  0  0  0  0  0  0  0  0  0  0  0
   -0.1931   -3.5485    0.0000 H   0  0  0  0  0  0  0  0  0  0  0  0
    1.5354   -2.2211    0.0000 H   0  0  0  0  0  0  0  0  0  0  0  0
    2.4658   -3.3360    0.0000 H   0  0  0  0  0  0  0  0  0  0  0  0
    4.1336   -4.1443    0.0000 H   0  0  0  0  0  0  0  0  0  0  0  0
    3.0663   -4.2216    0.0000 H   0  0  0  0  0  0  0  0  0  0  0  0
    4.9956   -3.0449    0.0000 H   0  0  0  0  0  0  0  0  0  0  0  0
    6.7386   -3.6746    0.0000 H   0  0  0  0  0  0  0  0  0  0  0  0
    5.6853   -3.8629    0.0000 H   0  0  0  0  0  0  0  0  0  0  0  0
  1 31  1  0  0  0  0
  1 32  1  0  0  0  0
  1 33  1  0  0  0  0
  2  1  1  0  0  0  0
  2  3  1  0  0  0  0
  2 20  1  0  0  0  0
  2 34  1  6  0  0  0
  3 35  1  0  0  0  0
  3 36  1  0  0  0  0
  4  3  1  0  0  0  0
  4  5  1  0  0  0  0
  4 19  1  0  0  0  0
  4 37  1  6  0  0  0
  5  6  1  0  0  0  0
  5 15  1  0  0  0  0
  5 38  1  1  0  0  0
  6  7  1  0  0  0  0
  6 39  1  0  0  0  0
  6 40  1  0  0  0  0
  7  8  1  0  0  0  0
  7 41  1  0  0  0  0
  7 42  1  0  0  0  0
  8  9  2  0  0  0  0
  8 14  1  0  0  0  0
  9 10  1  0  0  0  0
  9 43  1  0  0  0  0
 10 11  2  0  0  0  0
 10 12  1  0  0  0  0
 12 13  2  0  0  0  0
 12 44  1  0  0  0  0
 13 14  1  0  0  0  0
 13 45  1  0  0  0  0
 14 15  1  0  0  0  0
 14 30  1  1  0  0  0
 15 16  1  0  0  0  0
 15 46  1  6  0  0  0
 16 17  2  0  0  0  0
 16 18  1  0  0  0  0
 18 19  1  0  0  0  0
 18 47  1  0  0  0  0
 18 48  1  0  0  0  0
 19 20  1  0  0  0  0
 19 29  1  1  0  0  0
 20 21  1  1  0  0  0
 20 28  1  0  0  0  0
 21 22  2  0  0  0  0
 21 23  1  0  0  0  0
 23 24  1  0  0  0  0
 23 49  1  0  0  0  0
 23 50  1  0  0  0  0
 24 25  1  0  0  0  0
 25 26  2  0  0  0  0
 25 27  1  0  0  0  0
 27 51  1  0  0  0  0
 27 52  1  0  0  0  0
 27 53  1  0  0  0  0
 28 54  1  0  0  0  0
 29 55  1  0  0  0  0
 29 56  1  0  0  0  0
 29 57  1  0  0  0  0
 30 58  1  0  0  0  0
 30 59  1  0  0  0  0
 30 60  1  0  0  0  0
M  END
>  <DRUGBANK_ID>
DB14625

>  <SECONDARY_ACCESSION_NUMBERS>
DBSALT002263

>  <COMMON_NAME>
Meprednisone acetate

>  <CAS_NUMBER>
1106-03-2

>  <UNII>
14GPV9B997

>  <SYNONYMS>
Meprednisone 21-acetate

$$$$
