
 OpenBabel10282417072D

 44 45  0  0  1  0  0  0  0  0999 V2000
   -6.6835    2.7975    0.0000 C   0  0  0  0  0  0  0  0  0  0  0  0
   -5.8630    2.8837    0.0000 C   0  0  0  0  0  0  0  0  0  0  0  0
   -5.5274    3.6374    0.0000 N   0  0  0  0  0  0  0  0  0  0  0  0
   -4.7070    3.7236    0.0000 C   0  0  0  0  0  0  0  0  0  0  0  0
   -4.2220    3.0562    0.0000 C   0  0  0  0  0  0  0  0  0  0  0  0
   -3.4016    3.1424    0.0000 C   0  0  0  0  0  0  0  0  0  0  0  0
   -3.0660    3.8961    0.0000 N   0  3  0  0  0  0  0  0  0  0  0  0
   -3.4785    4.6106    0.0000 C   0  0  0  0  0  0  0  0  0  0  0  0
   -2.9265    5.2237    0.0000 S   0  0  0  0  0  0  0  0  0  0  0  0
   -2.1728    4.8881    0.0000 C   0  0  0  0  0  0  0  0  0  0  0  0
   -1.4583    5.3006    0.0000 C   0  0  0  0  0  0  0  0  0  0  0  0
   -0.7438    4.8881    0.0000 C   0  0  0  0  0  0  0  0  0  0  0  0
   -0.0294    5.3006    0.0000 O   0  0  0  0  0  0  0  0  0  0  0  0
    0.6851    4.8881    0.0000 P   0  0  2  0  0  0  0  0  0  0  0  0
    0.2726    4.1737    0.0000 O   0  0  0  0  0  0  0  0  0  0  0  0
    1.0976    5.6026    0.0000 O   0  0  0  0  0  0  0  0  0  0  0  0
    1.3996    4.4756    0.0000 O   0  0  0  0  0  0  0  0  0  0  0  0
    2.1140    4.8881    0.0000 P   0  0  2  0  0  0  0  0  0  0  0  0
    2.8285    5.3006    0.0000 O   0  0  0  0  0  0  0  0  0  0  0  0
    2.5265    4.1737    0.0000 O   0  5  0  0  0  0  0  0  0  0  0  0
    1.7015    5.6026    0.0000 O   0  0  0  0  0  0  0  0  0  0  0  0
   -2.2590    4.0676    0.0000 C   0  0  0  0  0  0  0  0  0  0  0  0
   -1.6459    3.5156    0.0000 C   0  0  0  0  0  0  0  0  0  0  0  0
   -4.5576    2.3025    0.0000 C   0  0  0  0  0  0  0  0  0  0  0  0
   -4.0727    1.6351    0.0000 N   0  0  0  0  0  0  0  0  0  0  0  0
   -5.3781    2.2163    0.0000 N   0  0  0  0  0  0  0  0  0  0  0  0
   -7.3124    3.6632    0.0000 H   0  0  0  0  0  0  0  0  0  0  0  0
   -7.1188    1.8200    0.0000 H   0  0  0  0  0  0  0  0  0  0  0  0
   -7.7476    2.6857    0.0000 H   0  0  0  0  0  0  0  0  0  0  0  0
   -4.2873    4.6664    0.0000 H   0  0  0  0  0  0  0  0  0  0  0  0
   -2.7727    2.2767    0.0000 H   0  0  0  0  0  0  0  0  0  0  0  0
   -2.3375    3.2542    0.0000 H   0  0  0  0  0  0  0  0  0  0  0  0
   -4.5048    4.7185    0.0000 H   0  0  0  0  0  0  0  0  0  0  0  0
   -1.4583    6.3706    0.0000 H   0  0  0  0  0  0  0  0  0  0  0  0
   -0.5317    5.8356    0.0000 H   0  0  0  0  0  0  0  0  0  0  0  0
   -0.7438    3.8181    0.0000 H   0  0  0  0  0  0  0  0  0  0  0  0
    0.1829    4.3531    0.0000 H   0  0  0  0  0  0  0  0  0  0  0  0
   -0.6974    4.1737    0.0000 H   0  0  0  0  0  0  0  0  0  0  0  0
    3.6685    4.8156    0.0000 H   0  0  0  0  0  0  0  0  0  0  0  0
   -1.8683    2.4690    0.0000 H   0  0  0  0  0  0  0  0  0  0  0  0
   -0.6283    3.8463    0.0000 H   0  0  0  0  0  0  0  0  0  0  0  0
   -0.8507    2.7997    0.0000 H   0  0  0  0  0  0  0  0  0  0  0  0
   -4.4731    0.7357    0.0000 H   0  0  0  0  0  0  0  0  0  0  0  0
   -3.0936    1.7380    0.0000 H   0  0  0  0  0  0  0  0  0  0  0  0
  1  2  1  0  0  0  0
  1 27  1  0  0  0  0
  1 28  1  0  0  0  0
  1 29  1  0  0  0  0
  2  3  2  0  0  0  0
  2 26  1  0  0  0  0
  3  4  1  0  0  0  0
  4  5  2  0  0  0  0
  4 30  1  0  0  0  0
  5  6  1  0  0  0  0
  5 24  1  0  0  0  0
  6  7  1  0  0  0  0
  6 31  1  0  0  0  0
  6 32  1  0  0  0  0
  7  8  2  0  0  0  0
  7 22  1  0  0  0  0
  8  9  1  0  0  0  0
  8 33  1  0  0  0  0
  9 10  1  0  0  0  0
 10 11  1  0  0  0  0
 10 22  2  0  0  0  0
 11 12  1  0  0  0  0
 11 34  1  0  0  0  0
 11 35  1  0  0  0  0
 12 13  1  0  0  0  0
 12 36  1  0  0  0  0
 12 37  1  0  0  0  0
 14 13  1  0  0  0  0
 14 15  1  0  0  0  0
 14 16  2  1  0  0  0
 14 17  1  0  0  0  0
 15 38  1  0  0  0  0
 17 18  1  0  0  0  0
 18 19  1  0  0  0  0
 18 20  1  1  0  0  0
 18 21  2  0  0  0  0
 19 39  1  0  0  0  0
 22 23  1  0  0  0  0
 23 40  1  0  0  0  0
 23 41  1  0  0  0  0
 23 42  1  0  0  0  0
 24 25  1  0  0  0  0
 24 26  2  0  0  0  0
 25 43  1  0  0  0  0
 25 44  1  0  0  0  0
M  CHG  2   7   1  20  -1
M  END
>  <DRUGBANK_ID>
DB01987

>  <SECONDARY_ACCESSION_NUMBERS>
EXPT03031; EXPT03093

>  <COMMON_NAME>
Cocarboxylase

>  <CAS_NUMBER>
136-08-3

>  <UNII>
Q57971654Y

>  <SYNONYMS>
Cocarboxylase; Thiamine diphosphate; Thiamine pyrophosphate

$$$$
