
 OpenBabel10282417072D

 86 91  0  0  0  0  0  0  0  0999 V2000
   -0.7911    1.7315    0.0000 P   0  0  3  0  0  0  0  0  0  0  0  0
   -2.2123    1.5846    0.0000 P   0  0  1  0  0  0  0  0  0  0  0  0
    2.0985    1.9528    0.0000 O   0  0  0  0  0  0  0  0  0  0  0  0
   -4.3035    0.1289    0.0000 O   0  0  0  0  0  0  0  0  0  0  0  0
    2.7852   -0.0685    0.0000 O   0  0  0  0  0  0  0  0  0  0  0  0
    1.0004    0.1221    0.0000 O   0  0  0  0  0  0  0  0  0  0  0  0
   -5.3398    1.9952    0.0000 O   0  0  0  0  0  0  0  0  0  0  0  0
   -6.3974    0.5450    0.0000 O   0  0  0  0  0  0  0  0  0  0  0  0
   -0.0379    1.3946    0.0000 O   0  0  0  0  0  0  0  0  0  0  0  0
   -2.8807    1.1009    0.0000 O   0  0  0  0  0  0  0  0  0  0  0  0
    5.6453    3.4784    0.0000 O   0  0  0  0  0  0  0  0  0  0  0  0
   -1.5441    2.0683    0.0000 O   0  0  0  0  0  0  0  0  0  0  0  0
   -1.7286    0.9163    0.0000 O   0  0  0  0  0  0  0  0  0  0  0  0
    6.2345    0.6819    0.0000 O   0  0  0  0  0  0  0  0  0  0  0  0
   -0.4541    2.4846    0.0000 O   0  5  0  0  0  0  0  0  0  0  0  0
   -1.1279    0.9785    0.0000 O   0  0  0  0  0  0  0  0  0  0  0  0
   -2.6962    2.2529    0.0000 O   0  0  0  0  0  0  0  0  0  0  0  0
    3.5180    1.5699    0.0000 N   0  3  0  0  0  0  0  0  0  0  0  0
   -5.3448   -0.9088    0.0000 N   0  0  0  0  0  0  0  0  0  0  0  0
   -5.3448   -2.2366    0.0000 N   0  0  0  0  0  0  0  0  0  0  0  0
   -6.8400   -0.7476    0.0000 N   0  0  0  0  0  0  0  0  0  0  0  0
    5.1710   -0.2722    0.0000 N   0  0  0  0  0  0  0  0  0  0  0  0
   -7.5545   -1.9852    0.0000 N   0  0  0  0  0  0  0  0  0  0  0  0
   -6.8400   -3.2227    0.0000 N   0  0  0  0  0  0  0  0  0  0  0  0
    2.7108    1.3997    0.0000 C   0  0  1  0  0  0  0  0  0  0  0  0
    2.3739    0.6466    0.0000 C   0  0  1  0  0  0  0  0  0  0  0  0
    1.5536    0.7342    0.0000 C   0  0  1  0  0  0  0  0  0  0  0  0
    1.3834    1.5416    0.0000 C   0  0  1  0  0  0  0  0  0  0  0  0
   -5.0863    1.2102    0.0000 C   0  0  1  0  0  0  0  0  0  0  0  0
   -5.5724    0.5435    0.0000 C   0  0  2  0  0  0  0  0  0  0  0  0
   -4.3020    0.9540    0.0000 C   0  0  1  0  0  0  0  0  0  0  0  0
   -5.0886   -0.1246    0.0000 C   0  0  1  0  0  0  0  0  0  0  0  0
    5.9399    2.0802    0.0000 C   0  0  1  0  0  0  0  0  0  0  0  0
    0.6303    1.8784    0.0000 C   0  0  0  0  0  0  0  0  0  0  0  0
    6.4909    1.4662    0.0000 C   0  0  0  0  0  0  0  0  0  0  0  0
    5.1325    1.9101    0.0000 C   0  0  0  0  0  0  0  0  0  0  0  0
   -3.6337    1.4377    0.0000 C   0  0  0  0  0  0  0  0  0  0  0  0
    7.2982    1.6363    0.0000 C   0  0  0  0  0  0  0  0  0  0  0  0
    7.5545    2.4206    0.0000 C   0  0  0  0  0  0  0  0  0  0  0  0
    4.0691    0.9558    0.0000 C   0  0  0  0  0  0  0  0  0  0  0  0
    6.1962    2.8644    0.0000 C   0  0  0  0  0  0  0  0  0  0  0  0
    7.0034    3.0346    0.0000 C   0  0  0  0  0  0  0  0  0  0  0  0
    4.8763    1.1260    0.0000 C   0  0  0  0  0  0  0  0  0  0  0  0
    3.7743    2.3541    0.0000 C   0  0  0  0  0  0  0  0  0  0  0  0
    4.5816    2.5242    0.0000 C   0  0  0  0  0  0  0  0  0  0  0  0
   -6.1255   -1.1602    0.0000 C   0  0  0  0  0  0  0  0  0  0  0  0
   -4.8634   -1.5727    0.0000 C   0  0  0  0  0  0  0  0  0  0  0  0
   -6.1255   -1.9852    0.0000 C   0  0  0  0  0  0  0  0  0  0  0  0
    5.4272    0.5118    0.0000 C   0  0  0  0  0  0  0  0  0  0  0  0
   -6.8400   -2.3977    0.0000 C   0  0  0  0  0  0  0  0  0  0  0  0
   -7.5545   -1.1602    0.0000 C   0  0  0  0  0  0  0  0  0  0  0  0
    4.6705   -0.3777    0.0000 H   0  0  0  0  0  0  0  0  0  0  0  0
    5.5126   -0.6529    0.0000 H   0  0  0  0  0  0  0  0  0  0  0  0
   -6.3970   -3.4784    0.0000 H   0  0  0  0  0  0  0  0  0  0  0  0
   -7.2830   -3.4784    0.0000 H   0  0  0  0  0  0  0  0  0  0  0  0
    2.2988   -0.9077    0.0000 H   0  0  0  0  0  0  0  0  0  0  0  0
    0.0520    0.3255    0.0000 H   0  0  0  0  0  0  0  0  0  0  0  0
   -4.6894    2.7149    0.0000 H   0  0  0  0  0  0  0  0  0  0  0  0
   -6.8809    1.3859    0.0000 H   0  0  0  0  0  0  0  0  0  0  0  0
   -2.1247    0.0309    0.0000 H   0  0  0  0  0  0  0  0  0  0  0  0
    2.9894    2.4328    0.0000 H   0  0  0  0  0  0  0  0  0  0  0  0
    3.4425    0.7008    0.0000 H   0  0  0  0  0  0  0  0  0  0  0  0
    1.9353   -0.2654    0.0000 H   0  0  0  0  0  0  0  0  0  0  0  0
    1.3292    2.6102    0.0000 H   0  0  0  0  0  0  0  0  0  0  0  0
   -6.1428    1.3794    0.0000 H   0  0  0  0  0  0  0  0  0  0  0  0
   -6.0565    1.4977    0.0000 H   0  0  0  0  0  0  0  0  0  0  0  0
   -3.3495    0.4665    0.0000 H   0  0  0  0  0  0  0  0  0  0  0  0
   -4.3333   -0.8825    0.0000 H   0  0  0  0  0  0  0  0  0  0  0  0
    5.6075    1.0631    0.0000 H   0  0  0  0  0  0  0  0  0  0  0  0
    0.5202    2.9427    0.0000 H   0  0  0  0  0  0  0  0  0  0  0  0
    1.4970    2.5059    0.0000 H   0  0  0  0  0  0  0  0  0  0  0  0
    6.1585    0.4491    0.0000 H   0  0  0  0  0  0  0  0  0  0  0  0
    7.2055    0.6698    0.0000 H   0  0  0  0  0  0  0  0  0  0  0  0
   -3.7437    2.5020    0.0000 H   0  0  0  0  0  0  0  0  0  0  0  0
   -4.6104    1.8747    0.0000 H   0  0  0  0  0  0  0  0  0  0  0  0
    8.0128    0.8399    0.0000 H   0  0  0  0  0  0  0  0  0  0  0  0
    8.3452    1.8570    0.0000 H   0  0  0  0  0  0  0  0  0  0  0  0
    8.6015    2.6414    0.0000 H   0  0  0  0  0  0  0  0  0  0  0  0
    7.8868    3.4377    0.0000 H   0  0  0  0  0  0  0  0  0  0  0  0
    3.7486   -0.0252    0.0000 H   0  0  0  0  0  0  0  0  0  0  0  0
    7.3357    4.0517    0.0000 H   0  0  0  0  0  0  0  0  0  0  0  0
    6.2887    3.8309    0.0000 H   0  0  0  0  0  0  0  0  0  0  0  0
    3.0851    3.1222    0.0000 H   0  0  0  0  0  0  0  0  0  0  0  0
    4.9023    3.5051    0.0000 H   0  0  0  0  0  0  0  0  0  0  0  0
   -3.8314   -1.5727    0.0000 H   0  0  0  0  0  0  0  0  0  0  0  0
   -8.4483   -0.6442    0.0000 H   0  0  0  0  0  0  0  0  0  0  0  0
  1  9  1  0  0  0  0
  1 12  1  0  0  0  0
  1 15  1  0  0  0  0
  1 16  2  0  0  0  0
  2 10  1  0  0  0  0
  2 12  1  0  0  0  0
  2 13  1  0  0  0  0
  2 17  2  6  0  0  0
  3 25  1  0  0  0  0
  3 28  1  0  0  0  0
  4 31  1  0  0  0  0
  4 32  1  0  0  0  0
  5 56  1  0  0  0  0
  6 57  1  0  0  0  0
  7 58  1  0  0  0  0
  8 59  1  0  0  0  0
  9 34  1  0  0  0  0
 10 37  1  0  0  0  0
 11 41  2  0  0  0  0
 13 60  1  0  0  0  0
 14 49  2  0  0  0  0
 18 40  2  0  0  0  0
 18 44  1  0  0  0  0
 19 46  1  0  0  0  0
 19 47  1  0  0  0  0
 20 47  2  0  0  0  0
 20 48  1  0  0  0  0
 21 46  2  0  0  0  0
 21 51  1  0  0  0  0
 22 49  1  0  0  0  0
 22 52  1  0  0  0  0
 22 53  1  0  0  0  0
 23 50  1  0  0  0  0
 23 51  2  0  0  0  0
 24 50  1  0  0  0  0
 24 54  1  0  0  0  0
 24 55  1  0  0  0  0
 25 18  1  0  0  0  0
 25 26  1  0  0  0  0
 25 61  1  6  0  0  0
 26  5  1  0  0  0  0
 26 27  1  0  0  0  0
 26 62  1  1  0  0  0
 27  6  1  0  0  0  0
 27 28  1  0  0  0  0
 27 63  1  1  0  0  0
 28 34  1  0  0  0  0
 28 64  1  6  0  0  0
 29  7  1  0  0  0  0
 29 30  1  0  0  0  0
 29 31  1  0  0  0  0
 29 65  1  1  0  0  0
 30  8  1  0  0  0  0
 30 32  1  0  0  0  0
 30 66  1  1  0  0  0
 31 37  1  0  0  0  0
 31 67  1  6  0  0  0
 32 19  1  0  0  0  0
 32 68  1  6  0  0  0
 33 35  1  0  0  0  0
 33 36  1  0  0  0  0
 33 41  1  0  0  0  0
 33 69  1  6  0  0  0
 34 70  1  0  0  0  0
 34 71  1  0  0  0  0
 35 38  1  0  0  0  0
 35 72  1  0  0  0  0
 35 73  1  0  0  0  0
 36 43  2  0  0  0  0
 36 45  1  0  0  0  0
 37 74  1  0  0  0  0
 37 75  1  0  0  0  0
 38 39  1  0  0  0  0
 38 76  1  0  0  0  0
 38 77  1  0  0  0  0
 39 42  1  0  0  0  0
 39 78  1  0  0  0  0
 39 79  1  0  0  0  0
 40 43  1  0  0  0  0
 40 80  1  0  0  0  0
 41 42  1  0  0  0  0
 42 81  1  0  0  0  0
 42 82  1  0  0  0  0
 43 49  1  0  0  0  0
 44 45  2  0  0  0  0
 44 83  1  0  0  0  0
 45 84  1  0  0  0  0
 46 48  1  0  0  0  0
 47 85  1  0  0  0  0
 48 50  2  0  0  0  0
 51 86  1  0  0  0  0
M  CHG  2  15  -1  18   1
M  END
>  <DRUGBANK_ID>
DB03168

>  <SECONDARY_ACCESSION_NUMBERS>
EXPT02318

>  <COMMON_NAME>
Nicotinamide adenine dinucleotide cyclohexanone

$$$$
