
 OpenBabel10282417072D

 45 48  0  0  0  0  0  0  0  0999 V2000
   -0.3572    0.6187    0.0000 C   0  0  0  0  0  0  0  0  0  0  0  0
    0.3572    1.0311    0.0000 N   0  0  0  0  0  0  0  0  0  0  0  0
    1.0717    0.6187    0.0000 C   0  0  0  0  0  0  0  0  0  0  0  0
    1.0717   -0.2063    0.0000 C   0  0  0  0  0  0  0  0  0  0  0  0
    0.3572   -0.6188    0.0000 C   0  0  0  0  0  0  0  0  0  0  0  0
   -0.3572   -0.2063    0.0000 N   0  0  0  0  0  0  0  0  0  0  0  0
    1.7862   -0.6188    0.0000 C   0  0  0  0  0  0  0  0  0  0  0  0
    2.5006   -0.2063    0.0000 C   0  0  0  0  0  0  0  0  0  0  0  0
    2.5006    0.6188    0.0000 C   0  0  0  0  0  0  0  0  0  0  0  0
    1.7862    1.0313    0.0000 N   0  0  0  0  0  0  0  0  0  0  0  0
    3.2151    1.0313    0.0000 O   0  0  0  0  0  0  0  0  0  0  0  0
    1.7862    1.8563    0.0000 C   0  0  0  0  0  0  0  0  0  0  0  0
   -1.0717    1.0311    0.0000 N   0  0  0  0  0  0  0  0  0  0  0  0
   -1.7862    0.6187    0.0000 C   0  0  0  0  0  0  0  0  0  0  0  0
   -2.5006    1.0311    0.0000 C   0  0  0  0  0  0  0  0  0  0  0  0
   -3.2151    0.6187    0.0000 C   0  0  0  0  0  0  0  0  0  0  0  0
   -3.2151   -0.2063    0.0000 C   0  0  0  0  0  0  0  0  0  0  0  0
   -2.5006   -0.6188    0.0000 C   0  0  0  0  0  0  0  0  0  0  0  0
   -1.7862   -0.2063    0.0000 C   0  0  0  0  0  0  0  0  0  0  0  0
   -3.9296    1.0311    0.0000 C   0  0  0  0  0  0  0  0  0  0  0  0
   -4.6441    0.6187    0.0000 O   0  0  0  0  0  0  0  0  0  0  0  0
    3.2151   -0.6188    0.0000 C   0  0  0  0  0  0  0  0  0  0  0  0
    3.9296   -0.2063    0.0000 C   0  0  0  0  0  0  0  0  0  0  0  0
    4.6441   -0.6188    0.0000 C   0  0  0  0  0  0  0  0  0  0  0  0
    4.6441   -1.4438    0.0000 C   0  0  0  0  0  0  0  0  0  0  0  0
    3.9296   -1.8563    0.0000 C   0  0  0  0  0  0  0  0  0  0  0  0
    3.2151   -1.4438    0.0000 C   0  0  0  0  0  0  0  0  0  0  0  0
    2.5006   -1.8563    0.0000 Cl  0  0  0  0  0  0  0  0  0  0  0  0
    3.9296    0.6187    0.0000 Cl  0  0  0  0  0  0  0  0  0  0  0  0
    0.3572   -1.6508    0.0000 H   0  0  0  0  0  0  0  0  0  0  0  0
    1.7862   -1.6508    0.0000 H   0  0  0  0  0  0  0  0  0  0  0  0
    2.7128    2.3913    0.0000 H   0  0  0  0  0  0  0  0  0  0  0  0
    0.8596    2.3913    0.0000 H   0  0  0  0  0  0  0  0  0  0  0  0
    1.7862    2.9263    0.0000 H   0  0  0  0  0  0  0  0  0  0  0  0
   -1.0717    2.0156    0.0000 H   0  0  0  0  0  0  0  0  0  0  0  0
   -2.5006    2.0631    0.0000 H   0  0  0  0  0  0  0  0  0  0  0  0
   -4.1088   -0.7223    0.0000 H   0  0  0  0  0  0  0  0  0  0  0  0
   -2.5006   -1.6508    0.0000 H   0  0  0  0  0  0  0  0  0  0  0  0
   -0.8925   -0.7223    0.0000 H   0  0  0  0  0  0  0  0  0  0  0  0
   -3.9296    2.1011    0.0000 H   0  0  0  0  0  0  0  0  0  0  0  0
   -3.0030    1.5662    0.0000 H   0  0  0  0  0  0  0  0  0  0  0  0
   -5.4841    1.1038    0.0000 H   0  0  0  0  0  0  0  0  0  0  0  0
    5.5378   -0.1028    0.0000 H   0  0  0  0  0  0  0  0  0  0  0  0
    5.5378   -1.9598    0.0000 H   0  0  0  0  0  0  0  0  0  0  0  0
    3.9296   -2.8883    0.0000 H   0  0  0  0  0  0  0  0  0  0  0  0
  1  2  1  0  0  0  0
  1  6  2  0  0  0  0
  1 13  1  0  0  0  0
  2  3  2  0  0  0  0
  3  4  1  0  0  0  0
  4  5  2  0  0  0  0
  5  6  1  0  0  0  0
  5 30  1  0  0  0  0
  7  8  2  0  0  0  0
  7  4  1  0  0  0  0
  7 31  1  0  0  0  0
  8  9  1  0  0  0  0
  8 22  1  0  0  0  0
  9 10  1  0  0  0  0
  9 11  2  0  0  0  0
 10  3  1  0  0  0  0
 10 12  1  0  0  0  0
 12 32  1  0  0  0  0
 12 33  1  0  0  0  0
 12 34  1  0  0  0  0
 13 14  1  0  0  0  0
 13 35  1  0  0  0  0
 14 15  1  0  0  0  0
 14 19  2  0  0  0  0
 15 16  2  0  0  0  0
 15 36  1  0  0  0  0
 16 17  1  0  0  0  0
 16 20  1  0  0  0  0
 17 18  2  0  0  0  0
 17 37  1  0  0  0  0
 18 19  1  0  0  0  0
 18 38  1  0  0  0  0
 19 39  1  0  0  0  0
 20 21  1  0  0  0  0
 20 40  1  0  0  0  0
 20 41  1  0  0  0  0
 21 42  1  0  0  0  0
 22 23  1  0  0  0  0
 22 27  2  0  0  0  0
 23 24  2  0  0  0  0
 23 29  1  0  0  0  0
 24 25  1  0  0  0  0
 24 43  1  0  0  0  0
 25 26  2  0  0  0  0
 25 44  1  0  0  0  0
 26 27  1  0  0  0  0
 26 45  1  0  0  0  0
 27 28  1  0  0  0  0
M  END
>  <DRUGBANK_ID>
DB08339

>  <COMMON_NAME>
PD-166326

>  <CAS_NUMBER>
185039-91-2

>  <UNII>
0H77F2T4U3

$$$$
