NC3
 OpenBabel10282417072D

 30 30  0  0  0  0  0  0  0  0999 V2000
   -1.1332   -0.1463    0.0000 C   0  0  0  0  0  0  0  0  0  0  0  0
   -0.4187   -0.5588    0.0000 N   0  0  0  0  0  0  0  0  0  0  0  0
    0.2958   -0.1463    0.0000 C   0  0  0  0  0  0  0  0  0  0  0  0
    1.0102   -0.5588    0.0000 N   0  0  0  0  0  0  0  0  0  0  0  0
    1.7247   -0.1463    0.0000 C   0  0  0  0  0  0  0  0  0  0  0  0
    2.4392   -0.5588    0.0000 C   0  0  0  0  0  0  0  0  0  0  0  0
    3.1537   -0.1463    0.0000 O   0  0  0  0  0  0  0  0  0  0  0  0
    0.2958    0.6787    0.0000 O   0  0  0  0  0  0  0  0  0  0  0  0
    2.4392   -1.3838    0.0000 O   0  0  0  0  0  0  0  0  0  0  0  0
   -1.8476   -0.5588    0.0000 C   0  0  0  0  0  0  0  0  0  0  0  0
   -2.5621   -0.1463    0.0000 C   0  0  0  0  0  0  0  0  0  0  0  0
   -2.5621    0.6787    0.0000 C   0  0  0  0  0  0  0  0  0  0  0  0
   -1.8476    1.0912    0.0000 C   0  0  0  0  0  0  0  0  0  0  0  0
   -1.1332    0.6787    0.0000 C   0  0  0  0  0  0  0  0  0  0  0  0
   -2.0599    0.3887    0.0000 H   0  0  0  0  0  0  0  0  0  0  0  0
   -0.4187   -1.5433    0.0000 H   0  0  0  0  0  0  0  0  0  0  0  0
    1.0102   -1.5433    0.0000 H   0  0  0  0  0  0  0  0  0  0  0  0
    1.7247    0.9237    0.0000 H   0  0  0  0  0  0  0  0  0  0  0  0
    2.6513    0.3887    0.0000 H   0  0  0  0  0  0  0  0  0  0  0  0
    3.9652   -0.6148    0.0000 H   0  0  0  0  0  0  0  0  0  0  0  0
   -1.8476   -1.6288    0.0000 H   0  0  0  0  0  0  0  0  0  0  0  0
   -2.7742   -1.0938    0.0000 H   0  0  0  0  0  0  0  0  0  0  0  0
   -3.4887   -0.6813    0.0000 H   0  0  0  0  0  0  0  0  0  0  0  0
   -3.4887    0.3887    0.0000 H   0  0  0  0  0  0  0  0  0  0  0  0
   -3.4887    1.2137    0.0000 H   0  0  0  0  0  0  0  0  0  0  0  0
   -2.5621    1.7487    0.0000 H   0  0  0  0  0  0  0  0  0  0  0  0
   -1.8476    2.1612    0.0000 H   0  0  0  0  0  0  0  0  0  0  0  0
   -0.9209    1.6262    0.0000 H   0  0  0  0  0  0  0  0  0  0  0  0
   -0.2065    1.2137    0.0000 H   0  0  0  0  0  0  0  0  0  0  0  0
   -1.1332    1.7487    0.0000 H   0  0  0  0  0  0  0  0  0  0  0  0
  1  2  1  0  0  0  0
  1 10  1  0  0  0  0
  1 14  1  0  0  0  0
  1 15  1  0  0  0  0
  2  3  1  0  0  0  0
  2 16  1  0  0  0  0
  3  4  1  0  0  0  0
  3  8  2  0  0  0  0
  4  5  1  0  0  0  0
  4 17  1  0  0  0  0
  5  6  1  0  0  0  0
  5 18  1  0  0  0  0
  5 19  1  0  0  0  0
  6  7  1  0  0  0  0
  6  9  2  0  0  0  0
  7 20  1  0  0  0  0
 10 11  1  0  0  0  0
 10 21  1  0  0  0  0
 10 22  1  0  0  0  0
 11 12  1  0  0  0  0
 11 23  1  0  0  0  0
 11 24  1  0  0  0  0
 12 13  1  0  0  0  0
 12 25  1  0  0  0  0
 12 26  1  0  0  0  0
 13 14  1  0  0  0  0
 13 27  1  0  0  0  0
 13 28  1  0  0  0  0
 14 29  1  0  0  0  0
 14 30  1  0  0  0  0
M  END
>  <DRUGBANK_ID>
DB08256

>  <COMMON_NAME>
N-[(CYCLOHEXYLAMINO)CARBONYL]GLYCINE

$$$$
