
 OpenBabel10282417072D

 55 57  0  0  0  0  0  0  0  0999 V2000
   -6.4302   -1.2375    0.0000 C   0  0  0  0  0  0  0  0  0  0  0  0
   -5.7158   -0.8250    0.0000 C   0  0  0  0  0  0  0  0  0  0  0  0
   -5.0013   -1.2375    0.0000 C   0  0  0  0  0  0  0  0  0  0  0  0
   -5.0013   -2.0625    0.0000 C   0  0  0  0  0  0  0  0  0  0  0  0
   -5.7158   -2.4750    0.0000 C   0  0  0  0  0  0  0  0  0  0  0  0
   -6.4302   -2.0625    0.0000 C   0  0  0  0  0  0  0  0  0  0  0  0
   -4.2868   -2.4750    0.0000 N   0  0  0  0  0  0  0  0  0  0  0  0
   -3.5724   -2.0625    0.0000 C   0  0  0  0  0  0  0  0  0  0  0  0
   -3.5724   -1.2375    0.0000 O   0  0  0  0  0  0  0  0  0  0  0  0
   -2.8579   -2.4750    0.0000 C   0  0  0  0  0  0  0  0  0  0  0  0
   -2.8579   -3.3000    0.0000 C   0  0  0  0  0  0  0  0  0  0  0  0
   -2.1434   -3.7125    0.0000 O   0  0  0  0  0  0  0  0  0  0  0  0
   -3.5724   -3.7125    0.0000 N   0  0  0  0  0  0  0  0  0  0  0  0
   -4.2868   -3.3000    0.0000 C   0  0  0  0  0  0  0  0  0  0  0  0
   -5.0013   -3.7125    0.0000 O   0  0  0  0  0  0  0  0  0  0  0  0
   -3.5724   -4.5375    0.0000 C   0  0  0  0  0  0  0  0  0  0  0  0
   -2.8579   -4.9500    0.0000 C   0  0  0  0  0  0  0  0  0  0  0  0
   -2.8579   -5.7750    0.0000 C   0  0  0  0  0  0  0  0  0  0  0  0
   -3.5724   -6.1875    0.0000 C   0  0  0  0  0  0  0  0  0  0  0  0
   -4.2868   -5.7750    0.0000 C   0  0  0  0  0  0  0  0  0  0  0  0
   -4.2868   -4.9500    0.0000 C   0  0  0  0  0  0  0  0  0  0  0  0
   -2.1434   -2.0625    0.0000 C   0  0  0  0  0  0  0  0  0  0  0  0
   -2.1434   -1.2375    0.0000 O   0  0  0  0  0  0  0  0  0  0  0  0
   -1.4289   -2.4750    0.0000 N   0  0  0  0  0  0  0  0  0  0  0  0
   -0.7145   -2.0625    0.0000 C   0  0  0  0  0  0  0  0  0  0  0  0
    0.0000   -2.4750    0.0000 C   0  0  0  0  0  0  0  0  0  0  0  0
    0.7145   -2.0625    0.0000 O   0  0  0  0  0  0  0  0  0  0  0  0
    0.0000   -3.3000    0.0000 O   0  0  0  0  0  0  0  0  0  0  0  0
   -7.3569   -0.7025    0.0000 H   0  0  0  0  0  0  0  0  0  0  0  0
   -7.3568   -1.7725    0.0000 H   0  0  0  0  0  0  0  0  0  0  0  0
   -5.7158    0.2450    0.0000 H   0  0  0  0  0  0  0  0  0  0  0  0
   -4.7892   -0.2900    0.0000 H   0  0  0  0  0  0  0  0  0  0  0  0
   -4.0747   -0.7025    0.0000 H   0  0  0  0  0  0  0  0  0  0  0  0
   -4.0747   -1.7725    0.0000 H   0  0  0  0  0  0  0  0  0  0  0  0
   -5.0013   -3.1325    0.0000 H   0  0  0  0  0  0  0  0  0  0  0  0
   -5.7158   -3.5450    0.0000 H   0  0  0  0  0  0  0  0  0  0  0  0
   -6.6425   -3.0100    0.0000 H   0  0  0  0  0  0  0  0  0  0  0  0
   -7.3569   -2.5975    0.0000 H   0  0  0  0  0  0  0  0  0  0  0  0
   -7.3568   -1.5275    0.0000 H   0  0  0  0  0  0  0  0  0  0  0  0
   -1.9313   -3.0100    0.0000 H   0  0  0  0  0  0  0  0  0  0  0  0
   -3.5724   -5.6075    0.0000 H   0  0  0  0  0  0  0  0  0  0  0  0
   -1.9313   -4.4150    0.0000 H   0  0  0  0  0  0  0  0  0  0  0  0
   -1.9313   -5.4850    0.0000 H   0  0  0  0  0  0  0  0  0  0  0  0
   -1.9313   -6.3100    0.0000 H   0  0  0  0  0  0  0  0  0  0  0  0
   -2.8579   -6.8450    0.0000 H   0  0  0  0  0  0  0  0  0  0  0  0
   -3.5724   -7.2575    0.0000 H   0  0  0  0  0  0  0  0  0  0  0  0
   -4.4991   -6.7225    0.0000 H   0  0  0  0  0  0  0  0  0  0  0  0
   -5.2135   -6.3100    0.0000 H   0  0  0  0  0  0  0  0  0  0  0  0
   -5.2134   -5.2400    0.0000 H   0  0  0  0  0  0  0  0  0  0  0  0
   -5.2135   -4.4150    0.0000 H   0  0  0  0  0  0  0  0  0  0  0  0
   -4.2868   -3.8800    0.0000 H   0  0  0  0  0  0  0  0  0  0  0  0
   -1.4289   -3.4595    0.0000 H   0  0  0  0  0  0  0  0  0  0  0  0
   -0.7145   -0.9925    0.0000 H   0  0  0  0  0  0  0  0  0  0  0  0
    0.2121   -1.5275    0.0000 H   0  0  0  0  0  0  0  0  0  0  0  0
   -0.8115   -3.7685    0.0000 H   0  0  0  0  0  0  0  0  0  0  0  0
  1  2  1  0  0  0  0
  1  6  1  0  0  0  0
  1 29  1  0  0  0  0
  1 30  1  0  0  0  0
  2  3  1  0  0  0  0
  2 31  1  0  0  0  0
  2 32  1  0  0  0  0
  3  4  1  0  0  0  0
  3 33  1  0  0  0  0
  3 34  1  0  0  0  0
  4  5  1  0  0  0  0
  4  7  1  0  0  0  0
  4 35  1  0  0  0  0
  5  6  1  0  0  0  0
  5 36  1  0  0  0  0
  5 37  1  0  0  0  0
  6 38  1  0  0  0  0
  6 39  1  0  0  0  0
  7  8  1  0  0  0  0
  7 14  1  0  0  0  0
  8  9  2  0  0  0  0
  8 10  1  0  0  0  0
 10 11  1  0  0  0  0
 10 22  1  0  0  0  0
 10 40  1  0  0  0  0
 11 12  2  0  0  0  0
 11 13  1  0  0  0  0
 13 14  1  0  0  0  0
 13 16  1  0  0  0  0
 14 15  2  0  0  0  0
 16 17  1  0  0  0  0
 16 21  1  0  0  0  0
 16 41  1  0  0  0  0
 17 18  1  0  0  0  0
 17 42  1  0  0  0  0
 17 43  1  0  0  0  0
 18 19  1  0  0  0  0
 18 44  1  0  0  0  0
 18 45  1  0  0  0  0
 19 20  1  0  0  0  0
 19 46  1  0  0  0  0
 19 47  1  0  0  0  0
 20 21  1  0  0  0  0
 20 48  1  0  0  0  0
 20 49  1  0  0  0  0
 21 50  1  0  0  0  0
 21 51  1  0  0  0  0
 22 23  2  0  0  0  0
 22 24  1  0  0  0  0
 24 25  1  0  0  0  0
 24 52  1  0  0  0  0
 25 26  1  0  0  0  0
 25 53  1  0  0  0  0
 25 54  1  0  0  0  0
 26 27  2  0  0  0  0
 26 28  1  0  0  0  0
 28 55  1  0  0  0  0
M  END
>  <DRUGBANK_ID>
DB11682

>  <COMMON_NAME>
Daprodustat

>  <CAS_NUMBER>
960539-70-2

>  <UNII>
JVR38ZM64B

>  <SYNONYMS>
Daprodustat; Glycine, N-((1,3-dicyclohexylhexahydro-2,4,6-trioxo-5-pyrimidinyl)carbonyl)-

$$$$
