
 OpenBabel10282417072D

 53 52  0  0  0  0  0  0  0  0999 V2000
   -0.3587    0.2036    0.0000 O   0  0  0  0  0  0  0  0  0  0  0  0
    1.0666    4.3341    0.0000 O   0  0  0  0  0  0  0  0  0  0  0  0
    2.5016    4.3341    0.0000 O   0  0  0  0  0  0  0  0  0  0  0  0
    2.5016    2.6858    0.0000 C   0  0  0  0  0  0  0  0  0  0  0  0
    2.5016    1.8616    0.0000 C   0  0  0  0  0  0  0  0  0  0  0  0
   -0.3587   -0.6205    0.0000 C   0  0  2  0  0  0  0  0  0  0  0  0
   -1.0763   -1.0277    0.0000 C   0  0  0  0  0  0  0  0  0  0  0  0
    1.7841    3.0930    0.0000 C   0  0  0  0  0  0  0  0  0  0  0  0
    3.2191    1.4447    0.0000 C   0  0  0  0  0  0  0  0  0  0  0  0
   -1.7938   -0.6205    0.0000 C   0  0  0  0  0  0  0  0  0  0  0  0
    0.3587   -1.0277    0.0000 C   0  0  0  0  0  0  0  0  0  0  0  0
    2.5016    0.2036    0.0000 C   0  0  0  0  0  0  0  0  0  0  0  0
    3.2191    0.6205    0.0000 C   0  0  0  0  0  0  0  0  0  0  0  0
   -2.5016   -1.8616    0.0000 C   0  0  0  0  0  0  0  0  0  0  0  0
   -2.5016   -1.0277    0.0000 C   0  0  0  0  0  0  0  0  0  0  0  0
    1.0666   -0.6205    0.0000 C   0  0  0  0  0  0  0  0  0  0  0  0
    2.5016   -0.6205    0.0000 C   0  0  0  0  0  0  0  0  0  0  0  0
    1.7841    3.9269    0.0000 C   0  0  0  0  0  0  0  0  0  0  0  0
    1.7841   -1.0277    0.0000 C   0  0  0  0  0  0  0  0  0  0  0  0
   -3.2191   -2.2689    0.0000 C   0  0  0  0  0  0  0  0  0  0  0  0
   -3.2191   -3.0930    0.0000 C   0  0  0  0  0  0  0  0  0  0  0  0
   -2.5016   -3.5100    0.0000 C   0  0  0  0  0  0  0  0  0  0  0  0
   -2.5016   -4.3341    0.0000 C   0  0  0  0  0  0  0  0  0  0  0  0
    0.4813    0.6886    0.0000 H   0  0  0  0  0  0  0  0  0  0  0  0
    1.0597    5.2711    0.0000 H   0  0  0  0  0  0  0  0  0  0  0  0
    3.4263    3.2242    0.0000 H   0  0  0  0  0  0  0  0  0  0  0  0
    2.4957    3.7558    0.0000 H   0  0  0  0  0  0  0  0  0  0  0  0
    1.5742    1.3279    0.0000 H   0  0  0  0  0  0  0  0  0  0  0  0
    2.4994    0.7916    0.0000 H   0  0  0  0  0  0  0  0  0  0  0  0
   -1.2833   -0.0820    0.0000 H   0  0  0  0  0  0  0  0  0  0  0  0
   -1.0763   -2.0977    0.0000 H   0  0  0  0  0  0  0  0  0  0  0  0
   -2.0010   -1.5661    0.0000 H   0  0  0  0  0  0  0  0  0  0  0  0
    0.8594    2.5546    0.0000 H   0  0  0  0  0  0  0  0  0  0  0  0
    0.8565    3.6263    0.0000 H   0  0  0  0  0  0  0  0  0  0  0  0
    4.1136    1.9595    0.0000 H   0  0  0  0  0  0  0  0  0  0  0  0
   -1.7968    0.4115    0.0000 H   0  0  0  0  0  0  0  0  0  0  0  0
    0.3617   -2.0597    0.0000 H   0  0  0  0  0  0  0  0  0  0  0  0
    1.5742    0.7373    0.0000 H   0  0  0  0  0  0  0  0  0  0  0  0
    1.5753   -0.3320    0.0000 H   0  0  0  0  0  0  0  0  0  0  0  0
    4.1136    0.1057    0.0000 H   0  0  0  0  0  0  0  0  0  0  0  0
   -1.5769   -2.4000    0.0000 H   0  0  0  0  0  0  0  0  0  0  0  0
   -2.5075   -2.9316    0.0000 H   0  0  0  0  0  0  0  0  0  0  0  0
   -3.3949   -0.5110    0.0000 H   0  0  0  0  0  0  0  0  0  0  0  0
    1.0636    0.4115    0.0000 H   0  0  0  0  0  0  0  0  0  0  0  0
    3.3934   -1.1398    0.0000 H   0  0  0  0  0  0  0  0  0  0  0  0
    1.7841   -2.0597    0.0000 H   0  0  0  0  0  0  0  0  0  0  0  0
   -4.1110   -1.7496    0.0000 H   0  0  0  0  0  0  0  0  0  0  0  0
   -4.1136   -3.6077    0.0000 H   0  0  0  0  0  0  0  0  0  0  0  0
   -1.5742   -2.9763    0.0000 H   0  0  0  0  0  0  0  0  0  0  0  0
   -1.5753   -4.0457    0.0000 H   0  0  0  0  0  0  0  0  0  0  0  0
   -3.4282   -4.8691    0.0000 H   0  0  0  0  0  0  0  0  0  0  0  0
   -1.5750   -4.8691    0.0000 H   0  0  0  0  0  0  0  0  0  0  0  0
   -2.5016   -5.4041    0.0000 H   0  0  0  0  0  0  0  0  0  0  0  0
  1 24  1  0  0  0  0
  2 18  1  0  0  0  0
  2 25  1  0  0  0  0
  3 18  2  0  0  0  0
  4  5  1  0  0  0  0
  4  8  1  0  0  0  0
  4 26  1  0  0  0  0
  4 27  1  0  0  0  0
  5  9  1  0  0  0  0
  5 28  1  0  0  0  0
  5 29  1  0  0  0  0
  6  1  1  0  0  0  0
  6  7  1  0  0  0  0
  6 11  1  0  0  0  0
  6 30  1  6  0  0  0
  7 10  1  0  0  0  0
  7 31  1  0  0  0  0
  7 32  1  0  0  0  0
  8 18  1  0  0  0  0
  8 33  1  0  0  0  0
  8 34  1  0  0  0  0
  9 13  2  0  0  0  0
  9 35  1  0  0  0  0
 10 15  2  0  0  0  0
 10 36  1  0  0  0  0
 11 16  2  0  0  0  0
 11 37  1  0  0  0  0
 12 13  1  0  0  0  0
 12 17  1  0  0  0  0
 12 38  1  0  0  0  0
 12 39  1  0  0  0  0
 13 40  1  0  0  0  0
 14 15  1  0  0  0  0
 14 20  1  0  0  0  0
 14 41  1  0  0  0  0
 14 42  1  0  0  0  0
 15 43  1  0  0  0  0
 16 19  1  0  0  0  0
 16 44  1  0  0  0  0
 17 19  2  0  0  0  0
 17 45  1  0  0  0  0
 19 46  1  0  0  0  0
 20 21  2  0  0  0  0
 20 47  1  0  0  0  0
 21 22  1  0  0  0  0
 21 48  1  0  0  0  0
 22 23  1  0  0  0  0
 22 49  1  0  0  0  0
 22 50  1  0  0  0  0
 23 51  1  0  0  0  0
 23 52  1  0  0  0  0
 23 53  1  0  0  0  0
M  END
>  <DRUGBANK_ID>
DB15571

>  <COMMON_NAME>
(12R)-12-hydroxyeicosapentaenoic acid

>  <CAS_NUMBER>
109430-12-8

>  <UNII>
78P2ZC128S

$$$$
