
 OpenBabel10282417072D

 57 60  0  0  0  0  0  0  0  0999 V2000
   -1.6067   -0.8079    0.0000 C   0  0  0  0  0  0  0  0  0  0  0  0
   -1.6098    0.0174    0.0000 N   0  0  0  0  0  0  0  0  0  0  0  0
   -2.3249    0.4257    0.0000 C   0  0  0  0  0  0  0  0  0  0  0  0
   -3.0375    0.0098    0.0000 C   0  0  0  0  0  0  0  0  0  0  0  0
   -3.0305   -0.8187    0.0000 C   0  0  0  0  0  0  0  0  0  0  0  0
   -2.3147   -1.2232    0.0000 C   0  0  0  0  0  0  0  0  0  0  0  0
    0.4327   -1.7517    0.0000 C   0  0  0  0  0  0  0  0  0  0  0  0
    0.8421   -2.4661    0.0000 C   0  0  0  0  0  0  0  0  0  0  0  0
    1.6482   -2.2975    0.0000 C   0  0  0  0  0  0  0  0  0  0  0  0
    1.7368   -1.4789    0.0000 C   0  0  0  0  0  0  0  0  0  0  0  0
    0.9857   -1.1416    0.0000 C   0  0  0  0  0  0  0  0  0  0  0  0
   -1.2112   -1.7435    0.0000 C   0  0  0  0  0  0  0  0  0  0  0  0
   -0.8018   -2.4580    0.0000 C   0  0  0  0  0  0  0  0  0  0  0  0
    0.0169   -2.4606    0.0000 O   0  0  0  0  0  0  0  0  0  0  0  0
    0.0232   -1.0361    0.0000 C   0  0  0  0  0  0  0  0  0  0  0  0
   -0.8018   -1.0318    0.0000 C   0  0  2  0  0  0  0  0  0  0  0  0
   -0.8061   -0.2020    0.0000 C   0  0  0  0  0  0  0  0  0  0  0  0
   -0.0917    0.2151    0.0000 C   0  0  0  0  0  0  0  0  0  0  0  0
   -0.0958    1.0423    0.0000 N   0  0  0  0  0  0  0  0  0  0  0  0
    0.6182    1.4594    0.0000 C   0  0  0  0  0  0  0  0  0  0  0  0
    1.3367    1.0495    0.0000 C   0  0  0  0  0  0  0  0  0  0  0  0
    1.4242    0.2312    0.0000 S   0  0  0  0  0  0  0  0  0  0  0  0
    2.2342    0.0633    0.0000 C   0  0  0  0  0  0  0  0  0  0  0  0
    2.6440    0.7818    0.0000 C   0  0  0  0  0  0  0  0  0  0  0  0
    2.0875    1.3937    0.0000 C   0  0  0  0  0  0  0  0  0  0  0  0
    2.2530    2.2040    0.0000 O   0  0  0  0  0  0  0  0  0  0  0  0
    3.0375    2.4661    0.0000 C   0  0  0  0  0  0  0  0  0  0  0  0
   -2.3298    1.4577    0.0000 H   0  0  0  0  0  0  0  0  0  0  0  0
   -3.9346    0.5199    0.0000 H   0  0  0  0  0  0  0  0  0  0  0  0
   -3.9196   -1.3426    0.0000 H   0  0  0  0  0  0  0  0  0  0  0  0
   -2.3064   -2.2552    0.0000 H   0  0  0  0  0  0  0  0  0  0  0  0
    0.4037   -3.4422    0.0000 H   0  0  0  0  0  0  0  0  0  0  0  0
   -0.2266   -2.5187    0.0000 H   0  0  0  0  0  0  0  0  0  0  0  0
    2.4411   -3.0160    0.0000 H   0  0  0  0  0  0  0  0  0  0  0  0
    2.6483   -1.9172    0.0000 H   0  0  0  0  0  0  0  0  0  0  0  0
    2.6651   -0.9468    0.0000 H   0  0  0  0  0  0  0  0  0  0  0  0
    1.6842   -0.4102    0.0000 H   0  0  0  0  0  0  0  0  0  0  0  0
    0.7666   -0.0943    0.0000 H   0  0  0  0  0  0  0  0  0  0  0  0
   -0.0469   -0.8613    0.0000 H   0  0  0  0  0  0  0  0  0  0  0  0
   -2.2812   -1.7426    0.0000 H   0  0  0  0  0  0  0  0  0  0  0  0
   -1.7481   -2.6690    0.0000 H   0  0  0  0  0  0  0  0  0  0  0  0
   -1.3398   -3.3829    0.0000 H   0  0  0  0  0  0  0  0  0  0  0  0
   -1.8718   -2.4545    0.0000 H   0  0  0  0  0  0  0  0  0  0  0  0
    0.5624   -0.1119    0.0000 H   0  0  0  0  0  0  0  0  0  0  0  0
   -0.5073   -0.1069    0.0000 H   0  0  0  0  0  0  0  0  0  0  0  0
   -1.7354    0.3283    0.0000 H   0  0  0  0  0  0  0  0  0  0  0  0
   -0.8114    0.8680    0.0000 H   0  0  0  0  0  0  0  0  0  0  0  0
    0.8376   -0.3153    0.0000 H   0  0  0  0  0  0  0  0  0  0  0  0
    0.8323    0.7547    0.0000 H   0  0  0  0  0  0  0  0  0  0  0  0
   -0.9817    1.5479    0.0000 H   0  0  0  0  0  0  0  0  0  0  0  0
    0.6127    2.5294    0.0000 H   0  0  0  0  0  0  0  0  0  0  0  0
    1.5421    1.9992    0.0000 H   0  0  0  0  0  0  0  0  0  0  0  0
    2.6588   -0.8773    0.0000 H   0  0  0  0  0  0  0  0  0  0  0  0
    3.6698    0.8949    0.0000 H   0  0  0  0  0  0  0  0  0  0  0  0
    3.8386    1.7567    0.0000 H   0  0  0  0  0  0  0  0  0  0  0  0
    3.2513    3.5145    0.0000 H   0  0  0  0  0  0  0  0  0  0  0  0
    4.0524    2.8052    0.0000 H   0  0  0  0  0  0  0  0  0  0  0  0
  1  2  2  0  0  0  0
  2  3  1  0  0  0  0
  3  4  2  0  0  0  0
  3 28  1  0  0  0  0
  4  5  1  0  0  0  0
  4 29  1  0  0  0  0
  5  6  2  0  0  0  0
  5 30  1  0  0  0  0
  6  1  1  0  0  0  0
  6 31  1  0  0  0  0
  7 15  1  0  0  0  0
  7  8  1  0  0  0  0
  8  9  1  0  0  0  0
  8 32  1  0  0  0  0
  8 33  1  0  0  0  0
  9 10  1  0  0  0  0
  9 34  1  0  0  0  0
  9 35  1  0  0  0  0
 10 11  1  0  0  0  0
 10 36  1  0  0  0  0
 10 37  1  0  0  0  0
 11  7  1  0  0  0  0
 11 38  1  0  0  0  0
 11 39  1  0  0  0  0
 12 16  1  0  0  0  0
 12 13  1  0  0  0  0
 12 40  1  0  0  0  0
 12 41  1  0  0  0  0
 13 14  1  0  0  0  0
 13 42  1  0  0  0  0
 13 43  1  0  0  0  0
 14  7  1  0  0  0  0
 15 16  1  0  0  0  0
 15 44  1  0  0  0  0
 15 45  1  0  0  0  0
 16 17  1  6  0  0  0
 16  1  1  0  0  0  0
 17 18  1  0  0  0  0
 17 46  1  0  0  0  0
 17 47  1  0  0  0  0
 18 19  1  0  0  0  0
 18 48  1  0  0  0  0
 18 49  1  0  0  0  0
 19 20  1  0  0  0  0
 19 50  1  0  0  0  0
 20 21  1  0  0  0  0
 20 51  1  0  0  0  0
 20 52  1  0  0  0  0
 21 22  1  0  0  0  0
 22 23  1  0  0  0  0
 23 24  2  0  0  0  0
 23 53  1  0  0  0  0
 24 25  1  0  0  0  0
 24 54  1  0  0  0  0
 25 21  2  0  0  0  0
 25 26  1  0  0  0  0
 26 27  1  0  0  0  0
 27 55  1  0  0  0  0
 27 56  1  0  0  0  0
 27 57  1  0  0  0  0
M  END
>  <DRUGBANK_ID>
DB14881

>  <COMMON_NAME>
Oliceridine

>  <CAS_NUMBER>
1401028-24-7

>  <UNII>
MCN858TCP0

>  <SYNONYMS>
Oliceridine

$$$$
