
 OpenBabel10282417072D

 85 88  0  0  0  0  0  0  0  0999 V2000
    0.0180    2.1759    0.0000 O   0  0  0  0  0  0  0  0  0  0  0  0
   -0.6962    0.9383    0.0000 O   0  0  0  0  0  0  0  0  0  0  0  0
   -1.4108    0.5258    0.0000 O   0  0  0  0  0  0  0  0  0  0  0  0
   -3.5542    0.9383    0.0000 O   0  0  0  0  0  0  0  0  0  0  0  0
   -4.2686   -1.9490    0.0000 O   0  0  0  0  0  0  0  0  0  0  0  0
   -1.4108   -1.9490    0.0000 O   0  0  0  0  0  0  0  0  0  0  0  0
   -2.8397   -2.7740    0.0000 O   0  0  0  0  0  0  0  0  0  0  0  0
   -2.1252    1.7634    0.0000 N   0  0  0  0  0  0  0  0  0  0  0  0
    3.5904   -0.7115    0.0000 N   0  0  0  0  0  0  0  0  0  0  0  0
    5.0194    1.7634    0.0000 N   0  0  0  0  0  0  0  0  0  0  0  0
   -1.4108    2.1759    0.0000 C   0  0  1  0  0  0  0  0  0  0  0  0
   -1.4108    3.0008    0.0000 C   0  0  0  0  0  0  0  0  0  0  0  0
   -2.1252    3.4133    0.0000 C   0  0  0  0  0  0  0  0  0  0  0  0
   -2.8397    3.0008    0.0000 C   0  0  0  0  0  0  0  0  0  0  0  0
   -2.8397    2.1759    0.0000 C   0  0  0  0  0  0  0  0  0  0  0  0
   -0.6962    1.7634    0.0000 C   0  0  0  0  0  0  0  0  0  0  0  0
    0.7325    1.7634    0.0000 C   0  0  0  0  0  0  0  0  0  0  0  0
   -2.1252    0.9383    0.0000 C   0  0  0  0  0  0  0  0  0  0  0  0
    0.7325    0.9383    0.0000 C   0  0  0  0  0  0  0  0  0  0  0  0
    1.4469    2.1759    0.0000 C   0  0  0  0  0  0  0  0  0  0  0  0
    1.4469    0.5258    0.0000 C   0  0  0  0  0  0  0  0  0  0  0  0
    2.1614    1.7634    0.0000 C   0  0  0  0  0  0  0  0  0  0  0  0
   -2.8397    0.5258    0.0000 C   0  0  0  0  0  0  0  0  0  0  0  0
    1.4469   -0.2991    0.0000 C   0  0  0  0  0  0  0  0  0  0  0  0
    2.8759    2.1759    0.0000 C   0  0  0  0  0  0  0  0  0  0  0  0
   -2.8397   -0.2991    0.0000 C   0  0  0  0  0  0  0  0  0  0  0  0
    2.1614   -0.7115    0.0000 C   0  0  0  0  0  0  0  0  0  0  0  0
    3.5904    1.7634    0.0000 C   0  0  0  0  0  0  0  0  0  0  0  0
   -2.1252   -0.7115    0.0000 C   0  0  0  0  0  0  0  0  0  0  0  0
   -3.5542   -0.7115    0.0000 C   0  0  0  0  0  0  0  0  0  0  0  0
    2.1614   -1.5365    0.0000 C   0  0  0  0  0  0  0  0  0  0  0  0
    3.5904    0.9383    0.0000 C   0  0  0  0  0  0  0  0  0  0  0  0
    2.8759   -0.2991    0.0000 C   0  0  0  0  0  0  0  0  0  0  0  0
    4.3048    2.1759    0.0000 C   0  0  0  0  0  0  0  0  0  0  0  0
   -3.5542   -1.5365    0.0000 C   0  0  0  0  0  0  0  0  0  0  0  0
   -2.1252   -1.5365    0.0000 C   0  0  0  0  0  0  0  0  0  0  0  0
   -2.8397   -1.9490    0.0000 C   0  0  0  0  0  0  0  0  0  0  0  0
    2.8759   -1.9490    0.0000 C   0  0  0  0  0  0  0  0  0  0  0  0
    4.3048    0.5258    0.0000 C   0  0  0  0  0  0  0  0  0  0  0  0
    3.5904   -1.5365    0.0000 C   0  0  0  0  0  0  0  0  0  0  0  0
    5.0194    0.9383    0.0000 C   0  0  0  0  0  0  0  0  0  0  0  0
   -4.9831   -1.5365    0.0000 C   0  0  0  0  0  0  0  0  0  0  0  0
   -0.6962   -1.5365    0.0000 C   0  0  0  0  0  0  0  0  0  0  0  0
   -3.5542   -3.1865    0.0000 C   0  0  0  0  0  0  0  0  0  0  0  0
   -1.4107    1.1059    0.0000 H   0  0  0  0  0  0  0  0  0  0  0  0
   -0.4841    3.5358    0.0000 H   0  0  0  0  0  0  0  0  0  0  0  0
   -1.4108    4.0708    0.0000 H   0  0  0  0  0  0  0  0  0  0  0  0
   -2.1252    4.4833    0.0000 H   0  0  0  0  0  0  0  0  0  0  0  0
   -3.0518    3.9483    0.0000 H   0  0  0  0  0  0  0  0  0  0  0  0
   -3.7663    3.5358    0.0000 H   0  0  0  0  0  0  0  0  0  0  0  0
   -3.7663    2.4658    0.0000 H   0  0  0  0  0  0  0  0  0  0  0  0
   -3.7663    1.6409    0.0000 H   0  0  0  0  0  0  0  0  0  0  0  0
   -3.7663    2.7109    0.0000 H   0  0  0  0  0  0  0  0  0  0  0  0
    1.6592    1.2284    0.0000 H   0  0  0  0  0  0  0  0  0  0  0  0
   -0.1942    0.4033    0.0000 H   0  0  0  0  0  0  0  0  0  0  0  0
    0.7325   -0.1317    0.0000 H   0  0  0  0  0  0  0  0  0  0  0  0
    1.4469    3.2459    0.0000 H   0  0  0  0  0  0  0  0  0  0  0  0
    2.3735    2.7109    0.0000 H   0  0  0  0  0  0  0  0  0  0  0  0
    2.3736    1.0608    0.0000 H   0  0  0  0  0  0  0  0  0  0  0  0
    2.3735   -0.0092    0.0000 H   0  0  0  0  0  0  0  0  0  0  0  0
    2.1614    0.6934    0.0000 H   0  0  0  0  0  0  0  0  0  0  0  0
    3.0880    1.2284    0.0000 H   0  0  0  0  0  0  0  0  0  0  0  0
    0.5203   -0.8342    0.0000 H   0  0  0  0  0  0  0  0  0  0  0  0
    1.4470   -1.3691    0.0000 H   0  0  0  0  0  0  0  0  0  0  0  0
    2.8759    3.2459    0.0000 H   0  0  0  0  0  0  0  0  0  0  0  0
    3.8025    2.7109    0.0000 H   0  0  0  0  0  0  0  0  0  0  0  0
   -1.2315   -0.1954    0.0000 H   0  0  0  0  0  0  0  0  0  0  0  0
   -4.4479   -0.1954    0.0000 H   0  0  0  0  0  0  0  0  0  0  0  0
    1.2677   -2.0525    0.0000 H   0  0  0  0  0  0  0  0  0  0  0  0
    2.6967    0.4223    0.0000 H   0  0  0  0  0  0  0  0  0  0  0  0
    2.8759    0.7329    0.0000 H   0  0  0  0  0  0  0  0  0  0  0  0
    4.3047    3.2079    0.0000 H   0  0  0  0  0  0  0  0  0  0  0  0
    2.8759   -2.9810    0.0000 H   0  0  0  0  0  0  0  0  0  0  0  0
    4.3047   -0.5062    0.0000 H   0  0  0  0  0  0  0  0  0  0  0  0
    4.4841   -2.0525    0.0000 H   0  0  0  0  0  0  0  0  0  0  0  0
    5.9131    0.4223    0.0000 H   0  0  0  0  0  0  0  0  0  0  0  0
   -4.9831   -0.4665    0.0000 H   0  0  0  0  0  0  0  0  0  0  0  0
   -5.9097   -2.0715    0.0000 H   0  0  0  0  0  0  0  0  0  0  0  0
   -5.9098   -1.0015    0.0000 H   0  0  0  0  0  0  0  0  0  0  0  0
    0.2304   -2.0716    0.0000 H   0  0  0  0  0  0  0  0  0  0  0  0
   -0.6961   -0.4665    0.0000 H   0  0  0  0  0  0  0  0  0  0  0  0
    0.2305   -1.0016    0.0000 H   0  0  0  0  0  0  0  0  0  0  0  0
   -4.4808   -2.6515    0.0000 H   0  0  0  0  0  0  0  0  0  0  0  0
   -3.5542   -4.2565    0.0000 H   0  0  0  0  0  0  0  0  0  0  0  0
   -4.4809   -3.7215    0.0000 H   0  0  0  0  0  0  0  0  0  0  0  0
  1 16  1  0  0  0  0
  1 17  1  0  0  0  0
  2 16  2  0  0  0  0
  3 18  2  0  0  0  0
  4 23  2  0  0  0  0
  5 35  1  0  0  0  0
  5 42  1  0  0  0  0
  6 36  1  0  0  0  0
  6 43  1  0  0  0  0
  7 37  1  0  0  0  0
  7 44  1  0  0  0  0
  8 11  1  0  0  0  0
  8 15  1  0  0  0  0
  8 18  1  0  0  0  0
  9 33  1  0  0  0  0
  9 40  2  0  0  0  0
 10 34  1  0  0  0  0
 10 41  2  0  0  0  0
 11 12  1  0  0  0  0
 11 16  1  0  0  0  0
 11 45  1  6  0  0  0
 12 13  1  0  0  0  0
 12 46  1  0  0  0  0
 12 47  1  0  0  0  0
 13 14  1  0  0  0  0
 13 48  1  0  0  0  0
 13 49  1  0  0  0  0
 14 15  1  0  0  0  0
 14 50  1  0  0  0  0
 14 51  1  0  0  0  0
 15 52  1  0  0  0  0
 15 53  1  0  0  0  0
 17 19  1  0  0  0  0
 17 20  1  0  0  0  0
 17 54  1  0  0  0  0
 18 23  1  0  0  0  0
 19 21  1  0  0  0  0
 19 55  1  0  0  0  0
 19 56  1  0  0  0  0
 20 22  1  0  0  0  0
 20 57  1  0  0  0  0
 20 58  1  0  0  0  0
 21 24  1  0  0  0  0
 21 59  1  0  0  0  0
 21 60  1  0  0  0  0
 22 25  1  0  0  0  0
 22 61  1  0  0  0  0
 22 62  1  0  0  0  0
 23 26  1  0  0  0  0
 24 27  1  0  0  0  0
 24 63  1  0  0  0  0
 24 64  1  0  0  0  0
 25 28  1  0  0  0  0
 25 65  1  0  0  0  0
 25 66  1  0  0  0  0
 26 29  2  0  0  0  0
 26 30  1  0  0  0  0
 27 31  1  0  0  0  0
 27 33  2  0  0  0  0
 28 32  1  0  0  0  0
 28 34  2  0  0  0  0
 29 36  1  0  0  0  0
 29 67  1  0  0  0  0
 30 35  2  0  0  0  0
 30 68  1  0  0  0  0
 31 38  2  0  0  0  0
 31 69  1  0  0  0  0
 32 39  2  0  0  0  0
 32 70  1  0  0  0  0
 33 71  1  0  0  0  0
 34 72  1  0  0  0  0
 35 37  1  0  0  0  0
 36 37  2  0  0  0  0
 38 40  1  0  0  0  0
 38 73  1  0  0  0  0
 39 41  1  0  0  0  0
 39 74  1  0  0  0  0
 40 75  1  0  0  0  0
 41 76  1  0  0  0  0
 42 77  1  0  0  0  0
 42 78  1  0  0  0  0
 42 79  1  0  0  0  0
 43 80  1  0  0  0  0
 43 81  1  0  0  0  0
 43 82  1  0  0  0  0
 44 83  1  0  0  0  0
 44 84  1  0  0  0  0
 44 85  1  0  0  0  0
M  END
>  <DRUGBANK_ID>
DB04851

>  <COMMON_NAME>
Biricodar

>  <CAS_NUMBER>
159997-94-1

>  <UNII>
3KG76X4KJK

>  <SYNONYMS>
Biricodar

$$$$
