
 OpenBabel10282417072D

 43 45  0  0  0  0  0  0  0  0999 V2000
   -0.9194    0.6187    0.0000 C   0  0  0  0  0  0  0  0  0  0  0  0
   -1.4044    1.2861    0.0000 N   0  0  0  0  0  0  0  0  0  0  0  0
   -2.1890    1.0312    0.0000 C   0  0  0  0  0  0  0  0  0  0  0  0
   -2.1890    0.2062    0.0000 C   0  0  0  0  0  0  0  0  0  0  0  0
   -1.4044   -0.0486    0.0000 N   0  0  0  0  0  0  0  0  0  0  0  0
   -2.9035    1.4437    0.0000 C   0  0  0  0  0  0  0  0  0  0  0  0
   -3.6180    1.0312    0.0000 C   0  0  0  0  0  0  0  0  0  0  0  0
   -3.6180    0.2062    0.0000 C   0  0  0  0  0  0  0  0  0  0  0  0
   -2.9035   -0.2062    0.0000 C   0  0  0  0  0  0  0  0  0  0  0  0
   -2.9035   -1.0312    0.0000 C   0  0  0  0  0  0  0  0  0  0  0  0
   -3.6180   -1.4437    0.0000 O   0  0  0  0  0  0  0  0  0  0  0  0
   -2.1890   -1.4437    0.0000 N   0  0  0  0  0  0  0  0  0  0  0  0
    1.5555    0.6187    0.0000 N   0  0  0  0  0  0  0  0  0  0  0  0
    1.1430   -0.0957    0.0000 C   0  0  0  0  0  0  0  0  0  0  0  0
    0.3180   -0.0957    0.0000 C   0  0  0  0  0  0  0  0  0  0  0  0
   -0.0944    0.6187    0.0000 C   0  0  0  0  0  0  0  0  0  0  0  0
    0.3180    1.3332    0.0000 C   0  0  0  0  0  0  0  0  0  0  0  0
    1.1430    1.3332    0.0000 C   0  0  0  0  0  0  0  0  0  0  0  0
    2.3805    0.6186    0.0000 C   0  0  0  0  0  0  0  0  0  0  0  0
    2.7930    1.3332    0.0000 C   0  0  0  0  0  0  0  0  0  0  0  0
    3.6180    1.3332    0.0000 C   0  0  0  0  0  0  0  0  0  0  0  0
   -1.1002   -0.9849    0.0000 H   0  0  0  0  0  0  0  0  0  0  0  0
   -2.9035    2.4757    0.0000 H   0  0  0  0  0  0  0  0  0  0  0  0
   -4.5117    1.5472    0.0000 H   0  0  0  0  0  0  0  0  0  0  0  0
   -4.5117   -0.3099    0.0000 H   0  0  0  0  0  0  0  0  0  0  0  0
   -2.1890   -2.4282    0.0000 H   0  0  0  0  0  0  0  0  0  0  0  0
   -1.3364   -0.9514    0.0000 H   0  0  0  0  0  0  0  0  0  0  0  0
    1.6780   -1.0224    0.0000 H   0  0  0  0  0  0  0  0  0  0  0  0
    0.6080   -1.0223    0.0000 H   0  0  0  0  0  0  0  0  0  0  0  0
   -0.2170   -1.0223    0.0000 H   0  0  0  0  0  0  0  0  0  0  0  0
   -0.7520   -0.0957    0.0000 H   0  0  0  0  0  0  0  0  0  0  0  0
   -0.6295    1.5453    0.0000 H   0  0  0  0  0  0  0  0  0  0  0  0
   -0.2171    2.2598    0.0000 H   0  0  0  0  0  0  0  0  0  0  0  0
    0.8530    2.2599    0.0000 H   0  0  0  0  0  0  0  0  0  0  0  0
    1.6780    2.2598    0.0000 H   0  0  0  0  0  0  0  0  0  0  0  0
    2.2130    1.3332    0.0000 H   0  0  0  0  0  0  0  0  0  0  0  0
    2.9155   -0.3081    0.0000 H   0  0  0  0  0  0  0  0  0  0  0  0
    1.8454   -0.3080    0.0000 H   0  0  0  0  0  0  0  0  0  0  0  0
    2.2580    2.2598    0.0000 H   0  0  0  0  0  0  0  0  0  0  0  0
    3.3280    2.2599    0.0000 H   0  0  0  0  0  0  0  0  0  0  0  0
    4.1530    0.4066    0.0000 H   0  0  0  0  0  0  0  0  0  0  0  0
    4.1530    2.2598    0.0000 H   0  0  0  0  0  0  0  0  0  0  0  0
    4.6880    1.3332    0.0000 H   0  0  0  0  0  0  0  0  0  0  0  0
  1  2  2  0  0  0  0
  1  5  1  0  0  0  0
  1 16  1  0  0  0  0
  2  3  1  0  0  0  0
  3  4  1  0  0  0  0
  4  5  1  0  0  0  0
  5 22  1  0  0  0  0
  6  7  1  0  0  0  0
  6  3  2  0  0  0  0
  6 23  1  0  0  0  0
  7  8  2  0  0  0  0
  7 24  1  0  0  0  0
  8  9  1  0  0  0  0
  8 25  1  0  0  0  0
  9  4  2  0  0  0  0
  9 10  1  0  0  0  0
 10 11  2  0  0  0  0
 10 12  1  0  0  0  0
 12 26  1  0  0  0  0
 12 27  1  0  0  0  0
 13 14  1  0  0  0  0
 13 18  1  0  0  0  0
 13 19  1  0  0  0  0
 14 15  1  0  0  0  0
 14 28  1  0  0  0  0
 14 29  1  0  0  0  0
 15 16  1  0  0  0  0
 15 30  1  0  0  0  0
 15 31  1  0  0  0  0
 16 17  1  0  0  0  0
 16 32  1  0  0  0  0
 17 18  1  0  0  0  0
 17 33  1  0  0  0  0
 17 34  1  0  0  0  0
 18 35  1  0  0  0  0
 18 36  1  0  0  0  0
 19 20  1  0  0  0  0
 19 37  1  0  0  0  0
 19 38  1  0  0  0  0
 20 21  1  0  0  0  0
 20 39  1  0  0  0  0
 20 40  1  0  0  0  0
 21 41  1  0  0  0  0
 21 42  1  0  0  0  0
 21 43  1  0  0  0  0
M  END
>  <DRUGBANK_ID>
DB07330

>  <COMMON_NAME>
A-620223

>  <CAS_NUMBER>
272769-49-0

>  <UNII>
01FPW436S6

>  <SYNONYMS>
trans-4-(7-carbamoyl-1H-benzimidazol-2-yl)-1-propylpiperidinium

$$$$
