W22
 OpenBabel10282417072D

 31 32  0  0  0  0  0  0  0  0999 V2000
    1.5325    0.1805    0.0000 O   0  0  0  0  0  0  0  0  0  0  0  0
    0.7075    0.1805    0.0000 C   0  0  0  0  0  0  0  0  0  0  0  0
    0.3495   -0.5628    0.0000 C   0  0  2  0  0  0  0  0  0  0  0  0
    0.8639   -1.2078    0.0000 C   0  0  0  0  0  0  0  0  0  0  0  0
    1.6797   -1.0848    0.0000 C   0  0  0  0  0  0  0  0  0  0  0  0
    2.1941   -1.7298    0.0000 O   0  0  0  0  0  0  0  0  0  0  0  0
    1.9811   -0.3169    0.0000 O   0  0  0  0  0  0  0  0  0  0  0  0
    0.3495    0.9238    0.0000 N   0  0  0  0  0  0  0  0  0  0  0  0
    0.8639    1.5688    0.0000 C   0  0  0  0  0  0  0  0  0  0  0  0
   -0.4548    1.1074    0.0000 C   0  0  0  0  0  0  0  0  0  0  0  0
   -1.0998    0.5930    0.0000 C   0  0  0  0  0  0  0  0  0  0  0  0
   -1.0998   -0.2320    0.0000 C   0  0  0  0  0  0  0  0  0  0  0  0
   -0.4548   -0.7464    0.0000 N   0  0  0  0  0  0  0  0  0  0  0  0
   -1.8143    1.0055    0.0000 C   0  0  0  0  0  0  0  0  0  0  0  0
   -2.5287    0.5930    0.0000 C   0  0  0  0  0  0  0  0  0  0  0  0
   -2.5287   -0.2320    0.0000 C   0  0  0  0  0  0  0  0  0  0  0  0
   -1.8143   -0.6445    0.0000 C   0  0  0  0  0  0  0  0  0  0  0  0
    0.9298   -0.4974    0.0000 H   0  0  0  0  0  0  0  0  0  0  0  0
    0.4730   -2.2038    0.0000 H   0  0  0  0  0  0  0  0  0  0  0  0
    1.5311   -2.0443    0.0000 H   0  0  0  0  0  0  0  0  0  0  0  0
    1.8518   -2.6020    0.0000 H   0  0  0  0  0  0  0  0  0  0  0  0
    1.9219    1.4093    0.0000 H   0  0  0  0  0  0  0  0  0  0  0  0
    0.4730    2.5648    0.0000 H   0  0  0  0  0  0  0  0  0  0  0  0
    1.5311    2.4053    0.0000 H   0  0  0  0  0  0  0  0  0  0  0  0
   -0.6929    2.1506    0.0000 H   0  0  0  0  0  0  0  0  0  0  0  0
   -1.4648    1.4608    0.0000 H   0  0  0  0  0  0  0  0  0  0  0  0
   -0.6739   -1.7062    0.0000 H   0  0  0  0  0  0  0  0  0  0  0  0
   -1.8143    2.0375    0.0000 H   0  0  0  0  0  0  0  0  0  0  0  0
   -3.4224    1.1090    0.0000 H   0  0  0  0  0  0  0  0  0  0  0  0
   -3.4224   -0.7480    0.0000 H   0  0  0  0  0  0  0  0  0  0  0  0
   -1.8143   -1.6765    0.0000 H   0  0  0  0  0  0  0  0  0  0  0  0
  1  2  2  0  0  0  0
  2  3  1  0  0  0  0
  2  8  1  0  0  0  0
  3  4  1  0  0  0  0
  3 13  1  0  0  0  0
  3 18  1  1  0  0  0
  4  5  1  0  0  0  0
  4 19  1  0  0  0  0
  4 20  1  0  0  0  0
  5  6  1  0  0  0  0
  5  7  2  0  0  0  0
  6 21  1  0  0  0  0
  8  9  1  0  0  0  0
  8 10  1  0  0  0  0
  9 22  1  0  0  0  0
  9 23  1  0  0  0  0
  9 24  1  0  0  0  0
 10 11  1  0  0  0  0
 10 25  1  0  0  0  0
 10 26  1  0  0  0  0
 11 12  1  0  0  0  0
 11 14  2  0  0  0  0
 12 13  1  0  0  0  0
 12 17  2  0  0  0  0
 13 27  1  0  0  0  0
 14 15  1  0  0  0  0
 14 28  1  0  0  0  0
 15 16  2  0  0  0  0
 15 29  1  0  0  0  0
 16 17  1  0  0  0  0
 16 30  1  0  0  0  0
 17 31  1  0  0  0  0
M  END
>  <DRUGBANK_ID>
DB08717

>  <COMMON_NAME>
[(2S)-4-methyl-3-oxo-2,3,4,5-tetrahydro-1H-1,4-benzodiazepin-2-yl]acetic acid

$$$$
