
 OpenBabel10282417072D

 51 53  0  0  0  0  0  0  0  0999 V2000
   -0.0981   -0.9351    0.0000 Cl  0  0  0  0  0  0  0  0  0  0  0  0
   -3.4717    3.5571    0.0000 Cl  0  0  0  0  0  0  0  0  0  0  0  0
   -1.0206    3.8133    0.0000 O   0  0  0  0  0  0  0  0  0  0  0  0
    0.7729    2.5749    0.0000 O   0  0  0  0  0  0  0  0  0  0  0  0
   -0.3800    1.7294    0.0000 N   0  0  0  0  0  0  0  0  0  0  0  0
    1.7379    1.1572    0.0000 N   0  0  0  0  0  0  0  0  0  0  0  0
    2.7543   -2.5834    0.0000 N   0  0  0  0  0  0  0  0  0  0  0  0
    1.3280   -2.5834    0.0000 N   0  0  0  0  0  0  0  0  0  0  0  0
   -0.8668    2.3955    0.0000 C   0  0  1  0  0  0  0  0  0  0  0  0
   -1.6867    2.3102    0.0000 C   0  0  0  0  0  0  0  0  0  0  0  0
    1.3280   -0.1153    0.0000 C   0  0  0  0  0  0  0  0  0  0  0  0
    0.9181    1.1572    0.0000 C   0  0  0  0  0  0  0  0  0  0  0  0
   -0.5337    3.1471    0.0000 C   0  0  0  0  0  0  0  0  0  0  0  0
    1.3280   -0.9351    0.0000 C   0  0  0  0  0  0  0  0  0  0  0  0
    0.4313    1.8234    0.0000 C   0  0  0  0  0  0  0  0  0  0  0  0
    0.6619    0.3715    0.0000 C   0  0  0  0  0  0  0  0  0  0  0  0
    2.7543   -3.4034    0.0000 C   0  0  0  0  0  0  0  0  0  0  0  0
    1.9941    0.3715    0.0000 C   0  0  0  0  0  0  0  0  0  0  0  0
    2.0454   -2.1735    0.0000 C   0  0  0  0  0  0  0  0  0  0  0  0
    2.0454   -1.3450    0.0000 C   0  0  0  0  0  0  0  0  0  0  0  0
   -2.1735    2.9763    0.0000 C   0  0  0  0  0  0  0  0  0  0  0  0
   -2.0198    1.5586    0.0000 C   0  0  0  0  0  0  0  0  0  0  0  0
    0.6191   -1.3450    0.0000 C   0  0  0  0  0  0  0  0  0  0  0  0
    3.4717   -3.8133    0.0000 C   0  0  0  0  0  0  0  0  0  0  0  0
    2.0454   -3.8133    0.0000 C   0  0  0  0  0  0  0  0  0  0  0  0
   -2.9848    2.8909    0.0000 C   0  0  0  0  0  0  0  0  0  0  0  0
   -2.8396    1.4732    0.0000 C   0  0  0  0  0  0  0  0  0  0  0  0
    0.6191   -2.1735    0.0000 C   0  0  0  0  0  0  0  0  0  0  0  0
   -3.3265    2.1394    0.0000 C   0  0  0  0  0  0  0  0  0  0  0  0
   -0.5935    1.2682    0.0000 H   0  0  0  0  0  0  0  0  0  0  0  0
    2.0369    1.5672    0.0000 H   0  0  0  0  0  0  0  0  0  0  0  0
    3.1984   -2.3272    0.0000 H   0  0  0  0  0  0  0  0  0  0  0  0
   -0.6286    4.7005    0.0000 H   0  0  0  0  0  0  0  0  0  0  0  0
   -1.3012    1.4176    0.0000 H   0  0  0  0  0  0  0  0  0  0  0  0
    0.5302    3.2614    0.0000 H   0  0  0  0  0  0  0  0  0  0  0  0
    0.0969    2.2827    0.0000 H   0  0  0  0  0  0  0  0  0  0  0  0
   -0.3202    0.0545    0.0000 H   0  0  0  0  0  0  0  0  0  0  0  0
    2.7571   -4.4734    0.0000 H   0  0  0  0  0  0  0  0  0  0  0  0
    2.9762    0.0545    0.0000 H   0  0  0  0  0  0  0  0  0  0  0  0
    2.9380   -0.8270    0.0000 H   0  0  0  0  0  0  0  0  0  0  0  0
   -1.7551    3.9197    0.0000 H   0  0  0  0  0  0  0  0  0  0  0  0
   -1.4129    0.7239    0.0000 H   0  0  0  0  0  0  0  0  0  0  0  0
    3.4765   -4.8833    0.0000 H   0  0  0  0  0  0  0  0  0  0  0  0
    4.3959   -3.2741    0.0000 H   0  0  0  0  0  0  0  0  0  0  0  0
    4.4007   -4.3441    0.0000 H   0  0  0  0  0  0  0  0  0  0  0  0
    1.1184   -3.2789    0.0000 H   0  0  0  0  0  0  0  0  0  0  0  0
    2.0461   -4.8833    0.0000 H   0  0  0  0  0  0  0  0  0  0  0  0
    1.1191   -4.3489    0.0000 H   0  0  0  0  0  0  0  0  0  0  0  0
   -3.2585    0.5300    0.0000 H   0  0  0  0  0  0  0  0  0  0  0  0
   -0.2748   -2.6892    0.0000 H   0  0  0  0  0  0  0  0  0  0  0  0
   -4.3531    2.0341    0.0000 H   0  0  0  0  0  0  0  0  0  0  0  0
  1 23  1  0  0  0  0
  2 26  1  0  0  0  0
  3 13  1  0  0  0  0
  3 33  1  0  0  0  0
  4 15  2  0  0  0  0
  5 15  1  0  0  0  0
  5 30  1  0  0  0  0
  6 12  1  0  0  0  0
  6 18  1  0  0  0  0
  6 31  1  0  0  0  0
  7 17  1  0  0  0  0
  7 19  1  0  0  0  0
  7 32  1  0  0  0  0
  8 19  2  0  0  0  0
  8 28  1  0  0  0  0
  9  5  1  0  0  0  0
  9 10  1  0  0  0  0
  9 13  1  0  0  0  0
  9 34  1  6  0  0  0
 10 21  2  0  0  0  0
 10 22  1  0  0  0  0
 11 14  1  0  0  0  0
 11 16  1  0  0  0  0
 11 18  2  0  0  0  0
 12 15  1  0  0  0  0
 12 16  2  0  0  0  0
 13 35  1  0  0  0  0
 13 36  1  0  0  0  0
 14 20  2  0  0  0  0
 14 23  1  0  0  0  0
 16 37  1  0  0  0  0
 17 24  1  0  0  0  0
 17 25  1  0  0  0  0
 17 38  1  0  0  0  0
 18 39  1  0  0  0  0
 19 20  1  0  0  0  0
 20 40  1  0  0  0  0
 21 26  1  0  0  0  0
 21 41  1  0  0  0  0
 22 27  2  0  0  0  0
 22 42  1  0  0  0  0
 23 28  2  0  0  0  0
 24 43  1  0  0  0  0
 24 44  1  0  0  0  0
 24 45  1  0  0  0  0
 25 46  1  0  0  0  0
 25 47  1  0  0  0  0
 25 48  1  0  0  0  0
 26 29  2  0  0  0  0
 27 29  1  0  0  0  0
 27 49  1  0  0  0  0
 28 50  1  0  0  0  0
 29 51  1  0  0  0  0
M  END
>  <DRUGBANK_ID>
DB13930

>  <COMMON_NAME>
Ulixertinib

>  <CAS_NUMBER>
869886-67-9

>  <UNII>
16ZDH50O1U

>  <SYNONYMS>
Ulixertinib

$$$$
