
 OpenBabel10282417072D

 51 51  0  0  0  0  0  0  0  0999 V2000
    3.5724    0.4125    0.0000 C   0  0  0  0  0  0  0  0  0  0  0  0
   10.0026    1.6500    0.0000 C   0  0  0  0  0  0  0  0  0  0  0  0
    7.8592    0.4125    0.0000 C   0  0  0  0  0  0  0  0  0  0  0  0
    2.8579    0.8250    0.0000 C   0  0  0  0  0  0  0  0  0  0  0  0
    9.2881    2.0625    0.0000 C   0  0  0  0  0  0  0  0  0  0  0  0
    8.5737    0.8250    0.0000 C   0  0  0  0  0  0  0  0  0  0  0  0
    0.7145    2.8875    0.0000 C   0  0  0  0  0  0  0  0  0  0  0  0
    0.7145    2.0625    0.0000 C   0  0  0  0  0  0  0  0  0  0  0  0
    1.4289    3.3000    0.0000 C   0  0  0  0  0  0  0  0  0  0  0  0
    1.4289    1.6500    0.0000 C   0  0  0  0  0  0  0  0  0  0  0  0
    2.1434    2.8875    0.0000 C   0  0  0  0  0  0  0  0  0  0  0  0
    7.8592    2.0625    0.0000 C   0  0  0  0  0  0  0  0  0  0  0  0
    7.1447    1.6500    0.0000 C   0  0  0  0  0  0  0  0  0  0  0  0
    5.7158    1.6500    0.0000 C   0  0  0  0  0  0  0  0  0  0  0  0
    5.0013    2.0625    0.0000 C   0  0  0  0  0  0  0  0  0  0  0  0
    2.1434    2.0625    0.0000 C   0  0  0  0  0  0  0  0  0  0  0  0
    2.8579    1.6500    0.0000 C   0  0  3  0  0  0  0  0  0  0  0  0
    3.5724    2.0625    0.0000 C   0  0  0  0  0  0  0  0  0  0  0  0
    8.5737    1.6500    0.0000 N   0  0  0  0  0  0  0  0  0  0  0  0
    3.5724    2.8875    0.0000 O   0  0  0  0  0  0  0  0  0  0  0  0
    6.4302    2.0625    0.0000 O   0  0  0  0  0  0  0  0  0  0  0  0
    4.2868    1.6500    0.0000 O   0  0  0  0  0  0  0  0  0  0  0  0
    3.5724   -0.6575    0.0000 H   0  0  0  0  0  0  0  0  0  0  0  0
    4.4990    0.9475    0.0000 H   0  0  0  0  0  0  0  0  0  0  0  0
    4.4991   -0.1225    0.0000 H   0  0  0  0  0  0  0  0  0  0  0  0
   10.0026    0.5800    0.0000 H   0  0  0  0  0  0  0  0  0  0  0  0
   10.9292    2.1850    0.0000 H   0  0  0  0  0  0  0  0  0  0  0  0
   10.9293    1.1150    0.0000 H   0  0  0  0  0  0  0  0  0  0  0  0
    6.9326    0.9475    0.0000 H   0  0  0  0  0  0  0  0  0  0  0  0
    7.8592   -0.6575    0.0000 H   0  0  0  0  0  0  0  0  0  0  0  0
    6.9325   -0.1225    0.0000 H   0  0  0  0  0  0  0  0  0  0  0  0
    1.9313    0.2900    0.0000 H   0  0  0  0  0  0  0  0  0  0  0  0
    1.9313    1.3600    0.0000 H   0  0  0  0  0  0  0  0  0  0  0  0
    9.2881    3.1325    0.0000 H   0  0  0  0  0  0  0  0  0  0  0  0
    8.3614    2.5975    0.0000 H   0  0  0  0  0  0  0  0  0  0  0  0
    9.5003    0.2900    0.0000 H   0  0  0  0  0  0  0  0  0  0  0  0
    9.5003    1.3600    0.0000 H   0  0  0  0  0  0  0  0  0  0  0  0
   -0.1792    3.4035    0.0000 H   0  0  0  0  0  0  0  0  0  0  0  0
   -0.1792    1.5465    0.0000 H   0  0  0  0  0  0  0  0  0  0  0  0
    1.4289    4.3320    0.0000 H   0  0  0  0  0  0  0  0  0  0  0  0
    1.4289    0.6180    0.0000 H   0  0  0  0  0  0  0  0  0  0  0  0
    3.0371    3.4035    0.0000 H   0  0  0  0  0  0  0  0  0  0  0  0
    7.8592    3.1325    0.0000 H   0  0  0  0  0  0  0  0  0  0  0  0
    8.7858    2.5975    0.0000 H   0  0  0  0  0  0  0  0  0  0  0  0
    7.1447    0.5800    0.0000 H   0  0  0  0  0  0  0  0  0  0  0  0
    6.2181    1.1150    0.0000 H   0  0  0  0  0  0  0  0  0  0  0  0
    5.7158    0.5800    0.0000 H   0  0  0  0  0  0  0  0  0  0  0  0
    6.6425    1.1150    0.0000 H   0  0  0  0  0  0  0  0  0  0  0  0
    5.0013    3.1325    0.0000 H   0  0  0  0  0  0  0  0  0  0  0  0
    4.0747    2.5975    0.0000 H   0  0  0  0  0  0  0  0  0  0  0  0
    1.9313    1.1150    0.0000 H   0  0  0  0  0  0  0  0  0  0  0  0
  1 23  1  0  0  0  0
  1 24  1  0  0  0  0
  1 25  1  0  0  0  0
  2 26  1  0  0  0  0
  2 27  1  0  0  0  0
  2 28  1  0  0  0  0
  3 29  1  0  0  0  0
  3 30  1  0  0  0  0
  3 31  1  0  0  0  0
  4  1  1  0  0  0  0
  4 32  1  0  0  0  0
  4 33  1  0  0  0  0
  5  2  1  0  0  0  0
  5 34  1  0  0  0  0
  5 35  1  0  0  0  0
  6  3  1  0  0  0  0
  6 36  1  0  0  0  0
  6 37  1  0  0  0  0
  7 38  1  0  0  0  0
  8  7  2  0  0  0  0
  8 39  1  0  0  0  0
  9  7  1  0  0  0  0
  9 40  1  0  0  0  0
 10  8  1  0  0  0  0
 10 41  1  0  0  0  0
 11  9  2  0  0  0  0
 11 42  1  0  0  0  0
 12 43  1  0  0  0  0
 12 44  1  0  0  0  0
 13 12  1  0  0  0  0
 13 45  1  0  0  0  0
 13 46  1  0  0  0  0
 14 47  1  0  0  0  0
 14 48  1  0  0  0  0
 15 14  1  0  0  0  0
 15 49  1  0  0  0  0
 15 50  1  0  0  0  0
 16 10  2  0  0  0  0
 16 11  1  0  0  0  0
 17  4  1  0  0  0  0
 17 16  1  0  0  0  0
 17 51  1  0  0  0  0
 18 17  1  0  0  0  0
 19  5  1  0  0  0  0
 19  6  1  0  0  0  0
 19 12  1  0  0  0  0
 20 18  2  0  0  0  0
 21 13  1  0  0  0  0
 21 14  1  0  0  0  0
 22 15  1  0  0  0  0
 22 18  1  0  0  0  0
M  END
>  <DRUGBANK_ID>
DB13731

>  <COMMON_NAME>
Butamirate

>  <CAS_NUMBER>
18109-80-3

>  <UNII>
M75MZG2236

>  <SYNONYMS>
Butamirate

$$$$
