
 OpenBabel10282417072D

 31 32  0  0  1  0  0  0  0  0999 V2000
   -0.3657   -0.1346    0.0000 C   0  0  2  0  0  0  0  0  0  0  0  0
    0.4244    0.1173    0.0000 N   0  0  0  0  0  0  0  0  0  0  0  0
   -1.0420    0.3796    0.0000 O   0  0  0  0  0  0  0  0  0  0  0  0
   -0.6106   -0.9005    0.0000 C   0  0  0  0  0  0  0  0  0  0  0  0
    1.0213   -0.4417    0.0000 C   0  0  0  0  0  0  0  0  0  0  0  0
    0.6106    0.9177    0.0000 C   0  0  0  0  0  0  0  0  0  0  0  0
   -1.7078   -0.1173    0.0000 C   0  0  1  0  0  0  0  0  0  0  0  0
   -1.4492   -0.9005    0.0000 C   0  0  1  0  0  0  0  0  0  0  0  0
    1.8148   -0.2070    0.0000 N   0  0  0  0  0  0  0  0  0  0  0  0
    0.8384   -1.2524    0.0000 O   0  0  0  0  0  0  0  0  0  0  0  0
    1.4008    1.1628    0.0000 C   0  0  0  0  0  0  0  0  0  0  0  0
   -2.4946    0.1311    0.0000 C   0  0  0  0  0  0  0  0  0  0  0  0
   -1.7044   -1.7078    0.0000 O   0  0  0  0  0  0  0  0  0  0  0  0
    1.9942    0.5900    0.0000 C   0  0  0  0  0  0  0  0  0  0  0  0
    1.5871    1.9632    0.0000 C   0  0  0  0  0  0  0  0  0  0  0  0
   -3.1052   -0.4244    0.0000 O   0  0  0  0  0  0  0  0  0  0  0  0
    2.7844    0.8281    0.0000 O   0  0  0  0  0  0  0  0  0  0  0  0
   -0.1839    0.9198    0.0000 H   0  0  0  0  0  0  0  0  0  0  0  0
    0.0204   -1.7647    0.0000 H   0  0  0  0  0  0  0  0  0  0  0  0
   -1.0953   -1.8544    0.0000 H   0  0  0  0  0  0  0  0  0  0  0  0
   -0.1450    1.6206    0.0000 H   0  0  0  0  0  0  0  0  0  0  0  0
   -1.8864    0.9377    0.0000 H   0  0  0  0  0  0  0  0  0  0  0  0
   -0.8168   -1.7636    0.0000 H   0  0  0  0  0  0  0  0  0  0  0  0
    2.5336   -0.8797    0.0000 H   0  0  0  0  0  0  0  0  0  0  0  0
   -2.7241    1.1762    0.0000 H   0  0  0  0  0  0  0  0  0  0  0  0
   -3.5142    0.4557    0.0000 H   0  0  0  0  0  0  0  0  0  0  0  0
   -2.6516   -1.9170    0.0000 H   0  0  0  0  0  0  0  0  0  0  0  0
    2.6109    2.2742    0.0000 H   0  0  0  0  0  0  0  0  0  0  0  0
    0.8059    2.6943    0.0000 H   0  0  0  0  0  0  0  0  0  0  0  0
    1.8297    3.0053    0.0000 H   0  0  0  0  0  0  0  0  0  0  0  0
   -4.0293   -0.1294    0.0000 H   0  0  0  0  0  0  0  0  0  0  0  0
  1  2  1  0  0  0  0
  1  3  1  0  0  0  0
  1  4  1  0  0  0  0
  1 18  1  6  0  0  0
  2  5  1  0  0  0  0
  2  6  1  0  0  0  0
  3  7  1  0  0  0  0
  4  8  1  0  0  0  0
  4 19  1  0  0  0  0
  4 20  1  0  0  0  0
  5  9  1  0  0  0  0
  5 10  2  0  0  0  0
  6 11  2  0  0  0  0
  6 21  1  0  0  0  0
  7 12  1  0  0  0  0
  7  8  1  0  0  0  0
  7 22  1  6  0  0  0
  8 13  1  0  0  0  0
  8 23  1  1  0  0  0
  9 14  1  0  0  0  0
  9 24  1  0  0  0  0
 11 15  1  0  0  0  0
 11 14  1  0  0  0  0
 12 16  1  0  0  0  0
 12 25  1  0  0  0  0
 12 26  1  0  0  0  0
 13 27  1  0  0  0  0
 14 17  2  0  0  0  0
 15 28  1  0  0  0  0
 15 29  1  0  0  0  0
 15 30  1  0  0  0  0
 16 31  1  0  0  0  0
M  END
>  <DRUGBANK_ID>
DB04485

>  <SECONDARY_ACCESSION_NUMBERS>
EXPT03053

>  <COMMON_NAME>
Thymidine

>  <CAS_NUMBER>
50-89-5

>  <UNII>
VC2W18DGKR

>  <SYNONYMS>
2'-deoxy-5-methyluridine; 2'-deoxythymidine; 2'-thymidine; Deoxyribosylthymine; Deoxythymidine; dThd; Thymidine; Thymine 2'-deoxyriboside; Thymine deoxyriboside

$$$$
