
 OpenBabel10282417072D

  4  3  0  0  0  0  0  0  0  0999 V2000
    0.2062    0.0000    0.0000 N   0  0  0  0  0  0  0  0  0  0  0  0
    0.6187    0.7145    0.0000 O   0  5  0  0  0  0  0  0  0  0  0  0
    0.6187   -0.7145    0.0000 O   0  0  0  0  0  0  0  0  0  0  0  0
   -0.6187    0.0000    0.0000 O   0  0  0  0  0  0  0  0  0  0  0  0
  2  1  1  0  0  0  0
  3  1  2  0  0  0  0
  4  1  2  0  0  0  0
M  CHG  1   2  -1
M  END
>  <DRUGBANK_ID>
DB14049

>  <COMMON_NAME>
Nitrate

>  <CAS_NUMBER>
14797-55-8

>  <UNII>
T93E9Y2844

>  <SYNONYMS>
Nitrate ion; Nitrates

$$$$
