
 OpenBabel10282417072D

 59 63  0  0  0  0  0  0  0  0999 V2000
   -0.6215   -3.1062    0.0000 C   0  0  0  0  0  0  0  0  0  0  0  0
   -0.8764   -2.3215    0.0000 O   0  0  0  0  0  0  0  0  0  0  0  0
   -1.6834   -2.1500    0.0000 C   0  0  0  0  0  0  0  0  0  0  0  0
   -1.9384   -1.3654    0.0000 C   0  0  0  0  0  0  0  0  0  0  0  0
   -2.7230   -1.1104    0.0000 C   0  0  0  0  0  0  0  0  0  0  0  0
   -3.3904   -1.5954    0.0000 C   0  0  0  0  0  0  0  0  0  0  0  0
   -4.1441   -1.2598    0.0000 N   0  0  0  0  0  0  0  0  0  0  0  0
   -4.8115   -1.7447    0.0000 C   0  0  0  0  0  0  0  0  0  0  0  0
   -5.5652   -1.4092    0.0000 C   0  0  0  0  0  0  0  0  0  0  0  0
   -5.6514   -0.5887    0.0000 N   0  0  0  0  0  0  0  0  0  0  0  0
   -4.9840   -0.1038    0.0000 C   0  0  0  0  0  0  0  0  0  0  0  0
   -5.0702    0.7167    0.0000 O   0  0  0  0  0  0  0  0  0  0  0  0
   -4.2303   -0.4393    0.0000 C   0  0  0  0  0  0  0  0  0  0  0  0
   -2.7230   -0.2854    0.0000 N   0  0  0  0  0  0  0  0  0  0  0  0
   -3.3361    0.2666    0.0000 N   0  0  0  0  0  0  0  0  0  0  0  0
   -3.1645    1.0736    0.0000 C   0  0  0  0  0  0  0  0  0  0  0  0
   -2.3799    1.3285    0.0000 N   0  0  0  0  0  0  0  0  0  0  0  0
   -1.7668    0.7765    0.0000 C   0  0  0  0  0  0  0  0  0  0  0  0
   -0.9822    1.0314    0.0000 N   0  0  0  0  0  0  0  0  0  0  0  0
   -1.9384   -0.0305    0.0000 C   0  0  0  0  0  0  0  0  0  0  0  0
   -1.4534   -0.6979    0.0000 C   0  0  0  0  0  0  0  0  0  0  0  0
   -0.6284   -0.6979    0.0000 C   0  0  0  0  0  0  0  0  0  0  0  0
   -0.1435   -1.3654    0.0000 C   0  0  0  0  0  0  0  0  0  0  0  0
    0.6411   -1.1104    0.0000 C   0  0  0  0  0  0  0  0  0  0  0  0
    0.6411   -0.2854    0.0000 C   0  0  0  0  0  0  0  0  0  0  0  0
   -0.1435   -0.0305    0.0000 S   0  0  0  0  0  0  0  0  0  0  0  0
    1.3556    0.1271    0.0000 C   0  0  0  0  0  0  0  0  0  0  0  0
    1.3556    0.9521    0.0000 O   0  0  0  0  0  0  0  0  0  0  0  0
    0.6411    1.3646    0.0000 C   0  0  0  0  0  0  0  0  0  0  0  0
    2.0701   -0.2854    0.0000 C   0  0  0  0  0  0  0  0  0  0  0  0
    2.0701   -1.1104    0.0000 C   0  0  0  0  0  0  0  0  0  0  0  0
    2.7845   -1.5229    0.0000 C   0  0  0  0  0  0  0  0  0  0  0  0
    1.3556   -1.5229    0.0000 C   0  0  0  0  0  0  0  0  0  0  0  0
   -1.3375   -3.9013    0.0000 H   0  0  0  0  0  0  0  0  0  0  0  0
    0.4251   -3.3287    0.0000 H   0  0  0  0  0  0  0  0  0  0  0  0
   -0.2909   -4.1239    0.0000 H   0  0  0  0  0  0  0  0  0  0  0  0
   -2.3993   -2.9452    0.0000 H   0  0  0  0  0  0  0  0  0  0  0  0
   -2.7300   -1.9276    0.0000 H   0  0  0  0  0  0  0  0  0  0  0  0
   -3.2785   -2.6595    0.0000 H   0  0  0  0  0  0  0  0  0  0  0  0
   -4.2560   -2.2243    0.0000 H   0  0  0  0  0  0  0  0  0  0  0  0
   -4.6996   -2.8088    0.0000 H   0  0  0  0  0  0  0  0  0  0  0  0
   -5.6771   -2.3737    0.0000 H   0  0  0  0  0  0  0  0  0  0  0  0
   -6.4308   -2.0381    0.0000 H   0  0  0  0  0  0  0  0  0  0  0  0
   -6.5427   -0.9740    0.0000 H   0  0  0  0  0  0  0  0  0  0  0  0
   -6.5508   -0.1882    0.0000 H   0  0  0  0  0  0  0  0  0  0  0  0
   -3.3647    0.1896    0.0000 H   0  0  0  0  0  0  0  0  0  0  0  0
   -3.2528   -0.8745    0.0000 H   0  0  0  0  0  0  0  0  0  0  0  0
   -3.9314    1.7642    0.0000 H   0  0  0  0  0  0  0  0  0  0  0  0
   -0.2506    0.3726    0.0000 H   0  0  0  0  0  0  0  0  0  0  0  0
   -0.7775    1.9944    0.0000 H   0  0  0  0  0  0  0  0  0  0  0  0
   -0.4624   -2.3469    0.0000 H   0  0  0  0  0  0  0  0  0  0  0  0
    0.6411    2.4346    0.0000 H   0  0  0  0  0  0  0  0  0  0  0  0
   -0.2855    0.8296    0.0000 H   0  0  0  0  0  0  0  0  0  0  0  0
   -0.2856    1.8996    0.0000 H   0  0  0  0  0  0  0  0  0  0  0  0
    2.9638    0.2306    0.0000 H   0  0  0  0  0  0  0  0  0  0  0  0
    2.7845   -2.5929    0.0000 H   0  0  0  0  0  0  0  0  0  0  0  0
    3.7112   -0.9879    0.0000 H   0  0  0  0  0  0  0  0  0  0  0  0
    3.7111   -2.0579    0.0000 H   0  0  0  0  0  0  0  0  0  0  0  0
    1.3556   -2.5549    0.0000 H   0  0  0  0  0  0  0  0  0  0  0  0
  1  2  1  0  0  0  0
  1 34  1  0  0  0  0
  1 35  1  0  0  0  0
  1 36  1  0  0  0  0
  2  3  1  0  0  0  0
  3  4  1  0  0  0  0
  3 37  1  0  0  0  0
  3 38  1  0  0  0  0
  4  5  2  0  0  0  0
  4 21  1  0  0  0  0
  5  6  1  0  0  0  0
  5 14  1  0  0  0  0
  6  7  1  0  0  0  0
  6 39  1  0  0  0  0
  6 40  1  0  0  0  0
  7  8  1  0  0  0  0
  7 13  1  0  0  0  0
  8  9  1  0  0  0  0
  8 41  1  0  0  0  0
  8 42  1  0  0  0  0
  9 10  1  0  0  0  0
  9 43  1  0  0  0  0
  9 44  1  0  0  0  0
 10 11  1  0  0  0  0
 10 45  1  0  0  0  0
 11 12  2  0  0  0  0
 11 13  1  0  0  0  0
 13 46  1  0  0  0  0
 13 47  1  0  0  0  0
 14 15  1  0  0  0  0
 14 20  1  0  0  0  0
 15 16  2  0  0  0  0
 16 17  1  0  0  0  0
 16 48  1  0  0  0  0
 17 18  2  0  0  0  0
 18 19  1  0  0  0  0
 18 20  1  0  0  0  0
 19 49  1  0  0  0  0
 19 50  1  0  0  0  0
 20 21  2  0  0  0  0
 21 22  1  0  0  0  0
 22 23  2  0  0  0  0
 22 26  1  0  0  0  0
 23 24  1  0  0  0  0
 23 51  1  0  0  0  0
 24 25  2  0  0  0  0
 24 33  1  0  0  0  0
 25 26  1  0  0  0  0
 25 27  1  0  0  0  0
 27 28  1  0  0  0  0
 27 30  2  0  0  0  0
 28 29  1  0  0  0  0
 29 52  1  0  0  0  0
 29 53  1  0  0  0  0
 29 54  1  0  0  0  0
 30 31  1  0  0  0  0
 30 55  1  0  0  0  0
 31 32  1  0  0  0  0
 31 33  2  0  0  0  0
 32 56  1  0  0  0  0
 32 57  1  0  0  0  0
 32 58  1  0  0  0  0
 33 59  1  0  0  0  0
M  END
>  <DRUGBANK_ID>
DB15078

>  <COMMON_NAME>
Rogaratinib

>  <CAS_NUMBER>
1443530-05-9

>  <UNII>
98BSN6N516

>  <SYNONYMS>
Rogaratinib

$$$$
