
 OpenBabel10282417072D

 99106  0  0  1  0  0  0  0  0999 V2000
   -0.3161    2.2083    0.0000 C   0  0  0  0  0  0  0  0  0  0  0  0
    0.5089    2.2083    0.0000 C   0  0  0  0  0  0  0  0  0  0  0  0
    0.9214    1.4939    0.0000 C   0  0  0  0  0  0  0  0  0  0  0  0
    0.5089    0.7794    0.0000 C   0  0  0  0  0  0  0  0  0  0  0  0
   -0.3161    0.7794    0.0000 C   0  0  0  0  0  0  0  0  0  0  0  0
   -0.7286    1.4939    0.0000 C   0  0  0  0  0  0  0  0  0  0  0  0
   -1.5536    1.4939    0.0000 C   0  0  0  0  0  0  0  0  0  0  0  0
   -1.9661    2.2083    0.0000 O   0  0  0  0  0  0  0  0  0  0  0  0
   -1.9661    0.7794    0.0000 N   0  0  0  0  0  0  0  0  0  0  0  0
   -2.7911    0.7794    0.0000 C   0  0  0  0  0  0  0  0  0  0  0  0
   -3.2036    0.0649    0.0000 C   0  0  0  0  0  0  0  0  0  0  0  0
   -4.0286    0.0649    0.0000 N   0  0  0  0  0  0  0  0  0  0  0  0
   -4.4411   -0.6495    0.0000 C   0  0  0  0  0  0  0  0  0  0  0  0
   -4.0286   -1.3640    0.0000 S   0  0  0  0  0  0  0  0  0  0  0  0
   -5.2661   -0.6495    0.0000 N   0  0  0  0  0  0  0  0  0  0  0  0
   -5.6786   -1.3640    0.0000 C   0  0  0  0  0  0  0  0  0  0  0  0
   -6.5036   -1.3640    0.0000 C   0  0  0  0  0  0  0  0  0  0  0  0
   -6.9161   -2.0785    0.0000 C   0  0  0  0  0  0  0  0  0  0  0  0
   -6.5036   -2.7930    0.0000 C   0  0  0  0  0  0  0  0  0  0  0  0
   -5.6786   -2.7930    0.0000 C   0  0  0  0  0  0  0  0  0  0  0  0
   -5.2661   -2.0785    0.0000 C   0  0  0  0  0  0  0  0  0  0  0  0
   -5.4237   -3.5776    0.0000 C   0  0  0  0  0  0  0  0  0  0  0  0
   -4.6390   -3.8325    0.0000 O   0  0  0  0  0  0  0  0  0  0  0  0
   -6.0911   -4.0625    0.0000 O   0  0  0  0  0  0  0  0  0  0  0  0
   -6.7585   -3.5776    0.0000 C   0  0  0  0  0  0  0  0  0  0  0  0
   -7.3716   -3.0255    0.0000 C   0  0  0  0  0  0  0  0  0  0  0  0
   -7.2001   -2.2186    0.0000 C   0  0  0  0  0  0  0  0  0  0  0  0
   -7.8132   -1.6665    0.0000 C   0  0  0  0  0  0  0  0  0  0  0  0
   -8.5978   -1.9215    0.0000 C   0  0  0  0  0  0  0  0  0  0  0  0
   -8.7693   -2.7285    0.0000 C   0  0  0  0  0  0  0  0  0  0  0  0
   -8.1562   -3.2805    0.0000 C   0  0  0  0  0  0  0  0  0  0  0  0
   -8.3278   -4.0875    0.0000 O   0  0  0  0  0  0  0  0  0  0  0  0
   -7.7147   -4.6395    0.0000 C   0  0  0  0  0  0  0  0  0  0  0  0
   -6.9301   -4.3846    0.0000 C   0  0  0  0  0  0  0  0  0  0  0  0
   -6.3170   -4.9366    0.0000 C   0  0  0  0  0  0  0  0  0  0  0  0
   -6.4885   -5.7436    0.0000 C   0  0  0  0  0  0  0  0  0  0  0  0
   -7.2731   -5.9985    0.0000 C   0  0  0  0  0  0  0  0  0  0  0  0
   -7.8862   -5.4465    0.0000 C   0  0  0  0  0  0  0  0  0  0  0  0
   -7.4446   -6.8055    0.0000 O   0  0  0  0  0  0  0  0  0  0  0  0
   -9.2109   -1.3694    0.0000 O   0  0  0  0  0  0  0  0  0  0  0  0
   -1.5536    0.0649    0.0000 C   0  0  1  0  0  0  0  0  0  0  0  0
   -0.7286    0.0649    0.0000 C   0  0  0  0  0  0  0  0  0  0  0  0
   -0.3161   -0.6495    0.0000 C   0  0  0  0  0  0  0  0  0  0  0  0
    0.5089   -0.6495    0.0000 C   0  0  0  0  0  0  0  0  0  0  0  0
    0.9214    0.0649    0.0000 O   0  0  0  0  0  0  0  0  0  0  0  0
    0.9214   -1.3640    0.0000 N   0  0  0  0  0  0  0  0  0  0  0  0
   -1.9661   -0.6495    0.0000 C   0  0  0  0  0  0  0  0  0  0  0  0
   -1.5536   -1.3640    0.0000 O   0  0  0  0  0  0  0  0  0  0  0  0
   -2.7911   -0.6495    0.0000 O   0  0  0  0  0  0  0  0  0  0  0  0
    1.7464    1.4939    0.0000 N   0  0  0  0  0  0  0  0  0  0  0  0
    2.1589    2.2083    0.0000 C   0  0  0  0  0  0  0  0  0  0  0  0
    2.9839    2.2083    0.0000 C   0  0  0  0  0  0  0  0  0  0  0  0
    3.3964    1.4939    0.0000 C   0  0  0  0  0  0  0  0  0  0  0  0
    4.2214    1.4939    0.0000 N   0  0  0  0  0  0  0  0  0  0  0  0
    4.6339    2.2083    0.0000 C   0  0  0  0  0  0  0  0  0  0  0  0
    4.2214    2.9228    0.0000 C   0  0  0  0  0  0  0  0  0  0  0  0
    3.3964    2.9228    0.0000 N   0  0  0  0  0  0  0  0  0  0  0  0
    4.6339    3.6373    0.0000 C   0  0  0  0  0  0  0  0  0  0  0  0
    4.2214    4.3518    0.0000 O   0  0  0  0  0  0  0  0  0  0  0  0
    5.4589    3.6373    0.0000 N   0  0  0  0  0  0  0  0  0  0  0  0
    5.8714    2.9228    0.0000 C   0  0  0  0  0  0  0  0  0  0  0  0
    5.4589    2.2083    0.0000 N   0  0  0  0  0  0  0  0  0  0  0  0
    6.6964    2.9228    0.0000 N   0  0  0  0  0  0  0  0  0  0  0  0
   -0.8321    3.1020    0.0000 H   0  0  0  0  0  0  0  0  0  0  0  0
    1.0249    3.1020    0.0000 H   0  0  0  0  0  0  0  0  0  0  0  0
    1.0249   -0.1143    0.0000 H   0  0  0  0  0  0  0  0  0  0  0  0
   -0.8321   -0.1143    0.0000 H   0  0  0  0  0  0  0  0  0  0  0  0
   -3.3261    1.7060    0.0000 H   0  0  0  0  0  0  0  0  0  0  0  0
   -3.8611    0.7794    0.0000 H   0  0  0  0  0  0  0  0  0  0  0  0
   -2.6686   -0.8617    0.0000 H   0  0  0  0  0  0  0  0  0  0  0  0
   -3.7386   -0.8617    0.0000 H   0  0  0  0  0  0  0  0  0  0  0  0
   -4.5208    0.9175    0.0000 H   0  0  0  0  0  0  0  0  0  0  0  0
   -5.7584    0.2031    0.0000 H   0  0  0  0  0  0  0  0  0  0  0  0
   -7.0196   -0.4703    0.0000 H   0  0  0  0  0  0  0  0  0  0  0  0
   -7.9481   -2.0785    0.0000 H   0  0  0  0  0  0  0  0  0  0  0  0
   -4.2341   -2.0785    0.0000 H   0  0  0  0  0  0  0  0  0  0  0  0
   -6.2186   -1.8997    0.0000 H   0  0  0  0  0  0  0  0  0  0  0  0
   -7.5986   -0.6570    0.0000 H   0  0  0  0  0  0  0  0  0  0  0  0
   -9.7508   -3.0474    0.0000 H   0  0  0  0  0  0  0  0  0  0  0  0
   -5.3355   -4.6177    0.0000 H   0  0  0  0  0  0  0  0  0  0  0  0
   -5.7216   -6.4341    0.0000 H   0  0  0  0  0  0  0  0  0  0  0  0
   -8.8677   -5.7654    0.0000 H   0  0  0  0  0  0  0  0  0  0  0  0
   -8.3357   -7.0951    0.0000 H   0  0  0  0  0  0  0  0  0  0  0  0
   -9.0160   -0.4529    0.0000 H   0  0  0  0  0  0  0  0  0  0  0  0
   -1.0186    0.9915    0.0000 H   0  0  0  0  0  0  0  0  0  0  0  0
   -0.1936    0.9916    0.0000 H   0  0  0  0  0  0  0  0  0  0  0  0
    0.3414    0.0649    0.0000 H   0  0  0  0  0  0  0  0  0  0  0  0
   -0.8511   -1.5762    0.0000 H   0  0  0  0  0  0  0  0  0  0  0  0
    0.2189   -1.5761    0.0000 H   0  0  0  0  0  0  0  0  0  0  0  0
    0.4291   -2.2166    0.0000 H   0  0  0  0  0  0  0  0  0  0  0  0
    1.9059   -1.3640    0.0000 H   0  0  0  0  0  0  0  0  0  0  0  0
   -3.2596    0.1620    0.0000 H   0  0  0  0  0  0  0  0  0  0  0  0
    2.2386    0.6413    0.0000 H   0  0  0  0  0  0  0  0  0  0  0  0
    1.6239    3.1350    0.0000 H   0  0  0  0  0  0  0  0  0  0  0  0
    2.6939    3.1349    0.0000 H   0  0  0  0  0  0  0  0  0  0  0  0
    2.8804    0.6002    0.0000 H   0  0  0  0  0  0  0  0  0  0  0  0
    5.9512    4.4899    0.0000 H   0  0  0  0  0  0  0  0  0  0  0  0
    7.1886    2.0702    0.0000 H   0  0  0  0  0  0  0  0  0  0  0  0
    7.1886    3.7754    0.0000 H   0  0  0  0  0  0  0  0  0  0  0  0
  1  2  2  0  0  0  0
  1  6  1  0  0  0  0
  1 64  1  0  0  0  0
  2  3  1  0  0  0  0
  2 65  1  0  0  0  0
  3  4  2  0  0  0  0
  3 50  1  0  0  0  0
  4  5  1  0  0  0  0
  4 66  1  0  0  0  0
  5  6  2  0  0  0  0
  5 67  1  0  0  0  0
  6  7  1  0  0  0  0
  7  8  2  0  0  0  0
  7  9  1  0  0  0  0
  9 10  1  0  0  0  0
 10 11  1  0  0  0  0
 10 68  1  0  0  0  0
 10 69  1  0  0  0  0
 11 12  1  0  0  0  0
 11 70  1  0  0  0  0
 11 71  1  0  0  0  0
 12 13  1  0  0  0  0
 12 72  1  0  0  0  0
 13 14  2  0  0  0  0
 13 15  1  0  0  0  0
 15 16  1  0  0  0  0
 15 73  1  0  0  0  0
 16 17  2  0  0  0  0
 16 21  1  0  0  0  0
 17 18  1  0  0  0  0
 17 74  1  0  0  0  0
 18 19  2  0  0  0  0
 18 75  1  0  0  0  0
 19 20  1  0  0  0  0
 19 25  1  0  0  0  0
 20 21  2  0  0  0  0
 20 22  1  0  0  0  0
 21 76  1  0  0  0  0
 22 23  2  0  0  0  0
 22 24  1  0  0  0  0
 24 25  1  0  0  0  0
 25 26  1  0  0  0  0
 25 34  1  0  0  0  0
 26 27  2  0  0  0  0
 26 31  1  0  0  0  0
 27 28  1  0  0  0  0
 27 77  1  0  0  0  0
 28 29  2  0  0  0  0
 28 78  1  0  0  0  0
 29 30  1  0  0  0  0
 29 40  1  0  0  0  0
 30 31  2  0  0  0  0
 30 79  1  0  0  0  0
 31 32  1  0  0  0  0
 32 33  1  0  0  0  0
 33 34  2  0  0  0  0
 33 38  1  0  0  0  0
 34 35  1  0  0  0  0
 35 36  2  0  0  0  0
 35 80  1  0  0  0  0
 36 37  1  0  0  0  0
 36 81  1  0  0  0  0
 37 38  2  0  0  0  0
 37 39  1  0  0  0  0
 38 82  1  0  0  0  0
 39 83  1  0  0  0  0
 40 84  1  0  0  0  0
 41  9  1  0  0  0  0
 41 42  1  0  0  0  0
 41 47  1  0  0  0  0
 41 85  1  6  0  0  0
 42 43  1  0  0  0  0
 42 86  1  0  0  0  0
 42 87  1  0  0  0  0
 43 44  1  0  0  0  0
 43 88  1  0  0  0  0
 43 89  1  0  0  0  0
 44 45  2  0  0  0  0
 44 46  1  0  0  0  0
 46 90  1  0  0  0  0
 46 91  1  0  0  0  0
 47 48  2  0  0  0  0
 47 49  1  0  0  0  0
 49 92  1  0  0  0  0
 50 51  1  0  0  0  0
 50 93  1  0  0  0  0
 51 52  1  0  0  0  0
 51 94  1  0  0  0  0
 51 95  1  0  0  0  0
 52 53  2  0  0  0  0
 52 57  1  0  0  0  0
 53 54  1  0  0  0  0
 53 96  1  0  0  0  0
 54 55  2  0  0  0  0
 55 56  1  0  0  0  0
 55 62  1  0  0  0  0
 56 57  2  0  0  0  0
 56 58  1  0  0  0  0
 58 59  2  0  0  0  0
 58 60  1  0  0  0  0
 60 61  1  0  0  0  0
 60 97  1  0  0  0  0
 61 62  2  0  0  0  0
 61 63  1  0  0  0  0
 63 98  1  0  0  0  0
 63 99  1  0  0  0  0
M  END
>  <DRUGBANK_ID>
DB12559

>  <COMMON_NAME>
EC-17

>  <CAS_NUMBER>
583037-91-6

>  <UNII>
V7YQ6134AE

>  <SYNONYMS>
EC17 (Folate-FITC); Folate-FITC; Folate-fluorescein conjugate

$$$$
