
 OpenBabel10282417072D

 70 73  0  0  1  0  0  0  0  0999 V2000
   31.7410  -19.3874    0.0000 C   0  0  0  0  0  0  0  0  0  0  0  0
   31.7410  -18.5624    0.0000 C   0  0  0  0  0  0  0  0  0  0  0  0
   31.0397  -18.1499    0.0000 C   0  0  0  0  0  0  0  0  0  0  0  0
   30.2972  -18.5624    0.0000 C   0  0  0  0  0  0  0  0  0  0  0  0
   30.2972  -19.3874    0.0000 C   0  0  0  0  0  0  0  0  0  0  0  0
   31.0397  -19.8000    0.0000 C   0  0  0  0  0  0  0  0  0  0  0  0
   29.4721  -18.5624    0.0000 C   0  0  2  0  0  0  0  0  0  0  0  0
   29.4721  -19.3874    0.0000 C   0  0  0  0  0  0  0  0  0  0  0  0
   32.4423  -19.8000    0.0000 O   0  0  0  0  0  0  0  0  0  0  0  0
   32.4423  -18.1499    0.0000 O   0  0  0  0  0  0  0  0  0  0  0  0
   28.8121  -18.0674    0.0000 C   0  0  0  0  0  0  0  0  0  0  0  0
   28.1109  -18.4799    0.0000 N   0  0  0  0  0  0  0  0  0  0  0  0
   27.4096  -18.0674    0.0000 C   0  0  0  0  0  0  0  0  0  0  0  0
   28.1109  -19.3049    0.0000 C   0  0  0  0  0  0  0  0  0  0  0  0
   33.1436  -18.5624    0.0000 C   0  0  0  0  0  0  0  0  0  0  0  0
   33.1436  -19.3874    0.0000 C   0  0  0  0  0  0  0  0  0  0  0  0
   26.7083  -18.4799    0.0000 C   0  0  0  0  0  0  0  0  0  0  0  0
   26.0070  -18.0674    0.0000 C   0  0  0  0  0  0  0  0  0  0  0  0
   25.3057  -18.4799    0.0000 N   0  0  0  0  0  0  0  0  0  0  0  0
   23.4907  -18.0674    0.0000 C   0  0  0  0  0  0  0  0  0  0  0  0
   24.1507  -17.5311    0.0000 C   0  0  0  0  0  0  0  0  0  0  0  0
   24.9345  -17.7374    0.0000 C   0  0  0  0  0  0  0  0  0  0  0  0
   23.4907  -18.8925    0.0000 C   0  0  0  0  0  0  0  0  0  0  0  0
   24.9345  -19.2224    0.0000 C   0  0  0  0  0  0  0  0  0  0  0  0
   24.1507  -19.3874    0.0000 C   0  0  0  0  0  0  0  0  0  0  0  0
   25.4547  -17.0970    0.0000 O   0  0  0  0  0  0  0  0  0  0  0  0
   22.7762  -17.6549    0.0000 C   0  0  0  0  0  0  0  0  0  0  0  0
   22.0617  -18.0674    0.0000 C   0  0  0  0  0  0  0  0  0  0  0  0
   22.0617  -18.8925    0.0000 C   0  0  0  0  0  0  0  0  0  0  0  0
   22.7762  -19.3049    0.0000 C   0  0  0  0  0  0  0  0  0  0  0  0
   21.3362  -17.6484    0.0000 O   0  0  0  0  0  0  0  0  0  0  0  0
   20.6259  -18.0584    0.0000 C   0  0  0  0  0  0  0  0  0  0  0  0
   21.3362  -19.3115    0.0000 O   0  0  0  0  0  0  0  0  0  0  0  0
   20.6259  -18.9015    0.0000 C   0  0  0  0  0  0  0  0  0  0  0  0
   31.0524  -17.1180    0.0000 H   0  0  0  0  0  0  0  0  0  0  0  0
   31.0524  -20.8319    0.0000 H   0  0  0  0  0  0  0  0  0  0  0  0
   29.8105  -17.5473    0.0000 H   0  0  0  0  0  0  0  0  0  0  0  0
   28.7155  -20.1440    0.0000 H   0  0  0  0  0  0  0  0  0  0  0  0
   29.8816  -20.3760    0.0000 H   0  0  0  0  0  0  0  0  0  0  0  0
   28.8719  -16.9991    0.0000 H   0  0  0  0  0  0  0  0  0  0  0  0
   27.8985  -17.5104    0.0000 H   0  0  0  0  0  0  0  0  0  0  0  0
   27.4096  -16.9974    0.0000 H   0  0  0  0  0  0  0  0  0  0  0  0
   26.4808  -17.5362    0.0000 H   0  0  0  0  0  0  0  0  0  0  0  0
   27.1843  -19.8399    0.0000 H   0  0  0  0  0  0  0  0  0  0  0  0
   29.0375  -19.8399    0.0000 H   0  0  0  0  0  0  0  0  0  0  0  0
   28.1109  -20.3749    0.0000 H   0  0  0  0  0  0  0  0  0  0  0  0
   33.1349  -19.6324    0.0000 H   0  0  0  0  0  0  0  0  0  0  0  0
   34.0745  -18.0349    0.0000 H   0  0  0  0  0  0  0  0  0  0  0  0
   34.0659  -19.1049    0.0000 H   0  0  0  0  0  0  0  0  0  0  0  0
   34.0746  -19.9148    0.0000 H   0  0  0  0  0  0  0  0  0  0  0  0
   33.1348  -18.3174    0.0000 H   0  0  0  0  0  0  0  0  0  0  0  0
   34.0658  -18.8448    0.0000 H   0  0  0  0  0  0  0  0  0  0  0  0
   26.7083  -19.5499    0.0000 H   0  0  0  0  0  0  0  0  0  0  0  0
   25.7795  -19.0111    0.0000 H   0  0  0  0  0  0  0  0  0  0  0  0
   26.0070  -16.9974    0.0000 H   0  0  0  0  0  0  0  0  0  0  0  0
   25.0782  -17.5362    0.0000 H   0  0  0  0  0  0  0  0  0  0  0  0
   23.9250  -16.4852    0.0000 H   0  0  0  0  0  0  0  0  0  0  0  0
   23.1412  -17.1763    0.0000 H   0  0  0  0  0  0  0  0  0  0  0  0
   25.5883  -20.0694    0.0000 H   0  0  0  0  0  0  0  0  0  0  0  0
   24.5646  -20.2264    0.0000 H   0  0  0  0  0  0  0  0  0  0  0  0
   23.9193  -20.4321    0.0000 H   0  0  0  0  0  0  0  0  0  0  0  0
   24.9033  -20.1480    0.0000 H   0  0  0  0  0  0  0  0  0  0  0  0
   22.7762  -16.6229    0.0000 H   0  0  0  0  0  0  0  0  0  0  0  0
   22.7762  -20.3369    0.0000 H   0  0  0  0  0  0  0  0  0  0  0  0
   19.6993  -17.5233    0.0000 H   0  0  0  0  0  0  0  0  0  0  0  0
   20.6258  -19.1284    0.0000 H   0  0  0  0  0  0  0  0  0  0  0  0
   19.6992  -18.5933    0.0000 H   0  0  0  0  0  0  0  0  0  0  0  0
   20.6258  -17.8315    0.0000 H   0  0  0  0  0  0  0  0  0  0  0  0
   19.6993  -19.4366    0.0000 H   0  0  0  0  0  0  0  0  0  0  0  0
   19.6992  -18.3666    0.0000 H   0  0  0  0  0  0  0  0  0  0  0  0
  1  2  2  0  0  0  0
  1  6  1  0  0  0  0
  1  9  1  0  0  0  0
  2  3  1  0  0  0  0
  2 10  1  0  0  0  0
  3  4  2  0  0  0  0
  3 35  1  0  0  0  0
  4  5  1  0  0  0  0
  4  7  1  0  0  0  0
  5  6  2  0  0  0  0
  5  8  1  0  0  0  0
  6 36  1  0  0  0  0
  7  8  1  0  0  0  0
  7 11  1  0  0  0  0
  7 37  1  1  0  0  0
  8 38  1  0  0  0  0
  8 39  1  0  0  0  0
  9 16  1  0  0  0  0
 10 15  1  0  0  0  0
 11 12  1  0  0  0  0
 11 40  1  0  0  0  0
 11 41  1  0  0  0  0
 12 13  1  0  0  0  0
 12 14  1  0  0  0  0
 13 17  1  0  0  0  0
 13 42  1  0  0  0  0
 13 43  1  0  0  0  0
 14 44  1  0  0  0  0
 14 45  1  0  0  0  0
 14 46  1  0  0  0  0
 15 47  1  0  0  0  0
 15 48  1  0  0  0  0
 15 49  1  0  0  0  0
 16 50  1  0  0  0  0
 16 51  1  0  0  0  0
 16 52  1  0  0  0  0
 17 18  1  0  0  0  0
 17 53  1  0  0  0  0
 17 54  1  0  0  0  0
 18 19  1  0  0  0  0
 18 55  1  0  0  0  0
 18 56  1  0  0  0  0
 19 24  1  0  0  0  0
 20 23  1  0  0  0  0
 20 21  1  0  0  0  0
 20 27  2  0  0  0  0
 21 22  1  0  0  0  0
 21 57  1  0  0  0  0
 21 58  1  0  0  0  0
 22 19  1  0  0  0  0
 22 26  2  0  0  0  0
 23 25  1  0  0  0  0
 23 30  2  0  0  0  0
 24 25  1  0  0  0  0
 24 59  1  0  0  0  0
 24 60  1  0  0  0  0
 25 61  1  0  0  0  0
 25 62  1  0  0  0  0
 27 28  1  0  0  0  0
 27 63  1  0  0  0  0
 28 29  2  0  0  0  0
 28 31  1  0  0  0  0
 29 30  1  0  0  0  0
 29 33  1  0  0  0  0
 30 64  1  0  0  0  0
 31 32  1  0  0  0  0
 32 65  1  0  0  0  0
 32 66  1  0  0  0  0
 32 67  1  0  0  0  0
 33 34  1  0  0  0  0
 34 68  1  0  0  0  0
 34 69  1  0  0  0  0
 34 70  1  0  0  0  0
M  END
>  <DRUGBANK_ID>
DB09083

>  <COMMON_NAME>
Ivabradine

>  <CAS_NUMBER>
155974-00-8

>  <UNII>
3H48L0LPZQ

>  <SYNONYMS>
3-[3-({[(7S)-3,4-dimethoxybicyclo[4.2.0]octa-1,3,5-trien-7-yl]methyl}(methyl)amino)propyl]-7,8-dimethoxy-2,3,4,5-tetrahydro-1H-3-benzazepin-2-one; Ivabradin; Ivabradina; Ivabradine; Ivabradinum

$$$$
