
 OpenBabel10282417072D

 47 50  0  0  0  0  0  0  0  0999 V2000
    0.8340    0.3306    0.0000 C   0  0  2  0  0  0  0  0  0  0  0  0
    0.8340   -0.4943    0.0000 C   0  0  0  0  0  0  0  0  0  0  0  0
    1.6590    0.3306    0.0000 C   0  0  2  0  0  0  0  0  0  0  0  0
    1.6590   -0.4943    0.0000 N   0  0  0  0  0  0  0  0  0  0  0  0
    2.4436   -0.7492    0.0000 C   0  0  2  0  0  0  0  0  0  0  0  0
    2.9285   -0.0818    0.0000 C   0  0  0  0  0  0  0  0  0  0  0  0
    2.4436    0.5855    0.0000 S   0  0  0  0  0  0  0  0  0  0  0  0
    3.6473   -0.4868    0.0000 C   0  0  0  0  0  0  0  0  0  0  0  0
    3.6473    0.3231    0.0000 C   0  0  0  0  0  0  0  0  0  0  0  0
    2.6986   -1.5339    0.0000 C   0  0  0  0  0  0  0  0  0  0  0  0
    3.5055   -1.7054    0.0000 O   0  0  0  0  0  0  0  0  0  0  0  0
    2.1465   -2.1470    0.0000 O   0  0  0  0  0  0  0  0  0  0  0  0
    0.1195    0.7431    0.0000 N   0  0  0  0  0  0  0  0  0  0  0  0
   -0.5948    0.3306    0.0000 C   0  0  0  0  0  0  0  0  0  0  0  0
   -0.5948   -0.3293    0.0000 O   0  0  0  0  0  0  0  0  0  0  0  0
    0.2506   -1.0777    0.0000 O   0  0  0  0  0  0  0  0  0  0  0  0
    1.6590    1.1556    0.0000 H   0  0  0  0  0  0  0  0  0  0  0  0
   -2.2009    1.7365    0.0000 O   0  0  0  0  0  0  0  0  0  0  0  0
   -2.6145    1.0227    0.0000 N   0  0  0  0  0  0  0  0  0  0  0  0
   -2.0635    0.4088    0.0000 C   0  0  0  0  0  0  0  0  0  0  0  0
   -1.3093    0.7431    0.0000 C   0  0  0  0  0  0  0  0  0  0  0  0
   -1.3942    1.5637    0.0000 C   0  0  0  0  0  0  0  0  0  0  0  0
   -2.2770   -0.3880    0.0000 C   0  0  0  0  0  0  0  0  0  0  0  0
   -3.0640   -0.6357    0.0000 C   0  0  0  0  0  0  0  0  0  0  0  0
   -3.2429   -1.4411    0.0000 C   0  0  0  0  0  0  0  0  0  0  0  0
   -2.6350   -1.9988    0.0000 C   0  0  0  0  0  0  0  0  0  0  0  0
   -1.8480   -1.7511    0.0000 C   0  0  0  0  0  0  0  0  0  0  0  0
   -1.6691   -0.9457    0.0000 C   0  0  0  0  0  0  0  0  0  0  0  0
   -0.8722   -0.7322    0.0000 F   0  0  0  0  0  0  0  0  0  0  0  0
   -3.6473   -0.0524    0.0000 Cl  0  0  0  0  0  0  0  0  0  0  0  0
   -0.8108    2.1470    0.0000 C   0  0  0  0  0  0  0  0  0  0  0  0
   -0.0926   -0.2044    0.0000 H   0  0  0  0  0  0  0  0  0  0  0  0
    1.6870   -1.5058    0.0000 H   0  0  0  0  0  0  0  0  0  0  0  0
    3.6585   -1.5567    0.0000 H   0  0  0  0  0  0  0  0  0  0  0  0
    4.5683    0.0579    0.0000 H   0  0  0  0  0  0  0  0  0  0  0  0
    4.5795   -1.0120    0.0000 H   0  0  0  0  0  0  0  0  0  0  0  0
    4.5682   -0.2217    0.0000 H   0  0  0  0  0  0  0  0  0  0  0  0
    3.6586    1.3930    0.0000 H   0  0  0  0  0  0  0  0  0  0  0  0
    4.5796    0.8482    0.0000 H   0  0  0  0  0  0  0  0  0  0  0  0
    3.7951   -2.5965    0.0000 H   0  0  0  0  0  0  0  0  0  0  0  0
    0.1194    1.7276    0.0000 H   0  0  0  0  0  0  0  0  0  0  0  0
   -4.2273   -1.7509    0.0000 H   0  0  0  0  0  0  0  0  0  0  0  0
   -2.8589   -3.0062    0.0000 H   0  0  0  0  0  0  0  0  0  0  0  0
   -1.0875   -2.4487    0.0000 H   0  0  0  0  0  0  0  0  0  0  0  0
    0.2227    1.8700    0.0000 H   0  0  0  0  0  0  0  0  0  0  0  0
   -1.0876    3.1806    0.0000 H   0  0  0  0  0  0  0  0  0  0  0  0
   -0.0541    2.9035    0.0000 H   0  0  0  0  0  0  0  0  0  0  0  0
  1 13  1  0  0  0  0
  1  2  1  0  0  0  0
  1 32  1  6  0  0  0
  2 16  2  0  0  0  0
  2  4  1  0  0  0  0
  3  1  1  0  0  0  0
  3  4  1  0  0  0  0
  3  7  1  0  0  0  0
  3 17  1  6  0  0  0
  4  5  1  0  0  0  0
  5  6  1  0  0  0  0
  5 10  1  0  0  0  0
  5 33  1  1  0  0  0
  6  7  1  0  0  0  0
  6  8  1  0  0  0  0
  6  9  1  0  0  0  0
  8 34  1  0  0  0  0
  8 35  1  0  0  0  0
  8 36  1  0  0  0  0
  9 37  1  0  0  0  0
  9 38  1  0  0  0  0
  9 39  1  0  0  0  0
 10 11  1  0  0  0  0
 10 12  2  0  0  0  0
 11 40  1  0  0  0  0
 13 14  1  0  0  0  0
 13 41  1  0  0  0  0
 14 15  2  0  0  0  0
 14 21  1  0  0  0  0
 18 19  1  0  0  0  0
 18 22  1  0  0  0  0
 19 20  2  0  0  0  0
 20 21  1  0  0  0  0
 20 23  1  0  0  0  0
 21 22  2  0  0  0  0
 22 31  1  0  0  0  0
 23 24  2  0  0  0  0
 23 28  1  0  0  0  0
 24 25  1  0  0  0  0
 24 30  1  0  0  0  0
 25 26  2  0  0  0  0
 25 42  1  0  0  0  0
 26 27  1  0  0  0  0
 26 43  1  0  0  0  0
 27 28  2  0  0  0  0
 27 44  1  0  0  0  0
 28 29  1  0  0  0  0
 31 45  1  0  0  0  0
 31 46  1  0  0  0  0
 31 47  1  0  0  0  0
M  END
>  <DRUGBANK_ID>
DB00301

>  <SECONDARY_ACCESSION_NUMBERS>
APRD00609

>  <COMMON_NAME>
Flucloxacillin

>  <CAS_NUMBER>
5250-39-5

>  <UNII>
43B2M34G2V

>  <SYNONYMS>
(2S,5R,6R)-6-({[3-(2-chloro-6-fluorophenyl)-5-methyl-1,2-oxazol-4-yl]carbonyl}amino)-3,3-dimethyl-7-oxo-4-thia-1-azabicyclo[3.2.0]heptane-2-carboxylic acid; 3-(2-Chloro-6-fluorophenyl)-5-methyl-4-isoxazolylpenicillin; Floxacillin; Flucloxacilina; Flucloxacillin; Flucloxacilline; Flucloxacillinum

$$$$
