SB8
 OpenBabel10282417072D

 36 37  0  0  0  0  0  0  0  0999 V2000
   -1.3912   -0.2789    0.0000 C   0  0  0  0  0  0  0  0  0  0  0  0
   -0.6767    0.1336    0.0000 C   0  0  0  0  0  0  0  0  0  0  0  0
    0.0377   -0.2789    0.0000 C   0  0  0  0  0  0  0  0  0  0  0  0
    0.0377   -1.1039    0.0000 C   0  0  0  0  0  0  0  0  0  0  0  0
   -0.6767   -1.5164    0.0000 C   0  0  0  0  0  0  0  0  0  0  0  0
   -1.3912   -1.1039    0.0000 C   0  0  0  0  0  0  0  0  0  0  0  0
   -0.6767    0.9586    0.0000 C   0  0  0  0  0  0  0  0  0  0  0  0
    0.0377    1.3711    0.0000 O   0  0  0  0  0  0  0  0  0  0  0  0
   -1.3912    1.3711    0.0000 C   0  0  0  0  0  0  0  0  0  0  0  0
   -2.1057    0.9586    0.0000 C   0  0  0  0  0  0  0  0  0  0  0  0
   -2.8202    1.3711    0.0000 C   0  0  0  0  0  0  0  0  0  0  0  0
   -2.8202    2.1961    0.0000 C   0  0  0  0  0  0  0  0  0  0  0  0
   -2.1057    2.6086    0.0000 C   0  0  0  0  0  0  0  0  0  0  0  0
   -1.3912    2.1961    0.0000 C   0  0  0  0  0  0  0  0  0  0  0  0
    0.7522   -1.5164    0.0000 O   0  0  0  0  0  0  0  0  0  0  0  0
    1.4667   -1.1039    0.0000 C   0  0  0  0  0  0  0  0  0  0  0  0
    2.1811   -1.5164    0.0000 C   0  0  0  0  0  0  0  0  0  0  0  0
    2.8956   -1.1039    0.0000 N   0  0  0  0  0  0  0  0  0  0  0  0
    2.8956   -0.2789    0.0000 O   0  0  0  0  0  0  0  0  0  0  0  0
    3.6101   -1.5164    0.0000 C   0  0  0  0  0  0  0  0  0  0  0  0
    4.3245   -1.1039    0.0000 O   0  0  0  0  0  0  0  0  0  0  0  0
   -2.2849    0.2371    0.0000 H   0  0  0  0  0  0  0  0  0  0  0  0
    0.9314    0.2371    0.0000 H   0  0  0  0  0  0  0  0  0  0  0  0
   -0.6767   -2.5484    0.0000 H   0  0  0  0  0  0  0  0  0  0  0  0
   -2.2849   -1.6199    0.0000 H   0  0  0  0  0  0  0  0  0  0  0  0
   -2.1057   -0.0734    0.0000 H   0  0  0  0  0  0  0  0  0  0  0  0
   -3.7139    0.8551    0.0000 H   0  0  0  0  0  0  0  0  0  0  0  0
   -3.7139    2.7121    0.0000 H   0  0  0  0  0  0  0  0  0  0  0  0
   -2.1057    3.6406    0.0000 H   0  0  0  0  0  0  0  0  0  0  0  0
   -0.4975    2.7121    0.0000 H   0  0  0  0  0  0  0  0  0  0  0  0
    1.4667   -0.0339    0.0000 H   0  0  0  0  0  0  0  0  0  0  0  0
    2.3934   -0.5689    0.0000 H   0  0  0  0  0  0  0  0  0  0  0  0
    2.1811   -2.5864    0.0000 H   0  0  0  0  0  0  0  0  0  0  0  0
    3.1077   -2.0514    0.0000 H   0  0  0  0  0  0  0  0  0  0  0  0
    3.7356    0.2061    0.0000 H   0  0  0  0  0  0  0  0  0  0  0  0
    3.6101   -2.5484    0.0000 H   0  0  0  0  0  0  0  0  0  0  0  0
  1  2  1  0  0  0  0
  1  6  2  0  0  0  0
  1 22  1  0  0  0  0
  2  3  2  0  0  0  0
  2  7  1  0  0  0  0
  3  4  1  0  0  0  0
  3 23  1  0  0  0  0
  4  5  2  0  0  0  0
  4 15  1  0  0  0  0
  5  6  1  0  0  0  0
  5 24  1  0  0  0  0
  6 25  1  0  0  0  0
  7  8  2  0  0  0  0
  7  9  1  0  0  0  0
  9 10  1  0  0  0  0
  9 14  2  0  0  0  0
 10 11  2  0  0  0  0
 10 26  1  0  0  0  0
 11 12  1  0  0  0  0
 11 27  1  0  0  0  0
 12 13  2  0  0  0  0
 12 28  1  0  0  0  0
 13 14  1  0  0  0  0
 13 29  1  0  0  0  0
 14 30  1  0  0  0  0
 15 16  1  0  0  0  0
 16 17  1  0  0  0  0
 16 31  1  0  0  0  0
 16 32  1  0  0  0  0
 17 18  1  0  0  0  0
 17 33  1  0  0  0  0
 17 34  1  0  0  0  0
 18 19  1  0  0  0  0
 18 20  1  0  0  0  0
 19 35  1  0  0  0  0
 20 21  2  0  0  0  0
 20 36  1  0  0  0  0
M  END
>  <DRUGBANK_ID>
DB08524

>  <COMMON_NAME>
2-(3-BENZOYLPHENOXY)ETHYL(HYDROXY)FORMAMIDE

$$$$
