1280
 OpenBabel10282417072D

 36 38  0  0  1  0  0  0  0  0999 V2000
    4.7896    0.8142    0.0000 O   0  0  0  0  0  0  0  0  0  0  0  0
    6.7251   -0.0866    0.0000 O   0  0  0  0  0  0  0  0  0  0  0  0
    6.7282    1.7083    0.0000 O   0  0  0  0  0  0  0  0  0  0  0  0
    5.5752    2.8780    0.0000 O   0  0  0  0  0  0  0  0  0  0  0  0
    3.5220   -2.9522    0.0000 O   0  0  0  0  0  0  0  0  0  0  0  0
    5.0171   -0.6383    0.0000 N   0  0  0  0  0  0  0  0  0  0  0  0
    5.0171   -1.9662    0.0000 N   0  0  0  0  0  0  0  0  0  0  0  0
    3.5220   -0.4772    0.0000 N   0  0  0  0  0  0  0  0  0  0  0  0
    2.8075   -1.7147    0.0000 N   0  0  0  0  0  0  0  0  0  0  0  0
    2.0930   -0.4772    0.0000 N   0  0  0  0  0  0  0  0  0  0  0  0
    6.0585    0.3995    0.0000 C   0  0  2  0  0  0  0  0  0  0  0  0
    5.2734    0.1459    0.0000 C   0  0  1  0  0  0  0  0  0  0  0  0
    6.0599    1.2245    0.0000 C   0  0  1  0  0  0  0  0  0  0  0  0
    5.2757    1.4808    0.0000 C   0  0  1  0  0  0  0  0  0  0  0  0
    5.0221    2.2659    0.0000 C   0  0  0  0  0  0  0  0  0  0  0  0
    4.2365   -0.8897    0.0000 C   0  0  0  0  0  0  0  0  0  0  0  0
    5.4986   -1.3022    0.0000 C   0  0  0  0  0  0  0  0  0  0  0  0
    4.2365   -1.7147    0.0000 C   0  0  0  0  0  0  0  0  0  0  0  0
    3.5220   -2.1272    0.0000 C   0  0  0  0  0  0  0  0  0  0  0  0
    2.8075   -0.8897    0.0000 C   0  0  0  0  0  0  0  0  0  0  0  0
    2.8075   -3.3647    0.0000 C   0  0  0  0  0  0  0  0  0  0  0  0
    6.6220   -1.0511    0.0000 H   0  0  0  0  0  0  0  0  0  0  0  0
    7.6137    1.3122    0.0000 H   0  0  0  0  0  0  0  0  0  0  0  0
    6.5236    2.6746    0.0000 H   0  0  0  0  0  0  0  0  0  0  0  0
    2.0930    0.5073    0.0000 H   0  0  0  0  0  0  0  0  0  0  0  0
    1.2404   -0.9695    0.0000 H   0  0  0  0  0  0  0  0  0  0  0  0
    5.8893   -0.6570    0.0000 H   0  0  0  0  0  0  0  0  0  0  0  0
    4.2163   -0.0197    0.0000 H   0  0  0  0  0  0  0  0  0  0  0  0
    7.0124    0.7371    0.0000 H   0  0  0  0  0  0  0  0  0  0  0  0
    4.2192    1.6500    0.0000 H   0  0  0  0  0  0  0  0  0  0  0  0
    3.9759    2.4902    0.0000 H   0  0  0  0  0  0  0  0  0  0  0  0
    4.3048    1.4720    0.0000 H   0  0  0  0  0  0  0  0  0  0  0  0
    6.5306   -1.3022    0.0000 H   0  0  0  0  0  0  0  0  0  0  0  0
    1.8809   -2.8297    0.0000 H   0  0  0  0  0  0  0  0  0  0  0  0
    2.8075   -4.4347    0.0000 H   0  0  0  0  0  0  0  0  0  0  0  0
    1.8808   -3.8997    0.0000 H   0  0  0  0  0  0  0  0  0  0  0  0
  1 12  1  0  0  0  0
  1 14  1  0  0  0  0
  2 22  1  0  0  0  0
  3 23  1  0  0  0  0
  4 15  1  0  0  0  0
  4 24  1  0  0  0  0
  5 19  1  0  0  0  0
  5 21  1  0  0  0  0
  6 16  1  0  0  0  0
  6 17  1  0  0  0  0
  7 17  2  0  0  0  0
  7 18  1  0  0  0  0
  8 16  1  0  0  0  0
  8 20  2  0  0  0  0
  9 19  2  0  0  0  0
  9 20  1  0  0  0  0
 10 20  1  0  0  0  0
 10 25  1  0  0  0  0
 10 26  1  0  0  0  0
 11  2  1  0  0  0  0
 11 12  1  0  0  0  0
 11 13  1  0  0  0  0
 11 27  1  1  0  0  0
 12  6  1  0  0  0  0
 12 28  1  1  0  0  0
 13  3  1  0  0  0  0
 13 14  1  0  0  0  0
 13 29  1  6  0  0  0
 14 15  1  0  0  0  0
 14 30  1  1  0  0  0
 15 31  1  0  0  0  0
 15 32  1  0  0  0  0
 16 18  2  0  0  0  0
 17 33  1  0  0  0  0
 18 19  1  0  0  0  0
 21 34  1  0  0  0  0
 21 35  1  0  0  0  0
 21 36  1  0  0  0  0
M  END
>  <DRUGBANK_ID>
DB01280

>  <COMMON_NAME>
Nelarabine

>  <CAS_NUMBER>
121032-29-9

>  <UNII>
60158CV180

>  <SYNONYMS>
2-Amino-9-beta-D-arabinofuranosyl-6-methoxy-9H-purine; Nelarabina; Nelarabine; Nelzarabine

$$$$
