
 OpenBabel10282417072D

 52 54  0  0  0  0  0  0  0  0999 V2000
   -0.4768   -3.8121    0.0000 C   0  0  0  0  0  0  0  0  0  0  0  0
   -0.3053   -3.0051    0.0000 N   0  0  0  0  0  0  0  0  0  0  0  0
   -0.9184   -2.4531    0.0000 C   0  0  0  0  0  0  0  0  0  0  0  0
    0.4793   -2.7502    0.0000 C   0  0  0  0  0  0  0  0  0  0  0  0
    0.6508   -1.9432    0.0000 C   0  0  0  0  0  0  0  0  0  0  0  0
    0.0988   -1.3301    0.0000 C   0  0  0  0  0  0  0  0  0  0  0  0
   -0.7262   -1.3301    0.0000 C   0  0  0  0  0  0  0  0  0  0  0  0
   -1.1387   -0.6157    0.0000 C   0  0  0  0  0  0  0  0  0  0  0  0
   -0.7262    0.0988    0.0000 C   0  0  0  0  0  0  0  0  0  0  0  0
    0.0988    0.0988    0.0000 C   0  0  0  0  0  0  0  0  0  0  0  0
    0.5113   -0.6157    0.0000 C   0  0  0  0  0  0  0  0  0  0  0  0
    1.3183   -0.7872    0.0000 O   0  0  0  0  0  0  0  0  0  0  0  0
    1.4045   -1.6077    0.0000 C   0  0  0  0  0  0  0  0  0  0  0  0
    2.1190   -2.0202    0.0000 C   0  0  0  0  0  0  0  0  0  0  0  0
    2.8334   -1.6077    0.0000 O   0  0  0  0  0  0  0  0  0  0  0  0
    2.1190   -2.8452    0.0000 N   0  0  0  0  0  0  0  0  0  0  0  0
    2.8334   -3.2577    0.0000 C   0  0  0  0  0  0  0  0  0  0  0  0
    3.5479   -2.8452    0.0000 C   0  0  0  0  0  0  0  0  0  0  0  0
    3.5479   -2.0202    0.0000 O   0  0  0  0  0  0  0  0  0  0  0  0
    4.2624   -1.6077    0.0000 C   0  0  0  0  0  0  0  0  0  0  0  0
    4.2624   -0.7827    0.0000 C   0  0  0  0  0  0  0  0  0  0  0  0
    4.9769   -0.3702    0.0000 C   0  0  0  0  0  0  0  0  0  0  0  0
    5.6913   -0.7827    0.0000 C   0  0  0  0  0  0  0  0  0  0  0  0
    5.6913   -1.6077    0.0000 C   0  0  0  0  0  0  0  0  0  0  0  0
    4.9769   -2.0202    0.0000 C   0  0  0  0  0  0  0  0  0  0  0  0
    6.4058   -0.3702    0.0000 C   0  0  0  0  0  0  0  0  0  0  0  0
    6.4058    0.4548    0.0000 O   0  0  0  0  0  0  0  0  0  0  0  0
    7.1203   -0.7827    0.0000 N   0  0  0  0  0  0  0  0  0  0  0  0
    7.8347   -0.3702    0.0000 O   0  0  0  0  0  0  0  0  0  0  0  0
   -1.4944   -4.1428    0.0000 H   0  0  0  0  0  0  0  0  0  0  0  0
    0.3184   -4.5280    0.0000 H   0  0  0  0  0  0  0  0  0  0  0  0
   -0.6992   -4.8587    0.0000 H   0  0  0  0  0  0  0  0  0  0  0  0
   -0.6960   -1.4065    0.0000 H   0  0  0  0  0  0  0  0  0  0  0  0
   -1.9360   -2.7838    0.0000 H   0  0  0  0  0  0  0  0  0  0  0  0
   -1.7136   -1.7372    0.0000 H   0  0  0  0  0  0  0  0  0  0  0  0
    1.2745   -3.4662    0.0000 H   0  0  0  0  0  0  0  0  0  0  0  0
    1.4969   -2.4195    0.0000 H   0  0  0  0  0  0  0  0  0  0  0  0
   -1.2422   -2.2238    0.0000 H   0  0  0  0  0  0  0  0  0  0  0  0
   -2.1707   -0.6157    0.0000 H   0  0  0  0  0  0  0  0  0  0  0  0
   -1.2422    0.9925    0.0000 H   0  0  0  0  0  0  0  0  0  0  0  0
    0.6148    0.9925    0.0000 H   0  0  0  0  0  0  0  0  0  0  0  0
    1.2664   -3.3374    0.0000 H   0  0  0  0  0  0  0  0  0  0  0  0
    2.8334   -4.3277    0.0000 H   0  0  0  0  0  0  0  0  0  0  0  0
    3.7600   -3.7927    0.0000 H   0  0  0  0  0  0  0  0  0  0  0  0
    4.4745   -3.3802    0.0000 H   0  0  0  0  0  0  0  0  0  0  0  0
    4.4745   -2.3102    0.0000 H   0  0  0  0  0  0  0  0  0  0  0  0
    3.3687   -0.2667    0.0000 H   0  0  0  0  0  0  0  0  0  0  0  0
    4.9769    0.6618    0.0000 H   0  0  0  0  0  0  0  0  0  0  0  0
    6.5850   -2.1237    0.0000 H   0  0  0  0  0  0  0  0  0  0  0  0
    4.9769   -3.0522    0.0000 H   0  0  0  0  0  0  0  0  0  0  0  0
    7.1203   -1.7672    0.0000 H   0  0  0  0  0  0  0  0  0  0  0  0
    8.6748   -0.8552    0.0000 H   0  0  0  0  0  0  0  0  0  0  0  0
  1  2  1  0  0  0  0
  1 30  1  0  0  0  0
  1 31  1  0  0  0  0
  1 32  1  0  0  0  0
  2  3  1  0  0  0  0
  2  4  1  0  0  0  0
  3 33  1  0  0  0  0
  3 34  1  0  0  0  0
  3 35  1  0  0  0  0
  4  5  1  0  0  0  0
  4 36  1  0  0  0  0
  4 37  1  0  0  0  0
  5  6  1  0  0  0  0
  5 13  2  0  0  0  0
  6  7  2  0  0  0  0
  6 11  1  0  0  0  0
  7  8  1  0  0  0  0
  7 38  1  0  0  0  0
  8  9  2  0  0  0  0
  8 39  1  0  0  0  0
  9 10  1  0  0  0  0
  9 40  1  0  0  0  0
 10 11  2  0  0  0  0
 10 41  1  0  0  0  0
 11 12  1  0  0  0  0
 12 13  1  0  0  0  0
 13 14  1  0  0  0  0
 14 15  2  0  0  0  0
 14 16  1  0  0  0  0
 16 17  1  0  0  0  0
 16 42  1  0  0  0  0
 17 18  1  0  0  0  0
 17 43  1  0  0  0  0
 17 44  1  0  0  0  0
 18 19  1  0  0  0  0
 18 45  1  0  0  0  0
 18 46  1  0  0  0  0
 19 20  1  0  0  0  0
 20 21  2  0  0  0  0
 20 25  1  0  0  0  0
 21 22  1  0  0  0  0
 21 47  1  0  0  0  0
 22 23  2  0  0  0  0
 22 48  1  0  0  0  0
 23 24  1  0  0  0  0
 23 26  1  0  0  0  0
 24 25  2  0  0  0  0
 24 49  1  0  0  0  0
 25 50  1  0  0  0  0
 26 27  2  0  0  0  0
 26 28  1  0  0  0  0
 28 29  1  0  0  0  0
 28 51  1  0  0  0  0
 29 52  1  0  0  0  0
M  END
>  <DRUGBANK_ID>
DB12565

>  <SECONDARY_ACCESSION_NUMBERS>
DB05921

>  <COMMON_NAME>
Abexinostat

>  <CAS_NUMBER>
783355-60-2

>  <UNII>
IYO470654U

>  <SYNONYMS>
Abexinostat

$$$$
