ROL
 OpenBabel10282417072D

 41 43  0  0  0  0  0  0  0  0999 V2000
    0.3291   -1.2506    0.0000 C   0  0  0  0  0  0  0  0  0  0  0  0
   -0.3853   -0.8381    0.0000 C   0  0  0  0  0  0  0  0  0  0  0  0
   -0.3853   -0.0131    0.0000 C   0  0  0  0  0  0  0  0  0  0  0  0
    0.3291    0.3994    0.0000 C   0  0  0  0  0  0  0  0  0  0  0  0
    1.0436   -0.0131    0.0000 C   0  0  0  0  0  0  0  0  0  0  0  0
    1.0436   -0.8381    0.0000 C   0  0  0  0  0  0  0  0  0  0  0  0
    0.3291   -2.0756    0.0000 C   0  0  1  0  0  0  0  0  0  0  0  0
    0.9966   -2.5606    0.0000 C   0  0  0  0  0  0  0  0  0  0  0  0
    0.7416   -3.3452    0.0000 C   0  0  0  0  0  0  0  0  0  0  0  0
    1.2266   -4.0126    0.0000 O   0  0  0  0  0  0  0  0  0  0  0  0
   -0.0834   -3.3452    0.0000 N   0  0  0  0  0  0  0  0  0  0  0  0
   -0.3383   -2.5606    0.0000 C   0  0  0  0  0  0  0  0  0  0  0  0
   -1.0998    0.3994    0.0000 O   0  0  0  0  0  0  0  0  0  0  0  0
   -1.0998    1.2244    0.0000 C   0  0  0  0  0  0  0  0  0  0  0  0
   -1.7672    1.7093    0.0000 C   0  0  0  0  0  0  0  0  0  0  0  0
   -1.5123    2.4939    0.0000 C   0  0  0  0  0  0  0  0  0  0  0  0
   -0.6873    2.4939    0.0000 C   0  0  0  0  0  0  0  0  0  0  0  0
   -0.4324    1.7093    0.0000 C   0  0  0  0  0  0  0  0  0  0  0  0
    0.3291    1.2244    0.0000 O   0  0  0  0  0  0  0  0  0  0  0  0
    1.0436    1.6369    0.0000 C   0  0  0  0  0  0  0  0  0  0  0  0
    0.8494   -1.8105    0.0000 H   0  0  0  0  0  0  0  0  0  0  0  0
   -1.2790   -1.3541    0.0000 H   0  0  0  0  0  0  0  0  0  0  0  0
    1.9373    0.5029    0.0000 H   0  0  0  0  0  0  0  0  0  0  0  0
    1.9373   -1.3541    0.0000 H   0  0  0  0  0  0  0  0  0  0  0  0
    2.0142   -2.2300    0.0000 H   0  0  0  0  0  0  0  0  0  0  0  0
    1.7532   -3.3173    0.0000 H   0  0  0  0  0  0  0  0  0  0  0  0
   -0.6621   -4.1417    0.0000 H   0  0  0  0  0  0  0  0  0  0  0  0
   -1.3559   -2.2300    0.0000 H   0  0  0  0  0  0  0  0  0  0  0  0
   -1.0949   -3.3172    0.0000 H   0  0  0  0  0  0  0  0  0  0  0  0
   -1.0998    2.2944    0.0000 H   0  0  0  0  0  0  0  0  0  0  0  0
   -2.7848    1.3786    0.0000 H   0  0  0  0  0  0  0  0  0  0  0  0
   -2.5238    2.4659    0.0000 H   0  0  0  0  0  0  0  0  0  0  0  0
   -2.1412    3.3595    0.0000 H   0  0  0  0  0  0  0  0  0  0  0  0
   -1.0265    3.4473    0.0000 H   0  0  0  0  0  0  0  0  0  0  0  0
   -0.0584    3.3595    0.0000 H   0  0  0  0  0  0  0  0  0  0  0  0
    0.3695    2.3265    0.0000 H   0  0  0  0  0  0  0  0  0  0  0  0
    0.5852    1.3786    0.0000 H   0  0  0  0  0  0  0  0  0  0  0  0
    0.3242    2.4659    0.0000 H   0  0  0  0  0  0  0  0  0  0  0  0
    1.9702    1.1019    0.0000 H   0  0  0  0  0  0  0  0  0  0  0  0
    1.0436    2.7069    0.0000 H   0  0  0  0  0  0  0  0  0  0  0  0
    1.9703    2.1719    0.0000 H   0  0  0  0  0  0  0  0  0  0  0  0
  1  2  2  0  0  0  0
  1  6  1  0  0  0  0
  2  3  1  0  0  0  0
  2 22  1  0  0  0  0
  3  4  2  0  0  0  0
  3 13  1  0  0  0  0
  4  5  1  0  0  0  0
  4 19  1  0  0  0  0
  5  6  2  0  0  0  0
  5 23  1  0  0  0  0
  6 24  1  0  0  0  0
  7  1  1  0  0  0  0
  7  8  1  0  0  0  0
  7 12  1  0  0  0  0
  7 21  1  6  0  0  0
  8  9  1  0  0  0  0
  8 25  1  0  0  0  0
  8 26  1  0  0  0  0
  9 10  2  0  0  0  0
  9 11  1  0  0  0  0
 11 12  1  0  0  0  0
 11 27  1  0  0  0  0
 12 28  1  0  0  0  0
 12 29  1  0  0  0  0
 13 14  1  0  0  0  0
 14 15  1  0  0  0  0
 14 18  1  0  0  0  0
 14 30  1  0  0  0  0
 15 16  1  0  0  0  0
 15 31  1  0  0  0  0
 15 32  1  0  0  0  0
 16 17  1  0  0  0  0
 16 33  1  0  0  0  0
 16 34  1  0  0  0  0
 17 18  1  0  0  0  0
 17 35  1  0  0  0  0
 17 36  1  0  0  0  0
 18 37  1  0  0  0  0
 18 38  1  0  0  0  0
 19 20  1  0  0  0  0
 20 39  1  0  0  0  0
 20 40  1  0  0  0  0
 20 41  1  0  0  0  0
M  END
>  <DRUGBANK_ID>
DB04149

>  <SECONDARY_ACCESSION_NUMBERS>
EXPT00228

>  <COMMON_NAME>
(R)-Rolipram

>  <CAS_NUMBER>
85416-75-7

>  <UNII>
DPX51KUP08

>  <SYNONYMS>
(−)-rolipram; (R)-(-)-rolipram; (R)-(−)-rolipram; (R)-4-(3-Cyclopentyloxy-4-methoxy-phenyl)-pyrrolidin-2-one; R-rolipram

$$$$
