
 OpenBabel10282417072D

 78 69  0  0  1  0  0  0  0  0999 V2000
    5.9072  -16.0809    0.0000 Na  0  3  0  0  0  0  0  0  0  0  0  0
    9.4955  -20.2786    0.0000 Na  0  3  0  0  0  0  0  0  0  0  0  0
    2.5916  -20.2786    0.0000 Na  0  3  0  0  0  0  0  0  0  0  0  0
    5.2470  -17.8073    0.0000 Sb  0  0  0  0  0  0  0  0  0  0  0  0
    5.2470  -18.6323    0.0000 O   0  0  0  0  0  0  0  0  0  0  0  0
    4.5325  -17.3948    0.0000 O   0  0  0  0  0  0  0  0  0  0  0  0
    4.5325  -19.0448    0.0000 C   0  0  2  0  0  0  0  0  0  0  0  0
    3.8180  -17.8073    0.0000 C   0  0  1  0  0  0  0  0  0  0  0  0
    3.8180  -18.6323    0.0000 C   0  0  2  0  0  0  0  0  0  0  0  0
    4.4531  -18.0309    0.0000 O   0  0  0  0  0  0  0  0  0  0  0  0
    4.5326  -19.8698    0.0000 C   0  0  0  0  0  0  0  0  0  0  0  0
    3.8181  -20.2823    0.0000 O   0  5  0  0  0  0  0  0  0  0  0  0
    5.2470  -20.2822    0.0000 O   0  0  0  0  0  0  0  0  0  0  0  0
    3.1036  -17.3948    0.0000 C   0  0  2  0  0  0  0  0  0  0  0  0
    3.1036  -16.5697    0.0000 O   0  0  0  0  0  0  0  0  0  0  0  0
    2.3891  -17.8073    0.0000 C   0  0  0  0  0  0  0  0  0  0  0  0
    1.6746  -17.3948    0.0000 O   0  0  0  0  0  0  0  0  0  0  0  0
    3.1012  -19.0448    0.0000 H   0  0  0  0  0  0  0  0  0  0  0  0
    3.1012  -18.2198    0.0000 H   0  0  0  0  0  0  0  0  0  0  0  0
    5.9639  -17.4047    0.0000 O   0  0  0  0  0  0  0  0  0  0  0  0
    6.6808  -17.8073    0.0000 Sb  0  0  0  0  0  0  0  0  0  0  0  0
    6.6808  -18.6323    0.0000 O   0  0  0  0  0  0  0  0  0  0  0  0
    7.3953  -17.3948    0.0000 O   0  0  0  0  0  0  0  0  0  0  0  0
    7.3953  -19.0448    0.0000 C   0  0  2  0  0  0  0  0  0  0  0  0
    8.1098  -17.8073    0.0000 C   0  0  1  0  0  0  0  0  0  0  0  0
    8.1098  -18.6323    0.0000 C   0  0  2  0  0  0  0  0  0  0  0  0
    7.4748  -18.0309    0.0000 O   0  0  0  0  0  0  0  0  0  0  0  0
    7.3952  -19.8698    0.0000 C   0  0  0  0  0  0  0  0  0  0  0  0
    8.1097  -20.2823    0.0000 O   0  5  0  0  0  0  0  0  0  0  0  0
    6.6808  -20.2822    0.0000 O   0  0  0  0  0  0  0  0  0  0  0  0
    8.8242  -17.3948    0.0000 C   0  0  2  0  0  0  0  0  0  0  0  0
    8.8242  -16.5697    0.0000 O   0  0  0  0  0  0  0  0  0  0  0  0
    9.5387  -17.8073    0.0000 C   0  0  0  0  0  0  0  0  0  0  0  0
   10.2532  -17.3948    0.0000 O   0  0  0  0  0  0  0  0  0  0  0  0
    8.8266  -19.0448    0.0000 H   0  0  0  0  0  0  0  0  0  0  0  0
    8.8266  -18.2198    0.0000 H   0  0  0  0  0  0  0  0  0  0  0  0
    5.2482  -16.9872    0.0000 O   0  0  0  0  0  0  0  0  0  0  0  0
    6.6796  -16.9872    0.0000 O   0  5  0  0  0  0  0  0  0  0  0  0
    6.1658  -21.4869    0.0000 O   0  0  0  0  0  0  0  0  0  0  0  0
    6.1734  -22.1550    0.0000 O   0  0  0  0  0  0  0  0  0  0  0  0
    6.1658  -22.7994    0.0000 O   0  0  0  0  0  0  0  0  0  0  0  0
    8.4520  -21.4869    0.0000 O   0  0  0  0  0  0  0  0  0  0  0  0
    8.4596  -22.1550    0.0000 O   0  0  0  0  0  0  0  0  0  0  0  0
    8.4520  -22.7994    0.0000 O   0  0  0  0  0  0  0  0  0  0  0  0
    3.8995  -21.4869    0.0000 O   0  0  0  0  0  0  0  0  0  0  0  0
    3.9071  -22.1550    0.0000 O   0  0  0  0  0  0  0  0  0  0  0  0
    3.8995  -22.7994    0.0000 O   0  0  0  0  0  0  0  0  0  0  0  0
    5.4592  -19.5798    0.0000 H   0  0  0  0  0  0  0  0  0  0  0  0
    4.0303  -16.8598    0.0000 H   0  0  0  0  0  0  0  0  0  0  0  0
    3.9436  -16.0847    0.0000 H   0  0  0  0  0  0  0  0  0  0  0  0
    2.3891  -18.8773    0.0000 H   0  0  0  0  0  0  0  0  0  0  0  0
    1.4625  -18.3423    0.0000 H   0  0  0  0  0  0  0  0  0  0  0  0
    1.6746  -16.4248    0.0000 H   0  0  0  0  0  0  0  0  0  0  0  0
    6.4686  -19.5798    0.0000 H   0  0  0  0  0  0  0  0  0  0  0  0
    7.8975  -16.8598    0.0000 H   0  0  0  0  0  0  0  0  0  0  0  0
    9.6642  -16.0847    0.0000 H   0  0  0  0  0  0  0  0  0  0  0  0
    9.5387  -18.8773    0.0000 H   0  0  0  0  0  0  0  0  0  0  0  0
   10.4653  -18.3423    0.0000 H   0  0  0  0  0  0  0  0  0  0  0  0
   11.0932  -17.8798    0.0000 H   0  0  0  0  0  0  0  0  0  0  0  0
    6.0890  -16.5034    0.0000 H   0  0  0  0  0  0  0  0  0  0  0  0
    7.1358  -21.4869    0.0000 H   0  0  0  0  0  0  0  0  0  0  0  0
    5.6808  -20.6469    0.0000 H   0  0  0  0  0  0  0  0  0  0  0  0
    7.1434  -22.1550    0.0000 H   0  0  0  0  0  0  0  0  0  0  0  0
    5.6884  -21.3150    0.0000 H   0  0  0  0  0  0  0  0  0  0  0  0
    7.1358  -22.7994    0.0000 H   0  0  0  0  0  0  0  0  0  0  0  0
    5.6808  -21.9594    0.0000 H   0  0  0  0  0  0  0  0  0  0  0  0
    9.4220  -21.4869    0.0000 H   0  0  0  0  0  0  0  0  0  0  0  0
    7.9670  -20.6469    0.0000 H   0  0  0  0  0  0  0  0  0  0  0  0
    9.4296  -22.1550    0.0000 H   0  0  0  0  0  0  0  0  0  0  0  0
    7.9746  -21.3150    0.0000 H   0  0  0  0  0  0  0  0  0  0  0  0
    9.4220  -22.7994    0.0000 H   0  0  0  0  0  0  0  0  0  0  0  0
    7.9670  -21.9594    0.0000 H   0  0  0  0  0  0  0  0  0  0  0  0
    4.8695  -21.4869    0.0000 H   0  0  0  0  0  0  0  0  0  0  0  0
    3.4145  -20.6469    0.0000 H   0  0  0  0  0  0  0  0  0  0  0  0
    4.8771  -22.1550    0.0000 H   0  0  0  0  0  0  0  0  0  0  0  0
    3.4221  -21.3150    0.0000 H   0  0  0  0  0  0  0  0  0  0  0  0
    4.8695  -22.7994    0.0000 H   0  0  0  0  0  0  0  0  0  0  0  0
    3.4145  -21.9594    0.0000 H   0  0  0  0  0  0  0  0  0  0  0  0
  4 10  1  0  0  0  0
  4 20  1  0  0  0  0
  4 37  1  0  0  0  0
  5  4  1  0  0  0  0
  6  4  1  0  0  0  0
  7  5  1  0  0  0  0
  7 11  1  0  0  0  0
  7 48  1  6  0  0  0
  8  6  1  0  0  0  0
  8 14  1  0  0  0  0
  8 19  1  6  0  0  0
  9  7  1  0  0  0  0
  9  8  1  0  0  0  0
  9 10  1  0  0  0  0
  9 18  1  1  0  0  0
 11 12  1  0  0  0  0
 11 13  2  0  0  0  0
 14 15  1  0  0  0  0
 14 16  1  0  0  0  0
 14 49  1  6  0  0  0
 15 50  1  0  0  0  0
 16 17  1  0  0  0  0
 16 51  1  0  0  0  0
 16 52  1  0  0  0  0
 17 53  1  0  0  0  0
 21 27  1  0  0  0  0
 21 20  1  0  0  0  0
 21 38  1  0  0  0  0
 22 21  1  0  0  0  0
 23 21  1  0  0  0  0
 24 22  1  0  0  0  0
 24 28  1  0  0  0  0
 24 54  1  1  0  0  0
 25 23  1  0  0  0  0
 25 31  1  0  0  0  0
 25 36  1  1  0  0  0
 26 24  1  0  0  0  0
 26 25  1  0  0  0  0
 26 27  1  0  0  0  0
 26 35  1  6  0  0  0
 28 29  1  0  0  0  0
 28 30  2  0  0  0  0
 31 32  1  0  0  0  0
 31 33  1  0  0  0  0
 31 55  1  1  0  0  0
 32 56  1  0  0  0  0
 33 34  1  0  0  0  0
 33 57  1  0  0  0  0
 33 58  1  0  0  0  0
 34 59  1  0  0  0  0
 37 60  1  0  0  0  0
 39 61  1  0  0  0  0
 39 62  1  0  0  0  0
 40 63  1  0  0  0  0
 40 64  1  0  0  0  0
 41 65  1  0  0  0  0
 41 66  1  0  0  0  0
 42 67  1  0  0  0  0
 42 68  1  0  0  0  0
 43 69  1  0  0  0  0
 43 70  1  0  0  0  0
 44 71  1  0  0  0  0
 44 72  1  0  0  0  0
 45 73  1  0  0  0  0
 45 74  1  0  0  0  0
 46 75  1  0  0  0  0
 46 76  1  0  0  0  0
 47 77  1  0  0  0  0
 47 78  1  0  0  0  0
M  CHG  6   1   1   2   1   3   1  12  -1  29  -1  38  -1
M  END
>  <DRUGBANK_ID>
DB05630

>  <COMMON_NAME>
Sodium stibogluconate

>  <CAS_NUMBER>
16037-91-5

>  <UNII>
APJ6285Y89

>  <SYNONYMS>
Antimony (V) derivative of sodium gluconate; Antimony sodium gluconate; Estibogluconato sodico; Myostibin; Natrii stibogluconas; Sodium stibogluconate; Stibanate; Stibanose; Stibatin; Stibinol; Stibogluconate de sodium

$$$$
