
 OpenBabel10282417072D

 30 32  0  0  0  0  0  0  0  0999 V2000
   -1.8659    0.8085    0.0000 C   0  0  0  0  0  0  0  0  0  0  0  0
    3.4990    4.4104    0.0000 C   0  0  0  0  0  0  0  0  0  0  0  0
    2.7845    4.8229    0.0000 C   0  0  0  0  0  0  0  0  0  0  0  0
    3.4990    3.5854    0.0000 C   0  0  0  0  0  0  0  0  0  0  0  0
    1.3556    0.6979    0.0000 C   0  0  0  0  0  0  0  0  0  0  0  0
    1.3556    2.3479    0.0000 C   0  0  0  0  0  0  0  0  0  0  0  0
    2.0701    4.4104    0.0000 C   0  0  0  0  0  0  0  0  0  0  0  0
    2.0701    1.1104    0.0000 C   0  0  0  0  0  0  0  0  0  0  0  0
    0.6411    1.1104    0.0000 C   0  0  0  0  0  0  0  0  0  0  0  0
    0.6411    1.9354    0.0000 C   0  0  0  0  0  0  0  0  0  0  0  0
    2.7845    3.1729    0.0000 C   0  0  0  0  0  0  0  0  0  0  0  0
    2.0701    1.9354    0.0000 C   0  0  0  0  0  0  0  0  0  0  0  0
    2.0701    3.5854    0.0000 C   0  0  0  0  0  0  0  0  0  0  0  0
   -0.6284    1.5229    0.0000 C   0  0  0  0  0  0  0  0  0  0  0  0
    1.3556    4.8229    0.0000 Cl  0  0  0  0  0  0  0  0  0  0  0  0
    2.7845    0.6979    0.0000 Cl  0  0  0  0  0  0  0  0  0  0  0  0
    1.3556    3.1729    0.0000 Cl  0  0  0  0  0  0  0  0  0  0  0  0
   -0.1435    0.8555    0.0000 N   0  0  0  0  0  0  0  0  0  0  0  0
   -0.1435    2.1904    0.0000 N   0  0  0  0  0  0  0  0  0  0  0  0
    2.7845    2.3479    0.0000 O   0  0  0  0  0  0  0  0  0  0  0  0
   -1.4534    1.5229    0.0000 S   0  0  0  0  0  0  0  0  0  0  0  0
   -2.9359    0.8085    0.0000 H   0  0  0  0  0  0  0  0  0  0  0  0
   -1.3309   -0.1182    0.0000 H   0  0  0  0  0  0  0  0  0  0  0  0
   -2.4009   -0.1181    0.0000 H   0  0  0  0  0  0  0  0  0  0  0  0
    4.3927    4.9264    0.0000 H   0  0  0  0  0  0  0  0  0  0  0  0
    2.7845    5.8549    0.0000 H   0  0  0  0  0  0  0  0  0  0  0  0
    4.3927    3.0694    0.0000 H   0  0  0  0  0  0  0  0  0  0  0  0
    1.3556   -0.3341    0.0000 H   0  0  0  0  0  0  0  0  0  0  0  0
    1.3556    3.3799    0.0000 H   0  0  0  0  0  0  0  0  0  0  0  0
   -0.4477   -0.0808    0.0000 H   0  0  0  0  0  0  0  0  0  0  0  0
  1 22  1  0  0  0  0
  1 23  1  0  0  0  0
  1 24  1  0  0  0  0
  2 25  1  0  0  0  0
  3  2  2  0  0  0  0
  3 26  1  0  0  0  0
  4  2  1  0  0  0  0
  4 27  1  0  0  0  0
  5 28  1  0  0  0  0
  6 29  1  0  0  0  0
  7  3  1  0  0  0  0
  8  5  2  0  0  0  0
  9  5  1  0  0  0  0
 10  6  1  0  0  0  0
 10  9  2  0  0  0  0
 11  4  2  0  0  0  0
 12  6  2  0  0  0  0
 12  8  1  0  0  0  0
 13  7  2  0  0  0  0
 13 11  1  0  0  0  0
 15  7  1  0  0  0  0
 16  8  1  0  0  0  0
 17 13  1  0  0  0  0
 18  9  1  0  0  0  0
 18 14  1  0  0  0  0
 18 30  1  0  0  0  0
 19 10  1  0  0  0  0
 19 14  2  0  0  0  0
 20 11  1  0  0  0  0
 20 12  1  0  0  0  0
 21  1  1  0  0  0  0
 21 14  1  0  0  0  0
M  END
>  <DRUGBANK_ID>
DB12245

>  <COMMON_NAME>
Triclabendazole

>  <CAS_NUMBER>
68786-66-3

>  <UNII>
4784C8E03O

>  <SYNONYMS>
Triclabendazole

$$$$
