
 OpenBabel10282417072D

 22 22  0  0  0  0  0  0  0  0999 V2000
    2.0198    0.8843    0.0000 C   0  0  0  0  0  0  0  0  0  0  0  0
    1.2352    0.6294    0.0000 N   0  0  0  0  0  0  0  0  0  0  0  0
    0.9803   -0.1553    0.0000 C   0  0  0  0  0  0  0  0  0  0  0  0
    1.4652   -0.8227    0.0000 O   0  0  0  0  0  0  0  0  0  0  0  0
    0.1553   -0.1553    0.0000 C   0  0  0  0  0  0  0  0  0  0  0  0
   -0.0997    0.6294    0.0000 C   0  0  0  0  0  0  0  0  0  0  0  0
    0.5678    1.1143    0.0000 C   0  0  0  0  0  0  0  0  0  0  0  0
    0.1628    1.8330    0.0000 C   0  0  0  0  0  0  0  0  0  0  0  0
    0.9728    1.8330    0.0000 C   0  0  0  0  0  0  0  0  0  0  0  0
    2.8149    0.1683    0.0000 H   0  0  0  0  0  0  0  0  0  0  0  0
    2.2423    1.9309    0.0000 H   0  0  0  0  0  0  0  0  0  0  0  0
    3.0374    1.2149    0.0000 H   0  0  0  0  0  0  0  0  0  0  0  0
   -0.4736   -1.0210    0.0000 H   0  0  0  0  0  0  0  0  0  0  0  0
   -0.9015    0.0121    0.0000 H   0  0  0  0  0  0  0  0  0  0  0  0
   -1.1173    0.9601    0.0000 H   0  0  0  0  0  0  0  0  0  0  0  0
   -0.2670    1.6862    0.0000 H   0  0  0  0  0  0  0  0  0  0  0  0
    0.7074    2.7540    0.0000 H   0  0  0  0  0  0  0  0  0  0  0  0
   -0.9071    1.8442    0.0000 H   0  0  0  0  0  0  0  0  0  0  0  0
   -0.3625    2.7652    0.0000 H   0  0  0  0  0  0  0  0  0  0  0  0
    2.0427    1.8442    0.0000 H   0  0  0  0  0  0  0  0  0  0  0  0
    0.4282    2.7540    0.0000 H   0  0  0  0  0  0  0  0  0  0  0  0
    1.4981    2.7652    0.0000 H   0  0  0  0  0  0  0  0  0  0  0  0
  1  2  1  0  0  0  0
  1 10  1  0  0  0  0
  1 11  1  0  0  0  0
  1 12  1  0  0  0  0
  2  3  1  0  0  0  0
  2  7  1  0  0  0  0
  3  4  2  0  0  0  0
  3  5  1  0  0  0  0
  5  6  1  0  0  0  0
  5 13  1  0  0  0  0
  5 14  1  0  0  0  0
  6  7  1  0  0  0  0
  6 15  1  0  0  0  0
  6 16  1  0  0  0  0
  7  8  1  0  0  0  0
  7  9  1  0  0  0  0
  8 17  1  0  0  0  0
  8 18  1  0  0  0  0
  8 19  1  0  0  0  0
  9 20  1  0  0  0  0
  9 21  1  0  0  0  0
  9 22  1  0  0  0  0
M  END
>  <DRUGBANK_ID>
DB03968

>  <SECONDARY_ACCESSION_NUMBERS>
EXPT01911

>  <COMMON_NAME>
1-Methyl-2-Oxy-5,5-Dimethyl Pyrrolidine

>  <UNII>
6BC49782CZ

$$$$
