
 OpenBabel10282417072D

176183  0  0  0  0  0  0  0  0999 V2000
    2.7600   -3.9314    0.0000 C   0  0  0  0  0  0  0  0  0  0  0  0
    2.7600   -4.7567    0.0000 C   0  0  0  0  0  0  0  0  0  0  0  0
    3.4763   -5.1778    0.0000 N   0  0  0  0  0  0  0  0  0  0  0  0
    6.6850   -3.2893    0.0000 C   0  0  0  0  0  0  0  0  0  0  0  0
    7.5061   -3.2893    0.0000 C   0  0  0  0  0  0  0  0  0  0  0  0
    7.7600   -2.5093    0.0000 C   0  0  0  0  0  0  0  0  0  0  0  0
    7.0955   -2.0241    0.0000 N   0  0  0  0  0  0  0  0  0  0  0  0
    6.4312   -2.5093    0.0000 C   0  0  2  0  0  0  0  0  0  0  0  0
   -8.4712   -1.3237    0.0000 C   0  0  0  0  0  0  0  0  0  0  0  0
   -8.4712   -2.1472    0.0000 C   0  0  0  0  0  0  0  0  0  0  0  0
   -7.7579   -2.5581    0.0000 C   0  0  0  0  0  0  0  0  0  0  0  0
   -7.7597   -0.9129    0.0000 C   0  0  0  0  0  0  0  0  0  0  0  0
   -7.0489   -1.3200    0.0000 C   0  0  0  0  0  0  0  0  0  0  0  0
   -7.0489   -2.1446    0.0000 C   0  0  0  0  0  0  0  0  0  0  0  0
   -5.6199   -2.1446    0.0000 C   0  0  0  0  0  0  0  0  0  0  0  0
   -5.6199   -1.3141    0.0000 C   0  0  0  0  0  0  0  0  0  0  0  0
   -6.3422   -0.9002    0.0000 N   0  0  0  0  0  0  0  0  0  0  0  0
   -4.9131   -2.5428    0.0000 C   0  0  0  0  0  0  0  0  0  0  0  0
   -4.2052   -2.1322    0.0000 C   0  0  1  0  0  0  0  0  0  0  0  0
   -3.4971   -2.5386    0.0000 N   0  0  0  0  0  0  0  0  0  0  0  0
   -2.7851   -2.1281    0.0000 C   0  0  0  0  0  0  0  0  0  0  0  0
   -2.0770   -2.5343    0.0000 C   0  0  1  0  0  0  0  0  0  0  0  0
   -1.3691   -2.1238    0.0000 N   0  0  0  0  0  0  0  0  0  0  0  0
   -0.6569   -2.5302    0.0000 C   0  0  0  0  0  0  0  0  0  0  0  0
    0.0509   -2.1196    0.0000 C   0  0  1  0  0  0  0  0  0  0  0  0
    0.7590   -2.5261    0.0000 N   0  0  0  0  0  0  0  0  0  0  0  0
    1.4669   -2.1156    0.0000 C   0  0  0  0  0  0  0  0  0  0  0  0
    2.1791   -2.5219    0.0000 C   0  0  1  0  0  0  0  0  0  0  0  0
    2.8870   -2.1113    0.0000 N   0  0  0  0  0  0  0  0  0  0  0  0
    3.5950   -2.5177    0.0000 C   0  0  0  0  0  0  0  0  0  0  0  0
    4.3072   -2.1071    0.0000 C   0  0  1  0  0  0  0  0  0  0  0  0
    5.0151   -2.5135    0.0000 N   0  0  0  0  0  0  0  0  0  0  0  0
    5.7231   -2.1030    0.0000 C   0  0  0  0  0  0  0  0  0  0  0  0
   -2.7851   -1.3069    0.0000 O   0  0  0  0  0  0  0  0  0  0  0  0
   -0.6569   -3.3512    0.0000 O   0  0  0  0  0  0  0  0  0  0  0  0
    1.4669   -1.2945    0.0000 O   0  0  0  0  0  0  0  0  0  0  0  0
    3.5950   -3.3387    0.0000 O   0  0  0  0  0  0  0  0  0  0  0  0
    5.7231   -1.2819    0.0000 O   0  0  0  0  0  0  0  0  0  0  0  0
    8.4712   -2.0945    0.0000 O   0  0  0  0  0  0  0  0  0  0  0  0
   -2.0770   -3.3555    0.0000 C   0  0  0  0  0  0  0  0  0  0  0  0
    2.1791   -3.3430    0.0000 C   0  0  0  0  0  0  0  0  0  0  0  0
   -4.2052   -1.3112    0.0000 C   0  0  0  0  0  0  0  0  0  0  0  0
    0.0509   -1.2987    0.0000 C   0  0  0  0  0  0  0  0  0  0  0  0
    4.3072   -1.2861    0.0000 C   0  0  0  0  0  0  0  0  0  0  0  0
   -4.9215   -0.9006    0.0000 O   0  0  0  0  0  0  0  0  0  0  0  0
   -3.5014   -0.8964    0.0000 N   0  0  0  0  0  0  0  0  0  0  0  0
   -3.5014    0.3518    0.0000 C   0  0  1  0  0  0  0  0  0  0  0  0
   -4.2178    0.7623    0.0000 C   0  0  0  0  0  0  0  0  0  0  0  0
   -4.2178    1.5834    0.0000 C   0  0  0  0  0  0  0  0  0  0  0  0
   -4.9298    1.9939    0.0000 C   0  0  0  0  0  0  0  0  0  0  0  0
   -3.5097    1.9982    0.0000 C   0  0  0  0  0  0  0  0  0  0  0  0
   -1.7795    0.7917    0.0000 C   0  0  0  0  0  0  0  0  0  0  0  0
   -0.8370    0.4106    0.0000 O   0  0  0  0  0  0  0  0  0  0  0  0
   -1.7795    2.0778    0.0000 N   0  0  0  0  0  0  0  0  0  0  0  0
   -2.8018   -3.7660    0.0000 C   0  0  0  0  0  0  0  0  0  0  0  0
   -3.5172   -3.3443    0.0000 C   0  0  0  0  0  0  0  0  0  0  0  0
   -4.2424   -3.7543    0.0000 C   0  0  0  0  0  0  0  0  0  0  0  0
   -4.2424   -4.5844    0.0000 C   0  0  0  0  0  0  0  0  0  0  0  0
   -3.5215   -5.0030    0.0000 C   0  0  0  0  0  0  0  0  0  0  0  0
   -2.8018   -4.5907    0.0000 C   0  0  0  0  0  0  0  0  0  0  0  0
   -4.9635   -4.9935    0.0000 O   0  0  0  0  0  0  0  0  0  0  0  0
    4.1917   -3.9314    0.0000 C   0  0  0  0  0  0  0  0  0  0  0  0
    4.1917   -4.7570    0.0000 C   0  0  0  0  0  0  0  0  0  0  0  0
    4.8989   -5.1718    0.0000 C   0  0  0  0  0  0  0  0  0  0  0  0
    5.6154   -4.7623    0.0000 C   0  0  0  0  0  0  0  0  0  0  0  0
    5.6154   -3.9335    0.0000 C   0  0  0  0  0  0  0  0  0  0  0  0
    4.9036   -3.5225    0.0000 C   0  0  0  0  0  0  0  0  0  0  0  0
    1.6485    3.4751    0.0000 C   0  0  0  0  0  0  0  0  0  0  0  0
    0.8191    3.4751    0.0000 C   0  0  0  0  0  0  0  0  0  0  0  0
    0.5620    2.6852    0.0000 N   0  0  0  0  0  0  0  0  0  0  0  0
    1.2357    2.1969    0.0000 C   0  0  1  0  0  0  0  0  0  0  0  0
    1.9036    2.6872    0.0000 C   0  0  0  0  0  0  0  0  0  0  0  0
   -0.8706    2.6810    0.0000 C   0  0  2  0  0  0  0  0  0  0  0  0
   -0.1542    2.2663    0.0000 C   0  0  0  0  0  0  0  0  0  0  0  0
   -0.1542    1.4368    0.0000 O   0  0  0  0  0  0  0  0  0  0  0  0
   -0.8706    3.5105    0.0000 C   0  0  0  0  0  0  0  0  0  0  0  0
   -1.5953    3.9253    0.0000 C   0  0  0  0  0  0  0  0  0  0  0  0
    1.2357    1.3698    0.0000 C   0  0  0  0  0  0  0  0  0  0  0  0
    0.5076    0.9593    0.0000 O   0  0  0  0  0  0  0  0  0  0  0  0
    1.9445    0.9551    0.0000 N   0  0  0  0  0  0  0  0  0  0  0  0
    2.6609    1.3740    0.0000 C   0  0  0  0  0  0  0  0  0  0  0  0
    3.3772    0.9593    0.0000 C   0  0  0  0  0  0  0  0  0  0  0  0
   -2.3158    3.5146    0.0000 C   0  0  0  0  0  0  0  0  0  0  0  0
   -3.0406    3.9294    0.0000 N   0  0  0  0  0  0  0  0  0  0  0  0
   -3.0406    4.7589    0.0000 C   0  0  0  0  0  0  0  0  0  0  0  0
   -3.7610    5.1736    0.0000 N   0  0  0  0  0  0  0  0  0  0  0  0
   -2.3242    5.1778    0.0000 N   0  0  0  0  0  0  0  0  0  0  0  0
    0.7632   -0.8797    0.0000 O   0  0  0  0  0  0  0  0  0  0  0  0
    5.8434   -3.0970    0.0000 H   0  0  0  0  0  0  0  0  0  0  0  0
    4.7229   -0.5662    0.0000 C   0  0  0  0  0  0  0  0  0  0  0  0
    5.5434   -0.6962    0.0000 N   0  0  0  0  0  0  0  0  0  0  0  0
    5.9207    0.0440    0.0000 C   0  0  0  0  0  0  0  0  0  0  0  0
    5.3332    0.6314    0.0000 N   0  0  0  0  0  0  0  0  0  0  0  0
    4.5929    0.2542    0.0000 C   0  0  0  0  0  0  0  0  0  0  0  0
    1.8642   -5.2692    0.0000 H   0  0  0  0  0  0  0  0  0  0  0  0
    3.4764   -6.1623    0.0000 H   0  0  0  0  0  0  0  0  0  0  0  0
    6.0563   -4.1551    0.0000 H   0  0  0  0  0  0  0  0  0  0  0  0
    7.1709   -4.2426    0.0000 H   0  0  0  0  0  0  0  0  0  0  0  0
    8.1348   -4.1551    0.0000 H   0  0  0  0  0  0  0  0  0  0  0  0
    8.5630   -3.1223    0.0000 H   0  0  0  0  0  0  0  0  0  0  0  0
    7.0954   -1.0396    0.0000 H   0  0  0  0  0  0  0  0  0  0  0  0
   -9.3649   -0.8077    0.0000 H   0  0  0  0  0  0  0  0  0  0  0  0
   -9.3647   -2.6636    0.0000 H   0  0  0  0  0  0  0  0  0  0  0  0
   -7.7551   -3.5901    0.0000 H   0  0  0  0  0  0  0  0  0  0  0  0
   -7.7615    0.1191    0.0000 H   0  0  0  0  0  0  0  0  0  0  0  0
   -4.7270   -0.7967    0.0000 H   0  0  0  0  0  0  0  0  0  0  0  0
   -6.3499    0.0843    0.0000 H   0  0  0  0  0  0  0  0  0  0  0  0
   -4.9064   -3.6128    0.0000 H   0  0  0  0  0  0  0  0  0  0  0  0
   -3.9842   -3.0740    0.0000 H   0  0  0  0  0  0  0  0  0  0  0  0
   -5.1324   -1.5981    0.0000 H   0  0  0  0  0  0  0  0  0  0  0  0
   -3.4961   -3.5231    0.0000 H   0  0  0  0  0  0  0  0  0  0  0  0
   -3.0029   -3.0706    0.0000 H   0  0  0  0  0  0  0  0  0  0  0  0
   -1.3725   -1.1393    0.0000 H   0  0  0  0  0  0  0  0  0  0  0  0
   -0.8763   -1.5856    0.0000 H   0  0  0  0  0  0  0  0  0  0  0  0
    0.7611   -3.5106    0.0000 H   0  0  0  0  0  0  0  0  0  0  0  0
    1.2538   -3.0593    0.0000 H   0  0  0  0  0  0  0  0  0  0  0  0
    2.8848   -1.1268    0.0000 H   0  0  0  0  0  0  0  0  0  0  0  0
    3.3807   -1.5718    0.0000 H   0  0  0  0  0  0  0  0  0  0  0  0
    5.0172   -3.4980    0.0000 H   0  0  0  0  0  0  0  0  0  0  0  0
   -1.1526   -3.8943    0.0000 H   0  0  0  0  0  0  0  0  0  0  0  0
   -1.1492   -2.8224    0.0000 H   0  0  0  0  0  0  0  0  0  0  0  0
    1.1892   -3.7493    0.0000 H   0  0  0  0  0  0  0  0  0  0  0  0
    1.2904   -2.7471    0.0000 H   0  0  0  0  0  0  0  0  0  0  0  0
   -0.8779   -0.7675    0.0000 H   0  0  0  0  0  0  0  0  0  0  0  0
    0.0444   -0.2287    0.0000 H   0  0  0  0  0  0  0  0  0  0  0  0
    3.2737   -1.0091    0.0000 H   0  0  0  0  0  0  0  0  0  0  0  0
    3.8978   -0.2975    0.0000 H   0  0  0  0  0  0  0  0  0  0  0  0
   -2.6466   -1.3848    0.0000 H   0  0  0  0  0  0  0  0  0  0  0  0
   -4.4272   -0.1847    0.0000 H   0  0  0  0  0  0  0  0  0  0  0  0
   -5.1436    0.2258    0.0000 H   0  0  0  0  0  0  0  0  0  0  0  0
   -5.1449    1.2965    0.0000 H   0  0  0  0  0  0  0  0  0  0  0  0
   -4.2215    2.6534    0.0000 H   0  0  0  0  0  0  0  0  0  0  0  0
   -4.9304    3.0639    0.0000 H   0  0  0  0  0  0  0  0  0  0  0  0
   -5.8561    1.4583    0.0000 H   0  0  0  0  0  0  0  0  0  0  0  0
   -5.8568    2.5283    0.0000 H   0  0  0  0  0  0  0  0  0  0  0  0
   -2.5797    1.4691    0.0000 H   0  0  0  0  0  0  0  0  0  0  0  0
   -3.5165    3.0682    0.0000 H   0  0  0  0  0  0  0  0  0  0  0  0
   -2.5864    2.5390    0.0000 H   0  0  0  0  0  0  0  0  0  0  0  0
   -2.6470    2.5432    0.0000 H   0  0  0  0  0  0  0  0  0  0  0  0
   -3.5079   -2.3123    0.0000 H   0  0  0  0  0  0  0  0  0  0  0  0
   -5.1338   -3.2343    0.0000 H   0  0  0  0  0  0  0  0  0  0  0  0
   -3.5245   -6.0350    0.0000 H   0  0  0  0  0  0  0  0  0  0  0  0
   -1.9089   -5.1082    0.0000 H   0  0  0  0  0  0  0  0  0  0  0  0
   -5.7714   -4.5189    0.0000 H   0  0  0  0  0  0  0  0  0  0  0  0
    4.8931   -6.2038    0.0000 H   0  0  0  0  0  0  0  0  0  0  0  0
    6.5080   -5.2803    0.0000 H   0  0  0  0  0  0  0  0  0  0  0  0
    6.5091   -3.4175    0.0000 H   0  0  0  0  0  0  0  0  0  0  0  0
    4.9048   -2.4905    0.0000 H   0  0  0  0  0  0  0  0  0  0  0  0
    2.2779    4.3404    0.0000 H   0  0  0  0  0  0  0  0  0  0  0  0
    2.7052    3.3069    0.0000 H   0  0  0  0  0  0  0  0  0  0  0  0
    0.1904    4.3409    0.0000 H   0  0  0  0  0  0  0  0  0  0  0  0
   -0.2378    3.3081    0.0000 H   0  0  0  0  0  0  0  0  0  0  0  0
    0.2826    1.7106    0.0000 H   0  0  0  0  0  0  0  0  0  0  0  0
    2.9219    2.3585    0.0000 H   0  0  0  0  0  0  0  0  0  0  0  0
    2.6599    3.4441    0.0000 H   0  0  0  0  0  0  0  0  0  0  0  0
    0.0564    3.2155    0.0000 H   0  0  0  0  0  0  0  0  0  0  0  0
    0.0550    4.0472    0.0000 H   0  0  0  0  0  0  0  0  0  0  0  0
   -0.8736    4.5805    0.0000 H   0  0  0  0  0  0  0  0  0  0  0  0
   -1.5944    4.9953    0.0000 H   0  0  0  0  0  0  0  0  0  0  0  0
   -2.5202    4.4633    0.0000 H   0  0  0  0  0  0  0  0  0  0  0  0
    1.9444   -0.0294    0.0000 H   0  0  0  0  0  0  0  0  0  0  0  0
    2.6586    2.4440    0.0000 H   0  0  0  0  0  0  0  0  0  0  0  0
    3.5873    1.9094    0.0000 H   0  0  0  0  0  0  0  0  0  0  0  0
    3.3759   -0.1107    0.0000 H   0  0  0  0  0  0  0  0  0  0  0  0
    4.3045    1.4932    0.0000 H   0  0  0  0  0  0  0  0  0  0  0  0
    4.3032    0.4232    0.0000 H   0  0  0  0  0  0  0  0  0  0  0  0
   -2.3167    2.4446    0.0000 H   0  0  0  0  0  0  0  0  0  0  0  0
   -3.2417    2.9782    0.0000 H   0  0  0  0  0  0  0  0  0  0  0  0
   -3.8923    3.4355    0.0000 H   0  0  0  0  0  0  0  0  0  0  0  0
   -3.7623    6.1581    0.0000 H   0  0  0  0  0  0  0  0  0  0  0  0
   -4.6130    4.6803    0.0000 H   0  0  0  0  0  0  0  0  0  0  0  0
   -1.4689    4.6903    0.0000 H   0  0  0  0  0  0  0  0  0  0  0  0
    1.6072   -1.3579    0.0000 H   0  0  0  0  0  0  0  0  0  0  0  0
    6.9400    0.2054    0.0000 H   0  0  0  0  0  0  0  0  0  0  0  0
    5.4872    1.6038    0.0000 H   0  0  0  0  0  0  0  0  0  0  0  0
    3.6734    0.7227    0.0000 H   0  0  0  0  0  0  0  0  0  0  0  0
  1  2  2  0  0  0  0
  2  3  1  0  0  0  0
  2 95  1  0  0  0  0
  3 63  1  0  0  0  0
  3 96  1  0  0  0  0
  4  5  1  0  0  0  0
  4 97  1  0  0  0  0
  4 98  1  0  0  0  0
  5  6  1  0  0  0  0
  5 99  1  0  0  0  0
  5100  1  0  0  0  0
  6  7  1  0  0  0  0
  6 39  2  0  0  0  0
  7  8  1  0  0  0  0
  7101  1  0  0  0  0
  8  4  1  0  0  0  0
  8 89  1  6  0  0  0
  9 10  2  0  0  0  0
  9102  1  0  0  0  0
 10 11  1  0  0  0  0
 10103  1  0  0  0  0
 11 14  2  0  0  0  0
 11104  1  0  0  0  0
 12  9  1  0  0  0  0
 12105  1  0  0  0  0
 13 12  2  0  0  0  0
 13 14  1  0  0  0  0
 14 15  1  0  0  0  0
 15 18  1  0  0  0  0
 15 16  2  0  0  0  0
 16 17  1  0  0  0  0
 16106  1  0  0  0  0
 17 13  1  0  0  0  0
 17107  1  0  0  0  0
 18 19  1  0  0  0  0
 18108  1  0  0  0  0
 18109  1  0  0  0  0
 19 42  1  0  0  0  0
 19 20  1  0  0  0  0
 19110  1  1  0  0  0
 20 21  1  0  0  0  0
 20111  1  0  0  0  0
 21 22  1  0  0  0  0
 21 34  2  0  0  0  0
 22 23  1  0  0  0  0
 22 40  1  0  0  0  0
 22112  1  6  0  0  0
 23 24  1  0  0  0  0
 23113  1  0  0  0  0
 24 25  1  0  0  0  0
 24 35  2  0  0  0  0
 25 43  1  0  0  0  0
 25 26  1  0  0  0  0
 25114  1  1  0  0  0
 26 27  1  0  0  0  0
 26115  1  0  0  0  0
 27 28  1  0  0  0  0
 27 36  2  0  0  0  0
 28 29  1  0  0  0  0
 28 41  1  0  0  0  0
 28116  1  6  0  0  0
 29 30  1  0  0  0  0
 29117  1  0  0  0  0
 30 31  1  0  0  0  0
 30 37  2  0  0  0  0
 31 44  1  0  0  0  0
 31 32  1  0  0  0  0
 31118  1  1  0  0  0
 32 33  1  0  0  0  0
 32119  1  0  0  0  0
 33  8  1  0  0  0  0
 33 38  2  0  0  0  0
 40 55  1  0  0  0  0
 40120  1  0  0  0  0
 40121  1  0  0  0  0
 41  1  1  0  0  0  0
 41122  1  0  0  0  0
 41123  1  0  0  0  0
 42 45  2  0  0  0  0
 42 46  1  0  0  0  0
 43 88  1  0  0  0  0
 43124  1  0  0  0  0
 43125  1  0  0  0  0
 44 90  1  0  0  0  0
 44126  1  0  0  0  0
 44127  1  0  0  0  0
 46 47  1  0  0  0  0
 46128  1  0  0  0  0
 47 48  1  0  0  0  0
 47 52  1  0  0  0  0
 47129  1  6  0  0  0
 48 49  1  0  0  0  0
 48130  1  0  0  0  0
 48131  1  0  0  0  0
 49 50  1  0  0  0  0
 49 51  1  0  0  0  0
 49132  1  0  0  0  0
 50133  1  0  0  0  0
 50134  1  0  0  0  0
 50135  1  0  0  0  0
 51136  1  0  0  0  0
 51137  1  0  0  0  0
 51138  1  0  0  0  0
 52 53  2  0  0  0  0
 52 54  1  0  0  0  0
 54 73  1  0  0  0  0
 54139  1  0  0  0  0
 55 56  2  0  0  0  0
 56 57  1  0  0  0  0
 56140  1  0  0  0  0
 57 58  2  0  0  0  0
 57141  1  0  0  0  0
 58 59  1  0  0  0  0
 58 61  1  0  0  0  0
 59 60  2  0  0  0  0
 59142  1  0  0  0  0
 60 55  1  0  0  0  0
 60143  1  0  0  0  0
 61144  1  0  0  0  0
 62 63  2  0  0  0  0
 62  1  1  0  0  0  0
 63 64  1  0  0  0  0
 64 65  2  0  0  0  0
 64145  1  0  0  0  0
 65 66  1  0  0  0  0
 65146  1  0  0  0  0
 66 67  2  0  0  0  0
 66147  1  0  0  0  0
 67 62  1  0  0  0  0
 67148  1  0  0  0  0
 68 69  1  0  0  0  0
 68149  1  0  0  0  0
 68150  1  0  0  0  0
 69 70  1  0  0  0  0
 69151  1  0  0  0  0
 69152  1  0  0  0  0
 70 71  1  0  0  0  0
 71 72  1  0  0  0  0
 71 78  1  0  0  0  0
 71153  1  6  0  0  0
 72 68  1  0  0  0  0
 72154  1  0  0  0  0
 72155  1  0  0  0  0
 73 74  1  0  0  0  0
 73 76  1  0  0  0  0
 73156  1  6  0  0  0
 74 70  1  0  0  0  0
 74 75  2  0  0  0  0
 76 77  1  0  0  0  0
 76157  1  0  0  0  0
 76158  1  0  0  0  0
 77 83  1  0  0  0  0
 77159  1  0  0  0  0
 77160  1  0  0  0  0
 78 79  2  0  0  0  0
 78 80  1  0  0  0  0
 80 81  1  0  0  0  0
 80161  1  0  0  0  0
 81 82  1  0  0  0  0
 81162  1  0  0  0  0
 81163  1  0  0  0  0
 82164  1  0  0  0  0
 82165  1  0  0  0  0
 82166  1  0  0  0  0
 83 84  1  0  0  0  0
 83167  1  0  0  0  0
 83168  1  0  0  0  0
 84 85  1  0  0  0  0
 84169  1  0  0  0  0
 85 86  1  0  0  0  0
 85 87  2  0  0  0  0
 86170  1  0  0  0  0
 86171  1  0  0  0  0
 87172  1  0  0  0  0
 88173  1  0  0  0  0
 90 94  2  0  0  0  0
 91 92  2  0  0  0  0
 91 90  1  0  0  0  0
 92 93  1  0  0  0  0
 92174  1  0  0  0  0
 93 94  1  0  0  0  0
 93175  1  0  0  0  0
 94176  1  0  0  0  0
M  END
>  <DRUGBANK_ID>
DB11510

>  <COMMON_NAME>
Deslorelin

>  <CAS_NUMBER>
57773-65-6

>  <UNII>
TKG3I66TVE

>  <SYNONYMS>
Deslorelin; Deslorelina; Desloreline; Deslorelinum

$$$$
