244
 OpenBabel10282417072D

 18 18  0  0  0  0  0  0  0  0999 V2000
    2.0930    0.2063    0.0000 O   0  0  0  0  0  0  0  0  0  0  0  0
    4.2365    1.4438    0.0000 O   0  0  0  0  0  0  0  0  0  0  0  0
    2.8075    1.4438    0.0000 O   0  0  0  0  0  0  0  0  0  0  0  0
    4.9509   -1.4438    0.0000 N   0  0  0  0  0  0  0  0  0  0  0  0
    3.5220    0.2063    0.0000 C   0  0  0  0  0  0  0  0  0  0  0  0
    4.2365   -1.0313    0.0000 C   0  0  0  0  0  0  0  0  0  0  0  0
    4.2365   -0.2063    0.0000 C   0  0  0  0  0  0  0  0  0  0  0  0
    2.8075   -0.2063    0.0000 C   0  0  0  0  0  0  0  0  0  0  0  0
    3.5220   -1.4438    0.0000 C   0  0  0  0  0  0  0  0  0  0  0  0
    2.8075   -1.0313    0.0000 C   0  0  0  0  0  0  0  0  0  0  0  0
    3.5220    1.0313    0.0000 C   0  0  0  0  0  0  0  0  0  0  0  0
    2.0931    1.1433    0.0000 H   0  0  0  0  0  0  0  0  0  0  0  0
    5.0480    0.9753    0.0000 H   0  0  0  0  0  0  0  0  0  0  0  0
    4.9509   -2.4283    0.0000 H   0  0  0  0  0  0  0  0  0  0  0  0
    5.8035   -0.9516    0.0000 H   0  0  0  0  0  0  0  0  0  0  0  0
    5.1303    0.3097    0.0000 H   0  0  0  0  0  0  0  0  0  0  0  0
    3.5220   -2.4758    0.0000 H   0  0  0  0  0  0  0  0  0  0  0  0
    1.9138   -1.5473    0.0000 H   0  0  0  0  0  0  0  0  0  0  0  0
  1  8  1  0  0  0  0
  1 12  1  0  0  0  0
  2 11  1  0  0  0  0
  2 13  1  0  0  0  0
  3 11  2  0  0  0  0
  4  6  1  0  0  0  0
  4 14  1  0  0  0  0
  4 15  1  0  0  0  0
  5  7  1  0  0  0  0
  5  8  2  0  0  0  0
  5 11  1  0  0  0  0
  6  7  2  0  0  0  0
  6  9  1  0  0  0  0
  7 16  1  0  0  0  0
  8 10  1  0  0  0  0
  9 10  2  0  0  0  0
  9 17  1  0  0  0  0
 10 18  1  0  0  0  0
M  END
>  <DRUGBANK_ID>
DB00244

>  <SECONDARY_ACCESSION_NUMBERS>
APRD01098; DB05376; DB06396

>  <COMMON_NAME>
Mesalazine

>  <CAS_NUMBER>
89-57-6

>  <UNII>
4Q81I59GXC

>  <SYNONYMS>
3-carboxy-4-hydroxyaniline; 5-aminosalicylic acid; 5-ASA; m-Aminosalicylic acid; Mesalamine; Mesalazina; MÃ©salazine; Mesalazine; Mesalazinum; p-Aminosalicylsaeure

$$$$
