
 OpenBabel10282417072D

 16 16  0  0  0  0  0  0  0  0999 V2000
    0.0000   -0.8235    0.0000 O   0  0  0  0  0  0  0  0  0  0  0  0
   -0.7122   -0.4092    0.0000 C   0  0  2  0  0  0  0  0  0  0  0  0
    0.7122   -0.4092    0.0000 C   0  0  0  0  0  0  0  0  0  0  0  0
   -0.7122    0.4158    0.0000 C   0  0  0  0  0  0  0  0  0  0  0  0
   -1.4278   -0.8235    0.0000 C   0  0  0  0  0  0  0  0  0  0  0  0
    0.7122    0.4158    0.0000 C   0  0  0  0  0  0  0  0  0  0  0  0
    1.4278   -0.8235    0.0000 O   0  0  0  0  0  0  0  0  0  0  0  0
    0.0000    0.8235    0.0000 C   0  0  0  0  0  0  0  0  0  0  0  0
   -0.7133   -1.4792    0.0000 H   0  0  0  0  0  0  0  0  0  0  0  0
   -1.6379    0.9525    0.0000 H   0  0  0  0  0  0  0  0  0  0  0  0
   -0.7092    1.4858    0.0000 H   0  0  0  0  0  0  0  0  0  0  0  0
   -2.3551   -0.2896    0.0000 H   0  0  0  0  0  0  0  0  0  0  0  0
   -1.4265   -1.8935    0.0000 H   0  0  0  0  0  0  0  0  0  0  0  0
   -2.3538   -1.3596    0.0000 H   0  0  0  0  0  0  0  0  0  0  0  0
    1.6050    0.9334    0.0000 H   0  0  0  0  0  0  0  0  0  0  0  0
    0.0000    1.8555    0.0000 H   0  0  0  0  0  0  0  0  0  0  0  0
  1  2  1  0  0  0  0
  1  3  1  0  0  0  0
  2  4  1  0  0  0  0
  2  5  1  0  0  0  0
  2  9  1  6  0  0  0
  3  6  1  0  0  0  0
  3  7  2  0  0  0  0
  4  8  1  0  0  0  0
  4 10  1  0  0  0  0
  4 11  1  0  0  0  0
  5 12  1  0  0  0  0
  5 13  1  0  0  0  0
  5 14  1  0  0  0  0
  6  8  2  0  0  0  0
  6 15  1  0  0  0  0
  8 16  1  0  0  0  0
M  END
>  <DRUGBANK_ID>
DB14121

>  <COMMON_NAME>
Parasorbic acid

>  <CAS_NUMBER>
10048-32-5

>  <UNII>
DCN48OUK3T

>  <SYNONYMS>
(+)-Parasorbinsaeure; (S)-(+)-5,6-Dihydro-6-methyl-2H-pyran-2-one; 2-Hexen-5,1-olide; 5-Hydroxy-2-hexenoic acid lactone; gamma-Hexenolactone; Parascorbic acid; Sorbic oil

$$$$
