ILF
 OpenBabel10282417072D

 40 42  0  0  0  0  0  0  0  0999 V2000
    0.3587    3.0662    0.0000 C   0  0  0  0  0  0  0  0  0  0  0  0
    1.0732    2.6537    0.0000 C   0  0  0  0  0  0  0  0  0  0  0  0
    1.0732    1.8287    0.0000 C   0  0  0  0  0  0  0  0  0  0  0  0
    0.3587    1.4162    0.0000 C   0  0  0  0  0  0  0  0  0  0  0  0
    0.3587    0.5912    0.0000 C   0  0  0  0  0  0  0  0  0  0  0  0
   -0.3557    1.8287    0.0000 C   0  0  0  0  0  0  0  0  0  0  0  0
   -0.3557    2.6537    0.0000 C   0  0  0  0  0  0  0  0  0  0  0  0
    1.0732    0.1787    0.0000 C   0  0  0  0  0  0  0  0  0  0  0  0
    1.0732   -0.6463    0.0000 C   0  0  0  0  0  0  0  0  0  0  0  0
    0.3587   -1.0588    0.0000 C   0  0  0  0  0  0  0  0  0  0  0  0
   -0.3557    0.1787    0.0000 C   0  0  0  0  0  0  0  0  0  0  0  0
   -0.3557   -2.2963    0.0000 C   0  0  0  0  0  0  0  0  0  0  0  0
   -0.3557   -3.1213    0.0000 C   0  0  0  0  0  0  0  0  0  0  0  0
    0.3117   -3.6062    0.0000 C   0  0  0  0  0  0  0  0  0  0  0  0
   -1.0232   -3.6062    0.0000 C   0  0  0  0  0  0  0  0  0  0  0  0
    1.7877    3.0662    0.0000 O   0  0  0  0  0  0  0  0  0  0  0  0
    1.7877    3.8912    0.0000 C   0  0  0  0  0  0  0  0  0  0  0  0
    1.7877    4.7162    0.0000 F   0  0  0  0  0  0  0  0  0  0  0  0
    0.9627    3.8912    0.0000 F   0  0  0  0  0  0  0  0  0  0  0  0
    2.6127    3.8912    0.0000 F   0  0  0  0  0  0  0  0  0  0  0  0
    1.7877   -1.0588    0.0000 F   0  0  0  0  0  0  0  0  0  0  0  0
    0.3587   -1.8838    0.0000 N   0  0  0  0  0  0  0  0  0  0  0  0
   -0.3557   -0.6463    0.0000 C   0  0  0  0  0  0  0  0  0  0  0  0
   -1.0702   -1.0588    0.0000 F   0  0  0  0  0  0  0  0  0  0  0  0
   -1.0702   -1.8838    0.0000 O   0  0  0  0  0  0  0  0  0  0  0  0
    0.0568   -4.3909    0.0000 C   0  0  0  0  0  0  0  0  0  0  0  0
   -0.7682   -4.3909    0.0000 S   0  0  0  0  0  0  0  0  0  0  0  0
   -1.8078   -3.3513    0.0000 C   0  0  0  0  0  0  0  0  0  0  0  0
   -2.4209   -3.9033    0.0000 O   0  0  0  0  0  0  0  0  0  0  0  0
   -1.9793   -2.5443    0.0000 O   0  0  0  0  0  0  0  0  0  0  0  0
    0.3587    4.0982    0.0000 H   0  0  0  0  0  0  0  0  0  0  0  0
    1.9669    1.3127    0.0000 H   0  0  0  0  0  0  0  0  0  0  0  0
   -1.2494    1.3127    0.0000 H   0  0  0  0  0  0  0  0  0  0  0  0
   -1.2494    3.1697    0.0000 H   0  0  0  0  0  0  0  0  0  0  0  0
    1.9669    0.6947    0.0000 H   0  0  0  0  0  0  0  0  0  0  0  0
   -1.2494    0.6947    0.0000 H   0  0  0  0  0  0  0  0  0  0  0  0
    1.2932   -3.2873    0.0000 H   0  0  0  0  0  0  0  0  0  0  0  0
    1.2113   -2.3760    0.0000 H   0  0  0  0  0  0  0  0  0  0  0  0
    0.6634   -5.2258    0.0000 H   0  0  0  0  0  0  0  0  0  0  0  0
   -3.3120   -3.6137    0.0000 H   0  0  0  0  0  0  0  0  0  0  0  0
  1  2  2  0  0  0  0
  1  7  1  0  0  0  0
  1 31  1  0  0  0  0
  2  3  1  0  0  0  0
  2 16  1  0  0  0  0
  3  4  2  0  0  0  0
  3 32  1  0  0  0  0
  4  5  1  0  0  0  0
  4  6  1  0  0  0  0
  5  8  2  0  0  0  0
  5 11  1  0  0  0  0
  6  7  2  0  0  0  0
  6 33  1  0  0  0  0
  7 34  1  0  0  0  0
  8  9  1  0  0  0  0
  8 35  1  0  0  0  0
  9 10  2  0  0  0  0
  9 21  1  0  0  0  0
 10 22  1  0  0  0  0
 10 23  1  0  0  0  0
 11 23  2  0  0  0  0
 11 36  1  0  0  0  0
 12 13  1  0  0  0  0
 12 22  1  0  0  0  0
 12 25  2  0  0  0  0
 13 14  1  0  0  0  0
 13 15  2  0  0  0  0
 14 26  2  0  0  0  0
 14 37  1  0  0  0  0
 15 27  1  0  0  0  0
 15 28  1  0  0  0  0
 16 17  1  0  0  0  0
 17 18  1  0  0  0  0
 17 19  1  0  0  0  0
 17 20  1  0  0  0  0
 22 38  1  0  0  0  0
 23 24  1  0  0  0  0
 26 27  1  0  0  0  0
 26 39  1  0  0  0  0
 28 29  1  0  0  0  0
 28 30  2  0  0  0  0
 29 40  1  0  0  0  0
M  END
>  <DRUGBANK_ID>
DB07977

>  <COMMON_NAME>
3-({[3,5-DIFLUORO-3'-(TRIFLUOROMETHOXY)BIPHENYL-4-YL]AMINO}CARBONYL)THIOPHENE-2-CARBOXYLIC ACID

$$$$
