
 OpenBabel10282417072D

100102  0  0  0  0  0  0  0  0999 V2000
   -0.0384    3.6598    0.0000 O   0  0  0  0  0  0  0  0  0  0  0  0
    1.8708    2.6018    0.0000 O   0  0  0  0  0  0  0  0  0  0  0  0
    2.0887    5.5684    0.0000 O   0  0  0  0  0  0  0  0  0  0  0  0
   -2.4985    5.3318    0.0000 O   0  0  0  0  0  0  0  0  0  0  0  0
   -1.9092    2.5353    0.0000 O   0  0  0  0  0  0  0  0  0  0  0  0
    3.4470    5.1245    0.0000 O   0  0  0  0  0  0  0  0  0  0  0  0
   -1.4349    6.2861    0.0000 O   0  0  0  0  0  0  0  0  0  0  0  0
    4.5873    1.7139    0.0000 O   0  0  0  0  0  0  0  0  0  0  0  0
    1.9091    0.4194    0.0000 O   0  0  0  0  0  0  0  0  0  0  0  0
    4.8820    0.3157    0.0000 O   0  0  0  0  0  0  0  0  0  0  0  0
   -4.5873    1.2407    0.0000 O   0  0  0  0  0  0  0  0  0  0  0  0
   -1.1236   -3.2996    0.0000 O   0  0  0  0  0  0  0  0  0  0  0  0
   -4.8820    2.6390    0.0000 O   0  0  0  0  0  0  0  0  0  0  0  0
   -2.9344   -0.6014    0.0000 O   0  0  0  0  0  0  0  0  0  0  0  0
   -1.8708    0.3529    0.0000 O   0  0  0  0  0  0  0  0  0  0  0  0
   -0.3330    5.0580    0.0000 N   0  0  0  0  0  0  0  0  0  0  0  0
    2.9344    3.5561    0.0000 N   0  0  0  0  0  0  0  0  0  0  0  0
    3.2674   -0.0245    0.0000 N   0  0  0  0  0  0  0  0  0  0  0  0
   -3.2674    2.9792    0.0000 N   0  0  0  0  0  0  0  0  0  0  0  0
    0.3714   -5.6135    0.0000 N   0  0  0  0  0  0  0  0  0  0  0  0
   -1.1236   -5.7746    0.0000 N   0  0  0  0  0  0  0  0  0  0  0  0
   -1.8381   -4.5371    0.0000 N   0  0  0  0  0  0  0  0  0  0  0  0
   -2.5526   -5.7746    0.0000 N   0  0  0  0  0  0  0  0  0  0  0  0
    1.5761    4.0000    0.0000 C   0  0  0  0  0  0  0  0  0  0  0  0
    2.3834    4.1701    0.0000 C   0  0  1  0  0  0  0  0  0  0  0  0
   -1.1403    4.8879    0.0000 C   0  0  1  0  0  0  0  0  0  0  0  0
   -1.3966    4.1037    0.0000 C   0  0  0  0  0  0  0  0  0  0  0  0
    1.0251    4.6140    0.0000 C   0  0  0  0  0  0  0  0  0  0  0  0
    2.9727    1.3737    0.0000 C   0  0  0  0  0  0  0  0  0  0  0  0
   -2.2038    3.9335    0.0000 C   0  0  0  0  0  0  0  0  0  0  0  0
    3.5238    0.7596    0.0000 C   0  0  1  0  0  0  0  0  0  0  0  0
    3.2291    2.1578    0.0000 C   0  0  0  0  0  0  0  0  0  0  0  0
    0.6277   -3.5014    0.0000 C   0  0  0  0  0  0  0  0  0  0  0  0
    0.3714   -4.2857    0.0000 C   0  0  0  0  0  0  0  0  0  0  0  0
    1.4349   -3.3313    0.0000 C   0  0  0  0  0  0  0  0  0  0  0  0
    0.2179    4.4439    0.0000 C   0  0  0  0  0  0  0  0  0  0  0  0
    2.6780    2.7719    0.0000 C   0  0  0  0  0  0  0  0  0  0  0  0
   -0.4092   -4.5371    0.0000 C   0  0  0  0  0  0  0  0  0  0  0  0
   -3.5238    2.1950    0.0000 C   0  0  3  0  0  0  0  0  0  0  0  0
    1.6913   -2.5472    0.0000 C   0  0  0  0  0  0  0  0  0  0  0  0
   -2.4602    3.1493    0.0000 C   0  0  0  0  0  0  0  0  0  0  0  0
   -0.4092   -5.3621    0.0000 C   0  0  0  0  0  0  0  0  0  0  0  0
   -2.9727    1.5810    0.0000 C   0  0  0  0  0  0  0  0  0  0  0  0
    2.6397    4.9543    0.0000 C   0  0  0  0  0  0  0  0  0  0  0  0
    0.8529   -4.9496    0.0000 C   0  0  0  0  0  0  0  0  0  0  0  0
   -1.6913    5.5019    0.0000 C   0  0  0  0  0  0  0  0  0  0  0  0
    2.2038   -0.9788    0.0000 C   0  0  0  0  0  0  0  0  0  0  0  0
    2.4602   -0.1947    0.0000 C   0  0  0  0  0  0  0  0  0  0  0  0
    2.4985   -2.3770    0.0000 C   0  0  0  0  0  0  0  0  0  0  0  0
    1.1402   -1.9331    0.0000 C   0  0  0  0  0  0  0  0  0  0  0  0
    4.3310    0.9297    0.0000 C   0  0  0  0  0  0  0  0  0  0  0  0
   -3.2291    0.7968    0.0000 C   0  0  0  0  0  0  0  0  0  0  0  0
    2.7549   -1.5929    0.0000 C   0  0  0  0  0  0  0  0  0  0  0  0
    1.3966   -1.1489    0.0000 C   0  0  0  0  0  0  0  0  0  0  0  0
   -1.1236   -4.1246    0.0000 C   0  0  0  0  0  0  0  0  0  0  0  0
   -4.3310    2.0249    0.0000 C   0  0  0  0  0  0  0  0  0  0  0  0
   -1.8381   -5.3621    0.0000 C   0  0  0  0  0  0  0  0  0  0  0  0
   -2.6780    0.1828    0.0000 C   0  0  0  0  0  0  0  0  0  0  0  0
    2.3798    6.4590    0.0000 H   0  0  0  0  0  0  0  0  0  0  0  0
   -3.1243    6.0292    0.0000 H   0  0  0  0  0  0  0  0  0  0  0  0
    5.5042    1.9071    0.0000 H   0  0  0  0  0  0  0  0  0  0  0  0
   -5.5042    1.0475    0.0000 H   0  0  0  0  0  0  0  0  0  0  0  0
   -3.8513   -0.7945    0.0000 H   0  0  0  0  0  0  0  0  0  0  0  0
   -0.0271    5.9938    0.0000 H   0  0  0  0  0  0  0  0  0  0  0  0
    3.8977    3.7591    0.0000 H   0  0  0  0  0  0  0  0  0  0  0  0
    3.9249   -0.7573    0.0000 H   0  0  0  0  0  0  0  0  0  0  0  0
   -3.9248    3.7120    0.0000 H   0  0  0  0  0  0  0  0  0  0  0  0
    0.6772   -6.5493    0.0000 H   0  0  0  0  0  0  0  0  0  0  0  0
   -1.1236   -6.7591    0.0000 H   0  0  0  0  0  0  0  0  0  0  0  0
   -3.4052   -5.2823    0.0000 H   0  0  0  0  0  0  0  0  0  0  0  0
   -2.5526   -6.7591    0.0000 H   0  0  0  0  0  0  0  0  0  0  0  0
    1.2437    2.9829    0.0000 H   0  0  0  0  0  0  0  0  0  0  0  0
    0.5291    3.7793    0.0000 H   0  0  0  0  0  0  0  0  0  0  0  0
    2.0510    3.1530    0.0000 H   0  0  0  0  0  0  0  0  0  0  0  0
   -0.4257    4.0915    0.0000 H   0  0  0  0  0  0  0  0  0  0  0  0
   -0.6820    3.3073    0.0000 H   0  0  0  0  0  0  0  0  0  0  0  0
   -1.7289    3.0866    0.0000 H   0  0  0  0  0  0  0  0  0  0  0  0
    1.3575    5.6311    0.0000 H   0  0  0  0  0  0  0  0  0  0  0  0
    0.3105    5.4104    0.0000 H   0  0  0  0  0  0  0  0  0  0  0  0
    1.9257    1.1531    0.0000 H   0  0  0  0  0  0  0  0  0  0  0  0
    2.2582    2.1702    0.0000 H   0  0  0  0  0  0  0  0  0  0  0  0
   -2.9184    4.7299    0.0000 H   0  0  0  0  0  0  0  0  0  0  0  0
   -3.2508    3.7129    0.0000 H   0  0  0  0  0  0  0  0  0  0  0  0
    2.4768    0.5390    0.0000 H   0  0  0  0  0  0  0  0  0  0  0  0
    4.2761    2.3784    0.0000 H   0  0  0  0  0  0  0  0  0  0  0  0
    3.5615    3.1749    0.0000 H   0  0  0  0  0  0  0  0  0  0  0  0
   -0.0869   -2.7050    0.0000 H   0  0  0  0  0  0  0  0  0  0  0  0
    0.9601   -2.4843    0.0000 H   0  0  0  0  0  0  0  0  0  0  0  0
    2.1494   -4.1278    0.0000 H   0  0  0  0  0  0  0  0  0  0  0  0
    2.4819   -3.1108    0.0000 H   0  0  0  0  0  0  0  0  0  0  0  0
   -2.4768    2.4157    0.0000 H   0  0  0  0  0  0  0  0  0  0  0  0
   -1.9257    1.8017    0.0000 H   0  0  0  0  0  0  0  0  0  0  0  0
   -2.2581    0.7846    0.0000 H   0  0  0  0  0  0  0  0  0  0  0  0
    1.8849   -4.9496    0.0000 H   0  0  0  0  0  0  0  0  0  0  0  0
    3.1877   -3.1451    0.0000 H   0  0  0  0  0  0  0  0  0  0  0  0
    0.1304   -2.1459    0.0000 H   0  0  0  0  0  0  0  0  0  0  0  0
   -4.2761    0.5761    0.0000 H   0  0  0  0  0  0  0  0  0  0  0  0
   -3.5614   -0.2203    0.0000 H   0  0  0  0  0  0  0  0  0  0  0  0
    3.7647   -1.3801    0.0000 H   0  0  0  0  0  0  0  0  0  0  0  0
    0.7074   -0.3807    0.0000 H   0  0  0  0  0  0  0  0  0  0  0  0
  1 36  2  0  0  0  0
  2 37  2  0  0  0  0
  3 44  1  0  0  0  0
  3 59  1  0  0  0  0
  4 46  1  0  0  0  0
  4 60  1  0  0  0  0
  5 41  2  0  0  0  0
  6 44  2  0  0  0  0
  7 46  2  0  0  0  0
  8 51  1  0  0  0  0
  8 61  1  0  0  0  0
  9 48  2  0  0  0  0
 10 51  2  0  0  0  0
 11 56  1  0  0  0  0
 11 62  1  0  0  0  0
 12 55  2  0  0  0  0
 13 56  2  0  0  0  0
 14 58  1  0  0  0  0
 14 63  1  0  0  0  0
 15 58  2  0  0  0  0
 16 36  1  0  0  0  0
 16 64  1  0  0  0  0
 17 37  1  0  0  0  0
 17 65  1  0  0  0  0
 18 48  1  0  0  0  0
 18 66  1  0  0  0  0
 19 39  1  0  0  0  0
 19 41  1  0  0  0  0
 19 67  1  0  0  0  0
 20 42  1  0  0  0  0
 20 45  1  0  0  0  0
 20 68  1  0  0  0  0
 21 42  1  0  0  0  0
 21 57  1  0  0  0  0
 21 69  1  0  0  0  0
 22 55  1  0  0  0  0
 22 57  2  0  0  0  0
 23 57  1  0  0  0  0
 23 70  1  0  0  0  0
 23 71  1  0  0  0  0
 24 25  1  0  0  0  0
 24 28  1  0  0  0  0
 24 72  1  0  0  0  0
 24 73  1  0  0  0  0
 25 17  1  0  0  0  0
 25 44  1  0  0  0  0
 25 74  1  6  0  0  0
 26 16  1  0  0  0  0
 26 27  1  0  0  0  0
 26 46  1  0  0  0  0
 26 75  1  6  0  0  0
 27 30  1  0  0  0  0
 27 76  1  0  0  0  0
 27 77  1  0  0  0  0
 28 36  1  0  0  0  0
 28 78  1  0  0  0  0
 28 79  1  0  0  0  0
 29 31  1  0  0  0  0
 29 32  1  0  0  0  0
 29 80  1  0  0  0  0
 29 81  1  0  0  0  0
 30 41  1  0  0  0  0
 30 82  1  0  0  0  0
 30 83  1  0  0  0  0
 31 18  1  0  0  0  0
 31 51  1  0  0  0  0
 31 84  1  6  0  0  0
 32 37  1  0  0  0  0
 32 85  1  0  0  0  0
 32 86  1  0  0  0  0
 33 34  1  0  0  0  0
 33 35  1  0  0  0  0
 33 87  1  0  0  0  0
 33 88  1  0  0  0  0
 34 38  1  0  0  0  0
 34 45  2  0  0  0  0
 35 40  1  0  0  0  0
 35 89  1  0  0  0  0
 35 90  1  0  0  0  0
 38 42  2  0  0  0  0
 38 55  1  0  0  0  0
 39 43  1  0  0  0  0
 39 56  1  0  0  0  0
 39 91  1  0  0  0  0
 40 49  2  0  0  0  0
 40 50  1  0  0  0  0
 43 52  1  0  0  0  0
 43 92  1  0  0  0  0
 43 93  1  0  0  0  0
 45 94  1  0  0  0  0
 47 48  1  0  0  0  0
 47 53  2  0  0  0  0
 47 54  1  0  0  0  0
 49 53  1  0  0  0  0
 49 95  1  0  0  0  0
 50 54  2  0  0  0  0
 50 96  1  0  0  0  0
 52 58  1  0  0  0  0
 52 97  1  0  0  0  0
 52 98  1  0  0  0  0
 53 99  1  0  0  0  0
 54100  1  0  0  0  0
M  END
>  <DRUGBANK_ID>
DB02223

>  <SECONDARY_ACCESSION_NUMBERS>
EXPT02076

>  <COMMON_NAME>
LY231514 tetra glu

$$$$
