
 OpenBabel10282417072D

179180  0  0  0  0  0  0  0  0999 V2000
   -1.7992   -2.0625    0.0000 C   0  0  0  0  0  0  0  0  0  0  0  0
   -1.0847   -2.4750    0.0000 N   0  0  0  0  0  0  0  0  0  0  0  0
   -0.3701   -2.0625    0.0000 C   0  0  2  0  0  0  0  0  0  0  0  0
    0.3442   -2.4750    0.0000 C   0  0  0  0  0  0  0  0  0  0  0  0
    1.0586   -2.0625    0.0000 N   0  0  0  0  0  0  0  0  0  0  0  0
    1.7732   -2.4750    0.0000 C   0  0  1  0  0  0  0  0  0  0  0  0
    2.4876   -2.0625    0.0000 C   0  0  0  0  0  0  0  0  0  0  0  0
    3.2020   -2.4750    0.0000 N   0  0  0  0  0  0  0  0  0  0  0  0
    3.9165   -2.0625    0.0000 C   0  0  1  0  0  0  0  0  0  0  0  0
    4.6310   -2.4750    0.0000 C   0  0  0  0  0  0  0  0  0  0  0  0
   -0.3701   -1.2375    0.0000 C   0  0  3  0  0  0  0  0  0  0  0  0
    0.3442   -3.3000    0.0000 O   0  0  0  0  0  0  0  0  0  0  0  0
    1.7732   -3.3000    0.0000 C   0  0  0  0  0  0  0  0  0  0  0  0
    2.4876   -3.7125    0.0000 C   0  0  0  0  0  0  0  0  0  0  0  0
    1.0586   -3.7125    0.0000 C   0  0  0  0  0  0  0  0  0  0  0  0
    2.4876   -1.2375    0.0000 O   0  0  0  0  0  0  0  0  0  0  0  0
    3.9165   -1.2375    0.0000 C   0  0  0  0  0  0  0  0  0  0  0  0
    4.6310   -3.3000    0.0000 C   0  0  0  0  0  0  0  0  0  0  0  0
    5.3455   -3.7125    0.0000 C   0  0  0  0  0  0  0  0  0  0  0  0
    5.3455   -4.5375    0.0000 C   0  0  0  0  0  0  0  0  0  0  0  0
    6.0599   -4.9500    0.0000 N   0  0  0  0  0  0  0  0  0  0  0  0
    4.6516   -0.8630    0.0000 N   0  0  0  0  0  0  0  0  0  0  0  0
    4.6516   -0.0380    0.0000 C   0  0  2  0  0  0  0  0  0  0  0  0
    3.2131   -0.8064    0.0000 O   0  0  0  0  0  0  0  0  0  0  0  0
   -2.5136   -2.4750    0.0000 C   0  0  1  0  0  0  0  0  0  0  0  0
   -1.7992   -1.2375    0.0000 O   0  0  0  0  0  0  0  0  0  0  0  0
   -3.2280   -2.0625    0.0000 N   0  0  0  0  0  0  0  0  0  0  0  0
   -2.5136   -3.3000    0.0000 C   0  0  3  0  0  0  0  0  0  0  0  0
   -3.2280   -3.7125    0.0000 C   0  0  0  0  0  0  0  0  0  0  0  0
   -1.7992   -3.7125    0.0000 C   0  0  0  0  0  0  0  0  0  0  0  0
   -1.7992   -4.5375    0.0000 O   0  0  0  0  0  0  0  0  0  0  0  0
   -1.0847   -3.3000    0.0000 O   0  0  0  0  0  0  0  0  0  0  0  0
   -3.9425   -2.4750    0.0000 C   0  0  0  0  0  0  0  0  0  0  0  0
   -4.6569   -2.0625    0.0000 C   0  0  0  0  0  0  0  0  0  0  0  0
   -5.3714   -2.4750    0.0000 C   0  0  0  0  0  0  0  0  0  0  0  0
   -5.3714   -4.9500    0.0000 C   0  0  0  0  0  0  0  0  0  0  0  0
   -6.0859   -2.0625    0.0000 C   0  0  0  0  0  0  0  0  0  0  0  0
   -6.8003   -2.4750    0.0000 C   0  0  0  0  0  0  0  0  0  0  0  0
   -6.8003   -3.3000    0.0000 C   0  0  0  0  0  0  0  0  0  0  0  0
   -6.0859   -3.7125    0.0000 C   0  0  0  0  0  0  0  0  0  0  0  0
   -6.0859   -4.5375    0.0000 C   0  0  3  0  0  0  0  0  0  0  0  0
   -6.8003   -4.9500    0.0000 C   0  0  0  0  0  0  0  0  0  0  0  0
    0.3442   -0.8250    0.0000 C   0  0  0  0  0  0  0  0  0  0  0  0
   -1.0847   -0.8250    0.0000 N   0  0  0  0  0  0  0  0  0  0  0  0
   -1.0847    0.0000    0.0000 C   0  0  0  0  0  0  0  0  0  0  0  0
   -1.7992    0.4125    0.0000 C   0  0  1  0  0  0  0  0  0  0  0  0
   -0.3701    0.4125    0.0000 O   0  0  0  0  0  0  0  0  0  0  0  0
   -1.7992    1.2375    0.0000 N   0  0  0  0  0  0  0  0  0  0  0  0
   -1.0847    1.6500    0.0000 C   0  0  0  0  0  0  0  0  0  0  0  0
   -1.0847    2.4750    0.0000 C   0  0  1  0  0  0  0  0  0  0  0  0
   -0.3701    1.2375    0.0000 O   0  0  0  0  0  0  0  0  0  0  0  0
   -0.3701    2.8875    0.0000 N   0  0  0  0  0  0  0  0  0  0  0  0
   -1.7992    2.8875    0.0000 C   0  0  0  0  0  0  0  0  0  0  0  0
   -1.7992    3.7125    0.0000 C   0  0  0  0  0  0  0  0  0  0  0  0
   -2.5136    2.4750    0.0000 C   0  0  0  0  0  0  0  0  0  0  0  0
   -2.5693    1.5332    0.0000 C   0  0  0  0  0  0  0  0  0  0  0  0
   -3.0884    0.8919    0.0000 C   0  0  1  0  0  0  0  0  0  0  0  0
   -2.6392    0.2000    0.0000 C   0  0  0  0  0  0  0  0  0  0  0  0
   -3.9123    0.9352    0.0000 C   0  0  0  0  0  0  0  0  0  0  0  0
    0.3442    2.4750    0.0000 C   0  0  0  0  0  0  0  0  0  0  0  0
    1.0586    2.8875    0.0000 C   0  0  2  0  0  0  0  0  0  0  0  0
    0.3442    1.6500    0.0000 O   0  0  0  0  0  0  0  0  0  0  0  0
    1.7732    2.4750    0.0000 N   0  0  0  0  0  0  0  0  0  0  0  0
    1.0586    3.7125    0.0000 C   0  0  3  0  0  0  0  0  0  0  0  0
    1.7732    4.1250    0.0000 C   0  0  0  0  0  0  0  0  0  0  0  0
    0.3442    4.1250    0.0000 C   0  0  0  0  0  0  0  0  0  0  0  0
    0.3442    4.9500    0.0000 O   0  0  0  0  0  0  0  0  0  0  0  0
   -0.3701    3.7125    0.0000 O   0  0  0  0  0  0  0  0  0  0  0  0
    2.4876    2.8875    0.0000 C   0  0  0  0  0  0  0  0  0  0  0  0
    3.2020    2.4750    0.0000 C   0  0  0  0  0  0  0  0  0  0  0  0
    2.4876    3.7125    0.0000 O   0  0  0  0  0  0  0  0  0  0  0  0
    3.9165    2.8875    0.0000 N   0  0  0  0  0  0  0  0  0  0  0  0
    4.6310    2.4750    0.0000 C   0  0  0  0  0  0  0  0  0  0  0  0
    5.3455    2.8875    0.0000 O   0  0  0  0  0  0  0  0  0  0  0  0
    4.6310    1.6500    0.0000 C   0  0  2  0  0  0  0  0  0  0  0  0
    5.3455    1.2375    0.0000 C   0  0  0  0  0  0  0  0  0  0  0  0
    3.9165    1.2375    0.0000 N   0  0  0  0  0  0  0  0  0  0  0  0
    3.9165    0.4125    0.0000 C   0  0  0  0  0  0  0  0  0  0  0  0
    3.2020    0.0000    0.0000 O   0  0  0  0  0  0  0  0  0  0  0  0
    6.0599    1.6500    0.0000 C   0  0  0  0  0  0  0  0  0  0  0  0
    6.7745    1.2375    0.0000 O   0  0  0  0  0  0  0  0  0  0  0  0
    6.0599    2.4750    0.0000 O   0  0  0  0  0  0  0  0  0  0  0  0
    5.3714    0.3650    0.0000 C   0  0  3  0  0  0  0  0  0  0  0  0
    6.0859   -0.0474    0.0000 C   0  0  0  0  0  0  0  0  0  0  0  0
    6.8003    0.3650    0.0000 O   0  0  0  0  0  0  0  0  0  0  0  0
    6.0859   -0.8724    0.0000 O   0  0  0  0  0  0  0  0  0  0  0  0
    5.5674    0.8993    0.0000 O   0  0  0  0  0  0  0  0  0  0  0  0
   -3.9425   -3.3000    0.0000 O   0  0  0  0  0  0  0  0  0  0  0  0
   -4.6569   -4.5375    0.0000 C   0  0  0  0  0  0  0  0  0  0  0  0
   -1.0847   -3.4595    0.0000 H   0  0  0  0  0  0  0  0  0  0  0  0
   -0.3702   -3.1325    0.0000 H   0  0  0  0  0  0  0  0  0  0  0  0
    1.0585   -1.0780    0.0000 H   0  0  0  0  0  0  0  0  0  0  0  0
    0.8466   -3.0100    0.0000 H   0  0  0  0  0  0  0  0  0  0  0  0
    3.2020   -3.4595    0.0000 H   0  0  0  0  0  0  0  0  0  0  0  0
    3.9165   -3.1325    0.0000 H   0  0  0  0  0  0  0  0  0  0  0  0
    5.5576   -1.9400    0.0000 H   0  0  0  0  0  0  0  0  0  0  0  0
    5.5576   -3.0100    0.0000 H   0  0  0  0  0  0  0  0  0  0  0  0
    0.5566   -1.7725    0.0000 H   0  0  0  0  0  0  0  0  0  0  0  0
    1.7731   -4.3700    0.0000 H   0  0  0  0  0  0  0  0  0  0  0  0
    2.4876   -4.7825    0.0000 H   0  0  0  0  0  0  0  0  0  0  0  0
    3.4143   -3.1775    0.0000 H   0  0  0  0  0  0  0  0  0  0  0  0
    3.4142   -4.2475    0.0000 H   0  0  0  0  0  0  0  0  0  0  0  0
    0.1320   -3.1774    0.0000 H   0  0  0  0  0  0  0  0  0  0  0  0
    1.0585   -4.7825    0.0000 H   0  0  0  0  0  0  0  0  0  0  0  0
    0.1319   -4.2474    0.0000 H   0  0  0  0  0  0  0  0  0  0  0  0
    3.7044   -3.8350    0.0000 H   0  0  0  0  0  0  0  0  0  0  0  0
    3.7044   -2.7650    0.0000 H   0  0  0  0  0  0  0  0  0  0  0  0
    6.2721   -3.1775    0.0000 H   0  0  0  0  0  0  0  0  0  0  0  0
    6.2721   -4.2475    0.0000 H   0  0  0  0  0  0  0  0  0  0  0  0
    4.4188   -5.0725    0.0000 H   0  0  0  0  0  0  0  0  0  0  0  0
    5.3455   -5.6075    0.0000 H   0  0  0  0  0  0  0  0  0  0  0  0
    6.0599   -5.9700    0.0000 H   0  0  0  0  0  0  0  0  0  0  0  0
    6.9433   -4.4400    0.0000 H   0  0  0  0  0  0  0  0  0  0  0  0
    5.4910   -1.3774    0.0000 H   0  0  0  0  0  0  0  0  0  0  0  0
    3.7180   -0.5608    0.0000 H   0  0  0  0  0  0  0  0  0  0  0  0
   -2.5136   -1.4050    0.0000 H   0  0  0  0  0  0  0  0  0  0  0  0
   -3.2280   -1.0780    0.0000 H   0  0  0  0  0  0  0  0  0  0  0  0
   -3.4403   -2.7650    0.0000 H   0  0  0  0  0  0  0  0  0  0  0  0
   -4.1547   -3.1775    0.0000 H   0  0  0  0  0  0  0  0  0  0  0  0
   -3.2280   -4.7825    0.0000 H   0  0  0  0  0  0  0  0  0  0  0  0
   -4.1546   -4.2475    0.0000 H   0  0  0  0  0  0  0  0  0  0  0  0
   -0.2732   -3.7685    0.0000 H   0  0  0  0  0  0  0  0  0  0  0  0
   -4.6569   -1.0305    0.0000 H   0  0  0  0  0  0  0  0  0  0  0  0
   -5.3714   -3.5070    0.0000 H   0  0  0  0  0  0  0  0  0  0  0  0
   -5.3714   -6.0200    0.0000 H   0  0  0  0  0  0  0  0  0  0  0  0
   -4.4448   -5.4850    0.0000 H   0  0  0  0  0  0  0  0  0  0  0  0
   -6.0859   -1.0305    0.0000 H   0  0  0  0  0  0  0  0  0  0  0  0
   -7.6940   -1.9590    0.0000 H   0  0  0  0  0  0  0  0  0  0  0  0
   -7.7270   -3.8350    0.0000 H   0  0  0  0  0  0  0  0  0  0  0  0
   -7.7269   -2.7650    0.0000 H   0  0  0  0  0  0  0  0  0  0  0  0
   -5.1592   -3.1775    0.0000 H   0  0  0  0  0  0  0  0  0  0  0  0
   -5.1593   -4.2475    0.0000 H   0  0  0  0  0  0  0  0  0  0  0  0
   -7.0126   -4.0025    0.0000 H   0  0  0  0  0  0  0  0  0  0  0  0
   -7.7270   -4.4150    0.0000 H   0  0  0  0  0  0  0  0  0  0  0  0
   -6.8003   -6.0200    0.0000 H   0  0  0  0  0  0  0  0  0  0  0  0
   -7.7269   -5.4850    0.0000 H   0  0  0  0  0  0  0  0  0  0  0  0
    1.2709   -1.3599    0.0000 H   0  0  0  0  0  0  0  0  0  0  0  0
    0.3441    0.2450    0.0000 H   0  0  0  0  0  0  0  0  0  0  0  0
    1.2708   -0.2899    0.0000 H   0  0  0  0  0  0  0  0  0  0  0  0
   -1.9373   -1.3173    0.0000 H   0  0  0  0  0  0  0  0  0  0  0  0
   -1.9463   -0.6473    0.0000 H   0  0  0  0  0  0  0  0  0  0  0  0
   -2.0113    1.9400    0.0000 H   0  0  0  0  0  0  0  0  0  0  0  0
   -0.3700    3.8720    0.0000 H   0  0  0  0  0  0  0  0  0  0  0  0
   -2.7259    3.4225    0.0000 H   0  0  0  0  0  0  0  0  0  0  0  0
   -0.8726    4.2475    0.0000 H   0  0  0  0  0  0  0  0  0  0  0  0
   -2.7258    4.2475    0.0000 H   0  0  0  0  0  0  0  0  0  0  0  0
   -1.7992    4.7825    0.0000 H   0  0  0  0  0  0  0  0  0  0  0  0
   -3.4403    3.0100    0.0000 H   0  0  0  0  0  0  0  0  0  0  0  0
   -2.5136    1.4050    0.0000 H   0  0  0  0  0  0  0  0  0  0  0  0
   -3.4402    1.9400    0.0000 H   0  0  0  0  0  0  0  0  0  0  0  0
   -2.8463    2.5667    0.0000 H   0  0  0  0  0  0  0  0  0  0  0  0
   -1.7741    2.2492    0.0000 H   0  0  0  0  0  0  0  0  0  0  0  0
   -3.5236    1.8694    0.0000 H   0  0  0  0  0  0  0  0  0  0  0  0
   -3.0297   -0.7962    0.0000 H   0  0  0  0  0  0  0  0  0  0  0  0
   -1.9317   -0.6027    0.0000 H   0  0  0  0  0  0  0  0  0  0  0  0
   -4.3979    1.8886    0.0000 H   0  0  0  0  0  0  0  0  0  0  0  0
   -4.4952    0.0379    0.0000 H   0  0  0  0  0  0  0  0  0  0  0  0
   -4.9808    0.9914    0.0000 H   0  0  0  0  0  0  0  0  0  0  0  0
    1.0587    1.8175    0.0000 H   0  0  0  0  0  0  0  0  0  0  0  0
    1.7733    1.4905    0.0000 H   0  0  0  0  0  0  0  0  0  0  0  0
    1.9852    3.1775    0.0000 H   0  0  0  0  0  0  0  0  0  0  0  0
    2.6998    3.5899    0.0000 H   0  0  0  0  0  0  0  0  0  0  0  0
    1.7733    5.1950    0.0000 H   0  0  0  0  0  0  0  0  0  0  0  0
    2.6999    4.6599    0.0000 H   0  0  0  0  0  0  0  0  0  0  0  0
   -1.1816    4.1809    0.0000 H   0  0  0  0  0  0  0  0  0  0  0  0
    3.2020    1.4050    0.0000 H   0  0  0  0  0  0  0  0  0  0  0  0
    4.1286    1.9400    0.0000 H   0  0  0  0  0  0  0  0  0  0  0  0
    3.9165    3.8720    0.0000 H   0  0  0  0  0  0  0  0  0  0  0  0
    5.5576    2.1850    0.0000 H   0  0  0  0  0  0  0  0  0  0  0  0
    5.3455    0.1675    0.0000 H   0  0  0  0  0  0  0  0  0  0  0  0
    6.2722    0.7025    0.0000 H   0  0  0  0  0  0  0  0  0  0  0  0
    3.0639    1.7298    0.0000 H   0  0  0  0  0  0  0  0  0  0  0  0
    6.7746    0.3005    0.0000 H   0  0  0  0  0  0  0  0  0  0  0  0
    5.3644   -0.7050    0.0000 H   0  0  0  0  0  0  0  0  0  0  0  0
    7.6117   -0.1036    0.0000 H   0  0  0  0  0  0  0  0  0  0  0  0
    6.5231    1.0653    0.0000 H   0  0  0  0  0  0  0  0  0  0  0  0
   -3.7303   -5.0725    0.0000 H   0  0  0  0  0  0  0  0  0  0  0  0
   -4.6569   -3.4675    0.0000 H   0  0  0  0  0  0  0  0  0  0  0  0
   -3.7302   -4.0025    0.0000 H   0  0  0  0  0  0  0  0  0  0  0  0
  1  2  1  0  0  0  0
  1 25  1  0  0  0  0
  1 26  2  0  0  0  0
  2 90  1  0  0  0  0
  3  2  1  0  0  0  0
  3  4  1  0  0  0  0
  3 11  1  0  0  0  0
  3 91  1  6  0  0  0
  4  5  1  0  0  0  0
  4 12  2  0  0  0  0
  5  6  1  0  0  0  0
  5 92  1  0  0  0  0
  6  7  1  0  0  0  0
  6 13  1  0  0  0  0
  6 93  1  6  0  0  0
  7  8  1  0  0  0  0
  7 16  2  0  0  0  0
  8  9  1  0  0  0  0
  8 94  1  0  0  0  0
  9 10  1  0  0  0  0
  9 17  1  0  0  0  0
  9 95  1  1  0  0  0
 10 18  1  0  0  0  0
 10 96  1  0  0  0  0
 10 97  1  0  0  0  0
 11 43  1  0  0  0  0
 11 44  1  0  0  0  0
 11 98  1  0  0  0  0
 13 14  1  0  0  0  0
 13 15  1  0  0  0  0
 13 99  1  0  0  0  0
 14100  1  0  0  0  0
 14101  1  0  0  0  0
 14102  1  0  0  0  0
 15103  1  0  0  0  0
 15104  1  0  0  0  0
 15105  1  0  0  0  0
 17 22  1  0  0  0  0
 17 24  2  0  0  0  0
 18 19  1  0  0  0  0
 18106  1  0  0  0  0
 18107  1  0  0  0  0
 19 20  1  0  0  0  0
 19108  1  0  0  0  0
 19109  1  0  0  0  0
 20 21  1  0  0  0  0
 20110  1  0  0  0  0
 20111  1  0  0  0  0
 21112  1  0  0  0  0
 21113  1  0  0  0  0
 22114  1  0  0  0  0
 23 22  1  0  0  0  0
 23 83  1  0  0  0  0
 23115  1  1  0  0  0
 25 27  1  0  0  0  0
 25 28  1  0  0  0  0
 25116  1  1  0  0  0
 27 33  1  0  0  0  0
 27117  1  0  0  0  0
 28 29  1  0  0  0  0
 28 30  1  0  0  0  0
 28118  1  0  0  0  0
 29119  1  0  0  0  0
 29120  1  0  0  0  0
 29121  1  0  0  0  0
 30 31  2  0  0  0  0
 30 32  1  0  0  0  0
 32122  1  0  0  0  0
 33 34  1  0  0  0  0
 33 88  2  0  0  0  0
 34 35  2  0  0  0  0
 34123  1  0  0  0  0
 35 37  1  0  0  0  0
 35124  1  0  0  0  0
 36 89  1  0  0  0  0
 36125  1  0  0  0  0
 36126  1  0  0  0  0
 37 38  2  0  0  0  0
 37127  1  0  0  0  0
 38 39  1  0  0  0  0
 38128  1  0  0  0  0
 39 40  1  0  0  0  0
 39129  1  0  0  0  0
 39130  1  0  0  0  0
 40 41  1  0  0  0  0
 40131  1  0  0  0  0
 40132  1  0  0  0  0
 41 42  1  0  0  0  0
 41 36  1  0  0  0  0
 41133  1  0  0  0  0
 42134  1  0  0  0  0
 42135  1  0  0  0  0
 42136  1  0  0  0  0
 43137  1  0  0  0  0
 43138  1  0  0  0  0
 43139  1  0  0  0  0
 44 45  1  0  0  0  0
 44140  1  0  0  0  0
 45 46  1  0  0  0  0
 45 47  2  0  0  0  0
 46 48  1  0  0  0  0
 46 58  1  0  0  0  0
 46141  1  1  0  0  0
 48 49  1  0  0  0  0
 49 50  1  0  0  0  0
 49 51  2  0  0  0  0
 50 52  1  0  0  0  0
 50 53  1  0  0  0  0
 50142  1  1  0  0  0
 52 60  1  0  0  0  0
 52143  1  0  0  0  0
 53 54  1  0  0  0  0
 53 55  1  0  0  0  0
 53144  1  0  0  0  0
 54145  1  0  0  0  0
 54146  1  0  0  0  0
 54147  1  0  0  0  0
 55148  1  0  0  0  0
 55149  1  0  0  0  0
 55150  1  0  0  0  0
 56 57  1  0  0  0  0
 56 48  1  0  0  0  0
 56151  1  0  0  0  0
 56152  1  0  0  0  0
 57 58  1  0  0  0  0
 57 59  1  0  0  0  0
 57153  1  6  0  0  0
 58154  1  0  0  0  0
 58155  1  0  0  0  0
 59156  1  0  0  0  0
 59157  1  0  0  0  0
 59158  1  0  0  0  0
 60 61  1  0  0  0  0
 60 62  2  0  0  0  0
 61 63  1  0  0  0  0
 61 64  1  0  0  0  0
 61159  1  6  0  0  0
 63 69  1  0  0  0  0
 63160  1  0  0  0  0
 64 65  1  0  0  0  0
 64 66  1  0  0  0  0
 64161  1  0  0  0  0
 65162  1  0  0  0  0
 65163  1  0  0  0  0
 65164  1  0  0  0  0
 66 67  2  0  0  0  0
 66 68  1  0  0  0  0
 68165  1  0  0  0  0
 69 70  1  0  0  0  0
 69 71  2  0  0  0  0
 70 72  1  0  0  0  0
 70166  1  0  0  0  0
 70167  1  0  0  0  0
 72 73  1  0  0  0  0
 72168  1  0  0  0  0
 73 74  2  0  0  0  0
 73 75  1  0  0  0  0
 75 76  1  0  0  0  0
 75 77  1  0  0  0  0
 75169  1  1  0  0  0
 76 80  1  0  0  0  0
 76170  1  0  0  0  0
 76171  1  0  0  0  0
 77 78  1  0  0  0  0
 77172  1  0  0  0  0
 78 79  2  0  0  0  0
 78 23  1  0  0  0  0
 80 81  1  0  0  0  0
 80 82  2  0  0  0  0
 81173  1  0  0  0  0
 83 84  1  0  0  0  0
 83 87  1  0  0  0  0
 83174  1  0  0  0  0
 84 85  1  0  0  0  0
 84 86  2  0  0  0  0
 85175  1  0  0  0  0
 87176  1  0  0  0  0
 89177  1  0  0  0  0
 89178  1  0  0  0  0
 89179  1  0  0  0  0
M  END
>  <DRUGBANK_ID>
DB14052

>  <COMMON_NAME>
Malacidin B

$$$$
