1057
 OpenBabel10282417072D

 38 37  0  0  0  0  0  0  0  0999 V2000
    3.3008    1.5700    0.0000 S   0  0  0  0  0  0  0  0  0  0  0  0
    2.5863    1.1574    0.0000 P   0  0  0  0  0  0  0  0  0  0  0  0
    1.8719    0.7450    0.0000 O   0  0  0  0  0  0  0  0  0  0  0  0
    2.1739    1.8719    0.0000 O   0  0  0  0  0  0  0  0  0  0  0  0
    2.9989    0.4429    0.0000 O   0  0  0  0  0  0  0  0  0  0  0  0
    5.4442    1.1574    0.0000 N   0  3  0  0  0  0  0  0  0  0  0  0
    4.7298    1.5700    0.0000 C   0  0  0  0  0  0  0  0  0  0  0  0
    6.1586    0.7450    0.0000 C   0  0  0  0  0  0  0  0  0  0  0  0
    5.8567    1.8719    0.0000 C   0  0  0  0  0  0  0  0  0  0  0  0
    5.0318    0.4429    0.0000 C   0  0  0  0  0  0  0  0  0  0  0  0
    4.0153    1.1574    0.0000 C   0  0  0  0  0  0  0  0  0  0  0  0
    1.1574    1.1574    0.0000 C   0  0  0  0  0  0  0  0  0  0  0  0
    2.5863    2.5863    0.0000 C   0  0  0  0  0  0  0  0  0  0  0  0
    0.4429    0.7450    0.0000 C   0  0  0  0  0  0  0  0  0  0  0  0
    2.1739    3.3008    0.0000 C   0  0  0  0  0  0  0  0  0  0  0  0
    4.7298    2.6400    0.0000 H   0  0  0  0  0  0  0  0  0  0  0  0
    3.8031    2.1050    0.0000 H   0  0  0  0  0  0  0  0  0  0  0  0
    6.1587   -0.3250    0.0000 H   0  0  0  0  0  0  0  0  0  0  0  0
    7.0852    1.2801    0.0000 H   0  0  0  0  0  0  0  0  0  0  0  0
    7.0853    0.2101    0.0000 H   0  0  0  0  0  0  0  0  0  0  0  0
    6.9267    1.8719    0.0000 H   0  0  0  0  0  0  0  0  0  0  0  0
    5.3217    2.7985    0.0000 H   0  0  0  0  0  0  0  0  0  0  0  0
    6.3917    2.7986    0.0000 H   0  0  0  0  0  0  0  0  0  0  0  0
    3.9618    0.4428    0.0000 H   0  0  0  0  0  0  0  0  0  0  0  0
    5.5669   -0.4837    0.0000 H   0  0  0  0  0  0  0  0  0  0  0  0
    4.4969   -0.4838    0.0000 H   0  0  0  0  0  0  0  0  0  0  0  0
    4.0153    0.0874    0.0000 H   0  0  0  0  0  0  0  0  0  0  0  0
    4.9420    0.6224    0.0000 H   0  0  0  0  0  0  0  0  0  0  0  0
    1.1574    2.2274    0.0000 H   0  0  0  0  0  0  0  0  0  0  0  0
    0.2308    1.6925    0.0000 H   0  0  0  0  0  0  0  0  0  0  0  0
    3.6563    2.5863    0.0000 H   0  0  0  0  0  0  0  0  0  0  0  0
    3.1214    3.5129    0.0000 H   0  0  0  0  0  0  0  0  0  0  0  0
   -0.4837    1.2801    0.0000 H   0  0  0  0  0  0  0  0  0  0  0  0
    0.4428   -0.3250    0.0000 H   0  0  0  0  0  0  0  0  0  0  0  0
   -0.4838    0.2101    0.0000 H   0  0  0  0  0  0  0  0  0  0  0  0
    2.7090    4.2274    0.0000 H   0  0  0  0  0  0  0  0  0  0  0  0
    1.1039    3.3009    0.0000 H   0  0  0  0  0  0  0  0  0  0  0  0
    1.6390    4.2275    0.0000 H   0  0  0  0  0  0  0  0  0  0  0  0
  1  2  1  0  0  0  0
  1 11  1  0  0  0  0
  2  3  1  0  0  0  0
  2  4  1  0  0  0  0
  2  5  2  0  0  0  0
  3 12  1  0  0  0  0
  4 13  1  0  0  0  0
  6  7  1  0  0  0  0
  6  8  1  0  0  0  0
  6  9  1  0  0  0  0
  6 10  1  0  0  0  0
  7 11  1  0  0  0  0
  7 16  1  0  0  0  0
  7 17  1  0  0  0  0
  8 18  1  0  0  0  0
  8 19  1  0  0  0  0
  8 20  1  0  0  0  0
  9 21  1  0  0  0  0
  9 22  1  0  0  0  0
  9 23  1  0  0  0  0
 10 24  1  0  0  0  0
 10 25  1  0  0  0  0
 10 26  1  0  0  0  0
 11 27  1  0  0  0  0
 11 28  1  0  0  0  0
 12 14  1  0  0  0  0
 12 29  1  0  0  0  0
 12 30  1  0  0  0  0
 13 15  1  0  0  0  0
 13 31  1  0  0  0  0
 13 32  1  0  0  0  0
 14 33  1  0  0  0  0
 14 34  1  0  0  0  0
 14 35  1  0  0  0  0
 15 36  1  0  0  0  0
 15 37  1  0  0  0  0
 15 38  1  0  0  0  0
M  CHG  1   6   1
M  END
>  <DRUGBANK_ID>
DB01057

>  <SECONDARY_ACCESSION_NUMBERS>
APRD00942

>  <COMMON_NAME>
Echothiophate

>  <CAS_NUMBER>
6736-03-4

>  <UNII>
0F350BVT6S

>  <SYNONYMS>
2-(Diethoxyphosphorylsulfanyl)ethyl-N,N,N-trimethylazanium iodide; Echothiophate; Ecothiopate; Ecothiopatum; Phospholine

$$$$
