
 OpenBabel10282417072D

 30 29  0  0  0  0  0  0  0  0999 V2000
    0.5787   -0.9033    0.0000 F   0  0  0  0  0  0  0  0  0  0  0  0
    3.4366   -0.0783    0.0000 O   0  0  0  0  0  0  0  0  0  0  0  0
    2.7220    1.1591    0.0000 O   0  0  0  0  0  0  0  0  0  0  0  0
    2.0076   -0.9033    0.0000 N   0  0  0  0  0  0  0  0  0  0  0  0
   -1.5646    0.3341    0.0000 N   0  0  0  0  0  0  0  0  0  0  0  0
   -2.9936    0.3341    0.0000 N   0  0  0  0  0  0  0  0  0  0  0  0
    0.5787   -0.0783    0.0000 C   0  0  2  0  0  0  0  0  0  0  0  0
    1.2931    0.3341    0.0000 C   0  0  0  0  0  0  0  0  0  0  0  0
   -0.1357    0.3341    0.0000 C   0  0  0  0  0  0  0  0  0  0  0  0
    2.0076   -0.0783    0.0000 C   0  0  1  0  0  0  0  0  0  0  0  0
   -0.8502   -0.0783    0.0000 C   0  0  0  0  0  0  0  0  0  0  0  0
    2.7220    0.3341    0.0000 C   0  0  0  0  0  0  0  0  0  0  0  0
   -2.2791   -0.0783    0.0000 C   0  0  0  0  0  0  0  0  0  0  0  0
   -2.2791   -0.9033    0.0000 C   0  0  0  0  0  0  0  0  0  0  0  0
    1.5646   -1.1591    0.0000 H   0  0  0  0  0  0  0  0  0  0  0  0
    2.4505   -1.1591    0.0000 H   0  0  0  0  0  0  0  0  0  0  0  0
   -3.4366    0.0783    0.0000 H   0  0  0  0  0  0  0  0  0  0  0  0
   -2.9936    0.8456    0.0000 H   0  0  0  0  0  0  0  0  0  0  0  0
    3.4368   -1.0153    0.0000 H   0  0  0  0  0  0  0  0  0  0  0  0
    1.5053   -0.6133    0.0000 H   0  0  0  0  0  0  0  0  0  0  0  0
    1.2931    1.4041    0.0000 H   0  0  0  0  0  0  0  0  0  0  0  0
    2.2197    0.8692    0.0000 H   0  0  0  0  0  0  0  0  0  0  0  0
   -0.1357    1.4041    0.0000 H   0  0  0  0  0  0  0  0  0  0  0  0
   -1.0623    0.8692    0.0000 H   0  0  0  0  0  0  0  0  0  0  0  0
    1.0810   -0.6134    0.0000 H   0  0  0  0  0  0  0  0  0  0  0  0
   -0.8502   -1.1483    0.0000 H   0  0  0  0  0  0  0  0  0  0  0  0
    0.0764   -0.6134    0.0000 H   0  0  0  0  0  0  0  0  0  0  0  0
   -3.2057   -1.4383    0.0000 H   0  0  0  0  0  0  0  0  0  0  0  0
   -1.3525   -1.4383    0.0000 H   0  0  0  0  0  0  0  0  0  0  0  0
   -2.2791   -1.9733    0.0000 H   0  0  0  0  0  0  0  0  0  0  0  0
  1  7  1  0  0  0  0
  2 12  1  0  0  0  0
  2 19  1  0  0  0  0
  3 12  2  0  0  0  0
  4 15  1  0  0  0  0
  4 16  1  0  0  0  0
  5 11  1  0  0  0  0
  5 13  2  0  0  0  0
  6 13  1  0  0  0  0
  6 17  1  0  0  0  0
  6 18  1  0  0  0  0
  7  8  1  0  0  0  0
  7  9  1  0  0  0  0
  7 20  1  6  0  0  0
  8 10  1  0  0  0  0
  8 21  1  0  0  0  0
  8 22  1  0  0  0  0
  9 11  1  0  0  0  0
  9 23  1  0  0  0  0
  9 24  1  0  0  0  0
 10  4  1  0  0  0  0
 10 12  1  0  0  0  0
 10 25  1  6  0  0  0
 11 26  1  0  0  0  0
 11 27  1  0  0  0  0
 13 14  1  0  0  0  0
 14 28  1  0  0  0  0
 14 29  1  0  0  0  0
 14 30  1  0  0  0  0
M  END
>  <DRUGBANK_ID>
DB01835

>  <SECONDARY_ACCESSION_NUMBERS>
EXPT01816

>  <COMMON_NAME>
4R-Fluoro-N6-ethanimidoyl-L-lysine

$$$$
