
 OpenBabel10282417072D

110113  0  0  0  0  0  0  0  0999 V2000
    0.1307   -1.4494    0.0000 C   0  0  0  0  0  0  0  0  0  0  0  0
   -0.6488   -1.7195    0.0000 C   0  0  1  0  0  0  0  0  0  0  0  0
   -1.1465   -1.0615    0.0000 C   0  0  1  0  0  0  0  0  0  0  0  0
   -0.6746   -0.3848    0.0000 C   0  0  3  0  0  0  0  0  0  0  0  0
    0.1147   -0.6246    0.0000 N   0  0  0  0  0  0  0  0  0  0  0  0
    0.7727   -0.1269    0.0000 C   0  0  0  0  0  0  0  0  0  0  0  0
    0.6706    0.6917    0.0000 O   0  0  0  0  0  0  0  0  0  0  0  0
    1.5327   -0.4478    0.0000 C   0  0  3  0  0  0  0  0  0  0  0  0
    2.1906    0.0498    0.0000 C   0  0  0  0  0  0  0  0  0  0  0  0
    2.8486    0.5476    0.0000 C   0  0  0  0  0  0  0  0  0  0  0  0
    1.6929    0.7078    0.0000 C   0  0  0  0  0  0  0  0  0  0  0  0
    2.6884   -0.6080    0.0000 C   0  0  0  0  0  0  0  0  0  0  0  0
    1.6348   -1.2665    0.0000 N   0  0  0  0  0  0  0  0  0  0  0  0
    2.3948   -1.5874    0.0000 C   0  0  0  0  0  0  0  0  0  0  0  0
    3.0527   -1.0897    0.0000 O   0  0  0  0  0  0  0  0  0  0  0  0
    2.4968   -2.4061    0.0000 N   0  0  0  0  0  0  0  0  0  0  0  0
    1.8389   -2.9038    0.0000 C   0  0  0  0  0  0  0  0  0  0  0  0
    1.3908   -3.5965    0.0000 C   0  0  0  0  0  0  0  0  0  0  0  0
    0.5669   -3.5549    0.0000 C   0  0  0  0  0  0  0  0  0  0  0  0
    0.1910   -2.8205    0.0000 C   0  0  0  0  0  0  0  0  0  0  0  0
    0.6390   -2.1278    0.0000 C   0  0  0  0  0  0  0  0  0  0  0  0
    1.4630   -2.1694    0.0000 C   0  0  0  0  0  0  0  0  0  0  0  0
    2.4433   -3.4653    0.0000 C   0  0  0  0  0  0  0  0  0  0  0  0
    3.2318   -3.2226    0.0000 S   0  0  0  0  0  0  0  0  0  0  0  0
    2.9891   -2.4341    0.0000 O   0  0  0  0  0  0  0  0  0  0  0  0
    3.4745   -4.0111    0.0000 O   0  0  0  0  0  0  0  0  0  0  0  0
    4.0203   -2.9800    0.0000 C   0  0  0  0  0  0  0  0  0  0  0  0
    4.8088   -2.7373    0.0000 C   0  0  0  0  0  0  0  0  0  0  0  0
    3.7776   -2.1915    0.0000 C   0  0  0  0  0  0  0  0  0  0  0  0
    4.2630   -3.7685    0.0000 C   0  0  0  0  0  0  0  0  0  0  0  0
   -0.9446    0.3946    0.0000 C   0  0  0  0  0  0  0  0  0  0  0  0
   -0.4045    1.0183    0.0000 O   0  0  0  0  0  0  0  0  0  0  0  0
   -1.7548    0.5505    0.0000 N   0  0  0  0  0  0  0  0  0  0  0  0
   -2.0248    1.3301    0.0000 C   0  0  3  0  0  0  0  0  0  0  0  0
   -2.8349    1.4860    0.0000 C   0  0  0  0  0  0  0  0  0  0  0  0
   -3.3750    0.8623    0.0000 O   0  0  0  0  0  0  0  0  0  0  0  0
   -3.1050    2.2655    0.0000 C   0  0  0  0  0  0  0  0  0  0  0  0
   -2.5649    2.8892    0.0000 O   0  0  0  0  0  0  0  0  0  0  0  0
   -3.9151    2.4214    0.0000 N   0  0  0  0  0  0  0  0  0  0  0  0
   -4.1852    3.2010    0.0000 C   0  0  0  0  0  0  0  0  0  0  0  0
   -4.8088    3.7411    0.0000 C   0  0  0  0  0  0  0  0  0  0  0  0
   -4.0292    4.0111    0.0000 C   0  0  0  0  0  0  0  0  0  0  0  0
   -1.4847    1.9537    0.0000 C   0  0  0  0  0  0  0  0  0  0  0  0
   -0.6746    1.7978    0.0000 C   0  0  0  0  0  0  0  0  0  0  0  0
   -0.1345    2.4214    0.0000 C   0  0  0  0  0  0  0  0  0  0  0  0
    0.6755    2.2655    0.0000 C   0  0  0  0  0  0  0  0  0  0  0  0
   -1.4675   -1.8215    0.0000 C   0  0  0  0  0  0  0  0  0  0  0  0
   -2.2919   -1.8519    0.0000 C   0  0  0  0  0  0  0  0  0  0  0  0
   -1.7209   -2.6066    0.0000 C   0  0  0  0  0  0  0  0  0  0  0  0
    1.0084   -2.0614    0.0000 H   0  0  0  0  0  0  0  0  0  0  0  0
    1.0745   -0.9452    0.0000 H   0  0  0  0  0  0  0  0  0  0  0  0
   -0.3379   -0.6957    0.0000 H   0  0  0  0  0  0  0  0  0  0  0  0
   -1.0142   -2.1233    0.0000 H   0  0  0  0  0  0  0  0  0  0  0  0
   -0.3244   -1.3959    0.0000 H   0  0  0  0  0  0  0  0  0  0  0  0
    1.4003    0.6140    0.0000 H   0  0  0  0  0  0  0  0  0  0  0  0
    3.8343    0.1314    0.0000 H   0  0  0  0  0  0  0  0  0  0  0  0
    2.7162    1.6094    0.0000 H   0  0  0  0  0  0  0  0  0  0  0  0
    3.7019    1.1932    0.0000 H   0  0  0  0  0  0  0  0  0  0  0  0
    2.1092    1.6935    0.0000 H   0  0  0  0  0  0  0  0  0  0  0  0
    0.6311    0.5755    0.0000 H   0  0  0  0  0  0  0  0  0  0  0  0
    1.0474    1.5612    0.0000 H   0  0  0  0  0  0  0  0  0  0  0  0
    2.2723   -1.5938    0.0000 H   0  0  0  0  0  0  0  0  0  0  0  0
    3.7502   -0.4754    0.0000 H   0  0  0  0  0  0  0  0  0  0  0  0
    3.3341   -1.4612    0.0000 H   0  0  0  0  0  0  0  0  0  0  0  0
    0.8497   -1.8605    0.0000 H   0  0  0  0  0  0  0  0  0  0  0  0
    3.4037   -2.7891    0.0000 H   0  0  0  0  0  0  0  0  0  0  0  0
    1.8783   -4.5490    0.0000 H   0  0  0  0  0  0  0  0  0  0  0  0
    0.8097   -4.4950    0.0000 H   0  0  0  0  0  0  0  0  0  0  0  0
   -0.0142   -4.4534    0.0000 H   0  0  0  0  0  0  0  0  0  0  0  0
   -0.5017   -3.5009    0.0000 H   0  0  0  0  0  0  0  0  0  0  0  0
   -0.8776   -2.7665    0.0000 H   0  0  0  0  0  0  0  0  0  0  0  0
   -0.2965   -1.8680    0.0000 H   0  0  0  0  0  0  0  0  0  0  0  0
    0.1514   -1.1753    0.0000 H   0  0  0  0  0  0  0  0  0  0  0  0
    1.2201   -1.2293    0.0000 H   0  0  0  0  0  0  0  0  0  0  0  0
    2.0441   -1.2709    0.0000 H   0  0  0  0  0  0  0  0  0  0  0  0
    2.5316   -2.2234    0.0000 H   0  0  0  0  0  0  0  0  0  0  0  0
    2.2046   -4.5083    0.0000 H   0  0  0  0  0  0  0  0  0  0  0  0
    3.2272   -4.1936    0.0000 H   0  0  0  0  0  0  0  0  0  0  0  0
    5.5927   -3.4656    0.0000 H   0  0  0  0  0  0  0  0  0  0  0  0
    5.0475   -1.6943    0.0000 H   0  0  0  0  0  0  0  0  0  0  0  0
    5.8315   -2.4225    0.0000 H   0  0  0  0  0  0  0  0  0  0  0  0
    4.5059   -1.4076    0.0000 H   0  0  0  0  0  0  0  0  0  0  0  0
    2.7346   -1.9528    0.0000 H   0  0  0  0  0  0  0  0  0  0  0  0
    3.4628   -1.1688    0.0000 H   0  0  0  0  0  0  0  0  0  0  0  0
    3.5347   -4.5524    0.0000 H   0  0  0  0  0  0  0  0  0  0  0  0
    5.3060   -4.0072    0.0000 H   0  0  0  0  0  0  0  0  0  0  0  0
    4.5778   -4.7912    0.0000 H   0  0  0  0  0  0  0  0  0  0  0  0
   -2.3993   -0.1937    0.0000 H   0  0  0  0  0  0  0  0  0  0  0  0
   -2.7253    0.5213    0.0000 H   0  0  0  0  0  0  0  0  0  0  0  0
   -4.5596    1.6772    0.0000 H   0  0  0  0  0  0  0  0  0  0  0  0
   -4.5354    4.2121    0.0000 H   0  0  0  0  0  0  0  0  0  0  0  0
   -5.8595    3.9434    0.0000 H   0  0  0  0  0  0  0  0  0  0  0  0
   -4.8854    4.8084    0.0000 H   0  0  0  0  0  0  0  0  0  0  0  0
   -3.3286    4.8199    0.0000 H   0  0  0  0  0  0  0  0  0  0  0  0
   -3.0667    3.5437    0.0000 H   0  0  0  0  0  0  0  0  0  0  0  0
   -1.8349    2.9648    0.0000 H   0  0  0  0  0  0  0  0  0  0  0  0
   -0.7842    2.7625    0.0000 H   0  0  0  0  0  0  0  0  0  0  0  0
   -0.3244    0.7867    0.0000 H   0  0  0  0  0  0  0  0  0  0  0  0
    0.3761    1.5956    0.0000 H   0  0  0  0  0  0  0  0  0  0  0  0
   -0.4847    3.4325    0.0000 H   0  0  0  0  0  0  0  0  0  0  0  0
    0.5660    3.2302    0.0000 H   0  0  0  0  0  0  0  0  0  0  0  0
    1.0257    1.2544    0.0000 H   0  0  0  0  0  0  0  0  0  0  0  0
    1.3760    3.0743    0.0000 H   0  0  0  0  0  0  0  0  0  0  0  0
    1.7262    2.0633    0.0000 H   0  0  0  0  0  0  0  0  0  0  0  0
   -2.8607   -0.9456    0.0000 H   0  0  0  0  0  0  0  0  0  0  0  0
   -2.7924   -2.7976    0.0000 H   0  0  0  0  0  0  0  0  0  0  0  0
   -3.3612   -1.8913    0.0000 H   0  0  0  0  0  0  0  0  0  0  0  0
   -2.7671   -2.8311    0.0000 H   0  0  0  0  0  0  0  0  0  0  0  0
   -1.0034   -3.4004    0.0000 H   0  0  0  0  0  0  0  0  0  0  0  0
   -2.0496   -3.6249    0.0000 H   0  0  0  0  0  0  0  0  0  0  0  0
  1  5  1  0  0  0  0
  1 50  1  0  0  0  0
  1 51  1  0  0  0  0
  2  1  1  0  0  0  0
  2  3  1  0  0  0  0
  2 47  1  0  0  0  0
  2 52  1  1  0  0  0
  3  4  1  0  0  0  0
  3 47  1  0  0  0  0
  3 53  1  1  0  0  0
  4  5  1  0  0  0  0
  4 31  1  0  0  0  0
  4 54  1  0  0  0  0
  5  6  1  0  0  0  0
  6  7  2  0  0  0  0
  6  8  1  0  0  0  0
  8  9  1  0  0  0  0
  8 13  1  0  0  0  0
  8 55  1  0  0  0  0
  9 10  1  0  0  0  0
  9 11  1  0  0  0  0
  9 12  1  0  0  0  0
 10 56  1  0  0  0  0
 10 57  1  0  0  0  0
 10 58  1  0  0  0  0
 11 59  1  0  0  0  0
 11 60  1  0  0  0  0
 11 61  1  0  0  0  0
 12 62  1  0  0  0  0
 12 63  1  0  0  0  0
 12 64  1  0  0  0  0
 13 14  1  0  0  0  0
 13 65  1  0  0  0  0
 14 15  2  0  0  0  0
 14 16  1  0  0  0  0
 16 17  1  0  0  0  0
 16 66  1  0  0  0  0
 17 18  1  0  0  0  0
 17 22  1  0  0  0  0
 17 23  1  0  0  0  0
 18 19  1  0  0  0  0
 18 67  1  0  0  0  0
 18 68  1  0  0  0  0
 19 20  1  0  0  0  0
 19 69  1  0  0  0  0
 19 70  1  0  0  0  0
 20 21  1  0  0  0  0
 20 71  1  0  0  0  0
 20 72  1  0  0  0  0
 21 22  1  0  0  0  0
 21 73  1  0  0  0  0
 21 74  1  0  0  0  0
 22 75  1  0  0  0  0
 22 76  1  0  0  0  0
 23 24  1  0  0  0  0
 23 77  1  0  0  0  0
 23 78  1  0  0  0  0
 24 25  2  0  0  0  0
 24 26  2  0  0  0  0
 24 27  1  0  0  0  0
 27 28  1  0  0  0  0
 27 29  1  0  0  0  0
 27 30  1  0  0  0  0
 28 79  1  0  0  0  0
 28 80  1  0  0  0  0
 28 81  1  0  0  0  0
 29 82  1  0  0  0  0
 29 83  1  0  0  0  0
 29 84  1  0  0  0  0
 30 85  1  0  0  0  0
 30 86  1  0  0  0  0
 30 87  1  0  0  0  0
 31 32  2  0  0  0  0
 31 33  1  0  0  0  0
 33 34  1  0  0  0  0
 33 88  1  0  0  0  0
 34 35  1  0  0  0  0
 34 43  1  0  0  0  0
 34 89  1  0  0  0  0
 35 36  2  0  0  0  0
 35 37  1  0  0  0  0
 37 38  2  0  0  0  0
 37 39  1  0  0  0  0
 39 40  1  0  0  0  0
 39 90  1  0  0  0  0
 40 41  1  0  0  0  0
 40 42  1  0  0  0  0
 40 91  1  0  0  0  0
 41 42  1  0  0  0  0
 41 92  1  0  0  0  0
 41 93  1  0  0  0  0
 42 94  1  0  0  0  0
 42 95  1  0  0  0  0
 43 44  1  0  0  0  0
 43 96  1  0  0  0  0
 43 97  1  0  0  0  0
 44 45  1  0  0  0  0
 44 98  1  0  0  0  0
 44 99  1  0  0  0  0
 45 46  1  0  0  0  0
 45100  1  0  0  0  0
 45101  1  0  0  0  0
 46102  1  0  0  0  0
 46103  1  0  0  0  0
 46104  1  0  0  0  0
 47 48  1  0  0  0  0
 47 49  1  0  0  0  0
 48105  1  0  0  0  0
 48106  1  0  0  0  0
 48107  1  0  0  0  0
 49108  1  0  0  0  0
 49109  1  0  0  0  0
 49110  1  0  0  0  0
M  END
>  <DRUGBANK_ID>
DB14760

>  <COMMON_NAME>
Narlaprevir

>  <CAS_NUMBER>
865466-24-6

>  <UNII>
2857LA2O07

>  <SYNONYMS>
Narlaprevir

$$$$
