
 OpenBabel10282417072D

 90 94  0  0  1  0  0  0  0  0999 V2000
    2.6632   -1.8105    0.0000 N   0  0  0  0  0  0  0  0  0  0  0  0
    3.0894   -1.1041    0.0000 C   0  0  0  0  0  0  0  0  0  0  0  0
    2.6908   -0.3818    0.0000 O   0  0  0  0  0  0  0  0  0  0  0  0
    3.9142   -1.1201    0.0000 C   0  0  0  0  0  0  0  0  0  0  0  0
    4.3129   -1.8424    0.0000 C   0  0  2  0  0  0  0  0  0  0  0  0
    3.8867   -2.5487    0.0000 N   0  0  0  0  0  0  0  0  0  0  0  0
    3.0618   -2.5328    0.0000 C   0  0  0  0  0  0  0  0  0  0  0  0
    2.3148   -2.1828    0.0000 O   0  0  0  0  0  0  0  0  0  0  0  0
    2.6356   -3.2392    0.0000 C   0  0  2  0  0  0  0  0  0  0  0  0
    1.8136   -3.3096    0.0000 C   0  0  0  0  0  0  0  0  0  0  0  0
    1.6265   -4.1131    0.0000 C   0  0  0  0  0  0  0  0  0  0  0  0
    2.3329   -4.5393    0.0000 C   0  0  0  0  0  0  0  0  0  0  0  0
    2.4033   -5.3613    0.0000 O   0  0  0  0  0  0  0  0  0  0  0  0
    2.9565   -3.9992    0.0000 N   0  0  0  0  0  0  0  0  0  0  0  0
    5.1377   -1.8583    0.0000 C   0  0  0  0  0  0  0  0  0  0  0  0
    5.5363   -2.5806    0.0000 O   0  0  0  0  0  0  0  0  0  0  0  0
    5.5639   -1.1519    0.0000 N   0  0  0  0  0  0  0  0  0  0  0  0
    5.2430   -0.3919    0.0000 C   0  0  0  0  0  0  0  0  0  0  0  0
    5.8666    0.1482    0.0000 C   0  0  0  0  0  0  0  0  0  0  0  0
    6.5730   -0.2781    0.0000 C   0  0  0  0  0  0  0  0  0  0  0  0
    6.3859   -1.0816    0.0000 C   0  0  1  0  0  0  0  0  0  0  0  0
    6.9260   -1.7052    0.0000 C   0  0  0  0  0  0  0  0  0  0  0  0
    6.6560   -2.4848    0.0000 O   0  0  0  0  0  0  0  0  0  0  0  0
    7.7362   -1.5493    0.0000 N   0  0  0  0  0  0  0  0  0  0  0  0
    8.2762   -2.1729    0.0000 C   0  0  2  0  0  0  0  0  0  0  0  0
    8.0062   -2.9525    0.0000 C   0  0  0  0  0  0  0  0  0  0  0  0
    8.5463   -3.5761    0.0000 C   0  0  0  0  0  0  0  0  0  0  0  0
    9.3564   -3.4202    0.0000 C   0  0  0  0  0  0  0  0  0  0  0  0
    9.8965   -4.0439    0.0000 C   0  0  0  0  0  0  0  0  0  0  0  0
    9.6265   -4.8234    0.0000 C   0  0  0  0  0  0  0  0  0  0  0  0
   10.1666   -5.4471    0.0000 O   0  0  0  0  0  0  0  0  0  0  0  0
    8.8163   -4.9793    0.0000 C   0  0  0  0  0  0  0  0  0  0  0  0
    8.2762   -4.3557    0.0000 C   0  0  0  0  0  0  0  0  0  0  0  0
    9.0864   -2.0170    0.0000 C   0  0  0  0  0  0  0  0  0  0  0  0
    9.3564   -1.2375    0.0000 O   0  0  0  0  0  0  0  0  0  0  0  0
    9.6265   -2.6407    0.0000 N   0  0  0  0  0  0  0  0  0  0  0  0
   10.4366   -2.4848    0.0000 C   0  0  2  0  0  0  0  0  0  0  0  0
   10.9767   -3.1084    0.0000 C   0  0  0  0  0  0  0  0  0  0  0  0
   11.7868   -2.9525    0.0000 C   0  0  0  0  0  0  0  0  0  0  0  0
   12.1369   -2.2054    0.0000 C   0  0  0  0  0  0  0  0  0  0  0  0
   12.9555   -2.3075    0.0000 N   0  0  0  0  0  0  0  0  0  0  0  0
   13.1114   -3.1176    0.0000 C   0  0  0  0  0  0  0  0  0  0  0  0
   13.8178   -3.5439    0.0000 C   0  0  0  0  0  0  0  0  0  0  0  0
   13.8019   -4.3687    0.0000 C   0  0  0  0  0  0  0  0  0  0  0  0
   13.0796   -4.7673    0.0000 C   0  0  0  0  0  0  0  0  0  0  0  0
   12.3732   -4.3411    0.0000 C   0  0  0  0  0  0  0  0  0  0  0  0
   12.3891   -3.5163    0.0000 C   0  0  0  0  0  0  0  0  0  0  0  0
   10.7066   -1.7052    0.0000 C   0  0  0  0  0  0  0  0  0  0  0  0
   10.1666   -1.0816    0.0000 N   0  0  0  0  0  0  0  0  0  0  0  0
   11.5168   -1.5493    0.0000 O   0  0  0  0  0  0  0  0  0  0  0  0
    1.6789   -1.7915    0.0000 H   0  0  0  0  0  0  0  0  0  0  0  0
    3.1389   -2.6724    0.0000 H   0  0  0  0  0  0  0  0  0  0  0  0
    4.4670   -0.2040    0.0000 H   0  0  0  0  0  0  0  0  0  0  0  0
    4.9840   -1.1407    0.0000 H   0  0  0  0  0  0  0  0  0  0  0  0
    3.2431   -1.8218    0.0000 H   0  0  0  0  0  0  0  0  0  0  0  0
    4.3624   -3.4106    0.0000 H   0  0  0  0  0  0  0  0  0  0  0  0
    2.0702   -2.3308    0.0000 H   0  0  0  0  0  0  0  0  0  0  0  0
    1.1131   -2.5008    0.0000 H   0  0  0  0  0  0  0  0  0  0  0  0
    0.7749   -3.5665    0.0000 H   0  0  0  0  0  0  0  0  0  0  0  0
    0.6408   -4.5294    0.0000 H   0  0  0  0  0  0  0  0  0  0  0  0
    1.5499   -5.1804    0.0000 H   0  0  0  0  0  0  0  0  0  0  0  0
    3.9154   -4.2224    0.0000 H   0  0  0  0  0  0  0  0  0  0  0  0
    4.2009   -0.1493    0.0000 H   0  0  0  0  0  0  0  0  0  0  0  0
    4.9861    0.6468    0.0000 H   0  0  0  0  0  0  0  0  0  0  0  0
    5.7753    1.2143    0.0000 H   0  0  0  0  0  0  0  0  0  0  0  0
    6.7751    0.7135    0.0000 H   0  0  0  0  0  0  0  0  0  0  0  0
    7.5587    0.1381    0.0000 H   0  0  0  0  0  0  0  0  0  0  0  0
    7.3914   -0.9674    0.0000 H   0  0  0  0  0  0  0  0  0  0  0  0
    7.4246   -0.8247    0.0000 H   0  0  0  0  0  0  0  0  0  0  0  0
    8.0585   -0.6190    0.0000 H   0  0  0  0  0  0  0  0  0  0  0  0
    7.2255   -2.3751    0.0000 H   0  0  0  0  0  0  0  0  0  0  0  0
    6.9555   -3.1548    0.0000 H   0  0  0  0  0  0  0  0  0  0  0  0
    7.6560   -3.9636    0.0000 H   0  0  0  0  0  0  0  0  0  0  0  0
    9.6942   -2.4451    0.0000 H   0  0  0  0  0  0  0  0  0  0  0  0
   10.9099   -3.8489    0.0000 H   0  0  0  0  0  0  0  0  0  0  0  0
    9.8599   -6.3325    0.0000 H   0  0  0  0  0  0  0  0  0  0  0  0
    8.4785   -5.9545    0.0000 H   0  0  0  0  0  0  0  0  0  0  0  0
    7.2628   -4.5507    0.0000 H   0  0  0  0  0  0  0  0  0  0  0  0
    9.3042   -3.5710    0.0000 H   0  0  0  0  0  0  0  0  0  0  0  0
   10.0864   -3.4959    0.0000 H   0  0  0  0  0  0  0  0  0  0  0  0
   10.6265   -4.1195    0.0000 H   0  0  0  0  0  0  0  0  0  0  0  0
   11.6772   -3.9172    0.0000 H   0  0  0  0  0  0  0  0  0  0  0  0
   11.6383   -1.3018    0.0000 H   0  0  0  0  0  0  0  0  0  0  0  0
   13.6283   -1.5888    0.0000 H   0  0  0  0  0  0  0  0  0  0  0  0
   14.7213   -3.0453    0.0000 H   0  0  0  0  0  0  0  0  0  0  0  0
   14.6855   -4.9019    0.0000 H   0  0  0  0  0  0  0  0  0  0  0  0
   13.0597   -5.7991    0.0000 H   0  0  0  0  0  0  0  0  0  0  0  0
   11.4697   -4.8398    0.0000 H   0  0  0  0  0  0  0  0  0  0  0  0
   10.4889   -0.1514    0.0000 H   0  0  0  0  0  0  0  0  0  0  0  0
    9.1998   -1.2676    0.0000 H   0  0  0  0  0  0  0  0  0  0  0  0
  1  2  1  0  0  0  0
  1 51  1  0  0  0  0
  1 52  1  0  0  0  0
  2  3  2  0  0  0  0
  2  4  1  0  0  0  0
  4 53  1  0  0  0  0
  4 54  1  0  0  0  0
  5  4  1  0  0  0  0
  5  6  1  0  0  0  0
  5 15  1  0  0  0  0
  5 55  1  6  0  0  0
  6  7  1  0  0  0  0
  6 56  1  0  0  0  0
  7  8  2  0  0  0  0
  9  7  1  0  0  0  0
  9 10  1  0  0  0  0
  9 14  1  0  0  0  0
  9 57  1  6  0  0  0
 10 11  1  0  0  0  0
 10 58  1  0  0  0  0
 10 59  1  0  0  0  0
 11 12  1  0  0  0  0
 11 60  1  0  0  0  0
 11 61  1  0  0  0  0
 12 13  2  0  0  0  0
 12 14  1  0  0  0  0
 14 62  1  0  0  0  0
 15 16  2  0  0  0  0
 15 17  1  0  0  0  0
 17 18  1  0  0  0  0
 18 19  1  0  0  0  0
 18 63  1  0  0  0  0
 18 64  1  0  0  0  0
 19 20  1  0  0  0  0
 19 65  1  0  0  0  0
 19 66  1  0  0  0  0
 20 67  1  0  0  0  0
 20 68  1  0  0  0  0
 21 20  1  0  0  0  0
 21 17  1  0  0  0  0
 21 22  1  0  0  0  0
 21 69  1  6  0  0  0
 22 23  2  0  0  0  0
 22 24  1  0  0  0  0
 24 70  1  0  0  0  0
 25 24  1  0  0  0  0
 25 26  1  0  0  0  0
 25 34  1  0  0  0  0
 25 71  1  6  0  0  0
 26 27  1  0  0  0  0
 26 72  1  0  0  0  0
 26 73  1  0  0  0  0
 27 28  2  0  0  0  0
 27 33  1  0  0  0  0
 28 29  1  0  0  0  0
 28 74  1  0  0  0  0
 29 30  2  0  0  0  0
 29 75  1  0  0  0  0
 30 31  1  0  0  0  0
 30 32  1  0  0  0  0
 31 76  1  0  0  0  0
 32 33  2  0  0  0  0
 32 77  1  0  0  0  0
 33 78  1  0  0  0  0
 34 35  2  0  0  0  0
 34 36  1  0  0  0  0
 36 79  1  0  0  0  0
 37 36  1  0  0  0  0
 37 38  1  0  0  0  0
 37 48  1  0  0  0  0
 37 80  1  6  0  0  0
 38 39  1  0  0  0  0
 38 81  1  0  0  0  0
 38 82  1  0  0  0  0
 39 40  2  0  0  0  0
 39 47  1  0  0  0  0
 40 41  1  0  0  0  0
 40 83  1  0  0  0  0
 41 42  1  0  0  0  0
 41 84  1  0  0  0  0
 42 43  2  0  0  0  0
 42 47  1  0  0  0  0
 43 44  1  0  0  0  0
 43 85  1  0  0  0  0
 44 45  2  0  0  0  0
 44 86  1  0  0  0  0
 45 46  1  0  0  0  0
 45 87  1  0  0  0  0
 46 47  2  0  0  0  0
 46 88  1  0  0  0  0
 48 49  1  0  0  0  0
 48 50  2  0  0  0  0
 49 89  1  0  0  0  0
 49 90  1  0  0  0  0
M  END
>  <DRUGBANK_ID>
DB18527

>  <COMMON_NAME>
JAK4D

>  <CAS_NUMBER>
882400-49-9

>  <UNII>
AVX7AUJ938

>  <SYNONYMS>
5-oxo-l-prolyl-l-asparaginyl-l-prolyl-d-tyrosyl-d-tryptophanamide; L-pyroglutamyl-l-asparaginyl-l-prolyl-d-tyrosyl-d-tryptophan amide

$$$$
