1ZN
 OpenBabel10282417072D

 53 53  0  0  0  0  0  0  0  0999 V2000
   -1.3959    0.0111    0.0000 C   0  0  0  0  0  0  0  0  0  0  0  0
   -1.3959   -0.8139    0.0000 O   0  0  0  0  0  0  0  0  0  0  0  0
   -0.6815   -1.2264    0.0000 C   0  0  1  0  0  0  0  0  0  0  0  0
   -0.6815   -2.0514    0.0000 C   0  0  0  0  0  0  0  0  0  0  0  0
   -1.3959   -2.4639    0.0000 C   0  0  0  0  0  0  0  0  0  0  0  0
   -1.3959   -3.2889    0.0000 C   0  0  0  0  0  0  0  0  0  0  0  0
   -2.1104   -3.7014    0.0000 C   0  0  0  0  0  0  0  0  0  0  0  0
   -2.8249   -3.2889    0.0000 C   0  0  0  0  0  0  0  0  0  0  0  0
   -2.8249   -2.4639    0.0000 C   0  0  0  0  0  0  0  0  0  0  0  0
   -2.1104   -2.0514    0.0000 C   0  0  0  0  0  0  0  0  0  0  0  0
    0.0330   -0.8139    0.0000 C   0  0  1  0  0  0  0  0  0  0  0  0
    0.7475   -1.2264    0.0000 C   0  0  0  0  0  0  0  0  0  0  0  0
    0.0330    0.0111    0.0000 C   0  0  0  0  0  0  0  0  0  0  0  0
    0.7475    0.4236    0.0000 C   0  0  0  0  0  0  0  0  0  0  0  0
    1.4619    0.0111    0.0000 C   0  0  0  0  0  0  0  0  0  0  0  0
    0.7475    1.2486    0.0000 C   0  0  0  0  0  0  0  0  0  0  0  0
    1.4619    1.6611    0.0000 C   0  0  0  0  0  0  0  0  0  0  0  0
    1.4619    2.4861    0.0000 C   0  0  2  0  0  0  0  0  0  0  0  0
    2.1764    2.8986    0.0000 N   0  0  0  0  0  0  0  0  0  0  0  0
    0.7475    2.8986    0.0000 C   0  0  2  0  0  0  0  0  0  0  0  0
    0.0330    2.4861    0.0000 C   0  0  0  0  0  0  0  0  0  0  0  0
    0.7475    3.7236    0.0000 C   0  0  0  0  0  0  0  0  0  0  0  0
    0.0330    4.1361    0.0000 O   0  0  0  0  0  0  0  0  0  0  0  0
    1.4619    4.1361    0.0000 O   0  0  0  0  0  0  0  0  0  0  0  0
   -1.1872   -1.5184    0.0000 H   0  0  0  0  0  0  0  0  0  0  0  0
    0.0330   -1.3978    0.0000 H   0  0  0  0  0  0  0  0  0  0  0  0
    1.9676    2.1941    0.0000 H   0  0  0  0  0  0  0  0  0  0  0  0
    0.7475    2.3147    0.0000 H   0  0  0  0  0  0  0  0  0  0  0  0
   -0.4693    0.5461    0.0000 H   0  0  0  0  0  0  0  0  0  0  0  0
   -2.3225    0.5461    0.0000 H   0  0  0  0  0  0  0  0  0  0  0  0
   -1.3959    1.0811    0.0000 H   0  0  0  0  0  0  0  0  0  0  0  0
    0.2452   -2.5864    0.0000 H   0  0  0  0  0  0  0  0  0  0  0  0
   -0.6815   -3.1214    0.0000 H   0  0  0  0  0  0  0  0  0  0  0  0
   -0.5022   -3.8049    0.0000 H   0  0  0  0  0  0  0  0  0  0  0  0
   -2.1104   -4.7334    0.0000 H   0  0  0  0  0  0  0  0  0  0  0  0
   -3.7186   -3.8049    0.0000 H   0  0  0  0  0  0  0  0  0  0  0  0
   -3.7186   -1.9479    0.0000 H   0  0  0  0  0  0  0  0  0  0  0  0
   -2.1104   -1.0194    0.0000 H   0  0  0  0  0  0  0  0  0  0  0  0
    0.7475   -2.2964    0.0000 H   0  0  0  0  0  0  0  0  0  0  0  0
    1.6741   -0.6914    0.0000 H   0  0  0  0  0  0  0  0  0  0  0  0
    1.6742   -1.7614    0.0000 H   0  0  0  0  0  0  0  0  0  0  0  0
   -0.8607    0.5271    0.0000 H   0  0  0  0  0  0  0  0  0  0  0  0
    1.4619   -1.0589    0.0000 H   0  0  0  0  0  0  0  0  0  0  0  0
    2.3886    0.5461    0.0000 H   0  0  0  0  0  0  0  0  0  0  0  0
    2.3885   -0.5239    0.0000 H   0  0  0  0  0  0  0  0  0  0  0  0
   -0.1462    1.7646    0.0000 H   0  0  0  0  0  0  0  0  0  0  0  0
    2.3556    1.1451    0.0000 H   0  0  0  0  0  0  0  0  0  0  0  0
    3.0597    2.3886    0.0000 H   0  0  0  0  0  0  0  0  0  0  0  0
    2.1764    3.9186    0.0000 H   0  0  0  0  0  0  0  0  0  0  0  0
   -0.8936    3.0211    0.0000 H   0  0  0  0  0  0  0  0  0  0  0  0
    0.0330    1.4161    0.0000 H   0  0  0  0  0  0  0  0  0  0  0  0
   -0.8937    1.9511    0.0000 H   0  0  0  0  0  0  0  0  0  0  0  0
    0.0330    5.0731    0.0000 H   0  0  0  0  0  0  0  0  0  0  0  0
  1  2  1  0  0  0  0
  1 29  1  0  0  0  0
  1 30  1  0  0  0  0
  1 31  1  0  0  0  0
  3  2  1  0  0  0  0
  3  4  1  0  0  0  0
  3 11  1  0  0  0  0
  3 25  1  1  0  0  0
  4  5  1  0  0  0  0
  4 32  1  0  0  0  0
  4 33  1  0  0  0  0
  5  6  2  0  0  0  0
  5 10  1  0  0  0  0
  6  7  1  0  0  0  0
  6 34  1  0  0  0  0
  7  8  2  0  0  0  0
  7 35  1  0  0  0  0
  8  9  1  0  0  0  0
  8 36  1  0  0  0  0
  9 10  2  0  0  0  0
  9 37  1  0  0  0  0
 10 38  1  0  0  0  0
 11 12  1  0  0  0  0
 11 13  1  0  0  0  0
 11 26  1  1  0  0  0
 12 39  1  0  0  0  0
 12 40  1  0  0  0  0
 12 41  1  0  0  0  0
 13 14  2  0  0  0  0
 13 42  1  0  0  0  0
 14 15  1  0  0  0  0
 14 16  1  0  0  0  0
 15 43  1  0  0  0  0
 15 44  1  0  0  0  0
 15 45  1  0  0  0  0
 16 17  2  0  0  0  0
 16 46  1  0  0  0  0
 17 18  1  0  0  0  0
 17 47  1  0  0  0  0
 18 19  1  0  0  0  0
 18 20  1  0  0  0  0
 18 27  1  6  0  0  0
 19 48  1  0  0  0  0
 19 49  1  0  0  0  0
 20 21  1  0  0  0  0
 20 22  1  0  0  0  0
 20 28  1  1  0  0  0
 21 50  1  0  0  0  0
 21 51  1  0  0  0  0
 21 52  1  0  0  0  0
 22 23  1  0  0  0  0
 22 24  2  0  0  0  0
 23 53  1  0  0  0  0
M  END
>  <DRUGBANK_ID>
DB06905

>  <COMMON_NAME>
(2S,3S,4E,6E,8S,9S)-3-amino-9-methoxy-2,6,8-trimethyl-10-phenyldeca-4,6-dienoic acid

>  <UNII>
VKL2NS279Z

$$$$
