AD7
 OpenBabel10282417072D

 68 69  0  0  0  0  0  0  0  0999 V2000
    4.9880   -0.1407    0.0000 C   0  0  0  0  0  0  0  0  0  0  0  0
    4.2735   -0.5532    0.0000 C   0  0  0  0  0  0  0  0  0  0  0  0
    3.5590   -0.1407    0.0000 C   0  0  0  0  0  0  0  0  0  0  0  0
    2.8446   -0.5532    0.0000 C   0  0  0  0  0  0  0  0  0  0  0  0
    2.1301   -0.1407    0.0000 C   0  0  0  0  0  0  0  0  0  0  0  0
    1.4156   -0.5532    0.0000 C   0  0  0  0  0  0  0  0  0  0  0  0
    0.7012   -0.1407    0.0000 O   0  0  0  0  0  0  0  0  0  0  0  0
   -0.0133   -0.5532    0.0000 C   0  0  2  0  0  0  0  0  0  0  0  0
   -0.0133   -1.3782    0.0000 O   0  0  0  0  0  0  0  0  0  0  0  0
   -0.7278   -1.7907    0.0000 C   0  0  2  0  0  0  0  0  0  0  0  0
   -0.7278   -2.6157    0.0000 C   0  0  0  0  0  0  0  0  0  0  0  0
   -1.4423   -3.0282    0.0000 O   0  0  0  0  0  0  0  0  0  0  0  0
   -1.4423   -1.3782    0.0000 C   0  0  2  0  0  0  0  0  0  0  0  0
   -2.1567   -1.7907    0.0000 O   0  0  0  0  0  0  0  0  0  0  0  0
   -1.4423   -0.5532    0.0000 C   0  0  2  0  0  0  0  0  0  0  0  0
   -2.1567   -0.1407    0.0000 N   0  0  0  0  0  0  0  0  0  0  0  0
   -0.7278   -0.1407    0.0000 C   0  0  1  0  0  0  0  0  0  0  0  0
   -0.7278    0.6843    0.0000 O   0  0  0  0  0  0  0  0  0  0  0  0
   -1.4423    1.0968    0.0000 C   0  0  1  0  0  0  0  0  0  0  0  0
   -2.1567    0.6843    0.0000 C   0  0  0  0  0  0  0  0  0  0  0  0
   -1.4423    1.9218    0.0000 O   0  0  0  0  0  0  0  0  0  0  0  0
   -2.1567    2.3343    0.0000 C   0  0  1  0  0  0  0  0  0  0  0  0
   -2.1567    3.1593    0.0000 C   0  0  0  0  0  0  0  0  0  0  0  0
   -2.8712    1.9218    0.0000 C   0  0  1  0  0  0  0  0  0  0  0  0
   -3.5857    2.3343    0.0000 O   0  0  0  0  0  0  0  0  0  0  0  0
   -2.8712    1.0968    0.0000 C   0  0  1  0  0  0  0  0  0  0  0  0
   -3.5857    0.6843    0.0000 O   0  0  0  0  0  0  0  0  0  0  0  0
    5.7024   -0.5532    0.0000 C   0  0  0  0  0  0  0  0  0  0  0  0
    0.4924   -0.8452    0.0000 H   0  0  0  0  0  0  0  0  0  0  0  0
   -0.2221   -2.0827    0.0000 H   0  0  0  0  0  0  0  0  0  0  0  0
   -1.4423   -1.9622    0.0000 H   0  0  0  0  0  0  0  0  0  0  0  0
   -1.9480   -0.8452    0.0000 H   0  0  0  0  0  0  0  0  0  0  0  0
   -0.2221    0.1512    0.0000 H   0  0  0  0  0  0  0  0  0  0  0  0
   -1.4423    0.5128    0.0000 H   0  0  0  0  0  0  0  0  0  0  0  0
   -1.6510    2.6262    0.0000 H   0  0  0  0  0  0  0  0  0  0  0  0
   -2.8712    2.5057    0.0000 H   0  0  0  0  0  0  0  0  0  0  0  0
   -2.8712    0.5128    0.0000 H   0  0  0  0  0  0  0  0  0  0  0  0
    6.4169   -0.1407    0.0000 C   0  0  0  0  0  0  0  0  0  0  0  0
    4.9880    0.9293    0.0000 H   0  0  0  0  0  0  0  0  0  0  0  0
    5.9147    0.3943    0.0000 H   0  0  0  0  0  0  0  0  0  0  0  0
    4.2735   -1.6232    0.0000 H   0  0  0  0  0  0  0  0  0  0  0  0
    3.3469   -1.0882    0.0000 H   0  0  0  0  0  0  0  0  0  0  0  0
    3.5590    0.9293    0.0000 H   0  0  0  0  0  0  0  0  0  0  0  0
    2.6323    0.3943    0.0000 H   0  0  0  0  0  0  0  0  0  0  0  0
    2.8446   -1.6232    0.0000 H   0  0  0  0  0  0  0  0  0  0  0  0
    1.9180   -1.0882    0.0000 H   0  0  0  0  0  0  0  0  0  0  0  0
    2.1301    0.9293    0.0000 H   0  0  0  0  0  0  0  0  0  0  0  0
    1.2035    0.3943    0.0000 H   0  0  0  0  0  0  0  0  0  0  0  0
    1.4156   -1.6232    0.0000 H   0  0  0  0  0  0  0  0  0  0  0  0
    0.4889   -1.0882    0.0000 H   0  0  0  0  0  0  0  0  0  0  0  0
    0.1988   -3.1507    0.0000 H   0  0  0  0  0  0  0  0  0  0  0  0
   -0.7278   -3.6857    0.0000 H   0  0  0  0  0  0  0  0  0  0  0  0
   -2.2823   -2.5432    0.0000 H   0  0  0  0  0  0  0  0  0  0  0  0
   -2.9968   -1.3057    0.0000 H   0  0  0  0  0  0  0  0  0  0  0  0
   -2.1567    0.8793    0.0000 H   0  0  0  0  0  0  0  0  0  0  0  0
   -3.0401   -0.6507    0.0000 H   0  0  0  0  0  0  0  0  0  0  0  0
   -2.1567   -0.3857    0.0000 H   0  0  0  0  0  0  0  0  0  0  0  0
   -3.0833    0.1493    0.0000 H   0  0  0  0  0  0  0  0  0  0  0  0
   -1.2301    3.6943    0.0000 H   0  0  0  0  0  0  0  0  0  0  0  0
   -3.0833    3.6943    0.0000 H   0  0  0  0  0  0  0  0  0  0  0  0
   -2.1567    4.2293    0.0000 H   0  0  0  0  0  0  0  0  0  0  0  0
   -3.5857    3.3043    0.0000 H   0  0  0  0  0  0  0  0  0  0  0  0
   -4.4257    1.1693    0.0000 H   0  0  0  0  0  0  0  0  0  0  0  0
    5.7024   -1.6232    0.0000 H   0  0  0  0  0  0  0  0  0  0  0  0
    6.6290   -1.0882    0.0000 H   0  0  0  0  0  0  0  0  0  0  0  0
    7.3435   -0.6757    0.0000 H   0  0  0  0  0  0  0  0  0  0  0  0
    6.4169    0.9293    0.0000 H   0  0  0  0  0  0  0  0  0  0  0  0
    7.3436    0.3943    0.0000 H   0  0  0  0  0  0  0  0  0  0  0  0
  1  2  1  0  0  0  0
  1 28  1  0  0  0  0
  1 39  1  0  0  0  0
  1 40  1  0  0  0  0
  2  3  1  0  0  0  0
  2 41  1  0  0  0  0
  2 42  1  0  0  0  0
  3  4  1  0  0  0  0
  3 43  1  0  0  0  0
  3 44  1  0  0  0  0
  4  5  1  0  0  0  0
  4 45  1  0  0  0  0
  4 46  1  0  0  0  0
  5  6  1  0  0  0  0
  5 47  1  0  0  0  0
  5 48  1  0  0  0  0
  6  7  1  0  0  0  0
  6 49  1  0  0  0  0
  6 50  1  0  0  0  0
  8  7  1  0  0  0  0
  8  9  1  0  0  0  0
  8 17  1  0  0  0  0
  8 29  1  1  0  0  0
  9 10  1  0  0  0  0
 10 11  1  0  0  0  0
 10 13  1  0  0  0  0
 10 30  1  1  0  0  0
 11 12  1  0  0  0  0
 11 51  1  0  0  0  0
 11 52  1  0  0  0  0
 12 53  1  0  0  0  0
 13 14  1  0  0  0  0
 13 15  1  0  0  0  0
 13 31  1  1  0  0  0
 14 54  1  0  0  0  0
 15 16  1  0  0  0  0
 15 17  1  0  0  0  0
 15 32  1  1  0  0  0
 16 55  1  0  0  0  0
 16 56  1  0  0  0  0
 17 18  1  0  0  0  0
 17 33  1  6  0  0  0
 19 18  1  0  0  0  0
 19 20  1  0  0  0  0
 19 21  1  0  0  0  0
 19 34  1  6  0  0  0
 20 26  1  0  0  0  0
 20 57  1  0  0  0  0
 20 58  1  0  0  0  0
 21 22  1  0  0  0  0
 22 23  1  0  0  0  0
 22 24  1  0  0  0  0
 22 35  1  1  0  0  0
 23 59  1  0  0  0  0
 23 60  1  0  0  0  0
 23 61  1  0  0  0  0
 24 25  1  0  0  0  0
 24 26  1  0  0  0  0
 24 36  1  1  0  0  0
 25 62  1  0  0  0  0
 26 27  1  0  0  0  0
 26 37  1  1  0  0  0
 27 63  1  0  0  0  0
 28 38  1  0  0  0  0
 28 64  1  0  0  0  0
 28 65  1  0  0  0  0
 38 66  1  0  0  0  0
 38 67  1  0  0  0  0
 38 68  1  0  0  0  0
M  END
>  <DRUGBANK_ID>
DB07341

>  <COMMON_NAME>
octyl 3-amino-3-deoxy-2-O-(2,6-dideoxy-alpha-L-lyxo-hexopyranosyl)-beta-D-galactopyranoside

$$$$
