
 OpenBabel10282417072D

 34 33  0  0  0  0  0  0  0  0999 V2000
    0.8245    0.3009    0.0000 C   0  0  0  0  0  0  0  0  0  0  0  0
    1.2368    1.0157    0.0000 C   0  0  0  0  0  0  0  0  0  0  0  0
    0.0000    0.3009    0.0000 C   0  0  1  0  0  0  0  0  0  0  0  0
   -1.2369    1.0157    0.0000 N   0  3  0  0  0  0  0  0  0  0  0  0
    0.0000   -1.1283    0.0000 C   0  0  0  0  0  0  0  0  0  0  0  0
   -0.4123   -0.4137    0.0000 O   0  0  0  0  0  0  0  0  0  0  0  0
    0.8245    1.7303    0.0000 O   0  0  0  0  0  0  0  0  0  0  0  0
    2.0614    1.0157    0.0000 O   0  5  0  0  0  0  0  0  0  0  0  0
   -0.4123   -1.8402    0.0000 O   0  0  0  0  0  0  0  0  0  0  0  0
   -0.4123    1.0157    0.0000 C   0  0  0  0  0  0  0  0  0  0  0  0
   -1.2369    0.1910    0.0000 C   0  0  0  0  0  0  0  0  0  0  0  0
   -1.2369    1.8402    0.0000 C   0  0  0  0  0  0  0  0  0  0  0  0
   -2.0614    1.0157    0.0000 C   0  0  0  0  0  0  0  0  0  0  0  0
    0.8245   -1.1283    0.0000 C   0  0  0  0  0  0  0  0  0  0  0  0
    1.2368   -0.4137    0.0000 C   0  0  0  0  0  0  0  0  0  0  0  0
    1.3597   -0.6256    0.0000 H   0  0  0  0  0  0  0  0  0  0  0  0
    0.2896   -0.6258    0.0000 H   0  0  0  0  0  0  0  0  0  0  0  0
    0.5351   -0.6257    0.0000 H   0  0  0  0  0  0  0  0  0  0  0  0
    0.1229    1.9422    0.0000 H   0  0  0  0  0  0  0  0  0  0  0  0
    0.6577    1.0154    0.0000 H   0  0  0  0  0  0  0  0  0  0  0  0
   -2.1635   -0.3440    0.0000 H   0  0  0  0  0  0  0  0  0  0  0  0
   -0.3103   -0.3440    0.0000 H   0  0  0  0  0  0  0  0  0  0  0  0
   -1.2369   -0.8790    0.0000 H   0  0  0  0  0  0  0  0  0  0  0  0
   -0.3103    2.3752    0.0000 H   0  0  0  0  0  0  0  0  0  0  0  0
   -2.1635    2.3752    0.0000 H   0  0  0  0  0  0  0  0  0  0  0  0
   -1.2369    2.9102    0.0000 H   0  0  0  0  0  0  0  0  0  0  0  0
   -2.5964    1.9423    0.0000 H   0  0  0  0  0  0  0  0  0  0  0  0
   -2.5964    0.0891    0.0000 H   0  0  0  0  0  0  0  0  0  0  0  0
   -3.1314    1.0157    0.0000 H   0  0  0  0  0  0  0  0  0  0  0  0
    1.3596   -2.0549    0.0000 H   0  0  0  0  0  0  0  0  0  0  0  0
    1.8945   -1.1281    0.0000 H   0  0  0  0  0  0  0  0  0  0  0  0
    2.3068   -0.4134    0.0000 H   0  0  0  0  0  0  0  0  0  0  0  0
    0.7015    0.5128    0.0000 H   0  0  0  0  0  0  0  0  0  0  0  0
    1.7715    0.5131    0.0000 H   0  0  0  0  0  0  0  0  0  0  0  0
  1 16  1  0  0  0  0
  1 17  1  0  0  0  0
  2  1  1  0  0  0  0
  3  1  1  0  0  0  0
  3  6  1  0  0  0  0
  3 18  1  6  0  0  0
  4 10  1  0  0  0  0
  5  6  1  0  0  0  0
  7  2  2  0  0  0  0
  8  2  1  0  0  0  0
  9  5  2  0  0  0  0
 10  3  1  0  0  0  0
 10 19  1  0  0  0  0
 10 20  1  0  0  0  0
 11  4  1  0  0  0  0
 11 21  1  0  0  0  0
 11 22  1  0  0  0  0
 11 23  1  0  0  0  0
 12  4  1  0  0  0  0
 12 24  1  0  0  0  0
 12 25  1  0  0  0  0
 12 26  1  0  0  0  0
 13  4  1  0  0  0  0
 13 27  1  0  0  0  0
 13 28  1  0  0  0  0
 13 29  1  0  0  0  0
 14  5  1  0  0  0  0
 14 30  1  0  0  0  0
 14 31  1  0  0  0  0
 15 14  1  0  0  0  0
 15 32  1  0  0  0  0
 15 33  1  0  0  0  0
 15 34  1  0  0  0  0
M  CHG  2   4   1   8  -1
M  END
>  <DRUGBANK_ID>
DB15980

>  <COMMON_NAME>
Levocarnitine propionate

>  <CAS_NUMBER>
20064-19-1

>  <UNII>
0HU2UI27HF

>  <SYNONYMS>
L-Carnitine propionate; Propionyl-L-carnitine

$$$$
