
 OpenBabel10282417072D

 71 73  0  0  1  0  0  0  0  0999 V2000
    2.1434   -2.6664    0.0000 C   0  0  0  0  0  0  0  0  0  0  0  0
    1.3184   -2.6664    0.0000 C   0  0  0  0  0  0  0  0  0  0  0  0
    0.9059   -3.3809    0.0000 C   0  0  0  0  0  0  0  0  0  0  0  0
    0.0809   -3.3809    0.0000 C   0  0  0  0  0  0  0  0  0  0  0  0
   -0.3316   -4.0954    0.0000 O   0  0  0  0  0  0  0  0  0  0  0  0
   -0.3316   -2.6664    0.0000 C   0  0  0  0  0  0  0  0  0  0  0  0
   -1.1566   -2.6664    0.0000 O   0  0  0  0  0  0  0  0  0  0  0  0
    0.0809   -1.9520    0.0000 C   0  0  0  0  0  0  0  0  0  0  0  0
    0.9059   -1.9520    0.0000 C   0  0  0  0  0  0  0  0  0  0  0  0
    1.3184   -1.2375    0.0000 C   0  0  0  0  0  0  0  0  0  0  0  0
    0.9059   -0.5230    0.0000 O   0  0  0  0  0  0  0  0  0  0  0  0
    2.1434   -1.2375    0.0000 O   0  0  0  0  0  0  0  0  0  0  0  0
    2.5559   -0.5230    0.0000 C   0  0  0  0  0  0  0  0  0  0  0  0
    3.3809   -0.5230    0.0000 C   0  0  2  0  0  0  0  0  0  0  0  0
    3.7934    0.1914    0.0000 C   0  0  0  0  0  0  0  0  0  0  0  0
    4.6184    0.1914    0.0000 N   0  0  0  0  0  0  0  0  0  0  0  0
    5.0309    0.9059    0.0000 C   0  0  0  0  0  0  0  0  0  0  0  0
    5.7454    0.4934    0.0000 C   0  0  0  0  0  0  0  0  0  0  0  0
    4.3164    1.3184    0.0000 C   0  0  0  0  0  0  0  0  0  0  0  0
    5.4434    1.6204    0.0000 C   0  0  0  0  0  0  0  0  0  0  0  0
    6.2684    1.6204    0.0000 N   0  0  0  0  0  0  0  0  0  0  0  0
    6.6809    2.3349    0.0000 C   0  0  0  0  0  0  0  0  0  0  0  0
    6.2684    3.0493    0.0000 O   0  0  0  0  0  0  0  0  0  0  0  0
    7.5059    2.3349    0.0000 C   0  0  3  0  0  0  0  0  0  0  0  0
    7.9908    3.0023    0.0000 C   0  0  0  0  0  0  0  0  0  0  0  0
    8.7755    2.7474    0.0000 C   0  0  0  0  0  0  0  0  0  0  0  0
    8.7755    1.9224    0.0000 O   0  0  0  0  0  0  0  0  0  0  0  0
    7.9908    1.6674    0.0000 C   0  0  0  0  0  0  0  0  0  0  0  0
    3.7934   -1.2375    0.0000 O   0  0  0  0  0  0  0  0  0  0  0  0
    4.6184   -1.2375    0.0000 C   0  0  0  0  0  0  0  0  0  0  0  0
    5.0309   -0.5230    0.0000 O   0  0  0  0  0  0  0  0  0  0  0  0
    5.0309   -1.9520    0.0000 C   0  0  0  0  0  0  0  0  0  0  0  0
    4.3989   -2.4823    0.0000 C   0  0  0  0  0  0  0  0  0  0  0  0
    5.8062   -1.6698    0.0000 C   0  0  0  0  0  0  0  0  0  0  0  0
    5.6629   -2.4823    0.0000 C   0  0  0  0  0  0  0  0  0  0  0  0
    2.6784   -3.5930    0.0000 H   0  0  0  0  0  0  0  0  0  0  0  0
    2.6784   -1.7398    0.0000 H   0  0  0  0  0  0  0  0  0  0  0  0
    3.2134   -2.6664    0.0000 H   0  0  0  0  0  0  0  0  0  0  0  0
    1.4219   -4.2746    0.0000 H   0  0  0  0  0  0  0  0  0  0  0  0
   -1.2686   -4.0954    0.0000 H   0  0  0  0  0  0  0  0  0  0  0  0
   -1.6251   -1.8549    0.0000 H   0  0  0  0  0  0  0  0  0  0  0  0
   -0.4351   -1.0583    0.0000 H   0  0  0  0  0  0  0  0  0  0  0  0
    2.0209    0.4036    0.0000 H   0  0  0  0  0  0  0  0  0  0  0  0
    3.0909    0.4036    0.0000 H   0  0  0  0  0  0  0  0  0  0  0  0
    2.8459   -1.4496    0.0000 H   0  0  0  0  0  0  0  0  0  0  0  0
    3.2584    1.1181    0.0000 H   0  0  0  0  0  0  0  0  0  0  0  0
    4.3284    1.1180    0.0000 H   0  0  0  0  0  0  0  0  0  0  0  0
    5.1284   -0.6919    0.0000 H   0  0  0  0  0  0  0  0  0  0  0  0
    5.7454   -0.5766    0.0000 H   0  0  0  0  0  0  0  0  0  0  0  0
    6.6720    1.0284    0.0000 H   0  0  0  0  0  0  0  0  0  0  0  0
    6.6721   -0.0416    0.0000 H   0  0  0  0  0  0  0  0  0  0  0  0
    4.3164    2.3884    0.0000 H   0  0  0  0  0  0  0  0  0  0  0  0
    3.3898    0.7834    0.0000 H   0  0  0  0  0  0  0  0  0  0  0  0
    3.3897    1.8534    0.0000 H   0  0  0  0  0  0  0  0  0  0  0  0
    4.9084    2.5470    0.0000 H   0  0  0  0  0  0  0  0  0  0  0  0
    5.9784    2.5470    0.0000 H   0  0  0  0  0  0  0  0  0  0  0  0
    6.7607    0.7678    0.0000 H   0  0  0  0  0  0  0  0  0  0  0  0
    7.0201    3.2883    0.0000 H   0  0  0  0  0  0  0  0  0  0  0  0
    7.6601    4.0199    0.0000 H   0  0  0  0  0  0  0  0  0  0  0  0
    8.7474    3.7589    0.0000 H   0  0  0  0  0  0  0  0  0  0  0  0
    9.6411    3.3764    0.0000 H   0  0  0  0  0  0  0  0  0  0  0  0
    9.7289    2.2616    0.0000 H   0  0  0  0  0  0  0  0  0  0  0  0
    7.6601    0.6498    0.0000 H   0  0  0  0  0  0  0  0  0  0  0  0
    6.9340    1.5001    0.0000 H   0  0  0  0  0  0  0  0  0  0  0  0
    3.3934   -2.1163    0.0000 H   0  0  0  0  0  0  0  0  0  0  0  0
    4.5847   -3.5360    0.0000 H   0  0  0  0  0  0  0  0  0  0  0  0
    3.5792   -3.1701    0.0000 H   0  0  0  0  0  0  0  0  0  0  0  0
    6.4940   -0.8501    0.0000 H   0  0  0  0  0  0  0  0  0  0  0  0
    6.7759   -2.1220    0.0000 H   0  0  0  0  0  0  0  0  0  0  0  0
    6.0288   -3.4878    0.0000 H   0  0  0  0  0  0  0  0  0  0  0  0
    4.7864   -3.0960    0.0000 H   0  0  0  0  0  0  0  0  0  0  0  0
  1  2  1  0  0  0  0
  1 36  1  0  0  0  0
  1 37  1  0  0  0  0
  1 38  1  0  0  0  0
  2  3  2  0  0  0  0
  2  9  1  0  0  0  0
  3  4  1  0  0  0  0
  3 39  1  0  0  0  0
  4  5  1  0  0  0  0
  4  6  2  0  0  0  0
  5 40  1  0  0  0  0
  6  7  1  0  0  0  0
  6  8  1  0  0  0  0
  7 41  1  0  0  0  0
  8  9  2  0  0  0  0
  8 42  1  0  0  0  0
  9 10  1  0  0  0  0
 10 11  2  0  0  0  0
 10 12  1  0  0  0  0
 12 13  1  0  0  0  0
 13 43  1  0  0  0  0
 13 44  1  0  0  0  0
 14 13  1  0  0  0  0
 14 15  1  0  0  0  0
 14 29  1  0  0  0  0
 14 45  1  1  0  0  0
 15 16  1  0  0  0  0
 15 46  1  0  0  0  0
 15 47  1  0  0  0  0
 16 17  1  0  0  0  0
 16 48  1  0  0  0  0
 17 18  1  0  0  0  0
 17 19  1  0  0  0  0
 17 20  1  0  0  0  0
 18 49  1  0  0  0  0
 18 50  1  0  0  0  0
 18 51  1  0  0  0  0
 19 52  1  0  0  0  0
 19 53  1  0  0  0  0
 19 54  1  0  0  0  0
 20 21  1  0  0  0  0
 20 55  1  0  0  0  0
 20 56  1  0  0  0  0
 21 22  1  0  0  0  0
 21 57  1  0  0  0  0
 22 23  2  0  0  0  0
 22 24  1  0  0  0  0
 24 25  1  0  0  0  0
 24 28  1  0  0  0  0
 24 58  1  0  0  0  0
 25 26  1  0  0  0  0
 25 59  1  0  0  0  0
 25 60  1  0  0  0  0
 26 27  1  0  0  0  0
 26 61  1  0  0  0  0
 26 62  1  0  0  0  0
 27 28  1  0  0  0  0
 28 63  1  0  0  0  0
 28 64  1  0  0  0  0
 29 30  1  0  0  0  0
 30 31  2  0  0  0  0
 30 32  1  0  0  0  0
 32 33  1  0  0  0  0
 32 34  1  0  0  0  0
 32 35  1  0  0  0  0
 33 65  1  0  0  0  0
 33 66  1  0  0  0  0
 33 67  1  0  0  0  0
 34 35  1  0  0  0  0
 34 68  1  0  0  0  0
 34 69  1  0  0  0  0
 35 70  1  0  0  0  0
 35 71  1  0  0  0  0
M  END
>  <DRUGBANK_ID>
DB16112

>  <COMMON_NAME>
OT-730

>  <CAS_NUMBER>
870809-51-1

>  <UNII>
5WVS67PLAL

$$$$
