
 OpenBabel10282417072D

 42 43  0  0  0  0  0  0  0  0999 V2000
   -1.0717   -0.8250    0.0000 C   0  0  0  0  0  0  0  0  0  0  0  0
   -1.0717   -1.6500    0.0000 C   0  0  0  0  0  0  0  0  0  0  0  0
   -1.7862   -2.0625    0.0000 C   0  0  0  0  0  0  0  0  0  0  0  0
   -2.5006   -1.6500    0.0000 C   0  0  0  0  0  0  0  0  0  0  0  0
   -2.5006   -0.8250    0.0000 C   0  0  0  0  0  0  0  0  0  0  0  0
   -1.7862   -0.4125    0.0000 N   0  0  0  0  0  0  0  0  0  0  0  0
   -0.3572   -2.0625    0.0000 C   0  0  0  0  0  0  0  0  0  0  0  0
   -0.3572   -2.8875    0.0000 O   0  0  0  0  0  0  0  0  0  0  0  0
    0.3572   -1.6500    0.0000 N   0  0  0  0  0  0  0  0  0  0  0  0
   -3.2151   -0.4125    0.0000 O   0  0  0  0  0  0  0  0  0  0  0  0
   -3.2151   -2.0625    0.0000 C   0  0  0  0  0  0  0  0  0  0  0  0
   -1.7862    0.4125    0.0000 C   0  0  0  0  0  0  0  0  0  0  0  0
    1.0717   -2.0625    0.0000 O   0  0  0  0  0  0  0  0  0  0  0  0
    1.7862   -1.6500    0.0000 C   0  0  0  0  0  0  0  0  0  0  0  0
    2.5006   -2.0625    0.0000 C   0  0  0  0  0  0  0  0  0  0  0  0
    3.2151   -1.6500    0.0000 O   0  0  0  0  0  0  0  0  0  0  0  0
   -0.3572   -0.4125    0.0000 N   0  0  0  0  0  0  0  0  0  0  0  0
   -0.3572    0.4125    0.0000 C   0  0  0  0  0  0  0  0  0  0  0  0
    0.3572    0.8250    0.0000 C   0  0  0  0  0  0  0  0  0  0  0  0
    0.3572    1.6500    0.0000 C   0  0  0  0  0  0  0  0  0  0  0  0
   -0.3572    2.0625    0.0000 C   0  0  0  0  0  0  0  0  0  0  0  0
   -1.0717    1.6500    0.0000 C   0  0  0  0  0  0  0  0  0  0  0  0
   -1.0717    0.8250    0.0000 C   0  0  0  0  0  0  0  0  0  0  0  0
   -0.3572    2.8875    0.0000 I   0  0  0  0  0  0  0  0  0  0  0  0
    1.0717    0.4125    0.0000 F   0  0  0  0  0  0  0  0  0  0  0  0
   -1.7862   -3.0945    0.0000 H   0  0  0  0  0  0  0  0  0  0  0  0
    0.3572   -0.6655    0.0000 H   0  0  0  0  0  0  0  0  0  0  0  0
   -4.1417   -1.5275    0.0000 H   0  0  0  0  0  0  0  0  0  0  0  0
   -3.2151   -3.1325    0.0000 H   0  0  0  0  0  0  0  0  0  0  0  0
   -4.1418   -2.5975    0.0000 H   0  0  0  0  0  0  0  0  0  0  0  0
   -0.8596    0.9475    0.0000 H   0  0  0  0  0  0  0  0  0  0  0  0
   -2.7128    0.9475    0.0000 H   0  0  0  0  0  0  0  0  0  0  0  0
   -1.7862    1.4825    0.0000 H   0  0  0  0  0  0  0  0  0  0  0  0
    1.7862   -0.5800    0.0000 H   0  0  0  0  0  0  0  0  0  0  0  0
    0.8596   -1.1150    0.0000 H   0  0  0  0  0  0  0  0  0  0  0  0
    2.5006   -3.1325    0.0000 H   0  0  0  0  0  0  0  0  0  0  0  0
    3.4272   -2.5975    0.0000 H   0  0  0  0  0  0  0  0  0  0  0  0
    4.0551   -2.1350    0.0000 H   0  0  0  0  0  0  0  0  0  0  0  0
    0.4954   -0.9048    0.0000 H   0  0  0  0  0  0  0  0  0  0  0  0
    1.2509    2.1660    0.0000 H   0  0  0  0  0  0  0  0  0  0  0  0
   -1.9654    2.1660    0.0000 H   0  0  0  0  0  0  0  0  0  0  0  0
   -1.9654    0.3090    0.0000 H   0  0  0  0  0  0  0  0  0  0  0  0
  1  2  2  0  0  0  0
  1  6  1  0  0  0  0
  1 17  1  0  0  0  0
  2  3  1  0  0  0  0
  2  7  1  0  0  0  0
  3  4  2  0  0  0  0
  3 26  1  0  0  0  0
  4  5  1  0  0  0  0
  4 11  1  0  0  0  0
  5  6  1  0  0  0  0
  5 10  2  0  0  0  0
  6 12  1  0  0  0  0
  7  8  2  0  0  0  0
  7  9  1  0  0  0  0
  9 13  1  0  0  0  0
  9 27  1  0  0  0  0
 11 28  1  0  0  0  0
 11 29  1  0  0  0  0
 11 30  1  0  0  0  0
 12 31  1  0  0  0  0
 12 32  1  0  0  0  0
 12 33  1  0  0  0  0
 13 14  1  0  0  0  0
 14 15  1  0  0  0  0
 14 34  1  0  0  0  0
 14 35  1  0  0  0  0
 15 16  1  0  0  0  0
 15 36  1  0  0  0  0
 15 37  1  0  0  0  0
 16 38  1  0  0  0  0
 17 18  1  0  0  0  0
 17 39  1  0  0  0  0
 18 19  1  0  0  0  0
 18 23  2  0  0  0  0
 19 20  2  0  0  0  0
 19 25  1  0  0  0  0
 20 21  1  0  0  0  0
 20 40  1  0  0  0  0
 21 22  2  0  0  0  0
 21 24  1  0  0  0  0
 22 23  1  0  0  0  0
 22 41  1  0  0  0  0
 23 42  1  0  0  0  0
M  END
>  <DRUGBANK_ID>
DB06061

>  <COMMON_NAME>
AZD-8330

>  <CAS_NUMBER>
869357-68-6

>  <UNII>
G4990BOZ66

$$$$
