
 OpenBabel10282417072D

 46 47  0  0  1  0  0  0  0  0999 V2000
   12.8558   -7.5637    0.0000 C   0  0  0  0  0  0  0  0  0  0  0  0
   12.1400   -7.1534    0.0000 C   0  0  2  0  0  0  0  0  0  0  0  0
   12.1373   -6.3284    0.0000 C   0  0  2  0  0  0  0  0  0  0  0  0
   11.4214   -5.9182    0.0000 C   0  0  1  0  0  0  0  0  0  0  0  0
   10.7084   -6.3330    0.0000 C   0  0  2  0  0  0  0  0  0  0  0  0
   10.7112   -7.1581    0.0000 C   0  0  2  0  0  0  0  0  0  0  0  0
   11.4270   -7.5683    0.0000 O   0  0  0  0  0  0  0  0  0  0  0  0
    9.9981   -7.5729    0.0000 O   0  0  0  0  0  0  0  0  0  0  0  0
   10.0008   -8.3979    0.0000 C   0  0  1  0  0  0  0  0  0  0  0  0
    9.2879   -8.8127    0.0000 C   0  0  1  0  0  0  0  0  0  0  0  0
    9.2906   -9.6377    0.0000 C   0  0  1  0  0  0  0  0  0  0  0  0
   10.0061  -10.0475    0.0000 C   0  0  1  0  0  0  0  0  0  0  0  0
   10.7192   -9.6326    0.0000 C   0  0  2  0  0  0  0  0  0  0  0  0
   10.7167   -8.8081    0.0000 C   0  0  2  0  0  0  0  0  0  0  0  0
   11.4298   -8.3933    0.0000 O   0  0  0  0  0  0  0  0  0  0  0  0
   11.4350  -10.0429    0.0000 O   0  0  0  0  0  0  0  0  0  0  0  0
   10.0089  -10.8725    0.0000 O   0  0  0  0  0  0  0  0  0  0  0  0
    8.5776  -10.0526    0.0000 O   0  0  0  0  0  0  0  0  0  0  0  0
    8.5720   -8.4026    0.0000 O   0  0  0  0  0  0  0  0  0  0  0  0
    9.9925   -5.9228    0.0000 N   0  0  0  0  0  0  0  0  0  0  0  0
   11.4186   -5.0931    0.0000 O   0  0  0  0  0  0  0  0  0  0  0  0
   12.8503   -5.9136    0.0000 O   0  0  0  0  0  0  0  0  0  0  0  0
   13.5689   -7.1488    0.0000 O   0  0  0  0  0  0  0  0  0  0  0  0
   12.8593   -8.6337    0.0000 H   0  0  0  0  0  0  0  0  0  0  0  0
   13.7842   -8.0956    0.0000 H   0  0  0  0  0  0  0  0  0  0  0  0
   13.0649   -6.6154    0.0000 H   0  0  0  0  0  0  0  0  0  0  0  0
   13.0657   -6.8603    0.0000 H   0  0  0  0  0  0  0  0  0  0  0  0
   12.3463   -5.3801    0.0000 H   0  0  0  0  0  0  0  0  0  0  0  0
   10.7049   -5.2630    0.0000 H   0  0  0  0  0  0  0  0  0  0  0  0
    9.7828   -6.6262    0.0000 H   0  0  0  0  0  0  0  0  0  0  0  0
    9.0724   -7.8660    0.0000 H   0  0  0  0  0  0  0  0  0  0  0  0
    9.2843   -7.7427    0.0000 H   0  0  0  0  0  0  0  0  0  0  0  0
    8.3622   -9.1058    0.0000 H   0  0  0  0  0  0  0  0  0  0  0  0
    9.0813  -10.5857    0.0000 H   0  0  0  0  0  0  0  0  0  0  0  0
   10.7227  -10.7026    0.0000 H   0  0  0  0  0  0  0  0  0  0  0  0
   10.7132   -7.7381    0.0000 H   0  0  0  0  0  0  0  0  0  0  0  0
   12.2714   -8.8756    0.0000 H   0  0  0  0  0  0  0  0  0  0  0  0
   11.4380  -11.0129    0.0000 H   0  0  0  0  0  0  0  0  0  0  0  0
    9.1705  -11.3603    0.0000 H   0  0  0  0  0  0  0  0  0  0  0  0
    7.7359   -9.5705    0.0000 H   0  0  0  0  0  0  0  0  0  0  0  0
    8.5687   -7.4326    0.0000 H   0  0  0  0  0  0  0  0  0  0  0  0
    9.9892   -4.9028    0.0000 H   0  0  0  0  0  0  0  0  0  0  0  0
    9.1108   -6.4357    0.0000 H   0  0  0  0  0  0  0  0  0  0  0  0
   12.2570   -4.6053    0.0000 H   0  0  0  0  0  0  0  0  0  0  0  0
   13.6919   -6.3958    0.0000 H   0  0  0  0  0  0  0  0  0  0  0  0
   14.4106   -7.6310    0.0000 H   0  0  0  0  0  0  0  0  0  0  0  0
  1 23  1  0  0  0  0
  1 24  1  0  0  0  0
  1 25  1  0  0  0  0
  2  1  1  0  0  0  0
  2  3  1  0  0  0  0
  2  7  1  0  0  0  0
  2 26  1  6  0  0  0
  3  4  1  0  0  0  0
  3 22  1  0  0  0  0
  3 27  1  1  0  0  0
  4  5  1  0  0  0  0
  4 21  1  0  0  0  0
  4 28  1  6  0  0  0
  5  6  1  0  0  0  0
  5 20  1  0  0  0  0
  5 29  1  1  0  0  0
  6  7  1  0  0  0  0
  6  8  1  0  0  0  0
  6 30  1  1  0  0  0
  9  8  1  0  0  0  0
  9 10  1  0  0  0  0
  9 14  1  0  0  0  0
  9 31  1  1  0  0  0
 10 11  1  0  0  0  0
 10 19  1  0  0  0  0
 10 32  1  6  0  0  0
 11 12  1  0  0  0  0
 11 18  1  0  0  0  0
 11 33  1  6  0  0  0
 12 13  1  0  0  0  0
 12 17  1  0  0  0  0
 12 34  1  6  0  0  0
 13 14  1  0  0  0  0
 13 16  1  0  0  0  0
 13 35  1  1  0  0  0
 14 15  1  0  0  0  0
 14 36  1  6  0  0  0
 15 37  1  0  0  0  0
 16 38  1  0  0  0  0
 17 39  1  0  0  0  0
 18 40  1  0  0  0  0
 19 41  1  0  0  0  0
 20 42  1  0  0  0  0
 20 43  1  0  0  0  0
 21 44  1  0  0  0  0
 22 45  1  0  0  0  0
 23 46  1  0  0  0  0
M  END
>  <DRUGBANK_ID>
DB03779

>  <SECONDARY_ACCESSION_NUMBERS>
EXPT02268

>  <COMMON_NAME>
Glucosaminyl-(Alpha-6)-D-Myo-Inositol

$$$$
