
 OpenBabel10282417072D

 51 53  0  0  0  0  0  0  0  0999 V2000
   -2.0817   -4.1728    0.0000 C   0  0  0  0  0  0  0  0  0  0  0  0
   -1.3673   -3.7603    0.0000 C   0  0  0  0  0  0  0  0  0  0  0  0
   -1.3673   -1.2853    0.0000 C   0  0  0  0  0  0  0  0  0  0  0  0
    0.0616   -1.2853    0.0000 C   0  0  0  0  0  0  0  0  0  0  0  0
   -0.7903   -1.1478    0.0000 C   0  0  0  0  0  0  0  0  0  0  0  0
   -1.3673   -0.4603    0.0000 C   0  0  0  0  0  0  0  0  0  0  0  0
    0.0616   -0.4603    0.0000 C   0  0  0  0  0  0  0  0  0  0  0  0
   -0.7903   -0.5978    0.0000 C   0  0  0  0  0  0  0  0  0  0  0  0
    2.0817    2.7046    0.0000 C   0  0  0  0  0  0  0  0  0  0  0  0
    1.7012    1.2846    0.0000 C   0  0  0  0  0  0  0  0  0  0  0  0
    0.0616    1.1896    0.0000 C   0  0  0  0  0  0  0  0  0  0  0  0
    0.8623    3.2476    0.0000 C   0  0  0  0  0  0  0  0  0  0  0  0
    1.6692    3.4191    0.0000 C   0  0  1  0  0  0  0  0  0  0  0  0
    1.5297    2.0916    0.0000 C   0  0  1  0  0  0  0  0  0  0  0  0
    0.0616    2.0146    0.0000 C   0  0  0  0  0  0  0  0  0  0  0  0
   -0.6528   -2.5228    0.0000 C   0  0  0  0  0  0  0  0  0  0  0  0
   -0.6528   -1.6978    0.0000 C   0  0  3  0  0  0  0  0  0  0  0  0
   -0.6528   -0.0478    0.0000 C   0  0  3  0  0  0  0  0  0  0  0  0
    2.0048    4.1728    0.0000 F   0  0  0  0  0  0  0  0  0  0  0  0
    1.8728    0.4776    0.0000 N   0  0  0  0  0  0  0  0  0  0  0  0
   -0.6528    0.7771    0.0000 N   0  0  0  0  0  0  0  0  0  0  0  0
    0.7760    2.4271    0.0000 N   0  0  0  0  0  0  0  0  0  0  0  0
   -0.6528    2.4271    0.0000 O   0  0  0  0  0  0  0  0  0  0  0  0
    0.0616   -2.9353    0.0000 O   0  0  0  0  0  0  0  0  0  0  0  0
   -1.3673   -2.9353    0.0000 O   0  0  0  0  0  0  0  0  0  0  0  0
    1.1501    4.0603    0.0000 H   0  0  0  0  0  0  0  0  0  0  0  0
    0.8886    1.5724    0.0000 H   0  0  0  0  0  0  0  0  0  0  0  0
   -3.0084   -3.6378    0.0000 H   0  0  0  0  0  0  0  0  0  0  0  0
   -2.0817   -5.2428    0.0000 H   0  0  0  0  0  0  0  0  0  0  0  0
   -3.0083   -4.7078    0.0000 H   0  0  0  0  0  0  0  0  0  0  0  0
   -0.4406   -4.2953    0.0000 H   0  0  0  0  0  0  0  0  0  0  0  0
   -0.4407   -3.2253    0.0000 H   0  0  0  0  0  0  0  0  0  0  0  0
   -2.2939   -1.8203    0.0000 H   0  0  0  0  0  0  0  0  0  0  0  0
   -1.3673   -2.3553    0.0000 H   0  0  0  0  0  0  0  0  0  0  0  0
    0.9883   -1.8203    0.0000 H   0  0  0  0  0  0  0  0  0  0  0  0
    0.0616   -2.3553    0.0000 H   0  0  0  0  0  0  0  0  0  0  0  0
   -1.8523   -1.2785    0.0000 H   0  0  0  0  0  0  0  0  0  0  0  0
   -1.3959   -2.0299    0.0000 H   0  0  0  0  0  0  0  0  0  0  0  0
   -2.2939    0.0747    0.0000 H   0  0  0  0  0  0  0  0  0  0  0  0
   -1.3673    0.6097    0.0000 H   0  0  0  0  0  0  0  0  0  0  0  0
    0.9883    0.0747    0.0000 H   0  0  0  0  0  0  0  0  0  0  0  0
    0.0616    0.6097    0.0000 H   0  0  0  0  0  0  0  0  0  0  0  0
   -1.8523   -0.4671    0.0000 H   0  0  0  0  0  0  0  0  0  0  0  0
   -1.3959    0.2843    0.0000 H   0  0  0  0  0  0  0  0  0  0  0  0
    3.1458    2.5927    0.0000 H   0  0  0  0  0  0  0  0  0  0  0  0
    2.4651    1.7057    0.0000 H   0  0  0  0  0  0  0  0  0  0  0  0
    0.9883    0.6546    0.0000 H   0  0  0  0  0  0  0  0  0  0  0  0
    0.0616    0.1196    0.0000 H   0  0  0  0  0  0  0  0  0  0  0  0
    0.0672    3.9636    0.0000 H   0  0  0  0  0  0  0  0  0  0  0  0
   -0.1367    2.8642    0.0000 H   0  0  0  0  0  0  0  0  0  0  0  0
   -1.5362    1.2871    0.0000 H   0  0  0  0  0  0  0  0  0  0  0  0
  1 28  1  0  0  0  0
  1 29  1  0  0  0  0
  1 30  1  0  0  0  0
  2  1  1  0  0  0  0
  2 31  1  0  0  0  0
  2 32  1  0  0  0  0
  3 33  1  0  0  0  0
  3 34  1  0  0  0  0
  4 35  1  0  0  0  0
  4 36  1  0  0  0  0
  5 37  1  0  0  0  0
  5 38  1  0  0  0  0
  6  3  1  0  0  0  0
  6 39  1  0  0  0  0
  6 40  1  0  0  0  0
  7  4  1  0  0  0  0
  7 41  1  0  0  0  0
  7 42  1  0  0  0  0
  8  5  1  0  0  0  0
  8 43  1  0  0  0  0
  8 44  1  0  0  0  0
  9 45  1  0  0  0  0
  9 46  1  0  0  0  0
 11 47  1  0  0  0  0
 11 48  1  0  0  0  0
 12 49  1  0  0  0  0
 12 50  1  0  0  0  0
 13  9  1  0  0  0  0
 13 12  1  0  0  0  0
 13 19  1  0  0  0  0
 13 26  1  6  0  0  0
 14  9  1  0  0  0  0
 14 10  1  0  0  0  0
 14 22  1  0  0  0  0
 14 27  1  6  0  0  0
 15 11  1  0  0  0  0
 17  3  1  0  0  0  0
 17  4  1  0  0  0  0
 17  5  1  0  0  0  0
 17 16  1  0  0  0  0
 18  6  1  0  0  0  0
 18  7  1  0  0  0  0
 18  8  1  0  0  0  0
 20 10  3  0  0  0  0
 21 11  1  0  0  0  0
 21 18  1  0  0  0  0
 21 51  1  0  0  0  0
 22 12  1  0  0  0  0
 22 15  1  0  0  0  0
 23 15  2  0  0  0  0
 24 16  2  0  0  0  0
 25  2  1  0  0  0  0
 25 16  1  0  0  0  0
M  END
>  <DRUGBANK_ID>
DB06127

>  <COMMON_NAME>
Bisegliptin

>  <CAS_NUMBER>
862501-61-9

>  <UNII>
9U5KQ79OK6

>  <SYNONYMS>
Bisegliptin

$$$$
