
 OpenBabel10282417072D

 43 45  0  0  0  0  0  0  0  0999 V2000
    0.0000    0.8250    0.0000 C   0  0  0  0  0  0  0  0  0  0  0  0
    0.7145    0.4125    0.0000 C   0  0  0  0  0  0  0  0  0  0  0  0
    0.7145   -0.4125    0.0000 C   0  0  0  0  0  0  0  0  0  0  0  0
    0.0000   -0.8250    0.0000 C   0  0  0  0  0  0  0  0  0  0  0  0
   -0.7145   -0.4125    0.0000 C   0  0  0  0  0  0  0  0  0  0  0  0
   -0.7145    0.4125    0.0000 C   0  0  0  0  0  0  0  0  0  0  0  0
    4.3974   -0.4125    0.0000 N   0  0  0  0  0  0  0  0  0  0  0  0
    4.3974    0.4125    0.0000 C   0  0  1  0  0  0  0  0  0  0  0  0
    3.5724   -0.4125    0.0000 C   0  0  0  0  0  0  0  0  0  0  0  0
    3.5724    0.4125    0.0000 C   0  0  1  0  0  0  0  0  0  0  0  0
    5.1820   -0.6674    0.0000 C   0  0  2  0  0  0  0  0  0  0  0  0
    5.1820    0.6674    0.0000 S   0  0  0  0  0  0  0  0  0  0  0  0
    5.6669    0.0000    0.0000 C   0  0  0  0  0  0  0  0  0  0  0  0
    2.8579    0.8250    0.0000 N   0  0  0  0  0  0  0  0  0  0  0  0
    2.1434    0.4125    0.0000 C   0  0  0  0  0  0  0  0  0  0  0  0
    0.7145    2.0625    0.0000 N   0  3  0  0  0  0  0  0  0  0  0  0
    1.4289    0.8250    0.0000 C   0  0  2  0  0  0  0  0  0  0  0  0
    5.4369   -1.4521    0.0000 C   0  0  0  0  0  0  0  0  0  0  0  0
    0.0000    2.4750    0.0000 N   0  5  0  0  0  0  0  0  0  0  0  0
    1.4289    1.6500    0.0000 N   0  0  0  0  0  0  0  0  0  0  0  0
    2.1434   -0.4125    0.0000 O   0  0  0  0  0  0  0  0  0  0  0  0
    6.2439   -1.6236    0.0000 O   0  0  0  0  0  0  0  0  0  0  0  0
    4.8849   -2.0652    0.0000 O   0  0  0  0  0  0  0  0  0  0  0  0
    6.3857   -0.4050    0.0000 C   0  0  0  0  0  0  0  0  0  0  0  0
    6.3857    0.4050    0.0000 C   0  0  0  0  0  0  0  0  0  0  0  0
    4.3974    1.2375    0.0000 H   0  0  0  0  0  0  0  0  0  0  0  0
    2.9890   -0.9959    0.0000 O   0  0  0  0  0  0  0  0  0  0  0  0
    0.0000    1.8570    0.0000 H   0  0  0  0  0  0  0  0  0  0  0  0
    1.6082   -0.9285    0.0000 H   0  0  0  0  0  0  0  0  0  0  0  0
    0.0000   -1.8570    0.0000 H   0  0  0  0  0  0  0  0  0  0  0  0
   -1.6082   -0.9285    0.0000 H   0  0  0  0  0  0  0  0  0  0  0  0
   -1.6082    0.9285    0.0000 H   0  0  0  0  0  0  0  0  0  0  0  0
    3.8493    1.4460    0.0000 H   0  0  0  0  0  0  0  0  0  0  0  0
    4.4254   -1.4240    0.0000 H   0  0  0  0  0  0  0  0  0  0  0  0
    2.8579    1.8095    0.0000 H   0  0  0  0  0  0  0  0  0  0  0  0
    0.5022    1.3600    0.0000 H   0  0  0  0  0  0  0  0  0  0  0  0
    6.5335   -2.5147    0.0000 H   0  0  0  0  0  0  0  0  0  0  0  0
    6.3969   -1.4749    0.0000 H   0  0  0  0  0  0  0  0  0  0  0  0
    7.3067    0.1397    0.0000 H   0  0  0  0  0  0  0  0  0  0  0  0
    7.3179   -0.9302    0.0000 H   0  0  0  0  0  0  0  0  0  0  0  0
    7.3067   -0.1397    0.0000 H   0  0  0  0  0  0  0  0  0  0  0  0
    6.3969    1.4749    0.0000 H   0  0  0  0  0  0  0  0  0  0  0  0
    7.3179    0.9302    0.0000 H   0  0  0  0  0  0  0  0  0  0  0  0
  1  2  2  0  0  0  0
  1 28  1  0  0  0  0
  2 17  1  0  0  0  0
  3  2  1  0  0  0  0
  3 29  1  0  0  0  0
  4  3  2  0  0  0  0
  4 30  1  0  0  0  0
  5  6  2  0  0  0  0
  5  4  1  0  0  0  0
  5 31  1  0  0  0  0
  6  1  1  0  0  0  0
  6 32  1  0  0  0  0
  8  7  1  0  0  0  0
  8 12  1  0  0  0  0
  8 10  1  0  0  0  0
  8 26  1  6  0  0  0
  9  7  1  0  0  0  0
  9 27  2  0  0  0  0
 10  9  1  0  0  0  0
 10 14  1  0  0  0  0
 10 33  1  6  0  0  0
 11  7  1  0  0  0  0
 11 18  1  0  0  0  0
 11 34  1  1  0  0  0
 13 11  1  0  0  0  0
 13 12  1  0  0  0  0
 14 35  1  0  0  0  0
 15 14  1  0  0  0  0
 17 15  1  0  0  0  0
 17 20  1  0  0  0  0
 17 36  1  6  0  0  0
 19 16  2  0  0  0  0
 20 16  2  0  0  0  0
 21 15  2  0  0  0  0
 22 18  1  0  0  0  0
 22 37  1  0  0  0  0
 23 18  2  0  0  0  0
 24 13  1  0  0  0  0
 24 38  1  0  0  0  0
 24 39  1  0  0  0  0
 24 40  1  0  0  0  0
 25 13  1  0  0  0  0
 25 41  1  0  0  0  0
 25 42  1  0  0  0  0
 25 43  1  0  0  0  0
M  CHG  2  16   1  19  -1
M  END
>  <DRUGBANK_ID>
DB08795

>  <COMMON_NAME>
Azidocillin

>  <CAS_NUMBER>
17243-38-8

>  <UNII>
R8XDP7L3SL

>  <SYNONYMS>
(2S,5R,6R)-6-{[(2R)-2-azido-2-phenylacetyl]amino}-3,3-dimethyl-7-oxo-4-thia-1-azabicyclo[3.2.0]heptane-2-carboxylic acid; Azidocilina; Azidocillin; Azidocilline; Azidocillinum; D-(−)-(α-azidobenzyl)penicillin

$$$$
