
 OpenBabel10282417072D

 21 21  0  0  0  0  0  0  0  0999 V2000
   -1.8096    0.4021    0.0000 C   0  0  0  0  0  0  0  0  0  0  0  0
   -1.0892    0.0000    0.0000 C   0  0  0  0  0  0  0  0  0  0  0  0
   -0.3686    0.4021    0.0000 C   0  0  0  0  0  0  0  0  0  0  0  0
   -1.8096    1.2399    0.0000 O   0  0  0  0  0  0  0  0  0  0  0  0
   -2.5133    0.0000    0.0000 O   0  0  0  0  0  0  0  0  0  0  0  0
    0.3518    0.0000    0.0000 C   0  0  0  0  0  0  0  0  0  0  0  0
    0.3518   -0.8210    0.0000 C   0  0  0  0  0  0  0  0  0  0  0  0
    1.0723    0.4189    0.0000 C   0  0  0  0  0  0  0  0  0  0  0  0
    1.0723   -1.2399    0.0000 C   0  0  0  0  0  0  0  0  0  0  0  0
    1.7760    0.0000    0.0000 C   0  0  0  0  0  0  0  0  0  0  0  0
    1.7928   -0.8210    0.0000 C   0  0  0  0  0  0  0  0  0  0  0  0
    2.5133   -1.2399    0.0000 O   0  0  0  0  0  0  0  0  0  0  0  0
   -1.0892   -0.8377    0.0000 O   0  0  0  0  0  0  0  0  0  0  0  0
   -0.3685    1.4721    0.0000 H   0  0  0  0  0  0  0  0  0  0  0  0
    0.5542    0.9438    0.0000 H   0  0  0  0  0  0  0  0  0  0  0  0
   -3.3227    0.4721    0.0000 H   0  0  0  0  0  0  0  0  0  0  0  0
   -0.5427   -1.3356    0.0000 H   0  0  0  0  0  0  0  0  0  0  0  0
    1.0776    1.4509    0.0000 H   0  0  0  0  0  0  0  0  0  0  0  0
    1.0723   -2.2719    0.0000 H   0  0  0  0  0  0  0  0  0  0  0  0
    2.6679    0.5192    0.0000 H   0  0  0  0  0  0  0  0  0  0  0  0
    2.5105   -2.1769    0.0000 H   0  0  0  0  0  0  0  0  0  0  0  0
  2  1  1  0  0  0  0
  3  2  1  0  0  0  0
  3 14  1  0  0  0  0
  3 15  1  0  0  0  0
  4  1  2  0  0  0  0
  5  1  1  0  0  0  0
  5 16  1  0  0  0  0
  6  3  1  0  0  0  0
  7  6  2  0  0  0  0
  7 17  1  0  0  0  0
  8  6  1  0  0  0  0
  8 18  1  0  0  0  0
  9  7  1  0  0  0  0
  9 19  1  0  0  0  0
 10  8  2  0  0  0  0
 10 20  1  0  0  0  0
 11  9  2  0  0  0  0
 11 10  1  0  0  0  0
 12 11  1  0  0  0  0
 12 21  1  0  0  0  0
 13  2  2  0  0  0  0
M  END
>  <DRUGBANK_ID>
DB07718

>  <COMMON_NAME>
4-Hydroxyphenylpyruvic acid

>  <CAS_NUMBER>
156-39-8

>  <UNII>
0YP1694WNQ

>  <SYNONYMS>
(4-hydroxyphenyl)pyruvic acid; (p-hydroxyphenyl)pyruvic acid; p-Hydroxyphenylpyruvic acid

$$$$
