
 OpenBabel10282417072D

 39 38  0  0  0  0  0  0  0  0999 V2000
    3.9380    0.4906    0.0000 Zn  0  2  0  0  0  0  0  0  0  0  0  0
   -2.8697   -0.6287    0.0000 C   0  0  0  0  0  0  0  0  0  0  0  0
   -3.3333   -1.3372    0.0000 O   0  0  0  0  0  0  0  0  0  0  0  0
   -2.0398   -0.6287    0.0000 C   0  0  0  0  0  0  0  0  0  0  0  0
   -1.5308   -1.2815    0.0000 O   0  5  0  0  0  0  0  0  0  0  0  0
   -1.8038    0.1643    0.0000 C   0  0  1  0  0  0  0  0  0  0  0  0
   -1.2156   -0.4109    0.0000 H   0  0  0  0  0  0  0  0  0  0  0  0
   -1.0260    0.4394    0.0000 C   0  0  1  0  0  0  0  0  0  0  0  0
   -1.0260    1.3372    0.0000 O   0  0  0  0  0  0  0  0  0  0  0  0
   -0.3866    0.0211    0.0000 C   0  0  0  0  0  0  0  0  0  0  0  0
    0.3047    0.3938    0.0000 O   0  0  0  0  0  0  0  0  0  0  0  0
   -2.4923    0.6277    0.0000 O   0  0  0  0  0  0  0  0  0  0  0  0
   -3.1404    0.1238    0.0000 C   0  0  0  0  0  0  0  0  0  0  0  0
   -3.9380    0.3599    0.0000 O   0  0  0  0  0  0  0  0  0  0  0  0
   -2.8697   -0.6287    0.0000 C   0  0  0  0  0  0  0  0  0  0  0  0
   -3.3333   -1.3372    0.0000 O   0  0  0  0  0  0  0  0  0  0  0  0
   -2.0398   -0.6287    0.0000 C   0  0  0  0  0  0  0  0  0  0  0  0
   -1.5308   -1.2815    0.0000 O   0  5  0  0  0  0  0  0  0  0  0  0
   -1.8038    0.1643    0.0000 C   0  0  1  0  0  0  0  0  0  0  0  0
   -1.2156   -0.4109    0.0000 H   0  0  0  0  0  0  0  0  0  0  0  0
   -1.0260    0.4394    0.0000 C   0  0  1  0  0  0  0  0  0  0  0  0
   -1.0260    1.3372    0.0000 O   0  0  0  0  0  0  0  0  0  0  0  0
   -0.3866    0.0211    0.0000 C   0  0  0  0  0  0  0  0  0  0  0  0
    0.3047    0.3938    0.0000 O   0  0  0  0  0  0  0  0  0  0  0  0
   -2.4923    0.6277    0.0000 O   0  0  0  0  0  0  0  0  0  0  0  0
   -3.1404    0.1238    0.0000 C   0  0  0  0  0  0  0  0  0  0  0  0
   -3.9380    0.3599    0.0000 O   0  0  0  0  0  0  0  0  0  0  0  0
   -4.2688   -1.2849    0.0000 H   0  0  0  0  0  0  0  0  0  0  0  0
   -1.8997    1.0571    0.0000 H   0  0  0  0  0  0  0  0  0  0  0  0
   -0.1860    1.8222    0.0000 H   0  0  0  0  0  0  0  0  0  0  0  0
   -0.4320   -1.0479    0.0000 H   0  0  0  0  0  0  0  0  0  0  0  0
    0.5203   -0.5467    0.0000 H   0  0  0  0  0  0  0  0  0  0  0  0
    1.1303   -0.1155    0.0000 H   0  0  0  0  0  0  0  0  0  0  0  0
   -4.2688   -1.2849    0.0000 H   0  0  0  0  0  0  0  0  0  0  0  0
   -1.8997    1.0571    0.0000 H   0  0  0  0  0  0  0  0  0  0  0  0
   -0.1860    1.8222    0.0000 H   0  0  0  0  0  0  0  0  0  0  0  0
   -0.4320   -1.0479    0.0000 H   0  0  0  0  0  0  0  0  0  0  0  0
    0.5203   -0.5467    0.0000 H   0  0  0  0  0  0  0  0  0  0  0  0
    1.1303   -0.1155    0.0000 H   0  0  0  0  0  0  0  0  0  0  0  0
  2  3  1  0  0  0  0
  2  4  2  0  0  0  0
  2 13  1  0  0  0  0
  3 28  1  0  0  0  0
  4  5  1  0  0  0  0
  4  6  1  0  0  0  0
  6  7  1  1  0  0  0
  6  8  1  0  0  0  0
  6 12  1  0  0  0  0
  8  9  1  0  0  0  0
  8 10  1  0  0  0  0
  8 29  1  6  0  0  0
  9 30  1  0  0  0  0
 10 11  1  0  0  0  0
 10 31  1  0  0  0  0
 10 32  1  0  0  0  0
 11 33  1  0  0  0  0
 12 13  1  0  0  0  0
 13 14  2  0  0  0  0
 15 16  1  0  0  0  0
 15 17  2  0  0  0  0
 15 26  1  0  0  0  0
 16 34  1  0  0  0  0
 17 18  1  0  0  0  0
 17 19  1  0  0  0  0
 19 20  1  1  0  0  0
 19 21  1  0  0  0  0
 19 25  1  0  0  0  0
 21 22  1  0  0  0  0
 21 23  1  0  0  0  0
 21 35  1  6  0  0  0
 22 36  1  0  0  0  0
 23 24  1  0  0  0  0
 23 37  1  0  0  0  0
 23 38  1  0  0  0  0
 24 39  1  0  0  0  0
 25 26  1  0  0  0  0
 26 27  2  0  0  0  0
M  CHG  3   1   2   5  -1  18  -1
M  END
>  <DRUGBANK_ID>
DB14485

>  <SECONDARY_ACCESSION_NUMBERS>
DBSALT002424

>  <COMMON_NAME>
Zinc ascorbate

>  <CAS_NUMBER>
331242-75-2

>  <UNII>
9TI35313XW

>  <SYNONYMS>
(-)-ascorbic acid, zinc salt; L-ascorbic acid, zinc salt; L-ascorbic acid, zinc salt (2:1)

$$$$
