
 OpenBabel10282417072D

  5  4  0  0  0  0  0  0  0  0999 V2000
    0.8250   -0.8250    0.0000 F   0  0  0  0  0  0  0  0  0  0  0  0
    0.8250    0.0000    0.0000 B   0  5  0  0  0  0  0  0  0  0  0  0
    0.8250    0.8250    0.0000 F   0  0  0  0  0  0  0  0  0  0  0  0
    1.6500   -0.0000    0.0000 F   0  0  0  0  0  0  0  0  0  0  0  0
    0.0000    0.0000    0.0000 F   0  0  0  0  0  0  0  0  0  0  0  0
  1  2  1  0  0  0  0
  2  3  1  0  0  0  0
  2  4  1  0  0  0  0
  2  5  1  0  0  0  0
M  CHG  1   2  -1
M  END
>  <DRUGBANK_ID>
DB16340

>  <COMMON_NAME>
Tetrafluoroborate

>  <CAS_NUMBER>
14874-70-5

>  <UNII>
4YCF3545OY

>  <SYNONYMS>
Borate(1-), tetrafluoro-; Fluoroborate; Tetrafluoroborate; Tetrafluoroborate (bf41-); Tetrafluoroborate anion; Tetrafluoroborate ion; Tetrafluoroborate(1-)

$$$$
