SCE
 OpenBabel10282417072D

 31 33  0  0  0  0  0  0  0  0999 V2000
   -1.2664    1.8755    0.0000 C   0  0  0  0  0  0  0  0  0  0  0  0
   -0.4818    1.6206    0.0000 N   0  0  0  0  0  0  0  0  0  0  0  0
   -0.4818    0.7956    0.0000 C   0  0  0  0  0  0  0  0  0  0  0  0
   -1.2664    0.5407    0.0000 N   0  0  0  0  0  0  0  0  0  0  0  0
   -1.7513    1.2081    0.0000 C   0  0  0  0  0  0  0  0  0  0  0  0
    0.2327    2.0331    0.0000 C   0  0  0  0  0  0  0  0  0  0  0  0
    0.9472    1.6206    0.0000 C   0  0  0  0  0  0  0  0  0  0  0  0
    0.9472    0.7956    0.0000 N   0  0  0  0  0  0  0  0  0  0  0  0
    0.2327    0.3831    0.0000 C   0  0  0  0  0  0  0  0  0  0  0  0
    0.2327   -0.4419    0.0000 N   0  0  0  0  0  0  0  0  0  0  0  0
    0.9472   -0.8544    0.0000 C   0  0  0  0  0  0  0  0  0  0  0  0
    0.9472   -1.6794    0.0000 C   0  0  0  0  0  0  0  0  0  0  0  0
    1.6617   -2.0919    0.0000 C   0  0  0  0  0  0  0  0  0  0  0  0
    1.6617   -2.9169    0.0000 C   0  0  0  0  0  0  0  0  0  0  0  0
    0.9472   -3.3294    0.0000 N   0  0  0  0  0  0  0  0  0  0  0  0
    0.2327   -2.9169    0.0000 C   0  0  0  0  0  0  0  0  0  0  0  0
    0.2327   -2.0919    0.0000 C   0  0  0  0  0  0  0  0  0  0  0  0
   -1.5213    2.6602    0.0000 C   0  0  0  0  0  0  0  0  0  0  0  0
   -2.7833    1.2081    0.0000 H   0  0  0  0  0  0  0  0  0  0  0  0
    0.2327    3.0651    0.0000 H   0  0  0  0  0  0  0  0  0  0  0  0
    1.8409    2.1366    0.0000 H   0  0  0  0  0  0  0  0  0  0  0  0
   -0.6199   -0.9342    0.0000 H   0  0  0  0  0  0  0  0  0  0  0  0
    1.8738   -0.3194    0.0000 H   0  0  0  0  0  0  0  0  0  0  0  0
    1.8738   -1.3894    0.0000 H   0  0  0  0  0  0  0  0  0  0  0  0
    2.5554   -1.5759    0.0000 H   0  0  0  0  0  0  0  0  0  0  0  0
    2.5554   -3.4329    0.0000 H   0  0  0  0  0  0  0  0  0  0  0  0
   -0.6610   -3.4329    0.0000 H   0  0  0  0  0  0  0  0  0  0  0  0
   -0.6610   -1.5759    0.0000 H   0  0  0  0  0  0  0  0  0  0  0  0
   -0.8053    3.4553    0.0000 H   0  0  0  0  0  0  0  0  0  0  0  0
   -2.5679    2.8827    0.0000 H   0  0  0  0  0  0  0  0  0  0  0  0
   -1.8519    3.6779    0.0000 H   0  0  0  0  0  0  0  0  0  0  0  0
  1  2  1  0  0  0  0
  1 18  1  0  0  0  0
  2  6  1  0  0  0  0
  3  9  1  0  0  0  0
  3  2  1  0  0  0  0
  4  5  1  0  0  0  0
  4  3  2  0  0  0  0
  5  1  2  0  0  0  0
  5 19  1  0  0  0  0
  6 20  1  0  0  0  0
  7  6  2  0  0  0  0
  7 21  1  0  0  0  0
  8  7  1  0  0  0  0
  9  8  2  0  0  0  0
 10 11  1  0  0  0  0
 10  9  1  0  0  0  0
 10 22  1  0  0  0  0
 11 23  1  0  0  0  0
 11 24  1  0  0  0  0
 12 13  1  0  0  0  0
 12 11  1  0  0  0  0
 13 25  1  0  0  0  0
 14 13  2  0  0  0  0
 14 26  1  0  0  0  0
 15 14  1  0  0  0  0
 16 15  2  0  0  0  0
 16 17  1  0  0  0  0
 16 27  1  0  0  0  0
 17 12  2  0  0  0  0
 17 28  1  0  0  0  0
 18 29  1  0  0  0  0
 18 30  1  0  0  0  0
 18 31  1  0  0  0  0
M  END
>  <DRUGBANK_ID>
DB08533

>  <COMMON_NAME>
3-methyl-N-(pyridin-4-ylmethyl)imidazo[1,2-a]pyrazin-8-amine

$$$$
