
 OpenBabel10282417072D

 73 78  0  0  0  0  0  0  0  0999 V2000
   -1.8686   -0.3975    0.0000 O   0  0  0  0  0  0  0  0  0  0  0  0
   -1.6737   -2.5234    0.0000 O   0  0  0  0  0  0  0  0  0  0  0  0
   -3.5627   -0.7125    0.0000 O   0  0  0  0  0  0  0  0  0  0  0  0
   -0.6998   -2.9296    0.0000 O   0  0  0  0  0  0  0  0  0  0  0  0
    1.6506   -4.7527    0.0000 O   0  0  0  0  0  0  0  0  0  0  0  0
    2.8085   -2.1399    0.0000 O   0  0  0  0  0  0  0  0  0  0  0  0
   -0.4971    0.1316    0.0000 N   0  0  0  0  0  0  0  0  0  0  0  0
   -0.1209   -1.6232    0.0000 N   0  0  0  0  0  0  0  0  0  0  0  0
    0.7592    2.5834    0.0000 N   0  0  0  0  0  0  0  0  0  0  0  0
    0.6528    0.7956    0.0000 N   0  0  0  0  0  0  0  0  0  0  0  0
   -1.3841    1.3459    0.0000 N   0  0  0  0  0  0  0  0  0  0  0  0
   -0.6696    2.5834    0.0000 N   0  0  0  0  0  0  0  0  0  0  0  0
   -0.8751   -1.2890    0.0000 C   0  0  1  0  0  0  0  0  0  0  0  0
   -1.0480   -0.4823    0.0000 C   0  0  1  0  0  0  0  0  0  0  0  0
   -1.5889   -1.7028    0.0000 C   0  0  1  0  0  0  0  0  0  0  0  0
   -2.2029   -1.1517    0.0000 C   0  0  1  0  0  0  0  0  0  0  0  0
   -3.0096   -1.3247    0.0000 C   0  0  0  0  0  0  0  0  0  0  0  0
   -0.6696    0.9334    0.0000 C   0  0  0  0  0  0  0  0  0  0  0  0
    0.7592    3.4084    0.0000 C   0  0  2  0  0  0  0  0  0  0  0  0
    0.0448    3.8209    0.0000 C   0  0  0  0  0  0  0  0  0  0  0  0
    0.3186    0.0466    0.0000 C   0  0  0  0  0  0  0  0  0  0  0  0
    0.0448    1.3459    0.0000 C   0  0  0  0  0  0  0  0  0  0  0  0
    0.0448    4.6459    0.0000 C   0  0  0  0  0  0  0  0  0  0  0  0
    1.4737    3.8209    0.0000 C   0  0  0  0  0  0  0  0  0  0  0  0
    0.7592    5.0584    0.0000 C   0  0  0  0  0  0  0  0  0  0  0  0
    1.4737    4.6459    0.0000 C   0  0  0  0  0  0  0  0  0  0  0  0
   -0.0332   -2.4436    0.0000 C   0  0  0  0  0  0  0  0  0  0  0  0
    0.0448    2.1709    0.0000 C   0  0  0  0  0  0  0  0  0  0  0  0
    2.2112    3.3798    0.0000 C   0  0  0  0  0  0  0  0  0  0  0  0
    2.2112    5.0870    0.0000 C   0  0  0  0  0  0  0  0  0  0  0  0
    0.7210   -2.7778    0.0000 C   0  0  0  0  0  0  0  0  0  0  0  0
   -1.3841    2.1709    0.0000 C   0  0  0  0  0  0  0  0  0  0  0  0
    2.9587    3.8037    0.0000 C   0  0  0  0  0  0  0  0  0  0  0  0
    2.9587    4.6631    0.0000 C   0  0  0  0  0  0  0  0  0  0  0  0
    1.3876   -2.2917    0.0000 C   0  0  0  0  0  0  0  0  0  0  0  0
    0.8087   -3.5982    0.0000 C   0  0  0  0  0  0  0  0  0  0  0  0
    1.5629   -3.9324    0.0000 C   0  0  0  0  0  0  0  0  0  0  0  0
    2.1419   -2.6260    0.0000 C   0  0  0  0  0  0  0  0  0  0  0  0
    2.2295   -3.4463    0.0000 C   0  0  0  0  0  0  0  0  0  0  0  0
    2.4048   -5.0870    0.0000 C   0  0  0  0  0  0  0  0  0  0  0  0
    3.5627   -2.4742    0.0000 C   0  0  0  0  0  0  0  0  0  0  0  0
    0.2924   -1.3219    0.0000 H   0  0  0  0  0  0  0  0  0  0  0  0
    1.2022    2.3276    0.0000 H   0  0  0  0  0  0  0  0  0  0  0  0
   -2.5591   -2.9195    0.0000 H   0  0  0  0  0  0  0  0  0  0  0  0
   -3.2645    0.2105    0.0000 H   0  0  0  0  0  0  0  0  0  0  0  0
   -0.0447   -0.6142    0.0000 H   0  0  0  0  0  0  0  0  0  0  0  0
   -1.4332    0.5160    0.0000 H   0  0  0  0  0  0  0  0  0  0  0  0
   -0.6905   -2.2840    0.0000 H   0  0  0  0  0  0  0  0  0  0  0  0
   -2.8777   -0.3213    0.0000 H   0  0  0  0  0  0  0  0  0  0  0  0
   -3.3385   -2.3429    0.0000 H   0  0  0  0  0  0  0  0  0  0  0  0
   -2.2922   -2.1186    0.0000 H   0  0  0  0  0  0  0  0  0  0  0  0
   -0.1675    2.8734    0.0000 H   0  0  0  0  0  0  0  0  0  0  0  0
   -0.8819    3.2859    0.0000 H   0  0  0  0  0  0  0  0  0  0  0  0
   -0.8818    4.3559    0.0000 H   0  0  0  0  0  0  0  0  0  0  0  0
    0.8346   -0.8471    0.0000 H   0  0  0  0  0  0  0  0  0  0  0  0
   -0.8819    5.1809    0.0000 H   0  0  0  0  0  0  0  0  0  0  0  0
    0.0448    5.7159    0.0000 H   0  0  0  0  0  0  0  0  0  0  0  0
    0.7592    6.1284    0.0000 H   0  0  0  0  0  0  0  0  0  0  0  0
    1.6858    5.5934    0.0000 H   0  0  0  0  0  0  0  0  0  0  0  0
    2.1993    2.3479    0.0000 H   0  0  0  0  0  0  0  0  0  0  0  0
    2.1993    6.1189    0.0000 H   0  0  0  0  0  0  0  0  0  0  0  0
   -2.2778    2.6869    0.0000 H   0  0  0  0  0  0  0  0  0  0  0  0
    3.8504    3.2842    0.0000 H   0  0  0  0  0  0  0  0  0  0  0  0
    3.8504    5.1826    0.0000 H   0  0  0  0  0  0  0  0  0  0  0  0
    1.2780   -1.2655    0.0000 H   0  0  0  0  0  0  0  0  0  0  0  0
   -0.0251   -4.2063    0.0000 H   0  0  0  0  0  0  0  0  0  0  0  0
    3.1730   -3.8644    0.0000 H   0  0  0  0  0  0  0  0  0  0  0  0
    2.5184   -6.1510    0.0000 H   0  0  0  0  0  0  0  0  0  0  0  0
    3.2694   -4.4566    0.0000 H   0  0  0  0  0  0  0  0  0  0  0  0
    3.3830   -5.5206    0.0000 H   0  0  0  0  0  0  0  0  0  0  0  0
    3.6763   -3.5382    0.0000 H   0  0  0  0  0  0  0  0  0  0  0  0
    4.4273   -1.8438    0.0000 H   0  0  0  0  0  0  0  0  0  0  0  0
    4.5409   -2.9078    0.0000 H   0  0  0  0  0  0  0  0  0  0  0  0
  1 14  1  0  0  0  0
  1 16  1  0  0  0  0
  2 44  1  0  0  0  0
  3 17  1  0  0  0  0
  3 45  1  0  0  0  0
  4 27  2  0  0  0  0
  5 37  1  0  0  0  0
  5 40  1  0  0  0  0
  6 38  1  0  0  0  0
  6 41  1  0  0  0  0
  7 18  1  0  0  0  0
  7 21  1  0  0  0  0
  8 27  1  0  0  0  0
  8 42  1  0  0  0  0
  9 28  1  0  0  0  0
  9 43  1  0  0  0  0
 10 21  2  0  0  0  0
 10 22  1  0  0  0  0
 11 18  2  0  0  0  0
 11 32  1  0  0  0  0
 12 28  1  0  0  0  0
 12 32  2  0  0  0  0
 13  8  1  0  0  0  0
 13 14  1  0  0  0  0
 13 15  1  0  0  0  0
 13 46  1  1  0  0  0
 14  7  1  0  0  0  0
 14 47  1  6  0  0  0
 15  2  1  0  0  0  0
 15 16  1  0  0  0  0
 15 48  1  1  0  0  0
 16 17  1  0  0  0  0
 16 49  1  6  0  0  0
 17 50  1  0  0  0  0
 17 51  1  0  0  0  0
 18 22  1  0  0  0  0
 19  9  1  0  0  0  0
 19 20  1  0  0  0  0
 19 24  1  0  0  0  0
 19 52  1  1  0  0  0
 20 23  1  0  0  0  0
 20 53  1  0  0  0  0
 20 54  1  0  0  0  0
 21 55  1  0  0  0  0
 22 28  2  0  0  0  0
 23 25  1  0  0  0  0
 23 56  1  0  0  0  0
 23 57  1  0  0  0  0
 24 26  1  0  0  0  0
 24 29  2  0  0  0  0
 25 26  1  0  0  0  0
 25 58  1  0  0  0  0
 25 59  1  0  0  0  0
 26 30  2  0  0  0  0
 27 31  1  0  0  0  0
 29 33  1  0  0  0  0
 29 60  1  0  0  0  0
 30 34  1  0  0  0  0
 30 61  1  0  0  0  0
 31 35  2  0  0  0  0
 31 36  1  0  0  0  0
 32 62  1  0  0  0  0
 33 34  2  0  0  0  0
 33 63  1  0  0  0  0
 34 64  1  0  0  0  0
 35 38  1  0  0  0  0
 35 65  1  0  0  0  0
 36 37  2  0  0  0  0
 36 66  1  0  0  0  0
 37 39  1  0  0  0  0
 38 39  2  0  0  0  0
 39 67  1  0  0  0  0
 40 68  1  0  0  0  0
 40 69  1  0  0  0  0
 40 70  1  0  0  0  0
 41 71  1  0  0  0  0
 41 72  1  0  0  0  0
 41 73  1  0  0  0  0
M  END
>  <DRUGBANK_ID>
DB04477

>  <SECONDARY_ACCESSION_NUMBERS>
EXPT03076

>  <COMMON_NAME>
2'-Deoxy-2'-[(3,5-dimethoxybenzoyl)amino]-N-[(1R)-1,2,3,4-tetrahydro-1-naphthalenyl]adenosine

>  <SYNONYMS>
N-1,2,3,4-Tetrahydronaphth-1-yl-2'-[3,5-dimethoxybenzamido]-2'-deoxy-adenosine

$$$$
