
 OpenBabel10282417072D

 56 58  0  0  0  0  0  0  0  0999 V2000
    1.3905    0.4488    0.0000 S   0  0  0  0  0  0  0  0  0  0  0  0
    2.6343    4.0189    0.0000 S   0  0  0  0  0  0  0  0  0  0  0  0
   -1.0824   -1.0621    0.0000 O   0  0  0  0  0  0  0  0  0  0  0  0
   -0.4568   -3.1032    0.0000 O   0  0  0  0  0  0  0  0  0  0  0  0
    0.8790   -1.9045    0.0000 O   0  0  0  0  0  0  0  0  0  0  0  0
    0.9768   -0.2649    0.0000 O   0  0  0  0  0  0  0  0  0  0  0  0
    2.1043    0.0350    0.0000 O   0  0  0  0  0  0  0  0  0  0  0  0
    0.6768    0.8624    0.0000 O   0  0  0  0  0  0  0  0  0  0  0  0
    3.0406    0.4459    0.0000 O   0  0  0  0  0  0  0  0  0  0  0  0
   -2.0096   -2.2030    0.0000 N   0  0  0  0  0  0  0  0  0  0  0  0
   -2.9964   -3.0915    0.0000 N   0  0  0  0  0  0  0  0  0  0  0  0
   -2.8903   -0.9841    0.0000 N   0  0  0  0  0  0  0  0  0  0  0  0
   -4.2881   -1.2812    0.0000 N   0  0  0  0  0  0  0  0  0  0  0  0
   -4.7295   -2.6403    0.0000 N   0  0  0  0  0  0  0  0  0  0  0  0
    1.8043    1.1624    0.0000 N   0  0  0  0  0  0  0  0  0  0  0  0
    3.8680    1.8734    0.0000 N   0  0  0  0  0  0  0  0  0  0  0  0
   -1.2554   -1.8688    0.0000 C   0  0  1  0  0  0  0  0  0  0  0  0
   -0.5416   -2.2825    0.0000 C   0  0  1  0  0  0  0  0  0  0  0  0
    0.0723   -1.7316    0.0000 C   0  0  1  0  0  0  0  0  0  0  0  0
   -0.2618   -0.9772    0.0000 C   0  0  1  0  0  0  0  0  0  0  0  0
   -2.7188   -1.7912    0.0000 C   0  0  3  0  0  0  0  0  0  0  0  0
    0.1519   -0.2635    0.0000 C   0  0  0  0  0  0  0  0  0  0  0  0
   -2.1808   -3.0051    0.0000 C   0  0  0  0  0  0  0  0  0  0  0  0
   -3.3318   -2.3431    0.0000 C   0  0  0  0  0  0  0  0  0  0  0  0
   -4.1165   -2.0882    0.0000 C   0  0  0  0  0  0  0  0  0  0  0  0
   -3.6749   -0.7291    0.0000 C   0  0  0  0  0  0  0  0  0  0  0  0
    3.0431    1.8749    0.0000 C   0  0  2  0  0  0  0  0  0  0  0  0
    2.6293    1.1610    0.0000 C   0  0  0  0  0  0  0  0  0  0  0  0
    2.6317    2.5900    0.0000 C   0  0  0  0  0  0  0  0  0  0  0  0
    3.0456    3.3037    0.0000 C   0  0  0  0  0  0  0  0  0  0  0  0
    3.0480    4.7326    0.0000 C   0  0  0  0  0  0  0  0  0  0  0  0
   -1.2425   -3.6720    0.0000 H   0  0  0  0  0  0  0  0  0  0  0  0
    1.1772   -2.8275    0.0000 H   0  0  0  0  0  0  0  0  0  0  0  0
   -5.2244   -0.9770    0.0000 H   0  0  0  0  0  0  0  0  0  0  0  0
   -5.6659   -2.3362    0.0000 H   0  0  0  0  0  0  0  0  0  0  0  0
   -4.5247   -3.6033    0.0000 H   0  0  0  0  0  0  0  0  0  0  0  0
    1.3136    2.0159    0.0000 H   0  0  0  0  0  0  0  0  0  0  0  0
    4.3764    0.9891    0.0000 H   0  0  0  0  0  0  0  0  0  0  0  0
    4.3796    2.7558    0.0000 H   0  0  0  0  0  0  0  0  0  0  0  0
   -2.0857   -1.1939    0.0000 H   0  0  0  0  0  0  0  0  0  0  0  0
   -1.4400   -2.8637    0.0000 H   0  0  0  0  0  0  0  0  0  0  0  0
    0.3475   -2.7656    0.0000 H   0  0  0  0  0  0  0  0  0  0  0  0
   -0.8431   -0.0788    0.0000 H   0  0  0  0  0  0  0  0  0  0  0  0
   -1.8524   -1.1634    0.0000 H   0  0  0  0  0  0  0  0  0  0  0  0
   -0.3815    0.6641    0.0000 H   0  0  0  0  0  0  0  0  0  0  0  0
   -0.9181   -0.2617    0.0000 H   0  0  0  0  0  0  0  0  0  0  0  0
   -1.4903   -3.7720    0.0000 H   0  0  0  0  0  0  0  0  0  0  0  0
   -3.8894    0.2804    0.0000 H   0  0  0  0  0  0  0  0  0  0  0  0
    3.5765    0.9473    0.0000 H   0  0  0  0  0  0  0  0  0  0  0  0
    1.5617    2.5919    0.0000 H   0  0  0  0  0  0  0  0  0  0  0  0
    2.0984    3.5176    0.0000 H   0  0  0  0  0  0  0  0  0  0  0  0
    4.1156    3.3018    0.0000 H   0  0  0  0  0  0  0  0  0  0  0  0
    3.5789    2.3760    0.0000 H   0  0  0  0  0  0  0  0  0  0  0  0
    4.1180    4.7308    0.0000 H   0  0  0  0  0  0  0  0  0  0  0  0
    2.5146    5.6602    0.0000 H   0  0  0  0  0  0  0  0  0  0  0  0
    3.5846    5.6583    0.0000 H   0  0  0  0  0  0  0  0  0  0  0  0
  1  6  1  0  0  0  0
  1  7  2  0  0  0  0
  1  8  2  0  0  0  0
  1 15  1  0  0  0  0
  2 30  1  0  0  0  0
  2 31  1  0  0  0  0
  3 17  1  0  0  0  0
  3 20  1  0  0  0  0
  4 32  1  0  0  0  0
  5 33  1  0  0  0  0
  6 22  1  0  0  0  0
  9 28  2  0  0  0  0
 10 21  1  0  0  0  0
 10 23  1  0  0  0  0
 11 23  2  0  0  0  0
 11 24  1  0  0  0  0
 12 21  1  0  0  0  0
 12 26  2  0  0  0  0
 13 25  1  0  0  0  0
 13 26  1  0  0  0  0
 13 34  1  0  0  0  0
 14 25  1  0  0  0  0
 14 35  1  0  0  0  0
 14 36  1  0  0  0  0
 15 28  1  0  0  0  0
 15 37  1  0  0  0  0
 16 38  1  0  0  0  0
 16 39  1  0  0  0  0
 17 10  1  0  0  0  0
 17 18  1  0  0  0  0
 17 40  1  1  0  0  0
 18  4  1  0  0  0  0
 18 19  1  0  0  0  0
 18 41  1  6  0  0  0
 19  5  1  0  0  0  0
 19 20  1  0  0  0  0
 19 42  1  6  0  0  0
 20 22  1  0  0  0  0
 20 43  1  1  0  0  0
 21 24  1  0  0  0  0
 21 44  1  0  0  0  0
 22 45  1  0  0  0  0
 22 46  1  0  0  0  0
 23 47  1  0  0  0  0
 24 25  2  0  0  0  0
 26 48  1  0  0  0  0
 27 16  1  0  0  0  0
 27 28  1  0  0  0  0
 27 29  1  0  0  0  0
 27 49  1  1  0  0  0
 29 30  1  0  0  0  0
 29 50  1  0  0  0  0
 29 51  1  0  0  0  0
 30 52  1  0  0  0  0
 30 53  1  0  0  0  0
 31 54  1  0  0  0  0
 31 55  1  0  0  0  0
 31 56  1  0  0  0  0
M  END
>  <DRUGBANK_ID>
DB02229

>  <SECONDARY_ACCESSION_NUMBERS>
EXPT02239

>  <COMMON_NAME>
5'-O-[(L-methionyl)-sulphamoyl]adenosine

$$$$
