
 OpenBabel10282417072D

 30 33  0  0  0  0  0  0  0  0999 V2000
    0.2989    0.8199    0.0000 C   0  0  0  0  0  0  0  0  0  0  0  0
    0.2989   -0.0051    0.0000 C   0  0  0  0  0  0  0  0  0  0  0  0
   -0.3668    1.2821    0.0000 C   0  0  0  0  0  0  0  0  0  0  0  0
    0.9621    1.2821    0.0000 C   0  0  0  0  0  0  0  0  0  0  0  0
   -0.3668   -0.4674    0.0000 N   0  0  0  0  0  0  0  0  0  0  0  0
    0.9621   -0.4674    0.0000 C   0  0  0  0  0  0  0  0  0  0  0  0
   -0.1109    2.0968    0.0000 C   0  0  0  0  0  0  0  0  0  0  0  0
   -1.1867    1.1227    0.0000 C   0  0  0  0  0  0  0  0  0  0  0  0
    0.7063    2.0968    0.0000 N   0  0  0  0  0  0  0  0  0  0  0  0
    1.7377    1.0001    0.0000 O   0  0  0  0  0  0  0  0  0  0  0  0
   -0.1109   -1.2716    0.0000 C   0  0  0  0  0  0  0  0  0  0  0  0
    0.7063   -1.2716    0.0000 C   0  0  0  0  0  0  0  0  0  0  0  0
    1.7377   -0.1801    0.0000 O   0  0  0  0  0  0  0  0  0  0  0  0
   -0.6776    2.7025    0.0000 C   0  0  0  0  0  0  0  0  0  0  0  0
   -1.7377    1.7364    0.0000 C   0  0  0  0  0  0  0  0  0  0  0  0
   -0.5418   -1.9923    0.0000 C   0  0  0  0  0  0  0  0  0  0  0  0
    1.1136   -1.9923    0.0000 C   0  0  0  0  0  0  0  0  0  0  0  0
   -1.4897    2.5224    0.0000 C   0  0  0  0  0  0  0  0  0  0  0  0
   -0.1161   -2.7025    0.0000 C   0  0  0  0  0  0  0  0  0  0  0  0
    0.7063   -2.7025    0.0000 C   0  0  0  0  0  0  0  0  0  0  0  0
   -1.2989   -0.1504    0.0000 H   0  0  0  0  0  0  0  0  0  0  0  0
   -1.5148    0.1443    0.0000 H   0  0  0  0  0  0  0  0  0  0  0  0
    1.2889    2.8904    0.0000 H   0  0  0  0  0  0  0  0  0  0  0  0
   -0.3724    3.6883    0.0000 H   0  0  0  0  0  0  0  0  0  0  0  0
   -2.7464    1.5183    0.0000 H   0  0  0  0  0  0  0  0  0  0  0  0
   -1.5738   -1.9929    0.0000 H   0  0  0  0  0  0  0  0  0  0  0  0
    2.1456   -1.9956    0.0000 H   0  0  0  0  0  0  0  0  0  0  0  0
   -2.1869    3.2833    0.0000 H   0  0  0  0  0  0  0  0  0  0  0  0
   -0.6248   -3.6004    0.0000 H   0  0  0  0  0  0  0  0  0  0  0  0
    1.2236   -3.5955    0.0000 H   0  0  0  0  0  0  0  0  0  0  0  0
  1  2  2  0  0  0  0
  1  3  1  0  0  0  0
  1  4  1  0  0  0  0
  2  5  1  0  0  0  0
  2  6  1  0  0  0  0
  3  7  2  0  0  0  0
  3  8  1  0  0  0  0
  4  9  1  0  0  0  0
  4 10  2  0  0  0  0
  5 11  1  0  0  0  0
  5 21  1  0  0  0  0
  6 12  1  0  0  0  0
  6 13  2  0  0  0  0
  7 14  1  0  0  0  0
  7  9  1  0  0  0  0
  8 15  2  0  0  0  0
  8 22  1  0  0  0  0
  9 23  1  0  0  0  0
 11 16  1  0  0  0  0
 11 12  2  0  0  0  0
 12 17  1  0  0  0  0
 14 18  2  0  0  0  0
 14 24  1  0  0  0  0
 15 18  1  0  0  0  0
 15 25  1  0  0  0  0
 16 19  2  0  0  0  0
 16 26  1  0  0  0  0
 17 20  2  0  0  0  0
 17 27  1  0  0  0  0
 18 28  1  0  0  0  0
 19 20  1  0  0  0  0
 19 29  1  0  0  0  0
 20 30  1  0  0  0  0
M  END
>  <DRUGBANK_ID>
DB12379

>  <COMMON_NAME>
Indirubin

>  <CAS_NUMBER>
479-41-4

>  <UNII>
1LXW6D3W2Z

>  <SYNONYMS>
Couroupitine B; Indirubin

$$$$
