
 OpenBabel10282417072D

 26 26  0  0  0  0  0  0  0  0999 V2000
    3.7934    2.2688    0.0000 N   0  0  0  0  0  0  0  0  0  0  0  0
    1.6500   -2.2688    0.0000 N   0  0  0  0  0  0  0  0  0  0  0  0
    3.0790    1.0313    0.0000 C   0  0  0  0  0  0  0  0  0  0  0  0
    3.7934    1.4438    0.0000 C   0  0  0  0  0  0  0  0  0  0  0  0
    3.0790    0.2063    0.0000 C   0  0  0  0  0  0  0  0  0  0  0  0
    2.3644   -0.2063    0.0000 C   0  0  0  0  0  0  0  0  0  0  0  0
    2.3644   -1.0313    0.0000 C   0  0  0  0  0  0  0  0  0  0  0  0
    4.5079    2.6812    0.0000 C   0  0  0  0  0  0  0  0  0  0  0  0
    3.0790   -1.4438    0.0000 C   0  0  0  0  0  0  0  0  0  0  0  0
    1.6500   -1.4438    0.0000 C   0  0  0  0  0  0  0  0  0  0  0  0
    3.0790   -2.2688    0.0000 C   0  0  0  0  0  0  0  0  0  0  0  0
    2.3644   -2.6812    0.0000 C   0  0  0  0  0  0  0  0  0  0  0  0
    2.9101    2.7789    0.0000 H   0  0  0  0  0  0  0  0  0  0  0  0
    2.1523    1.5663    0.0000 H   0  0  0  0  0  0  0  0  0  0  0  0
    2.1524    0.4963    0.0000 H   0  0  0  0  0  0  0  0  0  0  0  0
    4.7201    0.9088    0.0000 H   0  0  0  0  0  0  0  0  0  0  0  0
    3.7934    0.3738    0.0000 H   0  0  0  0  0  0  0  0  0  0  0  0
    3.9727   -0.3097    0.0000 H   0  0  0  0  0  0  0  0  0  0  0  0
    1.4707    0.3097    0.0000 H   0  0  0  0  0  0  0  0  0  0  0  0
    5.4345    2.1461    0.0000 H   0  0  0  0  0  0  0  0  0  0  0  0
    4.5080    3.7512    0.0000 H   0  0  0  0  0  0  0  0  0  0  0  0
    5.4346    3.2161    0.0000 H   0  0  0  0  0  0  0  0  0  0  0  0
    3.9727   -0.9278    0.0000 H   0  0  0  0  0  0  0  0  0  0  0  0
    0.7563   -0.9278    0.0000 H   0  0  0  0  0  0  0  0  0  0  0  0
    3.9727   -2.7849    0.0000 H   0  0  0  0  0  0  0  0  0  0  0  0
    2.3643   -3.7132    0.0000 H   0  0  0  0  0  0  0  0  0  0  0  0
  1  4  1  0  0  0  0
  1  8  1  0  0  0  0
  1 13  1  0  0  0  0
  2 10  1  0  0  0  0
  2 12  2  0  0  0  0
  3  4  1  0  0  0  0
  3  5  1  0  0  0  0
  3 14  1  0  0  0  0
  3 15  1  0  0  0  0
  4 16  1  0  0  0  0
  4 17  1  0  0  0  0
  5  6  2  0  0  0  0
  5 18  1  0  0  0  0
  6  7  1  0  0  0  0
  6 19  1  0  0  0  0
  7  9  1  0  0  0  0
  7 10  2  0  0  0  0
  8 20  1  0  0  0  0
  8 21  1  0  0  0  0
  8 22  1  0  0  0  0
  9 11  2  0  0  0  0
  9 23  1  0  0  0  0
 10 24  1  0  0  0  0
 11 12  1  0  0  0  0
 11 25  1  0  0  0  0
 12 26  1  0  0  0  0
M  END
>  <DRUGBANK_ID>
DB05855

>  <COMMON_NAME>
Rivanicline

>  <CAS_NUMBER>
15585-43-0

>  <UNII>
6H35LF645A

>  <SYNONYMS>
(3E)-N-methyl-4-(pyridin-3-yl)but-3-en-1-amine; (E)-metanicotine; (E)-N-Methyl-4-(3-pyridinyl)-3-butene-1-amine; N-methyl-4-(3-pyridinyl)-(3E)-3-buten-1-amine; Rivanicline; trans-metanicotine

$$$$
