
 OpenBabel10282417072D

 58 61  0  0  0  0  0  0  0  0999 V2000
   -1.6637   -0.1982    0.0000 C   0  0  0  0  0  0  0  0  0  0  0  0
   -1.1736    0.4758    0.0000 C   0  0  0  0  0  0  0  0  0  0  0  0
   -1.6637    1.1193    0.0000 C   0  0  1  0  0  0  0  0  0  0  0  0
   -2.4298    0.0469    0.0000 N   0  0  0  0  0  0  0  0  0  0  0  0
   -2.4298    0.8742    0.0000 C   0  0  1  0  0  0  0  0  0  0  0  0
   -3.2877    0.8742    0.0000 C   0  0  2  0  0  0  0  0  0  0  0  0
   -3.2877    0.0469    0.0000 C   0  0  0  0  0  0  0  0  0  0  0  0
   -3.9923    1.2725    0.0000 C   0  0  2  0  0  0  0  0  0  0  0  0
   -3.9923    2.0997    0.0000 O   0  0  0  0  0  0  0  0  0  0  0  0
   -4.6971    0.8742    0.0000 C   0  0  0  0  0  0  0  0  0  0  0  0
   -3.8392   -0.5352    0.0000 O   0  0  0  0  0  0  0  0  0  0  0  0
   -1.4800   -0.9948    0.0000 C   0  0  0  0  0  0  0  0  0  0  0  0
   -0.7139   -1.2706    0.0000 O   0  0  0  0  0  0  0  0  0  0  0  0
   -2.0928   -1.5770    0.0000 O   0  0  0  0  0  0  0  0  0  0  0  0
   -1.4186    1.9158    0.0000 C   0  0  0  0  0  0  0  0  0  0  0  0
   -0.3463    0.4758    0.0000 S   0  0  0  0  0  0  0  0  0  0  0  0
    0.0516   -0.2586    0.0000 C   0  0  2  0  0  0  0  0  0  0  0  0
   -0.2079   -1.0418    0.0000 C   0  0  0  0  0  0  0  0  0  0  0  0
    0.4670   -1.5150    0.0000 N   0  0  0  0  0  0  0  0  0  0  0  0
    1.1079   -1.0213    0.0000 C   0  0  1  0  0  0  0  0  0  0  0  0
    0.8691   -0.2588    0.0000 C   0  0  0  0  0  0  0  0  0  0  0  0
    1.8107   -1.4527    0.0000 C   0  0  0  0  0  0  0  0  0  0  0  0
    1.8087   -2.2492    0.0000 O   0  0  0  0  0  0  0  0  0  0  0  0
    2.5472   -1.0256    0.0000 N   0  0  0  0  0  0  0  0  0  0  0  0
    2.5492   -0.1983    0.0000 C   0  0  0  0  0  0  0  0  0  0  0  0
    1.8149    0.2018    0.0000 C   0  0  0  0  0  0  0  0  0  0  0  0
    1.8170    1.0291    0.0000 C   0  0  0  0  0  0  0  0  0  0  0  0
    2.5534    1.4562    0.0000 C   0  0  0  0  0  0  0  0  0  0  0  0
    3.2571    1.0255    0.0000 C   0  0  0  0  0  0  0  0  0  0  0  0
    3.2549    0.1982    0.0000 C   0  0  0  0  0  0  0  0  0  0  0  0
    3.9628    1.4526    0.0000 C   0  0  0  0  0  0  0  0  0  0  0  0
    4.6971    1.0218    0.0000 O   0  0  0  0  0  0  0  0  0  0  0  0
    3.9648    2.2492    0.0000 O   0  0  0  0  0  0  0  0  0  0  0  0
   -3.2571    1.7014    0.0000 H   0  0  0  0  0  0  0  0  0  0  0  0
   -2.4298    1.7014    0.0000 H   0  0  0  0  0  0  0  0  0  0  0  0
    1.9022   -0.8091    0.0000 H   0  0  0  0  0  0  0  0  0  0  0  0
   -0.7490   -0.4703    0.0000 H   0  0  0  0  0  0  0  0  0  0  0  0
   -0.6103    1.3068    0.0000 H   0  0  0  0  0  0  0  0  0  0  0  0
   -3.0681    1.8117    0.0000 H   0  0  0  0  0  0  0  0  0  0  0  0
   -3.1523    2.5847    0.0000 H   0  0  0  0  0  0  0  0  0  0  0  0
   -5.6188    1.4177    0.0000 H   0  0  0  0  0  0  0  0  0  0  0  0
   -4.7070   -0.1958    0.0000 H   0  0  0  0  0  0  0  0  0  0  0  0
   -5.6286    0.3478    0.0000 H   0  0  0  0  0  0  0  0  0  0  0  0
   -2.9914   -1.3114    0.0000 H   0  0  0  0  0  0  0  0  0  0  0  0
   -0.3756    2.1546    0.0000 H   0  0  0  0  0  0  0  0  0  0  0  0
   -2.1469    2.6997    0.0000 H   0  0  0  0  0  0  0  0  0  0  0  0
   -1.1039    2.9385    0.0000 H   0  0  0  0  0  0  0  0  0  0  0  0
   -1.2237   -1.3781    0.0000 H   0  0  0  0  0  0  0  0  0  0  0  0
   -0.3635   -2.1004    0.0000 H   0  0  0  0  0  0  0  0  0  0  0  0
    0.4899   -2.5347    0.0000 H   0  0  0  0  0  0  0  0  0  0  0  0
    1.5027    0.6034    0.0000 H   0  0  0  0  0  0  0  0  0  0  0  0
    1.9245   -0.4347    0.0000 H   0  0  0  0  0  0  0  0  0  0  0  0
    3.3997   -1.5181    0.0000 H   0  0  0  0  0  0  0  0  0  0  0  0
    0.9269   -0.3241    0.0000 H   0  0  0  0  0  0  0  0  0  0  0  0
    0.9234    1.5454    0.0000 H   0  0  0  0  0  0  0  0  0  0  0  0
    2.5656    2.4881    0.0000 H   0  0  0  0  0  0  0  0  0  0  0  0
    4.1449   -0.3242    0.0000 H   0  0  0  0  0  0  0  0  0  0  0  0
    4.6906    0.0848    0.0000 H   0  0  0  0  0  0  0  0  0  0  0  0
  2  1  2  0  0  0  0
  3  2  1  0  0  0  0
  3 15  1  0  0  0  0
  3 38  1  6  0  0  0
  4  1  1  0  0  0  0
  5  3  1  0  0  0  0
  5  4  1  0  0  0  0
  5 35  1  6  0  0  0
  6  5  1  0  0  0  0
  6 34  1  1  0  0  0
  7  4  1  0  0  0  0
  7  6  1  0  0  0  0
  8  6  1  0  0  0  0
  8  9  1  0  0  0  0
  8 39  1  6  0  0  0
  9 40  1  0  0  0  0
 10  8  1  0  0  0  0
 10 41  1  0  0  0  0
 10 42  1  0  0  0  0
 10 43  1  0  0  0  0
 11  7  2  0  0  0  0
 12  1  1  0  0  0  0
 13 12  2  0  0  0  0
 14 12  1  0  0  0  0
 14 44  1  0  0  0  0
 15 45  1  0  0  0  0
 15 46  1  0  0  0  0
 15 47  1  0  0  0  0
 16  2  1  0  0  0  0
 17 16  1  0  0  0  0
 17 37  1  6  0  0  0
 18 17  1  0  0  0  0
 18 48  1  0  0  0  0
 18 49  1  0  0  0  0
 19 18  1  0  0  0  0
 19 50  1  0  0  0  0
 20 19  1  0  0  0  0
 20 22  1  0  0  0  0
 20 36  1  6  0  0  0
 21 17  1  0  0  0  0
 21 20  1  0  0  0  0
 21 51  1  0  0  0  0
 21 52  1  0  0  0  0
 23 22  2  0  0  0  0
 24 22  1  0  0  0  0
 24 53  1  0  0  0  0
 25 24  1  0  0  0  0
 26 25  2  0  0  0  0
 26 54  1  0  0  0  0
 27 26  1  0  0  0  0
 27 55  1  0  0  0  0
 28 27  2  0  0  0  0
 28 56  1  0  0  0  0
 29 28  1  0  0  0  0
 30 25  1  0  0  0  0
 30 29  2  0  0  0  0
 30 57  1  0  0  0  0
 31 29  1  0  0  0  0
 32 31  1  0  0  0  0
 32 58  1  0  0  0  0
 33 31  2  0  0  0  0
M  END
>  <DRUGBANK_ID>
DB00303

>  <SECONDARY_ACCESSION_NUMBERS>
APRD00952

>  <COMMON_NAME>
Ertapenem

>  <CAS_NUMBER>
153832-46-3

>  <UNII>
G32F6EID2H

>  <SYNONYMS>
(1R,5S,6S,8R,2'S,4'S)-2-(2-(3-carboxyphenylcarbamoyl)pyrrolidin-4-ylthio)-6-(1-hydroxyethyl)-1-methylcarbapenem-3-carboxylic acid; (4R,5S,6S)-3-((3S,5S)-5-((3-carboxyphenyl)carbamoyl)pyrrolidin-3-ylthio)-6-((R)-1-hydroxyethyl)-4-methyl-7-oxo-1-aza-bicyclo[3.2.0]hept-2-ene-2-carboxylic acid; Ertapenem

$$$$
