
 OpenBabel10282417072D

 51 53  0  0  0  0  0  0  0  0999 V2000
   -3.5724   -2.8875    0.0000 C   0  0  0  0  0  0  0  0  0  0  0  0
   -2.8579   -2.4750    0.0000 O   0  0  0  0  0  0  0  0  0  0  0  0
   -2.8579   -1.6500    0.0000 C   0  0  0  0  0  0  0  0  0  0  0  0
   -3.5724   -1.2375    0.0000 C   0  0  0  0  0  0  0  0  0  0  0  0
   -3.5724   -0.4125    0.0000 C   0  0  0  0  0  0  0  0  0  0  0  0
   -2.8579    0.0000    0.0000 C   0  0  0  0  0  0  0  0  0  0  0  0
   -2.1434   -0.4125    0.0000 C   0  0  0  0  0  0  0  0  0  0  0  0
   -2.1434   -1.2375    0.0000 C   0  0  0  0  0  0  0  0  0  0  0  0
   -1.4289   -1.6500    0.0000 N   0  0  0  0  0  0  0  0  0  0  0  0
   -0.7145   -1.2375    0.0000 C   0  0  0  0  0  0  0  0  0  0  0  0
    0.0000   -1.6500    0.0000 C   0  0  0  0  0  0  0  0  0  0  0  0
    0.0000   -2.4750    0.0000 N   0  0  0  0  0  0  0  0  0  0  0  0
   -0.7145   -2.8875    0.0000 C   0  0  0  0  0  0  0  0  0  0  0  0
   -1.4289   -2.4750    0.0000 C   0  0  0  0  0  0  0  0  0  0  0  0
    0.7145   -2.8875    0.0000 C   0  0  0  0  0  0  0  0  0  0  0  0
    1.4289   -2.4750    0.0000 C   0  0  0  0  0  0  0  0  0  0  0  0
    2.1434   -2.8875    0.0000 C   0  0  0  0  0  0  0  0  0  0  0  0
    2.8579   -2.4750    0.0000 C   0  0  0  0  0  0  0  0  0  0  0  0
    2.8579   -1.6500    0.0000 O   0  0  0  0  0  0  0  0  0  0  0  0
    3.5724   -2.8875    0.0000 C   0  0  0  0  0  0  0  0  0  0  0  0
    4.2868   -2.4750    0.0000 C   0  0  0  0  0  0  0  0  0  0  0  0
    5.0013   -2.8875    0.0000 C   0  0  0  0  0  0  0  0  0  0  0  0
    5.0013   -3.7125    0.0000 C   0  0  0  0  0  0  0  0  0  0  0  0
    4.2868   -4.1250    0.0000 C   0  0  0  0  0  0  0  0  0  0  0  0
    3.5724   -3.7125    0.0000 C   0  0  0  0  0  0  0  0  0  0  0  0
    5.7158   -4.1250    0.0000 F   0  0  0  0  0  0  0  0  0  0  0  0
   -4.4990   -2.3525    0.0000 H   0  0  0  0  0  0  0  0  0  0  0  0
   -3.5724   -3.9575    0.0000 H   0  0  0  0  0  0  0  0  0  0  0  0
   -4.4991   -3.4225    0.0000 H   0  0  0  0  0  0  0  0  0  0  0  0
   -4.4661   -1.7535    0.0000 H   0  0  0  0  0  0  0  0  0  0  0  0
   -4.4661    0.1035    0.0000 H   0  0  0  0  0  0  0  0  0  0  0  0
   -2.8579    1.0320    0.0000 H   0  0  0  0  0  0  0  0  0  0  0  0
   -1.2497    0.1035    0.0000 H   0  0  0  0  0  0  0  0  0  0  0  0
   -0.7145   -0.1675    0.0000 H   0  0  0  0  0  0  0  0  0  0  0  0
    0.2121   -0.7025    0.0000 H   0  0  0  0  0  0  0  0  0  0  0  0
    0.9266   -1.1150    0.0000 H   0  0  0  0  0  0  0  0  0  0  0  0
    0.9266   -2.1850    0.0000 H   0  0  0  0  0  0  0  0  0  0  0  0
   -0.7145   -3.9575    0.0000 H   0  0  0  0  0  0  0  0  0  0  0  0
   -1.6412   -3.4225    0.0000 H   0  0  0  0  0  0  0  0  0  0  0  0
   -2.3556   -3.0100    0.0000 H   0  0  0  0  0  0  0  0  0  0  0  0
   -2.3555   -1.9400    0.0000 H   0  0  0  0  0  0  0  0  0  0  0  0
    0.7145   -3.9575    0.0000 H   0  0  0  0  0  0  0  0  0  0  0  0
    1.6412   -3.4225    0.0000 H   0  0  0  0  0  0  0  0  0  0  0  0
    1.4289   -1.4050    0.0000 H   0  0  0  0  0  0  0  0  0  0  0  0
    2.3555   -1.9400    0.0000 H   0  0  0  0  0  0  0  0  0  0  0  0
    2.1434   -3.9575    0.0000 H   0  0  0  0  0  0  0  0  0  0  0  0
    3.0700   -3.4225    0.0000 H   0  0  0  0  0  0  0  0  0  0  0  0
    4.2868   -1.4430    0.0000 H   0  0  0  0  0  0  0  0  0  0  0  0
    5.8950   -2.3715    0.0000 H   0  0  0  0  0  0  0  0  0  0  0  0
    4.2868   -5.1570    0.0000 H   0  0  0  0  0  0  0  0  0  0  0  0
    2.6787   -4.2285    0.0000 H   0  0  0  0  0  0  0  0  0  0  0  0
  1  2  1  0  0  0  0
  1 27  1  0  0  0  0
  1 28  1  0  0  0  0
  1 29  1  0  0  0  0
  2  3  1  0  0  0  0
  3  4  2  0  0  0  0
  3  8  1  0  0  0  0
  4  5  1  0  0  0  0
  4 30  1  0  0  0  0
  5  6  2  0  0  0  0
  5 31  1  0  0  0  0
  6  7  1  0  0  0  0
  6 32  1  0  0  0  0
  7  8  2  0  0  0  0
  7 33  1  0  0  0  0
  8  9  1  0  0  0  0
  9 10  1  0  0  0  0
  9 14  1  0  0  0  0
 10 11  1  0  0  0  0
 10 34  1  0  0  0  0
 10 35  1  0  0  0  0
 11 12  1  0  0  0  0
 11 36  1  0  0  0  0
 11 37  1  0  0  0  0
 12 13  1  0  0  0  0
 12 15  1  0  0  0  0
 13 14  1  0  0  0  0
 13 38  1  0  0  0  0
 13 39  1  0  0  0  0
 14 40  1  0  0  0  0
 14 41  1  0  0  0  0
 15 16  1  0  0  0  0
 15 42  1  0  0  0  0
 15 43  1  0  0  0  0
 16 17  1  0  0  0  0
 16 44  1  0  0  0  0
 16 45  1  0  0  0  0
 17 18  1  0  0  0  0
 17 46  1  0  0  0  0
 17 47  1  0  0  0  0
 18 19  2  0  0  0  0
 18 20  1  0  0  0  0
 20 21  2  0  0  0  0
 20 25  1  0  0  0  0
 21 22  1  0  0  0  0
 21 48  1  0  0  0  0
 22 23  2  0  0  0  0
 22 49  1  0  0  0  0
 23 24  1  0  0  0  0
 23 26  1  0  0  0  0
 24 25  2  0  0  0  0
 24 50  1  0  0  0  0
 25 51  1  0  0  0  0
M  END
>  <DRUGBANK_ID>
DB13665

>  <COMMON_NAME>
Fluanisone

>  <CAS_NUMBER>
1480-19-9

>  <UNII>
1D0W98U1I4

>  <SYNONYMS>
Fluanisone

$$$$
