
 OpenBabel10282417072D

  9  8  0  0  0  0  0  0  0  0999 V2000
    0.8250    0.8250    0.0000 O   0  0  0  0  0  0  0  0  0  0  0  0
    0.8250   -0.8250    0.0000 O   0  0  0  0  0  0  0  0  0  0  0  0
    0.8250    0.0000    0.0000 Cr  0  0  0  0  0  0  0  0  0  0  0  0
    0.0000    0.0000    0.0000 O   0  0  0  0  0  0  0  0  0  0  0  0
   -0.8250    0.8250    0.0000 O   0  0  0  0  0  0  0  0  0  0  0  0
   -0.8250   -0.8250    0.0000 O   0  0  0  0  0  0  0  0  0  0  0  0
   -0.8250    0.0000    0.0000 Cr  0  0  0  0  0  0  0  0  0  0  0  0
    1.6500    0.0000    0.0000 O   0  5  0  0  0  0  0  0  0  0  0  0
   -1.6500    0.0000    0.0000 O   0  5  0  0  0  0  0  0  0  0  0  0
  3  1  2  0  0  0  0
  3  2  2  0  0  0  0
  3  8  1  0  0  0  0
  3  4  1  0  0  0  0
  7  4  1  0  0  0  0
  7  5  2  0  0  0  0
  7  6  2  0  0  0  0
  7  9  1  0  0  0  0
M  CHG  2   8  -1   9  -1
M  END
>  <DRUGBANK_ID>
DB14182

>  <COMMON_NAME>
Dichromate

>  <CAS_NUMBER>
13907-47-6

>  <UNII>
9LKY4BFN2V

>  <SYNONYMS>
Bichromate; Dichromat; Dichromate ion; dichromate ion(2−); dichromate(2−)

$$$$
