
 OpenBabel10282417072D

 94 99  0  0  1  0  0  0  0  0999 V2000
    4.0668    2.3479    0.0000 C   0  0  0  0  0  0  0  0  0  0  0  0
    3.3523    1.9354    0.0000 C   0  0  0  0  0  0  0  0  0  0  0  0
    3.3523    1.1104    0.0000 C   0  0  0  0  0  0  0  0  0  0  0  0
    2.6378    0.6979    0.0000 C   0  0  0  0  0  0  0  0  0  0  0  0
    1.9233    1.1104    0.0000 C   0  0  0  0  0  0  0  0  0  0  0  0
    1.1387    0.8555    0.0000 C   0  0  0  0  0  0  0  0  0  0  0  0
    0.6538    1.5229    0.0000 C   0  0  0  0  0  0  0  0  0  0  0  0
    1.1387    2.1904    0.0000 S   0  0  0  0  0  0  0  0  0  0  0  0
    1.9233    1.9354    0.0000 C   0  0  0  0  0  0  0  0  0  0  0  0
    2.6378    2.3479    0.0000 C   0  0  0  0  0  0  0  0  0  0  0  0
   -0.1712    1.5229    0.0000 C   0  0  0  0  0  0  0  0  0  0  0  0
   -0.5837    2.2374    0.0000 O   0  0  0  0  0  0  0  0  0  0  0  0
   -0.5837    0.8085    0.0000 N   0  0  0  0  0  0  0  0  0  0  0  0
   -1.4087    0.8085    0.0000 C   0  0  0  0  0  0  0  0  0  0  0  0
   -2.2157    0.6369    0.0000 C   0  0  0  0  0  0  0  0  0  0  0  0
   -2.6282    1.3514    0.0000 C   0  0  0  0  0  0  0  0  0  0  0  0
   -2.0761    1.9645    0.0000 C   0  0  0  0  0  0  0  0  0  0  0  0
   -1.3225    1.6290    0.0000 C   0  0  0  0  0  0  0  0  0  0  0  0
   -1.3225   -0.0120    0.0000 C   0  0  0  0  0  0  0  0  0  0  0  0
   -1.9899   -0.4969    0.0000 O   0  0  0  0  0  0  0  0  0  0  0  0
   -0.5688   -0.3476    0.0000 N   0  0  0  0  0  0  0  0  0  0  0  0
   -0.4826   -1.1680    0.0000 C   0  0  2  0  0  0  0  0  0  0  0  0
   -1.1500   -1.6530    0.0000 C   0  0  0  0  0  0  0  0  0  0  0  0
   -1.0638   -2.4735    0.0000 C   0  0  0  0  0  0  0  0  0  0  0  0
   -0.3101   -2.8090    0.0000 C   0  0  0  0  0  0  0  0  0  0  0  0
   -0.2238   -3.6295    0.0000 C   0  0  0  0  0  0  0  0  0  0  0  0
   -0.8913   -4.1144    0.0000 C   0  0  0  0  0  0  0  0  0  0  0  0
   -1.6450   -3.7789    0.0000 C   0  0  0  0  0  0  0  0  0  0  0  0
   -1.7312   -2.9584    0.0000 C   0  0  0  0  0  0  0  0  0  0  0  0
    0.2711   -1.5036    0.0000 C   0  0  0  0  0  0  0  0  0  0  0  0
    0.9386   -1.0187    0.0000 O   0  0  0  0  0  0  0  0  0  0  0  0
    0.3574   -2.3241    0.0000 N   0  0  0  0  0  0  0  0  0  0  0  0
    1.1110   -2.6596    0.0000 C   0  0  0  0  0  0  0  0  0  0  0  0
    1.1973   -3.4801    0.0000 C   0  0  0  0  0  0  0  0  0  0  0  0
    1.9509   -3.8157    0.0000 C   0  0  0  0  0  0  0  0  0  0  0  0
    2.0372   -4.6362    0.0000 C   0  0  0  0  0  0  0  0  0  0  0  0
    1.3697   -5.1211    0.0000 N   0  0  0  0  0  0  0  0  0  0  0  0
    0.6161   -4.7855    0.0000 C   0  0  0  0  0  0  0  0  0  0  0  0
    0.5298   -3.9650    0.0000 C   0  0  0  0  0  0  0  0  0  0  0  0
    1.4560   -5.9416    0.0000 C   0  0  0  0  0  0  0  0  0  0  0  0
    2.2097   -6.2771    0.0000 C   0  0  0  0  0  0  0  0  0  0  0  0
    2.8771   -5.7922    0.0000 C   0  0  0  0  0  0  0  0  0  0  0  0
    3.6308   -6.1278    0.0000 C   0  0  0  0  0  0  0  0  0  0  0  0
    3.7170   -6.9482    0.0000 O   0  0  0  0  0  0  0  0  0  0  0  0
    3.0496   -7.4332    0.0000 C   0  0  0  0  0  0  0  0  0  0  0  0
    2.2959   -7.0976    0.0000 C   0  0  0  0  0  0  0  0  0  0  0  0
    4.9934    1.8129    0.0000 H   0  0  0  0  0  0  0  0  0  0  0  0
    4.0668    3.4179    0.0000 H   0  0  0  0  0  0  0  0  0  0  0  0
    4.9935    2.8829    0.0000 H   0  0  0  0  0  0  0  0  0  0  0  0
    4.2460    0.5944    0.0000 H   0  0  0  0  0  0  0  0  0  0  0  0
    2.6378   -0.3341    0.0000 H   0  0  0  0  0  0  0  0  0  0  0  0
    0.8198   -0.1260    0.0000 H   0  0  0  0  0  0  0  0  0  0  0  0
    2.6378    3.3799    0.0000 H   0  0  0  0  0  0  0  0  0  0  0  0
   -0.0915   -0.0441    0.0000 H   0  0  0  0  0  0  0  0  0  0  0  0
   -2.6509   -0.3406    0.0000 H   0  0  0  0  0  0  0  0  0  0  0  0
   -3.2842    0.5809    0.0000 H   0  0  0  0  0  0  0  0  0  0  0  0
   -3.6923    1.4633    0.0000 H   0  0  0  0  0  0  0  0  0  0  0  0
   -3.0116    2.3503    0.0000 H   0  0  0  0  0  0  0  0  0  0  0  0
   -2.2986    3.0111    0.0000 H   0  0  0  0  0  0  0  0  0  0  0  0
   -1.2446    2.6379    0.0000 H   0  0  0  0  0  0  0  0  0  0  0  0
   -0.3959    2.1640    0.0000 H   0  0  0  0  0  0  0  0  0  0  0  0
   -0.4251    1.0463    0.0000 H   0  0  0  0  0  0  0  0  0  0  0  0
    0.2277    0.2310    0.0000 H   0  0  0  0  0  0  0  0  0  0  0  0
   -1.4601   -0.7328    0.0000 H   0  0  0  0  0  0  0  0  0  0  0  0
   -2.1275   -1.2178    0.0000 H   0  0  0  0  0  0  0  0  0  0  0  0
   -2.0157   -2.2819    0.0000 H   0  0  0  0  0  0  0  0  0  0  0  0
    0.5248   -2.2023    0.0000 H   0  0  0  0  0  0  0  0  0  0  0  0
    0.7190   -4.0492    0.0000 H   0  0  0  0  0  0  0  0  0  0  0  0
   -0.7834   -5.1407    0.0000 H   0  0  0  0  0  0  0  0  0  0  0  0
   -2.4799   -4.3855    0.0000 H   0  0  0  0  0  0  0  0  0  0  0  0
   -2.6740   -2.5386    0.0000 H   0  0  0  0  0  0  0  0  0  0  0  0
   -0.4390   -2.9028    0.0000 H   0  0  0  0  0  0  0  0  0  0  0  0
    1.9766   -2.0306    0.0000 H   0  0  0  0  0  0  0  0  0  0  0  0
    2.0885   -3.0947    0.0000 H   0  0  0  0  0  0  0  0  0  0  0  0
    1.3091   -4.5442    0.0000 H   0  0  0  0  0  0  0  0  0  0  0  0
    2.8166   -3.1868    0.0000 H   0  0  0  0  0  0  0  0  0  0  0  0
    2.9284   -4.2509    0.0000 H   0  0  0  0  0  0  0  0  0  0  0  0
    3.0147   -5.0714    0.0000 H   0  0  0  0  0  0  0  0  0  0  0  0
    2.1490   -5.7003    0.0000 H   0  0  0  0  0  0  0  0  0  0  0  0
   -0.2496   -5.4144    0.0000 H   0  0  0  0  0  0  0  0  0  0  0  0
   -0.3614   -4.3503    0.0000 H   0  0  0  0  0  0  0  0  0  0  0  0
   -0.4477   -3.5298    0.0000 H   0  0  0  0  0  0  0  0  0  0  0  0
    0.4180   -2.9009    0.0000 H   0  0  0  0  0  0  0  0  0  0  0  0
    0.5904   -6.5706    0.0000 H   0  0  0  0  0  0  0  0  0  0  0  0
    1.5679   -7.0057    0.0000 H   0  0  0  0  0  0  0  0  0  0  0  0
    3.1872   -6.7123    0.0000 H   0  0  0  0  0  0  0  0  0  0  0  0
    2.7653   -4.7281    0.0000 H   0  0  0  0  0  0  0  0  0  0  0  0
    3.7428   -5.1633    0.0000 H   0  0  0  0  0  0  0  0  0  0  0  0
    4.4965   -5.4989    0.0000 H   0  0  0  0  0  0  0  0  0  0  0  0
    4.6083   -6.5630    0.0000 H   0  0  0  0  0  0  0  0  0  0  0  0
    3.1615   -8.4973    0.0000 H   0  0  0  0  0  0  0  0  0  0  0  0
    2.1840   -8.0621    0.0000 H   0  0  0  0  0  0  0  0  0  0  0  0
    1.4302   -7.7265    0.0000 H   0  0  0  0  0  0  0  0  0  0  0  0
    1.3184   -6.6623    0.0000 H   0  0  0  0  0  0  0  0  0  0  0  0
  1  2  1  0  0  0  0
  1 47  1  0  0  0  0
  1 48  1  0  0  0  0
  1 49  1  0  0  0  0
  2  3  2  0  0  0  0
  2 10  1  0  0  0  0
  3  4  1  0  0  0  0
  3 50  1  0  0  0  0
  4  5  2  0  0  0  0
  4 51  1  0  0  0  0
  5  6  1  0  0  0  0
  5  9  1  0  0  0  0
  6  7  2  0  0  0  0
  6 52  1  0  0  0  0
  7  8  1  0  0  0  0
  7 11  1  0  0  0  0
  8  9  1  0  0  0  0
  9 10  2  0  0  0  0
 10 53  1  0  0  0  0
 11 12  2  0  0  0  0
 11 13  1  0  0  0  0
 13 14  1  0  0  0  0
 13 54  1  0  0  0  0
 14 15  1  0  0  0  0
 14 18  1  0  0  0  0
 14 19  1  0  0  0  0
 15 16  1  0  0  0  0
 15 55  1  0  0  0  0
 15 56  1  0  0  0  0
 16 17  1  0  0  0  0
 16 57  1  0  0  0  0
 16 58  1  0  0  0  0
 17 18  1  0  0  0  0
 17 59  1  0  0  0  0
 17 60  1  0  0  0  0
 18 61  1  0  0  0  0
 18 62  1  0  0  0  0
 19 20  2  0  0  0  0
 19 21  1  0  0  0  0
 21 63  1  0  0  0  0
 22 21  1  0  0  0  0
 22 23  1  0  0  0  0
 22 30  1  0  0  0  0
 22 64  1  6  0  0  0
 23 24  1  0  0  0  0
 23 65  1  0  0  0  0
 23 66  1  0  0  0  0
 24 25  2  0  0  0  0
 24 29  1  0  0  0  0
 25 26  1  0  0  0  0
 25 67  1  0  0  0  0
 26 27  2  0  0  0  0
 26 68  1  0  0  0  0
 27 28  1  0  0  0  0
 27 69  1  0  0  0  0
 28 29  2  0  0  0  0
 28 70  1  0  0  0  0
 29 71  1  0  0  0  0
 30 31  2  0  0  0  0
 30 32  1  0  0  0  0
 32 33  1  0  0  0  0
 32 72  1  0  0  0  0
 33 34  1  0  0  0  0
 33 73  1  0  0  0  0
 33 74  1  0  0  0  0
 34 35  1  0  0  0  0
 34 39  1  0  0  0  0
 34 75  1  0  0  0  0
 35 36  1  0  0  0  0
 35 76  1  0  0  0  0
 35 77  1  0  0  0  0
 36 37  1  0  0  0  0
 36 78  1  0  0  0  0
 36 79  1  0  0  0  0
 37 38  1  0  0  0  0
 37 40  1  0  0  0  0
 38 39  1  0  0  0  0
 38 80  1  0  0  0  0
 38 81  1  0  0  0  0
 39 82  1  0  0  0  0
 39 83  1  0  0  0  0
 40 41  1  0  0  0  0
 40 84  1  0  0  0  0
 40 85  1  0  0  0  0
 41 42  1  0  0  0  0
 41 46  1  0  0  0  0
 41 86  1  0  0  0  0
 42 43  1  0  0  0  0
 42 87  1  0  0  0  0
 42 88  1  0  0  0  0
 43 44  1  0  0  0  0
 43 89  1  0  0  0  0
 43 90  1  0  0  0  0
 44 45  1  0  0  0  0
 45 46  1  0  0  0  0
 45 91  1  0  0  0  0
 45 92  1  0  0  0  0
 46 93  1  0  0  0  0
 46 94  1  0  0  0  0
M  END
>  <DRUGBANK_ID>
DB12042

>  <COMMON_NAME>
Ibodutant

>  <CAS_NUMBER>
522664-63-7

>  <UNII>
1H7RSQ28BJ

>  <SYNONYMS>
Ibodutant

$$$$
