
 OpenBabel10282417072D

 42 44  0  0  1  0  0  0  0  0999 V2000
    0.6592   -0.4677    0.0000 C   0  0  1  0  0  0  0  0  0  0  0  0
    1.4843   -0.4677    0.0000 C   0  0  1  0  0  0  0  0  0  0  0  0
    1.0718   -1.1822    0.0000 C   0  0  0  0  0  0  0  0  0  0  0  0
   -0.0552   -0.0553    0.0000 N   0  0  0  0  0  0  0  0  0  0  0  0
    2.1987   -0.0553    0.0000 C   0  0  0  0  0  0  0  0  0  0  0  0
    2.1987    0.7697    0.0000 C   0  0  0  0  0  0  0  0  0  0  0  0
    2.9132    1.1822    0.0000 C   0  0  0  0  0  0  0  0  0  0  0  0
    3.6278    0.7697    0.0000 C   0  0  0  0  0  0  0  0  0  0  0  0
    3.6278   -0.0553    0.0000 C   0  0  0  0  0  0  0  0  0  0  0  0
    2.9132   -0.4677    0.0000 C   0  0  0  0  0  0  0  0  0  0  0  0
   -0.7698   -0.4677    0.0000 C   0  0  0  0  0  0  0  0  0  0  0  0
   -1.4842    0.7697    0.0000 C   0  0  0  0  0  0  0  0  0  0  0  0
   -1.4842   -0.0553    0.0000 C   0  0  3  0  0  0  0  0  0  0  0  0
   -2.1987   -0.4677    0.0000 C   0  0  0  0  0  0  0  0  0  0  0  0
   -2.9132   -0.0553    0.0000 C   0  0  0  0  0  0  0  0  0  0  0  0
   -2.9132    0.7697    0.0000 C   0  0  3  0  0  0  0  0  0  0  0  0
   -2.1987    1.1822    0.0000 C   0  0  0  0  0  0  0  0  0  0  0  0
   -3.6278    1.1822    0.0000 N   0  0  0  0  0  0  0  0  0  0  0  0
    0.9361    0.5658    0.0000 H   0  0  0  0  0  0  0  0  0  0  0  0
    1.2074    0.5658    0.0000 H   0  0  0  0  0  0  0  0  0  0  0  0
    1.0719   -2.2522    0.0000 H   0  0  0  0  0  0  0  0  0  0  0  0
    0.0383   -1.4592    0.0000 H   0  0  0  0  0  0  0  0  0  0  0  0
   -0.0551    0.9647    0.0000 H   0  0  0  0  0  0  0  0  0  0  0  0
    1.3050    1.2857    0.0000 H   0  0  0  0  0  0  0  0  0  0  0  0
    2.9132    2.2142    0.0000 H   0  0  0  0  0  0  0  0  0  0  0  0
    4.5215    1.2857    0.0000 H   0  0  0  0  0  0  0  0  0  0  0  0
    4.5215   -0.5714    0.0000 H   0  0  0  0  0  0  0  0  0  0  0  0
    2.9132   -1.4997    0.0000 H   0  0  0  0  0  0  0  0  0  0  0  0
   -0.7699   -1.5377    0.0000 H   0  0  0  0  0  0  0  0  0  0  0  0
    0.1568   -1.0028    0.0000 H   0  0  0  0  0  0  0  0  0  0  0  0
   -0.5576    1.3047    0.0000 H   0  0  0  0  0  0  0  0  0  0  0  0
   -1.4842    1.8397    0.0000 H   0  0  0  0  0  0  0  0  0  0  0  0
   -2.4108    0.4798    0.0000 H   0  0  0  0  0  0  0  0  0  0  0  0
   -2.1987   -1.5377    0.0000 H   0  0  0  0  0  0  0  0  0  0  0  0
   -3.1253   -1.0028    0.0000 H   0  0  0  0  0  0  0  0  0  0  0  0
   -3.8398   -0.5904    0.0000 H   0  0  0  0  0  0  0  0  0  0  0  0
   -3.8399    0.4797    0.0000 H   0  0  0  0  0  0  0  0  0  0  0  0
   -1.9866    0.2347    0.0000 H   0  0  0  0  0  0  0  0  0  0  0  0
   -2.1987    2.2522    0.0000 H   0  0  0  0  0  0  0  0  0  0  0  0
   -1.2721    1.7172    0.0000 H   0  0  0  0  0  0  0  0  0  0  0  0
   -3.6279    2.2022    0.0000 H   0  0  0  0  0  0  0  0  0  0  0  0
   -4.5111    0.6721    0.0000 H   0  0  0  0  0  0  0  0  0  0  0  0
  1  2  1  0  0  0  0
  1  3  1  0  0  0  0
  1  4  1  0  0  0  0
  1 19  1  6  0  0  0
  2  3  1  0  0  0  0
  2  5  1  0  0  0  0
  2 20  1  1  0  0  0
  3 21  1  0  0  0  0
  3 22  1  0  0  0  0
  4 11  1  0  0  0  0
  4 23  1  0  0  0  0
  5  6  1  0  0  0  0
  5 10  2  0  0  0  0
  6  7  2  0  0  0  0
  6 24  1  0  0  0  0
  7  8  1  0  0  0  0
  7 25  1  0  0  0  0
  8  9  2  0  0  0  0
  8 26  1  0  0  0  0
  9 10  1  0  0  0  0
  9 27  1  0  0  0  0
 10 28  1  0  0  0  0
 11 13  1  0  0  0  0
 11 29  1  0  0  0  0
 11 30  1  0  0  0  0
 12 13  1  0  0  0  0
 12 17  1  0  0  0  0
 12 31  1  0  0  0  0
 12 32  1  0  0  0  0
 13 14  1  0  0  0  0
 13 33  1  0  0  0  0
 14 15  1  0  0  0  0
 14 34  1  0  0  0  0
 14 35  1  0  0  0  0
 15 16  1  0  0  0  0
 15 36  1  0  0  0  0
 15 37  1  0  0  0  0
 16 17  1  0  0  0  0
 16 18  1  0  0  0  0
 16 38  1  0  0  0  0
 17 39  1  0  0  0  0
 17 40  1  0  0  0  0
 18 41  1  0  0  0  0
 18 42  1  0  0  0  0
M  END
>  <DRUGBANK_ID>
DB16848

>  <COMMON_NAME>
ORY-1001

>  <CAS_NUMBER>
1401966-39-9

>  <UNII>
XC0UT08SNJ

>  <SYNONYMS>
Iadademstat

$$$$
