
 OpenBabel10282417072D

 82 82  0  0  1  0  0  0  0  0999 V2000
   -3.1982   -3.7582    0.0000 C   0  0  0  0  0  0  0  0  0  0  0  0
   -2.4136   -3.5033    0.0000 C   0  0  0  0  0  0  0  0  0  0  0  0
   -2.2420   -2.6963    0.0000 C   0  0  0  0  0  0  0  0  0  0  0  0
   -1.4574   -2.4414    0.0000 C   0  0  0  0  0  0  0  0  0  0  0  0
   -1.2859   -1.6344    0.0000 C   0  0  0  0  0  0  0  0  0  0  0  0
   -0.5013   -1.3794    0.0000 C   0  0  2  0  0  0  0  0  0  0  0  0
    0.1118   -1.9315    0.0000 O   0  0  0  0  0  0  0  0  0  0  0  0
   -0.3298   -0.5725    0.0000 C   0  0  0  0  0  0  0  0  0  0  0  0
    0.4549   -0.3175    0.0000 C   0  0  0  0  0  0  0  0  0  0  0  0
    0.6264    0.4894    0.0000 C   0  0  1  0  0  0  0  0  0  0  0  0
    0.0744    1.1025    0.0000 C   0  0  2  0  0  0  0  0  0  0  0  0
   -0.7461    1.0163    0.0000 O   0  0  0  0  0  0  0  0  0  0  0  0
    0.4869    1.8170    0.0000 C   0  0  0  0  0  0  0  0  0  0  0  0
    1.2938    1.6455    0.0000 C   0  0  0  0  0  0  0  0  0  0  0  0
    1.9069    2.1975    0.0000 O   0  0  0  0  0  0  0  0  0  0  0  0
    1.7354    3.0045    0.0000 C   0  0  0  0  0  0  0  0  0  0  0  0
    0.9508    3.2594    0.0000 O   0  0  0  0  0  0  0  0  0  0  0  0
    2.3485    3.5565    0.0000 C   0  0  0  0  0  0  0  0  0  0  0  0
    2.1770    4.3635    0.0000 C   0  0  0  0  0  0  0  0  0  0  0  0
    2.7901    4.9155    0.0000 C   0  0  0  0  0  0  0  0  0  0  0  0
    1.3801    0.8250    0.0000 C   0  0  0  0  0  0  0  0  0  0  0  0
    2.0945    0.4125    0.0000 C   0  0  0  0  0  0  0  0  0  0  0  0
    2.8090    0.8250    0.0000 C   0  0  0  0  0  0  0  0  0  0  0  0
    3.5235    0.4125    0.0000 C   0  0  0  0  0  0  0  0  0  0  0  0
    4.2380    0.8250    0.0000 C   0  0  0  0  0  0  0  0  0  0  0  0
    4.9524    0.4125    0.0000 C   0  0  0  0  0  0  0  0  0  0  0  0
    5.6669    0.8250    0.0000 C   0  0  0  0  0  0  0  0  0  0  0  0
    6.3814    0.4125    0.0000 C   0  0  0  0  0  0  0  0  0  0  0  0
    6.3814   -0.4125    0.0000 O   0  0  0  0  0  0  0  0  0  0  0  0
    7.0958    0.8250    0.0000 O   0  0  0  0  0  0  0  0  0  0  0  0
    7.8103    0.4125    0.0000 C   0  0  0  0  0  0  0  0  0  0  0  0
    8.5248    0.8250    0.0000 C   0  0  0  0  0  0  0  0  0  0  0  0
    9.2393    0.4125    0.0000 C   0  0  0  0  0  0  0  0  0  0  0  0
    9.9537    0.8250    0.0000 C   0  0  0  0  0  0  0  0  0  0  0  0
   -3.9933   -3.0422    0.0000 H   0  0  0  0  0  0  0  0  0  0  0  0
   -3.4207   -4.8048    0.0000 H   0  0  0  0  0  0  0  0  0  0  0  0
   -4.2158   -4.0888    0.0000 H   0  0  0  0  0  0  0  0  0  0  0  0
   -1.6185   -4.2193    0.0000 H   0  0  0  0  0  0  0  0  0  0  0  0
   -1.3959   -3.1727    0.0000 H   0  0  0  0  0  0  0  0  0  0  0  0
   -3.0371   -1.9803    0.0000 H   0  0  0  0  0  0  0  0  0  0  0  0
   -2.0195   -1.6497    0.0000 H   0  0  0  0  0  0  0  0  0  0  0  0
   -0.6622   -3.1574    0.0000 H   0  0  0  0  0  0  0  0  0  0  0  0
   -0.4398   -2.1107    0.0000 H   0  0  0  0  0  0  0  0  0  0  0  0
   -2.0811   -0.9185    0.0000 H   0  0  0  0  0  0  0  0  0  0  0  0
   -1.0635   -0.5878    0.0000 H   0  0  0  0  0  0  0  0  0  0  0  0
   -0.7238   -2.4260    0.0000 H   0  0  0  0  0  0  0  0  0  0  0  0
   -0.0899   -2.8803    0.0000 H   0  0  0  0  0  0  0  0  0  0  0  0
   -1.0967    0.1180    0.0000 H   0  0  0  0  0  0  0  0  0  0  0  0
    1.2218   -1.0080    0.0000 H   0  0  0  0  0  0  0  0  0  0  0  0
   -0.4071    0.2125    0.0000 H   0  0  0  0  0  0  0  0  0  0  0  0
   -0.3091    0.1036    0.0000 H   0  0  0  0  0  0  0  0  0  0  0  0
   -1.3162    1.8011    0.0000 H   0  0  0  0  0  0  0  0  0  0  0  0
    0.0517    2.7945    0.0000 H   0  0  0  0  0  0  0  0  0  0  0  0
    1.1603    2.6486    0.0000 H   0  0  0  0  0  0  0  0  0  0  0  0
    3.3661    3.2258    0.0000 H   0  0  0  0  0  0  0  0  0  0  0  0
    3.1437    4.2724    0.0000 H   0  0  0  0  0  0  0  0  0  0  0  0
    1.1594    4.6942    0.0000 H   0  0  0  0  0  0  0  0  0  0  0  0
    1.9546    5.4101    0.0000 H   0  0  0  0  0  0  0  0  0  0  0  0
    3.8077    4.5848    0.0000 H   0  0  0  0  0  0  0  0  0  0  0  0
    2.5677    5.9621    0.0000 H   0  0  0  0  0  0  0  0  0  0  0  0
    3.5853    5.6314    0.0000 H   0  0  0  0  0  0  0  0  0  0  0  0
    2.0945   -0.6575    0.0000 H   0  0  0  0  0  0  0  0  0  0  0  0
    3.0211   -0.1225    0.0000 H   0  0  0  0  0  0  0  0  0  0  0  0
    2.8090    1.8950    0.0000 H   0  0  0  0  0  0  0  0  0  0  0  0
    3.7356    1.3600    0.0000 H   0  0  0  0  0  0  0  0  0  0  0  0
    3.5235   -0.6575    0.0000 H   0  0  0  0  0  0  0  0  0  0  0  0
    4.4501   -0.1225    0.0000 H   0  0  0  0  0  0  0  0  0  0  0  0
    4.2380    1.8950    0.0000 H   0  0  0  0  0  0  0  0  0  0  0  0
    5.1647    1.3600    0.0000 H   0  0  0  0  0  0  0  0  0  0  0  0
    4.9524   -0.6575    0.0000 H   0  0  0  0  0  0  0  0  0  0  0  0
    5.8790   -0.1225    0.0000 H   0  0  0  0  0  0  0  0  0  0  0  0
    5.6669    1.8950    0.0000 H   0  0  0  0  0  0  0  0  0  0  0  0
    6.5935    1.3600    0.0000 H   0  0  0  0  0  0  0  0  0  0  0  0
    7.8103   -0.6575    0.0000 H   0  0  0  0  0  0  0  0  0  0  0  0
    8.7369   -0.1225    0.0000 H   0  0  0  0  0  0  0  0  0  0  0  0
    8.5248    1.8950    0.0000 H   0  0  0  0  0  0  0  0  0  0  0  0
    9.4514    1.3600    0.0000 H   0  0  0  0  0  0  0  0  0  0  0  0
    9.2393   -0.6575    0.0000 H   0  0  0  0  0  0  0  0  0  0  0  0
   10.1660   -0.1225    0.0000 H   0  0  0  0  0  0  0  0  0  0  0  0
   10.8804    0.2900    0.0000 H   0  0  0  0  0  0  0  0  0  0  0  0
    9.9537    1.8950    0.0000 H   0  0  0  0  0  0  0  0  0  0  0  0
   10.8803    1.3600    0.0000 H   0  0  0  0  0  0  0  0  0  0  0  0
  1  2  1  0  0  0  0
  1 35  1  0  0  0  0
  1 36  1  0  0  0  0
  1 37  1  0  0  0  0
  2  3  1  0  0  0  0
  2 38  1  0  0  0  0
  2 39  1  0  0  0  0
  3  4  1  0  0  0  0
  3 40  1  0  0  0  0
  3 41  1  0  0  0  0
  4  5  1  0  0  0  0
  4 42  1  0  0  0  0
  4 43  1  0  0  0  0
  5 44  1  0  0  0  0
  5 45  1  0  0  0  0
  6  5  1  0  0  0  0
  6  7  1  0  0  0  0
  6  8  1  0  0  0  0
  6 46  1  6  0  0  0
  7 47  1  0  0  0  0
  8  9  2  0  0  0  0
  8 48  1  0  0  0  0
  9 49  1  0  0  0  0
 10  9  1  0  0  0  0
 10 11  1  0  0  0  0
 10 21  1  0  0  0  0
 10 50  1  6  0  0  0
 11 12  1  0  0  0  0
 11 13  1  0  0  0  0
 11 51  1  1  0  0  0
 12 52  1  0  0  0  0
 13 14  1  0  0  0  0
 13 53  1  0  0  0  0
 13 54  1  0  0  0  0
 14 15  1  0  0  0  0
 14 21  2  0  0  0  0
 15 16  1  0  0  0  0
 16 17  2  0  0  0  0
 16 18  1  0  0  0  0
 18 19  1  0  0  0  0
 18 55  1  0  0  0  0
 18 56  1  0  0  0  0
 19 20  1  0  0  0  0
 19 57  1  0  0  0  0
 19 58  1  0  0  0  0
 20 59  1  0  0  0  0
 20 60  1  0  0  0  0
 20 61  1  0  0  0  0
 21 22  1  0  0  0  0
 22 23  1  0  0  0  0
 22 62  1  0  0  0  0
 22 63  1  0  0  0  0
 23 24  1  0  0  0  0
 23 64  1  0  0  0  0
 23 65  1  0  0  0  0
 24 25  1  0  0  0  0
 24 66  1  0  0  0  0
 24 67  1  0  0  0  0
 25 26  1  0  0  0  0
 25 68  1  0  0  0  0
 25 69  1  0  0  0  0
 26 27  1  0  0  0  0
 26 70  1  0  0  0  0
 26 71  1  0  0  0  0
 27 28  1  0  0  0  0
 27 72  1  0  0  0  0
 27 73  1  0  0  0  0
 28 29  2  0  0  0  0
 28 30  1  0  0  0  0
 30 31  1  0  0  0  0
 31 32  1  0  0  0  0
 31 74  1  0  0  0  0
 31 75  1  0  0  0  0
 32 33  1  0  0  0  0
 32 76  1  0  0  0  0
 32 77  1  0  0  0  0
 33 34  1  0  0  0  0
 33 78  1  0  0  0  0
 33 79  1  0  0  0  0
 34 80  1  0  0  0  0
 34 81  1  0  0  0  0
 34 82  1  0  0  0  0
M  END
>  <DRUGBANK_ID>
DB16148

>  <COMMON_NAME>
Ecraprost

>  <CAS_NUMBER>
136892-64-3

>  <UNII>
Q2XM6VR8DO

>  <SYNONYMS>
Circulase; Ecraprost

$$$$
