BTD
 OpenBabel10282417072D

 35 37  0  0  0  0  0  0  0  0999 V2000
   -1.9018    2.5475    0.0000 O   0  0  0  0  0  0  0  0  0  0  0  0
   -1.1874    2.1350    0.0000 C   0  0  0  0  0  0  0  0  0  0  0  0
   -1.1874    1.3100    0.0000 C   0  0  1  0  0  0  0  0  0  0  0  0
   -0.5199    0.8250    0.0000 O   0  0  0  0  0  0  0  0  0  0  0  0
   -0.7749    0.0404    0.0000 C   0  0  1  0  0  0  0  0  0  0  0  0
   -0.2899   -0.6270    0.0000 N   0  0  0  0  0  0  0  0  0  0  0  0
    0.5305   -0.5408    0.0000 C   0  0  0  0  0  0  0  0  0  0  0  0
   -0.6255   -1.3807    0.0000 C   0  0  0  0  0  0  0  0  0  0  0  0
   -1.4460   -1.4669    0.0000 O   0  0  0  0  0  0  0  0  0  0  0  0
   -0.1406   -2.0481    0.0000 N   0  0  0  0  0  0  0  0  0  0  0  0
    0.6799   -1.9619    0.0000 C   0  0  0  0  0  0  0  0  0  0  0  0
    1.1648   -2.6293    0.0000 O   0  0  0  0  0  0  0  0  0  0  0  0
    1.0155   -1.2082    0.0000 C   0  0  0  0  0  0  0  0  0  0  0  0
    1.8359   -1.1220    0.0000 C   0  0  0  0  0  0  0  0  0  0  0  0
    2.2484   -0.4075    0.0000 C   0  0  0  0  0  0  0  0  0  0  0  0
    3.0554   -0.5790    0.0000 C   0  0  0  0  0  0  0  0  0  0  0  0
    3.1416   -1.3995    0.0000 C   0  0  0  0  0  0  0  0  0  0  0  0
    2.3880   -1.7351    0.0000 S   0  0  0  0  0  0  0  0  0  0  0  0
    3.8561   -1.8120    0.0000 Br  0  0  0  0  0  0  0  0  0  0  0  0
   -1.5999    0.0404    0.0000 C   0  0  0  0  0  0  0  0  0  0  0  0
   -1.8548    0.8250    0.0000 C   0  0  2  0  0  0  0  0  0  0  0  0
   -2.6394    1.0800    0.0000 O   0  0  0  0  0  0  0  0  0  0  0  0
   -0.6671    1.5751    0.0000 H   0  0  0  0  0  0  0  0  0  0  0  0
   -0.1981    0.1318    0.0000 H   0  0  0  0  0  0  0  0  0  0  0  0
   -1.9462    1.4018    0.0000 H   0  0  0  0  0  0  0  0  0  0  0  0
   -1.9018    3.5175    0.0000 H   0  0  0  0  0  0  0  0  0  0  0  0
   -0.2607    2.6700    0.0000 H   0  0  0  0  0  0  0  0  0  0  0  0
   -0.2608    1.6000    0.0000 H   0  0  0  0  0  0  0  0  0  0  0  0
    0.9502    0.4020    0.0000 H   0  0  0  0  0  0  0  0  0  0  0  0
   -0.5411   -2.9475    0.0000 H   0  0  0  0  0  0  0  0  0  0  0  0
    1.8286    0.5353    0.0000 H   0  0  0  0  0  0  0  0  0  0  0  0
    3.8223    0.1115    0.0000 H   0  0  0  0  0  0  0  0  0  0  0  0
   -2.2288   -0.8252    0.0000 H   0  0  0  0  0  0  0  0  0  0  0  0
   -2.6567    0.2078    0.0000 H   0  0  0  0  0  0  0  0  0  0  0  0
   -2.8410    2.0288    0.0000 H   0  0  0  0  0  0  0  0  0  0  0  0
  1  2  1  0  0  0  0
  1 26  1  0  0  0  0
  2 27  1  0  0  0  0
  2 28  1  0  0  0  0
  3  2  1  0  0  0  0
  3  4  1  0  0  0  0
  3 21  1  0  0  0  0
  3 23  1  6  0  0  0
  4  5  1  0  0  0  0
  5  6  1  0  0  0  0
  5 20  1  0  0  0  0
  5 24  1  6  0  0  0
  6  7  1  0  0  0  0
  6  8  1  0  0  0  0
  7 13  2  0  0  0  0
  7 29  1  0  0  0  0
  8  9  2  0  0  0  0
  8 10  1  0  0  0  0
 10 11  1  0  0  0  0
 10 30  1  0  0  0  0
 11 12  2  0  0  0  0
 11 13  1  0  0  0  0
 13 14  1  0  0  0  0
 14 15  2  0  0  0  0
 14 18  1  0  0  0  0
 15 16  1  0  0  0  0
 15 31  1  0  0  0  0
 16 17  2  0  0  0  0
 16 32  1  0  0  0  0
 17 18  1  0  0  0  0
 17 19  1  0  0  0  0
 20 21  1  0  0  0  0
 20 33  1  0  0  0  0
 20 34  1  0  0  0  0
 21 22  1  0  0  0  0
 21 25  1  1  0  0  0
 22 35  1  0  0  0  0
M  END
>  <DRUGBANK_ID>
DB03804

>  <SECONDARY_ACCESSION_NUMBERS>
EXPT00766

>  <COMMON_NAME>
5-Bromothienyldeoxyuridine

$$$$
