
 OpenBabel10282417072D

 24 25  0  0  0  0  0  0  0  0999 V2000
    0.0000    0.4126    0.0000 C   0  0  0  0  0  0  0  0  0  0  0  0
    0.0000   -0.4123    0.0000 C   0  0  0  0  0  0  0  0  0  0  0  0
    0.7145    0.8251    0.0000 C   0  0  0  0  0  0  0  0  0  0  0  0
   -0.7145    0.8252    0.0000 C   0  0  0  0  0  0  0  0  0  0  0  0
    0.7144   -0.8250    0.0000 C   0  0  0  0  0  0  0  0  0  0  0  0
   -0.7146   -0.8249    0.0000 C   0  0  0  0  0  0  0  0  0  0  0  0
    1.4290    0.4125    0.0000 N   0  0  0  0  0  0  0  0  0  0  0  0
    0.7146    1.6501    0.0000 N   0  0  0  0  0  0  0  0  0  0  0  0
   -1.4290    0.4127    0.0000 C   0  0  0  0  0  0  0  0  0  0  0  0
    1.4289   -0.4125    0.0000 N   0  0  0  0  0  0  0  0  0  0  0  0
    0.7144   -1.6500    0.0000 N   0  0  0  0  0  0  0  0  0  0  0  0
   -1.4291   -0.4122    0.0000 C   0  0  0  0  0  0  0  0  0  0  0  0
    1.4291    2.0627    0.0000 N   0  0  0  0  0  0  0  0  0  0  0  0
    1.4288   -2.0627    0.0000 N   0  0  0  0  0  0  0  0  0  0  0  0
   -0.7144    1.8572    0.0000 H   0  0  0  0  0  0  0  0  0  0  0  0
   -0.7147   -1.8569    0.0000 H   0  0  0  0  0  0  0  0  0  0  0  0
   -0.1380    2.1424    0.0000 H   0  0  0  0  0  0  0  0  0  0  0  0
   -2.3227    0.9288    0.0000 H   0  0  0  0  0  0  0  0  0  0  0  0
   -0.1383   -2.1421    0.0000 H   0  0  0  0  0  0  0  0  0  0  0  0
   -2.3229   -0.9281    0.0000 H   0  0  0  0  0  0  0  0  0  0  0  0
    2.3125    1.5528    0.0000 H   0  0  0  0  0  0  0  0  0  0  0  0
    1.4290    3.0827    0.0000 H   0  0  0  0  0  0  0  0  0  0  0  0
    1.4285   -3.0827    0.0000 H   0  0  0  0  0  0  0  0  0  0  0  0
    2.3123   -1.5529    0.0000 H   0  0  0  0  0  0  0  0  0  0  0  0
  1  2  1  0  0  0  0
  1  3  2  0  0  0  0
  1  4  1  0  0  0  0
  2  5  2  0  0  0  0
  2  6  1  0  0  0  0
  3  7  1  0  0  0  0
  3  8  1  0  0  0  0
  4  9  2  0  0  0  0
  4 15  1  0  0  0  0
  5 10  1  0  0  0  0
  5 11  1  0  0  0  0
  6 12  2  0  0  0  0
  6 16  1  0  0  0  0
  7 10  2  0  0  0  0
  8 13  1  0  0  0  0
  8 17  1  0  0  0  0
  9 12  1  0  0  0  0
  9 18  1  0  0  0  0
 11 14  1  0  0  0  0
 11 19  1  0  0  0  0
 12 20  1  0  0  0  0
 13 21  1  0  0  0  0
 13 22  1  0  0  0  0
 14 23  1  0  0  0  0
 14 24  1  0  0  0  0
M  END
>  <DRUGBANK_ID>
DB12945

>  <COMMON_NAME>
Dihydralazine

>  <CAS_NUMBER>
484-23-1

>  <UNII>
PCU411F5L6

>  <SYNONYMS>
Dihidralazina; Dihydralazine; Dihydralazinum; Dihydrallazin; Dihydrazinophthalazine

$$$$
