
 OpenBabel10282417072D

 53 57  0  0  0  0  0  0  0  0999 V2000
    4.2868   -4.1250    0.0000 F   0  0  0  0  0  0  0  0  0  0  0  0
    3.5724   -3.7125    0.0000 C   0  0  0  0  0  0  0  0  0  0  0  0
    2.8579   -4.1250    0.0000 C   0  0  0  0  0  0  0  0  0  0  0  0
    2.1434   -3.7125    0.0000 C   0  0  0  0  0  0  0  0  0  0  0  0
    2.1434   -2.8875    0.0000 C   0  0  0  0  0  0  0  0  0  0  0  0
    1.4289   -2.4750    0.0000 C   0  0  0  0  0  0  0  0  0  0  0  0
    1.4289   -1.6500    0.0000 C   0  0  0  0  0  0  0  0  0  0  0  0
    0.7145   -1.2375    0.0000 N   0  0  0  0  0  0  0  0  0  0  0  0
    0.7145   -0.4125    0.0000 N   0  0  0  0  0  0  0  0  0  0  0  0
    1.4289    0.0000    0.0000 C   0  0  0  0  0  0  0  0  0  0  0  0
    1.4289    0.8250    0.0000 O   0  0  0  0  0  0  0  0  0  0  0  0
    2.1434   -0.4125    0.0000 C   0  0  0  0  0  0  0  0  0  0  0  0
    2.8579    0.0000    0.0000 C   0  0  0  0  0  0  0  0  0  0  0  0
    3.5724   -0.4125    0.0000 C   0  0  0  0  0  0  0  0  0  0  0  0
    3.5724   -1.2375    0.0000 C   0  0  0  0  0  0  0  0  0  0  0  0
    2.8579   -1.6500    0.0000 C   0  0  0  0  0  0  0  0  0  0  0  0
    2.1434   -1.2375    0.0000 C   0  0  0  0  0  0  0  0  0  0  0  0
    2.8579   -2.4750    0.0000 C   0  0  0  0  0  0  0  0  0  0  0  0
    3.5724   -2.8875    0.0000 C   0  0  0  0  0  0  0  0  0  0  0  0
    2.8579   -4.9500    0.0000 C   0  0  0  0  0  0  0  0  0  0  0  0
    3.5724   -5.3625    0.0000 O   0  0  0  0  0  0  0  0  0  0  0  0
    2.1434   -5.3625    0.0000 N   0  0  0  0  0  0  0  0  0  0  0  0
    1.9299   -6.1594    0.0000 C   0  0  0  0  0  0  0  0  0  0  0  0
    1.1330   -5.9459    0.0000 C   0  0  0  0  0  0  0  0  0  0  0  0
    0.4185   -6.3584    0.0000 C   0  0  0  0  0  0  0  0  0  0  0  0
    0.4185   -7.1834    0.0000 N   0  0  0  0  0  0  0  0  0  0  0  0
   -0.2959   -7.5959    0.0000 C   0  0  0  0  0  0  0  0  0  0  0  0
   -0.7084   -8.3103    0.0000 C   0  0  0  0  0  0  0  0  0  0  0  0
   -1.1209   -7.5959    0.0000 C   0  0  0  0  0  0  0  0  0  0  0  0
    1.3465   -5.1490    0.0000 C   0  0  0  0  0  0  0  0  0  0  0  0
    1.2497   -4.2285    0.0000 H   0  0  0  0  0  0  0  0  0  0  0  0
    0.5023   -3.0100    0.0000 H   0  0  0  0  0  0  0  0  0  0  0  0
    0.5023   -1.9400    0.0000 H   0  0  0  0  0  0  0  0  0  0  0  0
   -0.1381    0.0797    0.0000 H   0  0  0  0  0  0  0  0  0  0  0  0
    2.8579    1.0320    0.0000 H   0  0  0  0  0  0  0  0  0  0  0  0
    4.4661    0.1035    0.0000 H   0  0  0  0  0  0  0  0  0  0  0  0
    4.4661   -1.7535    0.0000 H   0  0  0  0  0  0  0  0  0  0  0  0
    2.8579   -2.6820    0.0000 H   0  0  0  0  0  0  0  0  0  0  0  0
    2.8579   -1.4430    0.0000 H   0  0  0  0  0  0  0  0  0  0  0  0
    4.4661   -2.3715    0.0000 H   0  0  0  0  0  0  0  0  0  0  0  0
    2.4649   -7.0860    0.0000 H   0  0  0  0  0  0  0  0  0  0  0  0
    1.2786   -7.0083    0.0000 H   0  0  0  0  0  0  0  0  0  0  0  0
    0.2841   -5.2945    0.0000 H   0  0  0  0  0  0  0  0  0  0  0  0
   -0.5081   -5.8234    0.0000 H   0  0  0  0  0  0  0  0  0  0  0  0
   -0.5081   -6.8934    0.0000 H   0  0  0  0  0  0  0  0  0  0  0  0
    1.3019   -7.6934    0.0000 H   0  0  0  0  0  0  0  0  0  0  0  0
   -1.2226   -8.1309    0.0000 H   0  0  0  0  0  0  0  0  0  0  0  0
   -0.7084   -9.3803    0.0000 H   0  0  0  0  0  0  0  0  0  0  0  0
   -1.7419   -8.5873    0.0000 H   0  0  0  0  0  0  0  0  0  0  0  0
   -2.0476   -7.0609    0.0000 H   0  0  0  0  0  0  0  0  0  0  0  0
   -0.8440   -6.5624    0.0000 H   0  0  0  0  0  0  0  0  0  0  0  0
    0.8115   -4.2224    0.0000 H   0  0  0  0  0  0  0  0  0  0  0  0
    1.9978   -4.3001    0.0000 H   0  0  0  0  0  0  0  0  0  0  0  0
  1  2  1  0  0  0  0
  2  3  2  0  0  0  0
  2 19  1  0  0  0  0
  3  4  1  0  0  0  0
  3 20  1  0  0  0  0
  4  5  2  0  0  0  0
  4 31  1  0  0  0  0
  5  6  1  0  0  0  0
  5 18  1  0  0  0  0
  6  7  1  0  0  0  0
  6 32  1  0  0  0  0
  6 33  1  0  0  0  0
  7  8  2  0  0  0  0
  7 17  1  0  0  0  0
  8  9  1  0  0  0  0
  9 10  1  0  0  0  0
  9 34  1  0  0  0  0
 10 11  2  0  0  0  0
 10 12  1  0  0  0  0
 12 13  2  0  0  0  0
 12 17  1  0  0  0  0
 13 14  1  0  0  0  0
 13 35  1  0  0  0  0
 14 15  2  0  0  0  0
 14 36  1  0  0  0  0
 15 16  1  0  0  0  0
 15 37  1  0  0  0  0
 16 17  2  0  0  0  0
 16 38  1  0  0  0  0
 18 19  2  0  0  0  0
 18 39  1  0  0  0  0
 19 40  1  0  0  0  0
 20 21  2  0  0  0  0
 20 22  1  0  0  0  0
 22 23  1  0  0  0  0
 22 30  1  0  0  0  0
 23 24  1  0  0  0  0
 23 41  1  0  0  0  0
 23 42  1  0  0  0  0
 24 25  1  0  0  0  0
 24 30  1  0  0  0  0
 24 43  1  0  0  0  0
 25 26  1  0  0  0  0
 25 44  1  0  0  0  0
 25 45  1  0  0  0  0
 26 27  1  0  0  0  0
 26 46  1  0  0  0  0
 27 28  1  0  0  0  0
 27 29  1  0  0  0  0
 27 47  1  0  0  0  0
 28 29  1  0  0  0  0
 28 48  1  0  0  0  0
 28 49  1  0  0  0  0
 29 50  1  0  0  0  0
 29 51  1  0  0  0  0
 30 52  1  0  0  0  0
 30 53  1  0  0  0  0
M  END
>  <DRUGBANK_ID>
DB17105

>  <COMMON_NAME>
Venadaparib

>  <CAS_NUMBER>
1681017-83-3

>  <UNII>
PUP792O0IW

>  <SYNONYMS>
1(2h)-phthalazinone, 4-((3-((3-((cyclopropylamino)methyl)-1-azetidinyl)carbonyl)-4-fluorophenyl)methyl)-; 4-((3-((3-((cyclopropylamino)methyl)-1-azetidinyl)carbonyl)-4-fluorophenyl)methyl)-1(2h)-phthalazinone

$$$$
