
 OpenBabel10282417072D

 32 33  0  0  0  0  0  0  0  0999 V2000
    3.3523    1.1104    0.0000 C   0  0  0  0  0  0  0  0  0  0  0  0
    3.3523    1.9354    0.0000 C   0  0  0  0  0  0  0  0  0  0  0  0
    2.6378    0.6979    0.0000 C   0  0  0  0  0  0  0  0  0  0  0  0
    2.6378    2.3479    0.0000 C   0  0  0  0  0  0  0  0  0  0  0  0
    0.8838    2.9750    0.0000 C   0  0  0  0  0  0  0  0  0  0  0  0
    0.6538    1.5229    0.0000 C   0  0  0  0  0  0  0  0  0  0  0  0
    1.1387    2.1904    0.0000 C   0  0  0  0  0  0  0  0  0  0  0  0
    1.9233    1.1104    0.0000 C   0  0  0  0  0  0  0  0  0  0  0  0
    0.0768    3.1465    0.0000 C   0  0  0  0  0  0  0  0  0  0  0  0
    1.1387    0.8555    0.0000 N   0  0  0  0  0  0  0  0  0  0  0  0
    1.9233    1.9354    0.0000 N   0  0  0  0  0  0  0  0  0  0  0  0
   -0.7302    3.3181    0.0000 O   0  0  0  0  0  0  0  0  0  0  0  0
   -0.2662    1.5326    0.0000 O   0  0  0  0  0  0  0  0  0  0  0  0
   -0.9017    2.5111    0.0000 O   0  0  0  0  0  0  0  0  0  0  0  0
    0.7123    2.1680    0.0000 O   0  0  0  0  0  0  0  0  0  0  0  0
   -0.5586    4.1250    0.0000 O   0  0  0  0  0  0  0  0  0  0  0  0
    0.4199    4.7605    0.0000 O   0  0  0  0  0  0  0  0  0  0  0  0
    1.0553    3.7820    0.0000 O   0  0  0  0  0  0  0  0  0  0  0  0
   -0.0947    2.3396    0.0000 P   0  0  0  0  0  0  0  0  0  0  0  0
    0.2483    3.9535    0.0000 P   0  0  0  0  0  0  0  0  0  0  0  0
    4.2460    0.5944    0.0000 H   0  0  0  0  0  0  0  0  0  0  0  0
    4.2460    2.4514    0.0000 H   0  0  0  0  0  0  0  0  0  0  0  0
    2.6378   -0.3341    0.0000 H   0  0  0  0  0  0  0  0  0  0  0  0
    2.6378    3.3799    0.0000 H   0  0  0  0  0  0  0  0  0  0  0  0
    1.5998    3.7702    0.0000 H   0  0  0  0  0  0  0  0  0  0  0  0
    0.5531    3.9926    0.0000 H   0  0  0  0  0  0  0  0  0  0  0  0
   -0.3782    1.5229    0.0000 H   0  0  0  0  0  0  0  0  0  0  0  0
   -1.0299    4.2406    0.0000 H   0  0  0  0  0  0  0  0  0  0  0  0
   -1.1887    1.2328    0.0000 H   0  0  0  0  0  0  0  0  0  0  0  0
   -1.2015    3.4336    0.0000 H   0  0  0  0  0  0  0  0  0  0  0  0
   -0.8584    5.0475    0.0000 H   0  0  0  0  0  0  0  0  0  0  0  0
    1.3424    5.0602    0.0000 H   0  0  0  0  0  0  0  0  0  0  0  0
  1 21  1  0  0  0  0
  2  1  1  0  0  0  0
  2 22  1  0  0  0  0
  3  1  2  0  0  0  0
  3 23  1  0  0  0  0
  4  2  2  0  0  0  0
  4 24  1  0  0  0  0
  5 25  1  0  0  0  0
  5 26  1  0  0  0  0
  6 27  1  0  0  0  0
  7  5  1  0  0  0  0
  7  6  2  0  0  0  0
  8  3  1  0  0  0  0
  9  5  1  0  0  0  0
 10  6  1  0  0  0  0
 10  8  2  0  0  0  0
 11  4  1  0  0  0  0
 11  7  1  0  0  0  0
 11  8  1  0  0  0  0
 12  9  1  0  0  0  0
 12 28  1  0  0  0  0
 13 29  1  0  0  0  0
 14 30  1  0  0  0  0
 16 31  1  0  0  0  0
 17 32  1  0  0  0  0
 19  9  1  0  0  0  0
 19 13  1  0  0  0  0
 19 14  1  0  0  0  0
 19 15  2  0  0  0  0
 20  9  1  0  0  0  0
 20 16  1  0  0  0  0
 20 17  1  0  0  0  0
 20 18  2  0  0  0  0
M  END
>  <DRUGBANK_ID>
DB06548

>  <COMMON_NAME>
Minodronic acid

>  <CAS_NUMBER>
180064-38-4

>  <UNII>
40SGR63TGL

>  <SYNONYMS>
Minodronate; Minodronic acid

$$$$
