1619
 OpenBabel10282417072D

 39 42  0  0  1  0  0  0  0  0999 V2000
    5.8199   -1.2064    0.0000 N   0  0  0  0  0  0  0  0  0  0  0  0
    3.7350   -0.2790    0.0000 C   0  0  3  0  0  0  0  0  0  0  0  0
    4.4024   -0.7639    0.0000 C   0  0  0  0  0  0  0  0  0  0  0  0
    4.1474   -1.5485    0.0000 C   0  0  0  0  0  0  0  0  0  0  0  0
    5.2400   -0.5723    0.0000 C   0  0  0  0  0  0  0  0  0  0  0  0
    3.0675   -0.7639    0.0000 C   0  0  0  0  0  0  0  0  0  0  0  0
    4.7125   -2.1959    0.0000 C   0  0  0  0  0  0  0  0  0  0  0  0
    3.3225   -1.5485    0.0000 C   0  0  0  0  0  0  0  0  0  0  0  0
    5.5543   -2.0237    0.0000 C   0  0  0  0  0  0  0  0  0  0  0  0
    3.7350    0.5460    0.0000 C   0  0  0  0  0  0  0  0  0  0  0  0
    2.2298   -0.5723    0.0000 C   0  0  0  0  0  0  0  0  0  0  0  0
    2.7574   -2.1959    0.0000 C   0  0  0  0  0  0  0  0  0  0  0  0
    6.6262   -1.0319    0.0000 C   0  0  0  0  0  0  0  0  0  0  0  0
    3.0205    0.9584    0.0000 C   0  0  0  0  0  0  0  0  0  0  0  0
    4.4494    0.9584    0.0000 C   0  0  0  0  0  0  0  0  0  0  0  0
    1.6499   -1.2064    0.0000 C   0  0  0  0  0  0  0  0  0  0  0  0
    1.9155   -2.0237    0.0000 C   0  0  0  0  0  0  0  0  0  0  0  0
    3.0205    1.7834    0.0000 C   0  0  0  0  0  0  0  0  0  0  0  0
    4.4494    1.7834    0.0000 C   0  0  0  0  0  0  0  0  0  0  0  0
    3.7350    2.1959    0.0000 C   0  0  0  0  0  0  0  0  0  0  0  0
    3.7350   -1.3490    0.0000 H   0  0  0  0  0  0  0  0  0  0  0  0
    5.5588    0.4491    0.0000 H   0  0  0  0  0  0  0  0  0  0  0  0
    4.5133    0.2131    0.0000 H   0  0  0  0  0  0  0  0  0  0  0  0
    4.3701   -3.2096    0.0000 H   0  0  0  0  0  0  0  0  0  0  0  0
    5.4208   -2.9979    0.0000 H   0  0  0  0  0  0  0  0  0  0  0  0
    6.2672   -2.8216    0.0000 H   0  0  0  0  0  0  0  0  0  0  0  0
    5.2178   -3.0394    0.0000 H   0  0  0  0  0  0  0  0  0  0  0  0
    1.9223    0.4128    0.0000 H   0  0  0  0  0  0  0  0  0  0  0  0
    3.0876   -3.1736    0.0000 H   0  0  0  0  0  0  0  0  0  0  0  0
    7.3451   -1.8244    0.0000 H   0  0  0  0  0  0  0  0  0  0  0  0
    6.9531   -0.0131    0.0000 H   0  0  0  0  0  0  0  0  0  0  0  0
    7.6720   -0.8056    0.0000 H   0  0  0  0  0  0  0  0  0  0  0  0
    2.1268    0.4423    0.0000 H   0  0  0  0  0  0  0  0  0  0  0  0
    5.3431    0.4424    0.0000 H   0  0  0  0  0  0  0  0  0  0  0  0
    0.6413   -0.9880    0.0000 H   0  0  0  0  0  0  0  0  0  0  0  0
    1.2279   -2.7933    0.0000 H   0  0  0  0  0  0  0  0  0  0  0  0
    2.1268    2.2994    0.0000 H   0  0  0  0  0  0  0  0  0  0  0  0
    5.3431    2.2994    0.0000 H   0  0  0  0  0  0  0  0  0  0  0  0
    3.7350    3.2279    0.0000 H   0  0  0  0  0  0  0  0  0  0  0  0
  1  5  1  0  0  0  0
  1  9  1  0  0  0  0
  1 13  1  0  0  0  0
  2  3  1  0  0  0  0
  2  6  1  0  0  0  0
  2 10  1  0  0  0  0
  2 21  1  0  0  0  0
  3  4  2  0  0  0  0
  3  5  1  0  0  0  0
  4  7  1  0  0  0  0
  4  8  1  0  0  0  0
  5 22  1  0  0  0  0
  5 23  1  0  0  0  0
  6  8  1  0  0  0  0
  6 11  2  0  0  0  0
  7  9  1  0  0  0  0
  7 24  1  0  0  0  0
  7 25  1  0  0  0  0
  8 12  2  0  0  0  0
  9 26  1  0  0  0  0
  9 27  1  0  0  0  0
 10 14  2  0  0  0  0
 10 15  1  0  0  0  0
 11 16  1  0  0  0  0
 11 28  1  0  0  0  0
 12 17  1  0  0  0  0
 12 29  1  0  0  0  0
 13 30  1  0  0  0  0
 13 31  1  0  0  0  0
 13 32  1  0  0  0  0
 14 18  1  0  0  0  0
 14 33  1  0  0  0  0
 15 19  2  0  0  0  0
 15 34  1  0  0  0  0
 16 17  2  0  0  0  0
 16 35  1  0  0  0  0
 17 36  1  0  0  0  0
 18 20  2  0  0  0  0
 18 37  1  0  0  0  0
 19 20  1  0  0  0  0
 19 38  1  0  0  0  0
 20 39  1  0  0  0  0
M  END
>  <DRUGBANK_ID>
DB01619

>  <COMMON_NAME>
Phenindamine

>  <CAS_NUMBER>
82-88-2

>  <UNII>
772BQ8KSST

>  <SYNONYMS>
Fenindamina; Phenindamine; Phenindaminum; Thephorin

$$$$
