
 OpenBabel10282417072D

 23 23  0  0  1  0  0  0  0  0999 V2000
    1.4289    0.8250    0.0000 C   0  0  1  0  0  0  0  0  0  0  0  0
    0.7145    1.2375    0.0000 C   0  0  1  0  0  0  0  0  0  0  0  0
    1.4289   -0.0000    0.0000 C   0  0  1  0  0  0  0  0  0  0  0  0
    0.0000    0.8250    0.0000 C   0  0  1  0  0  0  0  0  0  0  0  0
   -0.7145    1.2375    0.0000 C   0  0  0  0  0  0  0  0  0  0  0  0
    0.7145   -0.4125    0.0000 C   0  0  1  0  0  0  0  0  0  0  0  0
    2.1434    1.2375    0.0000 O   0  0  0  0  0  0  0  0  0  0  0  0
    0.7145    2.0625    0.0000 O   0  0  0  0  0  0  0  0  0  0  0  0
    2.1434   -0.4125    0.0000 O   0  0  0  0  0  0  0  0  0  0  0  0
   -1.4289    0.8250    0.0000 O   0  0  0  0  0  0  0  0  0  0  0  0
   -0.7145    2.0625    0.0000 O   0  0  0  0  0  0  0  0  0  0  0  0
    0.7145   -1.2375    0.0000 O   0  0  0  0  0  0  0  0  0  0  0  0
    0.0000    0.0000    0.0000 O   0  0  0  0  0  0  0  0  0  0  0  0
    1.1468    1.6002    0.0000 H   0  0  0  0  0  0  0  0  0  0  0  0
    1.2448    1.8695    0.0000 H   0  0  0  0  0  0  0  0  0  0  0  0
    2.1434    0.4125    0.0000 H   0  0  0  0  0  0  0  0  0  0  0  0
    0.0000    1.6500    0.0000 H   0  0  0  0  0  0  0  0  0  0  0  0
    1.4289   -0.8250    0.0000 H   0  0  0  0  0  0  0  0  0  0  0  0
    2.9834    0.7525    0.0000 H   0  0  0  0  0  0  0  0  0  0  0  0
    1.5545    2.5475    0.0000 H   0  0  0  0  0  0  0  0  0  0  0  0
    2.1434   -1.3825    0.0000 H   0  0  0  0  0  0  0  0  0  0  0  0
    0.0970    2.5310    0.0000 H   0  0  0  0  0  0  0  0  0  0  0  0
   -0.1255   -1.7225    0.0000 H   0  0  0  0  0  0  0  0  0  0  0  0
  1  7  1  0  0  0  0
  1 14  1  1  0  0  0
  2  1  1  0  0  0  0
  2  8  1  0  0  0  0
  2 15  1  6  0  0  0
  3  1  1  0  0  0  0
  3  9  1  0  0  0  0
  3 16  1  1  0  0  0
  4  2  1  0  0  0  0
  4  5  1  0  0  0  0
  4 17  1  1  0  0  0
  6  3  1  0  0  0  0
  6 12  1  0  0  0  0
  6 18  1  6  0  0  0
  7 19  1  0  0  0  0
  8 20  1  0  0  0  0
  9 21  1  0  0  0  0
 10  5  2  0  0  0  0
 11  5  1  0  0  0  0
 11 22  1  0  0  0  0
 12 23  1  0  0  0  0
 13  4  1  0  0  0  0
 13  6  1  0  0  0  0
M  END
>  <DRUGBANK_ID>
DB01982

>  <SECONDARY_ACCESSION_NUMBERS>
EXPT02116

>  <COMMON_NAME>
D-Mannuronic Acid

>  <CAS_NUMBER>
1986-14-7

$$$$
