
 OpenBabel10282417072D

 60 64  0  0  0  0  0  0  0  0999 V2000
   -1.4534   -2.1269    0.0000 C   0  0  0  0  0  0  0  0  0  0  0  0
   -1.8659   -1.4124    0.0000 N   0  0  0  0  0  0  0  0  0  0  0  0
   -1.4534   -0.6979    0.0000 C   0  0  0  0  0  0  0  0  0  0  0  0
   -0.6284   -0.6979    0.0000 C   0  0  0  0  0  0  0  0  0  0  0  0
   -0.1435   -1.3654    0.0000 C   0  0  0  0  0  0  0  0  0  0  0  0
    0.6411   -1.1104    0.0000 C   0  0  0  0  0  0  0  0  0  0  0  0
    0.6411   -0.2854    0.0000 C   0  0  0  0  0  0  0  0  0  0  0  0
   -0.1435   -0.0305    0.0000 S   0  0  0  0  0  0  0  0  0  0  0  0
    1.3556    0.1271    0.0000 C   0  0  0  0  0  0  0  0  0  0  0  0
    2.0701   -0.2854    0.0000 N   0  0  0  0  0  0  0  0  0  0  0  0
    2.0701   -1.1104    0.0000 C   0  0  0  0  0  0  0  0  0  0  0  0
    1.3556   -1.5229    0.0000 N   0  0  0  0  0  0  0  0  0  0  0  0
    2.7845   -1.5229    0.0000 C   0  0  0  0  0  0  0  0  0  0  0  0
    3.4990   -1.1104    0.0000 C   0  0  0  0  0  0  0  0  0  0  0  0
    4.2135   -1.5229    0.0000 C   0  0  0  0  0  0  0  0  0  0  0  0
    4.2135   -2.3479    0.0000 C   0  0  0  0  0  0  0  0  0  0  0  0
    3.4990   -2.7604    0.0000 N   0  0  0  0  0  0  0  0  0  0  0  0
    2.7845   -2.3479    0.0000 C   0  0  0  0  0  0  0  0  0  0  0  0
    4.9279   -2.7604    0.0000 O   0  0  0  0  0  0  0  0  0  0  0  0
    4.9279   -3.5854    0.0000 C   0  0  0  0  0  0  0  0  0  0  0  0
    1.3556    0.9521    0.0000 N   0  0  0  0  0  0  0  0  0  0  0  0
    0.6411    1.3646    0.0000 C   0  0  0  0  0  0  0  0  0  0  0  0
    0.6411    2.1896    0.0000 C   0  0  0  0  0  0  0  0  0  0  0  0
    1.3556    2.6021    0.0000 O   0  0  0  0  0  0  0  0  0  0  0  0
    2.0701    2.1896    0.0000 C   0  0  0  0  0  0  0  0  0  0  0  0
    2.0701    1.3646    0.0000 C   0  0  0  0  0  0  0  0  0  0  0  0
   -2.6909   -1.4124    0.0000 C   0  0  0  0  0  0  0  0  0  0  0  0
   -3.1034   -2.1269    0.0000 N   0  0  0  0  0  0  0  0  0  0  0  0
   -3.9284   -2.1269    0.0000 C   0  0  0  0  0  0  0  0  0  0  0  0
   -4.3409   -1.4124    0.0000 C   0  0  0  0  0  0  0  0  0  0  0  0
   -3.9284   -0.6979    0.0000 C   0  0  0  0  0  0  0  0  0  0  0  0
   -3.1034   -0.6979    0.0000 N   0  0  0  0  0  0  0  0  0  0  0  0
   -5.1659   -1.4124    0.0000 C   0  0  0  0  0  0  0  0  0  0  0  0
   -5.5784   -2.1269    0.0000 O   0  0  0  0  0  0  0  0  0  0  0  0
   -5.5784   -0.6979    0.0000 N   0  0  0  0  0  0  0  0  0  0  0  0
   -6.4034   -0.6979    0.0000 O   0  0  0  0  0  0  0  0  0  0  0  0
   -1.9884   -3.0535    0.0000 H   0  0  0  0  0  0  0  0  0  0  0  0
   -0.3834   -2.1269    0.0000 H   0  0  0  0  0  0  0  0  0  0  0  0
   -0.9184   -3.0536    0.0000 H   0  0  0  0  0  0  0  0  0  0  0  0
   -1.9884    0.2287    0.0000 H   0  0  0  0  0  0  0  0  0  0  0  0
   -0.9184    0.2287    0.0000 H   0  0  0  0  0  0  0  0  0  0  0  0
   -0.4624   -2.3469    0.0000 H   0  0  0  0  0  0  0  0  0  0  0  0
    3.4990   -0.0784    0.0000 H   0  0  0  0  0  0  0  0  0  0  0  0
    5.1072   -1.0069    0.0000 H   0  0  0  0  0  0  0  0  0  0  0  0
    1.8908   -2.8639    0.0000 H   0  0  0  0  0  0  0  0  0  0  0  0
    4.0013   -4.1204    0.0000 H   0  0  0  0  0  0  0  0  0  0  0  0
    5.8545   -4.1204    0.0000 H   0  0  0  0  0  0  0  0  0  0  0  0
    4.9279   -4.6554    0.0000 H   0  0  0  0  0  0  0  0  0  0  0  0
   -0.2855    0.8296    0.0000 H   0  0  0  0  0  0  0  0  0  0  0  0
   -0.2855    1.8996    0.0000 H   0  0  0  0  0  0  0  0  0  0  0  0
   -0.2855    2.7246    0.0000 H   0  0  0  0  0  0  0  0  0  0  0  0
    0.6411    3.2596    0.0000 H   0  0  0  0  0  0  0  0  0  0  0  0
    2.9967    2.7246    0.0000 H   0  0  0  0  0  0  0  0  0  0  0  0
    2.9967    1.6546    0.0000 H   0  0  0  0  0  0  0  0  0  0  0  0
    2.9967    0.8296    0.0000 H   0  0  0  0  0  0  0  0  0  0  0  0
    2.0701    0.2946    0.0000 H   0  0  0  0  0  0  0  0  0  0  0  0
   -4.4444   -3.0206    0.0000 H   0  0  0  0  0  0  0  0  0  0  0  0
   -4.4444    0.1958    0.0000 H   0  0  0  0  0  0  0  0  0  0  0  0
   -5.0861    0.1547    0.0000 H   0  0  0  0  0  0  0  0  0  0  0  0
   -6.8884    0.1421    0.0000 H   0  0  0  0  0  0  0  0  0  0  0  0
  1  2  1  0  0  0  0
  1 37  1  0  0  0  0
  1 38  1  0  0  0  0
  1 39  1  0  0  0  0
  2  3  1  0  0  0  0
  2 27  1  0  0  0  0
  3  4  1  0  0  0  0
  3 40  1  0  0  0  0
  3 41  1  0  0  0  0
  4  5  2  0  0  0  0
  4  8  1  0  0  0  0
  5  6  1  0  0  0  0
  5 42  1  0  0  0  0
  6  7  1  0  0  0  0
  6 12  2  0  0  0  0
  7  8  1  0  0  0  0
  7  9  2  0  0  0  0
  9 10  1  0  0  0  0
  9 21  1  0  0  0  0
 10 11  2  0  0  0  0
 11 12  1  0  0  0  0
 11 13  1  0  0  0  0
 13 14  2  0  0  0  0
 13 18  1  0  0  0  0
 14 15  1  0  0  0  0
 14 43  1  0  0  0  0
 15 16  2  0  0  0  0
 15 44  1  0  0  0  0
 16 17  1  0  0  0  0
 16 19  1  0  0  0  0
 17 18  2  0  0  0  0
 18 45  1  0  0  0  0
 19 20  1  0  0  0  0
 20 46  1  0  0  0  0
 20 47  1  0  0  0  0
 20 48  1  0  0  0  0
 21 22  1  0  0  0  0
 21 26  1  0  0  0  0
 22 23  1  0  0  0  0
 22 49  1  0  0  0  0
 22 50  1  0  0  0  0
 23 24  1  0  0  0  0
 23 51  1  0  0  0  0
 23 52  1  0  0  0  0
 24 25  1  0  0  0  0
 25 26  1  0  0  0  0
 25 53  1  0  0  0  0
 25 54  1  0  0  0  0
 26 55  1  0  0  0  0
 26 56  1  0  0  0  0
 27 28  2  0  0  0  0
 27 32  1  0  0  0  0
 28 29  1  0  0  0  0
 29 30  2  0  0  0  0
 29 57  1  0  0  0  0
 30 31  1  0  0  0  0
 30 33  1  0  0  0  0
 31 32  2  0  0  0  0
 31 58  1  0  0  0  0
 33 34  2  0  0  0  0
 33 35  1  0  0  0  0
 35 36  1  0  0  0  0
 35 59  1  0  0  0  0
 36 60  1  0  0  0  0
M  END
>  <DRUGBANK_ID>
DB11891

>  <COMMON_NAME>
Fimepinostat

>  <CAS_NUMBER>
1339928-25-4

>  <UNII>
3S9RX35S5X

>  <SYNONYMS>
5-pyrimidinecarboxamide, N-hydroxy-2-[[[2-(6-methoxy-3-pyridinyl)-4-(4-morpholinyl)thieno[3,2-d]pyrimidin-6-yl]methyl]methylamino]-; N-hydroxy-2-(((2-(6-methoxypyridin-3-yl)-4-morpholinothieno[3,2-d]pyrimidin-6-yl)methyl)(methyl)amino)pyrimidine-5-carboxamide; PI3K/HDAC inhibitor CUDC-907

$$$$
