OX4
 OpenBabel10282417072D

 35 36  0  0  0  0  0  0  0  0999 V2000
   -0.8227    5.0371    0.0000 O   0  0  0  0  0  0  0  0  0  0  0  0
   -0.8227    4.2121    0.0000 C   0  0  0  0  0  0  0  0  0  0  0  0
   -1.5372    3.7996    0.0000 C   0  0  0  0  0  0  0  0  0  0  0  0
   -2.2517    4.2121    0.0000 F   0  0  0  0  0  0  0  0  0  0  0  0
   -1.5372    2.9746    0.0000 C   0  0  0  0  0  0  0  0  0  0  0  0
   -0.8227    2.5621    0.0000 C   0  0  0  0  0  0  0  0  0  0  0  0
   -0.1082    2.9746    0.0000 C   0  0  0  0  0  0  0  0  0  0  0  0
   -0.1082    3.7996    0.0000 C   0  0  0  0  0  0  0  0  0  0  0  0
   -0.8227    1.7371    0.0000 C   0  0  0  0  0  0  0  0  0  0  0  0
   -1.5372    1.3246    0.0000 N   0  0  0  0  0  0  0  0  0  0  0  0
   -1.5372    0.4996    0.0000 O   0  0  0  0  0  0  0  0  0  0  0  0
   -0.8227    0.0871    0.0000 C   0  0  0  0  0  0  0  0  0  0  0  0
   -0.1082    0.4996    0.0000 O   0  0  0  0  0  0  0  0  0  0  0  0
   -0.8227   -0.7379    0.0000 C   0  0  0  0  0  0  0  0  0  0  0  0
   -0.1082   -1.1504    0.0000 C   0  0  0  0  0  0  0  0  0  0  0  0
   -0.1082   -1.9754    0.0000 C   0  0  0  0  0  0  0  0  0  0  0  0
   -0.8227   -2.3879    0.0000 C   0  0  0  0  0  0  0  0  0  0  0  0
   -1.5372   -1.9754    0.0000 C   0  0  0  0  0  0  0  0  0  0  0  0
   -1.5372   -1.1504    0.0000 C   0  0  0  0  0  0  0  0  0  0  0  0
   -0.0112    5.5056    0.0000 H   0  0  0  0  0  0  0  0  0  0  0  0
   -2.4309    2.4586    0.0000 H   0  0  0  0  0  0  0  0  0  0  0  0
    0.7855    2.4586    0.0000 H   0  0  0  0  0  0  0  0  0  0  0  0
    0.7855    4.3156    0.0000 H   0  0  0  0  0  0  0  0  0  0  0  0
    0.0710    1.2211    0.0000 H   0  0  0  0  0  0  0  0  0  0  0  0
   -0.8227   -1.8079    0.0000 H   0  0  0  0  0  0  0  0  0  0  0  0
    0.8184   -0.6154    0.0000 H   0  0  0  0  0  0  0  0  0  0  0  0
    0.8184   -1.6854    0.0000 H   0  0  0  0  0  0  0  0  0  0  0  0
    0.8184   -2.5104    0.0000 H   0  0  0  0  0  0  0  0  0  0  0  0
   -0.1082   -3.0454    0.0000 H   0  0  0  0  0  0  0  0  0  0  0  0
   -0.8227   -3.4579    0.0000 H   0  0  0  0  0  0  0  0  0  0  0  0
   -1.7493   -2.9229    0.0000 H   0  0  0  0  0  0  0  0  0  0  0  0
   -2.4638   -2.5104    0.0000 H   0  0  0  0  0  0  0  0  0  0  0  0
   -2.4638   -1.4404    0.0000 H   0  0  0  0  0  0  0  0  0  0  0  0
   -2.4638   -0.6154    0.0000 H   0  0  0  0  0  0  0  0  0  0  0  0
   -2.4638   -1.6854    0.0000 H   0  0  0  0  0  0  0  0  0  0  0  0
  1  2  1  0  0  0  0
  1 20  1  0  0  0  0
  2  8  2  0  0  0  0
  2  3  1  0  0  0  0
  3  5  2  0  0  0  0
  3  4  1  0  0  0  0
  5  6  1  0  0  0  0
  5 21  1  0  0  0  0
  6  9  1  0  0  0  0
  6  7  2  0  0  0  0
  7  8  1  0  0  0  0
  7 22  1  0  0  0  0
  8 23  1  0  0  0  0
  9 10  2  0  0  0  0
  9 24  1  0  0  0  0
 10 11  1  0  0  0  0
 11 12  1  0  0  0  0
 12 13  2  0  0  0  0
 12 14  1  0  0  0  0
 14 15  1  0  0  0  0
 14 19  1  0  0  0  0
 14 25  1  0  0  0  0
 15 16  1  0  0  0  0
 15 26  1  0  0  0  0
 15 27  1  0  0  0  0
 16 17  1  0  0  0  0
 16 28  1  0  0  0  0
 16 29  1  0  0  0  0
 17 18  1  0  0  0  0
 17 30  1  0  0  0  0
 17 31  1  0  0  0  0
 18 19  1  0  0  0  0
 18 32  1  0  0  0  0
 18 33  1  0  0  0  0
 19 34  1  0  0  0  0
 19 35  1  0  0  0  0
M  END
>  <DRUGBANK_ID>
DB08334

>  <COMMON_NAME>
3-FLUORO-4-HYDROXYBENZALDEHYDE O-(CYCLOHEXYLCARBONYL)OXIME

$$$$
