
 OpenBabel10282417072D

 34 35  0  0  0  0  0  0  0  0999 V2000
    4.1801   -1.7116    0.0000 C   0  0  0  0  0  0  0  0  0  0  0  0
    3.4656   -1.2991    0.0000 C   0  0  0  0  0  0  0  0  0  0  0  0
    3.4656   -0.4741    0.0000 C   0  0  0  0  0  0  0  0  0  0  0  0
    4.1801   -0.0616    0.0000 C   0  0  0  0  0  0  0  0  0  0  0  0
    4.1801    0.7634    0.0000 C   0  0  0  0  0  0  0  0  0  0  0  0
    4.8946    1.1759    0.0000 C   0  0  0  0  0  0  0  0  0  0  0  0
    5.6091    0.7634    0.0000 C   0  0  0  0  0  0  0  0  0  0  0  0
    5.6091   -0.0616    0.0000 C   0  0  0  0  0  0  0  0  0  0  0  0
    4.8946   -0.4741    0.0000 C   0  0  0  0  0  0  0  0  0  0  0  0
    2.7512   -1.7116    0.0000 C   0  0  0  0  0  0  0  0  0  0  0  0
    2.7512   -2.5366    0.0000 C   0  0  0  0  0  0  0  0  0  0  0  0
    3.4186   -3.0215    0.0000 S   0  0  0  0  0  0  0  0  0  0  0  0
    3.1637   -3.8062    0.0000 C   0  0  0  0  0  0  0  0  0  0  0  0
    3.6486   -4.4736    0.0000 S   0  0  0  0  0  0  0  0  0  0  0  0
    2.3387   -3.8062    0.0000 N   0  0  0  0  0  0  0  0  0  0  0  0
    1.8538   -4.4736    0.0000 C   0  0  0  0  0  0  0  0  0  0  0  0
    1.0333   -4.3874    0.0000 C   0  0  0  0  0  0  0  0  0  0  0  0
    0.5484   -5.0548    0.0000 O   0  0  0  0  0  0  0  0  0  0  0  0
    0.6977   -3.6337    0.0000 O   0  0  0  0  0  0  0  0  0  0  0  0
    2.0837   -3.0215    0.0000 C   0  0  0  0  0  0  0  0  0  0  0  0
    1.2991   -2.7666    0.0000 O   0  0  0  0  0  0  0  0  0  0  0  0
    4.1801   -2.7816    0.0000 H   0  0  0  0  0  0  0  0  0  0  0  0
    5.1067   -1.1766    0.0000 H   0  0  0  0  0  0  0  0  0  0  0  0
    5.1068   -2.2466    0.0000 H   0  0  0  0  0  0  0  0  0  0  0  0
    2.5719    0.0419    0.0000 H   0  0  0  0  0  0  0  0  0  0  0  0
    3.2864    1.2794    0.0000 H   0  0  0  0  0  0  0  0  0  0  0  0
    4.8946    2.2079    0.0000 H   0  0  0  0  0  0  0  0  0  0  0  0
    6.5028    1.2794    0.0000 H   0  0  0  0  0  0  0  0  0  0  0  0
    6.5028   -0.5776    0.0000 H   0  0  0  0  0  0  0  0  0  0  0  0
    4.8946   -1.5061    0.0000 H   0  0  0  0  0  0  0  0  0  0  0  0
    1.8575   -1.1956    0.0000 H   0  0  0  0  0  0  0  0  0  0  0  0
    2.2890   -5.4511    0.0000 H   0  0  0  0  0  0  0  0  0  0  0  0
    1.2249   -5.3393    0.0000 H   0  0  0  0  0  0  0  0  0  0  0  0
   -0.3835   -4.9569    0.0000 H   0  0  0  0  0  0  0  0  0  0  0  0
  1  2  1  0  0  0  0
  1 22  1  0  0  0  0
  1 23  1  0  0  0  0
  1 24  1  0  0  0  0
  2  3  2  0  0  0  0
  2 10  1  0  0  0  0
  3  4  1  0  0  0  0
  3 25  1  0  0  0  0
  4  5  2  0  0  0  0
  4  9  1  0  0  0  0
  5  6  1  0  0  0  0
  5 26  1  0  0  0  0
  6  7  2  0  0  0  0
  6 27  1  0  0  0  0
  7  8  1  0  0  0  0
  7 28  1  0  0  0  0
  8  9  2  0  0  0  0
  8 29  1  0  0  0  0
  9 30  1  0  0  0  0
 10 11  2  0  0  0  0
 10 31  1  0  0  0  0
 11 12  1  0  0  0  0
 11 20  1  0  0  0  0
 12 13  1  0  0  0  0
 13 14  2  0  0  0  0
 13 15  1  0  0  0  0
 15 16  1  0  0  0  0
 15 20  1  0  0  0  0
 16 17  1  0  0  0  0
 16 32  1  0  0  0  0
 16 33  1  0  0  0  0
 17 18  1  0  0  0  0
 17 19  2  0  0  0  0
 18 34  1  0  0  0  0
 20 21  2  0  0  0  0
M  END
>  <DRUGBANK_ID>
DB15293

>  <COMMON_NAME>
Epalrestat

>  <CAS_NUMBER>
82159-09-9

>  <UNII>
424DV0807X

>  <SYNONYMS>
Epalrestat

$$$$
