FRA
 OpenBabel10282417072D

 54 57  0  0  0  0  0  0  0  0999 V2000
    4.3434    1.7020    0.0000 C   0  0  0  0  0  0  0  0  0  0  0  0
    3.5345    1.5402    0.0000 C   0  0  0  0  0  0  0  0  0  0  0  0
    2.9899    2.1599    0.0000 O   0  0  0  0  0  0  0  0  0  0  0  0
    3.2701    0.7587    0.0000 N   0  0  0  0  0  0  0  0  0  0  0  0
    2.4611    0.5969    0.0000 C   0  0  0  0  0  0  0  0  0  0  0  0
    2.1967   -0.1846    0.0000 C   0  0  0  0  0  0  0  0  0  0  0  0
    1.3878   -0.3464    0.0000 C   0  0  0  0  0  0  0  0  0  0  0  0
    0.8432    0.2733    0.0000 C   0  0  0  0  0  0  0  0  0  0  0  0
    1.1075    1.0548    0.0000 C   0  0  0  0  0  0  0  0  0  0  0  0
    1.9165    1.2166    0.0000 C   0  0  0  0  0  0  0  0  0  0  0  0
    0.0342    0.1115    0.0000 N   0  0  0  0  0  0  0  0  0  0  0  0
   -0.3104   -0.6381    0.0000 C   0  0  0  0  0  0  0  0  0  0  0  0
   -1.0473   -0.4595    0.0000 C   0  0  1  0  0  0  0  0  0  0  0  0
   -1.2916    0.2670    0.0000 C   0  0  1  0  0  0  0  0  0  0  0  0
   -0.5722    0.6709    0.0000 C   0  0  0  0  0  0  0  0  0  0  0  0
    0.2664   -1.2953    0.0000 O   0  0  0  0  0  0  0  0  0  0  0  0
   -0.4756    1.5422    0.0000 O   0  0  0  0  0  0  0  0  0  0  0  0
   -1.7133   -0.0301    0.0000 C   0  0  1  0  0  0  0  0  0  0  0  0
   -2.7176   -0.5540    0.0000 C   0  0  0  0  0  0  0  0  0  0  0  0
   -2.8248    0.2014    0.0000 C   0  0  0  0  0  0  0  0  0  0  0  0
   -1.9833    1.4494    0.0000 C   0  0  0  0  0  0  0  0  0  0  0  0
   -1.7386    0.8435    0.0000 C   0  0  0  0  0  0  0  0  0  0  0  0
   -2.0210    0.5533    0.0000 C   0  0  2  0  0  0  0  0  0  0  0  0
   -2.1333   -0.3856    0.0000 N   0  0  0  0  0  0  0  0  0  0  0  0
   -2.0107   -1.2828    0.0000 C   0  0  0  0  0  0  0  0  0  0  0  0
   -1.5096   -0.6274    0.0000 O   0  0  0  0  0  0  0  0  0  0  0  0
   -1.6781   -2.0816    0.0000 O   0  0  0  0  0  0  0  0  0  0  0  0
   -0.9234   -2.5349    0.0000 C   0  0  0  0  0  0  0  0  0  0  0  0
   -0.4054   -3.1857    0.0000 C   0  0  0  0  0  0  0  0  0  0  0  0
    0.4105   -3.0635    0.0000 O   0  0  0  0  0  0  0  0  0  0  0  0
   -0.7075   -3.9534    0.0000 O   0  0  0  0  0  0  0  0  0  0  0  0
   -1.2775   -0.9961    0.0000 H   0  0  0  0  0  0  0  0  0  0  0  0
   -1.7146   -0.1355    0.0000 H   0  0  0  0  0  0  0  0  0  0  0  0
   -1.5081    0.5166    0.0000 H   0  0  0  0  0  0  0  0  0  0  0  0
    5.0498    0.8983    0.0000 H   0  0  0  0  0  0  0  0  0  0  0  0
    4.6863    2.7156    0.0000 H   0  0  0  0  0  0  0  0  0  0  0  0
    5.3926    1.9119    0.0000 H   0  0  0  0  0  0  0  0  0  0  0  0
    3.9200    0.0192    0.0000 H   0  0  0  0  0  0  0  0  0  0  0  0
    2.8780   -0.9598    0.0000 H   0  0  0  0  0  0  0  0  0  0  0  0
    1.0571   -1.3240    0.0000 H   0  0  0  0  0  0  0  0  0  0  0  0
    0.4262    1.8300    0.0000 H   0  0  0  0  0  0  0  0  0  0  0  0
    2.2472    2.1942    0.0000 H   0  0  0  0  0  0  0  0  0  0  0  0
   -3.2065   -1.5058    0.0000 H   0  0  0  0  0  0  0  0  0  0  0  0
   -3.7728   -0.3764    0.0000 H   0  0  0  0  0  0  0  0  0  0  0  0
   -3.7594    0.7224    0.0000 H   0  0  0  0  0  0  0  0  0  0  0  0
   -2.7735    1.2702    0.0000 H   0  0  0  0  0  0  0  0  0  0  0  0
   -2.1653    2.5038    0.0000 H   0  0  0  0  0  0  0  0  0  0  0  0
   -3.0511    1.3805    0.0000 H   0  0  0  0  0  0  0  0  0  0  0  0
   -0.6913    1.0628    0.0000 H   0  0  0  0  0  0  0  0  0  0  0  0
   -1.2348    1.7875    0.0000 H   0  0  0  0  0  0  0  0  0  0  0  0
   -3.1178   -0.3939    0.0000 H   0  0  0  0  0  0  0  0  0  0  0  0
   -0.2181   -1.7303    0.0000 H   0  0  0  0  0  0  0  0  0  0  0  0
    0.1463   -2.5603    0.0000 H   0  0  0  0  0  0  0  0  0  0  0  0
   -1.6342   -4.0922    0.0000 H   0  0  0  0  0  0  0  0  0  0  0  0
  1  2  1  0  0  0  0
  1 35  1  0  0  0  0
  1 36  1  0  0  0  0
  1 37  1  0  0  0  0
  2  3  2  0  0  0  0
  2  4  1  0  0  0  0
  4  5  1  0  0  0  0
  4 38  1  0  0  0  0
  5  6  2  0  0  0  0
  5 10  1  0  0  0  0
  6  7  1  0  0  0  0
  6 39  1  0  0  0  0
  7  8  2  0  0  0  0
  7 40  1  0  0  0  0
  8  9  1  0  0  0  0
  8 11  1  0  0  0  0
  9 10  2  0  0  0  0
  9 41  1  0  0  0  0
 10 42  1  0  0  0  0
 11 12  1  0  0  0  0
 11 15  1  0  0  0  0
 12 13  1  0  0  0  0
 12 16  2  0  0  0  0
 13 14  1  0  0  0  0
 13 18  1  0  0  0  0
 13 32  1  1  0  0  0
 14 15  1  0  0  0  0
 14 23  1  0  0  0  0
 14 33  1  1  0  0  0
 15 17  2  0  0  0  0
 18 19  1  0  0  0  0
 18 22  1  0  0  0  0
 18 34  1  6  0  0  0
 19 20  1  0  0  0  0
 19 43  1  0  0  0  0
 19 44  1  0  0  0  0
 20 23  1  0  0  0  0
 20 45  1  0  0  0  0
 20 46  1  0  0  0  0
 21 22  1  0  0  0  0
 21 23  1  0  0  0  0
 21 47  1  0  0  0  0
 21 48  1  0  0  0  0
 22 49  1  0  0  0  0
 22 50  1  0  0  0  0
 23 24  1  1  0  0  0
 24 25  1  0  0  0  0
 24 51  1  0  0  0  0
 25 26  2  0  0  0  0
 25 27  1  0  0  0  0
 27 28  1  0  0  0  0
 28 29  1  0  0  0  0
 28 52  1  0  0  0  0
 28 53  1  0  0  0  0
 29 30  2  0  0  0  0
 29 31  1  0  0  0  0
 31 54  1  0  0  0  0
M  END
>  <DRUGBANK_ID>
DB07784

>  <COMMON_NAME>
[4-(4-ACETYLAMINO-PHENYL)-3,5-DIOXO-4-AZA-TRICYCLO[5.2.2.0 2,6]UNDEC-1-YLCARBAMOYLOXY]-ACETIC ACID

$$$$
