
 OpenBabel10282417072D

 45 46  0  0  0  0  0  0  0  0999 V2000
    0.7144   -2.4750    0.0000 C   0  0  0  0  0  0  0  0  0  0  0  0
    0.0000    0.4125    0.0000 C   0  0  0  0  0  0  0  0  0  0  0  0
   -0.7144    1.6500    0.0000 C   0  0  0  0  0  0  0  0  0  0  0  0
    0.0000   -2.0625    0.0000 C   0  0  2  0  0  0  0  0  0  0  0  0
    0.0000    1.2375    0.0000 C   0  0  0  0  0  0  0  0  0  0  0  0
    0.7144    0.0000    0.0000 C   0  0  1  0  0  0  0  0  0  0  0  0
    0.0000   -1.2375    0.0000 C   0  0  2  0  0  0  0  0  0  0  0  0
    0.7144    1.6500    0.0000 C   0  0  3  0  0  0  0  0  0  0  0  0
    1.4289    0.4125    0.0000 C   0  0  1  0  0  0  0  0  0  0  0  0
   -0.7144   -0.8250    0.0000 C   0  0  1  0  0  0  0  0  0  0  0  0
    1.4289    1.2375    0.0000 C   0  0  1  0  0  0  0  0  0  0  0  0
   -1.4289   -1.2375    0.0000 C   0  0  2  0  0  0  0  0  0  0  0  0
   -1.4289   -2.0625    0.0000 C   0  0  2  0  0  0  0  0  0  0  0  0
    0.7144   -0.8250    0.0000 N   0  0  0  0  0  0  0  0  0  0  0  0
   -1.4289    1.2375    0.0000 O   0  0  0  0  0  0  0  0  0  0  0  0
    0.7144    2.4750    0.0000 O   0  0  0  0  0  0  0  0  0  0  0  0
    2.1434    0.0000    0.0000 O   0  0  0  0  0  0  0  0  0  0  0  0
   -0.7144    0.0000    0.0000 O   0  0  0  0  0  0  0  0  0  0  0  0
    2.1434    1.6500    0.0000 O   0  0  0  0  0  0  0  0  0  0  0  0
   -2.1434   -0.8250    0.0000 O   0  0  0  0  0  0  0  0  0  0  0  0
   -2.1434   -2.4750    0.0000 O   0  0  0  0  0  0  0  0  0  0  0  0
   -0.7144   -2.4750    0.0000 O   0  0  0  0  0  0  0  0  0  0  0  0
    0.7144   -1.6500    0.0000 H   0  0  0  0  0  0  0  0  0  0  0  0
    1.4289   -0.4125    0.0000 H   0  0  0  0  0  0  0  0  0  0  0  0
    0.0000   -0.4125    0.0000 H   0  0  0  0  0  0  0  0  0  0  0  0
    0.0000    2.0625    0.0000 H   0  0  0  0  0  0  0  0  0  0  0  0
    2.1434    0.8250    0.0000 H   0  0  0  0  0  0  0  0  0  0  0  0
   -0.7144   -1.6500    0.0000 H   0  0  0  0  0  0  0  0  0  0  0  0
    1.4289    2.0625    0.0000 H   0  0  0  0  0  0  0  0  0  0  0  0
   -1.4289   -0.4125    0.0000 H   0  0  0  0  0  0  0  0  0  0  0  0
   -2.1434   -1.6500    0.0000 H   0  0  0  0  0  0  0  0  0  0  0  0
    0.7144   -3.5450    0.0000 H   0  0  0  0  0  0  0  0  0  0  0  0
    1.6411   -1.9400    0.0000 H   0  0  0  0  0  0  0  0  0  0  0  0
    1.6410   -3.0100    0.0000 H   0  0  0  0  0  0  0  0  0  0  0  0
   -0.8937   -0.1035    0.0000 H   0  0  0  0  0  0  0  0  0  0  0  0
   -0.7144    2.7200    0.0000 H   0  0  0  0  0  0  0  0  0  0  0  0
   -1.6410    2.1850    0.0000 H   0  0  0  0  0  0  0  0  0  0  0  0
    1.5978   -1.3350    0.0000 H   0  0  0  0  0  0  0  0  0  0  0  0
   -2.2689    1.7225    0.0000 H   0  0  0  0  0  0  0  0  0  0  0  0
    1.5544    2.9600    0.0000 H   0  0  0  0  0  0  0  0  0  0  0  0
    2.1434   -0.9700    0.0000 H   0  0  0  0  0  0  0  0  0  0  0  0
    0.1256    0.4850    0.0000 H   0  0  0  0  0  0  0  0  0  0  0  0
    2.9834    1.1650    0.0000 H   0  0  0  0  0  0  0  0  0  0  0  0
   -2.1434    0.1450    0.0000 H   0  0  0  0  0  0  0  0  0  0  0  0
   -2.9834   -1.9900    0.0000 H   0  0  0  0  0  0  0  0  0  0  0  0
  1 32  1  0  0  0  0
  1 33  1  0  0  0  0
  1 34  1  0  0  0  0
  2 35  1  0  0  0  0
  3 36  1  0  0  0  0
  3 37  1  0  0  0  0
  4  1  1  0  0  0  0
  4 22  1  0  0  0  0
  4 23  1  6  0  0  0
  5  2  2  0  0  0  0
  5  3  1  0  0  0  0
  6  2  1  0  0  0  0
  6 14  1  0  0  0  0
  6 24  1  6  0  0  0
  7  4  1  0  0  0  0
  7 10  1  0  0  0  0
  7 14  1  0  0  0  0
  7 25  1  1  0  0  0
  8  5  1  0  0  0  0
  9  6  1  0  0  0  0
  9 11  1  0  0  0  0
  9 17  1  0  0  0  0
  9 27  1  6  0  0  0
 10 12  1  0  0  0  0
 10 18  1  0  0  0  0
 10 28  1  6  0  0  0
 11  8  1  0  0  0  0
 11 19  1  0  0  0  0
 11 29  1  1  0  0  0
 12 13  1  0  0  0  0
 12 20  1  0  0  0  0
 12 30  1  1  0  0  0
 13 21  1  0  0  0  0
 13 22  1  0  0  0  0
 13 31  1  6  0  0  0
 14 38  1  0  0  0  0
 15  3  1  0  0  0  0
 15 39  1  0  0  0  0
 16  8  1  0  0  0  0
 16 40  1  0  0  0  0
 17 41  1  0  0  0  0
 18 42  1  0  0  0  0
 19 43  1  0  0  0  0
 20 44  1  0  0  0  0
 21 45  1  0  0  0  0
 26  8  1  0  0  0  0
M  END
>  <DRUGBANK_ID>
DB03269

>  <SECONDARY_ACCESSION_NUMBERS>
EXPT00449

>  <COMMON_NAME>
4,6-Dideoxy-4-{[4,5,6-trihydroxy-3-(hydroxymethyl)-2-cyclohexen-1-yl]amino}hexopyranose

$$$$
