
 OpenBabel10282417072D

 13 12  0  0  0  0  0  0  0  0999 V2000
    2.4750    0.0000    0.0000 C   0  0  0  0  0  0  0  0  0  0  0  0
    1.6500    0.0000    0.0000 C   0  0  0  0  0  0  0  0  0  0  0  0
    1.6500    0.8250    0.0000 C   0  0  0  0  0  0  0  0  0  0  0  0
    1.6500   -0.8250    0.0000 O   0  0  0  0  0  0  0  0  0  0  0  0
    0.8250    0.0000    0.0000 C   0  0  0  0  0  0  0  0  0  0  0  0
    0.0000    0.0000    0.0000 N   0  0  0  0  0  0  0  0  0  0  0  0
    3.0100   -0.9266    0.0000 H   0  0  0  0  0  0  0  0  0  0  0  0
    3.0100    0.9266    0.0000 H   0  0  0  0  0  0  0  0  0  0  0  0
    3.5450    0.0000    0.0000 H   0  0  0  0  0  0  0  0  0  0  0  0
    2.5766    1.3600    0.0000 H   0  0  0  0  0  0  0  0  0  0  0  0
    0.7234    1.3600    0.0000 H   0  0  0  0  0  0  0  0  0  0  0  0
    1.6500    1.8950    0.0000 H   0  0  0  0  0  0  0  0  0  0  0  0
    0.8100   -1.3100    0.0000 H   0  0  0  0  0  0  0  0  0  0  0  0
  1  2  1  0  0  0  0
  1  7  1  0  0  0  0
  1  8  1  0  0  0  0
  1  9  1  0  0  0  0
  2  3  1  0  0  0  0
  2  4  1  0  0  0  0
  2  5  1  0  0  0  0
  3 10  1  0  0  0  0
  3 11  1  0  0  0  0
  3 12  1  0  0  0  0
  4 13  1  0  0  0  0
  5  6  3  0  0  0  0
M  END
>  <DRUGBANK_ID>
DB02203

>  <SECONDARY_ACCESSION_NUMBERS>
EXPT00968

>  <COMMON_NAME>
Acetone Cyanohydrin

>  <CAS_NUMBER>
75-86-5

>  <UNII>
CO1YOV1KFI

$$$$
