
 OpenBabel10282417072D

 66 70  0  0  0  0  0  0  0  0999 V2000
   -2.1949    3.2605    0.0000 C   0  0  0  0  0  0  0  0  0  0  0  0
   -2.9118    2.8480    0.0000 C   0  0  0  0  0  0  0  0  0  0  0  0
   -2.9118    2.0329    0.0000 C   0  0  0  0  0  0  0  0  0  0  0  0
   -2.1949    1.6204    0.0000 C   0  0  0  0  0  0  0  0  0  0  0  0
   -1.4878    2.8480    0.0000 C   0  0  0  0  0  0  0  0  0  0  0  0
   -2.1949    4.0854    0.0000 C   0  0  0  0  0  0  0  0  0  0  0  0
   -2.1949    4.9104    0.0000 F   0  0  0  0  0  0  0  0  0  0  0  0
   -1.3700    4.0854    0.0000 F   0  0  0  0  0  0  0  0  0  0  0  0
   -3.0199    4.0854    0.0000 F   0  0  0  0  0  0  0  0  0  0  0  0
   -1.4878    2.0329    0.0000 C   0  0  0  0  0  0  0  0  0  0  0  0
   -0.7709    1.6204    0.0000 C   0  0  0  0  0  0  0  0  0  0  0  0
   -0.6039    0.8151    0.0000 C   0  0  0  0  0  0  0  0  0  0  0  0
   -0.0539    2.0329    0.0000 N   0  0  0  0  0  0  0  0  0  0  0  0
    0.2210    0.7266    0.0000 N   0  0  0  0  0  0  0  0  0  0  0  0
    0.5548    1.4730    0.0000 C   0  0  0  0  0  0  0  0  0  0  0  0
    1.3798    1.4730    0.0000 C   0  0  0  0  0  0  0  0  0  0  0  0
    2.6172    2.1900    0.0000 C   0  0  0  0  0  0  0  0  0  0  0  0
    1.7923    2.1900    0.0000 C   0  0  0  0  0  0  0  0  0  0  0  0
    1.7923    0.7659    0.0000 C   0  0  0  0  0  0  0  0  0  0  0  0
    2.6172    0.7659    0.0000 C   0  0  0  0  0  0  0  0  0  0  0  0
    3.0199    1.4730    0.0000 N   0  0  0  0  0  0  0  0  0  0  0  0
    0.6334    0.0097    0.0000 C   0  0  0  0  0  0  0  0  0  0  0  0
   -1.1538    0.1963    0.0000 C   0  0  0  0  0  0  0  0  0  0  0  0
   -1.8610    0.6088    0.0000 C   0  0  0  0  0  0  0  0  0  0  0  0
   -2.5780    0.1963    0.0000 C   0  0  0  0  0  0  0  0  0  0  0  0
   -2.5780   -0.6285    0.0000 N   0  0  0  0  0  0  0  0  0  0  0  0
   -1.1538   -0.6285    0.0000 N   0  0  0  0  0  0  0  0  0  0  0  0
   -1.8610   -1.0311    0.0000 C   0  0  0  0  0  0  0  0  0  0  0  0
   -1.8610   -1.8560    0.0000 N   0  0  0  0  0  0  0  0  0  0  0  0
   -1.2816   -2.4453    0.0000 C   0  0  1  0  0  0  0  0  0  0  0  0
   -0.5646   -2.0329    0.0000 C   0  0  0  0  0  0  0  0  0  0  0  0
   -1.2816   -3.2604    0.0000 C   0  0  0  0  0  0  0  0  0  0  0  0
   -2.0083   -3.6533    0.0000 C   0  0  0  0  0  0  0  0  0  0  0  0
   -2.0378   -4.4782    0.0000 C   0  0  0  0  0  0  0  0  0  0  0  0
   -1.3307   -4.9104    0.0000 C   0  0  0  0  0  0  0  0  0  0  0  0
   -0.6039   -4.5175    0.0000 C   0  0  0  0  0  0  0  0  0  0  0  0
   -0.5843   -3.7024    0.0000 C   0  0  0  0  0  0  0  0  0  0  0  0
   -3.8052    3.3647    0.0000 H   0  0  0  0  0  0  0  0  0  0  0  0
   -3.8052    1.5162    0.0000 H   0  0  0  0  0  0  0  0  0  0  0  0
   -2.1918    0.5884    0.0000 H   0  0  0  0  0  0  0  0  0  0  0  0
   -0.5929    3.3620    0.0000 H   0  0  0  0  0  0  0  0  0  0  0  0
    2.4498    1.4762    0.0000 H   0  0  0  0  0  0  0  0  0  0  0  0
    3.1577    3.1135    0.0000 H   0  0  0  0  0  0  0  0  0  0  0  0
    2.0849    3.1182    0.0000 H   0  0  0  0  0  0  0  0  0  0  0  0
    1.2566    3.1162    0.0000 H   0  0  0  0  0  0  0  0  0  0  0  0
    2.3269    3.1169    0.0000 H   0  0  0  0  0  0  0  0  0  0  0  0
    1.2594   -0.1619    0.0000 H   0  0  0  0  0  0  0  0  0  0  0  0
    2.3283   -0.1601    0.0000 H   0  0  0  0  0  0  0  0  0  0  0  0
    3.1549   -0.1592    0.0000 H   0  0  0  0  0  0  0  0  0  0  0  0
    3.6872    0.7706    0.0000 H   0  0  0  0  0  0  0  0  0  0  0  0
    4.0399    1.4700    0.0000 H   0  0  0  0  0  0  0  0  0  0  0  0
    0.0969   -0.9161    0.0000 H   0  0  0  0  0  0  0  0  0  0  0  0
    1.7034    0.0080    0.0000 H   0  0  0  0  0  0  0  0  0  0  0  0
    1.1669   -0.9178    0.0000 H   0  0  0  0  0  0  0  0  0  0  0  0
   -1.8579    1.6408    0.0000 H   0  0  0  0  0  0  0  0  0  0  0  0
   -3.4713    0.7130    0.0000 H   0  0  0  0  0  0  0  0  0  0  0  0
   -2.7721   -2.2289    0.0000 H   0  0  0  0  0  0  0  0  0  0  0  0
   -1.1366   -1.3852    0.0000 H   0  0  0  0  0  0  0  0  0  0  0  0
    0.3612   -2.5694    0.0000 H   0  0  0  0  0  0  0  0  0  0  0  0
   -0.5629   -0.9629    0.0000 H   0  0  0  0  0  0  0  0  0  0  0  0
    0.3629   -1.4994    0.0000 H   0  0  0  0  0  0  0  0  0  0  0  0
   -2.8852   -3.1091    0.0000 H   0  0  0  0  0  0  0  0  0  0  0  0
   -2.9468   -4.9668    0.0000 H   0  0  0  0  0  0  0  0  0  0  0  0
   -1.3581   -5.9420    0.0000 H   0  0  0  0  0  0  0  0  0  0  0  0
    0.2761   -5.0566    0.0000 H   0  0  0  0  0  0  0  0  0  0  0  0
    0.3258   -3.2159    0.0000 H   0  0  0  0  0  0  0  0  0  0  0  0
  1  2  1  0  0  0  0
  1  5  2  0  0  0  0
  1  6  1  0  0  0  0
  2  3  2  0  0  0  0
  2 38  1  0  0  0  0
  3  4  1  0  0  0  0
  3 39  1  0  0  0  0
  4 10  2  0  0  0  0
  4 40  1  0  0  0  0
  5 10  1  0  0  0  0
  5 41  1  0  0  0  0
  6  7  1  0  0  0  0
  6  9  1  0  0  0  0
  6  8  1  0  0  0  0
 10 11  1  0  0  0  0
 11 13  1  0  0  0  0
 11 12  2  0  0  0  0
 12 14  1  0  0  0  0
 12 23  1  0  0  0  0
 13 15  2  0  0  0  0
 14 15  1  0  0  0  0
 14 22  1  0  0  0  0
 15 16  1  0  0  0  0
 16 18  1  0  0  0  0
 16 19  1  0  0  0  0
 16 42  1  0  0  0  0
 17 21  1  0  0  0  0
 17 18  1  0  0  0  0
 17 43  1  0  0  0  0
 17 44  1  0  0  0  0
 18 45  1  0  0  0  0
 18 46  1  0  0  0  0
 19 20  1  0  0  0  0
 19 47  1  0  0  0  0
 19 48  1  0  0  0  0
 20 21  1  0  0  0  0
 20 49  1  0  0  0  0
 20 50  1  0  0  0  0
 21 51  1  0  0  0  0
 22 52  1  0  0  0  0
 22 53  1  0  0  0  0
 22 54  1  0  0  0  0
 23 27  1  0  0  0  0
 23 24  2  0  0  0  0
 24 25  1  0  0  0  0
 24 55  1  0  0  0  0
 25 26  2  0  0  0  0
 25 56  1  0  0  0  0
 26 28  1  0  0  0  0
 27 28  2  0  0  0  0
 28 29  1  0  0  0  0
 29 30  1  0  0  0  0
 29 57  1  0  0  0  0
 30 32  1  0  0  0  0
 30 31  1  0  0  0  0
 30 58  1  6  0  0  0
 31 59  1  0  0  0  0
 31 60  1  0  0  0  0
 31 61  1  0  0  0  0
 32 33  1  0  0  0  0
 32 37  2  0  0  0  0
 33 34  2  0  0  0  0
 33 62  1  0  0  0  0
 34 35  1  0  0  0  0
 34 63  1  0  0  0  0
 35 36  2  0  0  0  0
 35 64  1  0  0  0  0
 36 37  1  0  0  0  0
 36 65  1  0  0  0  0
 37 66  1  0  0  0  0
M  END
>  <DRUGBANK_ID>
DB01761

>  <SECONDARY_ACCESSION_NUMBERS>
EXPT00004

>  <COMMON_NAME>
4-[5-[2-(1-phenyl-ethylamino)-pyrimidin-4-yl]-1-methyl-4-(3-trifluoromethylphenyl)-1H-imidazol-2-yl]-piperidine

$$$$
