995
 OpenBabel10282417072D

 66 66  0  0  0  0  0  0  0  0999 V2000
   -2.3244    1.8421    0.0000 C   0  0  0  0  0  0  0  0  0  0  0  0
   -1.9119    1.1276    0.0000 C   0  0  2  0  0  0  0  0  0  0  0  0
   -3.1494    1.8421    0.0000 C   0  0  0  0  0  0  0  0  0  0  0  0
   -1.9119    2.5565    0.0000 O   0  0  0  0  0  0  0  0  0  0  0  0
   -3.6343    1.1746    0.0000 S   0  0  0  0  0  0  0  0  0  0  0  0
   -4.4190    1.4296    0.0000 C   0  0  0  0  0  0  0  0  0  0  0  0
   -4.4190    2.2546    0.0000 C   0  0  0  0  0  0  0  0  0  0  0  0
   -3.6343    2.5095    0.0000 N   0  0  0  0  0  0  0  0  0  0  0  0
   -2.3244    0.4131    0.0000 C   0  0  0  0  0  0  0  0  0  0  0  0
   -1.9119   -0.3013    0.0000 C   0  0  0  0  0  0  0  0  0  0  0  0
   -1.0869    1.1276    0.0000 N   0  0  0  0  0  0  0  0  0  0  0  0
   -0.6744    0.4131    0.0000 C   0  0  0  0  0  0  0  0  0  0  0  0
    0.1506    0.4131    0.0000 C   0  0  2  0  0  0  0  0  0  0  0  0
    0.5631    1.1276    0.0000 C   0  0  0  0  0  0  0  0  0  0  0  0
    1.3881    1.1276    0.0000 C   0  0  0  0  0  0  0  0  0  0  0  0
    0.1506    1.8421    0.0000 C   0  0  0  0  0  0  0  0  0  0  0  0
    0.5631   -0.3013    0.0000 N   0  0  0  0  0  0  0  0  0  0  0  0
    1.3881   -0.3013    0.0000 C   0  0  0  0  0  0  0  0  0  0  0  0
    1.8006   -1.0158    0.0000 C   0  0  0  0  0  0  0  0  0  0  0  0
    2.6256   -1.0158    0.0000 C   0  0  0  0  0  0  0  0  0  0  0  0
    3.0381   -1.7303    0.0000 C   0  0  0  0  0  0  0  0  0  0  0  0
    3.8631   -1.7303    0.0000 C   0  0  0  0  0  0  0  0  0  0  0  0
    2.6256   -2.4448    0.0000 C   0  0  0  0  0  0  0  0  0  0  0  0
    1.8006    0.4131    0.0000 O   0  0  0  0  0  0  0  0  0  0  0  0
   -1.0869   -0.3013    0.0000 O   0  0  0  0  0  0  0  0  0  0  0  0
   -2.3244   -1.0158    0.0000 C   0  0  0  0  0  0  0  0  0  0  0  0
   -1.9119   -1.7303    0.0000 N   0  0  0  0  0  0  0  0  0  0  0  0
   -2.3244   -2.4448    0.0000 C   0  0  0  0  0  0  0  0  0  0  0  0
   -1.9119   -3.1592    0.0000 N   0  0  0  0  0  0  0  0  0  0  0  0
   -3.1494   -2.4448    0.0000 N   0  0  0  0  0  0  0  0  0  0  0  0
   -2.4959    1.1276    0.0000 H   0  0  0  0  0  0  0  0  0  0  0  0
   -0.1414    0.9188    0.0000 H   0  0  0  0  0  0  0  0  0  0  0  0
   -5.2539    0.8230    0.0000 H   0  0  0  0  0  0  0  0  0  0  0  0
   -5.2539    2.8612    0.0000 H   0  0  0  0  0  0  0  0  0  0  0  0
   -3.3944    0.4131    0.0000 H   0  0  0  0  0  0  0  0  0  0  0  0
   -2.8594   -0.5136    0.0000 H   0  0  0  0  0  0  0  0  0  0  0  0
   -0.8419   -0.3013    0.0000 H   0  0  0  0  0  0  0  0  0  0  0  0
   -1.3769   -1.2279    0.0000 H   0  0  0  0  0  0  0  0  0  0  0  0
   -0.5946    1.9802    0.0000 H   0  0  0  0  0  0  0  0  0  0  0  0
    1.0981    2.0542    0.0000 H   0  0  0  0  0  0  0  0  0  0  0  0
    1.9231    0.2010    0.0000 H   0  0  0  0  0  0  0  0  0  0  0  0
    1.9231    2.0542    0.0000 H   0  0  0  0  0  0  0  0  0  0  0  0
    2.4581    1.1276    0.0000 H   0  0  0  0  0  0  0  0  0  0  0  0
    0.6856    2.7687    0.0000 H   0  0  0  0  0  0  0  0  0  0  0  0
   -0.9194    1.8421    0.0000 H   0  0  0  0  0  0  0  0  0  0  0  0
   -0.3844    2.7688    0.0000 H   0  0  0  0  0  0  0  0  0  0  0  0
    0.0709   -1.1539    0.0000 H   0  0  0  0  0  0  0  0  0  0  0  0
    1.2656   -1.9424    0.0000 H   0  0  0  0  0  0  0  0  0  0  0  0
    2.3356   -1.9424    0.0000 H   0  0  0  0  0  0  0  0  0  0  0  0
    3.1606   -0.0892    0.0000 H   0  0  0  0  0  0  0  0  0  0  0  0
    3.6956   -1.0158    0.0000 H   0  0  0  0  0  0  0  0  0  0  0  0
    3.5731   -2.6569    0.0000 H   0  0  0  0  0  0  0  0  0  0  0  0
    4.3981   -2.6569    0.0000 H   0  0  0  0  0  0  0  0  0  0  0  0
    4.3981   -0.8037    0.0000 H   0  0  0  0  0  0  0  0  0  0  0  0
    4.9331   -1.7303    0.0000 H   0  0  0  0  0  0  0  0  0  0  0  0
    1.5556   -2.4448    0.0000 H   0  0  0  0  0  0  0  0  0  0  0  0
    3.1606   -3.3714    0.0000 H   0  0  0  0  0  0  0  0  0  0  0  0
    2.0906   -3.3715    0.0000 H   0  0  0  0  0  0  0  0  0  0  0  0
   -3.3944   -1.0158    0.0000 H   0  0  0  0  0  0  0  0  0  0  0  0
   -2.8594   -1.9424    0.0000 H   0  0  0  0  0  0  0  0  0  0  0  0
   -0.8919   -1.7303    0.0000 H   0  0  0  0  0  0  0  0  0  0  0  0
   -2.8594   -3.3715    0.0000 H   0  0  0  0  0  0  0  0  0  0  0  0
   -2.4219   -4.0426    0.0000 H   0  0  0  0  0  0  0  0  0  0  0  0
   -0.8919   -3.1592    0.0000 H   0  0  0  0  0  0  0  0  0  0  0  0
   -3.6594   -1.5615    0.0000 H   0  0  0  0  0  0  0  0  0  0  0  0
   -3.6594   -3.3281    0.0000 H   0  0  0  0  0  0  0  0  0  0  0  0
  1  2  1  0  0  0  0
  1  3  1  0  0  0  0
  1  4  2  0  0  0  0
  2  9  1  0  0  0  0
  2 11  1  0  0  0  0
  2 31  1  6  0  0  0
  3  5  1  0  0  0  0
  3  8  2  0  0  0  0
  5  6  1  0  0  0  0
  6  7  2  0  0  0  0
  6 33  1  0  0  0  0
  7  8  1  0  0  0  0
  7 34  1  0  0  0  0
  9 10  1  0  0  0  0
  9 35  1  0  0  0  0
  9 36  1  0  0  0  0
 10 26  1  0  0  0  0
 10 37  1  0  0  0  0
 10 38  1  0  0  0  0
 11 12  1  0  0  0  0
 11 39  1  0  0  0  0
 12 13  1  0  0  0  0
 12 25  2  0  0  0  0
 13 14  1  0  0  0  0
 13 17  1  0  0  0  0
 13 32  1  1  0  0  0
 14 15  1  0  0  0  0
 14 16  1  0  0  0  0
 14 40  1  0  0  0  0
 15 41  1  0  0  0  0
 15 42  1  0  0  0  0
 15 43  1  0  0  0  0
 16 44  1  0  0  0  0
 16 45  1  0  0  0  0
 16 46  1  0  0  0  0
 17 18  1  0  0  0  0
 17 47  1  0  0  0  0
 18 19  1  0  0  0  0
 18 24  2  0  0  0  0
 19 20  1  0  0  0  0
 19 48  1  0  0  0  0
 19 49  1  0  0  0  0
 20 21  1  0  0  0  0
 20 50  1  0  0  0  0
 20 51  1  0  0  0  0
 21 22  1  0  0  0  0
 21 23  1  0  0  0  0
 21 52  1  0  0  0  0
 22 53  1  0  0  0  0
 22 54  1  0  0  0  0
 22 55  1  0  0  0  0
 23 56  1  0  0  0  0
 23 57  1  0  0  0  0
 23 58  1  0  0  0  0
 26 27  1  0  0  0  0
 26 59  1  0  0  0  0
 26 60  1  0  0  0  0
 27 28  1  0  0  0  0
 27 61  1  0  0  0  0
 28 29  1  0  0  0  0
 28 30  1  0  0  0  0
 28 62  1  0  0  0  0
 29 63  1  0  0  0  0
 29 64  1  0  0  0  0
 30 65  1  0  0  0  0
 30 66  1  0  0  0  0
M  END
>  <DRUGBANK_ID>
DB07299

>  <COMMON_NAME>
4-METHYL-PENTANOIC ACID {1-[4-GUANIDINO-1-(THIAZOLE-2-CARBONYL)-BUTYLCARBAMOYL]-2-METHYL-PROPYL}-AMIDE

$$$$
