CXZ
 OpenBabel10282417072D

 47 50  0  0  0  0  0  0  0  0999 V2000
   -1.0182   -1.2125    0.0000 C   0  0  0  0  0  0  0  0  0  0  0  0
   -1.7327   -1.6250    0.0000 C   0  0  0  0  0  0  0  0  0  0  0  0
   -2.4471   -1.2125    0.0000 C   0  0  0  0  0  0  0  0  0  0  0  0
   -2.4471   -0.3875    0.0000 C   0  0  0  0  0  0  0  0  0  0  0  0
   -1.7327    0.0250    0.0000 C   0  0  0  0  0  0  0  0  0  0  0  0
   -1.0182   -0.3875    0.0000 C   0  0  0  0  0  0  0  0  0  0  0  0
   -0.3037    0.0250    0.0000 N   0  0  0  0  0  0  0  0  0  0  0  0
    0.4107   -0.3875    0.0000 C   0  0  0  0  0  0  0  0  0  0  0  0
    1.1252    0.0250    0.0000 C   0  0  0  0  0  0  0  0  0  0  0  0
    1.8397   -0.3875    0.0000 N   0  0  0  0  0  0  0  0  0  0  0  0
    2.5542    0.0250    0.0000 C   0  0  0  0  0  0  0  0  0  0  0  0
    3.2686   -0.3875    0.0000 C   0  0  0  0  0  0  0  0  0  0  0  0
    3.2686   -1.2125    0.0000 O   0  0  0  0  0  0  0  0  0  0  0  0
    2.5542   -1.6250    0.0000 C   0  0  0  0  0  0  0  0  0  0  0  0
    1.8397   -1.2125    0.0000 C   0  0  0  0  0  0  0  0  0  0  0  0
   -3.2318   -0.1326    0.0000 C   0  0  0  0  0  0  0  0  0  0  0  0
   -3.7167   -0.8000    0.0000 N   0  0  0  0  0  0  0  0  0  0  0  0
   -3.2318   -1.4674    0.0000 O   0  0  0  0  0  0  0  0  0  0  0  0
   -3.4867    0.6521    0.0000 C   0  0  0  0  0  0  0  0  0  0  0  0
   -4.2937    0.8236    0.0000 C   0  0  0  0  0  0  0  0  0  0  0  0
   -4.5486    1.6082    0.0000 C   0  0  0  0  0  0  0  0  0  0  0  0
   -3.9966    2.2213    0.0000 C   0  0  0  0  0  0  0  0  0  0  0  0
   -3.1896    2.0498    0.0000 C   0  0  0  0  0  0  0  0  0  0  0  0
   -2.9347    1.2652    0.0000 C   0  0  0  0  0  0  0  0  0  0  0  0
   -2.1277    1.0936    0.0000 O   0  0  0  0  0  0  0  0  0  0  0  0
   -4.2515    3.0059    0.0000 O   0  0  0  0  0  0  0  0  0  0  0  0
   -5.3556    1.7797    0.0000 Cl  0  0  0  0  0  0  0  0  0  0  0  0
   -0.1245   -1.7285    0.0000 H   0  0  0  0  0  0  0  0  0  0  0  0
   -1.7327   -2.6570    0.0000 H   0  0  0  0  0  0  0  0  0  0  0  0
   -1.7327    1.0570    0.0000 H   0  0  0  0  0  0  0  0  0  0  0  0
   -0.3037    1.0095    0.0000 H   0  0  0  0  0  0  0  0  0  0  0  0
    0.4107   -1.4575    0.0000 H   0  0  0  0  0  0  0  0  0  0  0  0
    1.3373   -0.9225    0.0000 H   0  0  0  0  0  0  0  0  0  0  0  0
    1.1252    1.0950    0.0000 H   0  0  0  0  0  0  0  0  0  0  0  0
    2.0518    0.5600    0.0000 H   0  0  0  0  0  0  0  0  0  0  0  0
    2.5542    1.0950    0.0000 H   0  0  0  0  0  0  0  0  0  0  0  0
    3.4809    0.5600    0.0000 H   0  0  0  0  0  0  0  0  0  0  0  0
    4.1953    0.1475    0.0000 H   0  0  0  0  0  0  0  0  0  0  0  0
    4.1952   -0.9225    0.0000 H   0  0  0  0  0  0  0  0  0  0  0  0
    2.5542   -2.6950    0.0000 H   0  0  0  0  0  0  0  0  0  0  0  0
    1.6276   -2.1600    0.0000 H   0  0  0  0  0  0  0  0  0  0  0  0
    0.9131   -1.7475    0.0000 H   0  0  0  0  0  0  0  0  0  0  0  0
    1.8397   -2.2825    0.0000 H   0  0  0  0  0  0  0  0  0  0  0  0
   -4.9842    0.0567    0.0000 H   0  0  0  0  0  0  0  0  0  0  0  0
   -2.4991    2.8167    0.0000 H   0  0  0  0  0  0  0  0  0  0  0  0
   -1.8382    0.2024    0.0000 H   0  0  0  0  0  0  0  0  0  0  0  0
   -3.6245    3.7022    0.0000 H   0  0  0  0  0  0  0  0  0  0  0  0
  1  2  2  0  0  0  0
  1  6  1  0  0  0  0
  1 28  1  0  0  0  0
  2  3  1  0  0  0  0
  2 29  1  0  0  0  0
  3  4  2  0  0  0  0
  3 18  1  0  0  0  0
  4  5  1  0  0  0  0
  4 16  1  0  0  0  0
  5  6  2  0  0  0  0
  5 30  1  0  0  0  0
  6  7  1  0  0  0  0
  7  8  1  0  0  0  0
  7 31  1  0  0  0  0
  8  9  1  0  0  0  0
  8 32  1  0  0  0  0
  8 33  1  0  0  0  0
  9 10  1  0  0  0  0
  9 34  1  0  0  0  0
  9 35  1  0  0  0  0
 10 11  1  0  0  0  0
 10 15  1  0  0  0  0
 11 12  1  0  0  0  0
 11 36  1  0  0  0  0
 11 37  1  0  0  0  0
 12 13  1  0  0  0  0
 12 38  1  0  0  0  0
 12 39  1  0  0  0  0
 13 14  1  0  0  0  0
 14 15  1  0  0  0  0
 14 40  1  0  0  0  0
 14 41  1  0  0  0  0
 15 42  1  0  0  0  0
 15 43  1  0  0  0  0
 16 17  2  0  0  0  0
 16 19  1  0  0  0  0
 17 18  1  0  0  0  0
 19 20  2  0  0  0  0
 19 24  1  0  0  0  0
 20 21  1  0  0  0  0
 20 44  1  0  0  0  0
 21 22  2  0  0  0  0
 21 27  1  0  0  0  0
 22 23  1  0  0  0  0
 22 26  1  0  0  0  0
 23 24  2  0  0  0  0
 23 45  1  0  0  0  0
 24 25  1  0  0  0  0
 25 46  1  0  0  0  0
 26 47  1  0  0  0  0
M  END
>  <DRUGBANK_ID>
DB07601

>  <COMMON_NAME>
4-chloro-6-{5-[(2-morpholin-4-ylethyl)amino]-1,2-benzisoxazol-3-yl}benzene-1,3-diol

$$$$
