
 OpenBabel10282417072D

 42 43  0  0  0  0  0  0  0  0999 V2000
   -0.0010   -1.5742    0.0000 C   0  0  0  0  0  0  0  0  0  0  0  0
    0.4838   -0.9067    0.0000 C   0  0  2  0  0  0  0  0  0  0  0  0
    1.3088   -0.9067    0.0000 C   0  0  2  0  0  0  0  0  0  0  0  0
    1.5637   -0.1222    0.0000 C   0  0  0  0  0  0  0  0  0  0  0  0
    0.8962    0.3627    0.0000 C   0  0  1  0  0  0  0  0  0  0  0  0
    0.2288   -0.1221    0.0000 O   0  0  0  0  0  0  0  0  0  0  0  0
    0.8962    1.1877    0.0000 N   0  0  0  0  0  0  0  0  0  0  0  0
    0.1818    1.6002    0.0000 C   0  0  0  0  0  0  0  0  0  0  0  0
   -0.5326    1.1877    0.0000 O   0  0  0  0  0  0  0  0  0  0  0  0
    0.1818    2.4252    0.0000 N   0  0  0  0  0  0  0  0  0  0  0  0
    0.8962    2.8377    0.0000 C   0  0  0  0  0  0  0  0  0  0  0  0
    0.8962    3.6627    0.0000 O   0  0  0  0  0  0  0  0  0  0  0  0
    1.6108    2.4252    0.0000 C   0  0  0  0  0  0  0  0  0  0  0  0
    2.3252    2.8377    0.0000 C   0  0  0  0  0  0  0  0  0  0  0  0
    1.6108    1.6002    0.0000 C   0  0  0  0  0  0  0  0  0  0  0  0
    1.7937   -1.5742    0.0000 N   0  0  0  0  0  0  0  0  0  0  0  0
    1.4582   -2.3279    0.0000 N   0  3  0  0  0  0  0  0  0  0  0  0
    1.1225   -3.0815    0.0000 N   0  5  0  0  0  0  0  0  0  0  0  0
   -1.5715   -2.8459    0.0000 P   0  0  0  0  0  0  0  0  0  0  0  0
   -2.3252   -3.1815    0.0000 O   0  0  0  0  0  0  0  0  0  0  0  0
   -1.2360   -3.5996    0.0000 O   0  0  0  0  0  0  0  0  0  0  0  0
   -1.9072   -2.0923    0.0000 O   0  0  0  0  0  0  0  0  0  0  0  0
   -0.8179   -2.5103    0.0000 O   0  0  0  0  0  0  0  0  0  0  0  0
   -0.1505   -2.9953    0.0000 P   0  0  3  0  0  0  0  0  0  0  0  0
    0.5170   -3.4802    0.0000 O   0  0  0  0  0  0  0  0  0  0  0  0
   -0.6354   -3.6627    0.0000 O   0  0  0  0  0  0  0  0  0  0  0  0
    0.3344   -2.3278    0.0000 O   0  0  0  0  0  0  0  0  0  0  0  0
   -1.0651   -1.4624    0.0000 H   0  0  0  0  0  0  0  0  0  0  0  0
   -0.6300   -2.4398    0.0000 H   0  0  0  0  0  0  0  0  0  0  0  0
    0.9696   -1.8600    0.0000 H   0  0  0  0  0  0  0  0  0  0  0  0
    0.8230   -1.8601    0.0000 H   0  0  0  0  0  0  0  0  0  0  0  0
    2.5813    0.2085    0.0000 H   0  0  0  0  0  0  0  0  0  0  0  0
    1.7310    0.9346    0.0000 H   0  0  0  0  0  0  0  0  0  0  0  0
    1.8496    0.8485    0.0000 H   0  0  0  0  0  0  0  0  0  0  0  0
   -0.6708    2.9174    0.0000 H   0  0  0  0  0  0  0  0  0  0  0  0
    3.2519    2.3027    0.0000 H   0  0  0  0  0  0  0  0  0  0  0  0
    2.3252    3.9077    0.0000 H   0  0  0  0  0  0  0  0  0  0  0  0
    3.2518    3.3727    0.0000 H   0  0  0  0  0  0  0  0  0  0  0  0
    2.5045    1.0842    0.0000 H   0  0  0  0  0  0  0  0  0  0  0  0
   -1.8062   -4.3843    0.0000 H   0  0  0  0  0  0  0  0  0  0  0  0
   -1.3372   -1.3074    0.0000 H   0  0  0  0  0  0  0  0  0  0  0  0
   -1.6001   -3.5613    0.0000 H   0  0  0  0  0  0  0  0  0  0  0  0
  1 27  1  0  0  0  0
  1 28  1  0  0  0  0
  1 29  1  0  0  0  0
  2  1  1  0  0  0  0
  2  3  1  0  0  0  0
  2  6  1  0  0  0  0
  2 30  1  6  0  0  0
  3  4  1  0  0  0  0
  3 16  1  0  0  0  0
  3 31  1  1  0  0  0
  4 32  1  0  0  0  0
  4 33  1  0  0  0  0
  5  4  1  0  0  0  0
  5  6  1  0  0  0  0
  5  7  1  0  0  0  0
  5 34  1  6  0  0  0
  7  8  1  0  0  0  0
  7 15  1  0  0  0  0
  8  9  2  0  0  0  0
  8 10  1  0  0  0  0
 10 11  1  0  0  0  0
 10 35  1  0  0  0  0
 11 12  2  0  0  0  0
 11 13  1  0  0  0  0
 13 14  1  0  0  0  0
 13 15  2  0  0  0  0
 14 36  1  0  0  0  0
 14 37  1  0  0  0  0
 14 38  1  0  0  0  0
 15 39  1  0  0  0  0
 16 17  2  0  0  0  0
 17 18  2  0  0  0  0
 19 20  2  0  0  0  0
 19 21  1  0  0  0  0
 19 22  1  0  0  0  0
 19 23  1  0  0  0  0
 21 40  1  0  0  0  0
 22 41  1  0  0  0  0
 23 24  1  0  0  0  0
 24 25  2  0  0  0  0
 24 26  1  0  0  0  0
 24 27  1  0  0  0  0
 26 42  1  0  0  0  0
M  CHG  2  17   1  18  -1
M  END
>  <DRUGBANK_ID>
DB04542

>  <SECONDARY_ACCESSION_NUMBERS>
EXPT00601

>  <COMMON_NAME>
Zidovudine diphosphate

>  <CAS_NUMBER>
106060-89-3

>  <UNII>
K7ZG448V5M

>  <SYNONYMS>
3'-Azido-3'-deoxythymidine 5'-diphosphate; AZTDP

$$$$
