
 OpenBabel10282417072D

 80 81  0  0  1  0  0  0  0  0999 V2000
   -2.3138   -2.9749    0.0000 C   0  0  0  0  0  0  0  0  0  0  0  0
   -2.3138   -3.7999    0.0000 C   0  0  0  0  0  0  0  0  0  0  0  0
   -1.5994   -4.2124    0.0000 C   0  0  0  0  0  0  0  0  0  0  0  0
   -1.5994   -5.0374    0.0000 C   0  0  0  0  0  0  0  0  0  0  0  0
   -0.8849   -5.4499    0.0000 C   0  0  0  0  0  0  0  0  0  0  0  0
   -0.8849   -6.2749    0.0000 C   0  0  0  0  0  0  0  0  0  0  0  0
   -0.1704   -6.6874    0.0000 C   0  0  0  0  0  0  0  0  0  0  0  0
   -0.1704   -7.5124    0.0000 C   0  0  0  0  0  0  0  0  0  0  0  0
    0.5441   -7.9249    0.0000 C   0  0  0  0  0  0  0  0  0  0  0  0
    0.5441   -8.7499    0.0000 C   0  0  0  0  0  0  0  0  0  0  0  0
    1.2585   -9.1624    0.0000 C   0  0  0  0  0  0  0  0  0  0  0  0
    1.9730   -8.7499    0.0000 C   0  0  0  0  0  0  0  0  0  0  0  0
    2.6875   -9.1624    0.0000 C   0  0  0  0  0  0  0  0  0  0  0  0
    3.4019   -8.7499    0.0000 C   0  0  0  0  0  0  0  0  0  0  0  0
    4.1164   -9.1624    0.0000 C   0  0  0  0  0  0  0  0  0  0  0  0
    4.8309   -8.7499    0.0000 C   0  0  0  0  0  0  0  0  0  0  0  0
    5.5454   -9.1624    0.0000 C   0  0  0  0  0  0  0  0  0  0  0  0
    6.2598   -8.7499    0.0000 C   0  0  0  0  0  0  0  0  0  0  0  0
    6.2598   -7.9249    0.0000 O   0  0  0  0  0  0  0  0  0  0  0  0
    6.9743   -9.1624    0.0000 O   0  0  0  0  0  0  0  0  0  0  0  0
    7.6888   -8.7499    0.0000 C   0  0  0  0  0  0  0  0  0  0  0  0
    8.4032   -9.1624    0.0000 C   0  0  1  0  0  0  0  0  0  0  0  0
    9.1569   -8.8269    0.0000 O   0  0  0  0  0  0  0  0  0  0  0  0
    9.7089   -9.4400    0.0000 C   0  0  2  0  0  0  0  0  0  0  0  0
    9.2964  -10.1544    0.0000 C   0  0  2  0  0  0  0  0  0  0  0  0
    9.6320  -10.9081    0.0000 O   0  0  0  0  0  0  0  0  0  0  0  0
    8.4895   -9.9829    0.0000 C   0  0  2  0  0  0  0  0  0  0  0  0
    7.8764  -10.5349    0.0000 O   0  0  0  0  0  0  0  0  0  0  0  0
   10.5294   -9.3537    0.0000 N   0  0  0  0  0  0  0  0  0  0  0  0
   10.9419   -8.6393    0.0000 C   0  0  0  0  0  0  0  0  0  0  0  0
   11.7489   -8.8108    0.0000 N   0  0  0  0  0  0  0  0  0  0  0  0
   11.8351   -9.6313    0.0000 C   0  0  0  0  0  0  0  0  0  0  0  0
   11.0815   -9.9668    0.0000 N   0  0  0  0  0  0  0  0  0  0  0  0
   12.5496  -10.0438    0.0000 C   0  0  0  0  0  0  0  0  0  0  0  0
   13.2641   -9.6313    0.0000 N   0  0  0  0  0  0  0  0  0  0  0  0
   12.5496  -10.8688    0.0000 O   0  0  0  0  0  0  0  0  0  0  0  0
   -1.3872   -2.4399    0.0000 H   0  0  0  0  0  0  0  0  0  0  0  0
   -3.2404   -2.4399    0.0000 H   0  0  0  0  0  0  0  0  0  0  0  0
   -2.3138   -1.9049    0.0000 H   0  0  0  0  0  0  0  0  0  0  0  0
   -3.2405   -4.3349    0.0000 H   0  0  0  0  0  0  0  0  0  0  0  0
   -2.3138   -4.8699    0.0000 H   0  0  0  0  0  0  0  0  0  0  0  0
   -0.6727   -3.6774    0.0000 H   0  0  0  0  0  0  0  0  0  0  0  0
   -0.6728   -4.7474    0.0000 H   0  0  0  0  0  0  0  0  0  0  0  0
   -2.5260   -5.5724    0.0000 H   0  0  0  0  0  0  0  0  0  0  0  0
   -1.5994   -6.1074    0.0000 H   0  0  0  0  0  0  0  0  0  0  0  0
    0.0417   -4.9149    0.0000 H   0  0  0  0  0  0  0  0  0  0  0  0
    0.0417   -5.9849    0.0000 H   0  0  0  0  0  0  0  0  0  0  0  0
   -1.8115   -6.8099    0.0000 H   0  0  0  0  0  0  0  0  0  0  0  0
   -0.8849   -7.3449    0.0000 H   0  0  0  0  0  0  0  0  0  0  0  0
    0.7562   -6.1524    0.0000 H   0  0  0  0  0  0  0  0  0  0  0  0
    0.7562   -7.2224    0.0000 H   0  0  0  0  0  0  0  0  0  0  0  0
   -1.0970   -8.0474    0.0000 H   0  0  0  0  0  0  0  0  0  0  0  0
   -0.1704   -8.5824    0.0000 H   0  0  0  0  0  0  0  0  0  0  0  0
    1.4378   -7.4089    0.0000 H   0  0  0  0  0  0  0  0  0  0  0  0
   -0.3496   -9.2659    0.0000 H   0  0  0  0  0  0  0  0  0  0  0  0
    1.2585  -10.2324    0.0000 H   0  0  0  0  0  0  0  0  0  0  0  0
    2.1851   -9.6974    0.0000 H   0  0  0  0  0  0  0  0  0  0  0  0
    1.9730   -7.6799    0.0000 H   0  0  0  0  0  0  0  0  0  0  0  0
    2.8996   -8.2149    0.0000 H   0  0  0  0  0  0  0  0  0  0  0  0
    2.6875  -10.2324    0.0000 H   0  0  0  0  0  0  0  0  0  0  0  0
    3.6142   -9.6974    0.0000 H   0  0  0  0  0  0  0  0  0  0  0  0
    3.4019   -7.6799    0.0000 H   0  0  0  0  0  0  0  0  0  0  0  0
    4.3285   -8.2149    0.0000 H   0  0  0  0  0  0  0  0  0  0  0  0
    4.1164  -10.2324    0.0000 H   0  0  0  0  0  0  0  0  0  0  0  0
    5.0430   -9.6974    0.0000 H   0  0  0  0  0  0  0  0  0  0  0  0
    4.8309   -7.6799    0.0000 H   0  0  0  0  0  0  0  0  0  0  0  0
    5.7575   -8.2149    0.0000 H   0  0  0  0  0  0  0  0  0  0  0  0
    5.5454  -10.2324    0.0000 H   0  0  0  0  0  0  0  0  0  0  0  0
    6.4721   -9.6974    0.0000 H   0  0  0  0  0  0  0  0  0  0  0  0
    7.6888   -7.6799    0.0000 H   0  0  0  0  0  0  0  0  0  0  0  0
    8.6155   -8.2149    0.0000 H   0  0  0  0  0  0  0  0  0  0  0  0
    8.4593   -8.0939    0.0000 H   0  0  0  0  0  0  0  0  0  0  0  0
   10.0923   -8.4411    0.0000 H   0  0  0  0  0  0  0  0  0  0  0  0
   10.3649  -10.2104    0.0000 H   0  0  0  0  0  0  0  0  0  0  0  0
    9.0619  -11.6929    0.0000 H   0  0  0  0  0  0  0  0  0  0  0  0
    8.7664  -11.0164    0.0000 H   0  0  0  0  0  0  0  0  0  0  0  0
    6.9539  -10.2351    0.0000 H   0  0  0  0  0  0  0  0  0  0  0  0
   10.5221   -7.6965    0.0000 H   0  0  0  0  0  0  0  0  0  0  0  0
   14.1167  -10.1236    0.0000 H   0  0  0  0  0  0  0  0  0  0  0  0
   13.2641   -8.6468    0.0000 H   0  0  0  0  0  0  0  0  0  0  0  0
  1  2  1  0  0  0  0
  1 37  1  0  0  0  0
  1 38  1  0  0  0  0
  1 39  1  0  0  0  0
  2  3  1  0  0  0  0
  2 40  1  0  0  0  0
  2 41  1  0  0  0  0
  3  4  1  0  0  0  0
  3 42  1  0  0  0  0
  3 43  1  0  0  0  0
  4  5  1  0  0  0  0
  4 44  1  0  0  0  0
  4 45  1  0  0  0  0
  5  6  1  0  0  0  0
  5 46  1  0  0  0  0
  5 47  1  0  0  0  0
  6  7  1  0  0  0  0
  6 48  1  0  0  0  0
  6 49  1  0  0  0  0
  7  8  1  0  0  0  0
  7 50  1  0  0  0  0
  7 51  1  0  0  0  0
  8  9  1  0  0  0  0
  8 52  1  0  0  0  0
  8 53  1  0  0  0  0
  9 10  2  0  0  0  0
  9 54  1  0  0  0  0
 10 11  1  0  0  0  0
 10 55  1  0  0  0  0
 11 12  1  0  0  0  0
 11 56  1  0  0  0  0
 11 57  1  0  0  0  0
 12 13  1  0  0  0  0
 12 58  1  0  0  0  0
 12 59  1  0  0  0  0
 13 14  1  0  0  0  0
 13 60  1  0  0  0  0
 13 61  1  0  0  0  0
 14 15  1  0  0  0  0
 14 62  1  0  0  0  0
 14 63  1  0  0  0  0
 15 16  1  0  0  0  0
 15 64  1  0  0  0  0
 15 65  1  0  0  0  0
 16 17  1  0  0  0  0
 16 66  1  0  0  0  0
 16 67  1  0  0  0  0
 17 18  1  0  0  0  0
 17 68  1  0  0  0  0
 17 69  1  0  0  0  0
 18 19  2  0  0  0  0
 18 20  1  0  0  0  0
 20 21  1  0  0  0  0
 21 70  1  0  0  0  0
 21 71  1  0  0  0  0
 22 21  1  0  0  0  0
 22 23  1  0  0  0  0
 22 72  1  6  0  0  0
 24 23  1  0  0  0  0
 24 29  1  0  0  0  0
 24 73  1  6  0  0  0
 25 24  1  0  0  0  0
 25 26  1  0  0  0  0
 25 27  1  0  0  0  0
 25 74  1  1  0  0  0
 26 75  1  0  0  0  0
 27 22  1  0  0  0  0
 27 28  1  0  0  0  0
 27 76  1  1  0  0  0
 28 77  1  0  0  0  0
 29 30  1  0  0  0  0
 29 33  1  0  0  0  0
 30 31  2  0  0  0  0
 30 78  1  0  0  0  0
 31 32  1  0  0  0  0
 32 33  2  0  0  0  0
 32 34  1  0  0  0  0
 34 35  1  0  0  0  0
 34 36  2  0  0  0  0
 35 79  1  0  0  0  0
 35 80  1  0  0  0  0
M  END
>  <DRUGBANK_ID>
DB17193

>  <COMMON_NAME>
Ribavirin elaidate

>  <CAS_NUMBER>
1352921-29-9

>  <UNII>
4LU13X0I13

>  <SYNONYMS>
1h-1,2,4-triazole-3-carboxamide, 1-(5-o-((9e)-1-oxo-9-octadecen-1-yl)-.beta.-d-ribofuranosyl)-; Ribavirin-5'-elaidic acid ester

$$$$
