
 OpenBabel10282417072D

 66 69  0  0  1  0  0  0  0  0999 V2000
    5.4957    2.6021    0.0000 C   0  0  0  0  0  0  0  0  0  0  0  0
    2.6378    0.9521    0.0000 C   0  0  0  0  0  0  0  0  0  0  0  0
   -0.9851    1.8818    0.0000 C   0  0  0  0  0  0  0  0  0  0  0  0
    0.3739    2.3234    0.0000 C   0  0  0  0  0  0  0  0  0  0  0  0
    0.8838   -2.1500    0.0000 C   0  0  0  0  0  0  0  0  0  0  0  0
    5.4957    3.4271    0.0000 C   0  0  0  0  0  0  0  0  0  0  0  0
    4.7812    4.6646    0.0000 C   0  0  0  0  0  0  0  0  0  0  0  0
    6.2102    3.8396    0.0000 C   0  0  0  0  0  0  0  0  0  0  0  0
    5.4957    5.0771    0.0000 C   0  0  0  0  0  0  0  0  0  0  0  0
    2.6378    0.1271    0.0000 C   0  0  0  0  0  0  0  0  0  0  0  0
    2.6378   -1.5229    0.0000 C   0  0  0  0  0  0  0  0  0  0  0  0
    3.3523    2.1896    0.0000 C   0  0  0  0  0  0  0  0  0  0  0  0
    4.7812    1.3646    0.0000 C   0  0  0  0  0  0  0  0  0  0  0  0
    4.0668    3.4271    0.0000 C   0  0  0  0  0  0  0  0  0  0  0  0
    0.6538   -0.6979    0.0000 C   0  0  0  0  0  0  0  0  0  0  0  0
    4.7812    2.1896    0.0000 C   0  0  1  0  0  0  0  0  0  0  0  0
    3.3523    1.3646    0.0000 C   0  0  2  0  0  0  0  0  0  0  0  0
    4.7812    3.8396    0.0000 C   0  0  0  0  0  0  0  0  0  0  0  0
    6.2102    4.6646    0.0000 C   0  0  0  0  0  0  0  0  0  0  0  0
    1.9233   -0.2854    0.0000 C   0  0  0  0  0  0  0  0  0  0  0  0
    3.3523   -0.2854    0.0000 C   0  0  0  0  0  0  0  0  0  0  0  0
    1.1387   -0.0305    0.0000 C   0  0  0  0  0  0  0  0  0  0  0  0
    3.3523   -1.1104    0.0000 C   0  0  0  0  0  0  0  0  0  0  0  0
    1.9233   -1.1104    0.0000 C   0  0  0  0  0  0  0  0  0  0  0  0
    0.8838    0.7541    0.0000 C   0  0  0  0  0  0  0  0  0  0  0  0
    4.0668    0.1271    0.0000 C   0  0  0  0  0  0  0  0  0  0  0  0
    0.0768    0.9256    0.0000 C   0  0  0  0  0  0  0  0  0  0  0  0
    4.0668   -1.5229    0.0000 Cl  0  0  0  0  0  0  0  0  0  0  0  0
    6.9246    5.0771    0.0000 F   0  0  0  0  0  0  0  0  0  0  0  0
   -0.1781    1.7103    0.0000 N   0  0  0  0  0  0  0  0  0  0  0  0
    1.1387   -1.3654    0.0000 N   0  0  0  0  0  0  0  0  0  0  0  0
    4.0668    2.6021    0.0000 N   0  0  0  0  0  0  0  0  0  0  0  0
    4.0668    0.9521    0.0000 N   0  0  0  0  0  0  0  0  0  0  0  0
    1.4358    1.3672    0.0000 O   0  0  0  0  0  0  0  0  0  0  0  0
    4.7812   -0.2854    0.0000 O   0  0  0  0  0  0  0  0  0  0  0  0
   -0.4752    0.3126    0.0000 O   0  0  0  0  0  0  0  0  0  0  0  0
    5.4957    1.7771    0.0000 H   0  0  0  0  0  0  0  0  0  0  0  0
    2.6378    1.7771    0.0000 H   0  0  0  0  0  0  0  0  0  0  0  0
    6.4223    2.0671    0.0000 H   0  0  0  0  0  0  0  0  0  0  0  0
    5.4957    3.6721    0.0000 H   0  0  0  0  0  0  0  0  0  0  0  0
    6.4224    3.1371    0.0000 H   0  0  0  0  0  0  0  0  0  0  0  0
    1.7112    1.4871    0.0000 H   0  0  0  0  0  0  0  0  0  0  0  0
    2.6378   -0.1179    0.0000 H   0  0  0  0  0  0  0  0  0  0  0  0
    1.7111    0.4171    0.0000 H   0  0  0  0  0  0  0  0  0  0  0  0
   -1.3158    2.8994    0.0000 H   0  0  0  0  0  0  0  0  0  0  0  0
   -1.7010    1.0866    0.0000 H   0  0  0  0  0  0  0  0  0  0  0  0
   -2.0317    2.1042    0.0000 H   0  0  0  0  0  0  0  0  0  0  0  0
    1.4205    2.1010    0.0000 H   0  0  0  0  0  0  0  0  0  0  0  0
    0.0432    3.3410    0.0000 H   0  0  0  0  0  0  0  0  0  0  0  0
    1.0898    3.1186    0.0000 H   0  0  0  0  0  0  0  0  0  0  0  0
   -0.1628   -2.3725    0.0000 H   0  0  0  0  0  0  0  0  0  0  0  0
    1.5998   -2.9451    0.0000 H   0  0  0  0  0  0  0  0  0  0  0  0
    0.5532   -3.1676    0.0000 H   0  0  0  0  0  0  0  0  0  0  0  0
    5.4957    2.3951    0.0000 H   0  0  0  0  0  0  0  0  0  0  0  0
    3.8875    5.1806    0.0000 H   0  0  0  0  0  0  0  0  0  0  0  0
    7.1039    3.3236    0.0000 H   0  0  0  0  0  0  0  0  0  0  0  0
    5.4957    6.1091    0.0000 H   0  0  0  0  0  0  0  0  0  0  0  0
    2.6378    1.1591    0.0000 H   0  0  0  0  0  0  0  0  0  0  0  0
    2.6378   -2.5549    0.0000 H   0  0  0  0  0  0  0  0  0  0  0  0
    2.4257    2.7246    0.0000 H   0  0  0  0  0  0  0  0  0  0  0  0
    3.3523    3.2596    0.0000 H   0  0  0  0  0  0  0  0  0  0  0  0
    5.7079    0.8296    0.0000 H   0  0  0  0  0  0  0  0  0  0  0  0
    4.7812    0.2946    0.0000 H   0  0  0  0  0  0  0  0  0  0  0  0
    3.1401    3.9621    0.0000 H   0  0  0  0  0  0  0  0  0  0  0  0
    3.1402    2.8921    0.0000 H   0  0  0  0  0  0  0  0  0  0  0  0
   -0.3782   -0.6979    0.0000 H   0  0  0  0  0  0  0  0  0  0  0  0
  1 39  1  0  0  0  0
  1 40  1  0  0  0  0
  1 41  1  0  0  0  0
  2 42  1  0  0  0  0
  2 43  1  0  0  0  0
  2 44  1  0  0  0  0
  3 45  1  0  0  0  0
  3 46  1  0  0  0  0
  3 47  1  0  0  0  0
  4 48  1  0  0  0  0
  4 49  1  0  0  0  0
  4 50  1  0  0  0  0
  5 51  1  0  0  0  0
  5 52  1  0  0  0  0
  5 53  1  0  0  0  0
  6 54  1  0  0  0  0
  7 55  1  0  0  0  0
  8  6  1  0  0  0  0
  8 56  1  0  0  0  0
  9  7  2  0  0  0  0
  9 57  1  0  0  0  0
 10 58  1  0  0  0  0
 11 59  1  0  0  0  0
 12 60  1  0  0  0  0
 12 61  1  0  0  0  0
 13 62  1  0  0  0  0
 13 63  1  0  0  0  0
 14 64  1  0  0  0  0
 14 65  1  0  0  0  0
 15 66  1  0  0  0  0
 16  1  1  0  0  0  0
 16 13  1  0  0  0  0
 16 37  1  6  0  0  0
 17  2  1  0  0  0  0
 17 12  1  0  0  0  0
 17 38  1  1  0  0  0
 18  6  2  0  0  0  0
 18  7  1  0  0  0  0
 18 14  1  0  0  0  0
 19  8  2  0  0  0  0
 19  9  1  0  0  0  0
 20 10  2  0  0  0  0
 21 10  1  0  0  0  0
 22 15  2  0  0  0  0
 22 20  1  0  0  0  0
 23 11  1  0  0  0  0
 23 21  2  0  0  0  0
 24 11  2  0  0  0  0
 24 20  1  0  0  0  0
 25 22  1  0  0  0  0
 26 21  1  0  0  0  0
 27 25  1  0  0  0  0
 28 23  1  0  0  0  0
 29 19  1  0  0  0  0
 30  3  1  0  0  0  0
 30  4  1  0  0  0  0
 30 27  1  0  0  0  0
 31  5  1  0  0  0  0
 31 15  1  0  0  0  0
 31 24  1  0  0  0  0
 32 12  1  0  0  0  0
 32 14  1  0  0  0  0
 32 16  1  0  0  0  0
 33 13  1  0  0  0  0
 33 17  1  0  0  0  0
 33 26  1  0  0  0  0
 34 25  2  0  0  0  0
 35 26  2  0  0  0  0
 36 27  2  0  0  0  0
M  END
>  <DRUGBANK_ID>
DB05412

>  <COMMON_NAME>
Talmapimod

>  <CAS_NUMBER>
309913-83-5

>  <UNII>
B1E00KQ6NT

>  <SYNONYMS>
Talmapimod

$$$$
