
 OpenBabel10282417072D

 50 53  0  0  0  0  0  0  0  0999 V2000
   -1.6414    1.7912    0.0000 C   0  0  0  0  0  0  0  0  0  0  0  0
   -3.0201    1.4462    0.0000 C   0  0  0  0  0  0  0  0  0  0  0  0
   -0.4537   -0.9552    0.0000 C   0  0  0  0  0  0  0  0  0  0  0  0
    0.3103   -1.2661    0.0000 C   0  0  0  0  0  0  0  0  0  0  0  0
    1.5002    0.5638    0.0000 C   0  0  0  0  0  0  0  0  0  0  0  0
    2.2643    0.2528    0.0000 C   0  0  0  0  0  0  0  0  0  0  0  0
   -0.0281    1.1856    0.0000 C   0  0  0  0  0  0  0  0  0  0  0  0
   -2.0732   -0.1869    0.0000 C   0  0  0  0  0  0  0  0  0  0  0  0
   -0.7923    1.4965    0.0000 C   0  0  0  0  0  0  0  0  0  0  0  0
   -2.6449    0.4079    0.0000 C   0  0  0  0  0  0  0  0  0  0  0  0
    0.8488    0.0573    0.0000 C   0  0  2  0  0  0  0  0  0  0  0  0
    0.0846    0.3684    0.0000 C   0  0  2  0  0  0  0  0  0  0  0  0
   -0.5666   -0.1380    0.0000 C   0  0  2  0  0  0  0  0  0  0  0  0
    0.9616   -0.7597    0.0000 C   0  0  0  0  0  0  0  0  0  0  0  0
   -1.3309    0.1729    0.0000 C   0  0  1  0  0  0  0  0  0  0  0  0
    2.3772   -0.5643    0.0000 C   0  0  0  0  0  0  0  0  0  0  0  0
    1.7259   -1.0706    0.0000 C   0  0  0  0  0  0  0  0  0  0  0  0
   -1.4438    0.9901    0.0000 C   0  0  2  0  0  0  0  0  0  0  0  0
   -2.2558    1.1353    0.0000 C   0  0  2  0  0  0  0  0  0  0  0  0
    3.1415   -0.8751    0.0000 O   0  0  0  0  0  0  0  0  0  0  0  0
    1.8388   -1.8880    0.0000 O   0  0  0  0  0  0  0  0  0  0  0  0
   -2.0266    1.9279    0.0000 O   0  0  0  0  0  0  0  0  0  0  0  0
    1.6130   -0.2535    0.0000 H   0  0  0  0  0  0  0  0  0  0  0  0
    0.7359    0.8747    0.0000 H   0  0  0  0  0  0  0  0  0  0  0  0
   -0.6794    0.6792    0.0000 H   0  0  0  0  0  0  0  0  0  0  0  0
   -1.3040   -0.6517    0.0000 H   0  0  0  0  0  0  0  0  0  0  0  0
   -0.8698    2.5325    0.0000 H   0  0  0  0  0  0  0  0  0  0  0  0
   -2.6692    2.0887    0.0000 H   0  0  0  0  0  0  0  0  0  0  0  0
   -1.8976    2.8301    0.0000 H   0  0  0  0  0  0  0  0  0  0  0  0
   -3.1665    2.5061    0.0000 H   0  0  0  0  0  0  0  0  0  0  0  0
   -3.8648    0.7894    0.0000 H   0  0  0  0  0  0  0  0  0  0  0  0
   -4.0112    1.8494    0.0000 H   0  0  0  0  0  0  0  0  0  0  0  0
   -1.2985   -1.6119    0.0000 H   0  0  0  0  0  0  0  0  0  0  0  0
   -1.4448   -0.5520    0.0000 H   0  0  0  0  0  0  0  0  0  0  0  0
    0.4566   -2.3260    0.0000 H   0  0  0  0  0  0  0  0  0  0  0  0
    1.3014   -1.6693    0.0000 H   0  0  0  0  0  0  0  0  0  0  0  0
    1.3539    1.6237    0.0000 H   0  0  0  0  0  0  0  0  0  0  0  0
    0.5091    0.9670    0.0000 H   0  0  0  0  0  0  0  0  0  0  0  0
    3.1091    0.9095    0.0000 H   0  0  0  0  0  0  0  0  0  0  0  0
    3.2554   -0.1504    0.0000 H   0  0  0  0  0  0  0  0  0  0  0  0
    0.8167    1.8423    0.0000 H   0  0  0  0  0  0  0  0  0  0  0  0
    0.9630    0.7823    0.0000 H   0  0  0  0  0  0  0  0  0  0  0  0
   -2.2615   -1.2402    0.0000 H   0  0  0  0  0  0  0  0  0  0  0  0
   -1.2202   -0.8329    0.0000 H   0  0  0  0  0  0  0  0  0  0  0  0
   -0.9386    2.5564    0.0000 H   0  0  0  0  0  0  0  0  0  0  0  0
   -1.7834    1.8998    0.0000 H   0  0  0  0  0  0  0  0  0  0  0  0
   -3.7048    0.2616    0.0000 H   0  0  0  0  0  0  0  0  0  0  0  0
   -3.2565    1.2859    0.0000 H   0  0  0  0  0  0  0  0  0  0  0  0
    1.0991   -2.4631    0.0000 H   0  0  0  0  0  0  0  0  0  0  0  0
   -1.0849    2.1605    0.0000 H   0  0  0  0  0  0  0  0  0  0  0  0
  1 27  1  0  0  0  0
  1 28  1  0  0  0  0
  1 29  1  0  0  0  0
  2 30  1  0  0  0  0
  2 31  1  0  0  0  0
  2 32  1  0  0  0  0
  3 33  1  0  0  0  0
  3 34  1  0  0  0  0
  4  3  1  0  0  0  0
  4 35  1  0  0  0  0
  4 36  1  0  0  0  0
  5 37  1  0  0  0  0
  5 38  1  0  0  0  0
  6  5  1  0  0  0  0
  6 39  1  0  0  0  0
  6 40  1  0  0  0  0
  7 41  1  0  0  0  0
  7 42  1  0  0  0  0
  8 43  1  0  0  0  0
  8 44  1  0  0  0  0
  9  7  1  0  0  0  0
  9 45  1  0  0  0  0
  9 46  1  0  0  0  0
 10  8  1  0  0  0  0
 10 47  1  0  0  0  0
 10 48  1  0  0  0  0
 11  5  1  0  0  0  0
 11 23  1  6  0  0  0
 12  7  1  0  0  0  0
 12 11  1  0  0  0  0
 12 24  1  1  0  0  0
 13  3  1  0  0  0  0
 13 12  1  0  0  0  0
 13 25  1  6  0  0  0
 14  4  1  0  0  0  0
 14 11  1  0  0  0  0
 15  8  1  0  0  0  0
 15 13  1  0  0  0  0
 15 26  1  1  0  0  0
 16  6  1  0  0  0  0
 17 14  2  0  0  0  0
 17 16  1  0  0  0  0
 18  1  1  6  0  0  0
 18  9  1  0  0  0  0
 18 15  1  0  0  0  0
 19  2  1  0  0  0  0
 19 10  1  0  0  0  0
 19 18  1  0  0  0  0
 19 22  1  6  0  0  0
 20 16  2  0  0  0  0
 21 17  1  0  0  0  0
 21 49  1  0  0  0  0
 22 50  1  0  0  0  0
M  END
>  <DRUGBANK_ID>
DB01540

>  <COMMON_NAME>
17alpha-methyl-4-hydroxynandrolone

>  <CAS_NUMBER>
2747-16-2

>  <UNII>
AL9HUA7C4C

>  <SYNONYMS>
17Î±-Methyl-4-hydroxynandrolone; 4-Hydroxy-19-normethyltestosterone

$$$$
