
 OpenBabel10282417072D

 67 71  0  0  1  0  0  0  0  0999 V2000
    6.3494   -2.9062    0.0000 O   0  0  0  0  0  0  0  0  0  0  0  0
    4.7695   -0.5222    0.0000 O   0  0  0  0  0  0  0  0  0  0  0  0
    4.8823   -1.0984    0.0000 O   0  0  0  0  0  0  0  0  0  0  0  0
    1.6500    0.9800    0.0000 O   0  0  0  0  0  0  0  0  0  0  0  0
    5.8478   -1.5242    0.0000 O   0  0  0  0  0  0  0  0  0  0  0  0
    6.3993   -4.3755    0.0000 O   0  0  0  0  0  0  0  0  0  0  0  0
    4.7944    2.3731    0.0000 O   0  0  0  0  0  0  0  0  0  0  0  0
    3.3812   -0.3658    0.0000 N   0  0  0  0  0  0  0  0  0  0  0  0
    2.6379   -0.0079    0.0000 N   0  0  0  0  0  0  0  0  0  0  0  0
    4.2772   -2.3929    0.0000 N   0  0  0  0  0  0  0  0  0  0  0  0
    5.1124    0.9800    0.0000 N   0  0  0  0  0  0  0  0  0  0  0  0
    6.7211    1.3472    0.0000 N   0  0  0  0  0  0  0  0  0  0  0  0
    3.4587   -1.2217    0.0000 C   0  0  1  0  0  0  0  0  0  0  0  0
    2.7524   -1.7112    0.0000 C   0  0  0  0  0  0  0  0  0  0  0  0
    1.9781   -1.3384    0.0000 C   0  0  0  0  0  0  0  0  0  0  0  0
    1.9205   -0.4810    0.0000 C   0  0  0  0  0  0  0  0  0  0  0  0
    4.3081    0.7965    0.0000 C   0  0  2  0  0  0  0  0  0  0  0  0
    4.1245   -0.0079    0.0000 C   0  0  0  0  0  0  0  0  0  0  0  0
    3.7937    1.4415    0.0000 C   0  0  0  0  0  0  0  0  0  0  0  0
    4.2060   -1.5711    0.0000 C   0  0  0  0  0  0  0  0  0  0  0  0
    2.9687    1.4415    0.0000 C   0  0  0  0  0  0  0  0  0  0  0  0
    2.4543    0.7965    0.0000 C   0  0  0  0  0  0  0  0  0  0  0  0
    5.0246   -2.7423    0.0000 C   0  0  2  0  0  0  0  0  0  0  0  0
    5.7465   -2.3430    0.0000 C   0  0  1  0  0  0  0  0  0  0  0  0
    5.1813   -3.5523    0.0000 C   0  0  0  0  0  0  0  0  0  0  0  0
    6.0000   -3.6535    0.0000 C   0  0  0  0  0  0  0  0  0  0  0  0
    5.3556    1.7684    0.0000 C   0  0  0  0  0  0  0  0  0  0  0  0
    6.6076   -1.2025    0.0000 C   0  0  0  0  0  0  0  0  0  0  0  0
    6.1599    1.9520    0.0000 C   0  0  0  0  0  0  0  0  0  0  0  0
    6.4031    2.7403    0.0000 C   0  0  0  0  0  0  0  0  0  0  0  0
    7.2659   -1.6997    0.0000 C   0  0  0  0  0  0  0  0  0  0  0  0
    7.2074    2.9239    0.0000 C   0  0  0  0  0  0  0  0  0  0  0  0
    5.8090    3.3612    0.0000 C   0  0  0  0  0  0  0  0  0  0  0  0
    7.7686    2.3191    0.0000 C   0  0  0  0  0  0  0  0  0  0  0  0
    7.5254    1.5308    0.0000 C   0  0  0  0  0  0  0  0  0  0  0  0
    7.4733    3.7411    0.0000 C   0  0  0  0  0  0  0  0  0  0  0  0
    6.0559    4.1843    0.0000 C   0  0  0  0  0  0  0  0  0  0  0  0
    6.8938    4.3755    0.0000 C   0  0  0  0  0  0  0  0  0  0  0  0
    3.4702   -2.9569    0.0000 H   0  0  0  0  0  0  0  0  0  0  0  0
    5.7820    0.2583    0.0000 H   0  0  0  0  0  0  0  0  0  0  0  0
    4.3346   -0.6071    0.0000 H   0  0  0  0  0  0  0  0  0  0  0  0
    2.8365   -2.7779    0.0000 H   0  0  0  0  0  0  0  0  0  0  0  0
    1.8695   -2.3157    0.0000 H   0  0  0  0  0  0  0  0  0  0  0  0
    1.0917   -1.9378    0.0000 H   0  0  0  0  0  0  0  0  0  0  0  0
    1.0168   -0.8686    0.0000 H   0  0  0  0  0  0  0  0  0  0  0  0
    0.9619   -0.0056    0.0000 H   0  0  0  0  0  0  0  0  0  0  0  0
    1.0307   -1.0752    0.0000 H   0  0  0  0  0  0  0  0  0  0  0  0
    5.0647    0.0399    0.0000 H   0  0  0  0  0  0  0  0  0  0  0  0
    4.2579    2.4055    0.0000 H   0  0  0  0  0  0  0  0  0  0  0  0
    3.2244    2.3475    0.0000 H   0  0  0  0  0  0  0  0  0  0  0  0
    2.5045    2.4055    0.0000 H   0  0  0  0  0  0  0  0  0  0  0  0
    1.9054    1.5613    0.0000 H   0  0  0  0  0  0  0  0  0  0  0  0
    4.9883   -1.6729    0.0000 H   0  0  0  0  0  0  0  0  0  0  0  0
    6.7523   -1.9779    0.0000 H   0  0  0  0  0  0  0  0  0  0  0  0
    4.4509   -4.3342    0.0000 H   0  0  0  0  0  0  0  0  0  0  0  0
    5.5464   -4.5581    0.0000 H   0  0  0  0  0  0  0  0  0  0  0  0
    6.7391   -0.1406    0.0000 H   0  0  0  0  0  0  0  0  0  0  0  0
    7.5930   -0.7855    0.0000 H   0  0  0  0  0  0  0  0  0  0  0  0
    7.1343   -2.7616    0.0000 H   0  0  0  0  0  0  0  0  0  0  0  0
    8.2513   -1.2827    0.0000 H   0  0  0  0  0  0  0  0  0  0  0  0
    8.1197   -2.3446    0.0000 H   0  0  0  0  0  0  0  0  0  0  0  0
    4.8056    3.1199    0.0000 H   0  0  0  0  0  0  0  0  0  0  0  0
    8.7747    2.5487    0.0000 H   0  0  0  0  0  0  0  0  0  0  0  0
    8.2273    0.7743    0.0000 H   0  0  0  0  0  0  0  0  0  0  0  0
    8.4820    3.9591    0.0000 H   0  0  0  0  0  0  0  0  0  0  0  0
    5.3510    4.9381    0.0000 H   0  0  0  0  0  0  0  0  0  0  0  0
    7.2019    5.3605    0.0000 H   0  0  0  0  0  0  0  0  0  0  0  0
  1 24  1  0  0  0  0
  1 26  1  0  0  0  0
  2 18  2  0  0  0  0
  3 20  2  0  0  0  0
  4 22  2  0  0  0  0
  5 28  1  0  0  0  0
  6 26  2  0  0  0  0
  7 27  2  0  0  0  0
  8  9  1  0  0  0  0
  8 13  1  0  0  0  0
  8 18  1  0  0  0  0
  9 16  1  0  0  0  0
  9 22  1  0  0  0  0
 10 20  1  0  0  0  0
 10 39  1  0  0  0  0
 11 27  1  0  0  0  0
 11 40  1  0  0  0  0
 12 29  2  0  0  0  0
 12 35  1  0  0  0  0
 13 14  1  0  0  0  0
 13 20  1  0  0  0  0
 13 41  1  1  0  0  0
 14 15  1  0  0  0  0
 14 42  1  0  0  0  0
 14 43  1  0  0  0  0
 15 16  1  0  0  0  0
 15 44  1  0  0  0  0
 15 45  1  0  0  0  0
 16 46  1  0  0  0  0
 16 47  1  0  0  0  0
 17 11  1  0  0  0  0
 17 18  1  0  0  0  0
 17 19  1  0  0  0  0
 17 48  1  1  0  0  0
 19 21  1  0  0  0  0
 19 49  1  0  0  0  0
 19 50  1  0  0  0  0
 21 22  1  0  0  0  0
 21 51  1  0  0  0  0
 21 52  1  0  0  0  0
 23 10  1  0  0  0  0
 23 24  1  0  0  0  0
 23 25  1  0  0  0  0
 23 53  1  1  0  0  0
 24  5  1  0  0  0  0
 24 54  1  1  0  0  0
 25 26  1  0  0  0  0
 25 55  1  0  0  0  0
 25 56  1  0  0  0  0
 27 29  1  0  0  0  0
 28 31  1  0  0  0  0
 28 57  1  0  0  0  0
 28 58  1  0  0  0  0
 29 30  1  0  0  0  0
 30 32  1  0  0  0  0
 30 33  2  0  0  0  0
 31 59  1  0  0  0  0
 31 60  1  0  0  0  0
 31 61  1  0  0  0  0
 32 34  1  0  0  0  0
 32 36  2  0  0  0  0
 33 37  1  0  0  0  0
 33 62  1  0  0  0  0
 34 35  2  0  0  0  0
 34 63  1  0  0  0  0
 35 64  1  0  0  0  0
 36 38  1  0  0  0  0
 36 65  1  0  0  0  0
 37 38  2  0  0  0  0
 37 66  1  0  0  0  0
 38 67  1  0  0  0  0
M  END
>  <DRUGBANK_ID>
DB04875

>  <COMMON_NAME>
Pralnacasan

>  <CAS_NUMBER>
192755-52-5

>  <UNII>
N986NI319S

>  <SYNONYMS>
Pralnacasan

$$$$
