TPX
 OpenBabel10282417072D

 40 40  0  0  0  0  0  0  0  0999 V2000
    2.2704    0.5351    0.0000 C   0  0  0  0  0  0  0  0  0  0  0  0
    2.2704   -0.2899    0.0000 C   0  0  2  0  0  0  0  0  0  0  0  0
    1.5559   -0.7024    0.0000 C   0  0  2  0  0  0  0  0  0  0  0  0
    1.5559   -1.5274    0.0000 C   0  0  0  0  0  0  0  0  0  0  0  0
    2.9848   -0.7024    0.0000 C   0  0  0  0  0  0  0  0  0  0  0  0
    3.6993   -0.2899    0.0000 C   0  0  0  0  0  0  0  0  0  0  0  0
    2.9848    0.9476    0.0000 O   0  0  0  0  0  0  0  0  0  0  0  0
    0.8414   -1.9399    0.0000 O   0  0  0  0  0  0  0  0  0  0  0  0
    2.2704   -1.9399    0.0000 O   0  0  0  0  0  0  0  0  0  0  0  0
    0.8414   -0.2899    0.0000 C   0  0  0  0  0  0  0  0  0  0  0  0
    0.1270   -0.7024    0.0000 N   0  0  0  0  0  0  0  0  0  0  0  0
   -0.1750    0.4246    0.0000 O   0  0  0  0  0  0  0  0  0  0  0  0
   -1.0000   -1.0043    0.0000 O   0  0  0  0  0  0  0  0  0  0  0  0
   -0.5875   -0.2899    0.0000 S   0  0  0  0  0  0  0  0  0  0  0  0
   -1.3020    0.1226    0.0000 C   0  0  0  0  0  0  0  0  0  0  0  0
   -2.0165   -0.2899    0.0000 C   0  0  0  0  0  0  0  0  0  0  0  0
   -1.3020    0.9476    0.0000 C   0  0  0  0  0  0  0  0  0  0  0  0
   -2.7309    0.1226    0.0000 C   0  0  0  0  0  0  0  0  0  0  0  0
   -2.0165    1.3601    0.0000 C   0  0  0  0  0  0  0  0  0  0  0  0
   -2.7309    0.9476    0.0000 C   0  0  0  0  0  0  0  0  0  0  0  0
   -3.4454    1.3601    0.0000 C   0  0  0  0  0  0  0  0  0  0  0  0
    1.7647    0.0021    0.0000 H   0  0  0  0  0  0  0  0  0  0  0  0
    2.0616   -0.9943    0.0000 H   0  0  0  0  0  0  0  0  0  0  0  0
    1.3767    1.0511    0.0000 H   0  0  0  0  0  0  0  0  0  0  0  0
    2.9848   -1.7724    0.0000 H   0  0  0  0  0  0  0  0  0  0  0  0
    3.9114   -1.2374    0.0000 H   0  0  0  0  0  0  0  0  0  0  0  0
    4.6259   -0.8249    0.0000 H   0  0  0  0  0  0  0  0  0  0  0  0
    3.6993    0.7801    0.0000 H   0  0  0  0  0  0  0  0  0  0  0  0
    4.6260    0.2451    0.0000 H   0  0  0  0  0  0  0  0  0  0  0  0
    0.0299   -1.4714    0.0000 H   0  0  0  0  0  0  0  0  0  0  0  0
    0.8414    0.7801    0.0000 H   0  0  0  0  0  0  0  0  0  0  0  0
   -0.0853    0.2451    0.0000 H   0  0  0  0  0  0  0  0  0  0  0  0
    0.1270   -1.7224    0.0000 H   0  0  0  0  0  0  0  0  0  0  0  0
   -2.0165   -1.3219    0.0000 H   0  0  0  0  0  0  0  0  0  0  0  0
   -0.4083    1.4636    0.0000 H   0  0  0  0  0  0  0  0  0  0  0  0
   -3.6246   -0.3934    0.0000 H   0  0  0  0  0  0  0  0  0  0  0  0
   -2.0165    2.3921    0.0000 H   0  0  0  0  0  0  0  0  0  0  0  0
   -3.4454    2.4301    0.0000 H   0  0  0  0  0  0  0  0  0  0  0  0
   -4.3720    0.8251    0.0000 H   0  0  0  0  0  0  0  0  0  0  0  0
   -4.3721    1.8951    0.0000 H   0  0  0  0  0  0  0  0  0  0  0  0
  1  2  1  0  0  0  0
  1  7  2  0  0  0  0
  1 24  1  0  0  0  0
  2  3  1  0  0  0  0
  2  5  1  0  0  0  0
  2 22  1  6  0  0  0
  3  4  1  0  0  0  0
  3 10  1  0  0  0  0
  3 23  1  1  0  0  0
  4  8  1  0  0  0  0
  4  9  2  0  0  0  0
  5  6  1  0  0  0  0
  5 25  1  0  0  0  0
  5 26  1  0  0  0  0
  6 27  1  0  0  0  0
  6 28  1  0  0  0  0
  6 29  1  0  0  0  0
  8 30  1  0  0  0  0
 10 11  1  0  0  0  0
 10 31  1  0  0  0  0
 10 32  1  0  0  0  0
 11 14  1  0  0  0  0
 11 33  1  0  0  0  0
 12 14  2  0  0  0  0
 13 14  2  0  0  0  0
 14 15  1  0  0  0  0
 15 16  2  0  0  0  0
 15 17  1  0  0  0  0
 16 18  1  0  0  0  0
 16 34  1  0  0  0  0
 17 19  2  0  0  0  0
 17 35  1  0  0  0  0
 18 20  2  0  0  0  0
 18 36  1  0  0  0  0
 19 20  1  0  0  0  0
 19 37  1  0  0  0  0
 20 21  1  0  0  0  0
 21 38  1  0  0  0  0
 21 39  1  0  0  0  0
 21 40  1  0  0  0  0
M  END
>  <DRUGBANK_ID>
DB08640

>  <COMMON_NAME>
(2S,3S)-3-FORMYL-2-({[(4-METHYLPHENYL)SULFONYL]AMINO}METHYL)PENTANOIC ACID

$$$$
