
 OpenBabel10282417072D

 66 73  0  0  1  0  0  0  0  0999 V2000
    2.9306    1.2459    0.0000 H   0  0  0  0  0  0  0  0  0  0  0  0
    3.2151    0.4715    0.0000 C   0  0  1  0  0  0  0  0  0  0  0  0
    3.8637    0.9813    0.0000 C   0  0  0  0  0  0  0  0  0  0  0  0
    4.5490    0.5221    0.0000 C   0  0  0  0  0  0  0  0  0  0  0  0
    4.3240   -0.2717    0.0000 N   0  0  0  0  0  0  0  0  0  0  0  0
    5.0093   -0.7309    0.0000 N   0  0  0  0  0  0  0  0  0  0  0  0
    5.6579   -0.2211    0.0000 C   0  0  0  0  0  0  0  0  0  0  0  0
    6.4708   -0.3619    0.0000 C   0  0  0  0  0  0  0  0  0  0  0  0
    6.7274   -1.1777    0.0000 C   0  0  0  0  0  0  0  0  0  0  0  0
    6.9992    0.2717    0.0000 C   0  0  0  0  0  0  0  0  0  0  0  0
    6.7147    1.0461    0.0000 C   0  0  0  0  0  0  0  0  0  0  0  0
    5.9018    1.1869    0.0000 C   0  0  0  0  0  0  0  0  0  0  0  0
    5.3734    0.5533    0.0000 C   0  0  0  0  0  0  0  0  0  0  0  0
    7.8607    0.1361    0.0000 C   0  0  0  0  0  0  0  0  0  0  0  0
    8.4678    0.7342    0.0000 O   0  0  0  0  0  0  0  0  0  0  0  0
    8.2669   -0.6147    0.0000 O   0  0  0  0  0  0  0  0  0  0  0  0
    3.4996   -0.3029    0.0000 C   0  0  1  0  0  0  0  0  0  0  0  0
    3.7841   -1.0773    0.0000 H   0  0  0  0  0  0  0  0  0  0  0  0
    2.8510   -0.8128    0.0000 C   0  0  2  0  0  0  0  0  0  0  0  0
    2.8823   -1.6372    0.0000 C   0  0  0  0  0  0  0  0  0  0  0  0
    3.6119   -2.0223    0.0000 C   0  0  0  0  0  0  0  0  0  0  0  0
    3.6431   -2.8467    0.0000 C   0  0  0  0  0  0  0  0  0  0  0  0
    2.9448   -3.2860    0.0000 C   0  0  0  0  0  0  0  0  0  0  0  0
    2.2152   -2.9009    0.0000 C   0  0  0  0  0  0  0  0  0  0  0  0
    1.7017   -3.5967    0.0000 Cl  0  0  0  0  0  0  0  0  0  0  0  0
    2.1839   -2.0765    0.0000 C   0  0  0  0  0  0  0  0  0  0  0  0
    1.2361   -1.7674    0.0000 F   0  0  0  0  0  0  0  0  0  0  0  0
    2.1657   -0.3535    0.0000 C   0  0  1  0  0  0  0  0  0  0  0  0
    2.3907    0.4402    0.0000 N   0  0  0  0  0  0  0  0  0  0  0  0
    1.8691    1.0668    0.0000 C   0  0  0  0  0  0  0  0  0  0  0  0
    2.1876    1.8546    0.0000 C   0  0  0  0  0  0  0  0  0  0  0  0
    2.0703    2.6712    0.0000 C   0  0  0  0  0  0  0  0  0  0  0  0
    2.8361    2.3645    0.0000 C   0  0  0  0  0  0  0  0  0  0  0  0
    1.9406   -1.1473    0.0000 C   0  0  0  0  0  0  0  0  0  0  0  0
    1.6637   -2.0232    0.0000 O   0  0  0  0  0  0  0  0  0  0  0  0
    1.1162   -1.1785    0.0000 N   0  0  0  0  0  0  0  0  0  0  0  0
    0.8317   -0.4041    0.0000 C   0  0  0  0  0  0  0  0  0  0  0  0
    0.0659   -0.0974    0.0000 C   0  0  0  0  0  0  0  0  0  0  0  0
   -0.0514    0.7193    0.0000 C   0  0  0  0  0  0  0  0  0  0  0  0
   -0.8518    1.0265    0.0000 Cl  0  0  0  0  0  0  0  0  0  0  0  0
    0.5972    1.2291    0.0000 C   0  0  0  0  0  0  0  0  0  0  0  0
    1.3631    0.9224    0.0000 C   0  0  0  0  0  0  0  0  0  0  0  0
    1.4803    0.1057    0.0000 C   0  0  0  0  0  0  0  0  0  0  0  0
    3.8232    2.0505    0.0000 H   0  0  0  0  0  0  0  0  0  0  0  0
    4.7980    1.5029    0.0000 H   0  0  0  0  0  0  0  0  0  0  0  0
    6.0040   -1.9661    0.0000 H   0  0  0  0  0  0  0  0  0  0  0  0
    7.7719   -1.4100    0.0000 H   0  0  0  0  0  0  0  0  0  0  0  0
    7.0484   -2.1984    0.0000 H   0  0  0  0  0  0  0  0  0  0  0  0
    7.3757    1.8387    0.0000 H   0  0  0  0  0  0  0  0  0  0  0  0
    5.5459    2.1556    0.0000 H   0  0  0  0  0  0  0  0  0  0  0  0
    9.3710    0.4849    0.0000 H   0  0  0  0  0  0  0  0  0  0  0  0
    3.8221   -1.2621    0.0000 H   0  0  0  0  0  0  0  0  0  0  0  0
    4.4855   -1.4728    0.0000 H   0  0  0  0  0  0  0  0  0  0  0  0
    4.5557   -3.3285    0.0000 H   0  0  0  0  0  0  0  0  0  0  0  0
    2.9839   -4.3173    0.0000 H   0  0  0  0  0  0  0  0  0  0  0  0
    0.8119    0.9016    0.0000 H   0  0  0  0  0  0  0  0  0  0  0  0
    1.2040    1.9050    0.0000 H   0  0  0  0  0  0  0  0  0  0  0  0
    2.5854    2.8479    0.0000 H   0  0  0  0  0  0  0  0  0  0  0  0
    1.4090    3.5124    0.0000 H   0  0  0  0  0  0  0  0  0  0  0  0
    2.7116    3.5277    0.0000 H   0  0  0  0  0  0  0  0  0  0  0  0
    3.8952    2.5167    0.0000 H   0  0  0  0  0  0  0  0  0  0  0  0
    3.2572    1.3809    0.0000 H   0  0  0  0  0  0  0  0  0  0  0  0
    0.5681   -1.9963    0.0000 H   0  0  0  0  0  0  0  0  0  0  0  0
   -0.7454   -0.7352    0.0000 H   0  0  0  0  0  0  0  0  0  0  0  0
    0.4505    2.2506    0.0000 H   0  0  0  0  0  0  0  0  0  0  0  0
    2.1744    1.5602    0.0000 H   0  0  0  0  0  0  0  0  0  0  0  0
  2  1  1  6  0  0  0
  2  3  1  0  0  0  0
  2 29  1  0  0  0  0
  3  4  1  0  0  0  0
  3 44  1  0  0  0  0
  3 45  1  0  0  0  0
  4  5  1  0  0  0  0
  4 13  2  0  0  0  0
  5  6  1  0  0  0  0
  6  7  2  0  0  0  0
  7  8  1  0  0  0  0
  7 13  1  0  0  0  0
  8  9  1  0  0  0  0
  8 10  2  0  0  0  0
  9 46  1  0  0  0  0
  9 47  1  0  0  0  0
  9 48  1  0  0  0  0
 10 11  1  0  0  0  0
 10 14  1  0  0  0  0
 11 12  2  0  0  0  0
 11 49  1  0  0  0  0
 12 13  1  0  0  0  0
 12 50  1  0  0  0  0
 14 15  1  0  0  0  0
 14 16  2  0  0  0  0
 15 51  1  0  0  0  0
 17  5  1  0  0  0  0
 17  2  1  0  0  0  0
 17 18  1  6  0  0  0
 17 19  1  0  0  0  0
 19 20  1  0  0  0  0
 19 28  1  0  0  0  0
 19 52  1  1  0  0  0
 20 21  2  0  0  0  0
 20 26  1  0  0  0  0
 21 22  1  0  0  0  0
 21 53  1  0  0  0  0
 22 23  2  0  0  0  0
 22 54  1  0  0  0  0
 23 24  1  0  0  0  0
 23 55  1  0  0  0  0
 24 25  1  0  0  0  0
 24 26  2  0  0  0  0
 26 27  1  0  0  0  0
 28 29  1  0  0  0  0
 28 34  1  6  0  0  0
 28 43  1  0  0  0  0
 29 30  1  0  0  0  0
 30 31  1  0  0  0  0
 30 56  1  0  0  0  0
 30 57  1  0  0  0  0
 31 32  1  0  0  0  0
 31 33  1  0  0  0  0
 31 58  1  0  0  0  0
 32 33  1  0  0  0  0
 32 59  1  0  0  0  0
 32 60  1  0  0  0  0
 33 61  1  0  0  0  0
 33 62  1  0  0  0  0
 34 35  2  0  0  0  0
 34 36  1  0  0  0  0
 36 37  1  0  0  0  0
 36 63  1  0  0  0  0
 37 38  2  0  0  0  0
 37 43  1  0  0  0  0
 38 39  1  0  0  0  0
 38 64  1  0  0  0  0
 39 40  1  0  0  0  0
 39 41  2  0  0  0  0
 41 42  1  0  0  0  0
 41 65  1  0  0  0  0
 42 43  2  0  0  0  0
 42 66  1  0  0  0  0
M  END
>  <DRUGBANK_ID>
DB18578

>  <COMMON_NAME>
Brigimadlin

>  <CAS_NUMBER>
2095116-40-6

>  <UNII>
9A934ZAN94

$$$$
