
 OpenBabel10282417072D

 35 35  0  0  0  0  0  0  0  0999 V2000
   -1.4437   -0.6592    0.0000 C   0  0  0  0  0  0  0  0  0  0  0  0
   -0.6187   -0.6592    0.0000 S   0  0  0  0  0  0  0  0  0  0  0  0
   -1.8562    0.0553    0.0000 C   0  0  0  0  0  0  0  0  0  0  0  0
   -1.8562   -1.3737    0.0000 C   0  0  0  0  0  0  0  0  0  0  0  0
    0.2062   -0.6592    0.0000 N   0  0  0  0  0  0  0  0  0  0  0  0
   -0.6187    0.1656    0.0000 O   0  0  0  0  0  0  0  0  0  0  0  0
   -0.6187   -1.4842    0.0000 O   0  0  0  0  0  0  0  0  0  0  0  0
   -2.6812    0.0553    0.0000 C   0  0  0  0  0  0  0  0  0  0  0  0
   -2.6812   -1.3737    0.0000 C   0  0  0  0  0  0  0  0  0  0  0  0
    0.6187    0.0553    0.0000 C   0  0  0  0  0  0  0  0  0  0  0  0
   -3.0936   -0.6592    0.0000 C   0  0  0  0  0  0  0  0  0  0  0  0
    1.4437    0.0553    0.0000 N   0  0  0  0  0  0  0  0  0  0  0  0
    0.2062    0.7695    0.0000 O   0  0  0  0  0  0  0  0  0  0  0  0
   -3.9187   -0.6592    0.0000 N   0  0  0  0  0  0  0  0  0  0  0  0
    1.8562    0.7695    0.0000 C   0  0  0  0  0  0  0  0  0  0  0  0
    2.6812    0.7695    0.0000 C   0  0  0  0  0  0  0  0  0  0  0  0
    3.0936    1.4842    0.0000 C   0  0  0  0  0  0  0  0  0  0  0  0
    3.9187    1.4842    0.0000 C   0  0  0  0  0  0  0  0  0  0  0  0
   -1.3402    0.9490    0.0000 H   0  0  0  0  0  0  0  0  0  0  0  0
   -1.3402   -2.2674    0.0000 H   0  0  0  0  0  0  0  0  0  0  0  0
    0.6985   -1.5118    0.0000 H   0  0  0  0  0  0  0  0  0  0  0  0
   -3.1973    0.9490    0.0000 H   0  0  0  0  0  0  0  0  0  0  0  0
   -3.1973   -2.2674    0.0000 H   0  0  0  0  0  0  0  0  0  0  0  0
    1.9359   -0.7973    0.0000 H   0  0  0  0  0  0  0  0  0  0  0  0
   -4.4109    0.1934    0.0000 H   0  0  0  0  0  0  0  0  0  0  0  0
   -4.4109   -1.5118    0.0000 H   0  0  0  0  0  0  0  0  0  0  0  0
    1.3213    1.6962    0.0000 H   0  0  0  0  0  0  0  0  0  0  0  0
    2.3912    1.6961    0.0000 H   0  0  0  0  0  0  0  0  0  0  0  0
    3.2163   -0.1571    0.0000 H   0  0  0  0  0  0  0  0  0  0  0  0
    3.7512    0.7697    0.0000 H   0  0  0  0  0  0  0  0  0  0  0  0
    2.5585    2.4108    0.0000 H   0  0  0  0  0  0  0  0  0  0  0  0
    3.6285    2.4109    0.0000 H   0  0  0  0  0  0  0  0  0  0  0  0
    4.4537    0.5576    0.0000 H   0  0  0  0  0  0  0  0  0  0  0  0
    4.4537    2.4108    0.0000 H   0  0  0  0  0  0  0  0  0  0  0  0
    4.9887    1.4842    0.0000 H   0  0  0  0  0  0  0  0  0  0  0  0
  1  2  1  0  0  0  0
  1  3  1  0  0  0  0
  1  4  2  0  0  0  0
  2  5  1  0  0  0  0
  2  6  2  0  0  0  0
  2  7  2  0  0  0  0
  3  8  2  0  0  0  0
  3 19  1  0  0  0  0
  4  9  1  0  0  0  0
  4 20  1  0  0  0  0
  5 10  1  0  0  0  0
  5 21  1  0  0  0  0
  8 11  1  0  0  0  0
  8 22  1  0  0  0  0
  9 11  2  0  0  0  0
  9 23  1  0  0  0  0
 10 12  1  0  0  0  0
 10 13  2  0  0  0  0
 11 14  1  0  0  0  0
 12 15  1  0  0  0  0
 12 24  1  0  0  0  0
 14 25  1  0  0  0  0
 14 26  1  0  0  0  0
 15 16  1  0  0  0  0
 15 27  1  0  0  0  0
 15 28  1  0  0  0  0
 16 17  1  0  0  0  0
 16 29  1  0  0  0  0
 16 30  1  0  0  0  0
 17 18  1  0  0  0  0
 17 31  1  0  0  0  0
 17 32  1  0  0  0  0
 18 33  1  0  0  0  0
 18 34  1  0  0  0  0
 18 35  1  0  0  0  0
M  END
>  <DRUGBANK_ID>
DB13406

>  <COMMON_NAME>
Carbutamide

>  <CAS_NUMBER>
339-43-5

>  <UNII>
E3K8P4869P

>  <SYNONYMS>
Carbutamida; Carbutamide; Carbutamidum

$$$$
