393
 OpenBabel10282417072D

 38 39  0  0  0  0  0  0  0  0999 V2000
    3.9494    1.6377    0.0000 C   0  0  0  0  0  0  0  0  0  0  0  0
    3.9494    2.4627    0.0000 N   0  3  0  0  0  0  0  0  0  0  0  0
    4.6639    2.8752    0.0000 O   0  5  0  0  0  0  0  0  0  0  0  0
    3.2349    2.8752    0.0000 O   0  0  0  0  0  0  0  0  0  0  0  0
    3.2349    1.2252    0.0000 C   0  0  0  0  0  0  0  0  0  0  0  0
    3.2349    0.4002    0.0000 C   0  0  0  0  0  0  0  0  0  0  0  0
    2.5205   -0.0123    0.0000 C   0  0  0  0  0  0  0  0  0  0  0  0
    2.5205   -0.8373    0.0000 N   0  0  0  0  0  0  0  0  0  0  0  0
    1.8060   -1.2498    0.0000 C   0  0  0  0  0  0  0  0  0  0  0  0
    1.8060   -2.0748    0.0000 C   0  0  0  0  0  0  0  0  0  0  0  0
    2.5205   -2.4873    0.0000 C   0  0  0  0  0  0  0  0  0  0  0  0
    2.5205   -3.3123    0.0000 C   0  0  0  0  0  0  0  0  0  0  0  0
    1.8060   -3.7248    0.0000 C   0  0  0  0  0  0  0  0  0  0  0  0
    1.8060   -4.5498    0.0000 Cl  0  0  0  0  0  0  0  0  0  0  0  0
    1.0915   -3.3123    0.0000 C   0  0  0  0  0  0  0  0  0  0  0  0
    1.0915   -2.4873    0.0000 C   0  0  0  0  0  0  0  0  0  0  0  0
    0.3770   -2.0748    0.0000 O   0  0  0  0  0  0  0  0  0  0  0  0
   -0.3374   -2.4873    0.0000 C   0  0  0  0  0  0  0  0  0  0  0  0
   -1.0519   -2.0748    0.0000 C   0  0  0  0  0  0  0  0  0  0  0  0
   -1.7664   -2.4873    0.0000 O   0  0  0  0  0  0  0  0  0  0  0  0
   -1.0519   -1.2498    0.0000 O   0  0  0  0  0  0  0  0  0  0  0  0
    1.0915   -0.8373    0.0000 O   0  0  0  0  0  0  0  0  0  0  0  0
    3.9494   -0.0123    0.0000 C   0  0  0  0  0  0  0  0  0  0  0  0
    4.6639    0.4002    0.0000 C   0  0  0  0  0  0  0  0  0  0  0  0
    4.6639    1.2252    0.0000 C   0  0  0  0  0  0  0  0  0  0  0  0
    2.3412    1.7412    0.0000 H   0  0  0  0  0  0  0  0  0  0  0  0
    1.5938    0.5227    0.0000 H   0  0  0  0  0  0  0  0  0  0  0  0
    1.5939   -0.5473    0.0000 H   0  0  0  0  0  0  0  0  0  0  0  0
    3.3731   -1.3296    0.0000 H   0  0  0  0  0  0  0  0  0  0  0  0
    3.4142   -1.9713    0.0000 H   0  0  0  0  0  0  0  0  0  0  0  0
    3.4142   -3.8283    0.0000 H   0  0  0  0  0  0  0  0  0  0  0  0
    0.1978   -3.8283    0.0000 H   0  0  0  0  0  0  0  0  0  0  0  0
   -0.3374   -3.5573    0.0000 H   0  0  0  0  0  0  0  0  0  0  0  0
   -1.2640   -3.0223    0.0000 H   0  0  0  0  0  0  0  0  0  0  0  0
   -2.5779   -2.0188    0.0000 H   0  0  0  0  0  0  0  0  0  0  0  0
    3.9494   -1.0443    0.0000 H   0  0  0  0  0  0  0  0  0  0  0  0
    5.5576   -0.1158    0.0000 H   0  0  0  0  0  0  0  0  0  0  0  0
    5.5576    1.7412    0.0000 H   0  0  0  0  0  0  0  0  0  0  0  0
  1  2  1  0  0  0  0
  1 25  2  0  0  0  0
  1  5  1  0  0  0  0
  2  3  1  0  0  0  0
  2  4  2  0  0  0  0
  5  6  2  0  0  0  0
  5 26  1  0  0  0  0
  6 23  1  0  0  0  0
  6  7  1  0  0  0  0
  7  8  1  0  0  0  0
  7 27  1  0  0  0  0
  7 28  1  0  0  0  0
  8  9  1  0  0  0  0
  8 29  1  0  0  0  0
  9 22  2  0  0  0  0
  9 10  1  0  0  0  0
 10 11  2  0  0  0  0
 10 16  1  0  0  0  0
 11 12  1  0  0  0  0
 11 30  1  0  0  0  0
 12 13  2  0  0  0  0
 12 31  1  0  0  0  0
 13 15  1  0  0  0  0
 13 14  1  0  0  0  0
 15 16  2  0  0  0  0
 15 32  1  0  0  0  0
 16 17  1  0  0  0  0
 17 18  1  0  0  0  0
 18 19  1  0  0  0  0
 18 33  1  0  0  0  0
 18 34  1  0  0  0  0
 19 21  2  0  0  0  0
 19 20  1  0  0  0  0
 20 35  1  0  0  0  0
 23 24  2  0  0  0  0
 23 36  1  0  0  0  0
 24 25  1  0  0  0  0
 24 37  1  0  0  0  0
 25 38  1  0  0  0  0
M  CHG  2   2   1   3  -1
M  END
>  <DRUGBANK_ID>
DB07030

>  <COMMON_NAME>
(5-CHLORO-2-{[(3-NITROBENZYL)AMINO]CARBONYL}PHENOXY)ACETIC ACID

$$$$
