
 OpenBabel10282417072D

 50 53  0  0  0  0  0  0  0  0999 V2000
   -1.4036   -3.9359    0.0000 C   0  0  0  0  0  0  0  0  0  0  0  0
   -2.1255   -5.1620    0.0000 C   0  0  0  0  0  0  0  0  0  0  0  0
   -0.6989   -4.3370    0.0000 C   0  0  0  0  0  0  0  0  0  0  0  0
   -2.1255   -4.3370    0.0000 C   0  0  0  0  0  0  0  0  0  0  0  0
    4.2969   -3.8901    0.0000 C   0  0  0  0  0  0  0  0  0  0  0  0
    5.0073   -5.1219    0.0000 C   0  0  0  0  0  0  0  0  0  0  0  0
   -1.4036   -5.5745    0.0000 O   0  0  0  0  0  0  0  0  0  0  0  0
   -0.6989   -5.1620    0.0000 C   0  0  0  0  0  0  0  0  0  0  0  0
    5.0073   -4.3026    0.0000 C   0  0  0  0  0  0  0  0  0  0  0  0
    3.5922   -4.3026    0.0000 C   0  0  0  0  0  0  0  0  0  0  0  0
    3.5980   -5.1276    0.0000 C   0  0  0  0  0  0  0  0  0  0  0  0
   -2.8302   -5.5745    0.0000 C   0  0  0  0  0  0  0  0  0  0  0  0
    5.7292   -5.5344    0.0000 C   0  0  0  0  0  0  0  0  0  0  0  0
    4.3026   -5.5344    0.0000 O   0  0  0  0  0  0  0  0  0  0  0  0
    0.0172   -3.9245    0.0000 C   0  0  0  0  0  0  0  0  0  0  0  0
    2.8761   -3.9073    0.0000 C   0  0  0  0  0  0  0  0  0  0  0  0
   -1.4036   -3.1109    0.0000 O   0  0  0  0  0  0  0  0  0  0  0  0
    4.2855   -3.0651    0.0000 O   0  0  0  0  0  0  0  0  0  0  0  0
   -2.8474   -6.3995    0.0000 O   0  0  0  0  0  0  0  0  0  0  0  0
    6.4453   -5.1105    0.0000 O   0  0  0  0  0  0  0  0  0  0  0  0
    0.0058   -3.0995    0.0000 O   0  0  0  0  0  0  0  0  0  0  0  0
    2.8703   -3.0823    0.0000 O   0  0  0  0  0  0  0  0  0  0  0  0
    5.7292   -6.3594    0.0000 O   0  0  0  0  0  0  0  0  0  0  0  0
   -3.5234   -5.1105    0.0000 O   0  0  0  0  0  0  0  0  0  0  0  0
    1.4437   -3.0937    0.0000 C   0  0  0  0  0  0  0  0  0  0  0  0
    0.7219   -2.6870    0.0000 C   0  0  0  0  0  0  0  0  0  0  0  0
    2.1542   -2.6698    0.0000 C   0  0  0  0  0  0  0  0  0  0  0  0
    0.0172   -5.5745    0.0000 C   0  0  0  0  0  0  0  0  0  0  0  0
    2.8875   -5.5573    0.0000 C   0  0  0  0  0  0  0  0  0  0  0  0
    1.4437   -3.9187    0.0000 O   0  0  0  0  0  0  0  0  0  0  0  0
    2.1656   -5.1448    0.0000 C   0  0  0  0  0  0  0  0  0  0  0  0
    0.7276   -5.1620    0.0000 C   0  0  0  0  0  0  0  0  0  0  0  0
    0.7276   -4.3370    0.0000 C   0  0  0  0  0  0  0  0  0  0  0  0
    2.1656   -4.3198    0.0000 C   0  0  0  0  0  0  0  0  0  0  0  0
   -3.0150   -3.8137    0.0000 H   0  0  0  0  0  0  0  0  0  0  0  0
    5.9017   -3.7877    0.0000 H   0  0  0  0  0  0  0  0  0  0  0  0
    7.2618   -5.5701    0.0000 H   0  0  0  0  0  0  0  0  0  0  0  0
   -3.4614   -4.1756    0.0000 H   0  0  0  0  0  0  0  0  0  0  0  0
    2.3742   -3.6220    0.0000 H   0  0  0  0  0  0  0  0  0  0  0  0
    0.7168   -1.6170    0.0000 H   0  0  0  0  0  0  0  0  0  0  0  0
   -0.2058   -2.1537    0.0000 H   0  0  0  0  0  0  0  0  0  0  0  0
    2.1460   -1.5998    0.0000 H   0  0  0  0  0  0  0  0  0  0  0  0
    1.2217   -2.1450    0.0000 H   0  0  0  0  0  0  0  0  0  0  0  0
    0.0190   -6.6065    0.0000 H   0  0  0  0  0  0  0  0  0  0  0  0
    2.9003   -6.5892    0.0000 H   0  0  0  0  0  0  0  0  0  0  0  0
    0.6037   -4.4037    0.0000 H   0  0  0  0  0  0  0  0  0  0  0  0
    1.2730   -5.6628    0.0000 H   0  0  0  0  0  0  0  0  0  0  0  0
    1.6220   -5.6769    0.0000 H   0  0  0  0  0  0  0  0  0  0  0  0
    1.6220   -3.8221    0.0000 H   0  0  0  0  0  0  0  0  0  0  0  0
    1.2712   -3.8049    0.0000 H   0  0  0  0  0  0  0  0  0  0  0  0
  2  4  2  0  0  0  0
  3  1  1  0  0  0  0
  4  1  1  0  0  0  0
  4 35  1  0  0  0  0
  5 10  1  0  0  0  0
  6 14  1  0  0  0  0
  7  2  1  0  0  0  0
  8  3  2  0  0  0  0
  8  7  1  0  0  0  0
  9  5  1  0  0  0  0
  9  6  2  0  0  0  0
  9 36  1  0  0  0  0
 10 16  1  0  0  0  0
 11 10  2  0  0  0  0
 11 29  1  0  0  0  0
 12  2  1  0  0  0  0
 13  6  1  0  0  0  0
 14 11  1  0  0  0  0
 15  3  1  0  0  0  0
 16 22  1  0  0  0  0
 17  1  2  0  0  0  0
 18  5  2  0  0  0  0
 19 12  2  0  0  0  0
 20 13  1  0  0  0  0
 20 37  1  0  0  0  0
 21 15  1  0  0  0  0
 22 27  1  0  0  0  0
 23 13  2  0  0  0  0
 24 12  1  0  0  0  0
 24 38  1  0  0  0  0
 25 26  1  0  0  0  0
 25 39  1  0  0  0  0
 26 21  1  0  0  0  0
 26 40  1  0  0  0  0
 26 41  1  0  0  0  0
 27 25  1  0  0  0  0
 27 42  1  0  0  0  0
 27 43  1  0  0  0  0
 28  8  1  0  0  0  0
 28 32  2  0  0  0  0
 28 44  1  0  0  0  0
 29 31  2  0  0  0  0
 29 45  1  0  0  0  0
 30 25  1  0  0  0  0
 30 46  1  0  0  0  0
 31 34  1  0  0  0  0
 31 47  1  0  0  0  0
 32 33  1  0  0  0  0
 32 48  1  0  0  0  0
 33 15  2  0  0  0  0
 33 49  1  0  0  0  0
 34 16  2  0  0  0  0
 34 50  1  0  0  0  0
M  END
>  <DRUGBANK_ID>
DB01003

>  <SECONDARY_ACCESSION_NUMBERS>
APRD00336

>  <COMMON_NAME>
Cromoglicic acid

>  <CAS_NUMBER>
16110-51-3

>  <UNII>
Y0TK0FS77W

>  <SYNONYMS>
5-[3-(2-carboxy-4-oxo-4H-5-chromenyloxy)-2-hydroxypropoxy]-4-oxo-4H-2-chromenecarboxylic acid; Acide Cromoglicique; Acido Cromoglicico; Acidum Cromoglicicum; Cromoglicate; Cromoglicic acid; Cromoglycate; Cromoglycic acid; Cromolyn

$$$$
