1HP
 OpenBabel10282417072D

 30 32  0  0  0  0  0  0  0  0999 V2000
   -0.3099    0.1356    0.0000 C   0  0  0  0  0  0  0  0  0  0  0  0
   -1.0244    0.5481    0.0000 C   0  0  0  0  0  0  0  0  0  0  0  0
   -1.8090    0.2931    0.0000 N   0  0  0  0  0  0  0  0  0  0  0  0
   -2.0639   -0.4915    0.0000 C   0  0  0  0  0  0  0  0  0  0  0  0
   -2.2939    0.9606    0.0000 C   0  0  0  0  0  0  0  0  0  0  0  0
   -3.1189    0.9606    0.0000 N   0  0  0  0  0  0  0  0  0  0  0  0
   -1.8090    1.6280    0.0000 N   0  0  0  0  0  0  0  0  0  0  0  0
   -1.0244    1.3731    0.0000 C   0  0  0  0  0  0  0  0  0  0  0  0
   -0.3099    1.7856    0.0000 N   0  0  0  0  0  0  0  0  0  0  0  0
    0.4046    1.3731    0.0000 C   0  0  0  0  0  0  0  0  0  0  0  0
    0.4046    0.5481    0.0000 C   0  0  0  0  0  0  0  0  0  0  0  0
    1.1191    0.1356    0.0000 C   0  0  0  0  0  0  0  0  0  0  0  0
    1.1191   -0.6894    0.0000 C   0  0  0  0  0  0  0  0  0  0  0  0
    1.8335   -1.1019    0.0000 C   0  0  0  0  0  0  0  0  0  0  0  0
    2.5480   -0.6894    0.0000 C   0  0  0  0  0  0  0  0  0  0  0  0
    3.2625   -1.1019    0.0000 O   0  0  0  0  0  0  0  0  0  0  0  0
    2.5480    0.1356    0.0000 C   0  0  0  0  0  0  0  0  0  0  0  0
    1.8335    0.5481    0.0000 C   0  0  0  0  0  0  0  0  0  0  0  0
   -0.3099   -0.8964    0.0000 H   0  0  0  0  0  0  0  0  0  0  0  0
   -3.1105   -0.7140    0.0000 H   0  0  0  0  0  0  0  0  0  0  0  0
   -1.3479   -1.2866    0.0000 H   0  0  0  0  0  0  0  0  0  0  0  0
   -2.3945   -1.5091    0.0000 H   0  0  0  0  0  0  0  0  0  0  0  0
   -3.6112    1.8132    0.0000 H   0  0  0  0  0  0  0  0  0  0  0  0
   -3.6111    0.1080    0.0000 H   0  0  0  0  0  0  0  0  0  0  0  0
    1.2983    1.8891    0.0000 H   0  0  0  0  0  0  0  0  0  0  0  0
    0.2254   -1.2054    0.0000 H   0  0  0  0  0  0  0  0  0  0  0  0
    1.8335   -2.1339    0.0000 H   0  0  0  0  0  0  0  0  0  0  0  0
    3.2625   -2.0389    0.0000 H   0  0  0  0  0  0  0  0  0  0  0  0
    3.4417    0.6516    0.0000 H   0  0  0  0  0  0  0  0  0  0  0  0
    1.8335    1.5801    0.0000 H   0  0  0  0  0  0  0  0  0  0  0  0
  1  2  1  0  0  0  0
  1 19  1  0  0  0  0
  2  3  1  0  0  0  0
  3  5  1  0  0  0  0
  3  4  1  0  0  0  0
  4 20  1  0  0  0  0
  4 21  1  0  0  0  0
  4 22  1  0  0  0  0
  5  6  1  0  0  0  0
  6 23  1  0  0  0  0
  6 24  1  0  0  0  0
  7  5  2  0  0  0  0
  8  2  2  0  0  0  0
  8  7  1  0  0  0  0
  9  8  1  0  0  0  0
 10  9  2  0  0  0  0
 10 11  1  0  0  0  0
 10 25  1  0  0  0  0
 11  1  2  0  0  0  0
 12 11  1  0  0  0  0
 12 18  2  0  0  0  0
 13 12  1  0  0  0  0
 13 26  1  0  0  0  0
 14 13  2  0  0  0  0
 14 15  1  0  0  0  0
 14 27  1  0  0  0  0
 15 17  2  0  0  0  0
 16 15  1  0  0  0  0
 16 28  1  0  0  0  0
 17 18  1  0  0  0  0
 17 29  1  0  0  0  0
 18 30  1  0  0  0  0
M  END
>  <DRUGBANK_ID>
DB06898

>  <COMMON_NAME>
4-(2-amino-1-methyl-1H-imidazo[4,5-b]pyridin-6-yl)phenol

>  <UNII>
YL9NJ9QS6V

$$$$
