MNX
 OpenBabel10282417072D

 27 29  0  0  0  0  0  0  0  0999 V2000
    1.6955   -0.7586    0.0000 C   0  0  0  0  0  0  0  0  0  0  0  0
    0.9811   -0.3461    0.0000 C   0  0  0  0  0  0  0  0  0  0  0  0
    0.9811    0.4789    0.0000 C   0  0  0  0  0  0  0  0  0  0  0  0
    1.6955    0.8914    0.0000 C   0  0  0  0  0  0  0  0  0  0  0  0
    2.4100    0.4789    0.0000 C   0  0  0  0  0  0  0  0  0  0  0  0
    2.4100   -0.3461    0.0000 C   0  0  0  0  0  0  0  0  0  0  0  0
    0.2666    0.8914    0.0000 O   0  0  0  0  0  0  0  0  0  0  0  0
   -0.4479    0.4789    0.0000 C   0  0  0  0  0  0  0  0  0  0  0  0
   -0.4479   -0.3461    0.0000 C   0  0  0  0  0  0  0  0  0  0  0  0
    0.2666   -0.7586    0.0000 C   0  0  0  0  0  0  0  0  0  0  0  0
   -1.1623   -0.7586    0.0000 C   0  0  0  0  0  0  0  0  0  0  0  0
   -1.8768   -0.3461    0.0000 C   0  0  0  0  0  0  0  0  0  0  0  0
   -1.8768    0.4789    0.0000 C   0  0  0  0  0  0  0  0  0  0  0  0
   -1.1623    0.8914    0.0000 C   0  0  0  0  0  0  0  0  0  0  0  0
    0.2666   -1.5836    0.0000 O   0  0  0  0  0  0  0  0  0  0  0  0
    1.6955   -1.5836    0.0000 O   0  0  0  0  0  0  0  0  0  0  0  0
   -1.1623   -1.5836    0.0000 O   0  0  0  0  0  0  0  0  0  0  0  0
   -1.1623    1.7164    0.0000 N   0  3  0  0  0  0  0  0  0  0  0  0
   -1.8768    2.1289    0.0000 O   0  5  0  0  0  0  0  0  0  0  0  0
   -0.4479    2.1289    0.0000 O   0  0  0  0  0  0  0  0  0  0  0  0
    1.6955    1.9234    0.0000 H   0  0  0  0  0  0  0  0  0  0  0  0
    3.3037    0.9949    0.0000 H   0  0  0  0  0  0  0  0  0  0  0  0
    3.3037   -0.8621    0.0000 H   0  0  0  0  0  0  0  0  0  0  0  0
   -2.7705   -0.8621    0.0000 H   0  0  0  0  0  0  0  0  0  0  0  0
   -2.7705    0.9949    0.0000 H   0  0  0  0  0  0  0  0  0  0  0  0
    0.8840   -2.0521    0.0000 H   0  0  0  0  0  0  0  0  0  0  0  0
   -1.9738   -2.0521    0.0000 H   0  0  0  0  0  0  0  0  0  0  0  0
  1  2  2  0  0  0  0
  1  6  1  0  0  0  0
  1 16  1  0  0  0  0
  2  3  1  0  0  0  0
  2 10  1  0  0  0  0
  3  4  2  0  0  0  0
  3  7  1  0  0  0  0
  4  5  1  0  0  0  0
  4 21  1  0  0  0  0
  5  6  2  0  0  0  0
  5 22  1  0  0  0  0
  6 23  1  0  0  0  0
  7  8  1  0  0  0  0
  8  9  2  0  0  0  0
  8 14  1  0  0  0  0
  9 10  1  0  0  0  0
  9 11  1  0  0  0  0
 10 15  2  0  0  0  0
 11 12  2  0  0  0  0
 11 17  1  0  0  0  0
 12 13  1  0  0  0  0
 12 24  1  0  0  0  0
 13 14  2  0  0  0  0
 13 25  1  0  0  0  0
 14 18  1  0  0  0  0
 16 26  1  0  0  0  0
 17 27  1  0  0  0  0
 18 19  1  0  0  0  0
 18 20  2  0  0  0  0
M  CHG  2  18   1  19  -1
M  END
>  <DRUGBANK_ID>
DB02170

>  <SECONDARY_ACCESSION_NUMBERS>
EXPT02205

>  <COMMON_NAME>
1,8-Di-Hydroxy-4-Nitro-Xanthen-9-One

$$$$
