
 OpenBabel10282417072D

 48 51  0  0  0  0  0  0  0  0999 V2000
   -2.0599   -0.5160    0.0000 C   0  0  0  0  0  0  0  0  0  0  0  0
   -2.0599   -1.3469    0.0000 C   0  0  1  0  0  0  0  0  0  0  0  0
   -1.3495   -1.7574    0.0000 C   0  0  0  0  0  0  0  0  0  0  0  0
   -0.6338   -1.3469    0.0000 C   0  0  0  0  0  0  0  0  0  0  0  0
   -0.6338   -0.5160    0.0000 C   0  0  2  0  0  0  0  0  0  0  0  0
   -1.3495   -0.1056    0.0000 C   0  0  0  0  0  0  0  0  0  0  0  0
    0.0764   -0.1056    0.0000 C   0  0  2  0  0  0  0  0  0  0  0  0
    0.7921   -0.5160    0.0000 C   0  0  1  0  0  0  0  0  0  0  0  0
    0.7921   -1.3469    0.0000 C   0  0  0  0  0  0  0  0  0  0  0  0
    0.0764   -1.7574    0.0000 C   0  0  0  0  0  0  0  0  0  0  0  0
    1.5078   -0.1056    0.0000 C   0  0  1  0  0  0  0  0  0  0  0  0
    1.5078    0.7152    0.0000 C   0  0  2  0  0  0  0  0  0  0  0  0
    0.7921    1.1265    0.0000 C   0  0  0  0  0  0  0  0  0  0  0  0
    0.0764    0.7152    0.0000 C   0  0  0  0  0  0  0  0  0  0  0  0
    2.2871    0.9681    0.0000 C   0  0  2  0  0  0  0  0  0  0  0  0
    2.7756    0.3047    0.0000 C   0  0  0  0  0  0  0  0  0  0  0  0
    2.2871   -0.3631    0.0000 C   0  0  0  0  0  0  0  0  0  0  0  0
    2.5445    1.7574    0.0000 O   0  0  0  0  0  0  0  0  0  0  0  0
    1.5078    1.5415    0.0000 C   0  0  0  0  0  0  0  0  0  0  0  0
    1.5078   -0.9365    0.0000 H   0  0  0  0  0  0  0  0  0  0  0  0
    0.7921    0.3047    0.0000 H   0  0  0  0  0  0  0  0  0  0  0  0
    0.0764   -0.9365    0.0000 H   0  0  0  0  0  0  0  0  0  0  0  0
   -0.6338    0.3047    0.0000 H   0  0  0  0  0  0  0  0  0  0  0  0
   -2.7756   -1.7574    0.0000 O   0  0  0  0  0  0  0  0  0  0  0  0
   -2.9866    0.0189    0.0000 H   0  0  0  0  0  0  0  0  0  0  0  0
   -2.0601    0.5540    0.0000 H   0  0  0  0  0  0  0  0  0  0  0  0
   -2.9858   -0.8106    0.0000 H   0  0  0  0  0  0  0  0  0  0  0  0
   -1.3512   -2.8274    0.0000 H   0  0  0  0  0  0  0  0  0  0  0  0
   -0.4240   -2.2945    0.0000 H   0  0  0  0  0  0  0  0  0  0  0  0
   -1.3512    0.9644    0.0000 H   0  0  0  0  0  0  0  0  0  0  0  0
   -2.2766    0.4285    0.0000 H   0  0  0  0  0  0  0  0  0  0  0  0
    1.7180   -1.8832    0.0000 H   0  0  0  0  0  0  0  0  0  0  0  0
    0.7898   -2.4169    0.0000 H   0  0  0  0  0  0  0  0  0  0  0  0
    0.0747   -2.7894    0.0000 H   0  0  0  0  0  0  0  0  0  0  0  0
    0.7921    2.1965    0.0000 H   0  0  0  0  0  0  0  0  0  0  0  0
   -0.1340    1.6624    0.0000 H   0  0  0  0  0  0  0  0  0  0  0  0
   -0.8497    1.2511    0.0000 H   0  0  0  0  0  0  0  0  0  0  0  0
   -0.8505    0.1807    0.0000 H   0  0  0  0  0  0  0  0  0  0  0  0
    1.5310    1.7252    0.0000 H   0  0  0  0  0  0  0  0  0  0  0  0
    3.8456    0.3064    0.0000 H   0  0  0  0  0  0  0  0  0  0  0  0
    3.2606   -0.6491    0.0000 H   0  0  0  0  0  0  0  0  0  0  0  0
    2.6136   -1.3821    0.0000 H   0  0  0  0  0  0  0  0  0  0  0  0
    1.5271   -1.1163    0.0000 H   0  0  0  0  0  0  0  0  0  0  0  0
    3.4935    1.9581    0.0000 H   0  0  0  0  0  0  0  0  0  0  0  0
    2.4344    2.0765    0.0000 H   0  0  0  0  0  0  0  0  0  0  0  0
    0.5812    2.0765    0.0000 H   0  0  0  0  0  0  0  0  0  0  0  0
    1.5078    2.6115    0.0000 H   0  0  0  0  0  0  0  0  0  0  0  0
   -3.6143   -1.2700    0.0000 H   0  0  0  0  0  0  0  0  0  0  0  0
  1  2  1  0  0  0  0
  1  6  1  0  0  0  0
  1 25  1  0  0  0  0
  1 26  1  0  0  0  0
  2  3  1  0  0  0  0
  2 24  1  0  0  0  0
  2 27  1  6  0  0  0
  3  4  1  0  0  0  0
  3 28  1  0  0  0  0
  3 29  1  0  0  0  0
  4  5  1  0  0  0  0
  4 10  2  0  0  0  0
  5  6  1  0  0  0  0
  5  7  1  0  0  0  0
  5 23  1  1  0  0  0
  6 30  1  0  0  0  0
  6 31  1  0  0  0  0
  7 14  1  0  0  0  0
  7 22  1  6  0  0  0
  8  7  1  0  0  0  0
  8 11  1  0  0  0  0
  8 21  1  1  0  0  0
  9  8  1  0  0  0  0
  9 32  1  0  0  0  0
  9 33  1  0  0  0  0
 10  9  1  0  0  0  0
 10 34  1  0  0  0  0
 11 12  1  0  0  0  0
 11 17  1  0  0  0  0
 11 20  1  6  0  0  0
 12 13  1  0  0  0  0
 12 15  1  0  0  0  0
 12 19  1  1  0  0  0
 13 14  1  0  0  0  0
 13 35  1  0  0  0  0
 13 36  1  0  0  0  0
 14 37  1  0  0  0  0
 14 38  1  0  0  0  0
 15 18  1  0  0  0  0
 15 39  1  6  0  0  0
 16 15  1  0  0  0  0
 16 40  1  0  0  0  0
 16 41  1  0  0  0  0
 17 16  1  0  0  0  0
 17 42  1  0  0  0  0
 17 43  1  0  0  0  0
 18 44  1  0  0  0  0
 19 45  1  0  0  0  0
 19 46  1  0  0  0  0
 19 47  1  0  0  0  0
 24 48  1  0  0  0  0
M  END
>  <DRUGBANK_ID>
DB01455

>  <COMMON_NAME>
19-Nor-5-androstenediol

>  <CAS_NUMBER>
25975-59-1

>  <UNII>
5N0V272KSA

$$$$
