
 OpenBabel10282417072D

 29 31  0  0  0  0  0  0  0  0999 V2000
    2.1479   -1.2355    0.0000 Br  0  0  0  0  0  0  0  0  0  0  0  0
   -0.3919   -2.9794    0.0000 O   0  0  0  0  0  0  0  0  0  0  0  0
    1.0580    0.3912    0.0000 O   0  0  0  0  0  0  0  0  0  0  0  0
   -1.3847   -1.9965    0.0000 N   0  0  0  0  0  0  0  0  0  0  0  0
    0.8447   -1.9060    0.0000 N   0  0  0  0  0  0  0  0  0  0  0  0
   -0.9550    1.1013    0.0000 N   0  0  0  0  0  0  0  0  0  0  0  0
    0.2697    1.6321    0.0000 N   0  0  0  0  0  0  0  0  0  0  0  0
   -0.8634    2.5686    0.0000 N   0  0  0  0  0  0  0  0  0  0  0  0
   -0.5887   -0.3224    0.0000 C   0  0  2  0  0  0  0  0  0  0  0  0
    0.0587   -0.8335    0.0000 C   0  0  1  0  0  0  0  0  0  0  0  0
   -1.3921   -0.5099    0.0000 C   0  0  0  0  0  0  0  0  0  0  0  0
    0.0629   -1.6584    0.0000 C   0  0  0  0  0  0  0  0  0  0  0  0
   -1.7463   -1.2550    0.0000 C   0  0  0  0  0  0  0  0  0  0  0  0
   -0.4092    0.4828    0.0000 C   0  0  0  0  0  0  0  0  0  0  0  0
    0.8381   -0.5782    0.0000 C   0  0  0  0  0  0  0  0  0  0  0  0
   -0.5795   -2.1760    0.0000 C   0  0  0  0  0  0  0  0  0  0  0  0
    1.3229   -1.2397    0.0000 C   0  0  0  0  0  0  0  0  0  0  0  0
    0.3477    0.8108    0.0000 C   0  0  0  0  0  0  0  0  0  0  0  0
   -0.5354    1.8116    0.0000 C   0  0  0  0  0  0  0  0  0  0  0  0
   -1.3032    0.0900    0.0000 H   0  0  0  0  0  0  0  0  0  0  0  0
    0.2303   -0.0265    0.0000 H   0  0  0  0  0  0  0  0  0  0  0  0
   -1.9947   -2.7693    0.0000 H   0  0  0  0  0  0  0  0  0  0  0  0
   -0.2768    3.3592    0.0000 H   0  0  0  0  0  0  0  0  0  0  0  0
   -1.8414    2.6813    0.0000 H   0  0  0  0  0  0  0  0  0  0  0  0
   -2.0634    0.3233    0.0000 H   0  0  0  0  0  0  0  0  0  0  0  0
   -2.4548   -0.6350    0.0000 H   0  0  0  0  0  0  0  0  0  0  0  0
   -2.8163   -1.2603    0.0000 H   0  0  0  0  0  0  0  0  0  0  0  0
   -2.3201   -0.3519    0.0000 H   0  0  0  0  0  0  0  0  0  0  0  0
    1.1538    0.4043    0.0000 H   0  0  0  0  0  0  0  0  0  0  0  0
  1 17  1  0  0  0  0
  2 16  2  0  0  0  0
  3 18  2  0  0  0  0
  4 13  1  0  0  0  0
  4 16  1  0  0  0  0
  4 22  1  0  0  0  0
  5 12  2  0  0  0  0
  5 17  1  0  0  0  0
  6 14  2  0  0  0  0
  6 19  1  0  0  0  0
  7 18  1  0  0  0  0
  7 19  2  0  0  0  0
  8 19  1  0  0  0  0
  8 23  1  0  0  0  0
  8 24  1  0  0  0  0
  9 10  1  0  0  0  0
  9 11  1  0  0  0  0
  9 14  1  0  0  0  0
  9 20  1  1  0  0  0
 10 12  1  0  0  0  0
 10 15  1  0  0  0  0
 10 21  1  1  0  0  0
 11 13  1  0  0  0  0
 11 25  1  0  0  0  0
 11 26  1  0  0  0  0
 12 16  1  0  0  0  0
 13 27  1  0  0  0  0
 13 28  1  0  0  0  0
 14 18  1  0  0  0  0
 15 17  2  0  0  0  0
 15 29  1  0  0  0  0
M  END
>  <DRUGBANK_ID>
DB02950

>  <SECONDARY_ACCESSION_NUMBERS>
EXPT01757

>  <COMMON_NAME>
Hymenialdisine

>  <UNII>
5WMS4GA67M

$$$$
