
 OpenBabel10282417072D

 38 39  0  0  1  0  0  0  0  0999 V2000
   -2.8579    2.4750    0.0000 C   0  0  0  0  0  0  0  0  0  0  0  0
   -2.1434    2.0625    0.0000 C   0  0  0  0  0  0  0  0  0  0  0  0
   -2.8579    3.3000    0.0000 C   0  0  0  0  0  0  0  0  0  0  0  0
   -1.4289    2.4750    0.0000 C   0  0  0  0  0  0  0  0  0  0  0  0
    0.0000    7.4250    0.0000 C   0  0  0  0  0  0  0  0  0  0  0  0
   -0.7145    6.1875    0.0000 C   0  0  0  0  0  0  0  0  0  0  0  0
   -2.1434    7.0125    0.0000 C   0  0  0  0  0  0  0  0  0  0  0  0
   -0.7145    7.0125    0.0000 C   0  0  2  0  0  0  0  0  0  0  0  0
    0.0000    8.2500    0.0000 C   0  0  1  0  0  0  0  0  0  0  0  0
   -1.4289    5.7750    0.0000 C   0  0  0  0  0  0  0  0  0  0  0  0
   -1.4289    7.4250    0.0000 C   0  0  0  0  0  0  0  0  0  0  0  0
   -2.1434    6.1875    0.0000 C   0  0  0  0  0  0  0  0  0  0  0  0
   -2.1434    3.7125    0.0000 C   0  0  0  0  0  0  0  0  0  0  0  0
    0.7145    8.6625    0.0000 C   0  0  0  0  0  0  0  0  0  0  0  0
   -0.7145    8.6625    0.0000 N   0  0  0  0  0  0  0  0  0  0  0  0
   -1.4289    3.3000    0.0000 N   0  0  0  0  0  0  0  0  0  0  0  0
   -1.4289    4.9500    0.0000 N   0  0  0  0  0  0  0  0  0  0  0  0
   -2.1434    4.5375    0.0000 N   0  0  0  0  0  0  0  0  0  0  0  0
   -1.4289    8.2500    0.0000 O   0  0  0  0  0  0  0  0  0  0  0  0
   -2.8579    5.7750    0.0000 O   0  0  0  0  0  0  0  0  0  0  0  0
    0.7145    9.4875    0.0000 O   0  0  0  0  0  0  0  0  0  0  0  0
    1.4289    8.2500    0.0000 O   0  0  0  0  0  0  0  0  0  0  0  0
    0.0000    6.6000    0.0000 H   0  0  0  0  0  0  0  0  0  0  0  0
    0.7145    7.8375    0.0000 H   0  0  0  0  0  0  0  0  0  0  0  0
   -3.7516    1.9590    0.0000 H   0  0  0  0  0  0  0  0  0  0  0  0
   -2.1434    1.0305    0.0000 H   0  0  0  0  0  0  0  0  0  0  0  0
   -3.7516    3.8160    0.0000 H   0  0  0  0  0  0  0  0  0  0  0  0
   -0.5352    1.9590    0.0000 H   0  0  0  0  0  0  0  0  0  0  0  0
    0.9266    6.8900    0.0000 H   0  0  0  0  0  0  0  0  0  0  0  0
    0.9266    7.9600    0.0000 H   0  0  0  0  0  0  0  0  0  0  0  0
    0.1792    5.6715    0.0000 H   0  0  0  0  0  0  0  0  0  0  0  0
   -3.0371    7.5285    0.0000 H   0  0  0  0  0  0  0  0  0  0  0  0
   -0.7145    9.6825    0.0000 H   0  0  0  0  0  0  0  0  0  0  0  0
   -1.5978    8.1525    0.0000 H   0  0  0  0  0  0  0  0  0  0  0  0
   -0.5763    4.4577    0.0000 H   0  0  0  0  0  0  0  0  0  0  0  0
   -2.9960    5.0298    0.0000 H   0  0  0  0  0  0  0  0  0  0  0  0
   -3.6694    6.2435    0.0000 H   0  0  0  0  0  0  0  0  0  0  0  0
    1.4289    7.3130    0.0000 H   0  0  0  0  0  0  0  0  0  0  0  0
  1 25  1  0  0  0  0
  2  1  2  0  0  0  0
  2 26  1  0  0  0  0
  3  1  1  0  0  0  0
  3 27  1  0  0  0  0
  4  2  1  0  0  0  0
  4 28  1  0  0  0  0
  5 29  1  0  0  0  0
  5 30  1  0  0  0  0
  6 31  1  0  0  0  0
  7 32  1  0  0  0  0
  8  5  1  0  0  0  0
  8  6  1  0  0  0  0
  8 23  1  1  0  0  0
  9  5  1  0  0  0  0
  9 15  1  0  0  0  0
  9 24  1  1  0  0  0
 10  6  2  0  0  0  0
 11  7  1  0  0  0  0
 11  8  1  0  0  0  0
 12  7  2  0  0  0  0
 12 10  1  0  0  0  0
 13  3  2  0  0  0  0
 14  9  1  0  0  0  0
 15 33  1  0  0  0  0
 15 34  1  0  0  0  0
 16  4  2  0  0  0  0
 16 13  1  0  0  0  0
 17 10  1  0  0  0  0
 17 35  1  0  0  0  0
 18 13  1  0  0  0  0
 18 17  1  0  0  0  0
 18 36  1  0  0  0  0
 19 11  2  0  0  0  0
 20 12  1  0  0  0  0
 20 37  1  0  0  0  0
 21 14  2  0  0  0  0
 22 14  1  0  0  0  0
 22 38  1  0  0  0  0
M  END
>  <DRUGBANK_ID>
DB01634

>  <SECONDARY_ACCESSION_NUMBERS>
EXPT02499

>  <COMMON_NAME>
2-Oxy-4-Hydroxy-5-(2-Hydrazinopyridine)Phenylalanine

$$$$
