
 OpenBabel10282417072D

 10  9  0  0  0  0  0  0  0  0999 V2000
    2.8075   -0.2615    0.0000 P   0  0  0  0  0  0  0  0  0  0  0  0
    2.0930   -0.6740    0.0000 O   0  0  0  0  0  0  0  0  0  0  0  0
    2.3950    0.4529    0.0000 O   0  0  0  0  0  0  0  0  0  0  0  0
    3.2200   -0.9760    0.0000 O   0  0  0  0  0  0  0  0  0  0  0  0
    4.2365   -0.2615    0.0000 O   0  0  0  0  0  0  0  0  0  0  0  0
    3.5220    0.9760    0.0000 O   0  0  0  0  0  0  0  0  0  0  0  0
    3.5220    0.1510    0.0000 C   0  0  0  0  0  0  0  0  0  0  0  0
    1.2530   -0.1890    0.0000 H   0  0  0  0  0  0  0  0  0  0  0  0
    2.8800    1.2930    0.0000 H   0  0  0  0  0  0  0  0  0  0  0  0
    4.2365   -1.1985    0.0000 H   0  0  0  0  0  0  0  0  0  0  0  0
  1  2  1  0  0  0  0
  1  3  1  0  0  0  0
  1  4  2  0  0  0  0
  1  7  1  0  0  0  0
  2  8  1  0  0  0  0
  3  9  1  0  0  0  0
  5  7  1  0  0  0  0
  5 10  1  0  0  0  0
  6  7  2  0  0  0  0
M  END
>  <DRUGBANK_ID>
DB00529

>  <SECONDARY_ACCESSION_NUMBERS>
APRD00669

>  <COMMON_NAME>
Foscarnet

>  <CAS_NUMBER>
4428-95-9

>  <UNII>
364P9RVW4X

>  <SYNONYMS>
Carboxyphosphonic acid; Foscarmet; Phosphonoformate; Phosphonoformic acid; Phosphonomethanoic acid

$$$$
