Guanosine.mol
 OpenBabel10282417072D

 33 35  0  0  0  0  0  0  0  0999 V2000
    2.8542    1.2513    0.0000 O   0  0  0  0  0  0  0  0  0  0  0  0
    2.0292    1.2513    0.0000 C   0  0  0  0  0  0  0  0  0  0  0  0
    1.6167    0.5368    0.0000 C   0  0  2  0  0  0  0  0  0  0  0  0
    1.9523   -0.2169    0.0000 C   0  0  1  0  0  0  0  0  0  0  0  0
    2.7593   -0.3884    0.0000 O   0  0  0  0  0  0  0  0  0  0  0  0
    1.3392   -0.7689    0.0000 C   0  0  1  0  0  0  0  0  0  0  0  0
    1.4254   -1.5894    0.0000 O   0  0  0  0  0  0  0  0  0  0  0  0
    0.6247   -0.3564    0.0000 C   0  0  1  0  0  0  0  0  0  0  0  0
    0.7963    0.4506    0.0000 O   0  0  0  0  0  0  0  0  0  0  0  0
   -0.1290   -0.6920    0.0000 N   0  0  0  0  0  0  0  0  0  0  0  0
   -0.3005   -1.4990    0.0000 C   0  0  0  0  0  0  0  0  0  0  0  0
   -1.1210   -1.5852    0.0000 N   0  0  0  0  0  0  0  0  0  0  0  0
   -1.4565   -0.8315    0.0000 C   0  0  0  0  0  0  0  0  0  0  0  0
   -2.2411   -0.5766    0.0000 C   0  0  0  0  0  0  0  0  0  0  0  0
   -2.8542   -1.1286    0.0000 O   0  0  0  0  0  0  0  0  0  0  0  0
   -2.4127    0.2304    0.0000 N   0  0  0  0  0  0  0  0  0  0  0  0
   -1.7996    0.7824    0.0000 C   0  0  0  0  0  0  0  0  0  0  0  0
   -1.9711    1.5894    0.0000 N   0  0  0  0  0  0  0  0  0  0  0  0
   -1.0149    0.5275    0.0000 N   0  0  0  0  0  0  0  0  0  0  0  0
   -0.8434   -0.2795    0.0000 C   0  0  0  0  0  0  0  0  0  0  0  0
    3.3392    0.4113    0.0000 H   0  0  0  0  0  0  0  0  0  0  0  0
    1.4942    2.1779    0.0000 H   0  0  0  0  0  0  0  0  0  0  0  0
    0.9592    1.2513    0.0000 H   0  0  0  0  0  0  0  0  0  0  0  0
    2.6852    0.4808    0.0000 H   0  0  0  0  0  0  0  0  0  0  0  0
    2.6256    0.6147    0.0000 H   0  0  0  0  0  0  0  0  0  0  0  0
    3.0591   -1.3109    0.0000 H   0  0  0  0  0  0  0  0  0  0  0  0
    2.3381   -1.1524    0.0000 H   0  0  0  0  0  0  0  0  0  0  0  0
    0.6406   -2.1595    0.0000 H   0  0  0  0  0  0  0  0  0  0  0  0
    1.6022    0.0788    0.0000 H   0  0  0  0  0  0  0  0  0  0  0  0
    0.3900   -2.2659    0.0000 H   0  0  0  0  0  0  0  0  0  0  0  0
   -3.3490    0.5346    0.0000 H   0  0  0  0  0  0  0  0  0  0  0  0
   -1.2394    2.2481    0.0000 H   0  0  0  0  0  0  0  0  0  0  0  0
   -2.9074    1.8937    0.0000 H   0  0  0  0  0  0  0  0  0  0  0  0
  1  2  1  0  0  0  0
  1 21  1  0  0  0  0
  2 22  1  0  0  0  0
  2 23  1  0  0  0  0
  3  2  1  0  0  0  0
  3  4  1  0  0  0  0
  3  9  1  0  0  0  0
  3 24  1  1  0  0  0
  4  5  1  0  0  0  0
  4  6  1  0  0  0  0
  4 25  1  6  0  0  0
  5 26  1  0  0  0  0
  6  7  1  0  0  0  0
  6  8  1  0  0  0  0
  6 27  1  6  0  0  0
  7 28  1  0  0  0  0
  8  9  1  0  0  0  0
  8 10  1  0  0  0  0
  8 29  1  1  0  0  0
 10 11  1  0  0  0  0
 10 20  1  0  0  0  0
 11 12  2  0  0  0  0
 11 30  1  0  0  0  0
 12 13  1  0  0  0  0
 13 14  1  0  0  0  0
 13 20  2  0  0  0  0
 14 15  2  0  0  0  0
 14 16  1  0  0  0  0
 16 17  1  0  0  0  0
 16 31  1  0  0  0  0
 17 18  1  0  0  0  0
 17 19  2  0  0  0  0
 18 32  1  0  0  0  0
 18 33  1  0  0  0  0
 19 20  1  0  0  0  0
M  END
>  <DRUGBANK_ID>
DB02857

>  <SECONDARY_ACCESSION_NUMBERS>
EXPT01622

>  <COMMON_NAME>
Guanosine

>  <CAS_NUMBER>
118-00-3

>  <UNII>
12133JR80S

>  <SYNONYMS>
2-amino-1,9-dihydro-9-β-D-ribofuranosyl-6H-purin-6-one; 2(3H)-imino-9-β-D-ribofuranosyl-9H-purin-6(1H)-one; 9-β-D-ribofuranosyl-guanine; Guanine riboside; Guanine-9-β-D-ribofuranoside; Guanosin; Guanosina; Guo

$$$$
