
 OpenBabel10282417072D

 38 40  0  0  0  0  0  0  0  0999 V2000
   -0.7858   -1.5392    0.0000 O   0  0  0  0  0  0  0  0  0  0  0  0
   -0.7026    2.2556    0.0000 O   0  0  0  0  0  0  0  0  0  0  0  0
   -2.0245   -0.8274    0.0000 O   0  0  0  0  0  0  0  0  0  0  0  0
    0.0000    1.0169    0.0000 N   0  0  0  0  0  0  0  0  0  0  0  0
    0.7026    2.2556    0.0000 N   0  0  0  0  0  0  0  0  0  0  0  0
   -0.7442    0.6470    0.0000 C   0  0  0  0  0  0  0  0  0  0  0  0
    0.7442    0.6470    0.0000 C   0  0  0  0  0  0  0  0  0  0  0  0
   -0.9060   -0.1803    0.0000 C   0  0  0  0  0  0  0  0  0  0  0  0
    0.9060   -0.1387    0.0000 C   0  0  0  0  0  0  0  0  0  0  0  0
   -0.4114   -0.7996    0.0000 C   0  0  2  0  0  0  0  0  0  0  0  0
    0.4114   -0.7996    0.0000 C   0  0  0  0  0  0  0  0  0  0  0  0
    0.0000    1.8443    0.0000 C   0  0  0  0  0  0  0  0  0  0  0  0
   -1.3636    1.2249    0.0000 C   0  0  0  0  0  0  0  0  0  0  0  0
   -1.6917   -0.4252    0.0000 C   0  0  0  0  0  0  0  0  0  0  0  0
    1.2804    1.2665    0.0000 C   0  0  0  0  0  0  0  0  0  0  0  0
    1.7333   -0.3420    0.0000 C   0  0  0  0  0  0  0  0  0  0  0  0
   -2.1447    0.9337    0.0000 C   0  0  0  0  0  0  0  0  0  0  0  0
   -2.3112    0.1524    0.0000 C   0  0  0  0  0  0  0  0  0  0  0  0
    2.1031    1.0169    0.0000 C   0  0  0  0  0  0  0  0  0  0  0  0
    2.3112    0.2356    0.0000 C   0  0  0  0  0  0  0  0  0  0  0  0
   -1.6085   -1.5392    0.0000 C   0  0  0  0  0  0  0  0  0  0  0  0
   -2.0245   -2.2556    0.0000 C   0  0  0  0  0  0  0  0  0  0  0  0
    1.5581    1.7685    0.0000 H   0  0  0  0  0  0  0  0  0  0  0  0
    0.6967    3.2401    0.0000 H   0  0  0  0  0  0  0  0  0  0  0  0
   -1.4758   -0.9092    0.0000 H   0  0  0  0  0  0  0  0  0  0  0  0
    0.8904   -1.7564    0.0000 H   0  0  0  0  0  0  0  0  0  0  0  0
   -0.1509   -1.7099    0.0000 H   0  0  0  0  0  0  0  0  0  0  0  0
   -1.1617    2.2369    0.0000 H   0  0  0  0  0  0  0  0  0  0  0  0
   -1.9211   -1.4314    0.0000 H   0  0  0  0  0  0  0  0  0  0  0  0
    0.9938    2.2579    0.0000 H   0  0  0  0  0  0  0  0  0  0  0  0
    2.0106   -1.3360    0.0000 H   0  0  0  0  0  0  0  0  0  0  0  0
   -2.9260    1.6079    0.0000 H   0  0  0  0  0  0  0  0  0  0  0  0
   -3.2955   -0.1577    0.0000 H   0  0  0  0  0  0  0  0  0  0  0  0
    2.8452    1.7340    0.0000 H   0  0  0  0  0  0  0  0  0  0  0  0
    3.3078   -0.0324    0.0000 H   0  0  0  0  0  0  0  0  0  0  0  0
   -3.0945   -2.2529    0.0000 H   0  0  0  0  0  0  0  0  0  0  0  0
   -1.4918   -3.1836    0.0000 H   0  0  0  0  0  0  0  0  0  0  0  0
   -2.5618   -3.1809    0.0000 H   0  0  0  0  0  0  0  0  0  0  0  0
  1 21  1  0  0  0  0
  2 12  2  0  0  0  0
  3 21  2  0  0  0  0
  4  6  1  0  0  0  0
  4  7  1  0  0  0  0
  4 12  1  0  0  0  0
  5 12  1  0  0  0  0
  5 23  1  0  0  0  0
  5 24  1  0  0  0  0
  6  8  1  0  0  0  0
  6 13  2  0  0  0  0
  7  9  1  0  0  0  0
  7 15  2  0  0  0  0
  8 10  1  0  0  0  0
  8 14  2  0  0  0  0
  9 11  1  0  0  0  0
  9 16  2  0  0  0  0
 10  1  1  0  0  0  0
 10 11  1  0  0  0  0
 10 25  1  1  0  0  0
 11 26  1  0  0  0  0
 11 27  1  0  0  0  0
 13 17  1  0  0  0  0
 13 28  1  0  0  0  0
 14 18  1  0  0  0  0
 14 29  1  0  0  0  0
 15 19  1  0  0  0  0
 15 30  1  0  0  0  0
 16 20  1  0  0  0  0
 16 31  1  0  0  0  0
 17 18  2  0  0  0  0
 17 32  1  0  0  0  0
 18 33  1  0  0  0  0
 19 20  2  0  0  0  0
 19 34  1  0  0  0  0
 20 35  1  0  0  0  0
 21 22  1  0  0  0  0
 22 36  1  0  0  0  0
 22 37  1  0  0  0  0
 22 38  1  0  0  0  0
M  END
>  <DRUGBANK_ID>
DB09119

>  <COMMON_NAME>
Eslicarbazepine acetate

>  <CAS_NUMBER>
236395-14-5

>  <UNII>
BEA68ZVB2K

>  <SYNONYMS>
(10S)-10-acetoxy-10,11-dihydro-5H-dibenz[b,f]azepine-5-carboxamide; (10S)-5-carbamoyl-10,11-dihydro-5H-dibenzo[b,f]azepin-10-yl acetate; ESL; Eslicarbazepine acetate

$$$$
