
 OpenBabel10282417072D

 85 87  0  0  0  0  0  0  0  0999 V2000
   -0.7689    0.8884    0.0000 C   0  0  0  0  0  0  0  0  0  0  0  0
   -0.0545    1.3008    0.0000 C   0  0  0  0  0  0  0  0  0  0  0  0
    0.6599    0.8884    0.0000 P   0  0  1  0  0  0  0  0  0  0  0  0
    0.2475    0.1739    0.0000 O   0  0  0  0  0  0  0  0  0  0  0  0
    1.4262   -0.5066    0.0000 C   0  0  2  0  0  0  0  0  0  0  0  0
    1.4262   -1.3317    0.0000 O   0  0  0  0  0  0  0  0  0  0  0  0
    2.2016   -1.6139    0.0000 C   0  0  0  0  0  0  0  0  0  0  0  0
    2.3450   -2.4263    0.0000 C   0  0  0  0  0  0  0  0  0  0  0  0
    3.1202   -2.7085    0.0000 C   0  0  0  0  0  0  0  0  0  0  0  0
    2.8336   -1.0836    0.0000 O   0  0  0  0  0  0  0  0  0  0  0  0
    2.1408   -0.0942    0.0000 C   0  0  0  0  0  0  0  0  0  0  0  0
    2.8553   -0.5066    0.0000 C   0  0  0  0  0  0  0  0  0  0  0  0
    2.1408    0.7307    0.0000 C   0  0  0  0  0  0  0  0  0  0  0  0
    1.0725    1.6028    0.0000 C   0  0  0  0  0  0  0  0  0  0  0  0
    0.6599    2.3174    0.0000 C   0  0  0  0  0  0  0  0  0  0  0  0
   -0.1525    2.1740    0.0000 C   0  0  0  0  0  0  0  0  0  0  0  0
   -0.6827    2.8060    0.0000 C   0  0  0  0  0  0  0  0  0  0  0  0
   -1.4952    2.6627    0.0000 C   0  0  0  0  0  0  0  0  0  0  0  0
   -1.7774    1.8875    0.0000 C   0  0  0  0  0  0  0  0  0  0  0  0
   -2.5898    1.7442    0.0000 C   0  0  0  0  0  0  0  0  0  0  0  0
   -3.1202    2.3762    0.0000 C   0  0  0  0  0  0  0  0  0  0  0  0
   -2.8379    3.1516    0.0000 C   0  0  0  0  0  0  0  0  0  0  0  0
   -2.0255    3.2948    0.0000 C   0  0  0  0  0  0  0  0  0  0  0  0
    1.3744    0.4757    0.0000 O   0  0  0  0  0  0  0  0  0  0  0  0
   -1.4834    1.3008    0.0000 O   0  0  0  0  0  0  0  0  0  0  0  0
   -0.7689    0.0634    0.0000 N   0  0  0  0  0  0  0  0  0  0  0  0
   -0.1015   -0.4216    0.0000 C   0  0  0  0  0  0  0  0  0  0  0  0
   -0.3564   -1.2061    0.0000 C   0  0  2  0  0  0  0  0  0  0  0  0
    0.1285   -1.8736    0.0000 C   0  0  0  0  0  0  0  0  0  0  0  0
   -0.2071   -2.6273    0.0000 C   0  0  0  0  0  0  0  0  0  0  0  0
    0.2779   -3.2948    0.0000 C   0  0  0  0  0  0  0  0  0  0  0  0
    1.0983   -3.2085    0.0000 C   0  0  0  0  0  0  0  0  0  0  0  0
    1.4338   -2.4548    0.0000 C   0  0  0  0  0  0  0  0  0  0  0  0
    0.9490   -1.7874    0.0000 C   0  0  0  0  0  0  0  0  0  0  0  0
   -1.1814   -1.2061    0.0000 C   0  0  0  0  0  0  0  0  0  0  0  0
   -1.4363   -0.4216    0.0000 C   0  0  1  0  0  0  0  0  0  0  0  0
   -2.2211   -0.1666    0.0000 C   0  0  0  0  0  0  0  0  0  0  0  0
   -2.8340   -0.7186    0.0000 O   0  0  0  0  0  0  0  0  0  0  0  0
   -2.3925    0.6402    0.0000 O   0  0  0  0  0  0  0  0  0  0  0  0
   -0.0545    2.3708    0.0000 H   0  0  0  0  0  0  0  0  0  0  0  0
    0.8721    1.8358    0.0000 H   0  0  0  0  0  0  0  0  0  0  0  0
    0.4996   -1.0416    0.0000 H   0  0  0  0  0  0  0  0  0  0  0  0
    1.5254   -3.1141    0.0000 H   0  0  0  0  0  0  0  0  0  0  0  0
    2.5308   -3.4800    0.0000 H   0  0  0  0  0  0  0  0  0  0  0  0
    3.3059   -3.7623    0.0000 H   0  0  0  0  0  0  0  0  0  0  0  0
    3.9399   -2.0208    0.0000 H   0  0  0  0  0  0  0  0  0  0  0  0
    4.1257   -3.0745    0.0000 H   0  0  0  0  0  0  0  0  0  0  0  0
    3.0674    0.4409    0.0000 H   0  0  0  0  0  0  0  0  0  0  0  0
    2.8554   -1.5766    0.0000 H   0  0  0  0  0  0  0  0  0  0  0  0
    3.7819    0.0285    0.0000 H   0  0  0  0  0  0  0  0  0  0  0  0
    3.7820   -1.0415    0.0000 H   0  0  0  0  0  0  0  0  0  0  0  0
    3.0674    1.2657    0.0000 H   0  0  0  0  0  0  0  0  0  0  0  0
    1.2142    1.2657    0.0000 H   0  0  0  0  0  0  0  0  0  0  0  0
    2.1408    1.8007    0.0000 H   0  0  0  0  0  0  0  0  0  0  0  0
    2.1425    1.6027    0.0000 H   0  0  0  0  0  0  0  0  0  0  0  0
    1.6075    2.5294    0.0000 H   0  0  0  0  0  0  0  0  0  0  0  0
    1.1120    3.2872    0.0000 H   0  0  0  0  0  0  0  0  0  0  0  0
    0.0084    3.1662    0.0000 H   0  0  0  0  0  0  0  0  0  0  0  0
   -0.5184    1.1685    0.0000 H   0  0  0  0  0  0  0  0  0  0  0  0
   -1.2063    1.9882    0.0000 H   0  0  0  0  0  0  0  0  0  0  0  0
   -0.3167    3.8115    0.0000 H   0  0  0  0  0  0  0  0  0  0  0  0
   -1.3705    3.6257    0.0000 H   0  0  0  0  0  0  0  0  0  0  0  0
   -1.1140    1.0969    0.0000 H   0  0  0  0  0  0  0  0  0  0  0  0
   -2.9427    0.7744    0.0000 H   0  0  0  0  0  0  0  0  0  0  0  0
   -4.1365    2.1970    0.0000 H   0  0  0  0  0  0  0  0  0  0  0  0
   -3.5012    3.9422    0.0000 H   0  0  0  0  0  0  0  0  0  0  0  0
   -1.6725    4.2645    0.0000 H   0  0  0  0  0  0  0  0  0  0  0  0
    0.9161   -0.0910    0.0000 H   0  0  0  0  0  0  0  0  0  0  0  0
    0.6551   -1.1782    0.0000 H   0  0  0  0  0  0  0  0  0  0  0  0
    0.7004   -1.0388    0.0000 H   0  0  0  0  0  0  0  0  0  0  0  0
    0.7574   -2.7393    0.0000 H   0  0  0  0  0  0  0  0  0  0  0  0
   -1.2712   -2.7391    0.0000 H   0  0  0  0  0  0  0  0  0  0  0  0
   -0.6423   -3.6048    0.0000 H   0  0  0  0  0  0  0  0  0  0  0  0
   -0.1572   -4.2723    0.0000 H   0  0  0  0  0  0  0  0  0  0  0  0
    0.9069   -4.1604    0.0000 H   0  0  0  0  0  0  0  0  0  0  0  0
    1.7273   -4.0741    0.0000 H   0  0  0  0  0  0  0  0  0  0  0  0
    2.1624   -3.0966    0.0000 H   0  0  0  0  0  0  0  0  0  0  0  0
    2.4979   -2.3430    0.0000 H   0  0  0  0  0  0  0  0  0  0  0  0
    1.8691   -1.4773    0.0000 H   0  0  0  0  0  0  0  0  0  0  0  0
    1.3843   -0.8099    0.0000 H   0  0  0  0  0  0  0  0  0  0  0  0
    0.3201   -0.9217    0.0000 H   0  0  0  0  0  0  0  0  0  0  0  0
   -1.8103   -2.0717    0.0000 H   0  0  0  0  0  0  0  0  0  0  0  0
   -2.2382   -1.0387    0.0000 H   0  0  0  0  0  0  0  0  0  0  0  0
   -2.1929   -1.1782    0.0000 H   0  0  0  0  0  0  0  0  0  0  0  0
   -3.7252   -0.4292    0.0000 H   0  0  0  0  0  0  0  0  0  0  0  0
  1  2  1  0  0  0  0
  1 25  2  0  0  0  0
  1 26  1  0  0  0  0
  2  3  1  0  0  0  0
  2 40  1  0  0  0  0
  2 41  1  0  0  0  0
  3  4  1  0  0  0  0
  3 14  1  0  0  0  0
  3 24  2  1  0  0  0
  4  5  1  0  0  0  0
  5  6  1  0  0  0  0
  5 11  1  0  0  0  0
  5 42  1  6  0  0  0
  6  7  1  0  0  0  0
  7  8  1  0  0  0  0
  7 10  2  0  0  0  0
  8  9  1  0  0  0  0
  8 43  1  0  0  0  0
  8 44  1  0  0  0  0
  9 45  1  0  0  0  0
  9 46  1  0  0  0  0
  9 47  1  0  0  0  0
 11 12  1  0  0  0  0
 11 13  1  0  0  0  0
 11 48  1  0  0  0  0
 12 49  1  0  0  0  0
 12 50  1  0  0  0  0
 12 51  1  0  0  0  0
 13 52  1  0  0  0  0
 13 53  1  0  0  0  0
 13 54  1  0  0  0  0
 14 15  1  0  0  0  0
 14 55  1  0  0  0  0
 14 56  1  0  0  0  0
 15 16  1  0  0  0  0
 15 57  1  0  0  0  0
 15 58  1  0  0  0  0
 16 17  1  0  0  0  0
 16 59  1  0  0  0  0
 16 60  1  0  0  0  0
 17 18  1  0  0  0  0
 17 61  1  0  0  0  0
 17 62  1  0  0  0  0
 18 19  2  0  0  0  0
 18 23  1  0  0  0  0
 19 20  1  0  0  0  0
 19 63  1  0  0  0  0
 20 21  2  0  0  0  0
 20 64  1  0  0  0  0
 21 65  1  0  0  0  0
 22 21  1  0  0  0  0
 22 66  1  0  0  0  0
 23 22  2  0  0  0  0
 23 67  1  0  0  0  0
 26 27  1  0  0  0  0
 26 36  1  0  0  0  0
 27 28  1  0  0  0  0
 27 68  1  0  0  0  0
 27 69  1  0  0  0  0
 28 29  1  0  0  0  0
 28 35  1  0  0  0  0
 28 70  1  1  0  0  0
 29 30  1  0  0  0  0
 29 34  1  0  0  0  0
 29 71  1  0  0  0  0
 30 31  1  0  0  0  0
 30 72  1  0  0  0  0
 30 73  1  0  0  0  0
 31 32  1  0  0  0  0
 31 74  1  0  0  0  0
 31 75  1  0  0  0  0
 32 76  1  0  0  0  0
 32 77  1  0  0  0  0
 33 32  1  0  0  0  0
 33 78  1  0  0  0  0
 33 79  1  0  0  0  0
 34 33  1  0  0  0  0
 34 80  1  0  0  0  0
 34 81  1  0  0  0  0
 35 82  1  0  0  0  0
 35 83  1  0  0  0  0
 36 35  1  0  0  0  0
 36 37  1  0  0  0  0
 36 84  1  6  0  0  0
 37 38  1  0  0  0  0
 37 39  2  0  0  0  0
 38 85  1  0  0  0  0
M  END
>  <DRUGBANK_ID>
DB00492

>  <SECONDARY_ACCESSION_NUMBERS>
APRD00526

>  <COMMON_NAME>
Fosinopril

>  <CAS_NUMBER>
98048-97-6

>  <UNII>
R43D2573WO

>  <SYNONYMS>
Fosenopril; Fosinopril

$$$$
