
 OpenBabel10282417072D

 87 93  0  0  1  0  0  0  0  0999 V2000
    2.9173  -13.6557    0.0000 C   0  0  0  0  0  0  0  0  0  0  0  0
    2.5817  -14.4094    0.0000 C   0  0  0  0  0  0  0  0  0  0  0  0
    3.0667  -15.0768    0.0000 C   0  0  0  0  0  0  0  0  0  0  0  0
    2.7311  -15.8305    0.0000 C   0  0  0  0  0  0  0  0  0  0  0  0
    1.9106  -15.9167    0.0000 C   0  0  0  0  0  0  0  0  0  0  0  0
    1.4257  -15.2493    0.0000 C   0  0  0  0  0  0  0  0  0  0  0  0
    1.7613  -14.4956    0.0000 C   0  0  0  0  0  0  0  0  0  0  0  0
    1.2763  -13.8282    0.0000 O   0  0  0  0  0  0  0  0  0  0  0  0
    1.6119  -13.0745    0.0000 C   0  0  0  0  0  0  0  0  0  0  0  0
    1.1270  -12.4070    0.0000 C   0  0  2  0  0  0  0  0  0  0  0  0
    0.3020  -12.4070    0.0000 C   0  0  0  0  0  0  0  0  0  0  0  0
    0.0470  -11.6224    0.0000 O   0  0  0  0  0  0  0  0  0  0  0  0
    0.7145  -11.1375    0.0000 C   0  0  2  0  0  0  0  0  0  0  0  0
    0.1624  -10.5244    0.0000 C   0  0  0  0  0  0  0  0  0  0  0  0
   -0.6445  -10.6959    0.0000 N   0  0  0  0  0  0  0  0  0  0  0  0
   -1.2576  -10.1439    0.0000 C   0  0  0  0  0  0  0  0  0  0  0  0
   -1.9721  -10.5564    0.0000 N   0  0  0  0  0  0  0  0  0  0  0  0
   -1.8006  -11.3634    0.0000 C   0  0  0  0  0  0  0  0  0  0  0  0
   -0.9801  -11.4496    0.0000 N   0  0  0  0  0  0  0  0  0  0  0  0
    1.3819  -11.6224    0.0000 C   0  0  0  0  0  0  0  0  0  0  0  0
    1.2665  -10.5244    0.0000 C   0  0  0  0  0  0  0  0  0  0  0  0
    1.0116   -9.7398    0.0000 C   0  0  0  0  0  0  0  0  0  0  0  0
    1.5636   -9.1267    0.0000 C   0  0  0  0  0  0  0  0  0  0  0  0
    2.3706   -9.2982    0.0000 C   0  0  0  0  0  0  0  0  0  0  0  0
    2.9226   -8.6851    0.0000 F   0  0  0  0  0  0  0  0  0  0  0  0
    2.6255  -10.0828    0.0000 C   0  0  0  0  0  0  0  0  0  0  0  0
    2.0735  -10.6959    0.0000 C   0  0  0  0  0  0  0  0  0  0  0  0
    2.3284  -11.4806    0.0000 F   0  0  0  0  0  0  0  0  0  0  0  0
    3.2160  -16.4979    0.0000 N   0  0  0  0  0  0  0  0  0  0  0  0
    4.0365  -16.4117    0.0000 C   0  0  0  0  0  0  0  0  0  0  0  0
    4.5214  -17.0791    0.0000 C   0  0  0  0  0  0  0  0  0  0  0  0
    4.1859  -17.8328    0.0000 N   0  0  0  0  0  0  0  0  0  0  0  0
    3.3654  -17.9190    0.0000 C   0  0  0  0  0  0  0  0  0  0  0  0
    2.8805  -17.2516    0.0000 C   0  0  0  0  0  0  0  0  0  0  0  0
    4.6708  -18.5002    0.0000 C   0  0  0  0  0  0  0  0  0  0  0  0
    5.4913  -18.4140    0.0000 C   0  0  0  0  0  0  0  0  0  0  0  0
    5.9762  -19.0814    0.0000 C   0  0  0  0  0  0  0  0  0  0  0  0
    5.6406  -19.8351    0.0000 C   0  0  0  0  0  0  0  0  0  0  0  0
    4.8202  -19.9213    0.0000 C   0  0  0  0  0  0  0  0  0  0  0  0
    4.3352  -19.2539    0.0000 C   0  0  0  0  0  0  0  0  0  0  0  0
    6.1256  -20.5025    0.0000 C   0  0  0  0  0  0  0  0  0  0  0  0
    5.7900  -21.2562    0.0000 O   0  0  0  0  0  0  0  0  0  0  0  0
    6.9460  -20.4163    0.0000 N   0  0  0  0  0  0  0  0  0  0  0  0
    7.4310  -21.0838    0.0000 C   0  0  0  0  0  0  0  0  0  0  0  0
    8.2514  -20.9975    0.0000 C   0  0  0  0  0  0  0  0  0  0  0  0
    8.7364  -21.6650    0.0000 C   0  0  0  0  0  0  0  0  0  0  0  0
    8.4008  -22.4186    0.0000 C   0  0  0  0  0  0  0  0  0  0  0  0
    8.8857  -23.0861    0.0000 F   0  0  0  0  0  0  0  0  0  0  0  0
    7.5803  -22.5049    0.0000 C   0  0  0  0  0  0  0  0  0  0  0  0
    7.0954  -21.8374    0.0000 C   0  0  0  0  0  0  0  0  0  0  0  0
    3.9814  -13.5439    0.0000 H   0  0  0  0  0  0  0  0  0  0  0  0
    2.2884  -12.7900    0.0000 H   0  0  0  0  0  0  0  0  0  0  0  0
    3.3525  -12.6782    0.0000 H   0  0  0  0  0  0  0  0  0  0  0  0
    4.0930  -14.9689    0.0000 H   0  0  0  0  0  0  0  0  0  0  0  0
    1.4908  -16.8595    0.0000 H   0  0  0  0  0  0  0  0  0  0  0  0
    0.3994  -15.3572    0.0000 H   0  0  0  0  0  0  0  0  0  0  0  0
    2.6760  -12.9627    0.0000 H   0  0  0  0  0  0  0  0  0  0  0  0
    2.0472  -12.0970    0.0000 H   0  0  0  0  0  0  0  0  0  0  0  0
    0.6412  -13.3604    0.0000 H   0  0  0  0  0  0  0  0  0  0  0  0
   -0.3269  -13.2727    0.0000 H   0  0  0  0  0  0  0  0  0  0  0  0
   -0.7548  -12.2397    0.0000 H   0  0  0  0  0  0  0  0  0  0  0  0
    0.4930   -9.5068    0.0000 H   0  0  0  0  0  0  0  0  0  0  0  0
   -0.5536   -9.7292    0.0000 H   0  0  0  0  0  0  0  0  0  0  0  0
   -1.1497   -9.1176    0.0000 H   0  0  0  0  0  0  0  0  0  0  0  0
   -2.4911  -12.1303    0.0000 H   0  0  0  0  0  0  0  0  0  0  0  0
    2.3995  -11.2917    0.0000 H   0  0  0  0  0  0  0  0  0  0  0  0
    2.1385  -12.3790    0.0000 H   0  0  0  0  0  0  0  0  0  0  0  0
    0.0022   -9.5252    0.0000 H   0  0  0  0  0  0  0  0  0  0  0  0
    1.2447   -8.1452    0.0000 H   0  0  0  0  0  0  0  0  0  0  0  0
    3.6349  -10.2974    0.0000 H   0  0  0  0  0  0  0  0  0  0  0  0
    4.4717  -15.4342    0.0000 H   0  0  0  0  0  0  0  0  0  0  0  0
    5.1006  -16.2999    0.0000 H   0  0  0  0  0  0  0  0  0  0  0  0
    5.5855  -16.9672    0.0000 H   0  0  0  0  0  0  0  0  0  0  0  0
    5.1504  -17.9447    0.0000 H   0  0  0  0  0  0  0  0  0  0  0  0
    2.9302  -18.8965    0.0000 H   0  0  0  0  0  0  0  0  0  0  0  0
    2.3013  -18.0308    0.0000 H   0  0  0  0  0  0  0  0  0  0  0  0
    1.8164  -17.3635    0.0000 H   0  0  0  0  0  0  0  0  0  0  0  0
    2.2515  -16.3860    0.0000 H   0  0  0  0  0  0  0  0  0  0  0  0
    5.9111  -17.4712    0.0000 H   0  0  0  0  0  0  0  0  0  0  0  0
    7.0025  -18.9735    0.0000 H   0  0  0  0  0  0  0  0  0  0  0  0
    4.4005  -20.8641    0.0000 H   0  0  0  0  0  0  0  0  0  0  0  0
    3.3089  -19.3618    0.0000 H   0  0  0  0  0  0  0  0  0  0  0  0
    7.3464  -19.5169    0.0000 H   0  0  0  0  0  0  0  0  0  0  0  0
    8.6711  -20.0547    0.0000 H   0  0  0  0  0  0  0  0  0  0  0  0
    9.7627  -21.5572    0.0000 H   0  0  0  0  0  0  0  0  0  0  0  0
    7.1606  -23.4477    0.0000 H   0  0  0  0  0  0  0  0  0  0  0  0
    6.0690  -21.9452    0.0000 H   0  0  0  0  0  0  0  0  0  0  0  0
  1  2  1  0  0  0  0
  1 51  1  0  0  0  0
  1 52  1  0  0  0  0
  1 53  1  0  0  0  0
  2  3  2  0  0  0  0
  2  7  1  0  0  0  0
  3  4  1  0  0  0  0
  3 54  1  0  0  0  0
  4  5  2  0  0  0  0
  4 29  1  0  0  0  0
  5  6  1  0  0  0  0
  5 55  1  0  0  0  0
  6  7  2  0  0  0  0
  6 56  1  0  0  0  0
  7  8  1  0  0  0  0
  8  9  1  0  0  0  0
  9 57  1  0  0  0  0
  9 58  1  0  0  0  0
 10  9  1  0  0  0  0
 10 11  1  0  0  0  0
 10 20  1  0  0  0  0
 10 59  1  1  0  0  0
 11 12  1  0  0  0  0
 11 60  1  0  0  0  0
 11 61  1  0  0  0  0
 13 12  1  0  0  0  0
 13 14  1  6  0  0  0
 13 20  1  0  0  0  0
 13 21  1  0  0  0  0
 14 15  1  0  0  0  0
 14 62  1  0  0  0  0
 14 63  1  0  0  0  0
 15 16  1  0  0  0  0
 15 19  1  0  0  0  0
 16 17  2  0  0  0  0
 16 64  1  0  0  0  0
 17 18  1  0  0  0  0
 18 19  2  0  0  0  0
 18 65  1  0  0  0  0
 20 66  1  0  0  0  0
 20 67  1  0  0  0  0
 21 22  2  0  0  0  0
 21 27  1  0  0  0  0
 22 23  1  0  0  0  0
 22 68  1  0  0  0  0
 23 24  2  0  0  0  0
 23 69  1  0  0  0  0
 24 25  1  0  0  0  0
 24 26  1  0  0  0  0
 26 27  2  0  0  0  0
 26 70  1  0  0  0  0
 27 28  1  0  0  0  0
 29 30  1  0  0  0  0
 29 34  1  0  0  0  0
 30 31  1  0  0  0  0
 30 71  1  0  0  0  0
 30 72  1  0  0  0  0
 31 32  1  0  0  0  0
 31 73  1  0  0  0  0
 31 74  1  0  0  0  0
 32 33  1  0  0  0  0
 32 35  1  0  0  0  0
 33 34  1  0  0  0  0
 33 75  1  0  0  0  0
 33 76  1  0  0  0  0
 34 77  1  0  0  0  0
 34 78  1  0  0  0  0
 35 36  2  0  0  0  0
 35 40  1  0  0  0  0
 36 37  1  0  0  0  0
 36 79  1  0  0  0  0
 37 38  2  0  0  0  0
 37 80  1  0  0  0  0
 38 39  1  0  0  0  0
 38 41  1  0  0  0  0
 39 40  2  0  0  0  0
 39 81  1  0  0  0  0
 40 82  1  0  0  0  0
 41 42  2  0  0  0  0
 41 43  1  0  0  0  0
 43 44  1  0  0  0  0
 43 83  1  0  0  0  0
 44 45  2  0  0  0  0
 44 50  1  0  0  0  0
 45 46  1  0  0  0  0
 45 84  1  0  0  0  0
 46 47  2  0  0  0  0
 46 85  1  0  0  0  0
 47 48  1  0  0  0  0
 47 49  1  0  0  0  0
 49 50  2  0  0  0  0
 49 86  1  0  0  0  0
 50 87  1  0  0  0  0
M  END
>  <DRUGBANK_ID>
DB18251

>  <COMMON_NAME>
Opelconazole

>  <CAS_NUMBER>
1931946-73-4

>  <UNII>
45LU8Q6ASU

>  <SYNONYMS>
D-threo-pentitol, 2,5-anhydro-1,3,4-trideoxy-2-c-(2,4-difluorophenyl)-4-((4-(4-(4-(((4-fluorophenyl)amino)carbonyl)phenyl)-1-piperazinyl)-2-methylphenoxy)methyl)-1-(1h-1,2,4-triazol-1-yl)-; Opelconazole(inn)

$$$$
