1241
 OpenBabel10282417072D

 40 40  0  0  0  0  0  0  0  0999 V2000
    3.0791   -0.8745    0.0000 O   0  0  0  0  0  0  0  0  0  0  0  0
    5.2224    2.8381    0.0000 O   0  0  0  0  0  0  0  0  0  0  0  0
    3.7935    2.8381    0.0000 O   0  0  0  0  0  0  0  0  0  0  0  0
    4.5080    1.6005    0.0000 C   0  0  0  0  0  0  0  0  0  0  0  0
    4.5080    0.7755    0.0000 C   0  0  0  0  0  0  0  0  0  0  0  0
    3.7935    0.3630    0.0000 C   0  0  0  0  0  0  0  0  0  0  0  0
    5.3330    1.6005    0.0000 C   0  0  0  0  0  0  0  0  0  0  0  0
    3.6830    1.6005    0.0000 C   0  0  0  0  0  0  0  0  0  0  0  0
    3.7935   -0.4620    0.0000 C   0  0  0  0  0  0  0  0  0  0  0  0
    4.5080    2.4256    0.0000 C   0  0  0  0  0  0  0  0  0  0  0  0
    3.0791   -1.6995    0.0000 C   0  0  0  0  0  0  0  0  0  0  0  0
    2.3645   -2.1120    0.0000 C   0  0  0  0  0  0  0  0  0  0  0  0
    3.7935   -2.1120    0.0000 C   0  0  0  0  0  0  0  0  0  0  0  0
    3.7935   -2.9371    0.0000 C   0  0  0  0  0  0  0  0  0  0  0  0
    2.3645   -2.9371    0.0000 C   0  0  0  0  0  0  0  0  0  0  0  0
    3.0791   -3.3496    0.0000 C   0  0  0  0  0  0  0  0  0  0  0  0
    1.6500   -1.6995    0.0000 C   0  0  0  0  0  0  0  0  0  0  0  0
    4.5080   -3.3496    0.0000 C   0  0  0  0  0  0  0  0  0  0  0  0
    6.0339    2.3696    0.0000 H   0  0  0  0  0  0  0  0  0  0  0  0
    5.4346    0.2405    0.0000 H   0  0  0  0  0  0  0  0  0  0  0  0
    4.5080   -0.2945    0.0000 H   0  0  0  0  0  0  0  0  0  0  0  0
    2.8669    0.8980    0.0000 H   0  0  0  0  0  0  0  0  0  0  0  0
    2.8669   -0.1720    0.0000 H   0  0  0  0  0  0  0  0  0  0  0  0
    5.8680    0.6739    0.0000 H   0  0  0  0  0  0  0  0  0  0  0  0
    5.8680    2.5271    0.0000 H   0  0  0  0  0  0  0  0  0  0  0  0
    6.4030    1.6005    0.0000 H   0  0  0  0  0  0  0  0  0  0  0  0
    3.1480    2.5271    0.0000 H   0  0  0  0  0  0  0  0  0  0  0  0
    3.1480    0.6739    0.0000 H   0  0  0  0  0  0  0  0  0  0  0  0
    2.6130    1.6005    0.0000 H   0  0  0  0  0  0  0  0  0  0  0  0
    4.7202   -0.9970    0.0000 H   0  0  0  0  0  0  0  0  0  0  0  0
    4.7201    0.0730    0.0000 H   0  0  0  0  0  0  0  0  0  0  0  0
    4.6872   -1.5960    0.0000 H   0  0  0  0  0  0  0  0  0  0  0  0
    1.4708   -3.4531    0.0000 H   0  0  0  0  0  0  0  0  0  0  0  0
    3.0792   -4.3816    0.0000 H   0  0  0  0  0  0  0  0  0  0  0  0
    1.6500   -0.6295    0.0000 H   0  0  0  0  0  0  0  0  0  0  0  0
    0.7234   -2.2345    0.0000 H   0  0  0  0  0  0  0  0  0  0  0  0
    0.7233   -1.1645    0.0000 H   0  0  0  0  0  0  0  0  0  0  0  0
    4.5080   -4.4196    0.0000 H   0  0  0  0  0  0  0  0  0  0  0  0
    5.4346   -2.8146    0.0000 H   0  0  0  0  0  0  0  0  0  0  0  0
    5.4347   -3.8846    0.0000 H   0  0  0  0  0  0  0  0  0  0  0  0
  1  9  1  0  0  0  0
  1 11  1  0  0  0  0
  2 10  1  0  0  0  0
  2 19  1  0  0  0  0
  3 10  2  0  0  0  0
  4  5  1  0  0  0  0
  4  7  1  0  0  0  0
  4  8  1  0  0  0  0
  4 10  1  0  0  0  0
  5  6  1  0  0  0  0
  5 20  1  0  0  0  0
  5 21  1  0  0  0  0
  6  9  1  0  0  0  0
  6 22  1  0  0  0  0
  6 23  1  0  0  0  0
  7 24  1  0  0  0  0
  7 25  1  0  0  0  0
  7 26  1  0  0  0  0
  8 27  1  0  0  0  0
  8 28  1  0  0  0  0
  8 29  1  0  0  0  0
  9 30  1  0  0  0  0
  9 31  1  0  0  0  0
 11 12  2  0  0  0  0
 11 13  1  0  0  0  0
 12 15  1  0  0  0  0
 12 17  1  0  0  0  0
 13 14  2  0  0  0  0
 13 32  1  0  0  0  0
 14 16  1  0  0  0  0
 14 18  1  0  0  0  0
 15 16  2  0  0  0  0
 15 33  1  0  0  0  0
 16 34  1  0  0  0  0
 17 35  1  0  0  0  0
 17 36  1  0  0  0  0
 17 37  1  0  0  0  0
 18 38  1  0  0  0  0
 18 39  1  0  0  0  0
 18 40  1  0  0  0  0
M  END
>  <DRUGBANK_ID>
DB01241

>  <SECONDARY_ACCESSION_NUMBERS>
APRD00293

>  <COMMON_NAME>
Gemfibrozil

>  <CAS_NUMBER>
25812-30-0

>  <UNII>
Q8X02027X3

>  <SYNONYMS>
2,2-Dimethyl-5-(2,5-dimethylphenoxy)valeriansäure; 2,2-Dimethyl-5-(2,5-xylyloxy)valeriansäure; 2,2-Dimethyl-5-(2,5-xylyloxy)valeric acid; Gemfibrozil; Gemfibrozilo; Gemfibrozilum

$$$$
