
 OpenBabel10282417072D

119121  0  0  0  0  0  0  0  0999 V2000
   -4.2868    1.4437    0.0000 C   0  0  0  0  0  0  0  0  0  0  0  0
   -5.0012    1.0312    0.0000 C   0  0  0  0  0  0  0  0  0  0  0  0
   -5.7158    1.4437    0.0000 C   0  0  0  0  0  0  0  0  0  0  0  0
   -6.4302    1.0312    0.0000 C   0  0  0  0  0  0  0  0  0  0  0  0
   -7.1446    1.4437    0.0000 C   0  0  0  0  0  0  0  0  0  0  0  0
   -7.8592    1.0312    0.0000 C   0  0  0  0  0  0  0  0  0  0  0  0
   -8.5736    1.4437    0.0000 C   0  0  0  0  0  0  0  0  0  0  0  0
   -9.2881    1.0312    0.0000 C   0  0  0  0  0  0  0  0  0  0  0  0
  -10.0025    1.4437    0.0000 C   0  0  0  0  0  0  0  0  0  0  0  0
   -9.2881    0.2062    0.0000 C   0  0  0  0  0  0  0  0  0  0  0  0
   -3.5723    1.0312    0.0000 C   0  0  0  0  0  0  0  0  0  0  0  0
   -2.8578    1.4437    0.0000 C   0  0  0  0  0  0  0  0  0  0  0  0
   -2.8578    2.2687    0.0000 O   0  0  0  0  0  0  0  0  0  0  0  0
   -2.1433    1.0312    0.0000 N   0  0  0  0  0  0  0  0  0  0  0  0
   -2.1433    0.2062    0.0000 C   0  0  0  0  0  0  0  0  0  0  0  0
   -1.4289    1.4437    0.0000 C   0  0  2  0  0  0  0  0  0  0  0  0
   -1.4289    2.2687    0.0000 C   0  0  0  0  0  0  0  0  0  0  0  0
   -0.7144    2.6812    0.0000 O   0  0  0  0  0  0  0  0  0  0  0  0
   -0.7144    1.0312    0.0000 C   0  0  0  0  0  0  0  0  0  0  0  0
   -0.7144    0.2062    0.0000 O   0  0  0  0  0  0  0  0  0  0  0  0
    0.0000    1.4437    0.0000 N   0  0  0  0  0  0  0  0  0  0  0  0
    0.7144    1.0312    0.0000 C   0  0  2  0  0  0  0  0  0  0  0  0
    0.7144    0.2062    0.0000 C   0  0  0  0  0  0  0  0  0  0  0  0
    1.4289    1.4437    0.0000 C   0  0  0  0  0  0  0  0  0  0  0  0
    1.4289    2.2687    0.0000 O   0  0  0  0  0  0  0  0  0  0  0  0
    2.1434    1.0312    0.0000 N   0  0  0  0  0  0  0  0  0  0  0  0
    2.8579    1.4437    0.0000 C   0  0  0  0  0  0  0  0  0  0  0  0
    3.5723    1.0312    0.0000 C   0  0  0  0  0  0  0  0  0  0  0  0
    3.5723    0.2062    0.0000 O   0  0  0  0  0  0  0  0  0  0  0  0
    4.2868    1.4437    0.0000 N   0  0  0  0  0  0  0  0  0  0  0  0
    4.2868    2.2687    0.0000 C   0  0  0  0  0  0  0  0  0  0  0  0
    5.0013    1.0312    0.0000 C   0  0  2  0  0  0  0  0  0  0  0  0
    5.7157    1.4437    0.0000 C   0  0  0  0  0  0  0  0  0  0  0  0
    5.7157    2.2687    0.0000 O   0  0  0  0  0  0  0  0  0  0  0  0
    6.4302    1.0312    0.0000 N   0  0  0  0  0  0  0  0  0  0  0  0
    7.1447    1.4437    0.0000 C   0  0  1  0  0  0  0  0  0  0  0  0
    7.1447    2.2687    0.0000 C   0  0  0  0  0  0  0  0  0  0  0  0
    7.8591    1.0312    0.0000 C   0  0  0  0  0  0  0  0  0  0  0  0
    8.5735    1.4437    0.0000 O   0  0  0  0  0  0  0  0  0  0  0  0
    7.8591    0.2062    0.0000 N   0  0  0  0  0  0  0  0  0  0  0  0
    8.5735   -0.2062    0.0000 C   0  0  2  0  0  0  0  0  0  0  0  0
    9.2881    0.2062    0.0000 C   0  0  0  0  0  0  0  0  0  0  0  0
    9.2881    1.0312    0.0000 O   0  0  0  0  0  0  0  0  0  0  0  0
   10.0026   -0.2062    0.0000 O   0  0  0  0  0  0  0  0  0  0  0  0
    8.5735   -1.0312    0.0000 C   0  0  0  0  0  0  0  0  0  0  0  0
    7.8591   -1.4437    0.0000 C   0  0  0  0  0  0  0  0  0  0  0  0
    7.1447   -1.0312    0.0000 C   0  0  0  0  0  0  0  0  0  0  0  0
    7.8591   -2.2687    0.0000 C   0  0  0  0  0  0  0  0  0  0  0  0
    7.1447   -2.6812    0.0000 C   0  0  0  0  0  0  0  0  0  0  0  0
    6.4302   -2.2687    0.0000 C   0  0  0  0  0  0  0  0  0  0  0  0
    5.7157   -2.6812    0.0000 O   0  0  0  0  0  0  0  0  0  0  0  0
    6.4302   -1.4437    0.0000 C   0  0  0  0  0  0  0  0  0  0  0  0
    5.7157   -1.0312    0.0000 C   0  0  0  0  0  0  0  0  0  0  0  0
    5.7157   -0.2062    0.0000 C   0  0  0  0  0  0  0  0  0  0  0  0
    5.0013    0.2062    0.0000 C   0  0  0  0  0  0  0  0  0  0  0  0
    4.2868   -0.2062    0.0000 C   0  0  0  0  0  0  0  0  0  0  0  0
    4.2868   -1.0312    0.0000 C   0  0  0  0  0  0  0  0  0  0  0  0
    5.0013   -1.4437    0.0000 C   0  0  0  0  0  0  0  0  0  0  0  0
    5.0013   -2.2687    0.0000 O   0  0  0  0  0  0  0  0  0  0  0  0
   -4.2868    2.5137    0.0000 H   0  0  0  0  0  0  0  0  0  0  0  0
   -3.3602    1.9787    0.0000 H   0  0  0  0  0  0  0  0  0  0  0  0
   -5.0011   -0.0388    0.0000 H   0  0  0  0  0  0  0  0  0  0  0  0
   -5.9278    0.4961    0.0000 H   0  0  0  0  0  0  0  0  0  0  0  0
   -5.7159    2.5137    0.0000 H   0  0  0  0  0  0  0  0  0  0  0  0
   -6.6425    1.9787    0.0000 H   0  0  0  0  0  0  0  0  0  0  0  0
   -6.4302   -0.0388    0.0000 H   0  0  0  0  0  0  0  0  0  0  0  0
   -7.3569    0.4962    0.0000 H   0  0  0  0  0  0  0  0  0  0  0  0
   -7.1445    2.5137    0.0000 H   0  0  0  0  0  0  0  0  0  0  0  0
   -8.0712    1.9788    0.0000 H   0  0  0  0  0  0  0  0  0  0  0  0
   -7.8593   -0.0388    0.0000 H   0  0  0  0  0  0  0  0  0  0  0  0
   -8.7859    0.4962    0.0000 H   0  0  0  0  0  0  0  0  0  0  0  0
   -8.5736    2.5137    0.0000 H   0  0  0  0  0  0  0  0  0  0  0  0
   -9.5002    1.9787    0.0000 H   0  0  0  0  0  0  0  0  0  0  0  0
  -10.2148    0.4962    0.0000 H   0  0  0  0  0  0  0  0  0  0  0  0
  -10.0025    2.5137    0.0000 H   0  0  0  0  0  0  0  0  0  0  0  0
  -10.9292    0.9087    0.0000 H   0  0  0  0  0  0  0  0  0  0  0  0
  -10.9291    1.9787    0.0000 H   0  0  0  0  0  0  0  0  0  0  0  0
  -10.2147   -0.3288    0.0000 H   0  0  0  0  0  0  0  0  0  0  0  0
   -8.3615   -0.3288    0.0000 H   0  0  0  0  0  0  0  0  0  0  0  0
   -9.2881   -0.8638    0.0000 H   0  0  0  0  0  0  0  0  0  0  0  0
   -3.5723   -0.0388    0.0000 H   0  0  0  0  0  0  0  0  0  0  0  0
   -2.6457    0.4962    0.0000 H   0  0  0  0  0  0  0  0  0  0  0  0
   -3.0699   -0.3288    0.0000 H   0  0  0  0  0  0  0  0  0  0  0  0
   -1.2167   -0.3288    0.0000 H   0  0  0  0  0  0  0  0  0  0  0  0
   -2.1433   -0.8638    0.0000 H   0  0  0  0  0  0  0  0  0  0  0  0
   -2.3556    1.9787    0.0000 H   0  0  0  0  0  0  0  0  0  0  0  0
   -2.3555    2.8037    0.0000 H   0  0  0  0  0  0  0  0  0  0  0  0
   -1.4289    3.3387    0.0000 H   0  0  0  0  0  0  0  0  0  0  0  0
    0.1256    2.1962    0.0000 H   0  0  0  0  0  0  0  0  0  0  0  0
    0.0000    2.4282    0.0000 H   0  0  0  0  0  0  0  0  0  0  0  0
   -0.2123    0.4962    0.0000 H   0  0  0  0  0  0  0  0  0  0  0  0
   -0.2122   -0.3288    0.0000 H   0  0  0  0  0  0  0  0  0  0  0  0
    1.6410   -0.3288    0.0000 H   0  0  0  0  0  0  0  0  0  0  0  0
    0.7144   -0.8638    0.0000 H   0  0  0  0  0  0  0  0  0  0  0  0
    2.1434    0.0467    0.0000 H   0  0  0  0  0  0  0  0  0  0  0  0
    2.8579    2.5137    0.0000 H   0  0  0  0  0  0  0  0  0  0  0  0
    3.7846    1.9787    0.0000 H   0  0  0  0  0  0  0  0  0  0  0  0
    5.2134    2.8037    0.0000 H   0  0  0  0  0  0  0  0  0  0  0  0
    3.3602    2.8037    0.0000 H   0  0  0  0  0  0  0  0  0  0  0  0
    4.2868    3.3387    0.0000 H   0  0  0  0  0  0  0  0  0  0  0  0
    5.0013    2.1012    0.0000 H   0  0  0  0  0  0  0  0  0  0  0  0
    6.4302    0.0467    0.0000 H   0  0  0  0  0  0  0  0  0  0  0  0
    6.2181    1.9787    0.0000 H   0  0  0  0  0  0  0  0  0  0  0  0
    8.0713    2.8037    0.0000 H   0  0  0  0  0  0  0  0  0  0  0  0
    6.2181    2.8037    0.0000 H   0  0  0  0  0  0  0  0  0  0  0  0
    7.1447    3.3387    0.0000 H   0  0  0  0  0  0  0  0  0  0  0  0
    7.0065   -0.2861    0.0000 H   0  0  0  0  0  0  0  0  0  0  0  0
    8.5736    0.8638    0.0000 H   0  0  0  0  0  0  0  0  0  0  0  0
   10.0996    1.4997    0.0000 H   0  0  0  0  0  0  0  0  0  0  0  0
    9.5002   -1.5662    0.0000 H   0  0  0  0  0  0  0  0  0  0  0  0
    8.5735   -2.1012    0.0000 H   0  0  0  0  0  0  0  0  0  0  0  0
    7.1447    0.0008    0.0000 H   0  0  0  0  0  0  0  0  0  0  0  0
    8.7528   -2.7847    0.0000 H   0  0  0  0  0  0  0  0  0  0  0  0
    7.1447   -3.7132    0.0000 H   0  0  0  0  0  0  0  0  0  0  0  0
    4.9042   -2.2127    0.0000 H   0  0  0  0  0  0  0  0  0  0  0  0
    6.6094    0.3098    0.0000 H   0  0  0  0  0  0  0  0  0  0  0  0
    3.3931    0.3099    0.0000 H   0  0  0  0  0  0  0  0  0  0  0  0
    3.3931   -1.5472    0.0000 H   0  0  0  0  0  0  0  0  0  0  0  0
    4.1898   -2.7372    0.0000 H   0  0  0  0  0  0  0  0  0  0  0  0
  1  2  1  0  0  0  0
  1 60  1  0  0  0  0
  1 61  1  0  0  0  0
  2  3  1  0  0  0  0
  2 62  1  0  0  0  0
  2 63  1  0  0  0  0
  3  4  1  0  0  0  0
  3 64  1  0  0  0  0
  3 65  1  0  0  0  0
  4  5  1  0  0  0  0
  4 66  1  0  0  0  0
  4 67  1  0  0  0  0
  5  6  1  0  0  0  0
  5 68  1  0  0  0  0
  5 69  1  0  0  0  0
  6  7  1  0  0  0  0
  6 70  1  0  0  0  0
  6 71  1  0  0  0  0
  7  8  1  0  0  0  0
  7 72  1  0  0  0  0
  7 73  1  0  0  0  0
  8  9  1  0  0  0  0
  8 10  1  0  0  0  0
  8 74  1  0  0  0  0
  9 75  1  0  0  0  0
  9 76  1  0  0  0  0
  9 77  1  0  0  0  0
 10 78  1  0  0  0  0
 10 79  1  0  0  0  0
 10 80  1  0  0  0  0
 11  1  1  0  0  0  0
 11 81  1  0  0  0  0
 11 82  1  0  0  0  0
 12 11  1  0  0  0  0
 12 13  2  0  0  0  0
 12 14  1  0  0  0  0
 15 14  1  0  0  0  0
 15 83  1  0  0  0  0
 15 84  1  0  0  0  0
 15 85  1  0  0  0  0
 16 14  1  0  0  0  0
 16 17  1  0  0  0  0
 16 19  1  0  0  0  0
 16 86  1  1  0  0  0
 17 18  1  0  0  0  0
 17 87  1  0  0  0  0
 17 88  1  0  0  0  0
 18 89  1  0  0  0  0
 19 20  2  0  0  0  0
 19 21  1  0  0  0  0
 21 90  1  0  0  0  0
 22 21  1  0  0  0  0
 22 23  1  0  0  0  0
 22 91  1  6  0  0  0
 23 92  1  0  0  0  0
 23 93  1  0  0  0  0
 23 94  1  0  0  0  0
 24 22  1  0  0  0  0
 24 25  2  0  0  0  0
 24 26  1  0  0  0  0
 26 95  1  0  0  0  0
 27 26  1  0  0  0  0
 27 28  1  0  0  0  0
 27 96  1  0  0  0  0
 27 97  1  0  0  0  0
 28 29  2  0  0  0  0
 28 30  1  0  0  0  0
 31 30  1  0  0  0  0
 31 98  1  0  0  0  0
 31 99  1  0  0  0  0
 31100  1  0  0  0  0
 32 30  1  0  0  0  0
 32 33  1  0  0  0  0
 32 55  1  0  0  0  0
 32101  1  1  0  0  0
 33 34  2  0  0  0  0
 33 35  1  0  0  0  0
 35102  1  0  0  0  0
 36 35  1  0  0  0  0
 36 37  1  0  0  0  0
 36 38  1  0  0  0  0
 36103  1  6  0  0  0
 37104  1  0  0  0  0
 37105  1  0  0  0  0
 37106  1  0  0  0  0
 38 39  2  0  0  0  0
 38 40  1  0  0  0  0
 40107  1  0  0  0  0
 41 40  1  0  0  0  0
 41 42  1  0  0  0  0
 41 45  1  0  0  0  0
 41108  1  1  0  0  0
 42 43  1  0  0  0  0
 42 44  2  0  0  0  0
 43109  1  0  0  0  0
 45 46  1  0  0  0  0
 45110  1  0  0  0  0
 45111  1  0  0  0  0
 46 47  1  0  0  0  0
 46 48  2  0  0  0  0
 47 52  2  0  0  0  0
 47112  1  0  0  0  0
 48 49  1  0  0  0  0
 48113  1  0  0  0  0
 49 50  2  0  0  0  0
 49114  1  0  0  0  0
 50 51  1  0  0  0  0
 51115  1  0  0  0  0
 52 50  1  0  0  0  0
 53 52  1  0  0  0  0
 53 58  2  0  0  0  0
 54 53  1  0  0  0  0
 54116  1  0  0  0  0
 55 54  2  0  0  0  0
 55 56  1  0  0  0  0
 56 57  2  0  0  0  0
 56117  1  0  0  0  0
 57 58  1  0  0  0  0
 57118  1  0  0  0  0
 58 59  1  0  0  0  0
 59119  1  0  0  0  0
M  END
>  <DRUGBANK_ID>
DB01934

>  <SECONDARY_ACCESSION_NUMBERS>
EXPT00564

>  <COMMON_NAME>
Arylomycin A2

$$$$
