
 OpenBabel10282417072D

 44 45  0  0  0  0  0  0  0  0999 V2000
   14.0800   -3.9325    0.0000 C   0  0  0  0  0  0  0  0  0  0  0  0
   13.3655   -3.5200    0.0000 C   0  0  0  0  0  0  0  0  0  0  0  0
   13.3655   -2.6950    0.0000 C   0  0  0  0  0  0  0  0  0  0  0  0
   14.7945   -3.5200    0.0000 C   0  0  0  0  0  0  0  0  0  0  0  0
   14.7945   -2.6950    0.0000 C   0  0  0  0  0  0  0  0  0  0  0  0
   14.0800   -2.2825    0.0000 C   0  0  0  0  0  0  0  0  0  0  0  0
   15.5791   -2.4401    0.0000 N   0  0  0  0  0  0  0  0  0  0  0  0
   16.0640   -3.1076    0.0000 C   0  0  0  0  0  0  0  0  0  0  0  0
   15.5791   -3.7750    0.0000 N   0  0  0  0  0  0  0  0  0  0  0  0
   16.8890   -3.1076    0.0000 C   0  0  0  0  0  0  0  0  0  0  0  0
   17.3015   -2.3931    0.0000 C   0  0  0  0  0  0  0  0  0  0  0  0
   18.1265   -2.3931    0.0000 C   0  0  0  0  0  0  0  0  0  0  0  0
   18.5390   -1.6787    0.0000 C   0  0  0  0  0  0  0  0  0  0  0  0
   17.8245   -1.2662    0.0000 O   0  0  0  0  0  0  0  0  0  0  0  0
   19.3640   -1.6787    0.0000 O   0  0  0  0  0  0  0  0  0  0  0  0
   15.9916   -1.7257    0.0000 C   0  0  0  0  0  0  0  0  0  0  0  0
   12.6511   -3.9325    0.0000 N   0  0  0  0  0  0  0  0  0  0  0  0
   12.6511   -4.7575    0.0000 C   0  0  0  0  0  0  0  0  0  0  0  0
   11.9366   -3.5200    0.0000 C   0  0  0  0  0  0  0  0  0  0  0  0
   11.2221   -3.9325    0.0000 C   0  0  0  0  0  0  0  0  0  0  0  0
   10.5076   -3.5200    0.0000 Cl  0  0  0  0  0  0  0  0  0  0  0  0
   11.9366   -5.1700    0.0000 C   0  0  0  0  0  0  0  0  0  0  0  0
   11.9366   -5.9950    0.0000 Cl  0  0  0  0  0  0  0  0  0  0  0  0
   14.0800   -4.9645    0.0000 H   0  0  0  0  0  0  0  0  0  0  0  0
   12.4718   -2.1790    0.0000 H   0  0  0  0  0  0  0  0  0  0  0  0
   14.0800   -1.2505    0.0000 H   0  0  0  0  0  0  0  0  0  0  0  0
   17.4240   -4.0342    0.0000 H   0  0  0  0  0  0  0  0  0  0  0  0
   17.9590   -3.1076    0.0000 H   0  0  0  0  0  0  0  0  0  0  0  0
   16.7665   -1.4665    0.0000 H   0  0  0  0  0  0  0  0  0  0  0  0
   17.8365   -1.4665    0.0000 H   0  0  0  0  0  0  0  0  0  0  0  0
   18.6615   -3.3198    0.0000 H   0  0  0  0  0  0  0  0  0  0  0  0
   19.1965   -2.3931    0.0000 H   0  0  0  0  0  0  0  0  0  0  0  0
   19.8325   -2.4902    0.0000 H   0  0  0  0  0  0  0  0  0  0  0  0
   17.0616   -1.7257    0.0000 H   0  0  0  0  0  0  0  0  0  0  0  0
   15.4566   -0.7990    0.0000 H   0  0  0  0  0  0  0  0  0  0  0  0
   16.5266   -0.7991    0.0000 H   0  0  0  0  0  0  0  0  0  0  0  0
   13.5777   -5.2925    0.0000 H   0  0  0  0  0  0  0  0  0  0  0  0
   12.6511   -5.8275    0.0000 H   0  0  0  0  0  0  0  0  0  0  0  0
   11.9366   -2.4500    0.0000 H   0  0  0  0  0  0  0  0  0  0  0  0
   11.0100   -2.9850    0.0000 H   0  0  0  0  0  0  0  0  0  0  0  0
   11.2221   -5.0025    0.0000 H   0  0  0  0  0  0  0  0  0  0  0  0
   10.2955   -4.4675    0.0000 H   0  0  0  0  0  0  0  0  0  0  0  0
   11.0100   -4.6350    0.0000 H   0  0  0  0  0  0  0  0  0  0  0  0
   11.0100   -5.7050    0.0000 H   0  0  0  0  0  0  0  0  0  0  0  0
  1  2  1  0  0  0  0
  1  4  2  0  0  0  0
  1 24  1  0  0  0  0
  2  3  2  0  0  0  0
  2 17  1  0  0  0  0
  3 25  1  0  0  0  0
  4  5  1  0  0  0  0
  5  6  2  0  0  0  0
  5  7  1  0  0  0  0
  6  3  1  0  0  0  0
  6 26  1  0  0  0  0
  7  8  1  0  0  0  0
  7 16  1  0  0  0  0
  8  9  2  0  0  0  0
  8 10  1  0  0  0  0
  9  4  1  0  0  0  0
 10 11  1  0  0  0  0
 10 27  1  0  0  0  0
 10 28  1  0  0  0  0
 11 12  1  0  0  0  0
 11 29  1  0  0  0  0
 11 30  1  0  0  0  0
 12 13  1  0  0  0  0
 12 31  1  0  0  0  0
 12 32  1  0  0  0  0
 13 14  2  0  0  0  0
 13 15  1  0  0  0  0
 15 33  1  0  0  0  0
 16 34  1  0  0  0  0
 16 35  1  0  0  0  0
 16 36  1  0  0  0  0
 17 18  1  0  0  0  0
 17 19  1  0  0  0  0
 18 22  1  0  0  0  0
 18 37  1  0  0  0  0
 18 38  1  0  0  0  0
 19 20  1  0  0  0  0
 19 39  1  0  0  0  0
 19 40  1  0  0  0  0
 20 21  1  0  0  0  0
 20 41  1  0  0  0  0
 20 42  1  0  0  0  0
 22 23  1  0  0  0  0
 22 43  1  0  0  0  0
 22 44  1  0  0  0  0
M  END
>  <DRUGBANK_ID>
DB06769

>  <COMMON_NAME>
Bendamustine

>  <CAS_NUMBER>
16506-27-7

>  <UNII>
9266D9P3PQ

>  <SYNONYMS>
Bendamustina; Bendamustine; Ribomustine

$$$$
