
 OpenBabel10282417072D

 77 81  0  0  0  0  0  0  0  0999 V2000
    2.9045   -0.1985    0.0000 C   0  0  0  0  0  0  0  0  0  0  0  0
    2.9004   -1.0234    0.0000 C   0  0  0  0  0  0  0  0  0  0  0  0
    3.6211    0.2104    0.0000 C   0  0  0  0  0  0  0  0  0  0  0  0
    2.1922    0.2175    0.0000 N   0  0  0  0  0  0  0  0  0  0  0  0
    1.3673    1.0426    0.0000 C   0  0  0  0  0  0  0  0  0  0  0  0
    1.3673    0.2175    0.0000 C   0  0  0  0  0  0  0  0  0  0  0  0
    2.1922    1.0426    0.0000 C   0  0  0  0  0  0  0  0  0  0  0  0
   -2.1992    2.2758    0.0000 C   0  0  0  0  0  0  0  0  0  0  0  0
   -2.1992    1.4507    0.0000 C   0  0  0  0  0  0  0  0  0  0  0  0
   -1.4830    1.0383    0.0000 C   0  0  3  0  0  0  0  0  0  0  0  0
   -0.7711    1.4507    0.0000 C   0  0  0  0  0  0  0  0  0  0  0  0
   -0.7711    2.2758    0.0000 C   0  0  0  0  0  0  0  0  0  0  0  0
   -1.4830    2.6883    0.0000 N   0  0  0  0  0  0  0  0  0  0  0  0
   -1.4819    0.2132    0.0000 C   0  0  0  0  0  0  0  0  0  0  0  0
   -2.1922   -0.1971    0.0000 C   0  0  0  0  0  0  0  0  0  0  0  0
   -2.1912   -1.0220    0.0000 C   0  0  0  0  0  0  0  0  0  0  0  0
   -1.4763   -1.4336    0.0000 C   0  0  0  0  0  0  0  0  0  0  0  0
   -0.7623   -1.0202    0.0000 C   0  0  0  0  0  0  0  0  0  0  0  0
   -0.7634   -0.1953    0.0000 C   0  0  0  0  0  0  0  0  0  0  0  0
   -2.9117    1.0383    0.0000 C   0  0  0  0  0  0  0  0  0  0  0  0
   -3.6242    1.4507    0.0000 O   0  0  0  0  0  0  0  0  0  0  0  0
   -4.3367    1.0383    0.0000 C   0  0  0  0  0  0  0  0  0  0  0  0
   -5.0491    1.4507    0.0000 C   0  0  0  0  0  0  0  0  0  0  0  0
   -2.9117    0.2132    0.0000 O   0  0  0  0  0  0  0  0  0  0  0  0
   -4.3367    0.2132    0.0000 C   0  0  0  0  0  0  0  0  0  0  0  0
   -2.9134    2.6887    0.0000 C   0  0  0  0  0  0  0  0  0  0  0  0
   -0.0564    2.6877    0.0000 N   0  0  0  0  0  0  0  0  0  0  0  0
   -0.0618    1.0426    0.0000 C   0  0  0  0  0  0  0  0  0  0  0  0
    0.6506    1.4550    0.0000 O   0  0  0  0  0  0  0  0  0  0  0  0
    4.3284   -0.2077    0.0000 C   0  0  0  0  0  0  0  0  0  0  0  0
    5.0450    0.2011    0.0000 C   0  0  0  0  0  0  0  0  0  0  0  0
    5.0491    1.0261    0.0000 C   0  0  0  0  0  0  0  0  0  0  0  0
    4.3368    1.4421    0.0000 C   0  0  0  0  0  0  0  0  0  0  0  0
    3.6201    1.0333    0.0000 C   0  0  0  0  0  0  0  0  0  0  0  0
   -0.0474   -1.4317    0.0000 N   0  3  0  0  0  0  0  0  0  0  0  0
   -0.0608    0.2175    0.0000 O   0  0  0  0  0  0  0  0  0  0  0  0
   -0.0463   -2.2568    0.0000 O   0  5  0  0  0  0  0  0  0  0  0  0
    0.8725   -0.7712    0.0000 O   0  0  0  0  0  0  0  0  0  0  0  0
    2.1729   -1.4388    0.0000 C   0  0  0  0  0  0  0  0  0  0  0  0
    2.1690   -2.2698    0.0000 C   0  0  0  0  0  0  0  0  0  0  0  0
    2.8865   -2.6887    0.0000 C   0  0  0  0  0  0  0  0  0  0  0  0
    3.6141   -2.2733    0.0000 C   0  0  0  0  0  0  0  0  0  0  0  0
    3.6180   -1.4423    0.0000 C   0  0  0  0  0  0  0  0  0  0  0  0
    3.8285   -0.7381    0.0000 H   0  0  0  0  0  0  0  0  0  0  0  0
    2.1239    0.2860    0.0000 H   0  0  0  0  0  0  0  0  0  0  0  0
    0.6107   -0.5391    0.0000 H   0  0  0  0  0  0  0  0  0  0  0  0
    1.7768   -0.7711    0.0000 H   0  0  0  0  0  0  0  0  0  0  0  0
    2.9488    1.7992    0.0000 H   0  0  0  0  0  0  0  0  0  0  0  0
    1.7827    2.0312    0.0000 H   0  0  0  0  0  0  0  0  0  0  0  0
   -1.4844    2.1083    0.0000 H   0  0  0  0  0  0  0  0  0  0  0  0
   -1.4817    3.6728    0.0000 H   0  0  0  0  0  0  0  0  0  0  0  0
   -3.0863    0.3183    0.0000 H   0  0  0  0  0  0  0  0  0  0  0  0
   -3.0843   -1.5391    0.0000 H   0  0  0  0  0  0  0  0  0  0  0  0
   -1.4750   -2.4656    0.0000 H   0  0  0  0  0  0  0  0  0  0  0  0
    0.1283    0.3243    0.0000 H   0  0  0  0  0  0  0  0  0  0  0  0
   -5.2637    0.5038    0.0000 H   0  0  0  0  0  0  0  0  0  0  0  0
   -5.0479    2.5207    0.0000 H   0  0  0  0  0  0  0  0  0  0  0  0
   -5.9764    0.9168    0.0000 H   0  0  0  0  0  0  0  0  0  0  0  0
   -5.9751    1.9868    0.0000 H   0  0  0  0  0  0  0  0  0  0  0  0
   -5.2633   -0.3218    0.0000 H   0  0  0  0  0  0  0  0  0  0  0  0
   -3.4101   -0.3218    0.0000 H   0  0  0  0  0  0  0  0  0  0  0  0
   -4.3367   -0.8568    0.0000 H   0  0  0  0  0  0  0  0  0  0  0  0
   -2.9128    3.7587    0.0000 H   0  0  0  0  0  0  0  0  0  0  0  0
   -3.8404    2.1542    0.0000 H   0  0  0  0  0  0  0  0  0  0  0  0
   -3.8397    3.2242    0.0000 H   0  0  0  0  0  0  0  0  0  0  0  0
    0.7958    2.1948    0.0000 H   0  0  0  0  0  0  0  0  0  0  0  0
   -0.0556    3.6722    0.0000 H   0  0  0  0  0  0  0  0  0  0  0  0
    4.3204   -1.2397    0.0000 H   0  0  0  0  0  0  0  0  0  0  0  0
    5.9361   -0.3194    0.0000 H   0  0  0  0  0  0  0  0  0  0  0  0
    5.9454    1.5376    0.0000 H   0  0  0  0  0  0  0  0  0  0  0  0
    4.3421    2.4741    0.0000 H   0  0  0  0  0  0  0  0  0  0  0  0
    2.7274    1.5511    0.0000 H   0  0  0  0  0  0  0  0  0  0  0  0
    1.2816   -0.9186    0.0000 H   0  0  0  0  0  0  0  0  0  0  0  0
    1.2728   -2.7815    0.0000 H   0  0  0  0  0  0  0  0  0  0  0  0
    2.8815   -3.7207    0.0000 H   0  0  0  0  0  0  0  0  0  0  0  0
    4.5054   -2.7936    0.0000 H   0  0  0  0  0  0  0  0  0  0  0  0
    4.5142   -0.9305    0.0000 H   0  0  0  0  0  0  0  0  0  0  0  0
  1  4  1  0  0  0  0
  1  3  1  0  0  0  0
  1  2  1  0  0  0  0
  1 44  1  0  0  0  0
  2 39  2  0  0  0  0
  2 43  1  0  0  0  0
  3 30  2  0  0  0  0
  4  7  1  0  0  0  0
  5  6  1  0  0  0  0
  5 45  1  0  0  0  0
  6  4  1  0  0  0  0
  6 46  1  0  0  0  0
  6 47  1  0  0  0  0
  7  5  1  0  0  0  0
  7 48  1  0  0  0  0
  7 49  1  0  0  0  0
  8  9  2  0  0  0  0
  8 26  1  0  0  0  0
  9 10  1  0  0  0  0
  9 20  1  0  0  0  0
 10 11  1  0  0  0  0
 10 14  1  0  0  0  0
 10 50  1  0  0  0  0
 11 12  2  0  0  0  0
 11 28  1  0  0  0  0
 12 13  1  0  0  0  0
 12 27  1  0  0  0  0
 13  8  1  0  0  0  0
 13 51  1  0  0  0  0
 14 15  2  0  0  0  0
 15 16  1  0  0  0  0
 15 52  1  0  0  0  0
 16 17  2  0  0  0  0
 16 53  1  0  0  0  0
 17 18  1  0  0  0  0
 17 54  1  0  0  0  0
 18 19  2  0  0  0  0
 18 35  1  0  0  0  0
 19 14  1  0  0  0  0
 19 55  1  0  0  0  0
 20 21  1  0  0  0  0
 20 24  2  0  0  0  0
 21 22  1  0  0  0  0
 22 23  1  0  0  0  0
 22 25  1  0  0  0  0
 22 56  1  0  0  0  0
 23 57  1  0  0  0  0
 23 58  1  0  0  0  0
 23 59  1  0  0  0  0
 25 60  1  0  0  0  0
 25 61  1  0  0  0  0
 25 62  1  0  0  0  0
 26 63  1  0  0  0  0
 26 64  1  0  0  0  0
 26 65  1  0  0  0  0
 27 66  1  0  0  0  0
 27 67  1  0  0  0  0
 28 29  1  0  0  0  0
 28 36  2  0  0  0  0
 29  5  1  0  0  0  0
 30 31  1  0  0  0  0
 30 68  1  0  0  0  0
 31 32  2  0  0  0  0
 31 69  1  0  0  0  0
 32 33  1  0  0  0  0
 32 70  1  0  0  0  0
 33 34  2  0  0  0  0
 33 71  1  0  0  0  0
 34  3  1  0  0  0  0
 34 72  1  0  0  0  0
 35 37  1  0  0  0  0
 35 38  2  0  0  0  0
 39 40  1  0  0  0  0
 39 73  1  0  0  0  0
 40 41  2  0  0  0  0
 40 74  1  0  0  0  0
 41 42  1  0  0  0  0
 41 75  1  0  0  0  0
 42 43  2  0  0  0  0
 42 76  1  0  0  0  0
 43 77  1  0  0  0  0
M  CHG  2  35   1  37  -1
M  END
>  <DRUGBANK_ID>
DB09230

>  <COMMON_NAME>
Azelnidipine

>  <CAS_NUMBER>
123524-52-7

>  <UNII>
PV23P19YUG

>  <SYNONYMS>
Azelnidipine

$$$$
