
 OpenBabel10282417072D

 42 42  0  0  0  0  0  0  0  0999 V2000
   -0.2062   -0.8250    0.0000 C   0  0  0  0  0  0  0  0  0  0  0  0
   -0.2062    0.0000    0.0000 C   0  0  1  0  0  0  0  0  0  0  0  0
   -0.2062    0.8250    0.0000 C   0  0  0  0  0  0  0  0  0  0  0  0
    0.5082    1.2375    0.0000 C   0  0  1  0  0  0  0  0  0  0  0  0
    0.5082    2.0625    0.0000 N   0  0  0  0  0  0  0  0  0  0  0  0
   -0.2062    2.4750    0.0000 C   0  0  0  0  0  0  0  0  0  0  0  0
    1.2226    2.4750    0.0000 C   0  0  0  0  0  0  0  0  0  0  0  0
    1.2226    0.8250    0.0000 C   0  0  0  0  0  0  0  0  0  0  0  0
   -1.0312    0.0000    0.0000 C   0  0  0  0  0  0  0  0  0  0  0  0
   -1.4437    0.7144    0.0000 C   0  0  0  0  0  0  0  0  0  0  0  0
   -1.4437   -0.7144    0.0000 C   0  0  0  0  0  0  0  0  0  0  0  0
    0.6187    0.0000    0.0000 C   0  0  0  0  0  0  0  0  0  0  0  0
    1.4437    0.0000    0.0000 N   0  0  0  0  0  0  0  0  0  0  0  0
    0.5082   -1.2375    0.0000 C   0  0  0  0  0  0  0  0  0  0  0  0
    0.5082   -2.0625    0.0000 C   0  0  0  0  0  0  0  0  0  0  0  0
   -0.2062   -2.4750    0.0000 C   0  0  0  0  0  0  0  0  0  0  0  0
   -0.9207   -2.0625    0.0000 C   0  0  0  0  0  0  0  0  0  0  0  0
   -0.9207   -1.2375    0.0000 C   0  0  0  0  0  0  0  0  0  0  0  0
   -1.1329    1.3600    0.0000 H   0  0  0  0  0  0  0  0  0  0  0  0
   -0.2062    1.8950    0.0000 H   0  0  0  0  0  0  0  0  0  0  0  0
    0.5082    0.1675    0.0000 H   0  0  0  0  0  0  0  0  0  0  0  0
   -0.2062    3.5450    0.0000 H   0  0  0  0  0  0  0  0  0  0  0  0
   -1.1329    1.9400    0.0000 H   0  0  0  0  0  0  0  0  0  0  0  0
   -1.1328    3.0100    0.0000 H   0  0  0  0  0  0  0  0  0  0  0  0
    2.1493    1.9400    0.0000 H   0  0  0  0  0  0  0  0  0  0  0  0
    1.2226    3.5450    0.0000 H   0  0  0  0  0  0  0  0  0  0  0  0
    2.1492    3.0100    0.0000 H   0  0  0  0  0  0  0  0  0  0  0  0
    1.2226   -0.2450    0.0000 H   0  0  0  0  0  0  0  0  0  0  0  0
    2.1493    1.3600    0.0000 H   0  0  0  0  0  0  0  0  0  0  0  0
    2.1492    0.2900    0.0000 H   0  0  0  0  0  0  0  0  0  0  0  0
   -2.1012    0.0000    0.0000 H   0  0  0  0  0  0  0  0  0  0  0  0
   -0.9087    1.6411    0.0000 H   0  0  0  0  0  0  0  0  0  0  0  0
   -2.5137    0.7144    0.0000 H   0  0  0  0  0  0  0  0  0  0  0  0
   -1.9787    1.6410    0.0000 H   0  0  0  0  0  0  0  0  0  0  0  0
   -2.5137   -0.7144    0.0000 H   0  0  0  0  0  0  0  0  0  0  0  0
   -0.9087   -1.6411    0.0000 H   0  0  0  0  0  0  0  0  0  0  0  0
   -1.9787   -1.6410    0.0000 H   0  0  0  0  0  0  0  0  0  0  0  0
    1.4019   -0.7215    0.0000 H   0  0  0  0  0  0  0  0  0  0  0  0
    1.4019   -2.5785    0.0000 H   0  0  0  0  0  0  0  0  0  0  0  0
   -0.2062   -3.5070    0.0000 H   0  0  0  0  0  0  0  0  0  0  0  0
   -1.8144   -2.5785    0.0000 H   0  0  0  0  0  0  0  0  0  0  0  0
   -1.8144   -0.7215    0.0000 H   0  0  0  0  0  0  0  0  0  0  0  0
  1  2  1  0  0  0  0
  1 14  2  0  0  0  0
  1 18  1  0  0  0  0
  2  3  1  0  0  0  0
  2  9  1  0  0  0  0
  2 12  1  1  0  0  0
  3  4  1  0  0  0  0
  3 19  1  0  0  0  0
  3 20  1  0  0  0  0
  4  5  1  0  0  0  0
  4  8  1  0  0  0  0
  4 21  1  6  0  0  0
  5  6  1  0  0  0  0
  5  7  1  0  0  0  0
  6 22  1  0  0  0  0
  6 23  1  0  0  0  0
  6 24  1  0  0  0  0
  7 25  1  0  0  0  0
  7 26  1  0  0  0  0
  7 27  1  0  0  0  0
  8 28  1  0  0  0  0
  8 29  1  0  0  0  0
  8 30  1  0  0  0  0
  9 10  1  0  0  0  0
  9 11  1  0  0  0  0
  9 31  1  0  0  0  0
 10 32  1  0  0  0  0
 10 33  1  0  0  0  0
 10 34  1  0  0  0  0
 11 35  1  0  0  0  0
 11 36  1  0  0  0  0
 11 37  1  0  0  0  0
 12 13  3  0  0  0  0
 14 15  1  0  0  0  0
 14 38  1  0  0  0  0
 15 16  2  0  0  0  0
 15 39  1  0  0  0  0
 16 17  1  0  0  0  0
 16 40  1  0  0  0  0
 17 18  2  0  0  0  0
 17 41  1  0  0  0  0
 18 42  1  0  0  0  0
M  END
>  <DRUGBANK_ID>
DB08944

>  <COMMON_NAME>
Isoaminile

>  <CAS_NUMBER>
77-51-0

>  <UNII>
R4823W2PQL

>  <SYNONYMS>
Isoaminile

$$$$
