642
 OpenBabel10282417072D

 59 64  0  0  0  0  0  0  0  0999 V2000
    1.5540   -4.4006    0.0000 C   0  0  2  0  0  0  0  0  0  0  0  0
    0.8003   -4.0650    0.0000 C   0  0  2  0  0  0  0  0  0  0  0  0
    0.8865   -4.8855    0.0000 C   0  0  0  0  0  0  0  0  0  0  0  0
    2.3744   -4.3143    0.0000 C   0  0  0  0  0  0  0  0  0  0  0  0
    2.8594   -4.9818    0.0000 O   0  0  0  0  0  0  0  0  0  0  0  0
    2.7100   -3.5607    0.0000 O   0  0  0  0  0  0  0  0  0  0  0  0
   -0.0247   -4.0650    0.0000 C   0  0  0  0  0  0  0  0  0  0  0  0
   -0.2797   -3.2804    0.0000 N   0  0  0  0  0  0  0  0  0  0  0  0
   -0.5096   -4.7325    0.0000 O   0  0  0  0  0  0  0  0  0  0  0  0
    0.3878   -2.7955    0.0000 C   0  0  1  0  0  0  0  0  0  0  0  0
    1.0552   -3.2804    0.0000 C   0  0  0  0  0  0  0  0  0  0  0  0
    0.3878   -1.9705    0.0000 C   0  0  0  0  0  0  0  0  0  0  0  0
    1.1023   -1.5580    0.0000 C   0  0  0  0  0  0  0  0  0  0  0  0
    1.1023   -0.7330    0.0000 C   0  0  0  0  0  0  0  0  0  0  0  0
    0.3878   -0.3205    0.0000 C   0  0  0  0  0  0  0  0  0  0  0  0
   -0.3267   -0.7330    0.0000 C   0  0  0  0  0  0  0  0  0  0  0  0
   -0.3267   -1.5580    0.0000 C   0  0  0  0  0  0  0  0  0  0  0  0
    0.3878    0.5045    0.0000 O   0  0  0  0  0  0  0  0  0  0  0  0
   -0.3267    0.9170    0.0000 C   0  0  0  0  0  0  0  0  0  0  0  0
   -0.3267    1.7420    0.0000 C   0  0  0  0  0  0  0  0  0  0  0  0
   -0.3267    3.3920    0.0000 N   0  0  0  0  0  0  0  0  0  0  0  0
   -1.0412    2.9795    0.0000 C   0  0  0  0  0  0  0  0  0  0  0  0
   -1.0412    2.1545    0.0000 C   0  0  0  0  0  0  0  0  0  0  0  0
    0.3878    2.9795    0.0000 C   0  0  0  0  0  0  0  0  0  0  0  0
    0.3878    2.1545    0.0000 C   0  0  0  0  0  0  0  0  0  0  0  0
    1.1023    1.7420    0.0000 C   0  0  0  0  0  0  0  0  0  0  0  0
    1.8167    2.1545    0.0000 C   0  0  0  0  0  0  0  0  0  0  0  0
    1.8167    2.9795    0.0000 C   0  0  0  0  0  0  0  0  0  0  0  0
    1.1023    3.3920    0.0000 C   0  0  0  0  0  0  0  0  0  0  0  0
   -1.7556    3.3920    0.0000 C   0  0  0  0  0  0  0  0  0  0  0  0
   -1.7556    4.2170    0.0000 C   0  0  0  0  0  0  0  0  0  0  0  0
   -2.4701    4.6295    0.0000 C   0  0  0  0  0  0  0  0  0  0  0  0
   -3.1846    4.2170    0.0000 C   0  0  0  0  0  0  0  0  0  0  0  0
   -3.1846    3.3920    0.0000 C   0  0  0  0  0  0  0  0  0  0  0  0
   -2.4701    2.9795    0.0000 C   0  0  0  0  0  0  0  0  0  0  0  0
    1.6453   -3.8238    0.0000 H   0  0  0  0  0  0  0  0  0  0  0  0
   -0.1325   -2.5304    0.0000 H   0  0  0  0  0  0  0  0  0  0  0  0
    0.4512   -5.8630    0.0000 H   0  0  0  0  0  0  0  0  0  0  0  0
   -0.1703   -4.7181    0.0000 H   0  0  0  0  0  0  0  0  0  0  0  0
    3.6419   -3.4628    0.0000 H   0  0  0  0  0  0  0  0  0  0  0  0
   -1.2160   -2.9762    0.0000 H   0  0  0  0  0  0  0  0  0  0  0  0
    2.0728   -2.9497    0.0000 H   0  0  0  0  0  0  0  0  0  0  0  0
    1.2226   -2.2236    0.0000 H   0  0  0  0  0  0  0  0  0  0  0  0
    1.9960   -2.0740    0.0000 H   0  0  0  0  0  0  0  0  0  0  0  0
    1.9960   -0.2170    0.0000 H   0  0  0  0  0  0  0  0  0  0  0  0
   -1.2204   -0.2170    0.0000 H   0  0  0  0  0  0  0  0  0  0  0  0
   -1.2204   -2.0740    0.0000 H   0  0  0  0  0  0  0  0  0  0  0  0
   -1.2533    0.3820    0.0000 H   0  0  0  0  0  0  0  0  0  0  0  0
   -1.2533    1.4520    0.0000 H   0  0  0  0  0  0  0  0  0  0  0  0
   -1.9349    1.6385    0.0000 H   0  0  0  0  0  0  0  0  0  0  0  0
    1.1023    0.7100    0.0000 H   0  0  0  0  0  0  0  0  0  0  0  0
    2.7104    1.6385    0.0000 H   0  0  0  0  0  0  0  0  0  0  0  0
    2.7104    3.4955    0.0000 H   0  0  0  0  0  0  0  0  0  0  0  0
    1.1023    4.4240    0.0000 H   0  0  0  0  0  0  0  0  0  0  0  0
   -0.8619    4.7330    0.0000 H   0  0  0  0  0  0  0  0  0  0  0  0
   -2.4701    5.6615    0.0000 H   0  0  0  0  0  0  0  0  0  0  0  0
   -4.0783    4.7330    0.0000 H   0  0  0  0  0  0  0  0  0  0  0  0
   -4.0783    2.8760    0.0000 H   0  0  0  0  0  0  0  0  0  0  0  0
   -2.4701    1.9475    0.0000 H   0  0  0  0  0  0  0  0  0  0  0  0
  1  4  1  0  0  0  0
  1 36  1  6  0  0  0
  2  1  1  0  0  0  0
  2  7  1  6  0  0  0
  2 11  1  0  0  0  0
  3  1  1  0  0  0  0
  3  2  1  0  0  0  0
  3 38  1  0  0  0  0
  3 39  1  0  0  0  0
  4  6  1  0  0  0  0
  5  4  2  0  0  0  0
  6 40  1  0  0  0  0
  7  8  1  0  0  0  0
  8 10  1  0  0  0  0
  8 41  1  0  0  0  0
  9  7  2  0  0  0  0
 10 12  1  0  0  0  0
 10 37  1  1  0  0  0
 11 10  1  0  0  0  0
 11 42  1  0  0  0  0
 11 43  1  0  0  0  0
 12 17  2  0  0  0  0
 12 13  1  0  0  0  0
 13 14  2  0  0  0  0
 13 44  1  0  0  0  0
 14 15  1  0  0  0  0
 14 45  1  0  0  0  0
 15 18  1  0  0  0  0
 16 15  2  0  0  0  0
 16 46  1  0  0  0  0
 17 16  1  0  0  0  0
 17 47  1  0  0  0  0
 18 19  1  0  0  0  0
 19 20  1  0  0  0  0
 19 48  1  0  0  0  0
 19 49  1  0  0  0  0
 20 25  1  0  0  0  0
 21 24  1  0  0  0  0
 22 21  2  0  0  0  0
 23 20  2  0  0  0  0
 23 22  1  0  0  0  0
 23 50  1  0  0  0  0
 24 29  1  0  0  0  0
 25 24  2  0  0  0  0
 25 26  1  0  0  0  0
 26 27  2  0  0  0  0
 26 51  1  0  0  0  0
 27 28  1  0  0  0  0
 27 52  1  0  0  0  0
 28 53  1  0  0  0  0
 29 28  2  0  0  0  0
 29 54  1  0  0  0  0
 30 22  1  0  0  0  0
 31 30  1  0  0  0  0
 31 55  1  0  0  0  0
 32 31  2  0  0  0  0
 32 56  1  0  0  0  0
 33 32  1  0  0  0  0
 33 57  1  0  0  0  0
 34 33  2  0  0  0  0
 34 35  1  0  0  0  0
 34 58  1  0  0  0  0
 35 30  2  0  0  0  0
 35 59  1  0  0  0  0
M  END
>  <DRUGBANK_ID>
DB07189

>  <COMMON_NAME>
(1S,3R,6S)-4-oxo-6-{4-[(2-phenylquinolin-4-yl)methoxy]phenyl}-5-azaspiro[2.4]heptane-1-carboxylic acid

$$$$
