
 OpenBabel10282417072D

 44 47  0  0  0  0  0  0  0  0999 V2000
   -0.2628    2.8035    0.0000 C   0  0  0  0  0  0  0  0  0  0  0  0
    1.3646    1.3382    0.0000 C   0  0  0  0  0  0  0  0  0  0  0  0
    1.5222    5.5522    0.0000 C   0  0  0  0  0  0  0  0  0  0  0  0
    3.9116    3.4007    0.0000 C   0  0  0  0  0  0  0  0  0  0  0  0
    0.5441    2.6320    0.0000 C   0  0  0  0  0  0  0  0  0  0  0  0
    1.1097    2.1228    0.0000 C   0  0  0  0  0  0  0  0  0  0  0  0
    2.0071    4.8848    0.0000 C   0  0  0  0  0  0  0  0  0  0  0  0
    3.1972    3.8132    0.0000 C   0  0  0  0  0  0  0  0  0  0  0  0
    0.4046    3.9596    0.0000 C   0  0  0  0  0  0  0  0  0  0  0  0
    2.4445    2.1228    0.0000 C   0  0  0  0  0  0  0  0  0  0  0  0
    0.7375    4.4723    0.0000 C   0  0  0  0  0  0  0  0  0  0  0  0
    2.9196    2.5075    0.0000 C   0  0  0  0  0  0  0  0  0  0  0  0
    1.7771    3.4327    0.0000 Cu  0  0  0  0  0  0  0  0  0  0  0  0
   -0.3491    3.6240    0.0000 N   0  0  0  0  0  0  0  0  0  0  0  0
    2.1896    1.3382    0.0000 N   0  0  0  0  0  0  0  0  0  0  0  0
    0.7375    5.2973    0.0000 N   0  0  0  0  0  0  0  0  0  0  0  0
    3.7401    2.5937    0.0000 N   0  0  0  0  0  0  0  0  0  0  0  0
    0.9566    3.3465    0.0000 N   0  3  0  0  0  0  0  0  0  0  0  0
    1.7771    2.6077    0.0000 N   0  3  0  0  0  0  0  0  0  0  0  0
    1.5222    4.2173    0.0000 N   0  3  0  0  0  0  0  0  0  0  0  0
    2.5841    3.2612    0.0000 N   0  0  0  0  0  0  0  0  0  0  0  0
    2.3291    4.0458    0.0000 O   0  3  0  0  0  0  0  0  0  0  0  0
    1.2251    2.8196    0.0000 O   0  3  0  0  0  0  0  0  0  0  0  0
   -1.0297    2.1129    0.0000 H   0  0  0  0  0  0  0  0  0  0  0  0
    0.7580    0.5033    0.0000 H   0  0  0  0  0  0  0  0  0  0  0  0
    1.8411    6.5337    0.0000 H   0  0  0  0  0  0  0  0  0  0  0  0
    4.8544    3.8205    0.0000 H   0  0  0  0  0  0  0  0  0  0  0  0
    0.9639    1.6892    0.0000 H   0  0  0  0  0  0  0  0  0  0  0  0
    0.1282    2.4417    0.0000 H   0  0  0  0  0  0  0  0  0  0  0  0
    3.0391    4.8848    0.0000 H   0  0  0  0  0  0  0  0  0  0  0  0
    3.0894    4.8396    0.0000 H   0  0  0  0  0  0  0  0  0  0  0  0
    0.6192    4.9690    0.0000 H   0  0  0  0  0  0  0  0  0  0  0  0
    3.4260    2.4417    0.0000 H   0  0  0  0  0  0  0  0  0  0  0  0
   -0.0974    3.8657    0.0000 H   0  0  0  0  0  0  0  0  0  0  0  0
    2.4035    1.6138    0.0000 H   0  0  0  0  0  0  0  0  0  0  0  0
   -1.2017    4.1162    0.0000 H   0  0  0  0  0  0  0  0  0  0  0  0
    2.7683    0.5417    0.0000 H   0  0  0  0  0  0  0  0  0  0  0  0
   -0.0590    5.8760    0.0000 H   0  0  0  0  0  0  0  0  0  0  0  0
    4.3989    1.8621    0.0000 H   0  0  0  0  0  0  0  0  0  0  0  0
    1.9645    2.4961    0.0000 H   0  0  0  0  0  0  0  0  0  0  0  0
    3.2779    3.8442    0.0000 H   0  0  0  0  0  0  0  0  0  0  0  0
    2.0293    4.9683    0.0000 H   0  0  0  0  0  0  0  0  0  0  0  0
    0.2763    3.0212    0.0000 H   0  0  0  0  0  0  0  0  0  0  0  0
    1.5249    1.8971    0.0000 H   0  0  0  0  0  0  0  0  0  0  0  0
  1 24  1  0  0  0  0
  2 25  1  0  0  0  0
  3 26  1  0  0  0  0
  4 27  1  0  0  0  0
  5  1  2  0  0  0  0
  5 28  1  0  0  0  0
  6  2  2  0  0  0  0
  6 29  1  0  0  0  0
  7  3  2  0  0  0  0
  7 30  1  0  0  0  0
  8  4  2  0  0  0  0
  8 31  1  0  0  0  0
  9 32  1  0  0  0  0
 10 33  1  0  0  0  0
 11 34  1  0  0  0  0
 12 35  1  0  0  0  0
 14  1  1  0  0  0  0
 14  9  1  0  0  0  0
 14 36  1  0  0  0  0
 15  2  1  0  0  0  0
 15 10  1  0  0  0  0
 15 37  1  0  0  0  0
 16  3  1  0  0  0  0
 16 11  1  0  0  0  0
 16 38  1  0  0  0  0
 17  4  1  0  0  0  0
 17 12  1  0  0  0  0
 17 39  1  0  0  0  0
 18  5  1  0  0  0  0
 18  9  2  0  0  0  0
 18 13  1  0  0  0  0
 19  6  1  0  0  0  0
 19 10  2  0  0  0  0
 19 13  1  0  0  0  0
 20  7  1  0  0  0  0
 20 11  2  0  0  0  0
 20 13  1  0  0  0  0
 21  8  1  0  0  0  0
 21 12  2  0  0  0  0
 21 13  1  0  0  0  0
 21 40  1  0  0  0  0
 22 13  1  0  0  0  0
 22 41  1  0  0  0  0
 22 42  1  0  0  0  0
 23 13  1  0  0  0  0
 23 43  1  0  0  0  0
 23 44  1  0  0  0  0
M  CHG  6  13  -4  18   1  19   1  20   1  22   1  23   1
M  END
>  <DRUGBANK_ID>
DB04231

>  <SECONDARY_ACCESSION_NUMBERS>
EXPT01867

>  <COMMON_NAME>
Tetra(imidazole)diaquacopper (I)

$$$$
