CNQ
 OpenBabel10282417072D

 30 32  0  0  0  0  0  0  0  0999 V2000
   -2.2909   -1.1611    0.0000 C   0  0  0  0  0  0  0  0  0  0  0  0
   -1.5764   -1.5736    0.0000 C   0  0  0  0  0  0  0  0  0  0  0  0
   -0.8620   -1.1611    0.0000 C   0  0  0  0  0  0  0  0  0  0  0  0
   -0.8620   -0.3361    0.0000 C   0  0  0  0  0  0  0  0  0  0  0  0
   -1.5764    0.0764    0.0000 C   0  0  0  0  0  0  0  0  0  0  0  0
   -2.2909   -0.3361    0.0000 C   0  0  0  0  0  0  0  0  0  0  0  0
   -0.1475   -1.5736    0.0000 N   0  0  0  0  0  0  0  0  0  0  0  0
    0.5670   -1.1611    0.0000 C   0  0  0  0  0  0  0  0  0  0  0  0
    0.5670   -0.3361    0.0000 C   0  0  0  0  0  0  0  0  0  0  0  0
   -0.1475    0.0764    0.0000 N   0  0  0  0  0  0  0  0  0  0  0  0
   -1.5764    0.9014    0.0000 C   0  0  0  0  0  0  0  0  0  0  0  0
   -2.2909    1.3139    0.0000 N   0  0  0  0  0  0  0  0  0  0  0  0
   -0.8620    1.3139    0.0000 O   0  0  0  0  0  0  0  0  0  0  0  0
    1.2815    0.0764    0.0000 C   0  0  0  0  0  0  0  0  0  0  0  0
    1.2815    0.9014    0.0000 C   0  0  0  0  0  0  0  0  0  0  0  0
    1.9959    1.3139    0.0000 C   0  0  0  0  0  0  0  0  0  0  0  0
    2.7104    0.9014    0.0000 C   0  0  0  0  0  0  0  0  0  0  0  0
    2.7104    0.0764    0.0000 C   0  0  0  0  0  0  0  0  0  0  0  0
    1.9959   -0.3361    0.0000 C   0  0  0  0  0  0  0  0  0  0  0  0
    3.4249    1.3139    0.0000 Cl  0  0  0  0  0  0  0  0  0  0  0  0
   -3.1846   -1.6771    0.0000 H   0  0  0  0  0  0  0  0  0  0  0  0
   -1.5764   -2.6056    0.0000 H   0  0  0  0  0  0  0  0  0  0  0  0
   -3.1846    0.1799    0.0000 H   0  0  0  0  0  0  0  0  0  0  0  0
    1.4607   -1.6771    0.0000 H   0  0  0  0  0  0  0  0  0  0  0  0
   -2.2909    2.2984    0.0000 H   0  0  0  0  0  0  0  0  0  0  0  0
   -3.1435    0.8216    0.0000 H   0  0  0  0  0  0  0  0  0  0  0  0
    0.3878    1.4174    0.0000 H   0  0  0  0  0  0  0  0  0  0  0  0
    1.9959    2.3459    0.0000 H   0  0  0  0  0  0  0  0  0  0  0  0
    3.6041   -0.4396    0.0000 H   0  0  0  0  0  0  0  0  0  0  0  0
    1.9959   -1.3681    0.0000 H   0  0  0  0  0  0  0  0  0  0  0  0
  1  2  2  0  0  0  0
  1  6  1  0  0  0  0
  1 21  1  0  0  0  0
  2  3  1  0  0  0  0
  2 22  1  0  0  0  0
  3  4  1  0  0  0  0
  3  7  2  0  0  0  0
  4  5  1  0  0  0  0
  4 10  2  0  0  0  0
  5  6  2  0  0  0  0
  5 11  1  0  0  0  0
  6 23  1  0  0  0  0
  7  8  1  0  0  0  0
  8  9  2  0  0  0  0
  8 24  1  0  0  0  0
  9 10  1  0  0  0  0
  9 14  1  0  0  0  0
 11 12  1  0  0  0  0
 11 13  2  0  0  0  0
 12 25  1  0  0  0  0
 12 26  1  0  0  0  0
 14 15  1  0  0  0  0
 14 19  2  0  0  0  0
 15 16  2  0  0  0  0
 15 27  1  0  0  0  0
 16 17  1  0  0  0  0
 16 28  1  0  0  0  0
 17 18  2  0  0  0  0
 17 20  1  0  0  0  0
 18 19  1  0  0  0  0
 18 29  1  0  0  0  0
 19 30  1  0  0  0  0
M  END
>  <DRUGBANK_ID>
DB03509

>  <SECONDARY_ACCESSION_NUMBERS>
EXPT00973

>  <COMMON_NAME>
2-(4-Chlorophenyl)-5-Quinoxalinecarboxamide

$$$$
