
 OpenBabel10282417072D

  6  4  0  0  0  0  0  0  0  0999 V2000
   -1.5307    0.0000    0.0000 Ni  0  2  0  0  0  0  0  0  0  0  0  0
    0.7057    0.0000    0.0000 S   0  0  0  0  0  0  0  0  0  0  0  0
    0.7057   -0.8250    0.0000 O   0  0  0  0  0  0  0  0  0  0  0  0
   -0.1192    0.0000    0.0000 O   0  5  0  0  0  0  0  0  0  0  0  0
    1.5307    0.0000    0.0000 O   0  5  0  0  0  0  0  0  0  0  0  0
    0.7057    0.8250    0.0000 O   0  0  0  0  0  0  0  0  0  0  0  0
  3  2  2  0  0  0  0
  4  2  1  0  0  0  0
  5  2  1  0  0  0  0
  6  2  2  0  0  0  0
M  CHG  3   1   2   4  -1   5  -1
M  END
>  <DRUGBANK_ID>
DB14180

>  <COMMON_NAME>
Nickel sulfate

>  <CAS_NUMBER>
7786-81-4

>  <UNII>
4FLT4T3WUN

>  <SYNONYMS>
Nickel sulfate(1:1); Nickel sulphate; nickel(II) sulfate

$$$$
