
 OpenBabel10282417072D

 20 15  0  0  0  0  0  0  0  0999 V2000
    0.3572   -0.2063    0.0000 C   0  0  0  0  0  0  0  0  0  0  0  0
    0.3572   -1.0313    0.0000 O   0  0  0  0  0  0  0  0  0  0  0  0
   -0.3572    0.2063    0.0000 C   0  0  0  0  0  0  0  0  0  0  0  0
   -0.3572    1.0313    0.0000 O   0  0  0  0  0  0  0  0  0  0  0  0
   -1.0717   -0.2063    0.0000 O   0  5  0  0  0  0  0  0  0  0  0  0
    1.0717    0.2063    0.0000 O   0  5  0  0  0  0  0  0  0  0  0  0
    4.8505   -0.3572    0.0000 C   0  0  0  0  0  0  0  0  0  0  0  0
    5.2630   -1.0717    0.0000 O   0  0  0  0  0  0  0  0  0  0  0  0
    5.2630    0.3572    0.0000 C   0  0  0  0  0  0  0  0  0  0  0  0
    4.8505    1.0717    0.0000 O   0  0  0  0  0  0  0  0  0  0  0  0
    6.0880    0.3572    0.0000 O   0  5  0  0  0  0  0  0  0  0  0  0
    4.0255   -0.3572    0.0000 O   0  5  0  0  0  0  0  0  0  0  0  0
   -0.2063   -4.1506    0.0000 C   0  0  0  0  0  0  0  0  0  0  0  0
    0.2062   -4.8651    0.0000 O   0  0  0  0  0  0  0  0  0  0  0  0
    0.2063   -3.4362    0.0000 C   0  0  0  0  0  0  0  0  0  0  0  0
   -0.2062   -2.7217    0.0000 O   0  0  0  0  0  0  0  0  0  0  0  0
    1.0313   -3.4362    0.0000 O   0  5  0  0  0  0  0  0  0  0  0  0
   -1.0313   -4.1506    0.0000 O   0  5  0  0  0  0  0  0  0  0  0  0
   -1.7862   -0.6188    0.0000 Ce  0  1  0  0  0  0  0  0  0  0  0  0
    1.7862    0.6188    0.0000 Ce  0  1  0  0  0  0  0  0  0  0  0  0
  1  2  2  0  0  0  0
  1  3  1  0  0  0  0
  1  6  1  0  0  0  0
  3  4  2  0  0  0  0
  3  5  1  0  0  0  0
  7  8  2  0  0  0  0
  7  9  1  0  0  0  0
  7 12  1  0  0  0  0
  9 10  2  0  0  0  0
  9 11  1  0  0  0  0
 13 14  2  0  0  0  0
 13 15  1  0  0  0  0
 13 18  1  0  0  0  0
 15 16  2  0  0  0  0
 15 17  1  0  0  0  0
M  CHG  8   5  -1   6  -1  11  -1  12  -1  17  -1  18  -1  19   3  20   3
M  END
>  <DRUGBANK_ID>
DB13519

>  <COMMON_NAME>
Cerium oxalate

>  <CAS_NUMBER>
139-42-4

>  <UNII>
96P72VE680

>  <SYNONYMS>
Cerous oxalate

$$$$
