BRX
 OpenBabel10282417072D

 32 32  0  0  0  0  0  0  0  0999 V2000
   23.5599   20.9627    0.0000 O   0  0  0  0  0  0  0  0  0  0  0  0
   23.5599   20.1377    0.0000 C   0  0  0  0  0  0  0  0  0  0  0  0
   22.8455   19.7252    0.0000 N   0  0  0  0  0  0  0  0  0  0  0  0
   22.1310   20.1377    0.0000 C   0  0  2  0  0  0  0  0  0  0  0  0
   22.1310   20.9627    0.0000 C   0  0  0  0  0  0  0  0  0  0  0  0
   21.4165   21.3752    0.0000 O   0  0  0  0  0  0  0  0  0  0  0  0
   21.4165   19.7252    0.0000 C   0  0  2  0  0  0  0  0  0  0  0  0
   21.4165   18.9002    0.0000 O   0  0  0  0  0  0  0  0  0  0  0  0
   20.7020   20.1377    0.0000 C   0  0  0  0  0  0  0  0  0  0  0  0
   19.9876   19.7252    0.0000 C   0  0  0  0  0  0  0  0  0  0  0  0
   19.2731   20.1377    0.0000 C   0  0  0  0  0  0  0  0  0  0  0  0
   19.2731   20.9627    0.0000 C   0  0  0  0  0  0  0  0  0  0  0  0
   18.5586   21.3752    0.0000 N   0  3  0  0  0  0  0  0  0  0  0  0
   18.5586   22.2002    0.0000 O   0  5  0  0  0  0  0  0  0  0  0  0
   17.8442   20.9627    0.0000 O   0  0  0  0  0  0  0  0  0  0  0  0
   19.9876   21.3752    0.0000 C   0  0  0  0  0  0  0  0  0  0  0  0
   20.7020   20.9627    0.0000 C   0  0  0  0  0  0  0  0  0  0  0  0
   24.2744   19.7252    0.0000 C   0  0  0  0  0  0  0  0  0  0  0  0
   24.9889   20.1377    0.0000 Br  0  0  0  0  0  0  0  0  0  0  0  0
   24.2744   18.9002    0.0000 Br  0  0  0  0  0  0  0  0  0  0  0  0
   22.6367   20.4297    0.0000 H   0  0  0  0  0  0  0  0  0  0  0  0
   21.9222   19.4332    0.0000 H   0  0  0  0  0  0  0  0  0  0  0  0
   22.8455   18.7407    0.0000 H   0  0  0  0  0  0  0  0  0  0  0  0
   23.0576   21.4977    0.0000 H   0  0  0  0  0  0  0  0  0  0  0  0
   22.1310   22.0327    0.0000 H   0  0  0  0  0  0  0  0  0  0  0  0
   21.4165   22.3452    0.0000 H   0  0  0  0  0  0  0  0  0  0  0  0
   20.5765   18.4152    0.0000 H   0  0  0  0  0  0  0  0  0  0  0  0
   19.9876   18.6932    0.0000 H   0  0  0  0  0  0  0  0  0  0  0  0
   18.3794   19.6217    0.0000 H   0  0  0  0  0  0  0  0  0  0  0  0
   19.9876   22.4072    0.0000 H   0  0  0  0  0  0  0  0  0  0  0  0
   21.5957   21.4787    0.0000 H   0  0  0  0  0  0  0  0  0  0  0  0
   25.2010   19.1902    0.0000 H   0  0  0  0  0  0  0  0  0  0  0  0
  1  2  2  0  0  0  0
  2  3  1  0  0  0  0
  2 18  1  0  0  0  0
  3 23  1  0  0  0  0
  4  3  1  0  0  0  0
  4  5  1  0  0  0  0
  4  7  1  0  0  0  0
  4 21  1  6  0  0  0
  5  6  1  0  0  0  0
  5 24  1  0  0  0  0
  5 25  1  0  0  0  0
  6 26  1  0  0  0  0
  7  8  1  0  0  0  0
  7  9  1  0  0  0  0
  7 22  1  1  0  0  0
  8 27  1  0  0  0  0
  9 10  1  0  0  0  0
  9 17  2  0  0  0  0
 10 11  2  0  0  0  0
 10 28  1  0  0  0  0
 11 12  1  0  0  0  0
 11 29  1  0  0  0  0
 12 13  1  0  0  0  0
 12 16  2  0  0  0  0
 13 14  1  0  0  0  0
 13 15  2  0  0  0  0
 16 17  1  0  0  0  0
 16 30  1  0  0  0  0
 17 31  1  0  0  0  0
 18 19  1  0  0  0  0
 18 20  1  0  0  0  0
 18 32  1  0  0  0  0
M  CHG  2  13   1  14  -1
M  END
>  <DRUGBANK_ID>
DB07492

>  <COMMON_NAME>
Bromamphenicol

>  <CAS_NUMBER>
16803-75-1

$$$$
