
 OpenBabel10282417072D

 46 48  0  0  0  0  0  0  0  0999 V2000
   11.6738  -11.0137    0.0000 C   0  0  0  0  0  0  0  0  0  0  0  0
   11.6738  -11.8387    0.0000 C   0  0  0  0  0  0  0  0  0  0  0  0
   12.3750  -12.2512    0.0000 C   0  0  0  0  0  0  0  0  0  0  0  0
   12.3750  -10.6012    0.0000 C   0  0  0  0  0  0  0  0  0  0  0  0
   13.1175  -11.0137    0.0000 C   0  0  0  0  0  0  0  0  0  0  0  0
   13.1175  -11.8387    0.0000 C   0  0  0  0  0  0  0  0  0  0  0  0
   13.9013  -12.1275    0.0000 C   0  0  0  0  0  0  0  0  0  0  0  0
   14.3550  -11.4262    0.0000 C   0  0  0  0  0  0  0  0  0  0  0  0
   13.9013  -10.7662    0.0000 C   0  0  0  0  0  0  0  0  0  0  0  0
   15.1800  -11.4262    0.0000 C   0  0  0  0  0  0  0  0  0  0  0  0
   15.5925  -12.1687    0.0000 C   0  0  0  0  0  0  0  0  0  0  0  0
   16.4175  -12.1687    0.0000 N   0  0  0  0  0  0  0  0  0  0  0  0
   16.8300  -12.8700    0.0000 C   0  0  0  0  0  0  0  0  0  0  0  0
   16.8300  -11.4675    0.0000 C   0  0  0  0  0  0  0  0  0  0  0  0
   13.9013   -9.9412    0.0000 C   0  0  3  0  0  0  0  0  0  0  0  0
   14.6025   -9.5287    0.0000 C   0  0  0  0  0  0  0  0  0  0  0  0
   13.1588   -9.5287    0.0000 C   0  0  0  0  0  0  0  0  0  0  0  0
   15.3038   -9.9412    0.0000 C   0  0  0  0  0  0  0  0  0  0  0  0
   16.0050   -9.5287    0.0000 C   0  0  0  0  0  0  0  0  0  0  0  0
   16.0050   -8.7037    0.0000 C   0  0  0  0  0  0  0  0  0  0  0  0
   15.3038   -8.2912    0.0000 C   0  0  0  0  0  0  0  0  0  0  0  0
   14.6025   -8.7037    0.0000 N   0  0  0  0  0  0  0  0  0  0  0  0
   10.7780  -10.5013    0.0000 H   0  0  0  0  0  0  0  0  0  0  0  0
   10.7780  -12.3511    0.0000 H   0  0  0  0  0  0  0  0  0  0  0  0
   12.3623  -13.2831    0.0000 H   0  0  0  0  0  0  0  0  0  0  0  0
   12.3623   -9.5693    0.0000 H   0  0  0  0  0  0  0  0  0  0  0  0
   14.2397  -13.1426    0.0000 H   0  0  0  0  0  0  0  0  0  0  0  0
   14.9628  -12.2622    0.0000 H   0  0  0  0  0  0  0  0  0  0  0  0
   15.7226  -10.5040    0.0000 H   0  0  0  0  0  0  0  0  0  0  0  0
   16.2499  -11.4394    0.0000 H   0  0  0  0  0  0  0  0  0  0  0  0
   15.0499  -13.0909    0.0000 H   0  0  0  0  0  0  0  0  0  0  0  0
   16.1237  -13.0975    0.0000 H   0  0  0  0  0  0  0  0  0  0  0  0
   16.3025  -13.8009    0.0000 H   0  0  0  0  0  0  0  0  0  0  0  0
   17.9000  -12.8613    0.0000 H   0  0  0  0  0  0  0  0  0  0  0  0
   17.3725  -13.7923    0.0000 H   0  0  0  0  0  0  0  0  0  0  0  0
   17.9000  -11.4762    0.0000 H   0  0  0  0  0  0  0  0  0  0  0  0
   16.3026  -10.5365    0.0000 H   0  0  0  0  0  0  0  0  0  0  0  0
   17.3725  -10.5452    0.0000 H   0  0  0  0  0  0  0  0  0  0  0  0
   14.8301  -10.4724    0.0000 H   0  0  0  0  0  0  0  0  0  0  0  0
   13.1411   -8.4588    0.0000 H   0  0  0  0  0  0  0  0  0  0  0  0
   12.2411  -10.0789    0.0000 H   0  0  0  0  0  0  0  0  0  0  0  0
   12.2235   -9.0091    0.0000 H   0  0  0  0  0  0  0  0  0  0  0  0
   15.3038  -10.9732    0.0000 H   0  0  0  0  0  0  0  0  0  0  0  0
   16.9008  -10.0411    0.0000 H   0  0  0  0  0  0  0  0  0  0  0  0
   16.9008   -8.1913    0.0000 H   0  0  0  0  0  0  0  0  0  0  0  0
   15.3038   -7.2592    0.0000 H   0  0  0  0  0  0  0  0  0  0  0  0
  1  2  2  0  0  0  0
  1 23  1  0  0  0  0
  2  3  1  0  0  0  0
  2 24  1  0  0  0  0
  3  6  2  0  0  0  0
  3 25  1  0  0  0  0
  4  1  1  0  0  0  0
  4 26  1  0  0  0  0
  5  6  1  0  0  0  0
  5  4  2  0  0  0  0
  6  7  1  0  0  0  0
  7  8  1  0  0  0  0
  7 27  1  0  0  0  0
  7 28  1  0  0  0  0
  8  9  2  0  0  0  0
  8 10  1  0  0  0  0
  9 15  1  0  0  0  0
  9  5  1  0  0  0  0
 10 11  1  0  0  0  0
 10 29  1  0  0  0  0
 10 30  1  0  0  0  0
 11 12  1  0  0  0  0
 11 31  1  0  0  0  0
 11 32  1  0  0  0  0
 12 14  1  0  0  0  0
 12 13  1  0  0  0  0
 13 33  1  0  0  0  0
 13 34  1  0  0  0  0
 13 35  1  0  0  0  0
 14 36  1  0  0  0  0
 14 37  1  0  0  0  0
 14 38  1  0  0  0  0
 15 16  1  0  0  0  0
 15 17  1  0  0  0  0
 15 39  1  0  0  0  0
 16 18  2  0  0  0  0
 17 40  1  0  0  0  0
 17 41  1  0  0  0  0
 17 42  1  0  0  0  0
 18 19  1  0  0  0  0
 18 43  1  0  0  0  0
 19 20  2  0  0  0  0
 19 44  1  0  0  0  0
 20 21  1  0  0  0  0
 20 45  1  0  0  0  0
 21 22  2  0  0  0  0
 21 46  1  0  0  0  0
 22 16  1  0  0  0  0
M  END
>  <DRUGBANK_ID>
DB08801

>  <COMMON_NAME>
Dimetindene

>  <CAS_NUMBER>
5636-83-9

>  <UNII>
661FH77Z3P

>  <SYNONYMS>
Dimethindene; Dimetindene; Dimetindeno

$$$$
