
 OpenBabel10282417072D

 48 48  0  0  0  0  0  0  0  0999 V2000
   -2.8574   -0.2062    0.0000 C   0  0  0  0  0  0  0  0  0  0  0  0
   -3.5707   -0.6184    0.0000 C   0  0  0  0  0  0  0  0  0  0  0  0
   -3.5707   -1.4432    0.0000 O   0  0  0  0  0  0  0  0  0  0  0  0
   -4.2854   -1.8554    0.0000 C   0  0  0  0  0  0  0  0  0  0  0  0
   -1.4280    0.6184    0.0000 N   0  0  0  0  0  0  0  0  0  0  0  0
   -2.1427    1.0307    0.0000 C   0  0  0  0  0  0  0  0  0  0  0  0
   -2.8574    0.6184    0.0000 C   0  0  0  0  0  0  0  0  0  0  0  0
   -3.5707    1.0307    0.0000 C   0  0  0  0  0  0  0  0  0  0  0  0
   -4.2854    0.6184    0.0000 C   0  0  0  0  0  0  0  0  0  0  0  0
   -4.2854   -0.2062    0.0000 C   0  0  0  0  0  0  0  0  0  0  0  0
   -4.9987   -0.6184    0.0000 O   0  0  0  0  0  0  0  0  0  0  0  0
   -0.7147    1.8554    0.0000 O   0  0  0  0  0  0  0  0  0  0  0  0
   -0.7147    1.0307    0.0000 C   0  0  0  0  0  0  0  0  0  0  0  0
   -0.0001    0.6184    0.0000 C   0  0  0  0  0  0  0  0  0  0  0  0
    0.7132    1.0307    0.0000 C   0  0  0  0  0  0  0  0  0  0  0  0
    1.4279    0.6184    0.0000 C   0  0  0  0  0  0  0  0  0  0  0  0
    2.1426    1.0307    0.0000 C   0  0  0  0  0  0  0  0  0  0  0  0
    2.8560    0.6184    0.0000 C   0  0  0  0  0  0  0  0  0  0  0  0
    3.5707    1.0307    0.0000 C   0  0  0  0  0  0  0  0  0  0  0  0
    4.2854    0.6184    0.0000 C   0  0  0  0  0  0  0  0  0  0  0  0
    4.9987    1.0307    0.0000 C   0  0  0  0  0  0  0  0  0  0  0  0
   -1.9636   -0.7220    0.0000 H   0  0  0  0  0  0  0  0  0  0  0  0
   -5.2118   -1.3200    0.0000 H   0  0  0  0  0  0  0  0  0  0  0  0
   -4.2859   -2.9254    0.0000 H   0  0  0  0  0  0  0  0  0  0  0  0
   -5.2123   -2.3900    0.0000 H   0  0  0  0  0  0  0  0  0  0  0  0
   -1.4276   -0.3661    0.0000 H   0  0  0  0  0  0  0  0  0  0  0  0
   -2.1427    2.1007    0.0000 H   0  0  0  0  0  0  0  0  0  0  0  0
   -3.0693    1.5659    0.0000 H   0  0  0  0  0  0  0  0  0  0  0  0
   -3.5703    2.0627    0.0000 H   0  0  0  0  0  0  0  0  0  0  0  0
   -5.1790    1.1346    0.0000 H   0  0  0  0  0  0  0  0  0  0  0  0
   -5.8104   -0.1502    0.0000 H   0  0  0  0  0  0  0  0  0  0  0  0
    0.0003   -0.4516    0.0000 H   0  0  0  0  0  0  0  0  0  0  0  0
    0.9268    0.0838    0.0000 H   0  0  0  0  0  0  0  0  0  0  0  0
    0.7127    2.1007    0.0000 H   0  0  0  0  0  0  0  0  0  0  0  0
    1.6396    1.5661    0.0000 H   0  0  0  0  0  0  0  0  0  0  0  0
    1.4279   -0.4516    0.0000 H   0  0  0  0  0  0  0  0  0  0  0  0
    2.3545    0.0832    0.0000 H   0  0  0  0  0  0  0  0  0  0  0  0
    2.1430    2.1007    0.0000 H   0  0  0  0  0  0  0  0  0  0  0  0
    3.0695    1.5653    0.0000 H   0  0  0  0  0  0  0  0  0  0  0  0
    2.8556   -0.4516    0.0000 H   0  0  0  0  0  0  0  0  0  0  0  0
    3.7824    0.0831    0.0000 H   0  0  0  0  0  0  0  0  0  0  0  0
    3.5707    2.1007    0.0000 H   0  0  0  0  0  0  0  0  0  0  0  0
    4.4973    1.5659    0.0000 H   0  0  0  0  0  0  0  0  0  0  0  0
    4.2859   -0.4516    0.0000 H   0  0  0  0  0  0  0  0  0  0  0  0
    5.2123    0.0838    0.0000 H   0  0  0  0  0  0  0  0  0  0  0  0
    5.9256    0.4962    0.0000 H   0  0  0  0  0  0  0  0  0  0  0  0
    4.9982    2.1007    0.0000 H   0  0  0  0  0  0  0  0  0  0  0  0
    5.9251    1.5662    0.0000 H   0  0  0  0  0  0  0  0  0  0  0  0
  1  2  1  0  0  0  0
  1  7  2  0  0  0  0
  1 22  1  0  0  0  0
  2  3  1  0  0  0  0
  2 10  2  0  0  0  0
  3  4  1  0  0  0  0
  4 23  1  0  0  0  0
  4 24  1  0  0  0  0
  4 25  1  0  0  0  0
  5  6  1  0  0  0  0
  5 13  1  0  0  0  0
  5 26  1  0  0  0  0
  6  7  1  0  0  0  0
  6 27  1  0  0  0  0
  6 28  1  0  0  0  0
  7  8  1  0  0  0  0
  8  9  2  0  0  0  0
  8 29  1  0  0  0  0
  9 10  1  0  0  0  0
  9 30  1  0  0  0  0
 10 11  1  0  0  0  0
 11 31  1  0  0  0  0
 12 13  2  0  0  0  0
 13 14  1  0  0  0  0
 14 15  1  0  0  0  0
 14 32  1  0  0  0  0
 14 33  1  0  0  0  0
 15 16  1  0  0  0  0
 15 34  1  0  0  0  0
 15 35  1  0  0  0  0
 16 17  1  0  0  0  0
 16 36  1  0  0  0  0
 16 37  1  0  0  0  0
 17 18  1  0  0  0  0
 17 38  1  0  0  0  0
 17 39  1  0  0  0  0
 18 19  1  0  0  0  0
 18 40  1  0  0  0  0
 18 41  1  0  0  0  0
 19 20  1  0  0  0  0
 19 42  1  0  0  0  0
 19 43  1  0  0  0  0
 20 21  1  0  0  0  0
 20 44  1  0  0  0  0
 20 45  1  0  0  0  0
 21 46  1  0  0  0  0
 21 47  1  0  0  0  0
 21 48  1  0  0  0  0
M  END
>  <DRUGBANK_ID>
DB11324

>  <COMMON_NAME>
Nonivamide

>  <CAS_NUMBER>
2444-46-4

>  <UNII>
S846B891OR

>  <SYNONYMS>
Hydroxymethoxybenzyl pelargonamide; N-Nonanoyl vanillylamide; N-Vanillylnonamide; N-Vanillylpelargonamide; Nonivamide; Pelargonyl vanillylamide; Pseudocapsaicin; Vanillyl-N-nonylamide

$$$$
