I45
 OpenBabel10282417072D

 49 51  0  0  0  0  0  0  0  0999 V2000
    0.0529   -2.8935    0.0000 C   0  0  0  0  0  0  0  0  0  0  0  0
    0.7674   -3.3060    0.0000 C   0  0  0  0  0  0  0  0  0  0  0  0
    0.7674   -4.1310    0.0000 C   0  0  0  0  0  0  0  0  0  0  0  0
    0.0529   -4.5435    0.0000 C   0  0  0  0  0  0  0  0  0  0  0  0
   -0.6615   -4.1310    0.0000 C   0  0  0  0  0  0  0  0  0  0  0  0
   -0.6615   -3.3060    0.0000 C   0  0  0  0  0  0  0  0  0  0  0  0
    0.0529   -2.0685    0.0000 C   0  0  0  0  0  0  0  0  0  0  0  0
   -0.6615   -1.6560    0.0000 O   0  0  0  0  0  0  0  0  0  0  0  0
   -0.6615   -0.8310    0.0000 C   0  0  0  0  0  0  0  0  0  0  0  0
   -1.3760   -0.4185    0.0000 C   0  0  0  0  0  0  0  0  0  0  0  0
   -1.3760    0.4065    0.0000 C   0  0  0  0  0  0  0  0  0  0  0  0
   -0.6615    0.8190    0.0000 N   0  0  0  0  0  0  0  0  0  0  0  0
    0.0529    0.4065    0.0000 C   0  0  0  0  0  0  0  0  0  0  0  0
    0.0529   -0.4185    0.0000 C   0  0  0  0  0  0  0  0  0  0  0  0
   -0.6615    1.6440    0.0000 C   0  0  0  0  0  0  0  0  0  0  0  0
   -1.3760    2.0565    0.0000 C   0  0  0  0  0  0  0  0  0  0  0  0
   -1.3760    2.8815    0.0000 C   0  0  0  0  0  0  0  0  0  0  0  0
   -0.6615    3.2940    0.0000 C   0  0  0  0  0  0  0  0  0  0  0  0
    0.0529    2.8815    0.0000 C   0  0  0  0  0  0  0  0  0  0  0  0
    0.0529    2.0565    0.0000 C   0  0  0  0  0  0  0  0  0  0  0  0
    1.4819   -2.8935    0.0000 F   0  0  0  0  0  0  0  0  0  0  0  0
    0.0529   -5.3685    0.0000 F   0  0  0  0  0  0  0  0  0  0  0  0
   -2.0905   -0.8310    0.0000 Br  0  0  0  0  0  0  0  0  0  0  0  0
   -2.0905    0.8190    0.0000 O   0  0  0  0  0  0  0  0  0  0  0  0
    0.7674    0.8190    0.0000 C   0  0  0  0  0  0  0  0  0  0  0  0
   -2.0905    3.2940    0.0000 C   0  0  0  0  0  0  0  0  0  0  0  0
   -2.8049    2.8815    0.0000 O   0  0  0  0  0  0  0  0  0  0  0  0
   -2.0905    4.1190    0.0000 N   0  0  0  0  0  0  0  0  0  0  0  0
   -2.8049    4.5315    0.0000 C   0  0  0  0  0  0  0  0  0  0  0  0
    0.7674    1.6440    0.0000 C   0  0  0  0  0  0  0  0  0  0  0  0
    1.6611   -4.6470    0.0000 H   0  0  0  0  0  0  0  0  0  0  0  0
   -1.5552   -4.6470    0.0000 H   0  0  0  0  0  0  0  0  0  0  0  0
   -1.5552   -2.7900    0.0000 H   0  0  0  0  0  0  0  0  0  0  0  0
    0.9796   -1.5335    0.0000 H   0  0  0  0  0  0  0  0  0  0  0  0
    0.0529   -0.9985    0.0000 H   0  0  0  0  0  0  0  0  0  0  0  0
    0.9466   -0.9345    0.0000 H   0  0  0  0  0  0  0  0  0  0  0  0
   -2.2697    1.5405    0.0000 H   0  0  0  0  0  0  0  0  0  0  0  0
   -0.6615    4.3260    0.0000 H   0  0  0  0  0  0  0  0  0  0  0  0
    0.9466    3.3975    0.0000 H   0  0  0  0  0  0  0  0  0  0  0  0
    1.6940    0.2840    0.0000 H   0  0  0  0  0  0  0  0  0  0  0  0
    0.7674    1.8890    0.0000 H   0  0  0  0  0  0  0  0  0  0  0  0
    1.6941    1.3540    0.0000 H   0  0  0  0  0  0  0  0  0  0  0  0
   -1.2379    4.6112    0.0000 H   0  0  0  0  0  0  0  0  0  0  0  0
   -2.8049    5.6015    0.0000 H   0  0  0  0  0  0  0  0  0  0  0  0
   -3.7316    3.9965    0.0000 H   0  0  0  0  0  0  0  0  0  0  0  0
   -3.7315    5.0665    0.0000 H   0  0  0  0  0  0  0  0  0  0  0  0
    0.7674    0.5740    0.0000 H   0  0  0  0  0  0  0  0  0  0  0  0
    1.6940    2.1790    0.0000 H   0  0  0  0  0  0  0  0  0  0  0  0
    1.6941    1.1090    0.0000 H   0  0  0  0  0  0  0  0  0  0  0  0
  1  2  2  0  0  0  0
  1  6  1  0  0  0  0
  1  7  1  0  0  0  0
  2  3  1  0  0  0  0
  2 21  1  0  0  0  0
  3  4  2  0  0  0  0
  3 31  1  0  0  0  0
  4  5  1  0  0  0  0
  4 22  1  0  0  0  0
  5  6  2  0  0  0  0
  5 32  1  0  0  0  0
  6 33  1  0  0  0  0
  7  8  1  0  0  0  0
  7 34  1  0  0  0  0
  7 35  1  0  0  0  0
  8  9  1  0  0  0  0
  9 10  2  0  0  0  0
  9 14  1  0  0  0  0
 10 11  1  0  0  0  0
 10 23  1  0  0  0  0
 11 12  1  0  0  0  0
 11 24  2  0  0  0  0
 12 13  1  0  0  0  0
 12 15  1  0  0  0  0
 13 14  2  0  0  0  0
 13 25  1  0  0  0  0
 14 36  1  0  0  0  0
 15 16  2  0  0  0  0
 15 20  1  0  0  0  0
 16 17  1  0  0  0  0
 16 37  1  0  0  0  0
 17 18  2  0  0  0  0
 17 26  1  0  0  0  0
 18 19  1  0  0  0  0
 18 38  1  0  0  0  0
 19 20  2  0  0  0  0
 19 39  1  0  0  0  0
 20 30  1  0  0  0  0
 25 40  1  0  0  0  0
 25 41  1  0  0  0  0
 25 42  1  0  0  0  0
 26 27  2  0  0  0  0
 26 28  1  0  0  0  0
 28 29  1  0  0  0  0
 28 43  1  0  0  0  0
 29 44  1  0  0  0  0
 29 45  1  0  0  0  0
 29 46  1  0  0  0  0
 30 47  1  0  0  0  0
 30 48  1  0  0  0  0
 30 49  1  0  0  0  0
M  END
>  <DRUGBANK_ID>
DB07941

>  <SECONDARY_ACCESSION_NUMBERS>
DB11722

>  <COMMON_NAME>
PH-797804

>  <CAS_NUMBER>
586379-66-0

>  <UNII>
SI09I1V827

$$$$
