
 OpenBabel10282417072D

  6  4  0  0  0  0  0  0  0  0999 V2000
    0.0000    0.0000    0.0000 Al  0  1  0  0  0  0  0  0  0  0  0  0
    2.8286   -0.8250    0.0000 O   0  5  0  0  0  0  0  0  0  0  0  0
    2.8286    0.0000    0.0000 P   0  0  0  0  0  0  0  0  0  0  0  0
    2.8286    0.8250    0.0000 O   0  5  0  0  0  0  0  0  0  0  0  0
    3.6536    0.0000    0.0000 O   0  5  0  0  0  0  0  0  0  0  0  0
    2.0036    0.0000    0.0000 O   0  0  0  0  0  0  0  0  0  0  0  0
  2  3  1  0  0  0  0
  3  4  1  0  0  0  0
  3  5  1  0  0  0  0
  3  6  2  0  0  0  0
M  CHG  4   1   3   2  -1   4  -1   5  -1
M  END
>  <DRUGBANK_ID>
DB14517

>  <SECONDARY_ACCESSION_NUMBERS>
DBSALT002422

>  <COMMON_NAME>
Aluminium phosphate

>  <CAS_NUMBER>
7784-30-7

>  <UNII>
F92V3S521O

>  <SYNONYMS>
Aluminum phosphate

$$$$
