
 OpenBabel10282417072D

 68 72  0  0  1  0  0  0  0  0999 V2000
    2.0307    1.7357    0.0000 C   0  0  0  0  0  0  0  0  0  0  0  0
   -2.0411    3.9503    0.0000 C   0  0  0  0  0  0  0  0  0  0  0  0
   -2.6924    3.4440    0.0000 C   0  0  0  0  0  0  0  0  0  0  0  0
   -1.3583    3.4873    0.0000 C   0  0  0  0  0  0  0  0  0  0  0  0
   -2.4121    2.6680    0.0000 C   0  0  0  0  0  0  0  0  0  0  0  0
   -1.0812    2.0435    0.0000 C   0  0  0  0  0  0  0  0  0  0  0  0
    3.7633   -0.7037    0.0000 C   0  0  0  0  0  0  0  0  0  0  0  0
    4.5754   -0.8489    0.0000 C   0  0  0  0  0  0  0  0  0  0  0  0
    5.3587    1.1884    0.0000 C   0  0  0  0  0  0  0  0  0  0  0  0
    2.0195   -0.2889    0.0000 C   0  0  0  0  0  0  0  0  0  0  0  0
    6.1708    1.0432    0.0000 C   0  0  0  0  0  0  0  0  0  0  0  0
    1.3367    0.1741    0.0000 C   0  0  0  0  0  0  0  0  0  0  0  0
   -0.2640    2.1564    0.0000 C   0  0  0  0  0  0  0  0  0  0  0  0
    3.7345    1.4789    0.0000 C   0  0  0  0  0  0  0  0  0  0  0  0
    2.9224    1.6241    0.0000 C   0  0  0  0  0  0  0  0  0  0  0  0
   -1.5876    2.6948    0.0000 C   0  0  0  0  0  0  0  0  0  0  0  0
    4.8269    0.5577    0.0000 C   0  0  2  0  0  0  0  0  0  0  0  0
    4.0148    0.7029    0.0000 C   0  0  2  0  0  0  0  0  0  0  0  0
    3.4830    0.0722    0.0000 C   0  0  2  0  0  0  0  0  0  0  0  0
    5.1072   -0.2182    0.0000 C   0  0  0  0  0  0  0  0  0  0  0  0
    2.6708    0.2174    0.0000 C   0  0  1  0  0  0  0  0  0  0  0  0
    6.4511    0.2673    0.0000 C   0  0  0  0  0  0  0  0  0  0  0  0
    1.5660    0.9666    0.0000 C   0  0  1  0  0  0  0  0  0  0  0  0
    0.2424    1.5050    0.0000 C   0  0  0  0  0  0  0  0  0  0  0  0
    5.9193   -0.3634    0.0000 C   0  0  0  0  0  0  0  0  0  0  0  0
    2.3905    0.9934    0.0000 C   0  0  2  0  0  0  0  0  0  0  0  0
    7.2632    0.1221    0.0000 O   0  0  0  0  0  0  0  0  0  0  0  0
   -0.0685    0.7409    0.0000 O   0  0  0  0  0  0  0  0  0  0  0  0
    6.1996   -1.1393    0.0000 O   0  0  0  0  0  0  0  0  0  0  0  0
    1.0596    1.6179    0.0000 O   0  0  0  0  0  0  0  0  0  0  0  0
    5.6390    0.4125    0.0000 H   0  0  0  0  0  0  0  0  0  0  0  0
    4.5466    1.3336    0.0000 H   0  0  0  0  0  0  0  0  0  0  0  0
    3.2027    0.8481    0.0000 H   0  0  0  0  0  0  0  0  0  0  0  0
    2.8685   -0.5835    0.0000 H   0  0  0  0  0  0  0  0  0  0  0  0
    0.7557    0.8111    0.0000 H   0  0  0  0  0  0  0  0  0  0  0  0
    2.6312    2.6213    0.0000 H   0  0  0  0  0  0  0  0  0  0  0  0
    0.9635    1.8129    0.0000 H   0  0  0  0  0  0  0  0  0  0  0  0
    1.5640    2.6986    0.0000 H   0  0  0  0  0  0  0  0  0  0  0  0
   -2.0758    5.0197    0.0000 H   0  0  0  0  0  0  0  0  0  0  0  0
   -1.1040    4.4667    0.0000 H   0  0  0  0  0  0  0  0  0  0  0  0
   -3.7202    3.7414    0.0000 H   0  0  0  0  0  0  0  0  0  0  0  0
   -3.4240    2.6632    0.0000 H   0  0  0  0  0  0  0  0  0  0  0  0
   -0.3519    3.8508    0.0000 H   0  0  0  0  0  0  0  0  0  0  0  0
   -0.5775    2.7557    0.0000 H   0  0  0  0  0  0  0  0  0  0  0  0
   -3.0126    1.7824    0.0000 H   0  0  0  0  0  0  0  0  0  0  0  0
   -1.8956    1.7309    0.0000 H   0  0  0  0  0  0  0  0  0  0  0  0
   -1.4844    1.0524    0.0000 H   0  0  0  0  0  0  0  0  0  0  0  0
   -2.1411    1.8971    0.0000 H   0  0  0  0  0  0  0  0  0  0  0  0
    3.0736   -1.5217    0.0000 H   0  0  0  0  0  0  0  0  0  0  0  0
    2.7100   -0.5154    0.0000 H   0  0  0  0  0  0  0  0  0  0  0  0
    4.9390   -1.8552    0.0000 H   0  0  0  0  0  0  0  0  0  0  0  0
    5.6287   -1.0372    0.0000 H   0  0  0  0  0  0  0  0  0  0  0  0
    4.9951    2.1947    0.0000 H   0  0  0  0  0  0  0  0  0  0  0  0
    4.3054    1.3767    0.0000 H   0  0  0  0  0  0  0  0  0  0  0  0
    2.0542   -1.3583    0.0000 H   0  0  0  0  0  0  0  0  0  0  0  0
    2.9881   -0.7435    0.0000 H   0  0  0  0  0  0  0  0  0  0  0  0
    6.8605    1.8612    0.0000 H   0  0  0  0  0  0  0  0  0  0  0  0
    7.2241    0.8549    0.0000 H   0  0  0  0  0  0  0  0  0  0  0  0
    0.3303   -0.1894    0.0000 H   0  0  0  0  0  0  0  0  0  0  0  0
    0.5559    0.9057    0.0000 H   0  0  0  0  0  0  0  0  0  0  0  0
    0.1392    3.1475    0.0000 H   0  0  0  0  0  0  0  0  0  0  0  0
    0.7959    2.3028    0.0000 H   0  0  0  0  0  0  0  0  0  0  0  0
    4.4243    2.2969    0.0000 H   0  0  0  0  0  0  0  0  0  0  0  0
    4.7878    1.2905    0.0000 H   0  0  0  0  0  0  0  0  0  0  0  0
    2.5589    2.6305    0.0000 H   0  0  0  0  0  0  0  0  0  0  0  0
    1.8691    1.8125    0.0000 H   0  0  0  0  0  0  0  0  0  0  0  0
   -2.0421    1.7261    0.0000 H   0  0  0  0  0  0  0  0  0  0  0  0
    5.5956   -1.8556    0.0000 H   0  0  0  0  0  0  0  0  0  0  0  0
  1 36  1  0  0  0  0
  1 37  1  0  0  0  0
  1 38  1  0  0  0  0
  2 39  1  0  0  0  0
  2 40  1  0  0  0  0
  3  2  1  0  0  0  0
  3 41  1  0  0  0  0
  3 42  1  0  0  0  0
  4  2  1  0  0  0  0
  4 43  1  0  0  0  0
  4 44  1  0  0  0  0
  5  3  1  0  0  0  0
  5 45  1  0  0  0  0
  5 46  1  0  0  0  0
  6 47  1  0  0  0  0
  6 48  1  0  0  0  0
  7 49  1  0  0  0  0
  7 50  1  0  0  0  0
  8  7  1  0  0  0  0
  8 51  1  0  0  0  0
  8 52  1  0  0  0  0
  9 53  1  0  0  0  0
  9 54  1  0  0  0  0
 10 55  1  0  0  0  0
 10 56  1  0  0  0  0
 11  9  1  0  0  0  0
 11 57  1  0  0  0  0
 11 58  1  0  0  0  0
 12 10  1  0  0  0  0
 12 59  1  0  0  0  0
 12 60  1  0  0  0  0
 13  6  1  0  0  0  0
 13 61  1  0  0  0  0
 13 62  1  0  0  0  0
 14 63  1  0  0  0  0
 14 64  1  0  0  0  0
 15 14  1  0  0  0  0
 15 65  1  0  0  0  0
 15 66  1  0  0  0  0
 16  4  1  0  0  0  0
 16  5  1  0  0  0  0
 16  6  1  0  0  0  0
 16 67  1  0  0  0  0
 17  9  1  0  0  0  0
 17 31  1  6  0  0  0
 18 14  1  0  0  0  0
 18 17  1  0  0  0  0
 18 32  1  1  0  0  0
 19  7  1  0  0  0  0
 19 18  1  0  0  0  0
 19 33  1  6  0  0  0
 20  8  1  0  0  0  0
 20 17  1  0  0  0  0
 21 10  1  0  0  0  0
 21 19  1  0  0  0  0
 21 34  1  1  0  0  0
 22 11  1  0  0  0  0
 23 12  1  0  0  0  0
 23 30  1  0  0  0  0
 23 35  1  1  0  0  0
 24 13  1  0  0  0  0
 25 20  2  0  0  0  0
 25 22  1  0  0  0  0
 26  1  1  6  0  0  0
 26 15  1  0  0  0  0
 26 21  1  0  0  0  0
 26 23  1  0  0  0  0
 27 22  2  0  0  0  0
 28 24  2  0  0  0  0
 29 25  1  0  0  0  0
 29 68  1  0  0  0  0
 30 24  1  0  0  0  0
M  END
>  <DRUGBANK_ID>
DB13185

>  <COMMON_NAME>
Oxabolone cipionate

>  <CAS_NUMBER>
1254-35-9

>  <UNII>
5RXY50Q01N

>  <SYNONYMS>
4-hydroxy-19-nortestosterone 17Î²-cypionate; Cipionate d'oxabolone; Cipionato de oxabolona; Oxabolone 17-cyclopentanepropionate; Oxabolone cipionate; Oxabolone cypionate; Oxaboloni cipionas

$$$$
