
 OpenBabel10282417072D

 77 78  0  0  0  0  0  0  0  0999 V2000
    0.5998    0.3926    0.0000 C   0  0  1  0  0  0  0  0  0  0  0  0
   -1.9556   -0.8120    0.0000 C   0  0  2  0  0  0  0  0  0  0  0  0
    0.8535   -0.4023    0.0000 C   0  0  2  0  0  0  0  0  0  0  0  0
   -1.2094   -0.4023    0.0000 C   0  0  2  0  0  0  0  0  0  0  0  0
   -2.6287   -0.4023    0.0000 C   0  0  1  0  0  0  0  0  0  0  0  0
    1.6680   -0.4023    0.0000 C   0  0  1  0  0  0  0  0  0  0  0  0
   -1.2094    0.4316    0.0000 C   0  0  1  0  0  0  0  0  0  0  0  0
   -2.6579   -2.1093    0.0000 S   0  0  0  0  0  0  0  0  0  0  0  0
    3.0043   -1.0900    0.0000 S   0  0  0  0  0  0  0  0  0  0  0  0
   -0.5071   -1.6410    0.0000 S   0  0  0  0  0  0  0  0  0  0  0  0
    0.9412   -1.9386    0.0000 S   0  0  0  0  0  0  0  0  0  0  0  0
   -4.0479   -0.4267    0.0000 S   0  0  0  0  0  0  0  0  0  0  0  0
    2.0239    1.9436    0.0000 S   0  0  0  0  0  0  0  0  0  0  0  0
    4.1113    0.7242    0.0000 S   0  0  0  0  0  0  0  0  0  0  0  0
   -2.6287    2.0849    0.0000 S   0  0  0  0  0  0  0  0  0  0  0  0
    1.2924    0.8706    0.0000 O   0  0  0  0  0  0  0  0  0  0  0  0
   -0.2584    0.8413    0.0000 O   0  0  0  0  0  0  0  0  0  0  0  0
    1.9508    0.3730    0.0000 C   0  0  2  0  0  0  0  0  0  0  0  0
   -2.6287    0.4023    0.0000 C   0  0  2  0  0  0  0  0  0  0  0  0
   -1.9556    0.8413    0.0000 O   0  0  0  0  0  0  0  0  0  0  0  0
   -1.9556   -1.6606    0.0000 O   0  0  0  0  0  0  0  0  0  0  0  0
    0.5998    1.9143    0.0000 C   0  0  0  0  0  0  0  0  0  0  0  0
    0.5120   -1.1582    0.0000 O   0  0  0  0  0  0  0  0  0  0  0  0
   -0.5071   -0.8266    0.0000 O   0  0  0  0  0  0  0  0  0  0  0  0
   -3.3310   -0.8266    0.0000 O   0  0  0  0  0  0  0  0  0  0  0  0
    2.1411   -1.0704    0.0000 O   0  0  0  0  0  0  0  0  0  0  0  0
    1.3217    2.3337    0.0000 O   0  0  0  0  0  0  0  0  0  0  0  0
   -3.3310    0.8413    0.0000 C   0  0  0  0  0  0  0  0  0  0  0  0
    2.6629    0.7681    0.0000 C   0  0  0  0  0  0  0  0  0  0  0  0
    3.3701    0.3438    0.0000 O   0  0  0  0  0  0  0  0  0  0  0  0
   -3.3310    1.6606    0.0000 O   0  0  0  0  0  0  0  0  0  0  0  0
    3.2823   -1.7581    0.0000 O   0  0  0  0  0  0  0  0  0  0  0  0
    1.7606   -1.9386    0.0000 O   0  0  0  0  0  0  0  0  0  0  0  0
   -3.3651   -1.7045    0.0000 O   0  0  0  0  0  0  0  0  0  0  0  0
   -1.0484   -1.8655    0.0000 O   0  0  0  0  0  0  0  0  0  0  0  0
   -4.7503   -0.8656    0.0000 O   0  0  0  0  0  0  0  0  0  0  0  0
    2.7214    2.3191    0.0000 O   0  0  0  0  0  0  0  0  0  0  0  0
    4.7991    0.2853    0.0000 O   0  0  0  0  0  0  0  0  0  0  0  0
   -1.9313    1.6753    0.0000 O   0  0  0  0  0  0  0  0  0  0  0  0
    3.3554   -0.3585    0.0000 O   0  0  0  0  0  0  0  0  0  0  0  0
    3.7359   -1.0900    0.0000 O   0  0  0  0  0  0  0  0  0  0  0  0
   -2.6579   -2.8897    0.0000 O   0  0  0  0  0  0  0  0  0  0  0  0
   -3.3018   -2.4897    0.0000 O   0  0  0  0  0  0  0  0  0  0  0  0
    0.1317   -1.9240    0.0000 O   0  0  0  0  0  0  0  0  0  0  0  0
   -0.5071   -2.4069    0.0000 O   0  0  0  0  0  0  0  0  0  0  0  0
   -4.7991    0.0072    0.0000 O   0  0  0  0  0  0  0  0  0  0  0  0
   -4.0479    0.3730    0.0000 O   0  0  0  0  0  0  0  0  0  0  0  0
    0.5755   -2.6995    0.0000 O   0  0  0  0  0  0  0  0  0  0  0  0
    1.4045   -2.6506    0.0000 O   0  0  0  0  0  0  0  0  0  0  0  0
    4.1113    1.5582    0.0000 O   0  0  0  0  0  0  0  0  0  0  0  0
    4.7991    1.2217    0.0000 O   0  0  0  0  0  0  0  0  0  0  0  0
    2.7214    1.5728    0.0000 O   0  0  0  0  0  0  0  0  0  0  0  0
   -2.6287    2.8897    0.0000 O   0  0  0  0  0  0  0  0  0  0  0  0
   -1.9556    2.5873    0.0000 O   0  0  0  0  0  0  0  0  0  0  0  0
    2.0239    1.1777    0.0000 O   0  0  0  0  0  0  0  0  0  0  0  0
   -1.0348   -1.3569    0.0000 H   0  0  0  0  0  0  0  0  0  0  0  0
   -0.2147   -0.3406    0.0000 H   0  0  0  0  0  0  0  0  0  0  0  0
   -1.2315   -1.4721    0.0000 H   0  0  0  0  0  0  0  0  0  0  0  0
   -3.5606    0.1235    0.0000 H   0  0  0  0  0  0  0  0  0  0  0  0
    1.1764   -1.3527    0.0000 H   0  0  0  0  0  0  0  0  0  0  0  0
   -0.3156   -0.1566    0.0000 H   0  0  0  0  0  0  0  0  0  0  0  0
    2.0260    1.4404    0.0000 H   0  0  0  0  0  0  0  0  0  0  0  0
   -3.5646   -0.1164    0.0000 H   0  0  0  0  0  0  0  0  0  0  0  0
   -0.3276    2.4480    0.0000 H   0  0  0  0  0  0  0  0  0  0  0  0
    0.5976    2.9843    0.0000 H   0  0  0  0  0  0  0  0  0  0  0  0
   -4.2669    0.3226    0.0000 H   0  0  0  0  0  0  0  0  0  0  0  0
   -4.2529    1.3844    0.0000 H   0  0  0  0  0  0  0  0  0  0  0  0
    2.6810    1.8379    0.0000 H   0  0  0  0  0  0  0  0  0  0  0  0
    3.5984    1.2874    0.0000 H   0  0  0  0  0  0  0  0  0  0  0  0
    2.6930   -2.5286    0.0000 H   0  0  0  0  0  0  0  0  0  0  0  0
    2.2456   -2.7786    0.0000 H   0  0  0  0  0  0  0  0  0  0  0  0
   -3.3687   -0.7345    0.0000 H   0  0  0  0  0  0  0  0  0  0  0  0
   -1.8182   -1.2753    0.0000 H   0  0  0  0  0  0  0  0  0  0  0  0
   -5.6068   -0.4102    0.0000 H   0  0  0  0  0  0  0  0  0  0  0  0
    3.5466    1.8093    0.0000 H   0  0  0  0  0  0  0  0  0  0  0  0
    4.7561   -0.6837    0.0000 H   0  0  0  0  0  0  0  0  0  0  0  0
   -1.9385    0.7053    0.0000 H   0  0  0  0  0  0  0  0  0  0  0  0
  1 17  1  6  0  0  0
  1 22  1  0  0  0  0
  2  4  1  0  0  0  0
  2 21  1  0  0  0  0
  2 56  1  6  0  0  0
  3  1  1  0  0  0  0
  3 23  1  0  0  0  0
  3 57  1  1  0  0  0
  4  7  1  0  0  0  0
  4 24  1  0  0  0  0
  4 58  1  1  0  0  0
  5 19  1  0  0  0  0
  5 25  1  0  0  0  0
  5  2  1  0  0  0  0
  5 59  1  1  0  0  0
  6  3  1  0  0  0  0
  6 26  1  0  0  0  0
  6 60  1  6  0  0  0
  7 17  1  0  0  0  0
  7 61  1  1  0  0  0
  8 21  1  0  0  0  0
  9 26  1  0  0  0  0
 10 24  1  0  0  0  0
 11 23  1  0  0  0  0
 12 25  1  0  0  0  0
 13 27  1  0  0  0  0
 14 30  1  0  0  0  0
 15 31  1  0  0  0  0
 16  1  1  0  0  0  0
 18 16  1  0  0  0  0
 18 29  1  0  0  0  0
 18  6  1  0  0  0  0
 18 62  1  1  0  0  0
 19 20  1  0  0  0  0
 19 28  1  0  0  0  0
 19 63  1  6  0  0  0
 20  7  1  0  0  0  0
 22 64  1  0  0  0  0
 22 65  1  0  0  0  0
 27 22  1  0  0  0  0
 28 66  1  0  0  0  0
 28 67  1  0  0  0  0
 29 68  1  0  0  0  0
 29 69  1  0  0  0  0
 30 29  1  0  0  0  0
 31 28  1  0  0  0  0
 32  9  1  0  0  0  0
 32 70  1  0  0  0  0
 33 11  1  0  0  0  0
 33 71  1  0  0  0  0
 34  8  1  0  0  0  0
 34 72  1  0  0  0  0
 35 10  1  0  0  0  0
 35 73  1  0  0  0  0
 36 12  1  0  0  0  0
 36 74  1  0  0  0  0
 37 13  1  0  0  0  0
 37 75  1  0  0  0  0
 38 14  1  0  0  0  0
 38 76  1  0  0  0  0
 39 15  1  0  0  0  0
 39 77  1  0  0  0  0
 40  9  2  0  0  0  0
 41  9  2  0  0  0  0
 42  8  2  0  0  0  0
 43  8  2  0  0  0  0
 44 10  2  0  0  0  0
 45 10  2  0  0  0  0
 46 12  2  0  0  0  0
 47 12  2  0  0  0  0
 48 11  2  0  0  0  0
 49 11  2  0  0  0  0
 50 14  2  0  0  0  0
 51 14  2  0  0  0  0
 52 13  2  0  0  0  0
 53 15  2  0  0  0  0
 54 15  2  0  0  0  0
 55 13  2  0  0  0  0
M  END
>  <DRUGBANK_ID>
DB01901

>  <SECONDARY_ACCESSION_NUMBERS>
EXPT02871

>  <COMMON_NAME>
Sucrosofate

>  <CAS_NUMBER>
57680-56-5

>  <UNII>
P7V86EYZ5L

>  <SYNONYMS>
Sucrose octasulfate; Sucrosofate

$$$$
