1087
 OpenBabel10282417072D

 40 41  0  0  1  0  0  0  0  0999 V2000
    2.8075    2.5246    0.0000 O   0  0  0  0  0  0  0  0  0  0  0  0
    4.2365    0.0495    0.0000 N   0  0  0  0  0  0  0  0  0  0  0  0
    2.0930   -2.8381    0.0000 N   0  0  0  0  0  0  0  0  0  0  0  0
    5.6885    0.8459    0.0000 N   0  0  0  0  0  0  0  0  0  0  0  0
    3.5220   -0.3630    0.0000 C   0  0  3  0  0  0  0  0  0  0  0  0
    3.5220   -1.1880    0.0000 C   0  0  0  0  0  0  0  0  0  0  0  0
    2.8075   -1.6005    0.0000 C   0  0  0  0  0  0  0  0  0  0  0  0
    2.8075    0.0495    0.0000 C   0  0  0  0  0  0  0  0  0  0  0  0
    4.2365    0.8745    0.0000 C   0  0  0  0  0  0  0  0  0  0  0  0
    2.8075   -2.4256    0.0000 C   0  0  0  0  0  0  0  0  0  0  0  0
    4.9509    1.2870    0.0000 C   0  0  0  0  0  0  0  0  0  0  0  0
    3.5220    1.2870    0.0000 C   0  0  0  0  0  0  0  0  0  0  0  0
    4.9509    2.1120    0.0000 C   0  0  0  0  0  0  0  0  0  0  0  0
    3.5220    2.1120    0.0000 C   0  0  0  0  0  0  0  0  0  0  0  0
    4.2365    2.5246    0.0000 C   0  0  0  0  0  0  0  0  0  0  0  0
    5.6885    2.5532    0.0000 C   0  0  0  0  0  0  0  0  0  0  0  0
    6.4360    2.1292    0.0000 C   0  0  0  0  0  0  0  0  0  0  0  0
    6.4360    1.2699    0.0000 C   0  0  0  0  0  0  0  0  0  0  0  0
    2.8075    3.3496    0.0000 C   0  0  0  0  0  0  0  0  0  0  0  0
    5.0891   -0.4428    0.0000 H   0  0  0  0  0  0  0  0  0  0  0  0
    1.2097   -2.3281    0.0000 H   0  0  0  0  0  0  0  0  0  0  0  0
    2.0930   -3.8581    0.0000 H   0  0  0  0  0  0  0  0  0  0  0  0
    4.4486   -0.8980    0.0000 H   0  0  0  0  0  0  0  0  0  0  0  0
    4.4486   -1.7230    0.0000 H   0  0  0  0  0  0  0  0  0  0  0  0
    3.5220   -2.2580    0.0000 H   0  0  0  0  0  0  0  0  0  0  0  0
    1.8809   -1.0655    0.0000 H   0  0  0  0  0  0  0  0  0  0  0  0
    1.8809   -2.1355    0.0000 H   0  0  0  0  0  0  0  0  0  0  0  0
    2.8075    1.1195    0.0000 H   0  0  0  0  0  0  0  0  0  0  0  0
    1.8809   -0.4855    0.0000 H   0  0  0  0  0  0  0  0  0  0  0  0
    1.8808    0.5845    0.0000 H   0  0  0  0  0  0  0  0  0  0  0  0
    3.7341   -2.9606    0.0000 H   0  0  0  0  0  0  0  0  0  0  0  0
    3.7341   -1.8906    0.0000 H   0  0  0  0  0  0  0  0  0  0  0  0
    2.6283    0.7710    0.0000 H   0  0  0  0  0  0  0  0  0  0  0  0
    4.2365    3.5566    0.0000 H   0  0  0  0  0  0  0  0  0  0  0  0
    5.6766    3.5851    0.0000 H   0  0  0  0  0  0  0  0  0  0  0  0
    7.3278    2.6486    0.0000 H   0  0  0  0  0  0  0  0  0  0  0  0
    7.3278    0.7505    0.0000 H   0  0  0  0  0  0  0  0  0  0  0  0
    3.7341    3.8846    0.0000 H   0  0  0  0  0  0  0  0  0  0  0  0
    1.8809    3.8846    0.0000 H   0  0  0  0  0  0  0  0  0  0  0  0
    2.8075    4.4196    0.0000 H   0  0  0  0  0  0  0  0  0  0  0  0
  1 14  1  0  0  0  0
  1 19  1  0  0  0  0
  2  5  1  0  0  0  0
  2  9  1  0  0  0  0
  2 20  1  0  0  0  0
  3 10  1  0  0  0  0
  3 21  1  0  0  0  0
  3 22  1  0  0  0  0
  4 11  1  0  0  0  0
  4 18  2  0  0  0  0
  5  6  1  0  0  0  0
  5  8  1  0  0  0  0
  5 23  1  0  0  0  0
  6  7  1  0  0  0  0
  6 24  1  0  0  0  0
  6 25  1  0  0  0  0
  7 10  1  0  0  0  0
  7 26  1  0  0  0  0
  7 27  1  0  0  0  0
  8 28  1  0  0  0  0
  8 29  1  0  0  0  0
  8 30  1  0  0  0  0
  9 11  2  0  0  0  0
  9 12  1  0  0  0  0
 10 31  1  0  0  0  0
 10 32  1  0  0  0  0
 11 13  1  0  0  0  0
 12 14  2  0  0  0  0
 12 33  1  0  0  0  0
 13 15  2  0  0  0  0
 13 16  1  0  0  0  0
 14 15  1  0  0  0  0
 15 34  1  0  0  0  0
 16 17  2  0  0  0  0
 16 35  1  0  0  0  0
 17 18  1  0  0  0  0
 17 36  1  0  0  0  0
 18 37  1  0  0  0  0
 19 38  1  0  0  0  0
 19 39  1  0  0  0  0
 19 40  1  0  0  0  0
M  END
>  <DRUGBANK_ID>
DB01087

>  <SECONDARY_ACCESSION_NUMBERS>
APRD00604

>  <COMMON_NAME>
Primaquine

>  <CAS_NUMBER>
90-34-6

>  <UNII>
MVR3634GX1

>  <SYNONYMS>
6-Methoxy-8-(4-amino-1-methylbutylamino)quinoline; 8-((4-Amino-1-methylbutyl)amino)-6-methoxyquinoline; 8-(4-Amino-1-methylbutylamino)-6-methoxyquinoline; Primachin; Primachina; Primachinum; Primaquin; Primaquina; Primaquine; Primaquinum

$$$$
