2148
 OpenBabel10282417072D

 24 24  0  0  0  0  0  0  0  0999 V2000
    1.6500    0.8250    0.0000 O   0  0  0  0  0  0  0  0  0  0  0  0
    3.7935    2.8876    0.0000 O   0  0  0  0  0  0  0  0  0  0  0  0
    4.5080    1.6500    0.0000 O   0  0  0  0  0  0  0  0  0  0  0  0
    3.0790    0.8250    0.0000 N   0  0  0  0  0  0  0  0  0  0  0  0
    2.3645   -2.8876    0.0000 N   0  0  0  0  0  0  0  0  0  0  0  0
    2.3645   -0.4125    0.0000 C   0  0  0  0  0  0  0  0  0  0  0  0
    2.3645    0.4125    0.0000 C   0  0  0  0  0  0  0  0  0  0  0  0
    1.6500   -0.8250    0.0000 C   0  0  0  0  0  0  0  0  0  0  0  0
    3.0790   -0.8250    0.0000 C   0  0  0  0  0  0  0  0  0  0  0  0
    2.3645   -2.0625    0.0000 C   0  0  0  0  0  0  0  0  0  0  0  0
    1.6500   -1.6500    0.0000 C   0  0  0  0  0  0  0  0  0  0  0  0
    3.0790   -1.6500    0.0000 C   0  0  0  0  0  0  0  0  0  0  0  0
    3.0790    1.6500    0.0000 C   0  0  0  0  0  0  0  0  0  0  0  0
    3.7935    2.0625    0.0000 C   0  0  0  0  0  0  0  0  0  0  0  0
    4.6050    3.3561    0.0000 H   0  0  0  0  0  0  0  0  0  0  0  0
    3.9316    0.3327    0.0000 H   0  0  0  0  0  0  0  0  0  0  0  0
    1.5119   -3.3799    0.0000 H   0  0  0  0  0  0  0  0  0  0  0  0
    3.2171   -3.3798    0.0000 H   0  0  0  0  0  0  0  0  0  0  0  0
    0.7563   -0.3090    0.0000 H   0  0  0  0  0  0  0  0  0  0  0  0
    3.9727   -0.3090    0.0000 H   0  0  0  0  0  0  0  0  0  0  0  0
    0.7563   -2.1660    0.0000 H   0  0  0  0  0  0  0  0  0  0  0  0
    3.9727   -2.1660    0.0000 H   0  0  0  0  0  0  0  0  0  0  0  0
    2.1524    2.1850    0.0000 H   0  0  0  0  0  0  0  0  0  0  0  0
    3.0790    2.7200    0.0000 H   0  0  0  0  0  0  0  0  0  0  0  0
  1  7  2  0  0  0  0
  2 14  1  0  0  0  0
  2 15  1  0  0  0  0
  3 14  2  0  0  0  0
  4  7  1  0  0  0  0
  4 13  1  0  0  0  0
  4 16  1  0  0  0  0
  5 10  1  0  0  0  0
  5 17  1  0  0  0  0
  5 18  1  0  0  0  0
  6  7  1  0  0  0  0
  6  8  2  0  0  0  0
  6  9  1  0  0  0  0
  8 11  1  0  0  0  0
  8 19  1  0  0  0  0
  9 12  2  0  0  0  0
  9 20  1  0  0  0  0
 10 11  2  0  0  0  0
 10 12  1  0  0  0  0
 11 21  1  0  0  0  0
 12 22  1  0  0  0  0
 13 14  1  0  0  0  0
 13 23  1  0  0  0  0
 13 24  1  0  0  0  0
M  END
>  <DRUGBANK_ID>
DB00345

>  <SECONDARY_ACCESSION_NUMBERS>
APRD00792

>  <COMMON_NAME>
Aminohippuric acid

>  <CAS_NUMBER>
61-78-9

>  <UNII>
Y79XT83BJ9

>  <SYNONYMS>
4-aminohippuric acid; Aminohippurate; Aminohippuric acid; N-(p-Aminobenzoyl)aminoacetic acid; N-(p-Aminobenzoyl)glycine; N-(para-aminobenzoyl)glycine; p-aminohippurate; p-aminohippuric acid; PAH; PAHA; para-aminohippurate; para-aminohippuric acid ; paraaminohippuric acid

$$$$
