
 OpenBabel10282417072D

 20 19  0  0  0  0  0  0  0  0999 V2000
    0.8250   -0.8250    0.0000 C   0  0  0  0  0  0  0  0  0  0  0  0
    1.6500   -0.0000    0.0000 C   0  0  0  0  0  0  0  0  0  0  0  0
    0.8250    0.8250    0.0000 C   0  0  1  0  0  0  0  0  0  0  0  0
    1.5395    1.2375    0.0000 C   0  0  0  0  0  0  0  0  0  0  0  0
    0.8250    0.0000    0.0000 C   0  0  0  0  0  0  0  0  0  0  0  0
    0.1105    1.2375    0.0000 N   0  0  0  0  0  0  0  0  0  0  0  0
    1.5395    2.0625    0.0000 O   0  0  0  0  0  0  0  0  0  0  0  0
    2.2539    0.8250    0.0000 O   0  0  0  0  0  0  0  0  0  0  0  0
    0.0000    0.0000    0.0000 S   0  0  0  0  0  0  0  0  0  0  0  0
    1.5395    0.4125    0.0000 H   0  0  0  0  0  0  0  0  0  0  0  0
   -0.1016   -1.3600    0.0000 H   0  0  0  0  0  0  0  0  0  0  0  0
    1.7516   -1.3600    0.0000 H   0  0  0  0  0  0  0  0  0  0  0  0
    0.8250   -1.8950    0.0000 H   0  0  0  0  0  0  0  0  0  0  0  0
    2.1850   -0.9266    0.0000 H   0  0  0  0  0  0  0  0  0  0  0  0
    2.1850    0.9266    0.0000 H   0  0  0  0  0  0  0  0  0  0  0  0
    2.7200    0.0000    0.0000 H   0  0  0  0  0  0  0  0  0  0  0  0
    0.1105    2.2575    0.0000 H   0  0  0  0  0  0  0  0  0  0  0  0
   -0.7728    0.7275    0.0000 H   0  0  0  0  0  0  0  0  0  0  0  0
    2.2539   -0.1120    0.0000 H   0  0  0  0  0  0  0  0  0  0  0  0
   -0.6800    1.1778    0.0000 H   0  0  0  0  0  0  0  0  0  0  0  0
  1 11  1  0  0  0  0
  1 12  1  0  0  0  0
  1 13  1  0  0  0  0
  2 14  1  0  0  0  0
  2 15  1  0  0  0  0
  2 16  1  0  0  0  0
  3  6  1  0  0  0  0
  3 10  1  6  0  0  0
  4  3  1  0  0  0  0
  5  1  1  0  0  0  0
  5  2  1  0  0  0  0
  5  3  1  0  0  0  0
  6 17  1  0  0  0  0
  6 18  1  0  0  0  0
  7  4  2  0  0  0  0
  8  4  1  0  0  0  0
  8 19  1  0  0  0  0
  9  5  1  0  0  0  0
  9 20  1  0  0  0  0
M  END
>  <DRUGBANK_ID>
DB00859

>  <SECONDARY_ACCESSION_NUMBERS>
APRD01171

>  <COMMON_NAME>
Penicillamine

>  <CAS_NUMBER>
52-67-5

>  <UNII>
GNN1DV99GX

>  <SYNONYMS>
(−)-penicillamine; (S)-2-amino-3-mercapto-3-methylbutanoic acid; (S)-3,3-dimethylcysteine; 3-mercapto-D-valine; D-(−)-penicillamine; D-penicillamine; D-β,β-dimethylcysteine; penicilamina; Penicillamine

$$$$
