
 OpenBabel10282417072D

 38 38  0  0  0  0  0  0  0  0999 V2000
    0.1191   -1.0313    0.0000 C   0  0  0  0  0  0  0  0  0  0  0  0
    0.1191   -0.2062    0.0000 C   0  0  0  0  0  0  0  0  0  0  0  0
    0.9441   -0.2063    0.0000 C   0  0  0  0  0  0  0  0  0  0  0  0
    0.1191    0.6188    0.0000 C   0  0  0  0  0  0  0  0  0  0  0  0
   -0.5954    1.0313    0.0000 O   0  0  0  0  0  0  0  0  0  0  0  0
   -0.7059   -0.2062    0.0000 N   0  0  0  0  0  0  0  0  0  0  0  0
    4.8138   -1.6500    0.0000 C   0  0  0  0  0  0  0  0  0  0  0  0
    4.8138   -0.8250    0.0000 N   0  0  0  0  0  0  0  0  0  0  0  0
    4.0993   -0.4125    0.0000 C   0  0  0  0  0  0  0  0  0  0  0  0
    4.0993    0.4125    0.0000 C   0  0  0  0  0  0  0  0  0  0  0  0
    4.8138    0.8250    0.0000 C   0  0  0  0  0  0  0  0  0  0  0  0
    4.8138    1.6500    0.0000 O   0  0  0  0  0  0  0  0  0  0  0  0
    5.5283    0.4125    0.0000 N   0  0  0  0  0  0  0  0  0  0  0  0
    5.5283   -0.4125    0.0000 C   0  0  0  0  0  0  0  0  0  0  0  0
    6.2428   -0.8250    0.0000 O   0  0  0  0  0  0  0  0  0  0  0  0
    6.2428    0.8250    0.0000 C   0  0  0  0  0  0  0  0  0  0  0  0
    3.3147    0.6674    0.0000 N   0  0  0  0  0  0  0  0  0  0  0  0
    2.8298    0.0000    0.0000 C   0  0  0  0  0  0  0  0  0  0  0  0
    3.3147   -0.6674    0.0000 N   0  0  0  0  0  0  0  0  0  0  0  0
   -0.8075   -1.5663    0.0000 H   0  0  0  0  0  0  0  0  0  0  0  0
    1.0457   -1.5663    0.0000 H   0  0  0  0  0  0  0  0  0  0  0  0
    0.1191   -2.1013    0.0000 H   0  0  0  0  0  0  0  0  0  0  0  0
    1.4790   -1.1330    0.0000 H   0  0  0  0  0  0  0  0  0  0  0  0
    1.4792    0.7203    0.0000 H   0  0  0  0  0  0  0  0  0  0  0  0
    2.0141   -0.2064    0.0000 H   0  0  0  0  0  0  0  0  0  0  0  0
    1.0457    1.1538    0.0000 H   0  0  0  0  0  0  0  0  0  0  0  0
    0.1191    1.6888    0.0000 H   0  0  0  0  0  0  0  0  0  0  0  0
   -0.5954    2.0013    0.0000 H   0  0  0  0  0  0  0  0  0  0  0  0
   -1.2159    0.6771    0.0000 H   0  0  0  0  0  0  0  0  0  0  0  0
   -1.2159   -1.0895    0.0000 H   0  0  0  0  0  0  0  0  0  0  0  0
    3.8872   -2.1850    0.0000 H   0  0  0  0  0  0  0  0  0  0  0  0
    5.7404   -2.1850    0.0000 H   0  0  0  0  0  0  0  0  0  0  0  0
    4.8138   -2.7200    0.0000 H   0  0  0  0  0  0  0  0  0  0  0  0
    7.1694    0.2900    0.0000 H   0  0  0  0  0  0  0  0  0  0  0  0
    6.2428    1.8950    0.0000 H   0  0  0  0  0  0  0  0  0  0  0  0
    7.1695    1.3600    0.0000 H   0  0  0  0  0  0  0  0  0  0  0  0
    1.7978    0.0000    0.0000 H   0  0  0  0  0  0  0  0  0  0  0  0
    3.0105   -1.6037    0.0000 H   0  0  0  0  0  0  0  0  0  0  0  0
  1  2  1  0  0  0  0
  1 20  1  0  0  0  0
  1 21  1  0  0  0  0
  1 22  1  0  0  0  0
  2  3  1  0  0  0  0
  2  4  1  0  0  0  0
  2  6  1  0  0  0  0
  3 23  1  0  0  0  0
  3 24  1  0  0  0  0
  3 25  1  0  0  0  0
  4  5  1  0  0  0  0
  4 26  1  0  0  0  0
  4 27  1  0  0  0  0
  5 28  1  0  0  0  0
  6 29  1  0  0  0  0
  6 30  1  0  0  0  0
  7  8  1  0  0  0  0
  7 31  1  0  0  0  0
  7 32  1  0  0  0  0
  7 33  1  0  0  0  0
  8  9  1  0  0  0  0
  8 14  1  0  0  0  0
  9 10  2  0  0  0  0
  9 19  1  0  0  0  0
 10 11  1  0  0  0  0
 10 17  1  0  0  0  0
 11 12  2  0  0  0  0
 11 13  1  0  0  0  0
 13 14  1  0  0  0  0
 13 16  1  0  0  0  0
 14 15  2  0  0  0  0
 16 34  1  0  0  0  0
 16 35  1  0  0  0  0
 16 36  1  0  0  0  0
 17 18  2  0  0  0  0
 18 19  1  0  0  0  0
 18 37  1  0  0  0  0
 19 38  1  0  0  0  0
M  END
>  <DRUGBANK_ID>
DB13812

>  <COMMON_NAME>
Bufylline

>  <CAS_NUMBER>
5634-34-4

>  <UNII>
VOU5V0B772

>  <SYNONYMS>
Ambuphylline

$$$$
