
 OpenBabel10282417072D

  3  2  0  0  0  0  0  0  0  0999 V2000
   25.6983  -15.0132    0.0000 O   0  0  0  0  0  0  0  0  0  0  0  0
   26.6683  -15.0132    0.0000 H   0  0  0  0  0  0  0  0  0  0  0  0
   25.2133  -14.1732    0.0000 H   0  0  0  0  0  0  0  0  0  0  0  0
  1  2  1  0  0  0  0
  1  3  1  0  0  0  0
M  END
>  <DRUGBANK_ID>
DB09145

>  <COMMON_NAME>
Water

>  <CAS_NUMBER>
7732-18-5

>  <UNII>
059QF0KO0R

>  <SYNONYMS>
agua; Dihydrogen oxide; Purified water; Sterile water; Water purified

$$$$
