
 OpenBabel10282417072D

 83 87  0  0  0  0  0  0  0  0999 V2000
   -0.2726   -3.1102    0.0000 C   0  0  0  0  0  0  0  0  0  0  0  0
   -0.3052   -2.2858    0.0000 C   0  0  0  0  0  0  0  0  0  0  0  0
    0.3924   -1.8454    0.0000 C   0  0  0  0  0  0  0  0  0  0  0  0
    0.4462   -1.0222    0.0000 C   0  0  0  0  0  0  0  0  0  0  0  0
   -0.1883   -0.4948    0.0000 C   0  0  0  0  0  0  0  0  0  0  0  0
    1.2457   -0.8189    0.0000 C   0  0  0  0  0  0  0  0  0  0  0  0
    1.7663    0.1186    0.0000 C   0  0  0  0  0  0  0  0  0  0  0  0
    2.4806    0.5312    0.0000 C   0  0  0  0  0  0  0  0  0  0  0  0
    2.7861    1.2976    0.0000 C   0  0  0  0  0  0  0  0  0  0  0  0
    2.3457    1.9952    0.0000 C   0  0  0  0  0  0  0  0  0  0  0  0
    1.5214    1.9626    0.0000 C   0  0  0  0  0  0  0  0  0  0  0  0
    3.6094    1.2438    0.0000 C   0  0  0  0  0  0  0  0  0  0  0  0
    4.1368    1.8783    0.0000 C   0  0  0  0  0  0  0  0  0  0  0  0
    3.8127    0.4443    0.0000 C   0  0  0  0  0  0  0  0  0  0  0  0
    4.7501   -0.0763    0.0000 C   0  0  0  0  0  0  0  0  0  0  0  0
    5.1628   -0.7906    0.0000 C   0  0  0  0  0  0  0  0  0  0  0  0
    4.6354   -1.4251    0.0000 N   0  0  0  0  0  0  0  0  0  0  0  0
    5.0758   -2.1227    0.0000 C   0  0  0  0  0  0  0  0  0  0  0  0
    4.5553   -3.0601    0.0000 C   0  0  0  0  0  0  0  0  0  0  0  0
    3.8409   -3.4728    0.0000 C   0  0  0  0  0  0  0  0  0  0  0  0
    3.2065   -2.9454    0.0000 N   0  0  0  0  0  0  0  0  0  0  0  0
    2.5089   -3.3858    0.0000 C   0  0  0  0  0  0  0  0  0  0  0  0
    1.5714   -2.8653    0.0000 C   0  0  0  0  0  0  0  0  0  0  0  0
    1.1588   -2.1509    0.0000 C   0  0  0  0  0  0  0  0  0  0  0  0
    1.6861   -1.5165    0.0000 N   0  0  0  0  0  0  0  0  0  0  0  0
    2.7122   -4.1854    0.0000 C   0  0  0  0  0  0  0  0  0  0  0  0
    2.1848   -4.8198    0.0000 C   0  0  0  0  0  0  0  0  0  0  0  0
    3.5354   -4.2392    0.0000 C   0  0  0  0  0  0  0  0  0  0  0  0
    3.9758   -4.9368    0.0000 C   0  0  0  0  0  0  0  0  0  0  0  0
    4.8002   -4.9042    0.0000 C   0  0  0  0  0  0  0  0  0  0  0  0
    5.2406   -5.6018    0.0000 C   0  0  0  0  0  0  0  0  0  0  0  0
    6.0649   -5.5692    0.0000 O   0  0  0  0  0  0  0  0  0  0  0  0
    4.8566   -6.3320    0.0000 O   0  0  0  0  0  0  0  0  0  0  0  0
    5.8754   -1.9194    0.0000 C   0  0  0  0  0  0  0  0  0  0  0  0
    6.5098   -2.4468    0.0000 C   0  0  0  0  0  0  0  0  0  0  0  0
    7.2838   -2.1610    0.0000 C   0  0  0  0  0  0  0  0  0  0  0  0
    7.9182   -2.6884    0.0000 C   0  0  0  0  0  0  0  0  0  0  0  0
    7.7787   -3.5015    0.0000 O   0  0  0  0  0  0  0  0  0  0  0  0
    8.6921   -2.4027    0.0000 O   0  0  0  0  0  0  0  0  0  0  0  0
    5.9291   -1.0962    0.0000 C   0  0  0  0  0  0  0  0  0  0  0  0
    6.6268   -0.6557    0.0000 C   0  0  0  0  0  0  0  0  0  0  0  0
    3.1151    0.0039    0.0000 N   0  0  0  0  0  0  0  0  0  0  0  0
    3.0613   -0.8194    0.0000 C   0  0  0  0  0  0  0  0  0  0  0  0
   -1.1774   -3.6814    0.0000 H   0  0  0  0  0  0  0  0  0  0  0  0
    0.6745   -3.6082    0.0000 H   0  0  0  0  0  0  0  0  0  0  0  0
   -0.2303   -4.1794    0.0000 H   0  0  0  0  0  0  0  0  0  0  0  0
   -1.2523   -1.7878    0.0000 H   0  0  0  0  0  0  0  0  0  0  0  0
   -0.3475   -1.2166    0.0000 H   0  0  0  0  0  0  0  0  0  0  0  0
   -0.0074    0.5598    0.0000 H   0  0  0  0  0  0  0  0  0  0  0  0
   -1.1921   -0.8654    0.0000 H   0  0  0  0  0  0  0  0  0  0  0  0
   -1.0112    0.1892    0.0000 H   0  0  0  0  0  0  0  0  0  0  0  0
    1.0304    0.8421    0.0000 H   0  0  0  0  0  0  0  0  0  0  0  0
    2.8437    2.9423    0.0000 H   0  0  0  0  0  0  0  0  0  0  0  0
    1.7745    2.9000    0.0000 H   0  0  0  0  0  0  0  0  0  0  0  0
    0.9502    2.8674    0.0000 H   0  0  0  0  0  0  0  0  0  0  0  0
    1.0234    1.0155    0.0000 H   0  0  0  0  0  0  0  0  0  0  0  0
    0.4522    1.9203    0.0000 H   0  0  0  0  0  0  0  0  0  0  0  0
    5.1914    1.6974    0.0000 H   0  0  0  0  0  0  0  0  0  0  0  0
    3.7662    2.8821    0.0000 H   0  0  0  0  0  0  0  0  0  0  0  0
    4.8208    2.7012    0.0000 H   0  0  0  0  0  0  0  0  0  0  0  0
    5.4736    0.6596    0.0000 H   0  0  0  0  0  0  0  0  0  0  0  0
    5.2912   -3.7836    0.0000 H   0  0  0  0  0  0  0  0  0  0  0  0
    3.2707   -1.9630    0.0000 H   0  0  0  0  0  0  0  0  0  0  0  0
    0.8479   -3.6012    0.0000 H   0  0  0  0  0  0  0  0  0  0  0  0
    1.1302   -4.6388    0.0000 H   0  0  0  0  0  0  0  0  0  0  0  0
    2.5554   -5.8236    0.0000 H   0  0  0  0  0  0  0  0  0  0  0  0
    1.5008   -5.6426    0.0000 H   0  0  0  0  0  0  0  0  0  0  0  0
    3.4778   -5.8839    0.0000 H   0  0  0  0  0  0  0  0  0  0  0  0
    4.5470   -5.8416    0.0000 H   0  0  0  0  0  0  0  0  0  0  0  0
    5.2982   -3.9571    0.0000 H   0  0  0  0  0  0  0  0  0  0  0  0
    5.8694   -4.8619    0.0000 H   0  0  0  0  0  0  0  0  0  0  0  0
    6.5651   -6.3615    0.0000 H   0  0  0  0  0  0  0  0  0  0  0  0
    6.3289   -3.5014    0.0000 H   0  0  0  0  0  0  0  0  0  0  0  0
    7.3326   -3.1308    0.0000 H   0  0  0  0  0  0  0  0  0  0  0  0
    7.4647   -1.1064    0.0000 H   0  0  0  0  0  0  0  0  0  0  0  0
    8.2876   -1.7904    0.0000 H   0  0  0  0  0  0  0  0  0  0  0  0
    6.8997   -3.8260    0.0000 H   0  0  0  0  0  0  0  0  0  0  0  0
    7.5739   -1.1536    0.0000 H   0  0  0  0  0  0  0  0  0  0  0  0
    6.5845    0.4135    0.0000 H   0  0  0  0  0  0  0  0  0  0  0  0
    7.5316   -0.0845    0.0000 H   0  0  0  0  0  0  0  0  0  0  0  0
    2.1017   -1.2928    0.0000 H   0  0  0  0  0  0  0  0  0  0  0  0
    3.9511   -1.4137    0.0000 H   0  0  0  0  0  0  0  0  0  0  0  0
    2.9915   -1.8871    0.0000 H   0  0  0  0  0  0  0  0  0  0  0  0
  1  2  1  0  0  0  0
  1 44  1  0  0  0  0
  1 45  1  0  0  0  0
  1 46  1  0  0  0  0
  2  3  1  0  0  0  0
  2 47  1  0  0  0  0
  2 48  1  0  0  0  0
  3  4  2  0  0  0  0
  3 24  1  0  0  0  0
  4  5  1  0  0  0  0
  4  6  1  0  0  0  0
  5 49  1  0  0  0  0
  5 50  1  0  0  0  0
  5 51  1  0  0  0  0
  6  7  2  3  0  0  0
  6 25  1  0  0  0  0
  7  8  1  0  0  0  0
  7 52  1  0  0  0  0
  8  9  2  0  0  0  0
  8 42  1  0  0  0  0
  9 10  1  0  0  0  0
  9 12  1  0  0  0  0
 10 11  1  0  0  0  0
 10 53  1  0  0  0  0
 10 54  1  0  0  0  0
 11 55  1  0  0  0  0
 11 56  1  0  0  0  0
 11 57  1  0  0  0  0
 12 13  1  0  0  0  0
 12 14  2  0  0  0  0
 13 58  1  0  0  0  0
 13 59  1  0  0  0  0
 13 60  1  0  0  0  0
 14 42  1  0  0  0  0
 15 14  1  0  0  0  0
 15 16  2  3  0  0  0
 15 61  1  0  0  0  0
 16 17  1  0  0  0  0
 16 40  1  0  0  0  0
 17 18  2  0  0  0  0
 18 34  1  0  0  0  0
 19 18  1  0  0  0  0
 19 20  2  3  0  0  0
 19 62  1  0  0  0  0
 20 21  1  0  0  0  0
 20 28  1  0  0  0  0
 21 22  1  0  0  0  0
 21 63  1  0  0  0  0
 22 23  2  0  0  0  0
 22 26  1  0  0  0  0
 23 24  1  0  0  0  0
 23 64  1  0  0  0  0
 24 25  2  0  0  0  0
 26 27  1  0  0  0  0
 26 28  2  0  0  0  0
 27 65  1  0  0  0  0
 27 66  1  0  0  0  0
 27 67  1  0  0  0  0
 28 29  1  0  0  0  0
 29 30  1  0  0  0  0
 29 68  1  0  0  0  0
 29 69  1  0  0  0  0
 30 31  1  0  0  0  0
 30 70  1  0  0  0  0
 30 71  1  0  0  0  0
 31 32  1  0  0  0  0
 31 33  2  0  0  0  0
 32 72  1  0  0  0  0
 34 35  1  0  0  0  0
 34 40  2  0  0  0  0
 35 36  1  0  0  0  0
 35 73  1  0  0  0  0
 35 74  1  0  0  0  0
 36 37  1  0  0  0  0
 36 75  1  0  0  0  0
 36 76  1  0  0  0  0
 37 38  1  0  0  0  0
 37 39  2  0  0  0  0
 38 77  1  0  0  0  0
 40 41  1  0  0  0  0
 41 78  1  0  0  0  0
 41 79  1  0  0  0  0
 41 80  1  0  0  0  0
 42 43  1  0  0  0  0
 43 81  1  0  0  0  0
 43 82  1  0  0  0  0
 43 83  1  0  0  0  0
M  END
>  <DRUGBANK_ID>
DB01911

>  <SECONDARY_ACCESSION_NUMBERS>
EXPT02198

>  <COMMON_NAME>
N-Methylmesoporphyrin

>  <CAS_NUMBER>
142234-85-3

$$$$
