LKG
 OpenBabel10282417072D

 37 40  0  0  0  0  0  0  0  0999 V2000
   -0.0556    0.7871    0.0000 N   0  0  0  0  0  0  0  0  0  0  0  0
   -0.8402    1.8670    0.0000 N   0  0  0  0  0  0  0  0  0  0  0  0
    2.0878    0.3746    0.0000 C   0  0  0  0  0  0  0  0  0  0  0  0
    2.8023    0.7871    0.0000 C   0  0  0  0  0  0  0  0  0  0  0  0
    3.5167    0.3746    0.0000 C   0  0  0  0  0  0  0  0  0  0  0  0
    1.3733    0.7871    0.0000 C   0  0  0  0  0  0  0  0  0  0  0  0
    1.3733    1.6121    0.0000 C   0  0  0  0  0  0  0  0  0  0  0  0
   -0.0556    1.6121    0.0000 C   0  0  0  0  0  0  0  0  0  0  0  0
   -1.9021   -0.4240    0.0000 C   0  0  0  0  0  0  0  0  0  0  0  0
   -2.9641   -1.3801    0.0000 C   0  0  0  0  0  0  0  0  0  0  0  0
   -3.2611    0.0176    0.0000 C   0  0  0  0  0  0  0  0  0  0  0  0
   -2.1571   -1.2086    0.0000 C   0  0  0  0  0  0  0  0  0  0  0  0
   -3.5161   -0.7670    0.0000 C   0  0  0  0  0  0  0  0  0  0  0  0
   -4.3231   -0.9386    0.0000 O   0  0  0  0  0  0  0  0  0  0  0  0
   -2.4542    0.1891    0.0000 C   0  0  0  0  0  0  0  0  0  0  0  0
   -1.0952   -0.2525    0.0000 C   0  0  0  0  0  0  0  0  0  0  0  0
   -0.8402    0.5322    0.0000 C   0  0  0  0  0  0  0  0  0  0  0  0
    0.6589    0.3746    0.0000 N   0  0  0  0  0  0  0  0  0  0  0  0
   -1.3252    1.1996    0.0000 N   0  0  0  0  0  0  0  0  0  0  0  0
    0.6589    2.0246    0.0000 C   0  0  0  0  0  0  0  0  0  0  0  0
    2.0878   -0.4504    0.0000 C   0  0  0  0  0  0  0  0  0  0  0  0
    2.8023   -0.8629    0.0000 C   0  0  0  0  0  0  0  0  0  0  0  0
    3.5167   -0.4504    0.0000 C   0  0  0  0  0  0  0  0  0  0  0  0
    2.8023    1.8191    0.0000 H   0  0  0  0  0  0  0  0  0  0  0  0
    4.4104    0.8906    0.0000 H   0  0  0  0  0  0  0  0  0  0  0  0
    2.2670    2.1281    0.0000 H   0  0  0  0  0  0  0  0  0  0  0  0
   -3.2830   -2.3616    0.0000 H   0  0  0  0  0  0  0  0  0  0  0  0
   -3.9516    0.7846    0.0000 H   0  0  0  0  0  0  0  0  0  0  0  0
   -1.4666   -1.9756    0.0000 H   0  0  0  0  0  0  0  0  0  0  0  0
   -4.9501   -0.2423    0.0000 H   0  0  0  0  0  0  0  0  0  0  0  0
   -2.1353    1.1706    0.0000 H   0  0  0  0  0  0  0  0  0  0  0  0
   -0.3793   -1.0477    0.0000 H   0  0  0  0  0  0  0  0  0  0  0  0
   -0.0486   -0.0301    0.0000 H   0  0  0  0  0  0  0  0  0  0  0  0
    0.6589    3.0566    0.0000 H   0  0  0  0  0  0  0  0  0  0  0  0
    1.1941   -0.9664    0.0000 H   0  0  0  0  0  0  0  0  0  0  0  0
    2.8023   -1.8949    0.0000 H   0  0  0  0  0  0  0  0  0  0  0  0
    4.4104   -0.9664    0.0000 H   0  0  0  0  0  0  0  0  0  0  0  0
  1  8  1  0  0  0  0
  1 17  1  0  0  0  0
  1 18  1  0  0  0  0
  2  8  2  0  0  0  0
  2 19  1  0  0  0  0
  3  4  2  0  0  0  0
  3  6  1  0  0  0  0
  3 21  1  0  0  0  0
  4  5  1  0  0  0  0
  4 24  1  0  0  0  0
  5 23  2  0  0  0  0
  5 25  1  0  0  0  0
  6  7  1  0  0  0  0
  6 18  2  0  0  0  0
  7 20  2  0  0  0  0
  7 26  1  0  0  0  0
  8 20  1  0  0  0  0
  9 12  2  0  0  0  0
  9 15  1  0  0  0  0
  9 16  1  0  0  0  0
 10 12  1  0  0  0  0
 10 13  2  0  0  0  0
 10 27  1  0  0  0  0
 11 13  1  0  0  0  0
 11 15  2  0  0  0  0
 11 28  1  0  0  0  0
 12 29  1  0  0  0  0
 13 14  1  0  0  0  0
 14 30  1  0  0  0  0
 15 31  1  0  0  0  0
 16 17  1  0  0  0  0
 16 32  1  0  0  0  0
 16 33  1  0  0  0  0
 17 19  2  0  0  0  0
 20 34  1  0  0  0  0
 21 22  2  0  0  0  0
 21 35  1  0  0  0  0
 22 23  1  0  0  0  0
 22 36  1  0  0  0  0
 23 37  1  0  0  0  0
M  END
>  <DRUGBANK_ID>
DB08111

>  <COMMON_NAME>
4-[(6-phenyl[1,2,4]triazolo[4,3-b]pyridazin-3-yl)methyl]phenol

>  <UNII>
S85YZ8U3Z6

$$$$
