
 OpenBabel10282417072D

 57 59  0  0  0  0  0  0  0  0999 V2000
    2.9646   -0.0616    0.0000 C   0  0  0  0  0  0  0  0  0  0  0  0
    2.2501   -0.4741    0.0000 C   0  0  0  0  0  0  0  0  0  0  0  0
    2.2501   -1.2991    0.0000 C   0  0  0  0  0  0  0  0  0  0  0  0
    1.5356   -1.7116    0.0000 C   0  0  0  0  0  0  0  0  0  0  0  0
    0.8212   -1.2991    0.0000 C   0  0  0  0  0  0  0  0  0  0  0  0
    0.8212   -0.4741    0.0000 C   0  0  0  0  0  0  0  0  0  0  0  0
    1.5356   -0.0616    0.0000 C   0  0  0  0  0  0  0  0  0  0  0  0
    0.1067   -1.7116    0.0000 C   0  0  0  0  0  0  0  0  0  0  0  0
    0.1067   -2.5366    0.0000 N   0  0  0  0  0  0  0  0  0  0  0  0
    0.7741   -3.0215    0.0000 C   0  0  0  0  0  0  0  0  0  0  0  0
    1.5588   -2.7666    0.0000 O   0  0  0  0  0  0  0  0  0  0  0  0
    0.5192   -3.8062    0.0000 N   0  0  0  0  0  0  0  0  0  0  0  0
   -0.3058   -3.8062    0.0000 C   0  0  0  0  0  0  0  0  0  0  0  0
   -0.5607   -3.0215    0.0000 N   0  0  0  0  0  0  0  0  0  0  0  0
   -0.7907   -4.4736    0.0000 C   0  0  0  0  0  0  0  0  0  0  0  0
   -0.4552   -5.2273    0.0000 C   0  0  0  0  0  0  0  0  0  0  0  0
    0.3653   -5.3135    0.0000 C   0  0  0  0  0  0  0  0  0  0  0  0
    0.7009   -6.0672    0.0000 C   0  0  0  0  0  0  0  0  0  0  0  0
    1.5214   -6.1534    0.0000 C   0  0  0  0  0  0  0  0  0  0  0  0
    1.8569   -6.9071    0.0000 C   0  0  0  0  0  0  0  0  0  0  0  0
    1.3720   -7.5745    0.0000 C   0  0  0  0  0  0  0  0  0  0  0  0
    0.5515   -7.4883    0.0000 C   0  0  0  0  0  0  0  0  0  0  0  0
    0.2160   -6.7346    0.0000 C   0  0  0  0  0  0  0  0  0  0  0  0
    1.7076   -8.3282    0.0000 O   0  0  0  0  0  0  0  0  0  0  0  0
    1.2226   -8.9956    0.0000 C   0  0  0  0  0  0  0  0  0  0  0  0
    0.5552   -8.5107    0.0000 C   0  0  0  0  0  0  0  0  0  0  0  0
    1.8901   -9.4806    0.0000 C   0  0  0  0  0  0  0  0  0  0  0  0
    0.7377   -9.6631    0.0000 C   0  0  0  0  0  0  0  0  0  0  0  0
    1.0733  -10.4168    0.0000 O   0  0  0  0  0  0  0  0  0  0  0  0
   -0.0828   -9.5768    0.0000 O   0  0  0  0  0  0  0  0  0  0  0  0
    3.8912   -0.5966    0.0000 H   0  0  0  0  0  0  0  0  0  0  0  0
    2.9646    1.0084    0.0000 H   0  0  0  0  0  0  0  0  0  0  0  0
    3.8913    0.4734    0.0000 H   0  0  0  0  0  0  0  0  0  0  0  0
    3.1438   -1.8151    0.0000 H   0  0  0  0  0  0  0  0  0  0  0  0
    1.5356   -2.7436    0.0000 H   0  0  0  0  0  0  0  0  0  0  0  0
   -0.0725    0.0419    0.0000 H   0  0  0  0  0  0  0  0  0  0  0  0
    1.5356    0.9704    0.0000 H   0  0  0  0  0  0  0  0  0  0  0  0
   -0.8199   -1.1766    0.0000 H   0  0  0  0  0  0  0  0  0  0  0  0
   -0.8199   -2.2466    0.0000 H   0  0  0  0  0  0  0  0  0  0  0  0
    1.0979   -4.6027    0.0000 H   0  0  0  0  0  0  0  0  0  0  0  0
   -1.8548   -4.3617    0.0000 H   0  0  0  0  0  0  0  0  0  0  0  0
   -1.4197   -5.3392    0.0000 H   0  0  0  0  0  0  0  0  0  0  0  0
   -1.0841   -6.0929    0.0000 H   0  0  0  0  0  0  0  0  0  0  0  0
   -0.0200   -6.2048    0.0000 H   0  0  0  0  0  0  0  0  0  0  0  0
    0.9942   -4.4478    0.0000 H   0  0  0  0  0  0  0  0  0  0  0  0
    1.4294   -5.4253    0.0000 H   0  0  0  0  0  0  0  0  0  0  0  0
    2.1280   -5.3185    0.0000 H   0  0  0  0  0  0  0  0  0  0  0  0
    2.8832   -7.0150    0.0000 H   0  0  0  0  0  0  0  0  0  0  0  0
   -0.0551   -8.3232    0.0000 H   0  0  0  0  0  0  0  0  0  0  0  0
   -0.8103   -6.6267    0.0000 H   0  0  0  0  0  0  0  0  0  0  0  0
    0.6671   -7.4466    0.0000 H   0  0  0  0  0  0  0  0  0  0  0  0
   -0.4223   -8.9459    0.0000 H   0  0  0  0  0  0  0  0  0  0  0  0
   -0.3104   -7.8818    0.0000 H   0  0  0  0  0  0  0  0  0  0  0  0
    1.7782  -10.5447    0.0000 H   0  0  0  0  0  0  0  0  0  0  0  0
    2.8676   -9.0454    0.0000 H   0  0  0  0  0  0  0  0  0  0  0  0
    2.7557  -10.1096    0.0000 H   0  0  0  0  0  0  0  0  0  0  0  0
   -0.4638   -8.7208    0.0000 H   0  0  0  0  0  0  0  0  0  0  0  0
  1  2  1  0  0  0  0
  1 31  1  0  0  0  0
  1 32  1  0  0  0  0
  1 33  1  0  0  0  0
  2  3  2  0  0  0  0
  2  7  1  0  0  0  0
  3  4  1  0  0  0  0
  3 34  1  0  0  0  0
  4  5  2  0  0  0  0
  4 35  1  0  0  0  0
  5  6  1  0  0  0  0
  5  8  1  0  0  0  0
  6  7  2  0  0  0  0
  6 36  1  0  0  0  0
  7 37  1  0  0  0  0
  8  9  1  0  0  0  0
  8 38  1  0  0  0  0
  8 39  1  0  0  0  0
  9 10  1  0  0  0  0
  9 14  1  0  0  0  0
 10 11  2  0  0  0  0
 10 12  1  0  0  0  0
 12 13  1  0  0  0  0
 12 40  1  0  0  0  0
 13 14  2  0  0  0  0
 13 15  1  0  0  0  0
 15 16  1  0  0  0  0
 15 41  1  0  0  0  0
 15 42  1  0  0  0  0
 16 17  1  0  0  0  0
 16 43  1  0  0  0  0
 16 44  1  0  0  0  0
 17 18  1  0  0  0  0
 17 45  1  0  0  0  0
 17 46  1  0  0  0  0
 18 19  2  0  0  0  0
 18 23  1  0  0  0  0
 19 20  1  0  0  0  0
 19 47  1  0  0  0  0
 20 21  2  0  0  0  0
 20 48  1  0  0  0  0
 21 22  1  0  0  0  0
 21 24  1  0  0  0  0
 22 23  2  0  0  0  0
 22 49  1  0  0  0  0
 23 50  1  0  0  0  0
 24 25  1  0  0  0  0
 25 26  1  0  0  0  0
 25 27  1  0  0  0  0
 25 28  1  0  0  0  0
 26 51  1  0  0  0  0
 26 52  1  0  0  0  0
 26 53  1  0  0  0  0
 27 54  1  0  0  0  0
 27 55  1  0  0  0  0
 27 56  1  0  0  0  0
 28 29  2  0  0  0  0
 28 30  1  0  0  0  0
 30 57  1  0  0  0  0
M  END
>  <DRUGBANK_ID>
DB12988

>  <SECONDARY_ACCESSION_NUMBERS>
DB05627

>  <COMMON_NAME>
LY-518674

>  <CAS_NUMBER>
425671-29-0

>  <UNII>
U8I57RC739

$$$$
