AI7
 OpenBabel10282417072D

 37 37  0  0  0  0  0  0  0  0999 V2000
   -4.1279   -1.5752    0.0000 C   0  0  0  0  0  0  0  0  0  0  0  0
   -4.1279   -3.2252    0.0000 C   0  0  0  0  0  0  0  0  0  0  0  0
   -4.8423   -2.8127    0.0000 C   0  0  0  0  0  0  0  0  0  0  0  0
    0.8734   -1.9877    0.0000 C   0  0  0  0  0  0  0  0  0  0  0  0
   -5.5568   -1.5752    0.0000 C   0  0  0  0  0  0  0  0  0  0  0  0
   -1.2700   -1.5752    0.0000 C   0  0  0  0  0  0  0  0  0  0  0  0
   -3.4134   -2.8127    0.0000 C   0  0  0  0  0  0  0  0  0  0  0  0
   -1.9845   -1.9877    0.0000 C   0  0  0  0  0  0  0  0  0  0  0  0
    2.3024   -1.9877    0.0000 C   0  0  0  0  0  0  0  0  0  0  0  0
    1.5879   -1.5752    0.0000 C   0  0  0  0  0  0  0  0  0  0  0  0
   -3.4134   -1.9877    0.0000 C   0  0  0  0  0  0  0  0  0  0  0  0
    0.1590   -1.5752    0.0000 C   0  0  0  0  0  0  0  0  0  0  0  0
   -0.5555   -1.9877    0.0000 C   0  0  0  0  0  0  0  0  0  0  0  0
   -4.8423   -1.9877    0.0000 C   0  0  0  0  0  0  0  0  0  0  0  0
   -6.2713   -1.9877    0.0000 O   0  0  0  0  0  0  0  0  0  0  0  0
   -2.6989   -1.5752    0.0000 O   0  0  0  0  0  0  0  0  0  0  0  0
   -5.5568   -0.7502    0.0000 O   0  0  0  0  0  0  0  0  0  0  0  0
   -4.1279   -0.5432    0.0000 H   0  0  0  0  0  0  0  0  0  0  0  0
   -4.1279   -4.2572    0.0000 H   0  0  0  0  0  0  0  0  0  0  0  0
   -5.7360   -3.3287    0.0000 H   0  0  0  0  0  0  0  0  0  0  0  0
    0.8734   -3.0577    0.0000 H   0  0  0  0  0  0  0  0  0  0  0  0
    1.8000   -2.5227    0.0000 H   0  0  0  0  0  0  0  0  0  0  0  0
   -1.2700   -0.5052    0.0000 H   0  0  0  0  0  0  0  0  0  0  0  0
   -2.1966   -1.0402    0.0000 H   0  0  0  0  0  0  0  0  0  0  0  0
   -2.5197   -3.3287    0.0000 H   0  0  0  0  0  0  0  0  0  0  0  0
   -1.9845   -3.0577    0.0000 H   0  0  0  0  0  0  0  0  0  0  0  0
   -2.9112   -2.5227    0.0000 H   0  0  0  0  0  0  0  0  0  0  0  0
    2.3024   -3.0577    0.0000 H   0  0  0  0  0  0  0  0  0  0  0  0
    3.2290   -1.4527    0.0000 H   0  0  0  0  0  0  0  0  0  0  0  0
    3.2291   -2.5227    0.0000 H   0  0  0  0  0  0  0  0  0  0  0  0
    1.5879   -0.5052    0.0000 H   0  0  0  0  0  0  0  0  0  0  0  0
    2.5145   -1.0402    0.0000 H   0  0  0  0  0  0  0  0  0  0  0  0
    0.1590   -0.5052    0.0000 H   0  0  0  0  0  0  0  0  0  0  0  0
   -0.7676   -1.0402    0.0000 H   0  0  0  0  0  0  0  0  0  0  0  0
   -0.5555   -3.0577    0.0000 H   0  0  0  0  0  0  0  0  0  0  0  0
    0.3711   -2.5227    0.0000 H   0  0  0  0  0  0  0  0  0  0  0  0
   -4.7453   -0.2817    0.0000 H   0  0  0  0  0  0  0  0  0  0  0  0
  1 11  1  0  0  0  0
  1 18  1  0  0  0  0
  2  7  1  0  0  0  0
  2 19  1  0  0  0  0
  3  2  2  0  0  0  0
  3 14  1  0  0  0  0
  3 20  1  0  0  0  0
  4 12  1  0  0  0  0
  4 10  1  0  0  0  0
  4 21  1  0  0  0  0
  4 22  1  0  0  0  0
  5 14  1  0  0  0  0
  5 17  1  0  0  0  0
  6 13  1  0  0  0  0
  6 23  1  0  0  0  0
  6 24  1  0  0  0  0
  7 11  2  0  0  0  0
  7 25  1  0  0  0  0
  8  6  1  0  0  0  0
  8 26  1  0  0  0  0
  8 27  1  0  0  0  0
  9 10  1  0  0  0  0
  9 28  1  0  0  0  0
  9 29  1  0  0  0  0
  9 30  1  0  0  0  0
 10 31  1  0  0  0  0
 10 32  1  0  0  0  0
 11 16  1  0  0  0  0
 12 33  1  0  0  0  0
 12 34  1  0  0  0  0
 13 12  1  0  0  0  0
 13 35  1  0  0  0  0
 13 36  1  0  0  0  0
 14  1  2  0  0  0  0
 15  5  2  0  0  0  0
 16  8  1  0  0  0  0
 17 37  1  0  0  0  0
M  END
>  <DRUGBANK_ID>
DB07355

>  <COMMON_NAME>
3-(heptyloxy)benzoic acid

$$$$
