4824
 OpenBabel10282417072D

 38 41  0  0  0  0  0  0  0  0999 V2000
    4.3411   -1.2316    0.0000 O   0  0  0  0  0  0  0  0  0  0  0  0
    4.1159   -2.6797    0.0000 O   0  0  0  0  0  0  0  0  0  0  0  0
    7.1421   -0.2284    0.0000 O   0  0  0  0  0  0  0  0  0  0  0  0
    2.8453    2.5725    0.0000 O   0  0  0  0  0  0  0  0  0  0  0  0
    3.8596   -0.5678    0.0000 C   0  0  0  0  0  0  0  0  0  0  0  0
    3.0790   -0.8191    0.0000 C   0  0  0  0  0  0  0  0  0  0  0  0
    4.6802   -0.4830    0.0000 C   0  0  0  0  0  0  0  0  0  0  0  0
    3.6060    0.2173    0.0000 C   0  0  0  0  0  0  0  0  0  0  0  0
    3.0790   -1.6441    0.0000 C   0  0  0  0  0  0  0  0  0  0  0  0
    3.8596   -1.8955    0.0000 C   0  0  0  0  0  0  0  0  0  0  0  0
    2.3645   -0.4066    0.0000 C   0  0  0  0  0  0  0  0  0  0  0  0
    5.1640   -1.1512    0.0000 C   0  0  0  0  0  0  0  0  0  0  0  0
    4.1591    0.8295    0.0000 C   0  0  0  0  0  0  0  0  0  0  0  0
    5.0171    0.2702    0.0000 C   0  0  0  0  0  0  0  0  0  0  0  0
    2.7993    0.3902    0.0000 C   0  0  0  0  0  0  0  0  0  0  0  0
    2.3645   -2.0566    0.0000 C   0  0  0  0  0  0  0  0  0  0  0  0
    1.6500   -0.8191    0.0000 C   0  0  0  0  0  0  0  0  0  0  0  0
    1.6500   -1.6441    0.0000 C   0  0  0  0  0  0  0  0  0  0  0  0
    5.9846   -1.0664    0.0000 C   0  0  0  0  0  0  0  0  0  0  0  0
    3.9055    1.6145    0.0000 C   0  0  0  0  0  0  0  0  0  0  0  0
    5.8377    0.3550    0.0000 C   0  0  0  0  0  0  0  0  0  0  0  0
    2.5457    1.1753    0.0000 C   0  0  0  0  0  0  0  0  0  0  0  0
    6.3215   -0.3133    0.0000 C   0  0  0  0  0  0  0  0  0  0  0  0
    3.0989    1.7874    0.0000 C   0  0  0  0  0  0  0  0  0  0  0  0
    7.6916   -0.9873    0.0000 H   0  0  0  0  0  0  0  0  0  0  0  0
    3.4735    3.2677    0.0000 H   0  0  0  0  0  0  0  0  0  0  0  0
    2.3645    0.6254    0.0000 H   0  0  0  0  0  0  0  0  0  0  0  0
    4.7427   -2.0933    0.0000 H   0  0  0  0  0  0  0  0  0  0  0  0
    5.1682    0.6132    0.0000 H   0  0  0  0  0  0  0  0  0  0  0  0
    4.4120    1.1062    0.0000 H   0  0  0  0  0  0  0  0  0  0  0  0
    2.1074   -0.3755    0.0000 H   0  0  0  0  0  0  0  0  0  0  0  0
    2.3645   -3.0886    0.0000 H   0  0  0  0  0  0  0  0  0  0  0  0
    0.7563   -0.3031    0.0000 H   0  0  0  0  0  0  0  0  0  0  0  0
    0.7563   -2.1601    0.0000 H   0  0  0  0  0  0  0  0  0  0  0  0
    6.5897   -1.9024    0.0000 H   0  0  0  0  0  0  0  0  0  0  0  0
    4.5973    2.3802    0.0000 H   0  0  0  0  0  0  0  0  0  0  0  0
    6.2591    1.2971    0.0000 H   0  0  0  0  0  0  0  0  0  0  0  0
    1.5366    1.3917    0.0000 H   0  0  0  0  0  0  0  0  0  0  0  0
  1  5  1  0  0  0  0
  1 10  1  0  0  0  0
  2 10  2  0  0  0  0
  3 23  1  0  0  0  0
  3 25  1  0  0  0  0
  4 24  1  0  0  0  0
  4 26  1  0  0  0  0
  5  6  1  0  0  0  0
  5  7  1  0  0  0  0
  5  8  1  0  0  0  0
  6  9  1  0  0  0  0
  6 11  2  0  0  0  0
  7 12  2  0  0  0  0
  7 14  1  0  0  0  0
  8 13  2  0  0  0  0
  8 15  1  0  0  0  0
  9 10  1  0  0  0  0
  9 16  2  0  0  0  0
 11 17  1  0  0  0  0
 11 27  1  0  0  0  0
 12 19  1  0  0  0  0
 12 28  1  0  0  0  0
 13 20  1  0  0  0  0
 13 29  1  0  0  0  0
 14 21  2  0  0  0  0
 14 30  1  0  0  0  0
 15 22  2  0  0  0  0
 15 31  1  0  0  0  0
 16 18  1  0  0  0  0
 16 32  1  0  0  0  0
 17 18  2  0  0  0  0
 17 33  1  0  0  0  0
 18 34  1  0  0  0  0
 19 23  2  0  0  0  0
 19 35  1  0  0  0  0
 20 24  2  0  0  0  0
 20 36  1  0  0  0  0
 21 23  1  0  0  0  0
 21 37  1  0  0  0  0
 22 24  1  0  0  0  0
 22 38  1  0  0  0  0
M  END
>  <DRUGBANK_ID>
DB04824

>  <COMMON_NAME>
Phenolphthalein

>  <CAS_NUMBER>
77-09-8

>  <UNII>
6QK969R2IF

>  <SYNONYMS>
3,3-Bis(4-hydroxyphenyl)phthalide; Fenolftalein; Fenolftaleina; Phenolphtaleine; Phenolphthalein; Phenolphthaleinum; Phthalimetten; Phthalin; Yellow phenolphthalein

$$$$
