
 OpenBabel10282417072D

 19 18  0  0  0  0  0  0  0  0999 V2000
   12.6221   -5.2526    0.0000 C   0  0  0  0  0  0  0  0  0  0  0  0
   13.3367   -4.8401    0.0000 P   0  0  0  0  0  0  0  0  0  0  0  0
   14.0511   -5.2526    0.0000 O   0  0  0  0  0  0  0  0  0  0  0  0
   13.3367   -4.0151    0.0000 O   0  0  0  0  0  0  0  0  0  0  0  0
   11.9076   -4.8402    0.0000 P   0  0  0  0  0  0  0  0  0  0  0  0
   11.1931   -5.2527    0.0000 O   0  0  0  0  0  0  0  0  0  0  0  0
   11.9076   -4.0152    0.0000 O   0  0  0  0  0  0  0  0  0  0  0  0
   12.2096   -5.9671    0.0000 C   0  0  0  0  0  0  0  0  0  0  0  0
   13.0345   -5.9671    0.0000 O   0  0  0  0  0  0  0  0  0  0  0  0
   14.0512   -4.4276    0.0000 O   0  0  0  0  0  0  0  0  0  0  0  0
   11.1931   -4.4277    0.0000 O   0  0  0  0  0  0  0  0  0  0  0  0
   14.0511   -6.2226    0.0000 H   0  0  0  0  0  0  0  0  0  0  0  0
   10.3531   -4.7677    0.0000 H   0  0  0  0  0  0  0  0  0  0  0  0
   11.1396   -5.9671    0.0000 H   0  0  0  0  0  0  0  0  0  0  0  0
   12.7446   -6.8937    0.0000 H   0  0  0  0  0  0  0  0  0  0  0  0
   11.6746   -6.8938    0.0000 H   0  0  0  0  0  0  0  0  0  0  0  0
   12.5494   -6.8071    0.0000 H   0  0  0  0  0  0  0  0  0  0  0  0
   14.8912   -4.9126    0.0000 H   0  0  0  0  0  0  0  0  0  0  0  0
   11.1931   -3.4577    0.0000 H   0  0  0  0  0  0  0  0  0  0  0  0
  1  2  1  0  0  0  0
  1  5  1  0  0  0  0
  1  8  1  0  0  0  0
  2  3  1  0  0  0  0
  2  4  2  0  0  0  0
  2 10  1  0  0  0  0
  3 12  1  0  0  0  0
  5  6  1  0  0  0  0
  5  7  2  0  0  0  0
  5 11  1  0  0  0  0
  6 13  1  0  0  0  0
  8 14  1  0  0  0  0
  8 15  1  0  0  0  0
  8 16  1  0  0  0  0
  9  1  1  0  0  0  0
  9 17  1  0  0  0  0
 10 18  1  0  0  0  0
 11 19  1  0  0  0  0
M  END
>  <DRUGBANK_ID>
DB01077

>  <SECONDARY_ACCESSION_NUMBERS>
APRD00964

>  <COMMON_NAME>
Etidronic acid

>  <CAS_NUMBER>
2809-21-4

>  <UNII>
M2F465ROXU

>  <SYNONYMS>
(1-hydroxy-ethylidene)diphosphonic acid; (1-Hydroxyethylene)diphosphonic acid; (1-Hydroxyethylidene)bis(phosphonic acid); (1-Hydroxyethylidene)bisphosphonic acid; (1-Hydroxyethylidene)diphosphonic acid; (Hydroxyethylidene)diphosphonic acid; 1-Hydroxy-1,1-diphosphonoethane; 1-hydroxyethane 1,1-diphosphonic acid; 1-Hydroxyethane-1,1-bisphosphonic acid; 1-Hydroxyethane-1,1-diphosphonate; 1-Hydroxyethane-1,1-diphosphonic acid; 1-Hydroxyethanediphosphonic acid; 1-Hydroxyethylidene-1,1-bisphosphonate; 1-Hydroxyethylidene-1,1-diphosphonic acid; 1,1,1-Ethanetriol diphosphonate; Acetodiphosphonic acid; acide étidronique; ácido etidrónico; acidum etidronicum; EHDP; Ethane-1-hydroxy-1,1-bisphosphonic acid; Ethane-1-hydroxy-1,1-diphosphonate; Ethane-1-hydroxy-1,1-diphosphonic acid; Etidronate; Etidronic acid; Etidronsäure; HEDP; Hydroxyethanediphosphonic acid; Oxyethylidenediphosphonic acid

$$$$
