
 OpenBabel10282417072D

 30 30  0  0  0  0  0  0  0  0999 V2000
   -1.4289    0.4125    0.0000 C   0  0  0  0  0  0  0  0  0  0  0  0
   -0.7144   -0.8250    0.0000 C   0  0  0  0  0  0  0  0  0  0  0  0
    0.0000    0.4125    0.0000 C   0  0  0  0  0  0  0  0  0  0  0  0
   -2.1434    0.0000    0.0000 C   0  0  0  0  0  0  0  0  0  0  0  0
   -1.4289   -1.2375    0.0000 C   0  0  0  0  0  0  0  0  0  0  0  0
    0.7144    0.0000    0.0000 C   0  0  0  0  0  0  0  0  0  0  0  0
   -0.7144    0.0000    0.0000 C   0  0  1  0  0  0  0  0  0  0  0  0
   -2.1434   -0.8250    0.0000 C   0  0  3  0  0  0  0  0  0  0  0  0
    1.4289    0.4125    0.0000 C   0  0  1  0  0  0  0  0  0  0  0  0
    2.1434    0.0000    0.0000 C   0  0  0  0  0  0  0  0  0  0  0  0
   -2.8578   -1.2375    0.0000 N   0  0  0  0  0  0  0  0  0  0  0  0
    1.4289    1.2375    0.0000 N   0  0  0  0  0  0  0  0  0  0  0  0
    2.8578    0.4125    0.0000 O   0  0  0  0  0  0  0  0  0  0  0  0
    2.1434   -0.8250    0.0000 O   0  0  0  0  0  0  0  0  0  0  0  0
    0.0000   -0.4125    0.0000 H   0  0  0  0  0  0  0  0  0  0  0  0
   -2.8578   -0.4125    0.0000 H   0  0  0  0  0  0  0  0  0  0  0  0
    1.4289   -0.4125    0.0000 H   0  0  0  0  0  0  0  0  0  0  0  0
   -1.4289    1.4445    0.0000 H   0  0  0  0  0  0  0  0  0  0  0  0
    0.1793   -1.3410    0.0000 H   0  0  0  0  0  0  0  0  0  0  0  0
    0.0000    1.4825    0.0000 H   0  0  0  0  0  0  0  0  0  0  0  0
   -0.9267    0.9475    0.0000 H   0  0  0  0  0  0  0  0  0  0  0  0
   -3.0371    0.5160    0.0000 H   0  0  0  0  0  0  0  0  0  0  0  0
   -1.4289   -2.2695    0.0000 H   0  0  0  0  0  0  0  0  0  0  0  0
    0.7144   -1.0700    0.0000 H   0  0  0  0  0  0  0  0  0  0  0  0
    1.6410   -0.5350    0.0000 H   0  0  0  0  0  0  0  0  0  0  0  0
   -3.7412   -0.7275    0.0000 H   0  0  0  0  0  0  0  0  0  0  0  0
   -2.8578   -2.2575    0.0000 H   0  0  0  0  0  0  0  0  0  0  0  0
    2.3122    1.7475    0.0000 H   0  0  0  0  0  0  0  0  0  0  0  0
    0.5456    1.7475    0.0000 H   0  0  0  0  0  0  0  0  0  0  0  0
    1.3319   -1.2935    0.0000 H   0  0  0  0  0  0  0  0  0  0  0  0
  1 18  1  0  0  0  0
  2 19  1  0  0  0  0
  3 20  1  0  0  0  0
  3 21  1  0  0  0  0
  4  1  2  0  0  0  0
  4 22  1  0  0  0  0
  5  2  2  0  0  0  0
  5 23  1  0  0  0  0
  6  3  1  0  0  0  0
  6 24  1  0  0  0  0
  6 25  1  0  0  0  0
  7  1  1  0  0  0  0
  7  2  1  0  0  0  0
  7  3  1  0  0  0  0
  7 15  1  1  0  0  0
  8  4  1  0  0  0  0
  8  5  1  0  0  0  0
  9  6  1  0  0  0  0
  9 10  1  0  0  0  0
  9 12  1  0  0  0  0
  9 17  1  1  0  0  0
 11  8  1  0  0  0  0
 11 26  1  0  0  0  0
 11 27  1  0  0  0  0
 12 28  1  0  0  0  0
 12 29  1  0  0  0  0
 13 10  2  0  0  0  0
 14 10  1  0  0  0  0
 14 30  1  0  0  0  0
 16  8  1  0  0  0  0
M  END
>  <DRUGBANK_ID>
DB02725

>  <SECONDARY_ACCESSION_NUMBERS>
EXPT00424

>  <COMMON_NAME>
2-Amino-4-(4-Amino-Cyclohexa-2,5-Dienyl)-Butyric Acid

$$$$
