PGG
 OpenBabel10282417072D

 38 38  0  0  0  0  0  0  0  0999 V2000
   -2.0795   -0.0123    0.0000 C   0  0  0  0  0  0  0  0  0  0  0  0
   -2.8456   -0.3185    0.0000 C   0  0  0  0  0  0  0  0  0  0  0  0
   -3.4938    0.1919    0.0000 C   0  0  0  0  0  0  0  0  0  0  0  0
   -3.3759    1.0084    0.0000 C   0  0  0  0  0  0  0  0  0  0  0  0
   -2.6099    1.3146    0.0000 C   0  0  0  0  0  0  0  0  0  0  0  0
   -1.9616    0.8043    0.0000 C   0  0  0  0  0  0  0  0  0  0  0  0
   -0.6652   -0.2164    0.0000 P   0  0  1  0  0  0  0  0  0  0  0  0
   -1.4313   -0.5226    0.0000 O   0  0  0  0  0  0  0  0  0  0  0  0
   -0.9714    0.5497    0.0000 O   0  0  0  0  0  0  0  0  0  0  0  0
   -0.3590   -0.9825    0.0000 O   0  0  0  0  0  0  0  0  0  0  0  0
    0.1009    0.0898    0.0000 C   0  0  0  0  0  0  0  0  0  0  0  0
    0.7491   -0.4206    0.0000 C   0  0  0  0  0  0  0  0  0  0  0  0
    1.5151   -0.1144    0.0000 C   0  0  0  0  0  0  0  0  0  0  0  0
    2.1634   -0.6247    0.0000 C   0  0  0  0  0  0  0  0  0  0  0  0
    2.9294   -0.3185    0.0000 N   0  0  0  0  0  0  0  0  0  0  0  0
    2.0455   -1.4412    0.0000 O   0  0  0  0  0  0  0  0  0  0  0  0
    3.5776   -0.8288    0.0000 C   0  0  0  0  0  0  0  0  0  0  0  0
    4.3437   -0.5226    0.0000 C   0  0  0  0  0  0  0  0  0  0  0  0
    4.9919   -1.0330    0.0000 O   0  0  0  0  0  0  0  0  0  0  0  0
    4.4616    0.2939    0.0000 O   0  0  0  0  0  0  0  0  0  0  0  0
   -4.0241    1.5187    0.0000 N   0  3  0  0  0  0  0  0  0  0  0  0
   -4.7902    1.2125    0.0000 O   0  0  0  0  0  0  0  0  0  0  0  0
   -3.9063    2.3353    0.0000 O   0  5  0  0  0  0  0  0  0  0  0  0
   -2.9931   -1.3399    0.0000 H   0  0  0  0  0  0  0  0  0  0  0  0
   -4.4521   -0.1911    0.0000 H   0  0  0  0  0  0  0  0  0  0  0  0
   -2.4625    2.3360    0.0000 H   0  0  0  0  0  0  0  0  0  0  0  0
   -1.0033    1.1874    0.0000 H   0  0  0  0  0  0  0  0  0  0  0  0
   -0.3714    1.3118    0.0000 H   0  0  0  0  0  0  0  0  0  0  0  0
    0.2538    1.1488    0.0000 H   0  0  0  0  0  0  0  0  0  0  0  0
    1.0945    0.4869    0.0000 H   0  0  0  0  0  0  0  0  0  0  0  0
    0.5962   -1.4796    0.0000 H   0  0  0  0  0  0  0  0  0  0  0  0
    1.5898   -1.0825    0.0000 H   0  0  0  0  0  0  0  0  0  0  0  0
    1.6679    0.9446    0.0000 H   0  0  0  0  0  0  0  0  0  0  0  0
    2.5086    0.2828    0.0000 H   0  0  0  0  0  0  0  0  0  0  0  0
    3.0700    0.6559    0.0000 H   0  0  0  0  0  0  0  0  0  0  0  0
    3.4247   -1.8878    0.0000 H   0  0  0  0  0  0  0  0  0  0  0  0
    4.4183   -1.4907    0.0000 H   0  0  0  0  0  0  0  0  0  0  0  0
    4.8580   -1.9604    0.0000 H   0  0  0  0  0  0  0  0  0  0  0  0
  1  2  2  0  0  0  0
  1  6  1  0  0  0  0
  1  8  1  0  0  0  0
  2  3  1  0  0  0  0
  2 24  1  0  0  0  0
  3  4  2  0  0  0  0
  3 25  1  0  0  0  0
  4  5  1  0  0  0  0
  4 21  1  0  0  0  0
  5  6  2  0  0  0  0
  5 26  1  0  0  0  0
  6 27  1  0  0  0  0
  7  8  1  0  0  0  0
  7  9  1  0  0  0  0
  7 10  2  1  0  0  0
  7 11  1  0  0  0  0
  9 28  1  0  0  0  0
 11 12  1  0  0  0  0
 11 29  1  0  0  0  0
 11 30  1  0  0  0  0
 12 13  1  0  0  0  0
 12 31  1  0  0  0  0
 12 32  1  0  0  0  0
 13 14  1  0  0  0  0
 13 33  1  0  0  0  0
 13 34  1  0  0  0  0
 14 15  1  0  0  0  0
 14 16  2  0  0  0  0
 15 17  1  0  0  0  0
 15 35  1  0  0  0  0
 17 18  1  0  0  0  0
 17 36  1  0  0  0  0
 17 37  1  0  0  0  0
 18 19  1  0  0  0  0
 18 20  2  0  0  0  0
 19 38  1  0  0  0  0
 21 22  2  0  0  0  0
 21 23  1  0  0  0  0
M  CHG  2  21   1  23  -1
M  END
>  <DRUGBANK_ID>
DB08394

>  <COMMON_NAME>
PARA-NITROPHENYLPHOSPHONOBUTANOYL-GLYCINE

$$$$
