
 OpenBabel10282417072D

 35 37  0  0  0  0  0  0  0  0999 V2000
    1.5326   -0.3143    0.0000 N   0  3  0  0  0  0  0  0  0  0  0  0
    0.0998    0.0219    0.0000 C   0  0  0  0  0  0  0  0  0  0  0  0
    0.7431   -0.4897    0.0000 C   0  0  0  0  0  0  0  0  0  0  0  0
    0.7431    1.3669    0.0000 N   0  0  0  0  0  0  0  0  0  0  0  0
    1.8982    0.4312    0.0000 C   0  0  0  0  0  0  0  0  0  0  0  0
    0.0998    0.8553    0.0000 C   0  0  0  0  0  0  0  0  0  0  0  0
    1.5326    1.1916    0.0000 C   0  0  0  0  0  0  0  0  0  0  0  0
    2.0493   -0.9576    0.0000 O   0  5  0  0  0  0  0  0  0  0  0  0
   -0.6165   -0.3874    0.0000 C   0  0  0  0  0  0  0  0  0  0  0  0
    0.3095   -1.1916    0.0000 C   0  0  0  0  0  0  0  0  0  0  0  0
   -0.6165    1.2646    0.0000 C   0  0  0  0  0  0  0  0  0  0  0  0
    2.0493    1.8641    0.0000 N   0  0  0  0  0  0  0  0  0  0  0  0
   -1.3329    0.0073    0.0000 C   0  0  0  0  0  0  0  0  0  0  0  0
   -1.3329    0.8698    0.0000 C   0  0  0  0  0  0  0  0  0  0  0  0
   -2.0493   -0.4312    0.0000 Cl  0  0  0  0  0  0  0  0  0  0  0  0
   -0.5238   -1.1769    0.0000 C   0  0  0  0  0  0  0  0  0  0  0  0
    0.7042   -1.9080    0.0000 C   0  0  0  0  0  0  0  0  0  0  0  0
    1.7276    2.6244    0.0000 C   0  0  0  0  0  0  0  0  0  0  0  0
   -0.9527   -1.8933    0.0000 C   0  0  0  0  0  0  0  0  0  0  0  0
    0.2753   -2.6244    0.0000 C   0  0  0  0  0  0  0  0  0  0  0  0
   -0.5433   -2.6244    0.0000 C   0  0  0  0  0  0  0  0  0  0  0  0
    2.9682    0.4270    0.0000 H   0  0  0  0  0  0  0  0  0  0  0  0
    2.4695    1.3359    0.0000 H   0  0  0  0  0  0  0  0  0  0  0  0
   -0.6085   -1.4194    0.0000 H   0  0  0  0  0  0  0  0  0  0  0  0
   -0.6085    2.2966    0.0000 H   0  0  0  0  0  0  0  0  0  0  0  0
    3.0258    1.7390    0.0000 H   0  0  0  0  0  0  0  0  0  0  0  0
   -2.2215    1.3947    0.0000 H   0  0  0  0  0  0  0  0  0  0  0  0
   -1.0248   -0.2746    0.0000 H   0  0  0  0  0  0  0  0  0  0  0  0
    1.7360   -1.9265    0.0000 H   0  0  0  0  0  0  0  0  0  0  0  0
    2.3725    3.4782    0.0000 H   0  0  0  0  0  0  0  0  0  0  0  0
    0.6657    2.7560    0.0000 H   0  0  0  0  0  0  0  0  0  0  0  0
    1.3106    3.6098    0.0000 H   0  0  0  0  0  0  0  0  0  0  0  0
   -1.9846   -1.8783    0.0000 H   0  0  0  0  0  0  0  0  0  0  0  0
    0.7842   -3.5222    0.0000 H   0  0  0  0  0  0  0  0  0  0  0  0
   -1.0652   -3.5147    0.0000 H   0  0  0  0  0  0  0  0  0  0  0  0
  2  3  1  0  0  0  0
  3  1  2  0  0  0  0
  4  7  2  0  0  0  0
  5  1  1  0  0  0  0
  5 22  1  0  0  0  0
  5 23  1  0  0  0  0
  6  2  2  0  0  0  0
  6  4  1  0  0  0  0
  7  5  1  0  0  0  0
  8  1  1  0  0  0  0
  9  2  1  0  0  0  0
  9 24  1  0  0  0  0
 10  3  1  0  0  0  0
 11  6  1  0  0  0  0
 11 14  2  0  0  0  0
 11 25  1  0  0  0  0
 12  7  1  0  0  0  0
 12 26  1  0  0  0  0
 13  9  2  0  0  0  0
 14 13  1  0  0  0  0
 14 27  1  0  0  0  0
 15 13  1  0  0  0  0
 16 10  1  0  0  0  0
 16 28  1  0  0  0  0
 17 10  2  0  0  0  0
 17 29  1  0  0  0  0
 18 12  1  0  0  0  0
 18 30  1  0  0  0  0
 18 31  1  0  0  0  0
 18 32  1  0  0  0  0
 19 16  2  0  0  0  0
 19 33  1  0  0  0  0
 20 17  1  0  0  0  0
 20 21  2  0  0  0  0
 20 34  1  0  0  0  0
 21 19  1  0  0  0  0
 21 35  1  0  0  0  0
M  CHG  2   1   1   8  -1
M  END
>  <DRUGBANK_ID>
DB00475

>  <SECONDARY_ACCESSION_NUMBERS>
APRD00682

>  <COMMON_NAME>
Chlordiazepoxide

>  <CAS_NUMBER>
58-25-3

>  <UNII>
6RZ6XEZ3CR

>  <SYNONYMS>
7-chloro-2-methylamino-5-phenyl-3H-1,4-benzodiazepin-4-oxide; CDP; Chloradiazepoxide; Chlordiazepoxide; Chlordiazepoxidum; Clopoxide; Clordiazep√≥xido; Methaminodiazepoxide

$$$$
