
 OpenBabel10282417072D

 47 48  0  0  0  0  0  0  0  0999 V2000
    1.5099    2.9980    0.0000 C   0  0  0  0  0  0  0  0  0  0  0  0
    6.0474    5.1414    0.0000 C   0  0  0  0  0  0  0  0  0  0  0  0
    6.0474    3.7125    0.0000 C   0  0  0  0  0  0  0  0  0  0  0  0
    2.3349    2.9980    0.0000 C   0  0  0  0  0  0  0  0  0  0  0  0
    3.5724    1.2375    0.0000 C   0  0  0  0  0  0  0  0  0  0  0  0
    3.5724    6.1875    0.0000 C   0  0  0  0  0  0  0  0  0  0  0  0
    4.2868    1.6500    0.0000 C   0  0  0  0  0  0  0  0  0  0  0  0
    2.8579    1.6500    0.0000 C   0  0  0  0  0  0  0  0  0  0  0  0
    2.8579    5.7750    0.0000 C   0  0  0  0  0  0  0  0  0  0  0  0
    4.2868    5.7750    0.0000 C   0  0  0  0  0  0  0  0  0  0  0  0
    4.2868    2.4750    0.0000 C   0  0  0  0  0  0  0  0  0  0  0  0
    2.8579    2.4750    0.0000 C   0  0  0  0  0  0  0  0  0  0  0  0
    2.8579    4.9500    0.0000 C   0  0  0  0  0  0  0  0  0  0  0  0
    4.2868    4.9500    0.0000 C   0  0  0  0  0  0  0  0  0  0  0  0
    4.3974    3.7125    0.0000 C   0  0  0  0  0  0  0  0  0  0  0  0
    4.8099    4.4270    0.0000 C   0  0  0  0  0  0  0  0  0  0  0  0
    3.5724    2.8875    0.0000 C   0  0  0  0  0  0  0  0  0  0  0  0
    3.5724    4.5375    0.0000 C   0  0  0  0  0  0  0  0  0  0  0  0
    2.7474    3.7125    0.0000 C   0  0  0  0  0  0  0  0  0  0  0  0
    3.5724    3.7125    0.0000 C   0  0  0  0  0  0  0  0  0  0  0  0
    5.6349    4.4270    0.0000 N   0  0  0  0  0  0  0  0  0  0  0  0
    2.3349    4.4270    0.0000 O   0  0  0  0  0  0  0  0  0  0  0  0
    0.9749    3.9246    0.0000 H   0  0  0  0  0  0  0  0  0  0  0  0
    0.9749    2.0714    0.0000 H   0  0  0  0  0  0  0  0  0  0  0  0
    0.4399    2.9980    0.0000 H   0  0  0  0  0  0  0  0  0  0  0  0
    7.1174    5.1414    0.0000 H   0  0  0  0  0  0  0  0  0  0  0  0
    5.5124    6.0681    0.0000 H   0  0  0  0  0  0  0  0  0  0  0  0
    6.5824    6.0680    0.0000 H   0  0  0  0  0  0  0  0  0  0  0  0
    5.5124    2.7859    0.0000 H   0  0  0  0  0  0  0  0  0  0  0  0
    7.1174    3.7125    0.0000 H   0  0  0  0  0  0  0  0  0  0  0  0
    6.5824    2.7858    0.0000 H   0  0  0  0  0  0  0  0  0  0  0  0
    2.8699    2.0714    0.0000 H   0  0  0  0  0  0  0  0  0  0  0  0
    3.4049    2.9980    0.0000 H   0  0  0  0  0  0  0  0  0  0  0  0
    3.5724    0.2055    0.0000 H   0  0  0  0  0  0  0  0  0  0  0  0
    3.5724    7.2195    0.0000 H   0  0  0  0  0  0  0  0  0  0  0  0
    5.1805    1.1340    0.0000 H   0  0  0  0  0  0  0  0  0  0  0  0
    1.9642    1.1340    0.0000 H   0  0  0  0  0  0  0  0  0  0  0  0
    1.9642    6.2910    0.0000 H   0  0  0  0  0  0  0  0  0  0  0  0
    5.1805    6.2910    0.0000 H   0  0  0  0  0  0  0  0  0  0  0  0
    5.1805    2.9910    0.0000 H   0  0  0  0  0  0  0  0  0  0  0  0
    1.9642    2.9910    0.0000 H   0  0  0  0  0  0  0  0  0  0  0  0
    1.9642    4.4340    0.0000 H   0  0  0  0  0  0  0  0  0  0  0  0
    5.1805    4.4340    0.0000 H   0  0  0  0  0  0  0  0  0  0  0  0
    4.9324    2.7859    0.0000 H   0  0  0  0  0  0  0  0  0  0  0  0
    3.8624    2.7859    0.0000 H   0  0  0  0  0  0  0  0  0  0  0  0
    4.2749    5.3536    0.0000 H   0  0  0  0  0  0  0  0  0  0  0  0
    5.3449    5.3536    0.0000 H   0  0  0  0  0  0  0  0  0  0  0  0
  1 23  1  0  0  0  0
  1 24  1  0  0  0  0
  1 25  1  0  0  0  0
  2 26  1  0  0  0  0
  2 27  1  0  0  0  0
  2 28  1  0  0  0  0
  3 29  1  0  0  0  0
  3 30  1  0  0  0  0
  3 31  1  0  0  0  0
  4  1  1  0  0  0  0
  4 32  1  0  0  0  0
  4 33  1  0  0  0  0
  5 34  1  0  0  0  0
  6 35  1  0  0  0  0
  7  5  2  0  0  0  0
  7 36  1  0  0  0  0
  8  5  1  0  0  0  0
  8 37  1  0  0  0  0
  9  6  2  0  0  0  0
  9 38  1  0  0  0  0
 10  6  1  0  0  0  0
 10 39  1  0  0  0  0
 11  7  1  0  0  0  0
 11 40  1  0  0  0  0
 12  8  2  0  0  0  0
 12 41  1  0  0  0  0
 13  9  1  0  0  0  0
 13 42  1  0  0  0  0
 14 10  2  0  0  0  0
 14 43  1  0  0  0  0
 15 44  1  0  0  0  0
 15 45  1  0  0  0  0
 16 15  1  0  0  0  0
 16 46  1  0  0  0  0
 16 47  1  0  0  0  0
 17 11  2  0  0  0  0
 17 12  1  0  0  0  0
 18 13  2  0  0  0  0
 18 14  1  0  0  0  0
 19  4  1  0  0  0  0
 20 15  1  0  0  0  0
 20 17  1  0  0  0  0
 20 18  1  0  0  0  0
 20 19  1  0  0  0  0
 21  2  1  0  0  0  0
 21  3  1  0  0  0  0
 21 16  1  0  0  0  0
 22 19  2  0  0  0  0
M  END
>  <DRUGBANK_ID>
DB11609

>  <COMMON_NAME>
Normethadone

>  <CAS_NUMBER>
467-85-6

>  <UNII>
KR2L2A68XL

>  <SYNONYMS>
6-dimethylamino-4,4-diphenyl-3-hexanone; Desmethylmethadone; Isomethadone I; Normethadone

$$$$
