
 OpenBabel10282417072D

 80 81  0  0  0  0  0  0  0  0999 V2000
   -2.1264    1.0459    0.0000 C   0  0  0  0  0  0  0  0  0  0  0  0
   -0.7121    1.0459    0.0000 C   0  0  0  0  0  0  0  0  0  0  0  0
   -2.1264    1.8612    0.0000 C   0  0  0  0  0  0  0  0  0  0  0  0
   -1.4193    0.6433    0.0000 C   0  0  0  0  0  0  0  0  0  0  0  0
   -0.0049    0.6433    0.0000 N   0  0  0  0  0  0  0  0  0  0  0  0
   -0.7121    1.8612    0.0000 C   0  0  0  0  0  0  0  0  0  0  0  0
   -1.4193    2.2737    0.0000 C   0  0  0  0  0  0  0  0  0  0  0  0
    0.7022    1.0459    0.0000 C   0  0  0  0  0  0  0  0  0  0  0  0
    0.0343   -2.6665    0.0000 C   0  0  0  0  0  0  0  0  0  0  0  0
   -0.6824   -3.0693    0.0000 C   0  0  0  0  0  0  0  0  0  0  0  0
    1.4291   -2.6665    0.0000 C   0  0  2  0  0  0  0  0  0  0  0  0
    2.8727   -2.6763    0.0000 C   0  0  0  0  0  0  0  0  0  0  0  0
    1.4291    0.6433    0.0000 C   0  0  0  0  0  0  0  0  0  0  0  0
   -1.4193   -2.6567    0.0000 C   0  0  1  0  0  0  0  0  0  0  0  0
    2.1459   -3.0791    0.0000 O   0  0  0  0  0  0  0  0  0  0  0  0
   -2.8434    0.6433    0.0000 C   0  0  0  0  0  0  0  0  0  0  0  0
   -1.4291   -1.8415    0.0000 C   0  0  2  0  0  0  0  0  0  0  0  0
   -2.1264   -1.4290    0.0000 C   0  0  2  0  0  0  0  0  0  0  0  0
    2.1362   -0.6040    0.0000 C   0  0  0  0  0  0  0  0  0  0  0  0
   -1.4193   -0.1622    0.0000 O   0  0  0  0  0  0  0  0  0  0  0  0
    1.4291   -0.1915    0.0000 C   0  0  0  0  0  0  0  0  0  0  0  0
    0.7022    1.8612    0.0000 O   0  0  0  0  0  0  0  0  0  0  0  0
   -1.4193    3.0987    0.0000 O   0  0  0  0  0  0  0  0  0  0  0  0
    1.4291   -1.8415    0.0000 C   0  0  2  0  0  0  0  0  0  0  0  0
   -2.1264   -0.6040    0.0000 C   0  0  0  0  0  0  0  0  0  0  0  0
   -2.8434    2.2835    0.0000 O   0  0  0  0  0  0  0  0  0  0  0  0
    2.8727   -1.8415    0.0000 O   0  0  0  0  0  0  0  0  0  0  0  0
    2.1362   -1.4290    0.0000 C   0  0  0  0  0  0  0  0  0  0  0  0
   -2.8434   -0.1915    0.0000 C   0  0  2  0  0  0  0  0  0  0  0  0
    3.5898   -3.0987    0.0000 N   0  0  0  0  0  0  0  0  0  0  0  0
   -0.6824   -1.4290    0.0000 O   0  0  0  0  0  0  0  0  0  0  0  0
   -2.8434   -1.8513    0.0000 O   0  0  0  0  0  0  0  0  0  0  0  0
    0.0441   -1.8415    0.0000 C   0  0  0  0  0  0  0  0  0  0  0  0
    0.7022   -1.4192    0.0000 O   0  0  0  0  0  0  0  0  0  0  0  0
    2.1362    1.0459    0.0000 C   0  0  0  0  0  0  0  0  0  0  0  0
   -2.1459   -3.0595    0.0000 C   0  0  0  0  0  0  0  0  0  0  0  0
   -3.5602   -0.6137    0.0000 C   0  0  0  0  0  0  0  0  0  0  0  0
   -3.5898   -1.4290    0.0000 C   0  0  0  0  0  0  0  0  0  0  0  0
    0.7022   -0.6040    0.0000 C   0  0  0  0  0  0  0  0  0  0  0  0
   -3.5636    1.8708    0.0000 C   0  0  0  0  0  0  0  0  0  0  0  0
   -0.0049   -0.3412    0.0000 H   0  0  0  0  0  0  0  0  0  0  0  0
    0.1828    2.3752    0.0000 H   0  0  0  0  0  0  0  0  0  0  0  0
   -0.6816   -4.1013    0.0000 H   0  0  0  0  0  0  0  0  0  0  0  0
    1.1528   -3.7002    0.0000 H   0  0  0  0  0  0  0  0  0  0  0  0
   -1.4216   -3.7267    0.0000 H   0  0  0  0  0  0  0  0  0  0  0  0
   -3.7668    1.1838    0.0000 H   0  0  0  0  0  0  0  0  0  0  0  0
   -3.7716    0.1111    0.0000 H   0  0  0  0  0  0  0  0  0  0  0  0
   -0.5043   -2.3797    0.0000 H   0  0  0  0  0  0  0  0  0  0  0  0
   -2.1274   -2.4990    0.0000 H   0  0  0  0  0  0  0  0  0  0  0  0
    3.0311   -0.0900    0.0000 H   0  0  0  0  0  0  0  0  0  0  0  0
    0.5342   -0.7055    0.0000 H   0  0  0  0  0  0  0  0  0  0  0  0
    0.5017   -2.3752    0.0000 H   0  0  0  0  0  0  0  0  0  0  0  0
   -1.2002   -0.0683    0.0000 H   0  0  0  0  0  0  0  0  0  0  0  0
   -2.1276    0.4660    0.0000 H   0  0  0  0  0  0  0  0  0  0  0  0
    3.0311   -1.9430    0.0000 H   0  0  0  0  0  0  0  0  0  0  0  0
   -3.7724    0.3395    0.0000 H   0  0  0  0  0  0  0  0  0  0  0  0
    3.5812   -4.0832    0.0000 H   0  0  0  0  0  0  0  0  0  0  0  0
    4.4467   -2.6139    0.0000 H   0  0  0  0  0  0  0  0  0  0  0  0
    0.1483   -1.9298    0.0000 H   0  0  0  0  0  0  0  0  0  0  0  0
    0.9770   -1.3175    0.0000 H   0  0  0  0  0  0  0  0  0  0  0  0
   -0.8761   -1.2955    0.0000 H   0  0  0  0  0  0  0  0  0  0  0  0
    0.0568   -0.7716    0.0000 H   0  0  0  0  0  0  0  0  0  0  0  0
    3.0596    0.5053    0.0000 H   0  0  0  0  0  0  0  0  0  0  0  0
    2.1426    2.1159    0.0000 H   0  0  0  0  0  0  0  0  0  0  0  0
    3.0660    1.5753    0.0000 H   0  0  0  0  0  0  0  0  0  0  0  0
   -3.0631   -2.5084    0.0000 H   0  0  0  0  0  0  0  0  0  0  0  0
   -2.1645   -4.1293    0.0000 H   0  0  0  0  0  0  0  0  0  0  0  0
   -3.0817   -3.5783    0.0000 H   0  0  0  0  0  0  0  0  0  0  0  0
   -4.4915   -0.0868    0.0000 H   0  0  0  0  0  0  0  0  0  0  0  0
   -3.5509   -1.6837    0.0000 H   0  0  0  0  0  0  0  0  0  0  0  0
   -4.4822   -1.1567    0.0000 H   0  0  0  0  0  0  0  0  0  0  0  0
   -3.5991   -0.3590    0.0000 H   0  0  0  0  0  0  0  0  0  0  0  0
   -4.5117   -1.9721    0.0000 H   0  0  0  0  0  0  0  0  0  0  0  0
   -4.5211   -0.9021    0.0000 H   0  0  0  0  0  0  0  0  0  0  0  0
    1.6288   -0.0690    0.0000 H   0  0  0  0  0  0  0  0  0  0  0  0
   -0.2244   -0.0690    0.0000 H   0  0  0  0  0  0  0  0  0  0  0  0
    0.7022    0.4660    0.0000 H   0  0  0  0  0  0  0  0  0  0  0  0
   -4.4885    2.4088    0.0000 H   0  0  0  0  0  0  0  0  0  0  0  0
   -3.5671    0.8008    0.0000 H   0  0  0  0  0  0  0  0  0  0  0  0
   -4.4920    1.3388    0.0000 H   0  0  0  0  0  0  0  0  0  0  0  0
  2  4  1  0  0  0  0
  3  1  2  0  0  0  0
  4  1  1  0  0  0  0
  5  2  1  0  0  0  0
  5 41  1  0  0  0  0
  6  2  2  0  0  0  0
  6 42  1  0  0  0  0
  7  3  1  0  0  0  0
  7  6  1  0  0  0  0
  8  5  1  0  0  0  0
  9 10  2  0  0  0  0
 10 14  1  0  0  0  0
 10 43  1  0  0  0  0
 11  9  1  0  0  0  0
 11 15  1  0  0  0  0
 11 24  1  0  0  0  0
 11 44  1  6  0  0  0
 12 15  1  0  0  0  0
 13  8  1  0  0  0  0
 14 17  1  0  0  0  0
 14 36  1  0  0  0  0
 14 45  1  1  0  0  0
 16  1  1  0  0  0  0
 16 46  1  0  0  0  0
 16 47  1  0  0  0  0
 17 18  1  0  0  0  0
 17 31  1  0  0  0  0
 17 48  1  1  0  0  0
 18 25  1  0  0  0  0
 18 32  1  0  0  0  0
 18 49  1  6  0  0  0
 19 21  1  0  0  0  0
 19 50  1  0  0  0  0
 20  4  2  0  0  0  0
 21 13  2  0  0  0  0
 21 51  1  0  0  0  0
 22  8  2  0  0  0  0
 23  7  2  0  0  0  0
 24 28  1  0  0  0  0
 24 34  1  0  0  0  0
 24 52  1  6  0  0  0
 25 29  1  0  0  0  0
 25 53  1  0  0  0  0
 25 54  1  0  0  0  0
 26  3  1  0  0  0  0
 26 40  1  0  0  0  0
 27 12  2  0  0  0  0
 28 19  2  0  0  0  0
 28 55  1  0  0  0  0
 29 16  1  0  0  0  0
 29 37  1  0  0  0  0
 29 56  1  1  0  0  0
 30 12  1  0  0  0  0
 30 57  1  0  0  0  0
 30 58  1  0  0  0  0
 31 59  1  0  0  0  0
 33  9  1  0  0  0  0
 33 60  1  0  0  0  0
 33 61  1  0  0  0  0
 33 62  1  0  0  0  0
 35 13  1  0  0  0  0
 35 63  1  0  0  0  0
 35 64  1  0  0  0  0
 35 65  1  0  0  0  0
 36 66  1  0  0  0  0
 36 67  1  0  0  0  0
 36 68  1  0  0  0  0
 37 69  1  0  0  0  0
 37 70  1  0  0  0  0
 37 71  1  0  0  0  0
 38 32  1  0  0  0  0
 38 72  1  0  0  0  0
 38 73  1  0  0  0  0
 38 74  1  0  0  0  0
 39 34  1  0  0  0  0
 39 75  1  0  0  0  0
 39 76  1  0  0  0  0
 39 77  1  0  0  0  0
 40 78  1  0  0  0  0
 40 79  1  0  0  0  0
 40 80  1  0  0  0  0
M  END
>  <DRUGBANK_ID>
DB02424

>  <SECONDARY_ACCESSION_NUMBERS>
EXPT01571

>  <COMMON_NAME>
Geldanamycin

>  <CAS_NUMBER>
30562-34-6

>  <UNII>
Z3K3VJ16KU

$$$$
