
 OpenBabel10282417072D

 41 42  0  0  0  0  0  0  0  0999 V2000
    2.8578    2.4750    0.0000 C   0  0  0  0  0  0  0  0  0  0  0  0
    1.4289    0.0000    0.0000 C   0  0  0  0  0  0  0  0  0  0  0  0
    1.4289    0.8250    0.0000 C   0  0  0  0  0  0  0  0  0  0  0  0
    4.2868    0.0000    0.0000 C   0  0  0  0  0  0  0  0  0  0  0  0
    4.2868    0.8250    0.0000 C   0  0  0  0  0  0  0  0  0  0  0  0
    2.1434   -2.8875    0.0000 C   0  0  0  0  0  0  0  0  0  0  0  0
    1.4289   -1.6500    0.0000 C   0  0  0  0  0  0  0  0  0  0  0  0
    2.8578   -2.4750    0.0000 C   0  0  0  0  0  0  0  0  0  0  0  0
    2.1434   -1.2375    0.0000 C   0  0  0  0  0  0  0  0  0  0  0  0
    3.5723   -1.2375    0.0000 C   0  0  0  0  0  0  0  0  0  0  0  0
    3.5723   -0.4125    0.0000 C   0  0  0  0  0  0  0  0  0  0  0  0
    3.5723    1.2375    0.0000 C   0  0  0  0  0  0  0  0  0  0  0  0
    2.8578    0.0000    0.0000 C   0  0  0  0  0  0  0  0  0  0  0  0
    2.8578    0.8250    0.0000 C   0  0  0  0  0  0  0  0  0  0  0  0
    1.4289   -2.4750    0.0000 N   0  0  0  0  0  0  0  0  0  0  0  0
    2.8578   -1.6500    0.0000 N   0  0  0  0  0  0  0  0  0  0  0  0
    3.5723    2.0625    0.0000 O   0  0  0  0  0  0  0  0  0  0  0  0
    2.1434   -0.4125    0.0000 O   0  0  0  0  0  0  0  0  0  0  0  0
    2.1434    1.2375    0.0000 O   0  0  0  0  0  0  0  0  0  0  0  0
    2.8578    3.5450    0.0000 H   0  0  0  0  0  0  0  0  0  0  0  0
    1.9312    1.9400    0.0000 H   0  0  0  0  0  0  0  0  0  0  0  0
    1.9311    3.0100    0.0000 H   0  0  0  0  0  0  0  0  0  0  0  0
    1.4289    1.0700    0.0000 H   0  0  0  0  0  0  0  0  0  0  0  0
    0.5023   -0.5350    0.0000 H   0  0  0  0  0  0  0  0  0  0  0  0
    0.5022    0.5350    0.0000 H   0  0  0  0  0  0  0  0  0  0  0  0
    0.5023    1.3600    0.0000 H   0  0  0  0  0  0  0  0  0  0  0  0
    1.4289   -0.2450    0.0000 H   0  0  0  0  0  0  0  0  0  0  0  0
    0.5022    0.2900    0.0000 H   0  0  0  0  0  0  0  0  0  0  0  0
    5.1805   -0.5160    0.0000 H   0  0  0  0  0  0  0  0  0  0  0  0
    5.1805    1.3410    0.0000 H   0  0  0  0  0  0  0  0  0  0  0  0
    2.1434   -3.9575    0.0000 H   0  0  0  0  0  0  0  0  0  0  0  0
    1.2168   -3.4225    0.0000 H   0  0  0  0  0  0  0  0  0  0  0  0
    0.5023   -1.1150    0.0000 H   0  0  0  0  0  0  0  0  0  0  0  0
    0.5023   -2.1850    0.0000 H   0  0  0  0  0  0  0  0  0  0  0  0
    3.7845   -3.0100    0.0000 H   0  0  0  0  0  0  0  0  0  0  0  0
    3.7844   -1.9400    0.0000 H   0  0  0  0  0  0  0  0  0  0  0  0
    2.1434   -0.1675    0.0000 H   0  0  0  0  0  0  0  0  0  0  0  0
    3.0701   -0.7025    0.0000 H   0  0  0  0  0  0  0  0  0  0  0  0
    4.4989   -1.7725    0.0000 H   0  0  0  0  0  0  0  0  0  0  0  0
    3.5723   -2.3075    0.0000 H   0  0  0  0  0  0  0  0  0  0  0  0
    0.5456   -2.9850    0.0000 H   0  0  0  0  0  0  0  0  0  0  0  0
  1 20  1  0  0  0  0
  1 21  1  0  0  0  0
  1 22  1  0  0  0  0
  2 23  1  0  0  0  0
  2 24  1  0  0  0  0
  2 25  1  0  0  0  0
  3 26  1  0  0  0  0
  3 27  1  0  0  0  0
  3 28  1  0  0  0  0
  4 29  1  0  0  0  0
  5  4  2  0  0  0  0
  5 30  1  0  0  0  0
  6 31  1  0  0  0  0
  6 32  1  0  0  0  0
  7 33  1  0  0  0  0
  7 34  1  0  0  0  0
  8  6  1  0  0  0  0
  8 35  1  0  0  0  0
  8 36  1  0  0  0  0
  9  7  1  0  0  0  0
  9 37  1  0  0  0  0
  9 38  1  0  0  0  0
 10 39  1  0  0  0  0
 10 40  1  0  0  0  0
 11  4  1  0  0  0  0
 11 10  1  0  0  0  0
 12  5  1  0  0  0  0
 13 11  2  0  0  0  0
 14 12  2  0  0  0  0
 14 13  1  0  0  0  0
 15  6  1  0  0  0  0
 15  7  1  0  0  0  0
 15 41  1  0  0  0  0
 16  8  1  0  0  0  0
 16  9  1  0  0  0  0
 16 10  1  0  0  0  0
 17  1  1  0  0  0  0
 17 12  1  0  0  0  0
 18  2  1  0  0  0  0
 18 13  1  0  0  0  0
 19  3  1  0  0  0  0
 19 14  1  0  0  0  0
M  END
>  <DRUGBANK_ID>
DB09069

>  <COMMON_NAME>
Trimetazidine

>  <CAS_NUMBER>
5011-34-7

>  <UNII>
N9A0A0R9S8

>  <SYNONYMS>
1-[2,3,4-trimethoxybenzyl] piperazine dihydrochloride; Trimetazidina; Trimetazidine

$$$$
