SLE
 OpenBabel10282417072D

 24 23  0  0  0  0  0  0  0  0999 V2000
   -1.3810    0.4744    0.0000 C   0  0  0  0  0  0  0  0  0  0  0  0
   -2.0955    0.0619    0.0000 O   0  0  0  0  0  0  0  0  0  0  0  0
   -1.3810    1.2994    0.0000 O   0  0  0  0  0  0  0  0  0  0  0  0
   -0.6666    0.0619    0.0000 C   0  0  1  0  0  0  0  0  0  0  0  0
   -0.6666   -0.7631    0.0000 C   0  0  0  0  0  0  0  0  0  0  0  0
   -1.3810   -1.1756    0.0000 S   0  0  0  0  0  0  0  0  0  0  0  0
    0.0479    0.4744    0.0000 C   0  0  0  0  0  0  0  0  0  0  0  0
    0.7624    0.0619    0.0000 C   0  0  0  0  0  0  0  0  0  0  0  0
    1.4769    0.4744    0.0000 C   0  0  0  0  0  0  0  0  0  0  0  0
    0.7624   -0.7631    0.0000 C   0  0  0  0  0  0  0  0  0  0  0  0
   -1.1723   -0.2301    0.0000 H   0  0  0  0  0  0  0  0  0  0  0  0
   -0.5695    1.7679    0.0000 H   0  0  0  0  0  0  0  0  0  0  0  0
    0.2601   -1.2981    0.0000 H   0  0  0  0  0  0  0  0  0  0  0  0
   -0.6666   -1.8331    0.0000 H   0  0  0  0  0  0  0  0  0  0  0  0
   -2.5588   -0.4957    0.0000 H   0  0  0  0  0  0  0  0  0  0  0  0
    0.0479    1.5444    0.0000 H   0  0  0  0  0  0  0  0  0  0  0  0
    0.9745    1.0094    0.0000 H   0  0  0  0  0  0  0  0  0  0  0  0
    1.6890   -0.4731    0.0000 H   0  0  0  0  0  0  0  0  0  0  0  0
    2.4035   -0.0606    0.0000 H   0  0  0  0  0  0  0  0  0  0  0  0
    1.4769    1.5444    0.0000 H   0  0  0  0  0  0  0  0  0  0  0  0
    2.4036    1.0094    0.0000 H   0  0  0  0  0  0  0  0  0  0  0  0
   -0.1642   -1.2981    0.0000 H   0  0  0  0  0  0  0  0  0  0  0  0
    1.6890   -1.2981    0.0000 H   0  0  0  0  0  0  0  0  0  0  0  0
    0.7624   -1.8331    0.0000 H   0  0  0  0  0  0  0  0  0  0  0  0
  1  2  2  0  0  0  0
  1  3  1  0  0  0  0
  1  4  1  0  0  0  0
  3 12  1  0  0  0  0
  4  5  1  0  0  0  0
  4  7  1  0  0  0  0
  4 11  1  1  0  0  0
  5  6  1  0  0  0  0
  5 13  1  0  0  0  0
  5 14  1  0  0  0  0
  6 15  1  0  0  0  0
  7  8  1  0  0  0  0
  7 16  1  0  0  0  0
  7 17  1  0  0  0  0
  8  9  1  0  0  0  0
  8 10  1  0  0  0  0
  8 18  1  0  0  0  0
  9 19  1  0  0  0  0
  9 20  1  0  0  0  0
  9 21  1  0  0  0  0
 10 22  1  0  0  0  0
 10 23  1  0  0  0  0
 10 24  1  0  0  0  0
M  END
>  <DRUGBANK_ID>
DB02996

>  <SECONDARY_ACCESSION_NUMBERS>
EXPT02916

>  <COMMON_NAME>
2-(Thiomethylene)-4-Methylpentanoic Acid

$$$$
