
 OpenBabel10282417072D

 25 24  0  0  0  0  0  0  0  0999 V2000
   -1.0312   -0.3572    0.0000 N   0  0  0  0  0  0  0  0  0  0  0  0
   -1.4437   -1.0717    0.0000 N   0  0  0  0  0  0  0  0  0  0  0  0
    1.0312    0.3572    0.0000 N   0  0  0  0  0  0  0  0  0  0  0  0
    1.4437    1.0716    0.0000 N   0  0  0  0  0  0  0  0  0  0  0  0
   -2.6812   -1.7861    0.0000 N   0  0  0  0  0  0  0  0  0  0  0  0
   -2.6812   -0.3572    0.0000 N   0  0  0  0  0  0  0  0  0  0  0  0
    2.6812    1.7861    0.0000 N   0  0  0  0  0  0  0  0  0  0  0  0
    2.6812    0.3572    0.0000 N   0  0  0  0  0  0  0  0  0  0  0  0
   -0.2062   -0.3572    0.0000 C   0  0  0  0  0  0  0  0  0  0  0  0
    0.2062    0.3572    0.0000 C   0  0  0  0  0  0  0  0  0  0  0  0
   -2.2687   -1.0717    0.0000 C   0  0  0  0  0  0  0  0  0  0  0  0
    2.2687    1.0716    0.0000 C   0  0  0  0  0  0  0  0  0  0  0  0
    0.2062   -1.0717    0.0000 C   0  0  0  0  0  0  0  0  0  0  0  0
   -3.6657   -1.7861    0.0000 H   0  0  0  0  0  0  0  0  0  0  0  0
   -2.1890   -2.6387    0.0000 H   0  0  0  0  0  0  0  0  0  0  0  0
   -2.1889    0.4954    0.0000 H   0  0  0  0  0  0  0  0  0  0  0  0
   -3.6657   -0.3572    0.0000 H   0  0  0  0  0  0  0  0  0  0  0  0
    3.6657    1.7861    0.0000 H   0  0  0  0  0  0  0  0  0  0  0  0
    2.1889    2.6387    0.0000 H   0  0  0  0  0  0  0  0  0  0  0  0
    2.1890   -0.4954    0.0000 H   0  0  0  0  0  0  0  0  0  0  0  0
    3.6657    0.3572    0.0000 H   0  0  0  0  0  0  0  0  0  0  0  0
   -0.3098    1.2509    0.0000 H   0  0  0  0  0  0  0  0  0  0  0  0
   -0.3289   -1.9983    0.0000 H   0  0  0  0  0  0  0  0  0  0  0  0
    1.2762   -1.0718    0.0000 H   0  0  0  0  0  0  0  0  0  0  0  0
    0.7411   -1.9984    0.0000 H   0  0  0  0  0  0  0  0  0  0  0  0
  1  2  1  0  0  0  0
  1  9  2  0  0  0  0
  2 11  2  0  0  0  0
  3  4  1  0  0  0  0
  3 10  2  0  0  0  0
  4 12  2  0  0  0  0
  5 11  1  0  0  0  0
  5 14  1  0  0  0  0
  5 15  1  0  0  0  0
  6 16  1  0  0  0  0
  6 17  1  0  0  0  0
  7 12  1  0  0  0  0
  7 18  1  0  0  0  0
  7 19  1  0  0  0  0
  8 20  1  0  0  0  0
  8 21  1  0  0  0  0
  9 10  1  0  0  0  0
  9 13  1  0  0  0  0
 10 22  1  0  0  0  0
 11  6  1  0  0  0  0
 12  8  1  0  0  0  0
 13 23  1  0  0  0  0
 13 24  1  0  0  0  0
 13 25  1  0  0  0  0
M  END
>  <DRUGBANK_ID>
DB12967

>  <COMMON_NAME>
Mitoguazone

>  <CAS_NUMBER>
459-86-9

>  <UNII>
OD5Q0L447W

>  <SYNONYMS>
Me-GAG; Methyl-G; Mitoguazona; Mitoguazone; Mitoguazonum

$$$$
