INK
 OpenBabel10282417072D

 32 32  0  0  0  0  0  0  0  0999 V2000
   -2.1279    0.0737    0.0000 P   0  0  2  0  0  0  0  0  0  0  0  0
   -2.8423   -0.3388    0.0000 Cl  0  0  0  0  0  0  0  0  0  0  0  0
   -1.7153   -0.6408    0.0000 C   0  0  0  0  0  0  0  0  0  0  0  0
   -2.5404    0.7882    0.0000 O   0  0  0  0  0  0  0  0  0  0  0  0
   -1.4133    0.4862    0.0000 O   0  0  0  0  0  0  0  0  0  0  0  0
   -0.6988    0.0737    0.0000 C   0  0  2  0  0  0  0  0  0  0  0  0
   -0.6988   -0.7514    0.0000 C   0  0  0  0  0  0  0  0  0  0  0  0
    0.0157   -1.1639    0.0000 C   0  0  0  0  0  0  0  0  0  0  0  0
    0.0157    0.4862    0.0000 C   0  0  0  0  0  0  0  0  0  0  0  0
    0.7303    0.0737    0.0000 O   0  0  0  0  0  0  0  0  0  0  0  0
    2.1593    1.7238    0.0000 C   0  0  0  0  0  0  0  0  0  0  0  0
    2.8738    1.3113    0.0000 C   0  0  0  0  0  0  0  0  0  0  0  0
    2.8738    0.4862    0.0000 C   0  0  0  0  0  0  0  0  0  0  0  0
    2.1593    0.0737    0.0000 C   0  0  0  0  0  0  0  0  0  0  0  0
    1.4448    0.4862    0.0000 C   0  0  0  0  0  0  0  0  0  0  0  0
    1.4448    1.3113    0.0000 C   0  0  0  0  0  0  0  0  0  0  0  0
   -1.0742   -0.3737    0.0000 H   0  0  0  0  0  0  0  0  0  0  0  0
   -2.2502   -1.5675    0.0000 H   0  0  0  0  0  0  0  0  0  0  0  0
   -0.6453   -0.6407    0.0000 H   0  0  0  0  0  0  0  0  0  0  0  0
   -1.1802   -1.5674    0.0000 H   0  0  0  0  0  0  0  0  0  0  0  0
   -1.6254   -1.2864    0.0000 H   0  0  0  0  0  0  0  0  0  0  0  0
   -0.6988   -1.8214    0.0000 H   0  0  0  0  0  0  0  0  0  0  0  0
    0.0157   -2.2339    0.0000 H   0  0  0  0  0  0  0  0  0  0  0  0
    0.9423   -0.6289    0.0000 H   0  0  0  0  0  0  0  0  0  0  0  0
    0.9424   -1.6989    0.0000 H   0  0  0  0  0  0  0  0  0  0  0  0
    0.0157    1.5562    0.0000 H   0  0  0  0  0  0  0  0  0  0  0  0
    0.9423    1.0213    0.0000 H   0  0  0  0  0  0  0  0  0  0  0  0
    2.1593    2.7558    0.0000 H   0  0  0  0  0  0  0  0  0  0  0  0
    3.7675    1.8273    0.0000 H   0  0  0  0  0  0  0  0  0  0  0  0
    3.7675   -0.0298    0.0000 H   0  0  0  0  0  0  0  0  0  0  0  0
    2.1593   -0.9583    0.0000 H   0  0  0  0  0  0  0  0  0  0  0  0
    0.5511    1.8273    0.0000 H   0  0  0  0  0  0  0  0  0  0  0  0
  1  2  1  6  0  0  0
  1  3  1  0  0  0  0
  1  4  2  0  0  0  0
  1  5  1  0  0  0  0
  3 18  1  0  0  0  0
  3 19  1  0  0  0  0
  3 20  1  0  0  0  0
  6  5  1  0  0  0  0
  6  7  1  0  0  0  0
  6  9  1  0  0  0  0
  6 17  1  6  0  0  0
  7  8  1  0  0  0  0
  7 21  1  0  0  0  0
  7 22  1  0  0  0  0
  8 23  1  0  0  0  0
  8 24  1  0  0  0  0
  8 25  1  0  0  0  0
  9 10  1  0  0  0  0
  9 26  1  0  0  0  0
  9 27  1  0  0  0  0
 10 15  1  0  0  0  0
 11 12  2  0  0  0  0
 11 16  1  0  0  0  0
 11 28  1  0  0  0  0
 12 13  1  0  0  0  0
 12 29  1  0  0  0  0
 13 14  2  0  0  0  0
 13 30  1  0  0  0  0
 14 15  1  0  0  0  0
 14 31  1  0  0  0  0
 15 16  2  0  0  0  0
 16 32  1  0  0  0  0
M  END
>  <DRUGBANK_ID>
DB07990

>  <COMMON_NAME>
(RP,SP)-O-(2R)-(1-PHENOXYBUT-2-YL)-METHYLPHOSPHONIC ACID CHLORIDE

$$$$
