534
 OpenBabel10282417072D

 22 21  0  0  1  0  0  0  0  0999 V2000
    3.1019    0.8631    0.0000 Hg  0  0  0  0  0  0  0  0  0  0  0  0
    2.7440    1.6063    0.0000 Cl  0  0  0  0  0  0  0  0  0  0  0  0
    5.2456    0.4017    0.0000 O   0  0  0  0  0  0  0  0  0  0  0  0
    2.5876    0.2181    0.0000 O   0  0  0  0  0  0  0  0  0  0  0  0
    3.5143   -0.9442    0.0000 N   0  0  0  0  0  0  0  0  0  0  0  0
    2.1260   -1.1006    0.0000 N   0  0  0  0  0  0  0  0  0  0  0  0
    4.4412    0.2181    0.0000 C   0  0  3  0  0  0  0  0  0  0  0  0
    4.2577   -0.5863    0.0000 C   0  0  0  0  0  0  0  0  0  0  0  0
    3.9268    0.8631    0.0000 C   0  0  0  0  0  0  0  0  0  0  0  0
    2.7711   -0.5863    0.0000 C   0  0  0  0  0  0  0  0  0  0  0  0
    5.4887    1.1899    0.0000 C   0  0  0  0  0  0  0  0  0  0  0  0
    3.5142   -1.9287    0.0000 H   0  0  0  0  0  0  0  0  0  0  0  0
    1.2096   -0.7408    0.0000 H   0  0  0  0  0  0  0  0  0  0  0  0
    2.2726   -2.0741    0.0000 H   0  0  0  0  0  0  0  0  0  0  0  0
    5.1978   -0.5385    0.0000 H   0  0  0  0  0  0  0  0  0  0  0  0
    5.0943   -1.2534    0.0000 H   0  0  0  0  0  0  0  0  0  0  0  0
    5.2676   -0.2328    0.0000 H   0  0  0  0  0  0  0  0  0  0  0  0
    4.3910    1.8271    0.0000 H   0  0  0  0  0  0  0  0  0  0  0  0
    4.9901    0.9829    0.0000 H   0  0  0  0  0  0  0  0  0  0  0  0
    6.5319    1.4280    0.0000 H   0  0  0  0  0  0  0  0  0  0  0  0
    4.7609    1.9742    0.0000 H   0  0  0  0  0  0  0  0  0  0  0  0
    5.8041    2.2124    0.0000 H   0  0  0  0  0  0  0  0  0  0  0  0
  1  2  1  0  0  0  0
  1  9  1  0  0  0  0
  3  7  1  0  0  0  0
  3 11  1  0  0  0  0
  4 10  2  0  0  0  0
  5  8  1  0  0  0  0
  5 10  1  0  0  0  0
  5 12  1  0  0  0  0
  6 10  1  0  0  0  0
  6 13  1  0  0  0  0
  6 14  1  0  0  0  0
  7  8  1  0  0  0  0
  7  9  1  0  0  0  0
  7 15  1  0  0  0  0
  8 16  1  0  0  0  0
  8 17  1  0  0  0  0
  9 18  1  0  0  0  0
  9 19  1  0  0  0  0
 11 20  1  0  0  0  0
 11 21  1  0  0  0  0
 11 22  1  0  0  0  0
M  END
>  <DRUGBANK_ID>
DB00534

>  <SECONDARY_ACCESSION_NUMBERS>
APRD00864

>  <COMMON_NAME>
Chlormerodrin

>  <CAS_NUMBER>
62-37-3

>  <UNII>
99T5TWO621

>  <SYNONYMS>
{3-[(aminocarbonyl)amino]-2-methoxypropyl}chloromercury; 1-[3-(chloromercuri)-2-methoxypropyl]urea; Chlormerodrin; Chlormerodrina; Chlormerodrine; Chlormerodrinum

$$$$
