1FR
 OpenBabel10282417072D

 51 54  0  0  0  0  0  0  0  0999 V2000
    2.9901    1.0492    0.0000 C   0  0  0  0  0  0  0  0  0  0  0  0
    3.7046    0.6367    0.0000 C   0  0  0  0  0  0  0  0  0  0  0  0
    3.7046   -0.1883    0.0000 C   0  0  0  0  0  0  0  0  0  0  0  0
    2.2757   -0.1883    0.0000 C   0  0  0  0  0  0  0  0  0  0  0  0
    2.2757    0.6367    0.0000 C   0  0  0  0  0  0  0  0  0  0  0  0
    1.5612    1.0492    0.0000 C   0  0  1  0  0  0  0  0  0  0  0  0
   -1.4871   -2.0012    0.0000 C   0  0  0  0  0  0  0  0  0  0  0  0
   -1.7842   -0.6035    0.0000 C   0  0  0  0  0  0  0  0  0  0  0  0
   -3.3982   -0.9465    0.0000 C   0  0  0  0  0  0  0  0  0  0  0  0
   -2.8461   -1.5596    0.0000 C   0  0  0  0  0  0  0  0  0  0  0  0
   -2.0392   -1.3881    0.0000 C   0  0  0  0  0  0  0  0  0  0  0  0
   -3.1432   -0.1619    0.0000 C   0  0  0  0  0  0  0  0  0  0  0  0
   -2.3363    0.0096    0.0000 C   0  0  0  0  0  0  0  0  0  0  0  0
   -2.0813    0.7943    0.0000 C   0  0  0  0  0  0  0  0  0  0  0  0
   -1.2967    1.0492    0.0000 C   0  0  0  0  0  0  0  0  0  0  0  0
   -1.2967    1.8742    0.0000 C   0  0  0  0  0  0  0  0  0  0  0  0
   -0.5822    2.2867    0.0000 C   0  0  0  0  0  0  0  0  0  0  0  0
   -0.5822    0.6367    0.0000 C   0  0  0  0  0  0  0  0  0  0  0  0
    0.1322    1.0492    0.0000 C   0  0  0  0  0  0  0  0  0  0  0  0
   -4.2051   -1.1180    0.0000 Cl  0  0  0  0  0  0  0  0  0  0  0  0
   -0.6802   -1.8296    0.0000 C   0  0  0  0  0  0  0  0  0  0  0  0
   -0.1281   -2.4427    0.0000 C   0  0  0  0  0  0  0  0  0  0  0  0
   -0.3831   -3.2274    0.0000 O   0  0  0  0  0  0  0  0  0  0  0  0
   -2.0813    2.1291    0.0000 O   0  0  0  0  0  0  0  0  0  0  0  0
   -2.5662    1.4617    0.0000 N   0  0  0  0  0  0  0  0  0  0  0  0
    0.1322    1.8742    0.0000 N   0  0  0  0  0  0  0  0  0  0  0  0
    0.8467    0.6367    0.0000 N   0  0  0  0  0  0  0  0  0  0  0  0
    1.5612    1.8742    0.0000 C   0  0  0  0  0  0  0  0  0  0  0  0
    2.9901   -0.6008    0.0000 C   0  0  0  0  0  0  0  0  0  0  0  0
    1.5612    0.4653    0.0000 H   0  0  0  0  0  0  0  0  0  0  0  0
    2.9901    2.0812    0.0000 H   0  0  0  0  0  0  0  0  0  0  0  0
    4.5983    1.1527    0.0000 H   0  0  0  0  0  0  0  0  0  0  0  0
    4.5983   -0.7043    0.0000 H   0  0  0  0  0  0  0  0  0  0  0  0
    1.3820   -0.7043    0.0000 H   0  0  0  0  0  0  0  0  0  0  0  0
   -1.8177   -3.0189    0.0000 H   0  0  0  0  0  0  0  0  0  0  0  0
   -0.7711   -2.7963    0.0000 H   0  0  0  0  0  0  0  0  0  0  0  0
   -0.7747   -0.3889    0.0000 H   0  0  0  0  0  0  0  0  0  0  0  0
   -3.1650   -2.5411    0.0000 H   0  0  0  0  0  0  0  0  0  0  0  0
   -3.8337    0.6051    0.0000 H   0  0  0  0  0  0  0  0  0  0  0  0
   -0.5822    3.3187    0.0000 H   0  0  0  0  0  0  0  0  0  0  0  0
   -0.5822   -0.3953    0.0000 H   0  0  0  0  0  0  0  0  0  0  0  0
   -0.3496   -0.8119    0.0000 H   0  0  0  0  0  0  0  0  0  0  0  0
    0.3664   -1.6071    0.0000 H   0  0  0  0  0  0  0  0  0  0  0  0
    0.9185   -2.2202    0.0000 H   0  0  0  0  0  0  0  0  0  0  0  0
    0.5879   -3.2379    0.0000 H   0  0  0  0  0  0  0  0  0  0  0  0
   -1.3319   -3.4290    0.0000 H   0  0  0  0  0  0  0  0  0  0  0  0
    0.8467   -0.3478    0.0000 H   0  0  0  0  0  0  0  0  0  0  0  0
    2.4878    2.4092    0.0000 H   0  0  0  0  0  0  0  0  0  0  0  0
    0.6346    2.4092    0.0000 H   0  0  0  0  0  0  0  0  0  0  0  0
    1.5612    2.9442    0.0000 H   0  0  0  0  0  0  0  0  0  0  0  0
    2.9901   -1.6328    0.0000 H   0  0  0  0  0  0  0  0  0  0  0  0
  1  2  2  0  0  0  0
  1  5  1  0  0  0  0
  1 31  1  0  0  0  0
  2  3  1  0  0  0  0
  2 32  1  0  0  0  0
  3 29  2  0  0  0  0
  3 33  1  0  0  0  0
  4  5  2  0  0  0  0
  4 29  1  0  0  0  0
  4 34  1  0  0  0  0
  5  6  1  0  0  0  0
  6 27  1  0  0  0  0
  6 28  1  0  0  0  0
  6 30  1  6  0  0  0
  7 11  1  0  0  0  0
  7 21  1  0  0  0  0
  7 35  1  0  0  0  0
  7 36  1  0  0  0  0
  8 11  2  0  0  0  0
  8 13  1  0  0  0  0
  8 37  1  0  0  0  0
  9 10  2  0  0  0  0
  9 12  1  0  0  0  0
  9 20  1  0  0  0  0
 10 11  1  0  0  0  0
 10 38  1  0  0  0  0
 12 13  2  0  0  0  0
 12 39  1  0  0  0  0
 13 14  1  0  0  0  0
 14 15  1  0  0  0  0
 14 25  2  0  0  0  0
 15 16  2  0  0  0  0
 15 18  1  0  0  0  0
 16 17  1  0  0  0  0
 16 24  1  0  0  0  0
 17 26  2  0  0  0  0
 17 40  1  0  0  0  0
 18 19  2  0  0  0  0
 18 41  1  0  0  0  0
 19 26  1  0  0  0  0
 19 27  1  0  0  0  0
 21 22  1  0  0  0  0
 21 42  1  0  0  0  0
 21 43  1  0  0  0  0
 22 23  1  0  0  0  0
 22 44  1  0  0  0  0
 22 45  1  0  0  0  0
 23 46  1  0  0  0  0
 24 25  1  0  0  0  0
 27 47  1  0  0  0  0
 28 48  1  0  0  0  0
 28 49  1  0  0  0  0
 28 50  1  0  0  0  0
 29 51  1  0  0  0  0
M  END
>  <DRUGBANK_ID>
DB06897

>  <COMMON_NAME>
3-[3-chloro-5-(5-{[(1S)-1-phenylethyl]amino}isoxazolo[5,4-c]pyridin-3-yl)phenyl]propan-1-ol

$$$$
