
 OpenBabel10282417072D

143142  0  0  1  0  0  0  0  0999 V2000
  -12.9789   -7.1447    0.0000 C   0  0  0  0  0  0  0  0  0  0  0  0
   14.8854   -6.7322    0.0000 C   0  0  0  0  0  0  0  0  0  0  0  0
    3.7855  -11.0487    0.0000 C   0  0  0  0  0  0  0  0  0  0  0  0
    5.2144  -10.2237    0.0000 C   0  0  0  0  0  0  0  0  0  0  0  0
    4.9124  -11.3506    0.0000 C   0  0  0  0  0  0  0  0  0  0  0  0
  -12.2645   -6.7322    0.0000 C   0  0  0  0  0  0  0  0  0  0  0  0
   14.1710   -7.1447    0.0000 C   0  0  0  0  0  0  0  0  0  0  0  0
  -11.5500   -7.1447    0.0000 C   0  0  0  0  0  0  0  0  0  0  0  0
   13.4565   -6.7322    0.0000 C   0  0  0  0  0  0  0  0  0  0  0  0
  -10.8355   -6.7322    0.0000 C   0  0  0  0  0  0  0  0  0  0  0  0
   12.7420   -7.1447    0.0000 C   0  0  0  0  0  0  0  0  0  0  0  0
  -10.1211   -7.1447    0.0000 C   0  0  0  0  0  0  0  0  0  0  0  0
   12.0275   -6.7322    0.0000 C   0  0  0  0  0  0  0  0  0  0  0  0
   -9.4066   -6.7322    0.0000 C   0  0  0  0  0  0  0  0  0  0  0  0
   11.3131   -7.1447    0.0000 C   0  0  0  0  0  0  0  0  0  0  0  0
   -8.6921   -7.1447    0.0000 C   0  0  0  0  0  0  0  0  0  0  0  0
   10.5986   -6.7322    0.0000 C   0  0  0  0  0  0  0  0  0  0  0  0
   -7.9776   -6.7322    0.0000 C   0  0  0  0  0  0  0  0  0  0  0  0
    9.8841   -7.1447    0.0000 C   0  0  0  0  0  0  0  0  0  0  0  0
   -7.2632   -7.1447    0.0000 C   0  0  0  0  0  0  0  0  0  0  0  0
    9.1697   -6.7322    0.0000 C   0  0  0  0  0  0  0  0  0  0  0  0
   -6.5487   -6.7322    0.0000 C   0  0  0  0  0  0  0  0  0  0  0  0
    8.4552   -7.1447    0.0000 C   0  0  0  0  0  0  0  0  0  0  0  0
   -5.8342   -7.1447    0.0000 C   0  0  0  0  0  0  0  0  0  0  0  0
    7.7407   -6.7322    0.0000 C   0  0  0  0  0  0  0  0  0  0  0  0
   -5.1198   -6.7322    0.0000 C   0  0  0  0  0  0  0  0  0  0  0  0
    7.0262   -7.1447    0.0000 C   0  0  0  0  0  0  0  0  0  0  0  0
   -4.4053   -7.1447    0.0000 C   0  0  0  0  0  0  0  0  0  0  0  0
    6.3118   -6.7322    0.0000 C   0  0  0  0  0  0  0  0  0  0  0  0
   -3.6908   -6.7322    0.0000 C   0  0  0  0  0  0  0  0  0  0  0  0
    5.5973   -7.1447    0.0000 C   0  0  0  0  0  0  0  0  0  0  0  0
   -2.9763   -7.1447    0.0000 C   0  0  0  0  0  0  0  0  0  0  0  0
    4.8828   -6.7322    0.0000 C   0  0  0  0  0  0  0  0  0  0  0  0
   -2.2619   -6.7322    0.0000 C   0  0  0  0  0  0  0  0  0  0  0  0
    4.1684   -7.1447    0.0000 C   0  0  0  0  0  0  0  0  0  0  0  0
   -1.5474   -7.1447    0.0000 C   0  0  0  0  0  0  0  0  0  0  0  0
    3.4539   -6.7322    0.0000 C   0  0  0  0  0  0  0  0  0  0  0  0
    4.0874   -9.9217    0.0000 C   0  0  0  0  0  0  0  0  0  0  0  0
    3.2624   -9.9217    0.0000 C   0  0  0  0  0  0  0  0  0  0  0  0
    0.5960   -6.7322    0.0000 C   0  0  0  0  0  0  0  0  0  0  0  0
    1.3105   -7.9697    0.0000 C   0  0  0  0  0  0  0  0  0  0  0  0
    1.3105   -7.1447    0.0000 C   0  0  2  0  0  0  0  0  0  0  0  0
   -0.8329   -6.7322    0.0000 C   0  0  0  0  0  0  0  0  0  0  0  0
    2.7394   -7.1447    0.0000 C   0  0  0  0  0  0  0  0  0  0  0  0
    4.4999  -10.6362    0.0000 N   0  3  0  0  0  0  0  0  0  0  0  0
   -0.8329   -5.9072    0.0000 O   0  0  0  0  0  0  0  0  0  0  0  0
    2.7394   -7.9697    0.0000 O   0  0  0  0  0  0  0  0  0  0  0  0
    1.1999   -9.2072    0.0000 O   0  0  0  0  0  0  0  0  0  0  0  0
    2.0249  -10.0322    0.0000 O   0  0  0  0  0  0  0  0  0  0  0  0
   -0.1185   -7.1447    0.0000 O   0  0  0  0  0  0  0  0  0  0  0  0
    2.8499   -9.2072    0.0000 O   0  0  0  0  0  0  0  0  0  0  0  0
    2.0249   -8.3822    0.0000 O   0  0  0  0  0  0  0  0  0  0  0  0
    2.0249   -6.7322    0.0000 O   0  0  0  0  0  0  0  0  0  0  0  0
    2.0249   -9.2072    0.0000 P   0  0  3  0  0  0  0  0  0  0  0  0
    0.5960   -7.5572    0.0000 H   0  0  0  0  0  0  0  0  0  0  0  0
  -13.9056   -6.6097    0.0000 H   0  0  0  0  0  0  0  0  0  0  0  0
  -12.9789   -8.2147    0.0000 H   0  0  0  0  0  0  0  0  0  0  0  0
  -13.9055   -7.6797    0.0000 H   0  0  0  0  0  0  0  0  0  0  0  0
   15.8121   -7.2672    0.0000 H   0  0  0  0  0  0  0  0  0  0  0  0
   14.8854   -5.6622    0.0000 H   0  0  0  0  0  0  0  0  0  0  0  0
   15.8120   -6.1972    0.0000 H   0  0  0  0  0  0  0  0  0  0  0  0
    2.8588  -10.5137    0.0000 H   0  0  0  0  0  0  0  0  0  0  0  0
    3.7855  -12.1187    0.0000 H   0  0  0  0  0  0  0  0  0  0  0  0
    2.8589  -11.5837    0.0000 H   0  0  0  0  0  0  0  0  0  0  0  0
    6.1410  -10.7587    0.0000 H   0  0  0  0  0  0  0  0  0  0  0  0
    5.2144   -9.1537    0.0000 H   0  0  0  0  0  0  0  0  0  0  0  0
    6.1411   -9.6887    0.0000 H   0  0  0  0  0  0  0  0  0  0  0  0
    4.3774  -12.2773    0.0000 H   0  0  0  0  0  0  0  0  0  0  0  0
    5.9824  -11.3506    0.0000 H   0  0  0  0  0  0  0  0  0  0  0  0
    5.4474  -12.2772    0.0000 H   0  0  0  0  0  0  0  0  0  0  0  0
  -12.2645   -5.6622    0.0000 H   0  0  0  0  0  0  0  0  0  0  0  0
  -11.3379   -6.1972    0.0000 H   0  0  0  0  0  0  0  0  0  0  0  0
   14.1710   -8.2147    0.0000 H   0  0  0  0  0  0  0  0  0  0  0  0
   13.2444   -7.6797    0.0000 H   0  0  0  0  0  0  0  0  0  0  0  0
  -11.5500   -8.2147    0.0000 H   0  0  0  0  0  0  0  0  0  0  0  0
  -10.6234   -7.6797    0.0000 H   0  0  0  0  0  0  0  0  0  0  0  0
   13.4565   -5.6622    0.0000 H   0  0  0  0  0  0  0  0  0  0  0  0
   12.5299   -6.1972    0.0000 H   0  0  0  0  0  0  0  0  0  0  0  0
  -10.8355   -5.6622    0.0000 H   0  0  0  0  0  0  0  0  0  0  0  0
   -9.9088   -6.1972    0.0000 H   0  0  0  0  0  0  0  0  0  0  0  0
   12.7420   -8.2147    0.0000 H   0  0  0  0  0  0  0  0  0  0  0  0
   11.8154   -7.6797    0.0000 H   0  0  0  0  0  0  0  0  0  0  0  0
  -10.1211   -8.2147    0.0000 H   0  0  0  0  0  0  0  0  0  0  0  0
   -9.1945   -7.6797    0.0000 H   0  0  0  0  0  0  0  0  0  0  0  0
   12.0275   -5.6622    0.0000 H   0  0  0  0  0  0  0  0  0  0  0  0
   11.1008   -6.1972    0.0000 H   0  0  0  0  0  0  0  0  0  0  0  0
   -9.4066   -5.6622    0.0000 H   0  0  0  0  0  0  0  0  0  0  0  0
   -8.4800   -6.1972    0.0000 H   0  0  0  0  0  0  0  0  0  0  0  0
   11.3131   -8.2147    0.0000 H   0  0  0  0  0  0  0  0  0  0  0  0
   10.3865   -7.6797    0.0000 H   0  0  0  0  0  0  0  0  0  0  0  0
   -8.6921   -8.2147    0.0000 H   0  0  0  0  0  0  0  0  0  0  0  0
   -7.7655   -7.6797    0.0000 H   0  0  0  0  0  0  0  0  0  0  0  0
   10.5986   -5.6622    0.0000 H   0  0  0  0  0  0  0  0  0  0  0  0
    9.6720   -6.1972    0.0000 H   0  0  0  0  0  0  0  0  0  0  0  0
   -7.9776   -5.6622    0.0000 H   0  0  0  0  0  0  0  0  0  0  0  0
   -7.0509   -6.1972    0.0000 H   0  0  0  0  0  0  0  0  0  0  0  0
    9.8841   -8.2147    0.0000 H   0  0  0  0  0  0  0  0  0  0  0  0
    8.9574   -7.6797    0.0000 H   0  0  0  0  0  0  0  0  0  0  0  0
   -7.2632   -8.2147    0.0000 H   0  0  0  0  0  0  0  0  0  0  0  0
   -6.3366   -7.6797    0.0000 H   0  0  0  0  0  0  0  0  0  0  0  0
    9.1697   -5.6622    0.0000 H   0  0  0  0  0  0  0  0  0  0  0  0
    8.2431   -6.1972    0.0000 H   0  0  0  0  0  0  0  0  0  0  0  0
   -6.5487   -5.6622    0.0000 H   0  0  0  0  0  0  0  0  0  0  0  0
   -5.6221   -6.1972    0.0000 H   0  0  0  0  0  0  0  0  0  0  0  0
    8.4552   -8.2147    0.0000 H   0  0  0  0  0  0  0  0  0  0  0  0
    7.5286   -7.6797    0.0000 H   0  0  0  0  0  0  0  0  0  0  0  0
   -5.8342   -8.2147    0.0000 H   0  0  0  0  0  0  0  0  0  0  0  0
   -4.9075   -7.6797    0.0000 H   0  0  0  0  0  0  0  0  0  0  0  0
    7.7407   -5.6622    0.0000 H   0  0  0  0  0  0  0  0  0  0  0  0
    6.8141   -6.1972    0.0000 H   0  0  0  0  0  0  0  0  0  0  0  0
   -5.1198   -5.6622    0.0000 H   0  0  0  0  0  0  0  0  0  0  0  0
   -4.1932   -6.1972    0.0000 H   0  0  0  0  0  0  0  0  0  0  0  0
    7.0262   -8.2147    0.0000 H   0  0  0  0  0  0  0  0  0  0  0  0
    6.0995   -7.6797    0.0000 H   0  0  0  0  0  0  0  0  0  0  0  0
   -4.4053   -8.2147    0.0000 H   0  0  0  0  0  0  0  0  0  0  0  0
   -3.4787   -7.6797    0.0000 H   0  0  0  0  0  0  0  0  0  0  0  0
    6.3118   -5.6622    0.0000 H   0  0  0  0  0  0  0  0  0  0  0  0
    5.3852   -6.1972    0.0000 H   0  0  0  0  0  0  0  0  0  0  0  0
   -3.6908   -5.6622    0.0000 H   0  0  0  0  0  0  0  0  0  0  0  0
   -2.7642   -6.1972    0.0000 H   0  0  0  0  0  0  0  0  0  0  0  0
    5.5973   -8.2147    0.0000 H   0  0  0  0  0  0  0  0  0  0  0  0
    4.6707   -7.6797    0.0000 H   0  0  0  0  0  0  0  0  0  0  0  0
   -2.9763   -8.2147    0.0000 H   0  0  0  0  0  0  0  0  0  0  0  0
   -2.0496   -7.6797    0.0000 H   0  0  0  0  0  0  0  0  0  0  0  0
    4.8828   -5.6622    0.0000 H   0  0  0  0  0  0  0  0  0  0  0  0
    3.9561   -6.1972    0.0000 H   0  0  0  0  0  0  0  0  0  0  0  0
   -2.2619   -5.6622    0.0000 H   0  0  0  0  0  0  0  0  0  0  0  0
   -1.3353   -6.1972    0.0000 H   0  0  0  0  0  0  0  0  0  0  0  0
    4.1684   -8.2147    0.0000 H   0  0  0  0  0  0  0  0  0  0  0  0
    3.2418   -7.6797    0.0000 H   0  0  0  0  0  0  0  0  0  0  0  0
   -1.5474   -8.2147    0.0000 H   0  0  0  0  0  0  0  0  0  0  0  0
   -0.6208   -7.6797    0.0000 H   0  0  0  0  0  0  0  0  0  0  0  0
    3.4539   -5.6622    0.0000 H   0  0  0  0  0  0  0  0  0  0  0  0
    2.5273   -6.1972    0.0000 H   0  0  0  0  0  0  0  0  0  0  0  0
    4.6224   -8.9951    0.0000 H   0  0  0  0  0  0  0  0  0  0  0  0
    5.1574   -9.9217    0.0000 H   0  0  0  0  0  0  0  0  0  0  0  0
    2.7274  -10.8483    0.0000 H   0  0  0  0  0  0  0  0  0  0  0  0
    2.1924   -9.9217    0.0000 H   0  0  0  0  0  0  0  0  0  0  0  0
    0.5960   -5.6622    0.0000 H   0  0  0  0  0  0  0  0  0  0  0  0
   -0.3306   -6.1972    0.0000 H   0  0  0  0  0  0  0  0  0  0  0  0
    0.3838   -8.5047    0.0000 H   0  0  0  0  0  0  0  0  0  0  0  0
    1.3105   -9.0397    0.0000 H   0  0  0  0  0  0  0  0  0  0  0  0
    1.1849  -10.5172    0.0000 H   0  0  0  0  0  0  0  0  0  0  0  0
  1 56  1  0  0  0  0
  1 57  1  0  0  0  0
  1 58  1  0  0  0  0
  2 59  1  0  0  0  0
  2 60  1  0  0  0  0
  2 61  1  0  0  0  0
  3 62  1  0  0  0  0
  3 63  1  0  0  0  0
  3 64  1  0  0  0  0
  4 65  1  0  0  0  0
  4 66  1  0  0  0  0
  4 67  1  0  0  0  0
  5 68  1  0  0  0  0
  5 69  1  0  0  0  0
  5 70  1  0  0  0  0
  6  1  1  0  0  0  0
  6 71  1  0  0  0  0
  6 72  1  0  0  0  0
  7  2  1  0  0  0  0
  7 73  1  0  0  0  0
  7 74  1  0  0  0  0
  8  6  1  0  0  0  0
  8 75  1  0  0  0  0
  8 76  1  0  0  0  0
  9  7  1  0  0  0  0
  9 77  1  0  0  0  0
  9 78  1  0  0  0  0
 10  8  1  0  0  0  0
 10 79  1  0  0  0  0
 10 80  1  0  0  0  0
 11  9  1  0  0  0  0
 11 81  1  0  0  0  0
 11 82  1  0  0  0  0
 12 10  1  0  0  0  0
 12 83  1  0  0  0  0
 12 84  1  0  0  0  0
 13 11  1  0  0  0  0
 13 85  1  0  0  0  0
 13 86  1  0  0  0  0
 14 12  1  0  0  0  0
 14 87  1  0  0  0  0
 14 88  1  0  0  0  0
 15 13  1  0  0  0  0
 15 89  1  0  0  0  0
 15 90  1  0  0  0  0
 16 14  1  0  0  0  0
 16 91  1  0  0  0  0
 16 92  1  0  0  0  0
 17 15  1  0  0  0  0
 17 93  1  0  0  0  0
 17 94  1  0  0  0  0
 18 16  1  0  0  0  0
 18 95  1  0  0  0  0
 18 96  1  0  0  0  0
 19 17  1  0  0  0  0
 19 97  1  0  0  0  0
 19 98  1  0  0  0  0
 20 18  1  0  0  0  0
 20 99  1  0  0  0  0
 20100  1  0  0  0  0
 21 19  1  0  0  0  0
 21101  1  0  0  0  0
 21102  1  0  0  0  0
 22 20  1  0  0  0  0
 22103  1  0  0  0  0
 22104  1  0  0  0  0
 23 21  1  0  0  0  0
 23105  1  0  0  0  0
 23106  1  0  0  0  0
 24 22  1  0  0  0  0
 24107  1  0  0  0  0
 24108  1  0  0  0  0
 25 23  1  0  0  0  0
 25109  1  0  0  0  0
 25110  1  0  0  0  0
 26 24  1  0  0  0  0
 26111  1  0  0  0  0
 26112  1  0  0  0  0
 27 25  1  0  0  0  0
 27113  1  0  0  0  0
 27114  1  0  0  0  0
 28 26  1  0  0  0  0
 28115  1  0  0  0  0
 28116  1  0  0  0  0
 29 27  1  0  0  0  0
 29117  1  0  0  0  0
 29118  1  0  0  0  0
 30 28  1  0  0  0  0
 30119  1  0  0  0  0
 30120  1  0  0  0  0
 31 29  1  0  0  0  0
 31121  1  0  0  0  0
 31122  1  0  0  0  0
 32 30  1  0  0  0  0
 32123  1  0  0  0  0
 32124  1  0  0  0  0
 33 31  1  0  0  0  0
 33125  1  0  0  0  0
 33126  1  0  0  0  0
 34 32  1  0  0  0  0
 34127  1  0  0  0  0
 34128  1  0  0  0  0
 35 33  1  0  0  0  0
 35129  1  0  0  0  0
 35130  1  0  0  0  0
 36 34  1  0  0  0  0
 36131  1  0  0  0  0
 36132  1  0  0  0  0
 37 35  1  0  0  0  0
 37133  1  0  0  0  0
 37134  1  0  0  0  0
 38135  1  0  0  0  0
 38136  1  0  0  0  0
 39 38  1  0  0  0  0
 39137  1  0  0  0  0
 39138  1  0  0  0  0
 40139  1  0  0  0  0
 40140  1  0  0  0  0
 41141  1  0  0  0  0
 41142  1  0  0  0  0
 42 40  1  0  0  0  0
 42 41  1  0  0  0  0
 42 53  1  0  0  0  0
 42 55  1  6  0  0  0
 43 36  1  0  0  0  0
 44 37  1  0  0  0  0
 45  3  1  0  0  0  0
 45  4  1  0  0  0  0
 45  5  1  0  0  0  0
 45 38  1  0  0  0  0
 46 43  2  0  0  0  0
 47 44  2  0  0  0  0
 49143  1  0  0  0  0
 50 40  1  0  0  0  0
 50 43  1  0  0  0  0
 51 39  1  0  0  0  0
 52 41  1  0  0  0  0
 53 44  1  0  0  0  0
 54 48  2  0  0  0  0
 54 49  1  0  0  0  0
 54 51  1  0  0  0  0
 54 52  1  0  0  0  0
M  CHG  1  45   1
M  END
>  <DRUGBANK_ID>
DB04178

>  <SECONDARY_ACCESSION_NUMBERS>
EXPT02512

>  <COMMON_NAME>
Di-Stearoyl-3-Sn-Phosphatidylcholine

$$$$
