
 OpenBabel10282417072D

 48 51  0  0  0  0  0  0  0  0999 V2000
   -0.1712   -0.6979    0.0000 C   0  0  0  0  0  0  0  0  0  0  0  0
    0.6538   -0.6979    0.0000 C   0  0  0  0  0  0  0  0  0  0  0  0
    1.1387   -0.0305    0.0000 N   0  0  0  0  0  0  0  0  0  0  0  0
    1.9233   -0.2854    0.0000 C   0  0  0  0  0  0  0  0  0  0  0  0
    2.6378    0.1271    0.0000 C   0  0  0  0  0  0  0  0  0  0  0  0
    3.3523   -0.2854    0.0000 N   0  0  0  0  0  0  0  0  0  0  0  0
    3.3523   -1.1104    0.0000 C   0  0  0  0  0  0  0  0  0  0  0  0
    2.6378   -1.5229    0.0000 N   0  0  0  0  0  0  0  0  0  0  0  0
    1.9233   -1.1104    0.0000 C   0  0  0  0  0  0  0  0  0  0  0  0
    1.1387   -1.3654    0.0000 N   0  0  0  0  0  0  0  0  0  0  0  0
    0.8838   -2.1500    0.0000 C   0  0  0  0  0  0  0  0  0  0  0  0
    0.0768   -2.3215    0.0000 C   0  0  0  0  0  0  0  0  0  0  0  0
    1.4358   -2.7631    0.0000 C   0  0  0  0  0  0  0  0  0  0  0  0
    4.0668   -1.5229    0.0000 N   0  0  0  0  0  0  0  0  0  0  0  0
    4.7812   -1.1104    0.0000 C   0  0  0  0  0  0  0  0  0  0  0  0
    5.4957   -1.5229    0.0000 C   0  0  0  0  0  0  0  0  0  0  0  0
    5.4957   -2.3479    0.0000 O   0  0  0  0  0  0  0  0  0  0  0  0
    4.7812   -2.7604    0.0000 C   0  0  0  0  0  0  0  0  0  0  0  0
    4.0668   -2.3479    0.0000 C   0  0  0  0  0  0  0  0  0  0  0  0
    2.6378    0.9521    0.0000 C   0  0  0  0  0  0  0  0  0  0  0  0
    1.9233    1.3646    0.0000 C   0  0  0  0  0  0  0  0  0  0  0  0
    1.9233    2.1896    0.0000 N   0  0  0  0  0  0  0  0  0  0  0  0
    2.6378    2.6021    0.0000 C   0  0  0  0  0  0  0  0  0  0  0  0
    3.3523    2.1896    0.0000 N   0  0  0  0  0  0  0  0  0  0  0  0
    3.3523    1.3646    0.0000 C   0  0  0  0  0  0  0  0  0  0  0  0
    2.6378    3.4271    0.0000 N   0  0  0  0  0  0  0  0  0  0  0  0
   -0.7062    0.2287    0.0000 H   0  0  0  0  0  0  0  0  0  0  0  0
   -0.7062   -1.6245    0.0000 H   0  0  0  0  0  0  0  0  0  0  0  0
   -1.2412   -0.6979    0.0000 H   0  0  0  0  0  0  0  0  0  0  0  0
    0.5531   -3.1676    0.0000 H   0  0  0  0  0  0  0  0  0  0  0  0
   -0.6391   -1.5263    0.0000 H   0  0  0  0  0  0  0  0  0  0  0  0
   -0.2539   -3.3391    0.0000 H   0  0  0  0  0  0  0  0  0  0  0  0
   -0.9698   -2.5439    0.0000 H   0  0  0  0  0  0  0  0  0  0  0  0
    1.1051   -3.7807    0.0000 H   0  0  0  0  0  0  0  0  0  0  0  0
    2.4824   -2.5407    0.0000 H   0  0  0  0  0  0  0  0  0  0  0  0
    2.1517   -3.5583    0.0000 H   0  0  0  0  0  0  0  0  0  0  0  0
    4.7812   -0.0404    0.0000 H   0  0  0  0  0  0  0  0  0  0  0  0
    5.7078   -0.5754    0.0000 H   0  0  0  0  0  0  0  0  0  0  0  0
    6.4223   -0.9879    0.0000 H   0  0  0  0  0  0  0  0  0  0  0  0
    6.4223   -2.0579    0.0000 H   0  0  0  0  0  0  0  0  0  0  0  0
    4.7812   -3.8304    0.0000 H   0  0  0  0  0  0  0  0  0  0  0  0
    3.8545   -3.2954    0.0000 H   0  0  0  0  0  0  0  0  0  0  0  0
    3.1401   -2.8829    0.0000 H   0  0  0  0  0  0  0  0  0  0  0  0
    3.1402   -1.8129    0.0000 H   0  0  0  0  0  0  0  0  0  0  0  0
    1.0296    0.8486    0.0000 H   0  0  0  0  0  0  0  0  0  0  0  0
    4.2460    0.8486    0.0000 H   0  0  0  0  0  0  0  0  0  0  0  0
    3.4904    3.9193    0.0000 H   0  0  0  0  0  0  0  0  0  0  0  0
    1.7852    3.9193    0.0000 H   0  0  0  0  0  0  0  0  0  0  0  0
  1  2  1  0  0  0  0
  1 27  1  0  0  0  0
  1 28  1  0  0  0  0
  1 29  1  0  0  0  0
  2  3  2  0  0  0  0
  2 10  1  0  0  0  0
  3  4  1  0  0  0  0
  4  5  2  0  0  0  0
  4  9  1  0  0  0  0
  5  6  1  0  0  0  0
  5 20  1  0  0  0  0
  6  7  2  0  0  0  0
  7  8  1  0  0  0  0
  7 14  1  0  0  0  0
  8  9  2  0  0  0  0
  9 10  1  0  0  0  0
 10 11  1  0  0  0  0
 11 12  1  0  0  0  0
 11 13  1  0  0  0  0
 11 30  1  0  0  0  0
 12 31  1  0  0  0  0
 12 32  1  0  0  0  0
 12 33  1  0  0  0  0
 13 34  1  0  0  0  0
 13 35  1  0  0  0  0
 13 36  1  0  0  0  0
 14 15  1  0  0  0  0
 14 19  1  0  0  0  0
 15 16  1  0  0  0  0
 15 37  1  0  0  0  0
 15 38  1  0  0  0  0
 16 17  1  0  0  0  0
 16 39  1  0  0  0  0
 16 40  1  0  0  0  0
 17 18  1  0  0  0  0
 18 19  1  0  0  0  0
 18 41  1  0  0  0  0
 18 42  1  0  0  0  0
 19 43  1  0  0  0  0
 19 44  1  0  0  0  0
 20 21  2  0  0  0  0
 20 25  1  0  0  0  0
 21 22  1  0  0  0  0
 21 45  1  0  0  0  0
 22 23  2  0  0  0  0
 23 24  1  0  0  0  0
 23 26  1  0  0  0  0
 24 25  2  0  0  0  0
 25 46  1  0  0  0  0
 26 47  1  0  0  0  0
 26 48  1  0  0  0  0
M  END
>  <DRUGBANK_ID>
DB12986

>  <COMMON_NAME>
VS-5584

>  <CAS_NUMBER>
1246560-33-7

>  <UNII>
W71J4X250V

>  <SYNONYMS>
2-pyrimidinamine, 5-(8-methyl-9-(1-methylethyl)-2-(4-morpholinyl)-9H-purin-6-yl)-; 5-[8-methyl-9-(1-methylethyl)-2-(4-morpholinyl)-9H-purin-6yl]-2-pyrimidinamine

$$$$
