
 OpenBabel10282417072D

 37 40  0  0  1  0  0  0  0  0999 V2000
    0.1572    0.5905    0.0000 C   0  0  0  0  0  0  0  0  0  0  0  0
    0.9110    0.2550    0.0000 N   0  0  0  0  0  0  0  0  0  0  0  0
    1.4630    0.8680    0.0000 C   0  0  0  0  0  0  0  0  0  0  0  0
    1.0505    1.5825    0.0000 C   0  0  0  0  0  0  0  0  0  0  0  0
    0.2436    1.4110    0.0000 N   0  0  0  0  0  0  0  0  0  0  0  0
    2.2880    0.8680    0.0000 C   0  0  0  0  0  0  0  0  0  0  0  0
    2.7005    1.5825    0.0000 C   0  0  0  0  0  0  0  0  0  0  0  0
    2.2880    2.2970    0.0000 C   0  0  0  0  0  0  0  0  0  0  0  0
    1.4630    2.2970    0.0000 C   0  0  0  0  0  0  0  0  0  0  0  0
   -0.5571    0.1780    0.0000 N   0  0  0  0  0  0  0  0  0  0  0  0
   -0.5571   -0.6469    0.0000 C   0  0  2  0  0  0  0  0  0  0  0  0
    0.1572   -1.0594    0.0000 C   0  0  0  0  0  0  0  0  0  0  0  0
    0.1572   -1.8845    0.0000 C   0  0  0  0  0  0  0  0  0  0  0  0
   -0.5571   -2.2969    0.0000 C   0  0  0  0  0  0  0  0  0  0  0  0
   -1.2715   -1.8845    0.0000 C   0  0  0  0  0  0  0  0  0  0  0  0
   -1.9861   -2.2969    0.0000 C   0  0  0  0  0  0  0  0  0  0  0  0
   -2.7005   -1.8845    0.0000 C   0  0  0  0  0  0  0  0  0  0  0  0
   -2.7005   -1.0594    0.0000 C   0  0  0  0  0  0  0  0  0  0  0  0
   -1.9861   -0.6469    0.0000 C   0  0  0  0  0  0  0  0  0  0  0  0
   -1.2715   -1.0594    0.0000 C   0  0  0  0  0  0  0  0  0  0  0  0
   -0.4880    2.0698    0.0000 H   0  0  0  0  0  0  0  0  0  0  0  0
    2.8040   -0.0257    0.0000 H   0  0  0  0  0  0  0  0  0  0  0  0
    3.7325    1.5825    0.0000 H   0  0  0  0  0  0  0  0  0  0  0  0
    2.8040    3.1907    0.0000 H   0  0  0  0  0  0  0  0  0  0  0  0
    0.9470    3.1907    0.0000 H   0  0  0  0  0  0  0  0  0  0  0  0
   -1.4097    0.6702    0.0000 H   0  0  0  0  0  0  0  0  0  0  0  0
    0.3696   -0.1119    0.0000 H   0  0  0  0  0  0  0  0  0  0  0  0
    1.0839   -0.5244    0.0000 H   0  0  0  0  0  0  0  0  0  0  0  0
    1.0838   -1.5944    0.0000 H   0  0  0  0  0  0  0  0  0  0  0  0
    1.0838   -2.4195    0.0000 H   0  0  0  0  0  0  0  0  0  0  0  0
    0.1572   -2.9545    0.0000 H   0  0  0  0  0  0  0  0  0  0  0  0
   -0.5571   -3.3669    0.0000 H   0  0  0  0  0  0  0  0  0  0  0  0
   -1.4837   -2.8319    0.0000 H   0  0  0  0  0  0  0  0  0  0  0  0
   -1.9862   -3.3289    0.0000 H   0  0  0  0  0  0  0  0  0  0  0  0
   -3.5942   -2.4005    0.0000 H   0  0  0  0  0  0  0  0  0  0  0  0
   -3.5942   -0.5434    0.0000 H   0  0  0  0  0  0  0  0  0  0  0  0
   -1.9862    0.3851    0.0000 H   0  0  0  0  0  0  0  0  0  0  0  0
  1  2  2  0  0  0  0
  1  5  1  0  0  0  0
  1 10  1  0  0  0  0
  2  3  1  0  0  0  0
  3  4  1  0  0  0  0
  4  5  1  0  0  0  0
  5 21  1  0  0  0  0
  6  7  1  0  0  0  0
  6  3  2  0  0  0  0
  6 22  1  0  0  0  0
  7  8  2  0  0  0  0
  7 23  1  0  0  0  0
  8  9  1  0  0  0  0
  8 24  1  0  0  0  0
  9  4  2  0  0  0  0
  9 25  1  0  0  0  0
 10 26  1  0  0  0  0
 11 12  1  0  0  0  0
 11 20  1  0  0  0  0
 11 10  1  0  0  0  0
 11 27  1  1  0  0  0
 12 13  1  0  0  0  0
 12 28  1  0  0  0  0
 12 29  1  0  0  0  0
 13 14  1  0  0  0  0
 13 30  1  0  0  0  0
 13 31  1  0  0  0  0
 14 15  1  0  0  0  0
 14 32  1  0  0  0  0
 14 33  1  0  0  0  0
 15 16  1  0  0  0  0
 15 20  2  0  0  0  0
 16 17  2  0  0  0  0
 16 34  1  0  0  0  0
 17 18  1  0  0  0  0
 17 35  1  0  0  0  0
 18 19  2  0  0  0  0
 18 36  1  0  0  0  0
 19 20  1  0  0  0  0
 19 37  1  0  0  0  0
M  END
>  <DRUGBANK_ID>
DB16897

>  <COMMON_NAME>
NS-8593

>  <CAS_NUMBER>
875755-39-8

>  <UNII>
STF2BZ33XF

$$$$
