5I5
 OpenBabel10282417072D

 32 34  0  0  0  0  0  0  0  0999 V2000
    2.5613    2.1647    0.0000 N   0  0  0  0  0  0  0  0  0  0  0  0
    1.8468    2.5772    0.0000 C   0  0  0  0  0  0  0  0  0  0  0  0
    1.1324    2.1647    0.0000 C   0  0  0  0  0  0  0  0  0  0  0  0
    1.1324    1.3397    0.0000 C   0  0  0  0  0  0  0  0  0  0  0  0
    1.8468    0.9272    0.0000 N   0  0  0  0  0  0  0  0  0  0  0  0
    2.5613    1.3397    0.0000 C   0  0  0  0  0  0  0  0  0  0  0  0
    0.3477    2.4196    0.0000 C   0  0  0  0  0  0  0  0  0  0  0  0
   -0.1372    1.7522    0.0000 C   0  0  0  0  0  0  0  0  0  0  0  0
    0.3477    1.0847    0.0000 N   0  0  0  0  0  0  0  0  0  0  0  0
    0.0928    3.2042    0.0000 I   0  0  0  0  0  0  0  0  0  0  0  0
    1.8468    3.4022    0.0000 N   0  0  0  0  0  0  0  0  0  0  0  0
   -0.6918   -0.7798    0.0000 C   0  0  1  0  0  0  0  0  0  0  0  0
   -0.6918    0.0452    0.0000 C   0  0  2  0  0  0  0  0  0  0  0  0
    0.0928    0.3001    0.0000 C   0  0  1  0  0  0  0  0  0  0  0  0
    0.5777   -0.3673    0.0000 O   0  0  0  0  0  0  0  0  0  0  0  0
    0.0928   -1.0348    0.0000 C   0  0  2  0  0  0  0  0  0  0  0  0
   -1.3593   -1.2647    0.0000 O   0  0  0  0  0  0  0  0  0  0  0  0
   -1.3593    0.5301    0.0000 O   0  0  0  0  0  0  0  0  0  0  0  0
    0.3477   -1.8194    0.0000 C   0  0  0  0  0  0  0  0  0  0  0  0
   -1.2121   -0.5147    0.0000 H   0  0  0  0  0  0  0  0  0  0  0  0
   -1.2121   -0.2199    0.0000 H   0  0  0  0  0  0  0  0  0  0  0  0
   -0.3201    0.7130    0.0000 H   0  0  0  0  0  0  0  0  0  0  0  0
   -0.3201   -1.4477    0.0000 H   0  0  0  0  0  0  0  0  0  0  0  0
    3.4550    0.8237    0.0000 H   0  0  0  0  0  0  0  0  0  0  0  0
   -1.1692    1.7522    0.0000 H   0  0  0  0  0  0  0  0  0  0  0  0
    2.6994    3.8944    0.0000 H   0  0  0  0  0  0  0  0  0  0  0  0
    0.9942    3.8944    0.0000 H   0  0  0  0  0  0  0  0  0  0  0  0
   -2.2454   -0.8701    0.0000 H   0  0  0  0  0  0  0  0  0  0  0  0
   -1.2580    1.4948    0.0000 H   0  0  0  0  0  0  0  0  0  0  0  0
   -0.3683   -2.6145    0.0000 H   0  0  0  0  0  0  0  0  0  0  0  0
    1.3943   -2.0419    0.0000 H   0  0  0  0  0  0  0  0  0  0  0  0
    0.6783   -2.8370    0.0000 H   0  0  0  0  0  0  0  0  0  0  0  0
  1  6  2  0  0  0  0
  1  2  1  0  0  0  0
  2 11  1  0  0  0  0
  2  3  2  0  0  0  0
  3  4  1  0  0  0  0
  3  7  1  0  0  0  0
  4  5  2  0  0  0  0
  4  9  1  0  0  0  0
  5  6  1  0  0  0  0
  6 24  1  0  0  0  0
  7  8  2  0  0  0  0
  7 10  1  0  0  0  0
  8  9  1  0  0  0  0
  8 25  1  0  0  0  0
 11 26  1  0  0  0  0
 11 27  1  0  0  0  0
 12 17  1  0  0  0  0
 12 13  1  0  0  0  0
 12 16  1  0  0  0  0
 12 20  1  6  0  0  0
 13 18  1  0  0  0  0
 13 14  1  0  0  0  0
 13 21  1  6  0  0  0
 14  9  1  0  0  0  0
 14 15  1  0  0  0  0
 14 22  1  1  0  0  0
 15 16  1  0  0  0  0
 16 19  1  0  0  0  0
 16 23  1  1  0  0  0
 17 28  1  0  0  0  0
 18 29  1  0  0  0  0
 19 30  1  0  0  0  0
 19 31  1  0  0  0  0
 19 32  1  0  0  0  0
M  END
>  <DRUGBANK_ID>
DB07173

>  <COMMON_NAME>
7-(5-DEOXY-BETA-D-RIBOFURANOSYL)-5-IODO-7H-PYRROLO[2,3-D]PYRIMIDIN-4-AMINE

$$$$
