507
 OpenBabel10282417072D

 30 31  0  0  0  0  0  0  0  0999 V2000
    4.5550    0.9959    0.0000 S   0  0  0  0  0  0  0  0  0  0  0  0
    3.0791   -1.5516    0.0000 O   0  0  0  0  0  0  0  0  0  0  0  0
    3.7935   -0.3141    0.0000 O   0  0  0  0  0  0  0  0  0  0  0  0
    2.3645   -2.7891    0.0000 O   0  0  0  0  0  0  0  0  0  0  0  0
    4.6606    3.2016    0.0000 O   0  5  0  0  0  0  0  0  0  0  0  0
    3.5045    2.3617    0.0000 O   0  0  0  0  0  0  0  0  0  0  0  0
    5.2224   -0.3141    0.0000 N   0  0  0  0  0  0  0  0  0  0  0  0
    5.8899    0.9959    0.0000 N   0  0  0  0  0  0  0  0  0  0  0  0
    4.3250    2.4480    0.0000 N   0  3  0  0  0  0  0  0  0  0  0  0
    4.5080   -1.5516    0.0000 C   0  0  0  0  0  0  0  0  0  0  0  0
    3.7935   -1.9641    0.0000 C   0  0  0  0  0  0  0  0  0  0  0  0
    4.5080   -0.7266    0.0000 C   0  0  0  0  0  0  0  0  0  0  0  0
    5.2224   -1.9641    0.0000 C   0  0  0  0  0  0  0  0  0  0  0  0
    3.7935   -2.7891    0.0000 C   0  0  0  0  0  0  0  0  0  0  0  0
    5.2224   -2.7891    0.0000 C   0  0  0  0  0  0  0  0  0  0  0  0
    5.2224    0.5109    0.0000 C   0  0  0  0  0  0  0  0  0  0  0  0
    4.5080   -3.2016    0.0000 C   0  0  0  0  0  0  0  0  0  0  0  0
    4.8099    1.7805    0.0000 C   0  0  0  0  0  0  0  0  0  0  0  0
    5.6350    1.7805    0.0000 C   0  0  0  0  0  0  0  0  0  0  0  0
    2.3645   -1.9641    0.0000 C   0  0  0  0  0  0  0  0  0  0  0  0
    1.6500   -1.5516    0.0000 C   0  0  0  0  0  0  0  0  0  0  0  0
    6.0750   -0.8063    0.0000 H   0  0  0  0  0  0  0  0  0  0  0  0
    6.1161   -1.4481    0.0000 H   0  0  0  0  0  0  0  0  0  0  0  0
    2.8998   -3.3051    0.0000 H   0  0  0  0  0  0  0  0  0  0  0  0
    6.1161   -3.3051    0.0000 H   0  0  0  0  0  0  0  0  0  0  0  0
    4.5080   -4.2336    0.0000 H   0  0  0  0  0  0  0  0  0  0  0  0
    6.2416    2.6154    0.0000 H   0  0  0  0  0  0  0  0  0  0  0  0
    1.6500   -0.4816    0.0000 H   0  0  0  0  0  0  0  0  0  0  0  0
    0.7234   -2.0866    0.0000 H   0  0  0  0  0  0  0  0  0  0  0  0
    0.7233   -1.0166    0.0000 H   0  0  0  0  0  0  0  0  0  0  0  0
  1 16  1  0  0  0  0
  1 18  1  0  0  0  0
  2 11  1  0  0  0  0
  2 20  1  0  0  0  0
  3 12  2  0  0  0  0
  4 20  2  0  0  0  0
  5  9  1  0  0  0  0
  6  9  2  0  0  0  0
  7 12  1  0  0  0  0
  7 16  1  0  0  0  0
  7 22  1  0  0  0  0
  8 16  2  0  0  0  0
  8 19  1  0  0  0  0
  9 18  1  0  0  0  0
 10 11  1  0  0  0  0
 10 12  1  0  0  0  0
 10 13  2  0  0  0  0
 11 14  2  0  0  0  0
 13 15  1  0  0  0  0
 13 23  1  0  0  0  0
 14 17  1  0  0  0  0
 14 24  1  0  0  0  0
 15 17  2  0  0  0  0
 15 25  1  0  0  0  0
 17 26  1  0  0  0  0
 18 19  2  0  0  0  0
 19 27  1  0  0  0  0
 20 21  1  0  0  0  0
 21 28  1  0  0  0  0
 21 29  1  0  0  0  0
 21 30  1  0  0  0  0
M  CHG  2   5  -1   9   1
M  END
>  <DRUGBANK_ID>
DB00507

>  <SECONDARY_ACCESSION_NUMBERS>
APRD00558

>  <COMMON_NAME>
Nitazoxanide

>  <CAS_NUMBER>
55981-09-4

>  <UNII>
SOA12P041N

>  <SYNONYMS>
Nitaxozanid; Nitaxozanide; Nitazoxanida; Nitazoxanide; Nitazoxanidum

$$$$
