
 OpenBabel10282417072D

 69 71  0  0  1  0  0  0  0  0999 V2000
   12.1679  -11.8385    0.0000 C   0  0  2  0  0  0  0  0  0  0  0  0
   12.1679  -12.6635    0.0000 C   0  0  2  0  0  0  0  0  0  0  0  0
   12.8824  -13.0760    0.0000 C   0  0  1  0  0  0  0  0  0  0  0  0
   13.5969  -12.6635    0.0000 C   0  0  2  0  0  0  0  0  0  0  0  0
   13.5969  -11.8385    0.0000 C   0  0  2  0  0  0  0  0  0  0  0  0
   12.8824  -11.4260    0.0000 O   0  0  0  0  0  0  0  0  0  0  0  0
   11.4535  -11.4260    0.0000 C   0  0  0  0  0  0  0  0  0  0  0  0
   10.7490  -11.8329    0.0000 O   0  0  0  0  0  0  0  0  0  0  0  0
   11.4535  -13.0760    0.0000 O   0  0  0  0  0  0  0  0  0  0  0  0
   12.8824  -13.9009    0.0000 N   0  0  0  0  0  0  0  0  0  0  0  0
   14.3224  -13.0825    0.0000 O   0  0  0  0  0  0  0  0  0  0  0  0
   14.3224  -11.4195    0.0000 O   0  0  0  0  0  0  0  0  0  0  0  0
   15.0142  -11.0135    0.0000 C   0  0  1  0  0  0  0  0  0  0  0  0
   15.7316  -11.4209    0.0000 C   0  0  1  0  0  0  0  0  0  0  0  0
   16.4431  -11.0034    0.0000 C   0  0  0  0  0  0  0  0  0  0  0  0
   16.4372  -10.1784    0.0000 C   0  0  1  0  0  0  0  0  0  0  0  0
   15.7199   -9.7709    0.0000 C   0  0  2  0  0  0  0  0  0  0  0  0
   15.0084  -10.1885    0.0000 C   0  0  2  0  0  0  0  0  0  0  0  0
   15.7375  -12.2507    0.0000 N   0  0  0  0  0  0  0  0  0  0  0  0
   17.1290   -9.7723    0.0000 N   0  0  0  0  0  0  0  0  0  0  0  0
   14.2954   -9.7836    0.0000 O   0  0  0  0  0  0  0  0  0  0  0  0
   15.7140   -8.9510    0.0000 O   0  0  0  0  0  0  0  0  0  0  0  0
   16.4266   -8.5328    0.0000 C   0  0  1  0  0  0  0  0  0  0  0  0
   17.1389   -8.9373    0.0000 O   0  0  0  0  0  0  0  0  0  0  0  0
   17.8504   -8.5198    0.0000 C   0  0  1  0  0  0  0  0  0  0  0  0
   17.8446   -7.6948    0.0000 C   0  0  2  0  0  0  0  0  0  0  0  0
   17.1323   -7.2903    0.0000 C   0  0  0  0  0  0  0  0  0  0  0  0
   16.4207   -7.7078    0.0000 C   0  0  1  0  0  0  0  0  0  0  0  0
   18.5834   -8.9358    0.0000 C   0  0  0  0  0  0  0  0  0  0  0  0
   18.5894   -9.7759    0.0000 N   0  0  0  0  0  0  0  0  0  0  0  0
   18.5594   -7.2752    0.0000 O   0  0  0  0  0  0  0  0  0  0  0  0
   15.7028   -7.3000    0.0000 N   0  0  0  0  0  0  0  0  0  0  0  0
   11.2412  -12.3735    0.0000 H   0  0  0  0  0  0  0  0  0  0  0  0
   11.2412  -12.1285    0.0000 H   0  0  0  0  0  0  0  0  0  0  0  0
   11.9558  -13.6110    0.0000 H   0  0  0  0  0  0  0  0  0  0  0  0
   13.5968  -13.7335    0.0000 H   0  0  0  0  0  0  0  0  0  0  0  0
   14.5236  -12.3734    0.0000 H   0  0  0  0  0  0  0  0  0  0  0  0
   11.4534  -10.3560    0.0000 H   0  0  0  0  0  0  0  0  0  0  0  0
   10.5268  -10.8911    0.0000 H   0  0  0  0  0  0  0  0  0  0  0  0
    9.9089  -11.3480    0.0000 H   0  0  0  0  0  0  0  0  0  0  0  0
   10.6134  -12.5910    0.0000 H   0  0  0  0  0  0  0  0  0  0  0  0
   11.9991  -14.4109    0.0000 H   0  0  0  0  0  0  0  0  0  0  0  0
   13.7657  -14.4109    0.0000 H   0  0  0  0  0  0  0  0  0  0  0  0
   14.3223  -14.0525    0.0000 H   0  0  0  0  0  0  0  0  0  0  0  0
   15.0218  -12.0835    0.0000 H   0  0  0  0  0  0  0  0  0  0  0  0
   14.8088  -11.9625    0.0000 H   0  0  0  0  0  0  0  0  0  0  0  0
   17.3735  -11.5318    0.0000 H   0  0  0  0  0  0  0  0  0  0  0  0
   17.3659  -10.4618    0.0000 H   0  0  0  0  0  0  0  0  0  0  0  0
   17.3677  -10.7067    0.0000 H   0  0  0  0  0  0  0  0  0  0  0  0
   16.6427   -9.2294    0.0000 H   0  0  0  0  0  0  0  0  0  0  0  0
   15.0008   -9.1185    0.0000 H   0  0  0  0  0  0  0  0  0  0  0  0
   14.8578  -12.7670    0.0000 H   0  0  0  0  0  0  0  0  0  0  0  0
   16.6244  -12.7544    0.0000 H   0  0  0  0  0  0  0  0  0  0  0  0
   18.0160  -10.2759    0.0000 H   0  0  0  0  0  0  0  0  0  0  0  0
   17.1216   -8.7523    0.0000 H   0  0  0  0  0  0  0  0  0  0  0  0
   14.2885   -8.8136    0.0000 H   0  0  0  0  0  0  0  0  0  0  0  0
   16.4342   -9.6028    0.0000 H   0  0  0  0  0  0  0  0  0  0  0  0
   17.8581   -9.5898    0.0000 H   0  0  0  0  0  0  0  0  0  0  0  0
   18.7750   -8.2232    0.0000 H   0  0  0  0  0  0  0  0  0  0  0  0
   17.1247   -6.2203    0.0000 H   0  0  0  0  0  0  0  0  0  0  0  0
   16.2019   -6.7618    0.0000 H   0  0  0  0  0  0  0  0  0  0  0  0
   16.4132   -6.6378    0.0000 H   0  0  0  0  0  0  0  0  0  0  0  0
   19.5061   -8.3941    0.0000 H   0  0  0  0  0  0  0  0  0  0  0  0
   19.5139   -9.4641    0.0000 H   0  0  0  0  0  0  0  0  0  0  0  0
   17.7097  -10.2922    0.0000 H   0  0  0  0  0  0  0  0  0  0  0  0
   19.4764  -10.2796    0.0000 H   0  0  0  0  0  0  0  0  0  0  0  0
   19.4029   -7.7541    0.0000 H   0  0  0  0  0  0  0  0  0  0  0  0
   15.6957   -6.2800    0.0000 H   0  0  0  0  0  0  0  0  0  0  0  0
   14.8230   -7.8162    0.0000 H   0  0  0  0  0  0  0  0  0  0  0  0
  1  2  1  0  0  0  0
  1  6  1  0  0  0  0
  1  7  1  0  0  0  0
  1 33  1  6  0  0  0
  2  3  1  0  0  0  0
  2  9  1  0  0  0  0
  2 34  1  1  0  0  0
  3  4  1  0  0  0  0
  3 10  1  0  0  0  0
  3 35  1  6  0  0  0
  4  5  1  0  0  0  0
  4 11  1  0  0  0  0
  4 36  1  1  0  0  0
  5  6  1  0  0  0  0
  5 12  1  0  0  0  0
  5 37  1  1  0  0  0
  7  8  1  0  0  0  0
  7 38  1  0  0  0  0
  7 39  1  0  0  0  0
  8 40  1  0  0  0  0
  9 41  1  0  0  0  0
 10 42  1  0  0  0  0
 10 43  1  0  0  0  0
 11 44  1  0  0  0  0
 13 12  1  0  0  0  0
 13 14  1  0  0  0  0
 13 18  1  0  0  0  0
 13 45  1  1  0  0  0
 14 15  1  0  0  0  0
 14 19  1  0  0  0  0
 14 46  1  6  0  0  0
 15 16  1  0  0  0  0
 15 47  1  0  0  0  0
 15 48  1  0  0  0  0
 16 17  1  0  0  0  0
 16 20  1  0  0  0  0
 16 49  1  6  0  0  0
 17 18  1  0  0  0  0
 17 22  1  0  0  0  0
 17 50  1  1  0  0  0
 18 21  1  0  0  0  0
 18 51  1  6  0  0  0
 19 52  1  0  0  0  0
 19 53  1  0  0  0  0
 20 54  1  0  0  0  0
 20 55  1  0  0  0  0
 21 56  1  0  0  0  0
 23 22  1  0  0  0  0
 23 24  1  0  0  0  0
 23 28  1  0  0  0  0
 23 57  1  1  0  0  0
 24 25  1  0  0  0  0
 25 26  1  0  0  0  0
 25 29  1  0  0  0  0
 25 58  1  6  0  0  0
 26 27  1  0  0  0  0
 26 31  1  0  0  0  0
 26 59  1  1  0  0  0
 27 28  1  0  0  0  0
 27 60  1  0  0  0  0
 27 61  1  0  0  0  0
 28 32  1  0  0  0  0
 28 62  1  1  0  0  0
 29 30  1  0  0  0  0
 29 63  1  0  0  0  0
 29 64  1  0  0  0  0
 30 65  1  0  0  0  0
 30 66  1  0  0  0  0
 31 67  1  0  0  0  0
 32 68  1  0  0  0  0
 32 69  1  0  0  0  0
M  END
>  <DRUGBANK_ID>
DB00684

>  <SECONDARY_ACCESSION_NUMBERS>
APRD00582

>  <COMMON_NAME>
Tobramycin

>  <CAS_NUMBER>
32986-56-4

>  <UNII>
VZ8RRZ51VK

>  <SYNONYMS>
3'-Deoxykanamycin B; Nebramycin 6; O-3-Amino-3-deoxy-alpha-D-glucopyranosyl-(1-4)-O-(2,6-diamino-2,3,6-trideoxy-alpha-D-ribohexopyranosyl-(1-4))-2-deoxy-D-streptamine; Tobramicina; Tobramycin; Tobramycine; Tobramycinum

$$$$
