
 OpenBabel10282417072D

 35 36  0  0  0  0  0  0  0  0999 V2000
   -1.4289   -0.2062    0.0000 O   0  0  0  0  0  0  0  0  0  0  0  0
    0.0000   -0.2062    0.0000 N   0  0  0  0  0  0  0  0  0  0  0  0
   -0.7144    1.0312    0.0000 N   0  0  0  0  0  0  0  0  0  0  0  0
   -1.4289    1.4437    0.0000 N   0  0  0  0  0  0  0  0  0  0  0  0
   -2.1434    2.6813    0.0000 N   0  0  0  0  0  0  0  0  0  0  0  0
   -0.7144    2.6813    0.0000 N   0  0  0  0  0  0  0  0  0  0  0  0
    0.0000   -1.0312    0.0000 C   0  0  0  0  0  0  0  0  0  0  0  0
    0.7144    0.2062    0.0000 C   0  0  0  0  0  0  0  0  0  0  0  0
   -0.7144   -1.4437    0.0000 C   0  0  0  0  0  0  0  0  0  0  0  0
    0.7144    1.0312    0.0000 C   0  0  0  0  0  0  0  0  0  0  0  0
    0.7144   -1.4437    0.0000 C   0  0  0  0  0  0  0  0  0  0  0  0
    1.4290   -0.2062    0.0000 C   0  0  0  0  0  0  0  0  0  0  0  0
   -0.7144    0.2062    0.0000 C   0  0  0  0  0  0  0  0  0  0  0  0
   -0.7144   -2.2687    0.0000 C   0  0  0  0  0  0  0  0  0  0  0  0
    1.4290    1.4437    0.0000 C   0  0  0  0  0  0  0  0  0  0  0  0
    0.7144   -2.2687    0.0000 C   0  0  0  0  0  0  0  0  0  0  0  0
    2.1434    0.2062    0.0000 C   0  0  0  0  0  0  0  0  0  0  0  0
    0.0000   -2.6813    0.0000 C   0  0  0  0  0  0  0  0  0  0  0  0
    2.1434    1.0312    0.0000 C   0  0  0  0  0  0  0  0  0  0  0  0
   -1.4289    2.2687    0.0000 C   0  0  0  0  0  0  0  0  0  0  0  0
    0.1382    1.5235    0.0000 H   0  0  0  0  0  0  0  0  0  0  0  0
   -2.1433    3.6658    0.0000 H   0  0  0  0  0  0  0  0  0  0  0  0
   -2.9960    2.1891    0.0000 H   0  0  0  0  0  0  0  0  0  0  0  0
    0.1382    2.1891    0.0000 H   0  0  0  0  0  0  0  0  0  0  0  0
   -0.7145    3.6658    0.0000 H   0  0  0  0  0  0  0  0  0  0  0  0
   -1.6081   -0.9277    0.0000 H   0  0  0  0  0  0  0  0  0  0  0  0
   -0.1793    1.5472    0.0000 H   0  0  0  0  0  0  0  0  0  0  0  0
    1.6081   -0.9277    0.0000 H   0  0  0  0  0  0  0  0  0  0  0  0
    1.4291   -1.2382    0.0000 H   0  0  0  0  0  0  0  0  0  0  0  0
   -1.6082   -2.7846    0.0000 H   0  0  0  0  0  0  0  0  0  0  0  0
    1.4291    2.4757    0.0000 H   0  0  0  0  0  0  0  0  0  0  0  0
    1.6082   -2.7846    0.0000 H   0  0  0  0  0  0  0  0  0  0  0  0
    3.0371   -0.3098    0.0000 H   0  0  0  0  0  0  0  0  0  0  0  0
    0.0000   -3.7133    0.0000 H   0  0  0  0  0  0  0  0  0  0  0  0
    3.0371    1.5472    0.0000 H   0  0  0  0  0  0  0  0  0  0  0  0
  1 13  2  0  0  0  0
  2  7  1  0  0  0  0
  2  8  1  0  0  0  0
  2 13  1  0  0  0  0
  3  4  1  0  0  0  0
  3 13  1  0  0  0  0
  3 21  1  0  0  0  0
  4 20  2  0  0  0  0
  5 20  1  0  0  0  0
  5 22  1  0  0  0  0
  5 23  1  0  0  0  0
  6 20  1  0  0  0  0
  6 24  1  0  0  0  0
  6 25  1  0  0  0  0
  7  9  2  0  0  0  0
  7 11  1  0  0  0  0
  8 10  2  0  0  0  0
  8 12  1  0  0  0  0
  9 14  1  0  0  0  0
  9 26  1  0  0  0  0
 10 15  1  0  0  0  0
 10 27  1  0  0  0  0
 11 16  2  0  0  0  0
 11 28  1  0  0  0  0
 12 17  2  0  0  0  0
 12 29  1  0  0  0  0
 14 18  2  0  0  0  0
 14 30  1  0  0  0  0
 15 19  2  0  0  0  0
 15 31  1  0  0  0  0
 16 18  1  0  0  0  0
 16 32  1  0  0  0  0
 17 19  1  0  0  0  0
 17 33  1  0  0  0  0
 18 34  1  0  0  0  0
 19 35  1  0  0  0  0
M  END
>  <DRUGBANK_ID>
DB07120

>  <COMMON_NAME>
3-Carbamimidamido-1,1-diphenylurea

$$$$
