
 OpenBabel10282417072D

 77 76  0  0  0  0  0  0  0  0999 V2000
   -0.5743    2.8066    0.0000 C   0  0  0  0  0  0  0  0  0  0  0  0
    0.1401    2.3941    0.0000 C   0  0  0  0  0  0  0  0  0  0  0  0
    0.1401    1.5691    0.0000 C   0  0  0  0  0  0  0  0  0  0  0  0
    0.8546    1.1566    0.0000 C   0  0  0  0  0  0  0  0  0  0  0  0
    0.8546    0.3316    0.0000 C   0  0  0  0  0  0  0  0  0  0  0  0
    1.5691   -0.0809    0.0000 C   0  0  0  0  0  0  0  0  0  0  0  0
    1.5691   -0.9059    0.0000 C   0  0  0  0  0  0  0  0  0  0  0  0
    2.2836   -1.3184    0.0000 C   0  0  0  0  0  0  0  0  0  0  0  0
    2.2836   -2.1434    0.0000 C   0  0  0  0  0  0  0  0  0  0  0  0
    2.9980   -2.5559    0.0000 C   0  0  0  0  0  0  0  0  0  0  0  0
    3.7125   -2.1434    0.0000 C   0  0  0  0  0  0  0  0  0  0  0  0
    4.4270   -2.5559    0.0000 C   0  0  0  0  0  0  0  0  0  0  0  0
    5.1414   -2.1434    0.0000 C   0  0  0  0  0  0  0  0  0  0  0  0
    5.8559   -2.5559    0.0000 C   0  0  0  0  0  0  0  0  0  0  0  0
    6.5704   -2.1434    0.0000 C   0  0  0  0  0  0  0  0  0  0  0  0
    7.2849   -2.5559    0.0000 C   0  0  0  0  0  0  0  0  0  0  0  0
    7.9993   -2.1434    0.0000 C   0  0  0  0  0  0  0  0  0  0  0  0
    8.7138   -2.5559    0.0000 C   0  0  0  0  0  0  0  0  0  0  0  0
    9.4283   -2.1434    0.0000 O   0  0  0  0  0  0  0  0  0  0  0  0
   10.1427   -2.5559    0.0000 P   0  0  3  0  0  0  0  0  0  0  0  0
    9.7302   -3.2704    0.0000 O   0  5  0  0  0  0  0  0  0  0  0  0
   10.5552   -1.8414    0.0000 O   0  0  0  0  0  0  0  0  0  0  0  0
   10.8572   -2.9684    0.0000 O   0  0  0  0  0  0  0  0  0  0  0  0
   11.5717   -2.5559    0.0000 C   0  0  0  0  0  0  0  0  0  0  0  0
   12.2862   -2.9684    0.0000 C   0  0  0  0  0  0  0  0  0  0  0  0
   13.0006   -2.5559    0.0000 N   0  3  0  0  0  0  0  0  0  0  0  0
   13.7151   -2.1434    0.0000 C   0  0  0  0  0  0  0  0  0  0  0  0
   13.4131   -3.2704    0.0000 C   0  0  0  0  0  0  0  0  0  0  0  0
   12.5881   -1.8414    0.0000 C   0  0  0  0  0  0  0  0  0  0  0  0
   -0.5743    3.8766    0.0000 H   0  0  0  0  0  0  0  0  0  0  0  0
   -1.5010    2.2716    0.0000 H   0  0  0  0  0  0  0  0  0  0  0  0
   -1.5009    3.3416    0.0000 H   0  0  0  0  0  0  0  0  0  0  0  0
    1.0668    2.9291    0.0000 H   0  0  0  0  0  0  0  0  0  0  0  0
    1.0667    1.8591    0.0000 H   0  0  0  0  0  0  0  0  0  0  0  0
   -0.7865    1.0341    0.0000 H   0  0  0  0  0  0  0  0  0  0  0  0
    0.1401    0.4991    0.0000 H   0  0  0  0  0  0  0  0  0  0  0  0
    1.7812    1.6916    0.0000 H   0  0  0  0  0  0  0  0  0  0  0  0
    1.7812    0.6216    0.0000 H   0  0  0  0  0  0  0  0  0  0  0  0
   -0.0720   -0.2034    0.0000 H   0  0  0  0  0  0  0  0  0  0  0  0
    0.8546   -0.7384    0.0000 H   0  0  0  0  0  0  0  0  0  0  0  0
    2.4957    0.4541    0.0000 H   0  0  0  0  0  0  0  0  0  0  0  0
    2.4957   -0.6159    0.0000 H   0  0  0  0  0  0  0  0  0  0  0  0
    0.6425   -1.4409    0.0000 H   0  0  0  0  0  0  0  0  0  0  0  0
    1.5691   -1.9759    0.0000 H   0  0  0  0  0  0  0  0  0  0  0  0
    3.2102   -0.7834    0.0000 H   0  0  0  0  0  0  0  0  0  0  0  0
    3.2102   -1.8534    0.0000 H   0  0  0  0  0  0  0  0  0  0  0  0
    1.3899   -2.6594    0.0000 H   0  0  0  0  0  0  0  0  0  0  0  0
    2.9980   -3.5879    0.0000 H   0  0  0  0  0  0  0  0  0  0  0  0
    3.7125   -1.0734    0.0000 H   0  0  0  0  0  0  0  0  0  0  0  0
    4.6391   -1.6084    0.0000 H   0  0  0  0  0  0  0  0  0  0  0  0
    4.4270   -3.6259    0.0000 H   0  0  0  0  0  0  0  0  0  0  0  0
    5.3537   -3.0909    0.0000 H   0  0  0  0  0  0  0  0  0  0  0  0
    5.1414   -1.0734    0.0000 H   0  0  0  0  0  0  0  0  0  0  0  0
    6.0680   -1.6084    0.0000 H   0  0  0  0  0  0  0  0  0  0  0  0
    5.8559   -3.6259    0.0000 H   0  0  0  0  0  0  0  0  0  0  0  0
    6.7825   -3.0909    0.0000 H   0  0  0  0  0  0  0  0  0  0  0  0
    6.5704   -1.0734    0.0000 H   0  0  0  0  0  0  0  0  0  0  0  0
    7.4970   -1.6084    0.0000 H   0  0  0  0  0  0  0  0  0  0  0  0
    7.2849   -3.6259    0.0000 H   0  0  0  0  0  0  0  0  0  0  0  0
    8.2116   -3.0909    0.0000 H   0  0  0  0  0  0  0  0  0  0  0  0
    7.9993   -1.0734    0.0000 H   0  0  0  0  0  0  0  0  0  0  0  0
    8.9259   -1.6084    0.0000 H   0  0  0  0  0  0  0  0  0  0  0  0
    8.7138   -3.6259    0.0000 H   0  0  0  0  0  0  0  0  0  0  0  0
    9.6404   -3.0909    0.0000 H   0  0  0  0  0  0  0  0  0  0  0  0
   11.5717   -1.4859    0.0000 H   0  0  0  0  0  0  0  0  0  0  0  0
   12.4983   -2.0209    0.0000 H   0  0  0  0  0  0  0  0  0  0  0  0
   12.2862   -4.0384    0.0000 H   0  0  0  0  0  0  0  0  0  0  0  0
   13.2129   -3.5034    0.0000 H   0  0  0  0  0  0  0  0  0  0  0  0
   14.6417   -2.6784    0.0000 H   0  0  0  0  0  0  0  0  0  0  0  0
   13.7151   -1.0734    0.0000 H   0  0  0  0  0  0  0  0  0  0  0  0
   14.6418   -1.6084    0.0000 H   0  0  0  0  0  0  0  0  0  0  0  0
   12.8781   -4.1970    0.0000 H   0  0  0  0  0  0  0  0  0  0  0  0
   14.4831   -3.2704    0.0000 H   0  0  0  0  0  0  0  0  0  0  0  0
   13.9481   -4.1971    0.0000 H   0  0  0  0  0  0  0  0  0  0  0  0
   13.1231   -0.9148    0.0000 H   0  0  0  0  0  0  0  0  0  0  0  0
   11.5181   -1.8414    0.0000 H   0  0  0  0  0  0  0  0  0  0  0  0
   12.0531   -0.9147    0.0000 H   0  0  0  0  0  0  0  0  0  0  0  0
  1  2  1  0  0  0  0
  1 30  1  0  0  0  0
  1 31  1  0  0  0  0
  1 32  1  0  0  0  0
  2  3  1  0  0  0  0
  2 33  1  0  0  0  0
  2 34  1  0  0  0  0
  3  4  1  0  0  0  0
  3 35  1  0  0  0  0
  3 36  1  0  0  0  0
  4  5  1  0  0  0  0
  4 37  1  0  0  0  0
  4 38  1  0  0  0  0
  5  6  1  0  0  0  0
  5 39  1  0  0  0  0
  5 40  1  0  0  0  0
  6  7  1  0  0  0  0
  6 41  1  0  0  0  0
  6 42  1  0  0  0  0
  7  8  1  0  0  0  0
  7 43  1  0  0  0  0
  7 44  1  0  0  0  0
  8  9  1  0  0  0  0
  8 45  1  0  0  0  0
  8 46  1  0  0  0  0
  9 10  2  0  0  0  0
  9 47  1  0  0  0  0
 10 11  1  0  0  0  0
 10 48  1  0  0  0  0
 11 12  1  0  0  0  0
 11 49  1  0  0  0  0
 11 50  1  0  0  0  0
 12 13  1  0  0  0  0
 12 51  1  0  0  0  0
 12 52  1  0  0  0  0
 13 14  1  0  0  0  0
 13 53  1  0  0  0  0
 13 54  1  0  0  0  0
 14 15  1  0  0  0  0
 14 55  1  0  0  0  0
 14 56  1  0  0  0  0
 15 16  1  0  0  0  0
 15 57  1  0  0  0  0
 15 58  1  0  0  0  0
 16 17  1  0  0  0  0
 16 59  1  0  0  0  0
 16 60  1  0  0  0  0
 17 18  1  0  0  0  0
 17 61  1  0  0  0  0
 17 62  1  0  0  0  0
 18 19  1  0  0  0  0
 18 63  1  0  0  0  0
 18 64  1  0  0  0  0
 19 20  1  0  0  0  0
 20 21  1  0  0  0  0
 20 22  2  0  0  0  0
 20 23  1  0  0  0  0
 23 24  1  0  0  0  0
 24 25  1  0  0  0  0
 24 65  1  0  0  0  0
 24 66  1  0  0  0  0
 25 26  1  0  0  0  0
 25 67  1  0  0  0  0
 25 68  1  0  0  0  0
 26 27  1  0  0  0  0
 26 28  1  0  0  0  0
 26 29  1  0  0  0  0
 27 69  1  0  0  0  0
 27 70  1  0  0  0  0
 27 71  1  0  0  0  0
 28 72  1  0  0  0  0
 28 73  1  0  0  0  0
 28 74  1  0  0  0  0
 29 75  1  0  0  0  0
 29 76  1  0  0  0  0
 29 77  1  0  0  0  0
M  CHG  2  21  -1  26   1
M  END
>  <DRUGBANK_ID>
DB17750

>  <COMMON_NAME>
Oleylphosphocholine

>  <CAS_NUMBER>
76622-80-5

>  <UNII>
Z46GXL23LX

>  <SYNONYMS>
Cis-9-octadecenylphosphocholine; Ethanaminium, 2-((hydroxy((9z)-9-octadecen-1-yloxy)phosphinyl)oxy)-n,n,n-trimethyl-, inner salt; Ethanaminium, 2-((hydroxy(9-octadecenyloxy)phosphinyl)oxy)-n,n,n-trimethyl-, inner salt, (z)-; Oleyl phosphocholine

$$$$
