
 OpenBabel10282417072D

 27 29  0  0  0  0  0  0  0  0999 V2000
    0.7145    1.2375    0.0000 C   0  0  0  0  0  0  0  0  0  0  0  0
    0.7145    2.0625    0.0000 C   0  0  0  0  0  0  0  0  0  0  0  0
    1.4289    0.8250    0.0000 C   0  0  0  0  0  0  0  0  0  0  0  0
    1.4289    2.4750    0.0000 C   0  0  0  0  0  0  0  0  0  0  0  0
    5.5925    2.7525    0.0000 C   0  0  0  0  0  0  0  0  0  0  0  0
    5.1800    3.4670    0.0000 C   0  0  0  0  0  0  0  0  0  0  0  0
    3.5724    1.2375    0.0000 C   0  0  0  0  0  0  0  0  0  0  0  0
    2.1434    1.2375    0.0000 C   0  0  0  0  0  0  0  0  0  0  0  0
    2.1434    2.0625    0.0000 C   0  0  0  0  0  0  0  0  0  0  0  0
    3.5724    2.0625    0.0000 C   0  0  3  0  0  0  0  0  0  0  0  0
    4.2868    2.4750    0.0000 C   0  0  0  0  0  0  0  0  0  0  0  0
    5.0405    2.1394    0.0000 N   0  0  0  0  0  0  0  0  0  0  0  0
    4.3731    3.2955    0.0000 N   0  0  0  0  0  0  0  0  0  0  0  0
    2.8579    0.8250    0.0000 O   0  0  0  0  0  0  0  0  0  0  0  0
    2.8579    2.4750    0.0000 O   0  0  0  0  0  0  0  0  0  0  0  0
   -0.1792    0.7215    0.0000 H   0  0  0  0  0  0  0  0  0  0  0  0
   -0.1792    2.5785    0.0000 H   0  0  0  0  0  0  0  0  0  0  0  0
    1.4289   -0.2070    0.0000 H   0  0  0  0  0  0  0  0  0  0  0  0
    1.4289    3.5070    0.0000 H   0  0  0  0  0  0  0  0  0  0  0  0
    6.6566    2.6407    0.0000 H   0  0  0  0  0  0  0  0  0  0  0  0
    5.9760    1.7536    0.0000 H   0  0  0  0  0  0  0  0  0  0  0  0
    5.6152    4.4445    0.0000 H   0  0  0  0  0  0  0  0  0  0  0  0
    4.5066    4.2986    0.0000 H   0  0  0  0  0  0  0  0  0  0  0  0
    4.4990    0.7025    0.0000 H   0  0  0  0  0  0  0  0  0  0  0  0
    3.5724    0.1675    0.0000 H   0  0  0  0  0  0  0  0  0  0  0  0
    4.4991    1.5275    0.0000 H   0  0  0  0  0  0  0  0  0  0  0  0
    3.6415    3.9543    0.0000 H   0  0  0  0  0  0  0  0  0  0  0  0
  1 16  1  0  0  0  0
  2  1  2  0  0  0  0
  2 17  1  0  0  0  0
  3  1  1  0  0  0  0
  3 18  1  0  0  0  0
  4  2  1  0  0  0  0
  4 19  1  0  0  0  0
  5 20  1  0  0  0  0
  5 21  1  0  0  0  0
  6  5  1  0  0  0  0
  6 22  1  0  0  0  0
  6 23  1  0  0  0  0
  7 24  1  0  0  0  0
  7 25  1  0  0  0  0
  8  3  2  0  0  0  0
  9  4  2  0  0  0  0
  9  8  1  0  0  0  0
 10  7  1  0  0  0  0
 10 26  1  0  0  0  0
 11 10  1  0  0  0  0
 12  5  1  0  0  0  0
 12 11  2  0  0  0  0
 13  6  1  0  0  0  0
 13 11  1  0  0  0  0
 13 27  1  0  0  0  0
 14  7  1  0  0  0  0
 14  8  1  0  0  0  0
 15  9  1  0  0  0  0
 15 10  1  0  0  0  0
M  END
>  <DRUGBANK_ID>
DB12551

>  <COMMON_NAME>
Idazoxan

>  <CAS_NUMBER>
79944-58-4

>  <UNII>
Y310PA316B

>  <SYNONYMS>
Idazoxan; idazoxano

$$$$
