
 OpenBabel10282417072D

 71 75  0  0  0  0  0  0  0  0999 V2000
   -5.1480   -0.4480    0.0000 C   0  0  0  0  0  0  0  0  0  0  0  0
   -4.3609   -0.2004    0.0000 C   0  0  0  0  0  0  0  0  0  0  0  0
   -4.3513    0.6247    0.0000 N   0  0  0  0  0  0  0  0  0  0  0  0
   -5.1359    0.8881    0.0000 C   0  0  0  0  0  0  0  0  0  0  0  0
   -5.6243    0.2241    0.0000 C   0  0  0  0  0  0  0  0  0  0  0  0
   -3.6364    1.0323    0.0000 C   0  0  0  0  0  0  0  0  0  0  0  0
   -2.9243    0.6187    0.0000 C   0  0  0  0  0  0  0  0  0  0  0  0
   -2.2112    1.0302    0.0000 N   0  0  0  0  0  0  0  0  0  0  0  0
   -1.4991    0.6166    0.0000 C   0  0  0  0  0  0  0  0  0  0  0  0
    2.7778    0.6138    0.0000 C   0  0  1  0  0  0  0  0  0  0  0  0
    2.7766   -0.2112    0.0000 C   0  0  2  0  0  0  0  0  0  0  0  0
    3.4882   -0.6208    0.0000 C   0  0  1  0  0  0  0  0  0  0  0  0
    4.2009   -0.2133    0.0000 C   0  0  0  0  0  0  0  0  0  0  0  0
    4.2021    0.6117    0.0000 C   0  0  0  0  0  0  0  0  0  0  0  0
    3.4906    1.0295    0.0000 C   0  0  0  0  0  0  0  0  0  0  0  0
    1.3526    0.6159    0.0000 C   0  0  0  0  0  0  0  0  0  0  0  0
    1.3514   -0.2091    0.0000 C   0  0  2  0  0  0  0  0  0  0  0  0
    2.0629   -0.6186    0.0000 C   0  0  0  0  0  0  0  0  0  0  0  0
    2.0653    1.0317    0.0000 C   0  0  0  0  0  0  0  0  0  0  0  0
   -0.0715    0.6180    0.0000 C   0  0  0  0  0  0  0  0  0  0  0  0
   -0.0727   -0.2070    0.0000 C   0  0  0  0  0  0  0  0  0  0  0  0
    0.6388   -0.6165    0.0000 C   0  0  0  0  0  0  0  0  0  0  0  0
    0.6412    1.0338    0.0000 C   0  0  0  0  0  0  0  0  0  0  0  0
   -1.5014   -0.2108    0.0000 C   0  0  0  0  0  0  0  0  0  0  0  0
   -0.7871   -0.6249    0.0000 C   0  0  0  0  0  0  0  0  0  0  0  0
   -0.7864    1.0284    0.0000 C   0  0  0  0  0  0  0  0  0  0  0  0
   -2.9324   -0.2022    0.0000 O   0  0  0  0  0  0  0  0  0  0  0  0
    4.9123    1.0279    0.0000 C   0  0  0  0  0  0  0  0  0  0  0  0
    5.6243    0.6143    0.0000 N   0  0  0  0  0  0  0  0  0  0  0  0
    4.9093    1.8530    0.0000 O   0  0  0  0  0  0  0  0  0  0  0  0
    3.4869   -1.4459    0.0000 N   0  0  0  0  0  0  0  0  0  0  0  0
   -0.7964   -1.4473    0.0000 F   0  0  0  0  0  0  0  0  0  0  0  0
   -0.7915    1.8573    0.0000 O   0  0  0  0  0  0  0  0  0  0  0  0
    0.6379    1.8594    0.0000 O   0  0  0  0  0  0  0  0  0  0  0  0
    2.0589    1.8573    0.0000 O   0  0  0  0  0  0  0  0  0  0  0  0
    3.4841    1.8552    0.0000 O   0  0  0  0  0  0  0  0  0  0  0  0
    2.7708    1.4395    0.0000 O   0  0  0  0  0  0  0  0  0  0  0  0
    4.9098   -0.6266    0.0000 O   0  0  0  0  0  0  0  0  0  0  0  0
    4.2008   -1.8594    0.0000 C   0  0  0  0  0  0  0  0  0  0  0  0
    2.7717   -1.8573    0.0000 C   0  0  0  0  0  0  0  0  0  0  0  0
    2.7671   -1.0359    0.0000 H   0  0  0  0  0  0  0  0  0  0  0  0
    1.3419   -1.0338    0.0000 H   0  0  0  0  0  0  0  0  0  0  0  0
   -5.4894   -1.4621    0.0000 H   0  0  0  0  0  0  0  0  0  0  0  0
   -4.3990   -1.2121    0.0000 H   0  0  0  0  0  0  0  0  0  0  0  0
   -3.5019   -0.8384    0.0000 H   0  0  0  0  0  0  0  0  0  0  0  0
   -3.4022    0.2748    0.0000 H   0  0  0  0  0  0  0  0  0  0  0  0
   -5.4586    1.9083    0.0000 H   0  0  0  0  0  0  0  0  0  0  0  0
   -4.3727    1.6380    0.0000 H   0  0  0  0  0  0  0  0  0  0  0  0
   -6.6943    0.2335    0.0000 H   0  0  0  0  0  0  0  0  0  0  0  0
   -6.1199   -0.7242    0.0000 H   0  0  0  0  0  0  0  0  0  0  0  0
   -3.6321    2.1023    0.0000 H   0  0  0  0  0  0  0  0  0  0  0  0
   -2.7080    1.5642    0.0000 H   0  0  0  0  0  0  0  0  0  0  0  0
   -2.2098    2.0147    0.0000 H   0  0  0  0  0  0  0  0  0  0  0  0
    2.5615   -1.1557    0.0000 H   0  0  0  0  0  0  0  0  0  0  0  0
    2.0610   -1.6886    0.0000 H   0  0  0  0  0  0  0  0  0  0  0  0
    2.9878   -1.1567    0.0000 H   0  0  0  0  0  0  0  0  0  0  0  0
    0.6373   -1.6865    0.0000 H   0  0  0  0  0  0  0  0  0  0  0  0
    1.5639   -1.1541    0.0000 H   0  0  0  0  0  0  0  0  0  0  0  0
   -2.3963   -0.7248    0.0000 H   0  0  0  0  0  0  0  0  0  0  0  0
    5.6217   -0.3702    0.0000 H   0  0  0  0  0  0  0  0  0  0  0  0
    6.4782    1.1043    0.0000 H   0  0  0  0  0  0  0  0  0  0  0  0
    0.0171    2.3308    0.0000 H   0  0  0  0  0  0  0  0  0  0  0  0
    2.8667    2.3321    0.0000 H   0  0  0  0  0  0  0  0  0  0  0  0
    3.6067    1.9316    0.0000 H   0  0  0  0  0  0  0  0  0  0  0  0
    4.9058   -1.5636    0.0000 H   0  0  0  0  0  0  0  0  0  0  0  0
    4.1993   -2.9294    0.0000 H   0  0  0  0  0  0  0  0  0  0  0  0
    5.1282   -1.3257    0.0000 H   0  0  0  0  0  0  0  0  0  0  0  0
    5.1267   -2.3957    0.0000 H   0  0  0  0  0  0  0  0  0  0  0  0
    1.8459   -1.3208    0.0000 H   0  0  0  0  0  0  0  0  0  0  0  0
    2.7700   -2.9273    0.0000 H   0  0  0  0  0  0  0  0  0  0  0  0
    1.8442   -2.3908    0.0000 H   0  0  0  0  0  0  0  0  0  0  0  0
  1  2  1  0  0  0  0
  1 43  1  0  0  0  0
  1 44  1  0  0  0  0
  2  3  1  0  0  0  0
  2 45  1  0  0  0  0
  2 46  1  0  0  0  0
  3  6  1  0  0  0  0
  3  4  1  0  0  0  0
  4  5  1  0  0  0  0
  4 47  1  0  0  0  0
  4 48  1  0  0  0  0
  5  1  1  0  0  0  0
  5 49  1  0  0  0  0
  5 50  1  0  0  0  0
  6  7  1  0  0  0  0
  6 51  1  0  0  0  0
  6 52  1  0  0  0  0
  7 27  2  0  0  0  0
  7  8  1  0  0  0  0
  8  9  1  0  0  0  0
  8 53  1  0  0  0  0
  9 24  2  0  0  0  0
 10 15  1  0  0  0  0
 10 37  1  1  0  0  0
 10 19  1  0  0  0  0
 10 11  1  0  0  0  0
 11 12  1  0  0  0  0
 11 41  1  1  0  0  0
 12 13  1  0  0  0  0
 12 31  1  0  0  0  0
 12 54  1  6  0  0  0
 13 14  2  0  0  0  0
 13 38  1  0  0  0  0
 14 28  1  0  0  0  0
 14 15  1  0  0  0  0
 15 36  2  0  0  0  0
 16 23  1  0  0  0  0
 16 17  1  0  0  0  0
 16 19  2  0  0  0  0
 17 18  1  0  0  0  0
 17 42  1  1  0  0  0
 18 11  1  0  0  0  0
 18 55  1  0  0  0  0
 18 56  1  0  0  0  0
 19 35  1  0  0  0  0
 20 23  1  0  0  0  0
 20 26  2  0  0  0  0
 20 21  1  0  0  0  0
 21 22  1  0  0  0  0
 22 17  1  0  0  0  0
 22 57  1  0  0  0  0
 22 58  1  0  0  0  0
 23 34  2  0  0  0  0
 24 25  1  0  0  0  0
 24 59  1  0  0  0  0
 25 21  2  0  0  0  0
 25 32  1  0  0  0  0
 26  9  1  0  0  0  0
 26 33  1  0  0  0  0
 28 29  1  0  0  0  0
 28 30  2  0  0  0  0
 29 60  1  0  0  0  0
 29 61  1  0  0  0  0
 31 39  1  0  0  0  0
 31 40  1  0  0  0  0
 33 62  1  0  0  0  0
 35 63  1  0  0  0  0
 37 64  1  0  0  0  0
 38 65  1  0  0  0  0
 39 66  1  0  0  0  0
 39 67  1  0  0  0  0
 39 68  1  0  0  0  0
 40 69  1  0  0  0  0
 40 70  1  0  0  0  0
 40 71  1  0  0  0  0
M  END
>  <DRUGBANK_ID>
DB12329

>  <COMMON_NAME>
Eravacycline

>  <CAS_NUMBER>
1207283-85-9

>  <UNII>
07896928ZC

>  <SYNONYMS>
Eravacyclina; Eravacycline; Eravacyclinum

$$$$
