
 OpenBabel10282417072D

 30 31  0  0  0  0  0  0  0  0999 V2000
    2.8579    0.8250    0.0000 C   0  0  0  0  0  0  0  0  0  0  0  0
   -0.7145    1.2375    0.0000 C   0  0  0  0  0  0  0  0  0  0  0  0
    0.0000    0.8250    0.0000 C   0  0  0  0  0  0  0  0  0  0  0  0
   -0.7145    2.0625    0.0000 C   0  0  0  0  0  0  0  0  0  0  0  0
    1.4289    0.8250    0.0000 C   0  0  0  0  0  0  0  0  0  0  0  0
    1.4289    2.4750    0.0000 C   0  0  0  0  0  0  0  0  0  0  0  0
    2.1434    1.2375    0.0000 C   0  0  0  0  0  0  0  0  0  0  0  0
    0.7145    1.2375    0.0000 C   0  0  0  0  0  0  0  0  0  0  0  0
    2.1434    2.0625    0.0000 C   0  0  0  0  0  0  0  0  0  0  0  0
    0.7145    2.0625    0.0000 C   0  0  0  0  0  0  0  0  0  0  0  0
    3.5724    2.8875    0.0000 N   0  0  0  0  0  0  0  0  0  0  0  0
   -0.3873    3.2034    0.0000 O   0  0  0  0  0  0  0  0  0  0  0  0
    0.3873    3.2034    0.0000 O   0  0  0  0  0  0  0  0  0  0  0  0
    3.2704    1.7605    0.0000 O   0  0  0  0  0  0  0  0  0  0  0  0
    2.4454    3.1895    0.0000 O   0  0  0  0  0  0  0  0  0  0  0  0
    0.0000    2.4750    0.0000 S   0  0  0  0  0  0  0  0  0  0  0  0
    2.8579    2.4750    0.0000 S   0  0  0  0  0  0  0  0  0  0  0  0
    2.8579   -0.2450    0.0000 H   0  0  0  0  0  0  0  0  0  0  0  0
    3.7845    1.3600    0.0000 H   0  0  0  0  0  0  0  0  0  0  0  0
    3.7846    0.2900    0.0000 H   0  0  0  0  0  0  0  0  0  0  0  0
   -1.6411    0.7025    0.0000 H   0  0  0  0  0  0  0  0  0  0  0  0
   -1.6411    1.7725    0.0000 H   0  0  0  0  0  0  0  0  0  0  0  0
    0.0000   -0.2450    0.0000 H   0  0  0  0  0  0  0  0  0  0  0  0
    0.9266    0.2900    0.0000 H   0  0  0  0  0  0  0  0  0  0  0  0
   -1.6411    2.5975    0.0000 H   0  0  0  0  0  0  0  0  0  0  0  0
   -0.7145    3.1325    0.0000 H   0  0  0  0  0  0  0  0  0  0  0  0
    1.4289   -0.2070    0.0000 H   0  0  0  0  0  0  0  0  0  0  0  0
    1.4289    3.5070    0.0000 H   0  0  0  0  0  0  0  0  0  0  0  0
    4.4557    2.3775    0.0000 H   0  0  0  0  0  0  0  0  0  0  0  0
    3.5724    3.9075    0.0000 H   0  0  0  0  0  0  0  0  0  0  0  0
  1 18  1  0  0  0  0
  1 19  1  0  0  0  0
  1 20  1  0  0  0  0
  2 21  1  0  0  0  0
  2 22  1  0  0  0  0
  3  2  1  0  0  0  0
  3 23  1  0  0  0  0
  3 24  1  0  0  0  0
  4  2  1  0  0  0  0
  4 25  1  0  0  0  0
  4 26  1  0  0  0  0
  5 27  1  0  0  0  0
  6 28  1  0  0  0  0
  7  1  1  0  0  0  0
  7  5  2  0  0  0  0
  8  3  1  0  0  0  0
  8  5  1  0  0  0  0
  9  6  2  0  0  0  0
  9  7  1  0  0  0  0
 10  6  1  0  0  0  0
 10  8  2  0  0  0  0
 11 29  1  0  0  0  0
 11 30  1  0  0  0  0
 16  4  1  0  0  0  0
 16 10  1  0  0  0  0
 16 12  2  0  0  0  0
 16 13  2  0  0  0  0
 17  9  1  0  0  0  0
 17 11  1  0  0  0  0
 17 14  2  0  0  0  0
 17 15  2  0  0  0  0
M  END
>  <DRUGBANK_ID>
DB13284

>  <COMMON_NAME>
Meticrane

>  <CAS_NUMBER>
1084-65-7

>  <UNII>
I7EKN1924Q

>  <SYNONYMS>
Meticrane

$$$$
