
 OpenBabel10282417072D

 41 43  0  0  1  0  0  0  0  0999 V2000
    0.0773    0.5912    0.0000 C   0  0  0  0  0  0  0  0  0  0  0  0
    1.2983   -5.6451    0.0000 C   0  0  0  0  0  0  0  0  0  0  0  0
    2.1233   -5.6459    0.0000 C   0  0  0  0  0  0  0  0  0  0  0  0
    0.8865   -4.9302    0.0000 C   0  0  0  0  0  0  0  0  0  0  0  0
    2.5365   -4.9319    0.0000 C   0  0  0  0  0  0  0  0  0  0  0  0
    1.2997   -4.2162    0.0000 C   0  0  0  0  0  0  0  0  0  0  0  0
    0.7400   -1.2658    0.0000 C   0  0  0  0  0  0  0  0  0  0  0  0
    0.1197   -1.6427    0.0000 C   0  0  0  0  0  0  0  0  0  0  0  0
    1.9893   -0.5417    0.0000 C   0  0  0  0  0  0  0  0  0  0  0  0
    1.6113   -0.9304    0.0000 C   0  0  0  0  0  0  0  0  0  0  0  0
    2.1247   -4.2170    0.0000 C   0  0  0  0  0  0  0  0  0  0  0  0
    1.0605   -0.5572    0.0000 C   0  0  2  0  0  0  0  0  0  0  0  0
    0.6396   -0.9304    0.0000 C   0  0  1  0  0  0  0  0  0  0  0  0
    2.1275   -1.3591    0.0000 C   0  0  2  0  0  0  0  0  0  0  0  0
    2.5379   -3.5029    0.0000 C   0  0  2  0  0  0  0  0  0  0  0  0
    2.1261   -2.7880    0.0000 C   0  0  0  0  0  0  0  0  0  0  0  0
    0.4999   -0.1173    0.0000 N   0  0  0  0  0  0  0  0  0  0  0  0
    3.3629   -3.5037    0.0000 O   0  0  0  0  0  0  0  0  0  0  0  0
    1.3011   -2.7872    0.0000 O   0  0  0  0  0  0  0  0  0  0  0  0
    2.5393   -2.0740    0.0000 O   0  0  0  0  0  0  0  0  0  0  0  0
    0.8706    0.2456    0.0000 H   0  0  0  0  0  0  0  0  0  0  0  0
    0.0368   -0.3671    0.0000 H   0  0  0  0  0  0  0  0  0  0  0  0
    2.9039   -1.0800    0.0000 H   0  0  0  0  0  0  0  0  0  0  0  0
    1.7129   -3.5021    0.0000 H   0  0  0  0  0  0  0  0  0  0  0  0
    0.5991    1.5254    0.0000 H   0  0  0  0  0  0  0  0  0  0  0  0
   -0.9926    0.5760    0.0000 H   0  0  0  0  0  0  0  0  0  0  0  0
   -0.4708    1.5101    0.0000 H   0  0  0  0  0  0  0  0  0  0  0  0
    0.7814   -6.5383    0.0000 H   0  0  0  0  0  0  0  0  0  0  0  0
    2.6384   -6.5402    0.0000 H   0  0  0  0  0  0  0  0  0  0  0  0
   -0.1455   -4.9292    0.0000 H   0  0  0  0  0  0  0  0  0  0  0  0
    3.5685   -4.9329    0.0000 H   0  0  0  0  0  0  0  0  0  0  0  0
    0.7846   -3.3219    0.0000 H   0  0  0  0  0  0  0  0  0  0  0  0
    1.5410   -1.9752    0.0000 H   0  0  0  0  0  0  0  0  0  0  0  0
    1.7864   -1.0421    0.0000 H   0  0  0  0  0  0  0  0  0  0  0  0
   -0.6682   -2.3667    0.0000 H   0  0  0  0  0  0  0  0  0  0  0  0
   -0.6783   -0.9299    0.0000 H   0  0  0  0  0  0  0  0  0  0  0  0
    2.6731    0.2813    0.0000 H   0  0  0  0  0  0  0  0  0  0  0  0
    3.0225   -0.8198    0.0000 H   0  0  0  0  0  0  0  0  0  0  0  0
    1.9747    0.0760    0.0000 H   0  0  0  0  0  0  0  0  0  0  0  0
    2.6438   -0.6495    0.0000 H   0  0  0  0  0  0  0  0  0  0  0  0
    3.8471   -4.3442    0.0000 H   0  0  0  0  0  0  0  0  0  0  0  0
  1 25  1  0  0  0  0
  1 26  1  0  0  0  0
  1 27  1  0  0  0  0
  2 28  1  0  0  0  0
  3  2  2  0  0  0  0
  3 29  1  0  0  0  0
  4  2  1  0  0  0  0
  4 30  1  0  0  0  0
  5  3  1  0  0  0  0
  5 31  1  0  0  0  0
  6  4  2  0  0  0  0
  6 32  1  0  0  0  0
  7 33  1  0  0  0  0
  7 34  1  0  0  0  0
  8  7  1  0  0  0  0
  8 35  1  0  0  0  0
  8 36  1  0  0  0  0
  9 37  1  0  0  0  0
  9 38  1  0  0  0  0
 10 39  1  0  0  0  0
 10 40  1  0  0  0  0
 11  5  2  0  0  0  0
 11  6  1  0  0  0  0
 12  7  1  0  0  0  0
 12  9  1  0  0  0  0
 12 21  1  6  0  0  0
 13  8  1  0  0  0  0
 13 10  1  0  0  0  0
 13 22  1  1  0  0  0
 14  9  1  0  0  0  0
 14 10  1  0  0  0  0
 14 20  1  0  0  0  0
 14 23  1  6  0  0  0
 15 11  1  0  0  0  0
 15 18  1  0  0  0  0
 15 24  1  1  0  0  0
 16 15  1  0  0  0  0
 17  1  1  0  0  0  0
 17 12  1  0  0  0  0
 17 13  1  0  0  0  0
 18 41  1  0  0  0  0
 19 16  2  0  0  0  0
 20 16  1  0  0  0  0
M  END
>  <DRUGBANK_ID>
DB02161

>  <SECONDARY_ACCESSION_NUMBERS>
EXPT01792

>  <COMMON_NAME>
Hydroxy-Phenyl-Acetic Acid 8-Methyl-8-Aza-Bicyclo[3.2.1]Oct-3-Yl Ester

$$$$
