
 OpenBabel10282417072D

 56 57  0  0  0  0  0  0  0  0999 V2000
    0.0002   -0.4125    0.0000 C   0  0  2  0  0  0  0  0  0  0  0  0
    0.0002    0.4125    0.0000 C   0  0  0  0  0  0  0  0  0  0  0  0
    0.7147    0.8249    0.0000 C   0  0  0  0  0  0  0  0  0  0  0  0
    0.7147    1.6500    0.0000 C   0  0  0  0  0  0  0  0  0  0  0  0
    0.0002    2.0625    0.0000 C   0  0  0  0  0  0  0  0  0  0  0  0
   -0.7142    1.6500    0.0000 C   0  0  0  0  0  0  0  0  0  0  0  0
   -0.7142    0.8249    0.0000 C   0  0  0  0  0  0  0  0  0  0  0  0
   -0.7142   -0.8250    0.0000 C   0  0  0  0  0  0  0  0  0  0  0  0
   -0.7142   -1.6500    0.0000 C   0  0  0  0  0  0  0  0  0  0  0  0
    0.0002   -2.0625    0.0000 O   0  0  0  0  0  0  0  0  0  0  0  0
   -1.4287   -2.0625    0.0000 C   0  0  0  0  0  0  0  0  0  0  0  0
   -2.1431   -1.6500    0.0000 C   0  0  0  0  0  0  0  0  0  0  0  0
   -2.1431   -0.8250    0.0000 C   0  0  0  0  0  0  0  0  0  0  0  0
   -2.8576   -0.4125    0.0000 C   0  0  0  0  0  0  0  0  0  0  0  0
   -3.5721   -0.8250    0.0000 O   0  0  0  0  0  0  0  0  0  0  0  0
   -1.4287   -0.4125    0.0000 C   0  0  0  0  0  0  0  0  0  0  0  0
    0.8172   -0.8250    0.0000 C   0  0  0  0  0  0  0  0  0  0  0  0
    1.4218   -0.4000    0.0000 C   0  0  0  0  0  0  0  0  0  0  0  0
    2.1434   -0.8001    0.0000 N   0  0  0  0  0  0  0  0  0  0  0  0
    2.1577   -1.6249    0.0000 C   0  0  0  0  0  0  0  0  0  0  0  0
    2.8793   -2.0248    0.0000 C   0  0  0  0  0  0  0  0  0  0  0  0
    1.4506   -2.0498    0.0000 C   0  0  0  0  0  0  0  0  0  0  0  0
    2.8506   -0.3752    0.0000 C   0  0  0  0  0  0  0  0  0  0  0  0
    2.8361    0.4496    0.0000 C   0  0  0  0  0  0  0  0  0  0  0  0
    3.5721   -0.7752    0.0000 C   0  0  0  0  0  0  0  0  0  0  0  0
    0.9115    0.1483    0.0000 H   0  0  0  0  0  0  0  0  0  0  0  0
    1.6084    0.3088    0.0000 H   0  0  0  0  0  0  0  0  0  0  0  0
    1.6084    2.1660    0.0000 H   0  0  0  0  0  0  0  0  0  0  0  0
    0.0002    3.0945    0.0000 H   0  0  0  0  0  0  0  0  0  0  0  0
   -1.6079    2.1660    0.0000 H   0  0  0  0  0  0  0  0  0  0  0  0
   -1.6079    0.3089    0.0000 H   0  0  0  0  0  0  0  0  0  0  0  0
    0.0002   -2.9995    0.0000 H   0  0  0  0  0  0  0  0  0  0  0  0
   -1.4287   -3.0945    0.0000 H   0  0  0  0  0  0  0  0  0  0  0  0
   -3.0368   -2.1660    0.0000 H   0  0  0  0  0  0  0  0  0  0  0  0
   -2.8576    0.6575    0.0000 H   0  0  0  0  0  0  0  0  0  0  0  0
   -3.7842    0.1225    0.0000 H   0  0  0  0  0  0  0  0  0  0  0  0
   -4.4121   -0.3400    0.0000 H   0  0  0  0  0  0  0  0  0  0  0  0
   -1.4287    0.6195    0.0000 H   0  0  0  0  0  0  0  0  0  0  0  0
    0.8948   -1.8922    0.0000 H   0  0  0  0  0  0  0  0  0  0  0  0
    1.7840   -1.2834    0.0000 H   0  0  0  0  0  0  0  0  0  0  0  0
    1.3649    0.6685    0.0000 H   0  0  0  0  0  0  0  0  0  0  0  0
    2.3290    0.1673    0.0000 H   0  0  0  0  0  0  0  0  0  0  0  0
    2.1764   -2.6947    0.0000 H   0  0  0  0  0  0  0  0  0  0  0  0
    2.8981   -3.0946    0.0000 H   0  0  0  0  0  0  0  0  0  0  0  0
    3.7964   -1.4736    0.0000 H   0  0  0  0  0  0  0  0  0  0  0  0
    3.8152   -2.5435    0.0000 H   0  0  0  0  0  0  0  0  0  0  0  0
    0.5147   -1.5311    0.0000 H   0  0  0  0  0  0  0  0  0  0  0  0
    1.4693   -3.1196    0.0000 H   0  0  0  0  0  0  0  0  0  0  0  0
    0.5334   -2.6009    0.0000 H   0  0  0  0  0  0  0  0  0  0  0  0
    3.7678    0.1759    0.0000 H   0  0  0  0  0  0  0  0  0  0  0  0
    3.7532    1.0008    0.0000 H   0  0  0  0  0  0  0  0  0  0  0  0
    1.9002    0.9682    0.0000 H   0  0  0  0  0  0  0  0  0  0  0  0
    2.8173    1.5194    0.0000 H   0  0  0  0  0  0  0  0  0  0  0  0
    3.5907   -1.8450    0.0000 H   0  0  0  0  0  0  0  0  0  0  0  0
    4.4893   -0.2242    0.0000 H   0  0  0  0  0  0  0  0  0  0  0  0
    4.5079   -1.2940    0.0000 H   0  0  0  0  0  0  0  0  0  0  0  0
  1  2  1  0  0  0  0
  1  8  1  0  0  0  0
  1 17  1  0  0  0  0
  1 26  1  6  0  0  0
  2  3  1  0  0  0  0
  2  7  2  0  0  0  0
  3  4  2  0  0  0  0
  3 27  1  0  0  0  0
  4  5  1  0  0  0  0
  4 28  1  0  0  0  0
  5 29  1  0  0  0  0
  6  5  2  0  0  0  0
  6 30  1  0  0  0  0
  7  6  1  0  0  0  0
  7 31  1  0  0  0  0
  8  9  1  0  0  0  0
  8 16  2  0  0  0  0
  9 10  1  0  0  0  0
  9 11  2  0  0  0  0
 10 32  1  0  0  0  0
 11 12  1  0  0  0  0
 11 33  1  0  0  0  0
 12 34  1  0  0  0  0
 13 12  2  0  0  0  0
 13 14  1  0  0  0  0
 14 15  1  0  0  0  0
 14 35  1  0  0  0  0
 14 36  1  0  0  0  0
 15 37  1  0  0  0  0
 16 13  1  0  0  0  0
 16 38  1  0  0  0  0
 17 18  1  0  0  0  0
 17 39  1  0  0  0  0
 17 40  1  0  0  0  0
 18 19  1  0  0  0  0
 18 41  1  0  0  0  0
 18 42  1  0  0  0  0
 19 20  1  0  0  0  0
 19 23  1  0  0  0  0
 20 21  1  0  0  0  0
 20 22  1  0  0  0  0
 20 43  1  0  0  0  0
 21 44  1  0  0  0  0
 21 45  1  0  0  0  0
 21 46  1  0  0  0  0
 22 47  1  0  0  0  0
 22 48  1  0  0  0  0
 22 49  1  0  0  0  0
 23 24  1  0  0  0  0
 23 25  1  0  0  0  0
 23 50  1  0  0  0  0
 24 51  1  0  0  0  0
 24 52  1  0  0  0  0
 24 53  1  0  0  0  0
 25 54  1  0  0  0  0
 25 55  1  0  0  0  0
 25 56  1  0  0  0  0
M  END
>  <DRUGBANK_ID>
DB15578

>  <COMMON_NAME>
Desfesoterodine

>  <CAS_NUMBER>
207679-81-0

>  <UNII>
YU871O78GR

>  <SYNONYMS>
5-Hydroxymethyltolterodine; Desfesoterodine

$$$$
