DYY
 OpenBabel10282417072D

 48 51  0  0  0  0  0  0  0  0999 V2000
    1.9214    0.4561    0.0000 C   0  0  0  0  0  0  0  0  0  0  0  0
    2.6358    0.8686    0.0000 C   0  0  0  0  0  0  0  0  0  0  0  0
    3.3503    0.4561    0.0000 O   0  0  0  0  0  0  0  0  0  0  0  0
    4.0648    0.8686    0.0000 C   0  0  0  0  0  0  0  0  0  0  0  0
    4.0648    1.6936    0.0000 C   0  0  0  0  0  0  0  0  0  0  0  0
    3.3503    2.1061    0.0000 O   0  0  0  0  0  0  0  0  0  0  0  0
    2.6358    1.6936    0.0000 C   0  0  0  0  0  0  0  0  0  0  0  0
    1.9214    2.1061    0.0000 C   0  0  0  0  0  0  0  0  0  0  0  0
    1.2069    1.6936    0.0000 C   0  0  0  0  0  0  0  0  0  0  0  0
    1.2069    0.8686    0.0000 C   0  0  0  0  0  0  0  0  0  0  0  0
    0.4924    0.4561    0.0000 S   0  0  0  0  0  0  0  0  0  0  0  0
    0.9049   -0.2584    0.0000 O   0  0  0  0  0  0  0  0  0  0  0  0
    0.0799    1.1706    0.0000 O   0  0  0  0  0  0  0  0  0  0  0  0
   -0.2220    0.0436    0.0000 N   0  0  0  0  0  0  0  0  0  0  0  0
   -0.2220   -0.7814    0.0000 C   0  0  0  0  0  0  0  0  0  0  0  0
   -0.9365   -1.1939    0.0000 C   0  0  0  0  0  0  0  0  0  0  0  0
   -0.9365    0.4561    0.0000 C   0  0  0  0  0  0  0  0  0  0  0  0
   -1.6510    0.0436    0.0000 C   0  0  0  0  0  0  0  0  0  0  0  0
   -1.6510   -0.7814    0.0000 N   0  0  0  0  0  0  0  0  0  0  0  0
   -2.3655   -1.1939    0.0000 S   0  0  0  0  0  0  0  0  0  0  0  0
   -2.7780   -0.4794    0.0000 O   0  0  0  0  0  0  0  0  0  0  0  0
   -1.9530   -1.9084    0.0000 O   0  0  0  0  0  0  0  0  0  0  0  0
   -3.0799   -1.6064    0.0000 C   0  0  0  0  0  0  0  0  0  0  0  0
   -3.7944   -1.1939    0.0000 C   0  0  0  0  0  0  0  0  0  0  0  0
   -3.7944   -0.3689    0.0000 F   0  0  0  0  0  0  0  0  0  0  0  0
   -4.5089   -1.6064    0.0000 C   0  0  0  0  0  0  0  0  0  0  0  0
   -4.5089   -2.4314    0.0000 C   0  0  0  0  0  0  0  0  0  0  0  0
   -3.7944   -2.8439    0.0000 C   0  0  0  0  0  0  0  0  0  0  0  0
   -3.0799   -2.4314    0.0000 C   0  0  0  0  0  0  0  0  0  0  0  0
   -2.3655   -2.8439    0.0000 F   0  0  0  0  0  0  0  0  0  0  0  0
    1.9214   -0.5759    0.0000 H   0  0  0  0  0  0  0  0  0  0  0  0
    4.9914    0.3336    0.0000 H   0  0  0  0  0  0  0  0  0  0  0  0
    4.9914    1.4036    0.0000 H   0  0  0  0  0  0  0  0  0  0  0  0
    4.9914    2.2286    0.0000 H   0  0  0  0  0  0  0  0  0  0  0  0
    4.0648    2.7636    0.0000 H   0  0  0  0  0  0  0  0  0  0  0  0
    1.9214    3.1381    0.0000 H   0  0  0  0  0  0  0  0  0  0  0  0
    0.3132    2.2096    0.0000 H   0  0  0  0  0  0  0  0  0  0  0  0
    0.7046   -1.3164    0.0000 H   0  0  0  0  0  0  0  0  0  0  0  0
   -0.2220   -1.8514    0.0000 H   0  0  0  0  0  0  0  0  0  0  0  0
   -0.9365   -2.2639    0.0000 H   0  0  0  0  0  0  0  0  0  0  0  0
   -1.8631   -1.7289    0.0000 H   0  0  0  0  0  0  0  0  0  0  0  0
   -0.9365    1.5261    0.0000 H   0  0  0  0  0  0  0  0  0  0  0  0
   -1.8631    0.9911    0.0000 H   0  0  0  0  0  0  0  0  0  0  0  0
   -2.5776    0.5786    0.0000 H   0  0  0  0  0  0  0  0  0  0  0  0
   -2.5776   -0.4914    0.0000 H   0  0  0  0  0  0  0  0  0  0  0  0
   -5.4026   -1.0904    0.0000 H   0  0  0  0  0  0  0  0  0  0  0  0
   -5.4026   -2.9474    0.0000 H   0  0  0  0  0  0  0  0  0  0  0  0
   -3.7944   -3.8759    0.0000 H   0  0  0  0  0  0  0  0  0  0  0  0
  1 10  1  0  0  0  0
  1 31  1  0  0  0  0
  2  1  2  0  0  0  0
  2  7  1  0  0  0  0
  3  2  1  0  0  0  0
  4  3  1  0  0  0  0
  4 32  1  0  0  0  0
  4 33  1  0  0  0  0
  5  4  1  0  0  0  0
  5  6  1  0  0  0  0
  5 34  1  0  0  0  0
  5 35  1  0  0  0  0
  6  7  1  0  0  0  0
  7  8  2  0  0  0  0
  8  9  1  0  0  0  0
  8 36  1  0  0  0  0
  9 37  1  0  0  0  0
 10  9  2  0  0  0  0
 10 11  1  0  0  0  0
 11 13  2  0  0  0  0
 12 11  2  0  0  0  0
 14 11  1  0  0  0  0
 14 15  1  0  0  0  0
 15 38  1  0  0  0  0
 15 39  1  0  0  0  0
 16 15  1  0  0  0  0
 16 40  1  0  0  0  0
 16 41  1  0  0  0  0
 17 14  1  0  0  0  0
 17 42  1  0  0  0  0
 17 43  1  0  0  0  0
 18 17  1  0  0  0  0
 18 19  1  0  0  0  0
 18 44  1  0  0  0  0
 18 45  1  0  0  0  0
 19 16  1  0  0  0  0
 20 19  1  0  0  0  0
 20 21  2  0  0  0  0
 20 23  1  0  0  0  0
 22 20  2  0  0  0  0
 23 29  1  0  0  0  0
 24 23  2  0  0  0  0
 24 26  1  0  0  0  0
 25 24  1  0  0  0  0
 26 27  2  0  0  0  0
 26 46  1  0  0  0  0
 27 28  1  0  0  0  0
 27 47  1  0  0  0  0
 28 48  1  0  0  0  0
 29 28  2  0  0  0  0
 29 30  1  0  0  0  0
M  END
>  <DRUGBANK_ID>
DB07692

>  <COMMON_NAME>
1-[(2,6-difluorophenyl)sulfonyl]-4-(2,3-dihydro-1,4-benzodioxin-6-ylsulfonyl)piperazine

$$$$
