PZF
 OpenBabel10282417072D

 47 50  0  0  0  0  0  0  0  0999 V2000
    0.3465   -3.8432    0.0000 N   0  0  0  0  0  0  0  0  0  0  0  0
   -0.4740   -3.9294    0.0000 C   0  0  0  0  0  0  0  0  0  0  0  0
   -0.6234   -2.5083    0.0000 C   0  0  0  0  0  0  0  0  0  0  0  0
   -0.5141    1.6897    0.0000 C   0  0  2  0  0  0  0  0  0  0  0  0
   -0.5141    2.5147    0.0000 C   0  0  0  0  0  0  0  0  0  0  0  0
    1.6887   -0.8285    0.0000 C   0  0  0  0  0  0  0  0  0  0  0  0
   -0.9266    0.4202    0.0000 C   0  0  0  0  0  0  0  0  0  0  0  0
   -0.3246   -5.3505    0.0000 C   0  0  0  0  0  0  0  0  0  0  0  0
    0.2004    2.9272    0.0000 C   0  0  0  0  0  0  0  0  0  0  0  0
   -0.5141    4.9897    0.0000 F   0  0  0  0  0  0  0  0  0  0  0  0
   -0.5141    4.1647    0.0000 C   0  0  0  0  0  0  0  0  0  0  0  0
   -1.2286    3.7522    0.0000 C   0  0  0  0  0  0  0  0  0  0  0  0
   -1.2286    2.9272    0.0000 C   0  0  0  0  0  0  0  0  0  0  0  0
   -1.9431    2.5147    0.0000 F   0  0  0  0  0  0  0  0  0  0  0  0
    0.2004    3.7522    0.0000 C   0  0  0  0  0  0  0  0  0  0  0  0
    0.9148    4.1647    0.0000 F   0  0  0  0  0  0  0  0  0  0  0  0
   -1.1816    1.2048    0.0000 C   0  0  2  0  0  0  0  0  0  0  0  0
   -1.9662    1.4597    0.0000 N   0  0  0  0  0  0  0  0  0  0  0  0
   -0.1016    0.4202    0.0000 N   0  0  0  0  0  0  0  0  0  0  0  0
    0.1533    1.2048    0.0000 C   0  0  0  0  0  0  0  0  0  0  0  0
    0.3833   -0.2473    0.0000 C   0  0  0  0  0  0  0  0  0  0  0  0
    1.2038   -0.1610    0.0000 N   0  0  0  0  0  0  0  0  0  0  0  0
    0.0478   -1.0010    0.0000 C   0  0  0  0  0  0  0  0  0  0  0  0
    0.5327   -1.6684    0.0000 C   0  0  0  0  0  0  0  0  0  0  0  0
    1.3532   -1.5822    0.0000 N   0  0  0  0  0  0  0  0  0  0  0  0
    0.1971   -2.4221    0.0000 C   0  0  0  0  0  0  0  0  0  0  0  0
   -0.9589   -3.2620    0.0000 C   0  0  0  0  0  0  0  0  0  0  0  0
   -0.8096   -4.6831    0.0000 O   0  0  0  0  0  0  0  0  0  0  0  0
    0.6820   -3.0895    0.0000 C   0  0  0  0  0  0  0  0  0  0  0  0
    0.0062    1.9548    0.0000 H   0  0  0  0  0  0  0  0  0  0  0  0
   -1.2729    1.7815    0.0000 H   0  0  0  0  0  0  0  0  0  0  0  0
   -1.2300   -1.6734    0.0000 H   0  0  0  0  0  0  0  0  0  0  0  0
    2.7150   -0.7206    0.0000 H   0  0  0  0  0  0  0  0  0  0  0  0
   -1.5555   -0.4455    0.0000 H   0  0  0  0  0  0  0  0  0  0  0  0
   -1.9834    0.5875    0.0000 H   0  0  0  0  0  0  0  0  0  0  0  0
   -0.7597   -6.3280    0.0000 H   0  0  0  0  0  0  0  0  0  0  0  0
    0.7395   -5.2385    0.0000 H   0  0  0  0  0  0  0  0  0  0  0  0
    0.3044   -6.2161    0.0000 H   0  0  0  0  0  0  0  0  0  0  0  0
    1.0941    2.4112    0.0000 H   0  0  0  0  0  0  0  0  0  0  0  0
   -2.1223    4.2682    0.0000 H   0  0  0  0  0  0  0  0  0  0  0  0
   -2.1783    2.4574    0.0000 H   0  0  0  0  0  0  0  0  0  0  0  0
   -2.7242    0.7772    0.0000 H   0  0  0  0  0  0  0  0  0  0  0  0
    1.1709    1.5355    0.0000 H   0  0  0  0  0  0  0  0  0  0  0  0
    0.9099    0.4482    0.0000 H   0  0  0  0  0  0  0  0  0  0  0  0
   -0.9785   -1.1089    0.0000 H   0  0  0  0  0  0  0  0  0  0  0  0
   -1.9852   -3.3699    0.0000 H   0  0  0  0  0  0  0  0  0  0  0  0
    1.7083   -2.9816    0.0000 H   0  0  0  0  0  0  0  0  0  0  0  0
  1  2  1  0  0  0  0
  1 29  2  0  0  0  0
  2 28  1  0  0  0  0
  2 27  2  0  0  0  0
  3 27  1  0  0  0  0
  3 26  2  0  0  0  0
  3 32  1  0  0  0  0
  4 20  1  0  0  0  0
  4 17  1  0  0  0  0
  4  5  1  0  0  0  0
  4 30  1  6  0  0  0
  5 13  2  0  0  0  0
  5  9  1  0  0  0  0
  6 25  1  0  0  0  0
  6 22  2  0  0  0  0
  6 33  1  0  0  0  0
  7 19  1  0  0  0  0
  7 17  1  0  0  0  0
  7 34  1  0  0  0  0
  7 35  1  0  0  0  0
  8 28  1  0  0  0  0
  8 36  1  0  0  0  0
  8 37  1  0  0  0  0
  8 38  1  0  0  0  0
  9 15  2  0  0  0  0
  9 39  1  0  0  0  0
 10 11  1  0  0  0  0
 11 12  2  0  0  0  0
 11 15  1  0  0  0  0
 12 13  1  0  0  0  0
 12 40  1  0  0  0  0
 13 14  1  0  0  0  0
 15 16  1  0  0  0  0
 17 18  1  0  0  0  0
 17 31  1  1  0  0  0
 18 41  1  0  0  0  0
 18 42  1  0  0  0  0
 19 21  1  0  0  0  0
 19 20  1  0  0  0  0
 20 43  1  0  0  0  0
 20 44  1  0  0  0  0
 21 23  2  0  0  0  0
 21 22  1  0  0  0  0
 23 24  1  0  0  0  0
 23 45  1  0  0  0  0
 24 26  1  0  0  0  0
 24 25  2  0  0  0  0
 26 29  1  0  0  0  0
 27 46  1  0  0  0  0
 29 47  1  0  0  0  0
M  END
>  <DRUGBANK_ID>
DB08445

>  <COMMON_NAME>
(3R,4S)-1-[6-(6-METHOXYPYRIDIN-3-YL)PYRIMIDIN-4-YL]-4-(2,4,5-TRIFLUOROPHENYL)PYRROLIDIN-3-AMINE

$$$$
