
 OpenBabel10282417072D

 92 94  0  0  1  0  0  0  0  0999 V2000
   -9.8542   -0.4218    0.0000 C   0  0  0  0  0  0  0  0  0  0  0  0
   -9.1398   -0.0093    0.0000 C   0  0  0  0  0  0  0  0  0  0  0  0
   -8.4253   -0.4218    0.0000 C   0  0  0  0  0  0  0  0  0  0  0  0
   -8.4253   -1.2468    0.0000 O   0  0  0  0  0  0  0  0  0  0  0  0
   -7.7108   -0.0093    0.0000 S   0  0  0  0  0  0  0  0  0  0  0  0
   -6.9963   -0.4218    0.0000 C   0  0  0  0  0  0  0  0  0  0  0  0
   -6.2819   -0.0093    0.0000 C   0  0  0  0  0  0  0  0  0  0  0  0
   -5.5674   -0.4218    0.0000 N   0  0  0  0  0  0  0  0  0  0  0  0
   -4.8529   -0.0093    0.0000 C   0  0  0  0  0  0  0  0  0  0  0  0
   -4.8529    0.8156    0.0000 O   0  0  0  0  0  0  0  0  0  0  0  0
   -4.1385   -0.4218    0.0000 C   0  0  0  0  0  0  0  0  0  0  0  0
   -3.4240   -0.0093    0.0000 C   0  0  0  0  0  0  0  0  0  0  0  0
   -2.7095   -0.4218    0.0000 N   0  0  0  0  0  0  0  0  0  0  0  0
   -1.9950   -0.0093    0.0000 C   0  0  0  0  0  0  0  0  0  0  0  0
   -1.9950    0.8156    0.0000 O   0  0  0  0  0  0  0  0  0  0  0  0
   -1.2806   -0.4218    0.0000 C   0  0  2  0  0  0  0  0  0  0  0  0
   -1.2806   -1.2468    0.0000 O   0  0  0  0  0  0  0  0  0  0  0  0
   -0.5661   -0.0093    0.0000 C   0  0  0  0  0  0  0  0  0  0  0  0
   -0.1536   -0.7238    0.0000 C   0  0  0  0  0  0  0  0  0  0  0  0
   -0.9786    0.7051    0.0000 C   0  0  0  0  0  0  0  0  0  0  0  0
    0.1483    0.4031    0.0000 C   0  0  0  0  0  0  0  0  0  0  0  0
    0.8627   -0.0093    0.0000 O   0  0  0  0  0  0  0  0  0  0  0  0
    1.5772    0.4031    0.0000 P   0  0  3  0  0  0  0  0  0  0  0  0
    1.9897   -0.3113    0.0000 O   0  0  0  0  0  0  0  0  0  0  0  0
    1.1647    1.1176    0.0000 O   0  0  0  0  0  0  0  0  0  0  0  0
    2.2917    0.8156    0.0000 O   0  0  0  0  0  0  0  0  0  0  0  0
    3.0061    0.4031    0.0000 P   0  0  3  0  0  0  0  0  0  0  0  0
    2.5936   -0.3113    0.0000 O   0  0  0  0  0  0  0  0  0  0  0  0
    3.4186    1.1176    0.0000 O   0  0  0  0  0  0  0  0  0  0  0  0
    3.7206   -0.0093    0.0000 O   0  0  0  0  0  0  0  0  0  0  0  0
    4.4351    0.4031    0.0000 C   0  0  0  0  0  0  0  0  0  0  0  0
    5.1496   -0.0093    0.0000 C   0  0  1  0  0  0  0  0  0  0  0  0
    5.9032    0.3262    0.0000 O   0  0  0  0  0  0  0  0  0  0  0  0
    6.4553   -0.2868    0.0000 C   0  0  2  0  0  0  0  0  0  0  0  0
    6.0428   -1.0013    0.0000 C   0  0  2  0  0  0  0  0  0  0  0  0
    6.3783   -1.7550    0.0000 O   0  0  0  0  0  0  0  0  0  0  0  0
    5.2358   -0.8298    0.0000 C   0  0  2  0  0  0  0  0  0  0  0  0
    4.6227   -1.3818    0.0000 O   0  0  0  0  0  0  0  0  0  0  0  0
    3.8381   -1.1269    0.0000 P   0  0  0  0  0  0  0  0  0  0  0  0
    4.0930   -0.3422    0.0000 O   0  0  0  0  0  0  0  0  0  0  0  0
    3.5831   -1.9115    0.0000 O   0  0  0  0  0  0  0  0  0  0  0  0
    3.0535   -0.8719    0.0000 O   0  0  0  0  0  0  0  0  0  0  0  0
    7.2758   -0.2006    0.0000 N   0  0  0  0  0  0  0  0  0  0  0  0
    7.8278   -0.8137    0.0000 C   0  0  0  0  0  0  0  0  0  0  0  0
    8.5815   -0.4781    0.0000 N   0  0  0  0  0  0  0  0  0  0  0  0
    8.4952    0.3422    0.0000 C   0  0  0  0  0  0  0  0  0  0  0  0
    7.6883    0.5138    0.0000 C   0  0  0  0  0  0  0  0  0  0  0  0
    7.4333    1.2984    0.0000 N   0  0  0  0  0  0  0  0  0  0  0  0
    7.9853    1.9115    0.0000 C   0  0  0  0  0  0  0  0  0  0  0  0
    8.7923    1.7400    0.0000 N   0  0  0  0  0  0  0  0  0  0  0  0
    9.0473    0.9553    0.0000 C   0  0  0  0  0  0  0  0  0  0  0  0
    9.8542    0.7838    0.0000 N   0  0  0  0  0  0  0  0  0  0  0  0
  -10.7809    0.1132    0.0000 H   0  0  0  0  0  0  0  0  0  0  0  0
   -9.8542   -1.4918    0.0000 H   0  0  0  0  0  0  0  0  0  0  0  0
  -10.7808   -0.9568    0.0000 H   0  0  0  0  0  0  0  0  0  0  0  0
   -9.1398    1.0607    0.0000 H   0  0  0  0  0  0  0  0  0  0  0  0
   -8.2132    0.5257    0.0000 H   0  0  0  0  0  0  0  0  0  0  0  0
   -6.9963   -1.4918    0.0000 H   0  0  0  0  0  0  0  0  0  0  0  0
   -6.0696   -0.9568    0.0000 H   0  0  0  0  0  0  0  0  0  0  0  0
   -6.2819    1.0607    0.0000 H   0  0  0  0  0  0  0  0  0  0  0  0
   -5.3553    0.5257    0.0000 H   0  0  0  0  0  0  0  0  0  0  0  0
   -5.5674   -1.4063    0.0000 H   0  0  0  0  0  0  0  0  0  0  0  0
   -4.1385   -1.4918    0.0000 H   0  0  0  0  0  0  0  0  0  0  0  0
   -3.2119   -0.9568    0.0000 H   0  0  0  0  0  0  0  0  0  0  0  0
   -3.4240    1.0607    0.0000 H   0  0  0  0  0  0  0  0  0  0  0  0
   -2.4974    0.5257    0.0000 H   0  0  0  0  0  0  0  0  0  0  0  0
   -2.7095   -1.4063    0.0000 H   0  0  0  0  0  0  0  0  0  0  0  0
   -2.2073   -0.9568    0.0000 H   0  0  0  0  0  0  0  0  0  0  0  0
   -2.1206   -1.7318    0.0000 H   0  0  0  0  0  0  0  0  0  0  0  0
   -0.6886   -1.6504    0.0000 H   0  0  0  0  0  0  0  0  0  0  0  0
    0.9164   -0.7238    0.0000 H   0  0  0  0  0  0  0  0  0  0  0  0
    0.3814   -1.6505    0.0000 H   0  0  0  0  0  0  0  0  0  0  0  0
   -0.4436    1.6318    0.0000 H   0  0  0  0  0  0  0  0  0  0  0  0
   -2.0486    0.7051    0.0000 H   0  0  0  0  0  0  0  0  0  0  0  0
   -1.5136    1.6317    0.0000 H   0  0  0  0  0  0  0  0  0  0  0  0
    0.1483    1.4731    0.0000 H   0  0  0  0  0  0  0  0  0  0  0  0
    1.0749    0.9381    0.0000 H   0  0  0  0  0  0  0  0  0  0  0  0
    1.5047   -1.1514    0.0000 H   0  0  0  0  0  0  0  0  0  0  0  0
    1.6236   -0.3113    0.0000 H   0  0  0  0  0  0  0  0  0  0  0  0
    4.4351    1.4731    0.0000 H   0  0  0  0  0  0  0  0  0  0  0  0
    5.3617    0.9382    0.0000 H   0  0  0  0  0  0  0  0  0  0  0  0
    5.2055    1.0592    0.0000 H   0  0  0  0  0  0  0  0  0  0  0  0
    6.8387    0.7121    0.0000 H   0  0  0  0  0  0  0  0  0  0  0  0
    7.1113   -1.0573    0.0000 H   0  0  0  0  0  0  0  0  0  0  0  0
    5.8081   -2.5397    0.0000 H   0  0  0  0  0  0  0  0  0  0  0  0
    5.5127   -1.8633    0.0000 H   0  0  0  0  0  0  0  0  0  0  0  0
    5.0418   -0.1405    0.0000 H   0  0  0  0  0  0  0  0  0  0  0  0
    2.6343   -2.1131    0.0000 H   0  0  0  0  0  0  0  0  0  0  0  0
    7.6132   -1.8231    0.0000 H   0  0  0  0  0  0  0  0  0  0  0  0
    7.6664    2.8930    0.0000 H   0  0  0  0  0  0  0  0  0  0  0  0
   10.1584   -0.1525    0.0000 H   0  0  0  0  0  0  0  0  0  0  0  0
   10.5129    1.5154    0.0000 H   0  0  0  0  0  0  0  0  0  0  0  0
  1  2  1  0  0  0  0
  1 53  1  0  0  0  0
  1 54  1  0  0  0  0
  1 55  1  0  0  0  0
  2  3  1  0  0  0  0
  2 56  1  0  0  0  0
  2 57  1  0  0  0  0
  3  4  2  0  0  0  0
  3  5  1  0  0  0  0
  5  6  1  0  0  0  0
  6  7  1  0  0  0  0
  6 58  1  0  0  0  0
  6 59  1  0  0  0  0
  7  8  1  0  0  0  0
  7 60  1  0  0  0  0
  7 61  1  0  0  0  0
  8  9  1  0  0  0  0
  8 62  1  0  0  0  0
  9 10  2  0  0  0  0
  9 11  1  0  0  0  0
 11 12  1  0  0  0  0
 11 63  1  0  0  0  0
 11 64  1  0  0  0  0
 12 13  1  0  0  0  0
 12 65  1  0  0  0  0
 12 66  1  0  0  0  0
 13 14  1  0  0  0  0
 13 67  1  0  0  0  0
 14 15  2  0  0  0  0
 16 14  1  0  0  0  0
 16 17  1  0  0  0  0
 16 18  1  0  0  0  0
 16 68  1  6  0  0  0
 17 69  1  0  0  0  0
 18 19  1  0  0  0  0
 18 20  1  0  0  0  0
 18 21  1  0  0  0  0
 19 70  1  0  0  0  0
 19 71  1  0  0  0  0
 19 72  1  0  0  0  0
 20 73  1  0  0  0  0
 20 74  1  0  0  0  0
 20 75  1  0  0  0  0
 21 22  1  0  0  0  0
 21 76  1  0  0  0  0
 21 77  1  0  0  0  0
 22 23  1  0  0  0  0
 23 24  1  0  0  0  0
 23 25  2  0  0  0  0
 23 26  1  0  0  0  0
 24 78  1  0  0  0  0
 26 27  1  0  0  0  0
 27 28  1  0  0  0  0
 27 29  2  0  0  0  0
 27 30  1  0  0  0  0
 28 79  1  0  0  0  0
 30 31  1  0  0  0  0
 31 80  1  0  0  0  0
 31 81  1  0  0  0  0
 32 31  1  0  0  0  0
 32 33  1  0  0  0  0
 32 82  1  6  0  0  0
 34 33  1  0  0  0  0
 34 43  1  0  0  0  0
 34 83  1  6  0  0  0
 35 34  1  0  0  0  0
 35 36  1  0  0  0  0
 35 37  1  0  0  0  0
 35 84  1  1  0  0  0
 36 85  1  0  0  0  0
 37 32  1  0  0  0  0
 37 38  1  0  0  0  0
 37 86  1  1  0  0  0
 38 39  1  0  0  0  0
 39 40  1  0  0  0  0
 39 41  1  0  0  0  0
 39 42  2  0  0  0  0
 40 87  1  0  0  0  0
 41 88  1  0  0  0  0
 43 44  1  0  0  0  0
 43 47  1  0  0  0  0
 44 45  2  0  0  0  0
 44 89  1  0  0  0  0
 45 46  1  0  0  0  0
 46 47  2  0  0  0  0
 46 51  1  0  0  0  0
 47 48  1  0  0  0  0
 48 49  2  0  0  0  0
 49 50  1  0  0  0  0
 49 90  1  0  0  0  0
 50 51  2  0  0  0  0
 51 52  1  0  0  0  0
 52 91  1  0  0  0  0
 52 92  1  0  0  0  0
M  END
>  <DRUGBANK_ID>
DB02912

>  <SECONDARY_ACCESSION_NUMBERS>
EXPT00059

>  <COMMON_NAME>
Propanoyl-CoA

>  <CAS_NUMBER>
317-66-8

>  <UNII>
H7HQA57V5H

>  <SYNONYMS>
propanoyl-coenzyme A; Propionyl coenzyme A; Propionyl-CoA; Propionyl-coenzyme A; S-propanoyl-CoA; S-propanoyl-coenzyme A; S-Propionyl-coenzym-A; S-Propionylcoenzyme A

$$$$
