BI9
 OpenBabel10282417072D

 58 61  0  0  0  0  0  0  0  0999 V2000
    8.3053   -1.1675    0.0000 C   0  0  0  0  0  0  0  0  0  0  0  0
    9.0197   -1.5800    0.0000 C   0  0  0  0  0  0  0  0  0  0  0  0
    9.0197   -2.4050    0.0000 O   0  0  0  0  0  0  0  0  0  0  0  0
    8.3053   -2.8175    0.0000 C   0  0  0  0  0  0  0  0  0  0  0  0
    7.5908   -2.4050    0.0000 C   0  0  0  0  0  0  0  0  0  0  0  0
    7.5908   -1.5800    0.0000 N   0  0  0  0  0  0  0  0  0  0  0  0
    6.8763   -1.1675    0.0000 C   0  0  0  0  0  0  0  0  0  0  0  0
    6.1619   -1.5800    0.0000 C   0  0  0  0  0  0  0  0  0  0  0  0
    5.4474   -1.1675    0.0000 C   0  0  0  0  0  0  0  0  0  0  0  0
    4.7329   -1.5800    0.0000 O   0  0  0  0  0  0  0  0  0  0  0  0
    4.0184   -1.1675    0.0000 C   0  0  0  0  0  0  0  0  0  0  0  0
    6.8763   -0.3425    0.0000 C   0  0  0  0  0  0  0  0  0  0  0  0
    6.1619    0.0700    0.0000 C   0  0  0  0  0  0  0  0  0  0  0  0
    5.4474   -0.3425    0.0000 C   0  0  0  0  0  0  0  0  0  0  0  0
    4.7329    0.0700    0.0000 N   0  0  0  0  0  0  0  0  0  0  0  0
    4.7329    0.8950    0.0000 C   0  0  0  0  0  0  0  0  0  0  0  0
    4.0184    1.3075    0.0000 N   0  0  0  0  0  0  0  0  0  0  0  0
    5.4474    1.3075    0.0000 N   0  0  0  0  0  0  0  0  0  0  0  0
    5.4474    2.1325    0.0000 C   0  0  0  0  0  0  0  0  0  0  0  0
    4.7329    2.5450    0.0000 C   0  0  0  0  0  0  0  0  0  0  0  0
    4.7329    3.3700    0.0000 Cl  0  0  0  0  0  0  0  0  0  0  0  0
    4.0184    2.1325    0.0000 C   0  0  0  0  0  0  0  0  0  0  0  0
    3.3040    2.5450    0.0000 N   0  0  0  0  0  0  0  0  0  0  0  0
    2.5895    2.1325    0.0000 C   0  0  0  0  0  0  0  0  0  0  0  0
    2.5895    1.3075    0.0000 C   0  0  0  0  0  0  0  0  0  0  0  0
    1.8750    0.8950    0.0000 C   0  0  0  0  0  0  0  0  0  0  0  0
    1.1606    1.3075    0.0000 C   0  0  0  0  0  0  0  0  0  0  0  0
    1.1606    2.1325    0.0000 C   0  0  0  0  0  0  0  0  0  0  0  0
    1.8750    2.5450    0.0000 C   0  0  0  0  0  0  0  0  0  0  0  0
    1.8750    3.3700    0.0000 C   0  0  0  0  0  0  0  0  0  0  0  0
    1.1606    3.7825    0.0000 O   0  0  0  0  0  0  0  0  0  0  0  0
    2.5895    3.7825    0.0000 N   0  0  0  0  0  0  0  0  0  0  0  0
    2.5895    4.6075    0.0000 C   0  0  0  0  0  0  0  0  0  0  0  0
    8.3053   -0.0975    0.0000 H   0  0  0  0  0  0  0  0  0  0  0  0
    7.3787   -0.6325    0.0000 H   0  0  0  0  0  0  0  0  0  0  0  0
    9.9464   -1.0450    0.0000 H   0  0  0  0  0  0  0  0  0  0  0  0
    9.9463   -2.1150    0.0000 H   0  0  0  0  0  0  0  0  0  0  0  0
    8.3053   -3.8875    0.0000 H   0  0  0  0  0  0  0  0  0  0  0  0
    7.3787   -3.3525    0.0000 H   0  0  0  0  0  0  0  0  0  0  0  0
    6.6642   -2.9400    0.0000 H   0  0  0  0  0  0  0  0  0  0  0  0
    6.6642   -1.8700    0.0000 H   0  0  0  0  0  0  0  0  0  0  0  0
    6.1619   -2.6120    0.0000 H   0  0  0  0  0  0  0  0  0  0  0  0
    4.0184   -0.0975    0.0000 H   0  0  0  0  0  0  0  0  0  0  0  0
    3.0918   -1.7025    0.0000 H   0  0  0  0  0  0  0  0  0  0  0  0
    3.0917   -0.6325    0.0000 H   0  0  0  0  0  0  0  0  0  0  0  0
    7.7700    0.1735    0.0000 H   0  0  0  0  0  0  0  0  0  0  0  0
    6.1619    1.1020    0.0000 H   0  0  0  0  0  0  0  0  0  0  0  0
    3.8803   -0.4223    0.0000 H   0  0  0  0  0  0  0  0  0  0  0  0
    6.3411    2.6485    0.0000 H   0  0  0  0  0  0  0  0  0  0  0  0
    3.3040    3.5295    0.0000 H   0  0  0  0  0  0  0  0  0  0  0  0
    3.4832    0.7915    0.0000 H   0  0  0  0  0  0  0  0  0  0  0  0
    1.8750   -0.1370    0.0000 H   0  0  0  0  0  0  0  0  0  0  0  0
    0.2669    0.7915    0.0000 H   0  0  0  0  0  0  0  0  0  0  0  0
    0.2669    2.6485    0.0000 H   0  0  0  0  0  0  0  0  0  0  0  0
    3.4421    3.2902    0.0000 H   0  0  0  0  0  0  0  0  0  0  0  0
    3.5161    5.1425    0.0000 H   0  0  0  0  0  0  0  0  0  0  0  0
    1.6629    5.1425    0.0000 H   0  0  0  0  0  0  0  0  0  0  0  0
    2.5895    5.6775    0.0000 H   0  0  0  0  0  0  0  0  0  0  0  0
  1  2  1  0  0  0  0
  1  6  1  0  0  0  0
  1 34  1  0  0  0  0
  1 35  1  0  0  0  0
  2  3  1  0  0  0  0
  2 36  1  0  0  0  0
  2 37  1  0  0  0  0
  3  4  1  0  0  0  0
  4  5  1  0  0  0  0
  4 38  1  0  0  0  0
  4 39  1  0  0  0  0
  5  6  1  0  0  0  0
  5 40  1  0  0  0  0
  5 41  1  0  0  0  0
  6  7  1  0  0  0  0
  7  8  1  0  0  0  0
  7 12  2  0  0  0  0
  8  9  2  0  0  0  0
  8 42  1  0  0  0  0
  9 10  1  0  0  0  0
  9 14  1  0  0  0  0
 10 11  1  0  0  0  0
 11 43  1  0  0  0  0
 11 44  1  0  0  0  0
 11 45  1  0  0  0  0
 12 13  1  0  0  0  0
 12 46  1  0  0  0  0
 13 14  2  0  0  0  0
 13 47  1  0  0  0  0
 14 15  1  0  0  0  0
 15 16  1  0  0  0  0
 15 48  1  0  0  0  0
 16 17  1  0  0  0  0
 16 18  2  0  0  0  0
 17 22  2  0  0  0  0
 18 19  1  0  0  0  0
 19 20  2  0  0  0  0
 19 49  1  0  0  0  0
 20 21  1  0  0  0  0
 20 22  1  0  0  0  0
 22 23  1  0  0  0  0
 23 24  1  0  0  0  0
 23 50  1  0  0  0  0
 24 25  1  0  0  0  0
 24 29  2  0  0  0  0
 25 26  2  0  0  0  0
 25 51  1  0  0  0  0
 26 27  1  0  0  0  0
 26 52  1  0  0  0  0
 27 28  2  0  0  0  0
 27 53  1  0  0  0  0
 28 29  1  0  0  0  0
 28 54  1  0  0  0  0
 29 30  1  0  0  0  0
 30 31  2  0  0  0  0
 30 32  1  0  0  0  0
 32 33  1  0  0  0  0
 32 55  1  0  0  0  0
 33 56  1  0  0  0  0
 33 57  1  0  0  0  0
 33 58  1  0  0  0  0
M  END
>  <DRUGBANK_ID>
DB07460

>  <COMMON_NAME>
2-({5-CHLORO-2-[(2-METHOXY-4-MORPHOLIN-4-YLPHENYL)AMINO]PYRIMIDIN-4-YL}AMINO)-N-METHYLBENZAMIDE

$$$$
