
 OpenBabel10282417072D

 80 87  0  0  1  0  0  0  0  0999 V2000
    1.7977   -2.4583    0.0000 C   0  0  0  0  0  0  0  0  0  0  0  0
    1.7947   -3.2833    0.0000 C   0  0  0  0  0  0  0  0  0  0  0  0
    2.5121   -3.6975    0.0000 C   0  0  0  0  0  0  0  0  0  0  0  0
    3.2249   -3.2867    0.0000 C   0  0  0  0  0  0  0  0  0  0  0  0
    4.0548   -3.4481    0.0000 N   0  0  0  0  0  0  0  0  0  0  0  0
    4.4911   -2.6890    0.0000 C   0  0  0  0  0  0  0  0  0  0  0  0
    3.9351   -2.0593    0.0000 C   0  0  0  0  0  0  0  0  0  0  0  0
    2.5123   -2.0492    0.0000 C   0  0  0  0  0  0  0  0  0  0  0  0
    3.2250   -2.4653    0.0000 C   0  0  0  0  0  0  0  0  0  0  0  0
    3.9439   -1.2338    0.0000 C   0  0  0  0  0  0  0  0  0  0  0  0
    2.5123   -1.2262    0.0000 C   0  0  2  0  0  0  0  0  0  0  0  0
    3.2270   -0.8149    0.0000 C   0  0  2  0  0  0  0  0  0  0  0  0
    3.2280    0.0051    0.0000 N   0  0  0  0  0  0  0  0  0  0  0  0
    2.5161    0.4201    0.0000 C   0  0  0  0  0  0  0  0  0  0  0  0
    1.8015    0.0087    0.0000 C   0  0  1  0  0  0  0  0  0  0  0  0
    1.7987   -0.8174    0.0000 C   0  0  0  0  0  0  0  0  0  0  0  0
    1.0862    0.4240    0.0000 C   0  0  0  0  0  0  0  0  0  0  0  0
    0.3691    0.0123    0.0000 N   0  0  0  0  0  0  0  0  0  0  0  0
    3.9456    0.4167    0.0000 C   0  0  0  0  0  0  0  0  0  0  0  0
    3.9418   -0.4039    0.0000 H   0  0  0  0  0  0  0  0  0  0  0  0
    1.0883    1.2510    0.0000 O   0  0  0  0  0  0  0  0  0  0  0  0
   -0.3534    0.4167    0.0000 C   0  0  1  0  0  0  0  0  0  0  0  0
   -0.8488    1.0830    0.0000 C   0  0  0  0  0  0  0  0  0  0  0  0
   -0.8362   -0.2550    0.0000 O   0  0  0  0  0  0  0  0  0  0  0  0
   -1.6252   -0.0070    0.0000 C   0  0  2  0  0  0  0  0  0  0  0  0
   -1.6287    0.8157    0.0000 N   0  0  0  0  0  0  0  0  0  0  0  0
   -2.3390    1.2218    0.0000 C   0  0  2  0  0  0  0  0  0  0  0  0
   -3.0504    0.8097    0.0000 C   0  0  0  0  0  0  0  0  0  0  0  0
   -2.3320   -0.4237    0.0000 C   0  0  1  0  0  0  0  0  0  0  0  0
   -3.0484   -0.0147    0.0000 N   0  0  0  0  0  0  0  0  0  0  0  0
   -3.6585   -0.5698    0.0000 C   0  0  0  0  0  0  0  0  0  0  0  0
   -3.3193   -1.3218    0.0000 C   0  0  0  0  0  0  0  0  0  0  0  0
   -2.4994   -1.2313    0.0000 C   0  0  0  0  0  0  0  0  0  0  0  0
   -1.6204   -0.8379    0.0000 O   0  0  0  0  0  0  0  0  0  0  0  0
   -2.3430    0.3997    0.0000 H   0  0  0  0  0  0  0  0  0  0  0  0
   -0.6037    1.8730    0.0000 O   0  0  0  0  0  0  0  0  0  0  0  0
   -3.7674    1.2218    0.0000 O   0  0  0  0  0  0  0  0  0  0  0  0
   -2.3413    2.0489    0.0000 C   0  0  0  0  0  0  0  0  0  0  0  0
   -3.0587    2.4604    0.0000 C   0  0  0  0  0  0  0  0  0  0  0  0
   -3.0584    3.2860    0.0000 C   0  0  0  0  0  0  0  0  0  0  0  0
   -3.7750    3.6975    0.0000 C   0  0  0  0  0  0  0  0  0  0  0  0
   -4.4911    3.2819    0.0000 C   0  0  0  0  0  0  0  0  0  0  0  0
   -4.4861    2.4505    0.0000 C   0  0  0  0  0  0  0  0  0  0  0  0
   -3.7689    2.0427    0.0000 C   0  0  0  0  0  0  0  0  0  0  0  0
    0.1617    0.9270    0.0000 C   0  0  0  0  0  0  0  0  0  0  0  0
    1.7945   -1.6291    0.0000 H   0  0  0  0  0  0  0  0  0  0  0  0
    0.9058   -1.9390    0.0000 H   0  0  0  0  0  0  0  0  0  0  0  0
    0.9000   -3.7977    0.0000 H   0  0  0  0  0  0  0  0  0  0  0  0
    2.5117   -4.7295    0.0000 H   0  0  0  0  0  0  0  0  0  0  0  0
    4.4639   -4.3436    0.0000 H   0  0  0  0  0  0  0  0  0  0  0  0
    5.5179   -2.5851    0.0000 H   0  0  0  0  0  0  0  0  0  0  0  0
    4.8748   -0.7062    0.0000 H   0  0  0  0  0  0  0  0  0  0  0  0
    3.9509   -0.1638    0.0000 H   0  0  0  0  0  0  0  0  0  0  0  0
    2.5190    1.4901    0.0000 H   0  0  0  0  0  0  0  0  0  0  0  0
    1.5905    0.9569    0.0000 H   0  0  0  0  0  0  0  0  0  0  0  0
    1.8035    1.0787    0.0000 H   0  0  0  0  0  0  0  0  0  0  0  0
    0.8720   -1.3524    0.0000 H   0  0  0  0  0  0  0  0  0  0  0  0
    0.8730   -0.2808    0.0000 H   0  0  0  0  0  0  0  0  0  0  0  0
    0.3745   -0.9722    0.0000 H   0  0  0  0  0  0  0  0  0  0  0  0
    4.8707   -0.1209    0.0000 H   0  0  0  0  0  0  0  0  0  0  0  0
    3.9486    1.4867    0.0000 H   0  0  0  0  0  0  0  0  0  0  0  0
    4.8738    0.9491    0.0000 H   0  0  0  0  0  0  0  0  0  0  0  0
   -1.4142    1.7600    0.0000 H   0  0  0  0  0  0  0  0  0  0  0  0
   -4.7062   -0.3526    0.0000 H   0  0  0  0  0  0  0  0  0  0  0  0
   -4.3278   -1.4047    0.0000 H   0  0  0  0  0  0  0  0  0  0  0  0
   -3.8496   -2.2511    0.0000 H   0  0  0  0  0  0  0  0  0  0  0  0
   -2.7319   -2.2162    0.0000 H   0  0  0  0  0  0  0  0  0  0  0  0
   -1.7794   -2.0228    0.0000 H   0  0  0  0  0  0  0  0  0  0  0  0
   -1.4673   -0.9491    0.0000 H   0  0  0  0  0  0  0  0  0  0  0  0
   -2.4576   -1.3277    0.0000 H   0  0  0  0  0  0  0  0  0  0  0  0
   -1.4162    2.5865    0.0000 H   0  0  0  0  0  0  0  0  0  0  0  0
   -2.3443    3.1189    0.0000 H   0  0  0  0  0  0  0  0  0  0  0  0
   -2.1652    3.8029    0.0000 H   0  0  0  0  0  0  0  0  0  0  0  0
   -3.7774    4.7295    0.0000 H   0  0  0  0  0  0  0  0  0  0  0  0
   -5.3870    3.7942    0.0000 H   0  0  0  0  0  0  0  0  0  0  0  0
   -5.3766    1.9289    0.0000 H   0  0  0  0  0  0  0  0  0  0  0  0
   -3.7613    1.0107    0.0000 H   0  0  0  0  0  0  0  0  0  0  0  0
    1.1939    0.6452    0.0000 H   0  0  0  0  0  0  0  0  0  0  0  0
   -0.1104    1.9618    0.0000 H   0  0  0  0  0  0  0  0  0  0  0  0
    0.9218    1.6801    0.0000 H   0  0  0  0  0  0  0  0  0  0  0  0
  1  2  2  0  0  0  0
  1 47  1  0  0  0  0
  2  3  1  0  0  0  0
  2 48  1  0  0  0  0
  3  4  2  0  0  0  0
  3 49  1  0  0  0  0
  4  5  1  0  0  0  0
  5  6  1  0  0  0  0
  5 50  1  0  0  0  0
  6  7  2  0  0  0  0
  6 51  1  0  0  0  0
  7 10  1  0  0  0  0
  7  9  1  0  0  0  0
  8  1  1  0  0  0  0
  8  9  2  0  0  0  0
  8 11  1  0  0  0  0
  9  4  1  0  0  0  0
 10 12  1  0  0  0  0
 10 52  1  0  0  0  0
 10 53  1  0  0  0  0
 11 12  1  0  0  0  0
 11 16  1  0  0  0  0
 11 46  1  6  0  0  0
 12 13  1  0  0  0  0
 12 20  1  1  0  0  0
 13 14  1  0  0  0  0
 13 19  1  0  0  0  0
 14 15  1  0  0  0  0
 14 54  1  0  0  0  0
 14 55  1  0  0  0  0
 15 16  1  0  0  0  0
 15 17  1  0  0  0  0
 15 56  1  6  0  0  0
 16 57  1  0  0  0  0
 16 58  1  0  0  0  0
 17 18  1  0  0  0  0
 17 21  2  0  0  0  0
 18 59  1  0  0  0  0
 19 60  1  0  0  0  0
 19 61  1  0  0  0  0
 19 62  1  0  0  0  0
 22 23  1  0  0  0  0
 22 45  1  1  0  0  0
 22 18  1  0  0  0  0
 23 26  1  0  0  0  0
 23 36  2  0  0  0  0
 24 22  1  0  0  0  0
 25 24  1  0  0  0  0
 25 26  1  0  0  0  0
 25 29  1  0  0  0  0
 25 34  1  6  0  0  0
 26 27  1  0  0  0  0
 27 28  1  0  0  0  0
 27 38  1  0  0  0  0
 27 63  1  1  0  0  0
 28 30  1  0  0  0  0
 28 37  2  0  0  0  0
 29 30  1  0  0  0  0
 29 35  1  1  0  0  0
 30 31  1  0  0  0  0
 31 32  1  0  0  0  0
 31 64  1  0  0  0  0
 31 65  1  0  0  0  0
 32 33  1  0  0  0  0
 32 66  1  0  0  0  0
 32 67  1  0  0  0  0
 33 29  1  0  0  0  0
 33 68  1  0  0  0  0
 33 69  1  0  0  0  0
 34 70  1  0  0  0  0
 38 39  1  0  0  0  0
 38 71  1  0  0  0  0
 38 72  1  0  0  0  0
 39 40  2  0  0  0  0
 40 41  1  0  0  0  0
 40 73  1  0  0  0  0
 41 42  2  0  0  0  0
 41 74  1  0  0  0  0
 42 43  1  0  0  0  0
 42 75  1  0  0  0  0
 43 44  2  0  0  0  0
 43 76  1  0  0  0  0
 44 39  1  0  0  0  0
 44 77  1  0  0  0  0
 45 78  1  0  0  0  0
 45 79  1  0  0  0  0
 45 80  1  0  0  0  0
M  END
>  <DRUGBANK_ID>
DB00320

>  <SECONDARY_ACCESSION_NUMBERS>
APRD00476; DB05743

>  <COMMON_NAME>
Dihydroergotamine

>  <CAS_NUMBER>
511-12-6

>  <UNII>
436O5HM03C

>  <SYNONYMS>
(2R,4R,7R)-N-[(1S,2S,4R,7S)-7-benzyl-2-hydroxy-4-methyl-5,8-dioxo-3-oxa-6,9-diazatricyclo[7.3.0.02,6]dodecan-4-yl]-6-methyl-6,11-diazatetracyclo[7.6.1.02,7.012,16]hexadeca-1(16),9,12,14-tetraene-4-carboxamide; 5'-benzyl-12'-hydroxy-2'-methyl-3',6',18-trioxo-9,10-dihydroergotaman; 9,10-dihydro-12'-hydroxy-2'-methyl-5'-(phenylmethyl)ergotoman-3',6',18-trione; 9,10-dihydroergotamine; Dihidroergotamina; Dihydroergotamin; Dihydroergotamine; Dihydroergotaminum; Diidroergotamina

$$$$
