SKF
 OpenBabel10282417072D

 26 27  0  0  0  0  0  0  0  0999 V2000
   -0.3607    0.8531    0.0000 C   0  0  0  0  0  0  0  0  0  0  0  0
   -1.0752    0.4406    0.0000 C   0  0  0  0  0  0  0  0  0  0  0  0
   -1.0752   -0.3844    0.0000 C   0  0  0  0  0  0  0  0  0  0  0  0
   -0.3607   -0.7969    0.0000 C   0  0  0  0  0  0  0  0  0  0  0  0
   -1.7897   -0.7969    0.0000 S   0  0  0  0  0  0  0  0  0  0  0  0
    0.3537   -0.3844    0.0000 C   0  0  0  0  0  0  0  0  0  0  0  0
    0.3537    0.4406    0.0000 C   0  0  0  0  0  0  0  0  0  0  0  0
   -2.5041   -1.2094    0.0000 O   0  0  0  0  0  0  0  0  0  0  0  0
   -1.3772   -1.5114    0.0000 O   0  0  0  0  0  0  0  0  0  0  0  0
   -2.2022   -0.0825    0.0000 N   0  0  0  0  0  0  0  0  0  0  0  0
    1.0682   -0.7969    0.0000 C   0  0  0  0  0  0  0  0  0  0  0  0
    1.7827    0.4406    0.0000 C   0  0  0  0  0  0  0  0  0  0  0  0
    1.0682    0.8531    0.0000 C   0  0  0  0  0  0  0  0  0  0  0  0
    1.7827   -0.3844    0.0000 N   0  0  0  0  0  0  0  0  0  0  0  0
   -0.3607    1.8851    0.0000 H   0  0  0  0  0  0  0  0  0  0  0  0
   -1.9689    0.9566    0.0000 H   0  0  0  0  0  0  0  0  0  0  0  0
   -0.3607   -1.8289    0.0000 H   0  0  0  0  0  0  0  0  0  0  0  0
   -1.6922    0.8009    0.0000 H   0  0  0  0  0  0  0  0  0  0  0  0
   -3.2222   -0.0825    0.0000 H   0  0  0  0  0  0  0  0  0  0  0  0
    1.0682   -1.8669    0.0000 H   0  0  0  0  0  0  0  0  0  0  0  0
    1.9948   -1.3319    0.0000 H   0  0  0  0  0  0  0  0  0  0  0  0
    2.7093    0.9756    0.0000 H   0  0  0  0  0  0  0  0  0  0  0  0
    2.7093   -0.0944    0.0000 H   0  0  0  0  0  0  0  0  0  0  0  0
    1.0682    1.9231    0.0000 H   0  0  0  0  0  0  0  0  0  0  0  0
    1.9948    1.3881    0.0000 H   0  0  0  0  0  0  0  0  0  0  0  0
    2.6660   -0.8944    0.0000 H   0  0  0  0  0  0  0  0  0  0  0  0
  1  2  2  0  0  0  0
  1  7  1  0  0  0  0
  1 15  1  0  0  0  0
  2  3  1  0  0  0  0
  2 16  1  0  0  0  0
  3  4  2  0  0  0  0
  3  5  1  0  0  0  0
  4  6  1  0  0  0  0
  4 17  1  0  0  0  0
  5  8  2  0  0  0  0
  5  9  2  0  0  0  0
  5 10  1  0  0  0  0
  6  7  2  0  0  0  0
  6 11  1  0  0  0  0
  7 13  1  0  0  0  0
 10 18  1  0  0  0  0
 10 19  1  0  0  0  0
 11 14  1  0  0  0  0
 11 20  1  0  0  0  0
 11 21  1  0  0  0  0
 12 13  1  0  0  0  0
 12 14  1  0  0  0  0
 12 22  1  0  0  0  0
 12 23  1  0  0  0  0
 13 24  1  0  0  0  0
 13 25  1  0  0  0  0
 14 26  1  0  0  0  0
M  END
>  <DRUGBANK_ID>
DB03468

>  <SECONDARY_ACCESSION_NUMBERS>
EXPT02913

>  <COMMON_NAME>
1,2,3,4-Tetrahydro-Isoquinoline-7-Sulfonic Acid Amide

>  <UNII>
7ASE44P9QJ

$$$$
