
 OpenBabel10282417072D

 54 57  0  0  1  0  0  0  0  0999 V2000
   -0.2888    0.8402    0.0000 C   0  0  0  0  0  0  0  0  0  0  0  0
    0.5291    0.7325    0.0000 C   0  0  0  0  0  0  0  0  0  0  0  0
    0.2134   -0.0297    0.0000 C   0  0  0  0  0  0  0  0  0  0  0  0
    0.5291   -0.7919    0.0000 C   0  0  0  0  0  0  0  0  0  0  0  0
    1.2913   -1.1076    0.0000 C   0  0  2  0  0  0  0  0  0  0  0  0
    2.0535   -0.7919    0.0000 C   0  0  0  0  0  0  0  0  0  0  0  0
    2.3692   -0.0297    0.0000 C   0  0  2  0  0  0  0  0  0  0  0  0
    2.0535    0.7325    0.0000 C   0  0  0  0  0  0  0  0  0  0  0  0
    1.2913    1.0482    0.0000 C   0  0  2  0  0  0  0  0  0  0  0  0
    1.0219   -0.0297    0.0000 N   0  0  0  0  0  0  0  0  0  0  0  0
    0.3544    0.4552    0.0000 C   0  0  0  0  0  0  0  0  0  0  0  0
    3.1942   -0.0297    0.0000 O   0  0  0  0  0  0  0  0  0  0  0  0
    3.6067   -0.7442    0.0000 C   0  0  0  0  0  0  0  0  0  0  0  0
    4.4317   -0.7442    0.0000 O   0  0  0  0  0  0  0  0  0  0  0  0
    3.1942   -1.4586    0.0000 C   0  0  0  0  0  0  0  0  0  0  0  0
    3.9087   -1.8711    0.0000 C   0  0  0  0  0  0  0  0  0  0  0  0
    4.6624   -1.5356    0.0000 C   0  0  0  0  0  0  0  0  0  0  0  0
    5.2144   -2.1487    0.0000 C   0  0  0  0  0  0  0  0  0  0  0  0
    4.8019   -2.8631    0.0000 C   0  0  0  0  0  0  0  0  0  0  0  0
    3.9950   -2.6916    0.0000 S   0  0  0  0  0  0  0  0  0  0  0  0
    2.7817   -2.1731    0.0000 C   0  0  0  0  0  0  0  0  0  0  0  0
    1.9613   -2.2593    0.0000 C   0  0  0  0  0  0  0  0  0  0  0  0
    1.7897   -3.0663    0.0000 C   0  0  0  0  0  0  0  0  0  0  0  0
    2.5042   -3.4788    0.0000 C   0  0  0  0  0  0  0  0  0  0  0  0
    3.1173   -2.9268    0.0000 S   0  0  0  0  0  0  0  0  0  0  0  0
    2.4798   -1.0461    0.0000 O   0  0  0  0  0  0  0  0  0  0  0  0
    0.4214    1.5504    0.0000 C   0  0  0  0  0  0  0  0  0  0  0  0
   -0.6982    1.8288    0.0000 H   0  0  0  0  0  0  0  0  0  0  0  0
   -0.9402   -0.0087    0.0000 H   0  0  0  0  0  0  0  0  0  0  0  0
   -1.3496    0.9799    0.0000 H   0  0  0  0  0  0  0  0  0  0  0  0
   -0.8566   -0.0297    0.0000 H   0  0  0  0  0  0  0  0  0  0  0  0
   -0.3811   -0.9194    0.0000 H   0  0  0  0  0  0  0  0  0  0  0  0
   -0.2275   -1.5485    0.0000 H   0  0  0  0  0  0  0  0  0  0  0  0
    0.7379   -1.8413    0.0000 H   0  0  0  0  0  0  0  0  0  0  0  0
    0.5926   -0.2972    0.0000 H   0  0  0  0  0  0  0  0  0  0  0  0
    2.8101   -1.5485    0.0000 H   0  0  0  0  0  0  0  0  0  0  0  0
    3.1029   -0.5831    0.0000 H   0  0  0  0  0  0  0  0  0  0  0  0
    2.9637   -0.9194    0.0000 H   0  0  0  0  0  0  0  0  0  0  0  0
    2.8101    1.4891    0.0000 H   0  0  0  0  0  0  0  0  0  0  0  0
    1.8447    1.7819    0.0000 H   0  0  0  0  0  0  0  0  0  0  0  0
    1.7726    0.0926    0.0000 H   0  0  0  0  0  0  0  0  0  0  0  0
    0.4662    1.5193    0.0000 H   0  0  0  0  0  0  0  0  0  0  0  0
   -0.6231    0.0199    0.0000 H   0  0  0  0  0  0  0  0  0  0  0  0
   -0.5113    1.0841    0.0000 H   0  0  0  0  0  0  0  0  0  0  0  0
    4.8770   -0.5262    0.0000 H   0  0  0  0  0  0  0  0  0  0  0  0
    6.2408   -2.0409    0.0000 H   0  0  0  0  0  0  0  0  0  0  0  0
    5.2216   -3.8059    0.0000 H   0  0  0  0  0  0  0  0  0  0  0  0
    1.2708   -1.4923    0.0000 H   0  0  0  0  0  0  0  0  0  0  0  0
    0.8469   -3.4860    0.0000 H   0  0  0  0  0  0  0  0  0  0  0  0
    2.6121   -4.5051    0.0000 H   0  0  0  0  0  0  0  0  0  0  0  0
    2.4798   -0.0761    0.0000 H   0  0  0  0  0  0  0  0  0  0  0  0
    1.2703    2.2018    0.0000 H   0  0  0  0  0  0  0  0  0  0  0  0
   -0.5672    1.9598    0.0000 H   0  0  0  0  0  0  0  0  0  0  0  0
    0.2817    2.6112    0.0000 H   0  0  0  0  0  0  0  0  0  0  0  0
  1  2  1  0  0  0  0
  1 28  1  0  0  0  0
  1 29  1  0  0  0  0
  1 30  1  0  0  0  0
  2  3  1  0  0  0  0
  2  9  1  0  0  0  0
  2 27  1  0  0  0  0
  3  4  1  0  0  0  0
  3 31  1  0  0  0  0
  3 32  1  0  0  0  0
  4  5  1  0  0  0  0
  4 33  1  0  0  0  0
  4 34  1  0  0  0  0
  5  6  1  0  0  0  0
  5 10  1  0  0  0  0
  5 35  1  6  0  0  0
  6  7  1  0  0  0  0
  6 36  1  0  0  0  0
  6 37  1  0  0  0  0
  7  8  1  0  0  0  0
  7 12  1  0  0  0  0
  7 38  1  1  0  0  0
  8  9  1  0  0  0  0
  8 39  1  0  0  0  0
  8 40  1  0  0  0  0
  9 10  1  0  0  0  0
  9 41  1  1  0  0  0
 10 11  1  0  0  0  0
 11 42  1  0  0  0  0
 11 43  1  0  0  0  0
 11 44  1  0  0  0  0
 12 13  1  0  0  0  0
 13 14  2  0  0  0  0
 13 15  1  0  0  0  0
 15 16  1  0  0  0  0
 15 21  1  0  0  0  0
 15 26  1  0  0  0  0
 16 17  2  0  0  0  0
 16 20  1  0  0  0  0
 17 18  1  0  0  0  0
 17 45  1  0  0  0  0
 18 19  2  0  0  0  0
 18 46  1  0  0  0  0
 19 20  1  0  0  0  0
 19 47  1  0  0  0  0
 21 22  2  0  0  0  0
 21 25  1  0  0  0  0
 22 23  1  0  0  0  0
 22 48  1  0  0  0  0
 23 24  2  0  0  0  0
 23 49  1  0  0  0  0
 24 25  1  0  0  0  0
 24 50  1  0  0  0  0
 26 51  1  0  0  0  0
 27 52  1  0  0  0  0
 27 53  1  0  0  0  0
 27 54  1  0  0  0  0
M  END
>  <DRUGBANK_ID>
DB13448

>  <COMMON_NAME>
Mazaticol

>  <CAS_NUMBER>
42024-98-6

>  <UNII>
I6X824OGWZ

>  <SYNONYMS>
Mazaticol

$$$$
