691
 OpenBabel10282417072D

 70 72  0  0  1  0  0  0  0  0999 V2000
    3.0790    1.5221    0.0000 O   0  0  0  0  0  0  0  0  0  0  0  0
    3.7935    3.5847    0.0000 O   0  0  0  0  0  0  0  0  0  0  0  0
    8.1348    2.7795    0.0000 O   0  0  0  0  0  0  0  0  0  0  0  0
    8.1348    1.0898    0.0000 O   0  0  0  0  0  0  0  0  0  0  0  0
    3.0790    2.3471    0.0000 O   0  0  0  0  0  0  0  0  0  0  0  0
    2.3645   -2.1904    0.0000 O   0  0  0  0  0  0  0  0  0  0  0  0
    1.6500   -0.9529    0.0000 O   0  0  0  0  0  0  0  0  0  0  0  0
    4.5079    1.5221    0.0000 N   0  0  0  0  0  0  0  0  0  0  0  0
    3.0790   -0.1279    0.0000 N   0  0  0  0  0  0  0  0  0  0  0  0
    4.5079    2.3471    0.0000 C   0  0  1  0  0  0  0  0  0  0  0  0
    5.2224    2.7597    0.0000 C   0  0  0  0  0  0  0  0  0  0  0  0
    5.2224    1.1096    0.0000 C   0  0  0  0  0  0  0  0  0  0  0  0
    5.9369    2.3471    0.0000 C   0  0  0  0  0  0  0  0  0  0  0  0
    5.9369    1.5221    0.0000 C   0  0  0  0  0  0  0  0  0  0  0  0
    3.7935    0.2846    0.0000 C   0  0  2  0  0  0  0  0  0  0  0  0
    3.7935    1.1096    0.0000 C   0  0  0  0  0  0  0  0  0  0  0  0
    3.0790   -0.9529    0.0000 C   0  0  1  0  0  0  0  0  0  0  0  0
    6.6744    2.7883    0.0000 C   0  0  0  0  0  0  0  0  0  0  0  0
    3.7935    2.7597    0.0000 C   0  0  0  0  0  0  0  0  0  0  0  0
    6.6744    1.0810    0.0000 C   0  0  0  0  0  0  0  0  0  0  0  0
    3.7935   -1.3654    0.0000 C   0  0  0  0  0  0  0  0  0  0  0  0
    4.5079   -0.1279    0.0000 C   0  0  0  0  0  0  0  0  0  0  0  0
    7.4219    2.3643    0.0000 C   0  0  0  0  0  0  0  0  0  0  0  0
    7.4219    1.5050    0.0000 C   0  0  0  0  0  0  0  0  0  0  0  0
    3.7935   -2.1904    0.0000 C   0  0  0  0  0  0  0  0  0  0  0  0
    2.3645   -1.3654    0.0000 C   0  0  0  0  0  0  0  0  0  0  0  0
    4.5079   -2.6029    0.0000 C   0  0  0  0  0  0  0  0  0  0  0  0
    5.2224   -2.1904    0.0000 C   0  0  0  0  0  0  0  0  0  0  0  0
    4.5079   -3.4279    0.0000 C   0  0  0  0  0  0  0  0  0  0  0  0
    8.1316    3.6045    0.0000 C   0  0  0  0  0  0  0  0  0  0  0  0
    8.1316    0.2647    0.0000 C   0  0  0  0  0  0  0  0  0  0  0  0
    1.6500   -2.6029    0.0000 C   0  0  0  0  0  0  0  0  0  0  0  0
    5.9369   -2.6029    0.0000 C   0  0  0  0  0  0  0  0  0  0  0  0
    5.2224   -3.8404    0.0000 C   0  0  0  0  0  0  0  0  0  0  0  0
    5.9369   -3.4279    0.0000 C   0  0  0  0  0  0  0  0  0  0  0  0
    1.6500   -3.4279    0.0000 C   0  0  0  0  0  0  0  0  0  0  0  0
    4.6050    4.0532    0.0000 H   0  0  0  0  0  0  0  0  0  0  0  0
    2.1957    0.3821    0.0000 H   0  0  0  0  0  0  0  0  0  0  0  0
    3.5812    1.8122    0.0000 H   0  0  0  0  0  0  0  0  0  0  0  0
    5.2224    3.8297    0.0000 H   0  0  0  0  0  0  0  0  0  0  0  0
    6.1491    3.2947    0.0000 H   0  0  0  0  0  0  0  0  0  0  0  0
    5.2224    0.0396    0.0000 H   0  0  0  0  0  0  0  0  0  0  0  0
    6.1490    0.5746    0.0000 H   0  0  0  0  0  0  0  0  0  0  0  0
    2.8669    0.8196    0.0000 H   0  0  0  0  0  0  0  0  0  0  0  0
    4.0056   -0.4179    0.0000 H   0  0  0  0  0  0  0  0  0  0  0  0
    6.6625    3.8202    0.0000 H   0  0  0  0  0  0  0  0  0  0  0  0
    6.6625    0.0491    0.0000 H   0  0  0  0  0  0  0  0  0  0  0  0
    4.7201   -0.8304    0.0000 H   0  0  0  0  0  0  0  0  0  0  0  0
    4.7201   -1.9004    0.0000 H   0  0  0  0  0  0  0  0  0  0  0  0
    4.5079   -1.1979    0.0000 H   0  0  0  0  0  0  0  0  0  0  0  0
    5.4346    0.4071    0.0000 H   0  0  0  0  0  0  0  0  0  0  0  0
    5.4345   -0.6629    0.0000 H   0  0  0  0  0  0  0  0  0  0  0  0
    2.8668   -2.7254    0.0000 H   0  0  0  0  0  0  0  0  0  0  0  0
    3.7935   -3.2604    0.0000 H   0  0  0  0  0  0  0  0  0  0  0  0
    5.2224   -1.1584    0.0000 H   0  0  0  0  0  0  0  0  0  0  0  0
    3.6142   -3.9439    0.0000 H   0  0  0  0  0  0  0  0  0  0  0  0
    9.0562    4.1431    0.0000 H   0  0  0  0  0  0  0  0  0  0  0  0
    7.2029    4.1359    0.0000 H   0  0  0  0  0  0  0  0  0  0  0  0
    8.1274    4.6745    0.0000 H   0  0  0  0  0  0  0  0  0  0  0  0
    7.2029   -0.2667    0.0000 H   0  0  0  0  0  0  0  0  0  0  0  0
    9.0562   -0.2739    0.0000 H   0  0  0  0  0  0  0  0  0  0  0  0
    8.1275   -0.8053    0.0000 H   0  0  0  0  0  0  0  0  0  0  0  0
    0.7234   -2.0679    0.0000 H   0  0  0  0  0  0  0  0  0  0  0  0
    0.7234   -3.1379    0.0000 H   0  0  0  0  0  0  0  0  0  0  0  0
    6.8306   -2.0869    0.0000 H   0  0  0  0  0  0  0  0  0  0  0  0
    5.2224   -4.8724    0.0000 H   0  0  0  0  0  0  0  0  0  0  0  0
    6.8306   -3.9439    0.0000 H   0  0  0  0  0  0  0  0  0  0  0  0
    0.7234   -3.9629    0.0000 H   0  0  0  0  0  0  0  0  0  0  0  0
    2.5766   -3.9629    0.0000 H   0  0  0  0  0  0  0  0  0  0  0  0
    1.6500   -4.4979    0.0000 H   0  0  0  0  0  0  0  0  0  0  0  0
  1 16  2  0  0  0  0
  2 19  1  0  0  0  0
  2 37  1  0  0  0  0
  3 23  1  0  0  0  0
  3 30  1  0  0  0  0
  4 24  1  0  0  0  0
  4 31  1  0  0  0  0
  5 19  2  0  0  0  0
  6 26  1  0  0  0  0
  6 32  1  0  0  0  0
  7 26  2  0  0  0  0
  8 10  1  0  0  0  0
  8 12  1  0  0  0  0
  8 16  1  0  0  0  0
  9 38  1  0  0  0  0
 10 11  1  0  0  0  0
 10 19  1  0  0  0  0
 10 39  1  1  0  0  0
 11 13  1  0  0  0  0
 11 40  1  0  0  0  0
 11 41  1  0  0  0  0
 12 14  1  0  0  0  0
 12 42  1  0  0  0  0
 12 43  1  0  0  0  0
 13 14  1  0  0  0  0
 13 18  2  0  0  0  0
 14 20  2  0  0  0  0
 15  9  1  0  0  0  0
 15 16  1  0  0  0  0
 15 22  1  0  0  0  0
 15 44  1  1  0  0  0
 17  9  1  0  0  0  0
 17 21  1  0  0  0  0
 17 26  1  0  0  0  0
 17 45  1  6  0  0  0
 18 23  1  0  0  0  0
 18 46  1  0  0  0  0
 20 24  1  0  0  0  0
 20 47  1  0  0  0  0
 21 25  1  0  0  0  0
 21 48  1  0  0  0  0
 21 49  1  0  0  0  0
 22 50  1  0  0  0  0
 22 51  1  0  0  0  0
 22 52  1  0  0  0  0
 23 24  2  0  0  0  0
 25 27  1  0  0  0  0
 25 53  1  0  0  0  0
 25 54  1  0  0  0  0
 27 28  2  0  0  0  0
 27 29  1  0  0  0  0
 28 33  1  0  0  0  0
 28 55  1  0  0  0  0
 29 34  2  0  0  0  0
 29 56  1  0  0  0  0
 30 57  1  0  0  0  0
 30 58  1  0  0  0  0
 30 59  1  0  0  0  0
 31 60  1  0  0  0  0
 31 61  1  0  0  0  0
 31 62  1  0  0  0  0
 32 36  1  0  0  0  0
 32 63  1  0  0  0  0
 32 64  1  0  0  0  0
 33 35  2  0  0  0  0
 33 65  1  0  0  0  0
 34 35  1  0  0  0  0
 34 66  1  0  0  0  0
 35 67  1  0  0  0  0
 36 68  1  0  0  0  0
 36 69  1  0  0  0  0
 36 70  1  0  0  0  0
M  END
>  <DRUGBANK_ID>
DB00691

>  <SECONDARY_ACCESSION_NUMBERS>
APRD01120

>  <COMMON_NAME>
Moexipril

>  <CAS_NUMBER>
103775-10-6

>  <UNII>
WT87C52TJZ

>  <SYNONYMS>
Moexipril; Moexiprilum

$$$$
