
 OpenBabel10282417072D

 31 32  0  0  0  0  0  0  0  0999 V2000
    2.0341    0.6936    0.0000 P   0  0  1  0  0  0  0  0  0  0  0  0
    3.4630    0.6991    0.0000 P   0  0  0  0  0  0  0  0  0  0  0  0
    1.3212    0.2784    0.0000 O   0  0  0  0  0  0  0  0  0  0  0  0
    2.7469    1.1089    0.0000 O   0  0  0  0  0  0  0  0  0  0  0  0
    2.4494   -0.0192    0.0000 O   0  0  0  0  0  0  0  0  0  0  0  0
    1.6188    1.4065    0.0000 O   0  0  0  0  0  0  0  0  0  0  0  0
   -2.3071    1.4932    0.0000 O   0  0  0  0  0  0  0  0  0  0  0  0
    4.1791    0.2894    0.0000 O   0  0  0  0  0  0  0  0  0  0  0  0
    3.8727    1.4153    0.0000 O   0  0  0  0  0  0  0  0  0  0  0  0
    3.0533   -0.0168    0.0000 O   0  0  0  0  0  0  0  0  0  0  0  0
   -0.8551    0.6968    0.0000 N   0  0  0  0  0  0  0  0  0  0  0  0
   -2.3071   -0.9817    0.0000 N   0  0  0  0  0  0  0  0  0  0  0  0
   -0.8551   -1.0103    0.0000 N   0  0  0  0  0  0  0  0  0  0  0  0
   -3.0216    0.2557    0.0000 N   0  0  0  0  0  0  0  0  0  0  0  0
   -3.7361   -0.9817    0.0000 N   0  0  0  0  0  0  0  0  0  0  0  0
   -0.1077    0.2729    0.0000 C   0  0  0  0  0  0  0  0  0  0  0  0
    0.6051    0.6882    0.0000 C   0  0  0  0  0  0  0  0  0  0  0  0
   -1.5927    0.2557    0.0000 C   0  0  0  0  0  0  0  0  0  0  0  0
   -1.5927   -0.5692    0.0000 C   0  0  0  0  0  0  0  0  0  0  0  0
   -0.1077   -0.5864    0.0000 C   0  0  0  0  0  0  0  0  0  0  0  0
   -2.3071    0.6682    0.0000 C   0  0  0  0  0  0  0  0  0  0  0  0
   -3.0216   -0.5692    0.0000 C   0  0  0  0  0  0  0  0  0  0  0  0
   -2.3071   -1.4932    0.0000 H   0  0  0  0  0  0  0  0  0  0  0  0
   -4.1791   -0.7260    0.0000 H   0  0  0  0  0  0  0  0  0  0  0  0
   -3.7361   -1.4932    0.0000 H   0  0  0  0  0  0  0  0  0  0  0  0
    1.9677   -0.8612    0.0000 H   0  0  0  0  0  0  0  0  0  0  0  0
    4.1829   -0.6806    0.0000 H   0  0  0  0  0  0  0  0  0  0  0  0
    4.8427    1.4192    0.0000 H   0  0  0  0  0  0  0  0  0  0  0  0
    0.6009    1.7582    0.0000 H   0  0  0  0  0  0  0  0  0  0  0  0
   -0.3236    1.2196    0.0000 H   0  0  0  0  0  0  0  0  0  0  0  0
    0.7841   -1.1058    0.0000 H   0  0  0  0  0  0  0  0  0  0  0  0
  1  3  1  0  0  0  0
  1  4  1  0  0  0  0
  1  5  1  0  0  0  0
  1  6  2  6  0  0  0
  2  4  1  0  0  0  0
  2  8  1  0  0  0  0
  2  9  1  0  0  0  0
  2 10  2  0  0  0  0
  3 17  1  0  0  0  0
  5 26  1  0  0  0  0
  7 21  2  0  0  0  0
  8 27  1  0  0  0  0
  9 28  1  0  0  0  0
 11 16  1  0  0  0  0
 11 18  2  0  0  0  0
 12 19  1  0  0  0  0
 12 22  1  0  0  0  0
 12 23  1  0  0  0  0
 13 19  2  0  0  0  0
 13 20  1  0  0  0  0
 14 21  1  0  0  0  0
 14 22  2  0  0  0  0
 15 22  1  0  0  0  0
 15 24  1  0  0  0  0
 15 25  1  0  0  0  0
 16 17  1  0  0  0  0
 16 20  2  0  0  0  0
 17 29  1  0  0  0  0
 17 30  1  0  0  0  0
 18 19  1  0  0  0  0
 18 21  1  0  0  0  0
 20 31  1  0  0  0  0
M  END
>  <DRUGBANK_ID>
DB04047

>  <SECONDARY_ACCESSION_NUMBERS>
EXPT01742

>  <COMMON_NAME>
6-hydroxymethylpterin diphosphate

>  <CAS_NUMBER>
6863-06-5

>  <UNII>
H4K6WCP5DQ

>  <SYNONYMS>
2-Amino-4-hydroxy-6-hydroxymethylpteridine pyrophosphate

$$$$
