
 OpenBabel10282417072D

 25 24  0  0  0  0  0  0  0  0999 V2000
    2.1656    0.2108    0.0000 C   0  0  0  0  0  0  0  0  0  0  0  0
   -2.1467    0.2108    0.0000 C   0  0  0  0  0  0  0  0  0  0  0  0
    2.1656    1.0349    0.0000 O   0  0  0  0  0  0  0  0  0  0  0  0
   -2.8749   -0.2108    0.0000 O   0  0  0  0  0  0  0  0  0  0  0  0
    2.8749   -0.2108    0.0000 O   0  0  0  0  0  0  0  0  0  0  0  0
   -2.1467    1.0349    0.0000 O   0  0  0  0  0  0  0  0  0  0  0  0
   -1.4375   -0.2108    0.0000 C   0  0  0  0  0  0  0  0  0  0  0  0
    1.4565   -0.2108    0.0000 C   0  0  2  0  0  0  0  0  0  0  0  0
    0.7282    0.2108    0.0000 C   0  0  0  0  0  0  0  0  0  0  0  0
   -0.7092    0.2108    0.0000 C   0  0  0  0  0  0  0  0  0  0  0  0
    0.0191   -0.2108    0.0000 C   0  0  0  0  0  0  0  0  0  0  0  0
    1.4565   -1.0349    0.0000 N   0  0  0  0  0  0  0  0  0  0  0  0
   -3.6869    0.2567    0.0000 H   0  0  0  0  0  0  0  0  0  0  0  0
    2.8630   -1.1477    0.0000 H   0  0  0  0  0  0  0  0  0  0  0  0
   -1.4437   -1.2808    0.0000 H   0  0  0  0  0  0  0  0  0  0  0  0
   -0.5121   -0.7480    0.0000 H   0  0  0  0  0  0  0  0  0  0  0  0
    2.3866   -0.7399    0.0000 H   0  0  0  0  0  0  0  0  0  0  0  0
    0.7220    1.2808    0.0000 H   0  0  0  0  0  0  0  0  0  0  0  0
   -0.2034    0.7371    0.0000 H   0  0  0  0  0  0  0  0  0  0  0  0
   -0.7092    1.2808    0.0000 H   0  0  0  0  0  0  0  0  0  0  0  0
    0.2178    0.7453    0.0000 H   0  0  0  0  0  0  0  0  0  0  0  0
    0.0253   -1.2808    0.0000 H   0  0  0  0  0  0  0  0  0  0  0  0
   -0.9063   -0.7480    0.0000 H   0  0  0  0  0  0  0  0  0  0  0  0
    0.5732   -1.5449    0.0000 H   0  0  0  0  0  0  0  0  0  0  0  0
    2.3398   -1.5449    0.0000 H   0  0  0  0  0  0  0  0  0  0  0  0
  3  1  2  0  0  0  0
  4  2  1  0  0  0  0
  4 13  1  0  0  0  0
  5  1  1  0  0  0  0
  5 14  1  0  0  0  0
  6  2  2  0  0  0  0
  7  2  1  0  0  0  0
  7 15  1  0  0  0  0
  7 16  1  0  0  0  0
  8  1  1  0  0  0  0
  8 12  1  0  0  0  0
  8 17  1  6  0  0  0
  9  8  1  0  0  0  0
  9 18  1  0  0  0  0
  9 19  1  0  0  0  0
 10  7  1  0  0  0  0
 10 20  1  0  0  0  0
 10 21  1  0  0  0  0
 11  9  1  0  0  0  0
 11 10  1  0  0  0  0
 11 22  1  0  0  0  0
 11 23  1  0  0  0  0
 12 24  1  0  0  0  0
 12 25  1  0  0  0  0
M  END
>  <DRUGBANK_ID>
DB03134

>  <SECONDARY_ACCESSION_NUMBERS>
EXPT02383

>  <COMMON_NAME>
L-2-aminopimelic acid

>  <CAS_NUMBER>
26630-55-7

>  <UNII>
0603E10Z5S

>  <SYNONYMS>
(2S)-2-Aminoheptanedioic acid; (S)-2-aminoheptanedioic acid; 2-Aminopimelic acid; L-alpha-Aminopimelic acid; L-Î±-aminopimelic acid

$$$$
