1226
 OpenBabel10282417072D

154159  0  0  1  0  0  0  0  0999 V2000
    8.4681    1.4290    0.0000 O   0  0  0  0  0  0  0  0  0  0  0  0
   14.2432   -1.4290    0.0000 O   0  0  0  0  0  0  0  0  0  0  0  0
    2.3661    3.2904    0.0000 O   0  0  0  0  0  0  0  0  0  0  0  0
   20.3451   -3.2904    0.0000 O   0  0  0  0  0  0  0  0  0  0  0  0
    2.3661    1.6005    0.0000 O   0  0  0  0  0  0  0  0  0  0  0  0
   20.3451   -1.6005    0.0000 O   0  0  0  0  0  0  0  0  0  0  0  0
    3.8495    6.5705    0.0000 O   0  0  0  0  0  0  0  0  0  0  0  0
   18.8617   -6.5705    0.0000 O   0  0  0  0  0  0  0  0  0  0  0  0
    2.4206    4.0955    0.0000 O   0  0  0  0  0  0  0  0  0  0  0  0
   20.2907   -4.0955    0.0000 O   0  0  0  0  0  0  0  0  0  0  0  0
    2.4206    5.7455    0.0000 O   0  0  0  0  0  0  0  0  0  0  0  0
   20.2907   -5.7455    0.0000 O   0  0  0  0  0  0  0  0  0  0  0  0
    9.7056    2.1435    0.0000 O   0  0  0  0  0  0  0  0  0  0  0  0
   13.0057   -2.1435    0.0000 O   0  0  0  0  0  0  0  0  0  0  0  0
    5.9930    2.8579    0.0000 N   0  3  3  0  0  0  0  0  0  0  0  0
   16.7183   -2.8579    0.0000 N   0  3  3  0  0  0  0  0  0  0  0  0
    5.2785    3.2705    0.0000 C   0  0  1  0  0  0  0  0  0  0  0  0
   17.4327   -3.2705    0.0000 C   0  0  1  0  0  0  0  0  0  0  0  0
    5.9930    2.0329    0.0000 C   0  0  0  0  0  0  0  0  0  0  0  0
   16.7183   -2.0329    0.0000 C   0  0  0  0  0  0  0  0  0  0  0  0
    6.8180    2.8579    0.0000 C   0  0  0  0  0  0  0  0  0  0  0  0
   15.8932   -2.8579    0.0000 C   0  0  0  0  0  0  0  0  0  0  0  0
    4.5640    2.8579    0.0000 C   0  0  0  0  0  0  0  0  0  0  0  0
   18.1472   -2.8579    0.0000 C   0  0  0  0  0  0  0  0  0  0  0  0
    5.2785    1.6204    0.0000 C   0  0  0  0  0  0  0  0  0  0  0  0
   17.4327   -1.6204    0.0000 C   0  0  0  0  0  0  0  0  0  0  0  0
    6.4055    3.5724    0.0000 C   0  0  0  0  0  0  0  0  0  0  0  0
   16.3057   -3.5724    0.0000 C   0  0  0  0  0  0  0  0  0  0  0  0
    5.2785    4.0955    0.0000 C   0  0  0  0  0  0  0  0  0  0  0  0
   17.4327   -4.0955    0.0000 C   0  0  0  0  0  0  0  0  0  0  0  0
    4.5640    2.0329    0.0000 C   0  0  0  0  0  0  0  0  0  0  0  0
   18.1472   -2.0329    0.0000 C   0  0  0  0  0  0  0  0  0  0  0  0
    7.2305    2.1435    0.0000 C   0  0  0  0  0  0  0  0  0  0  0  0
   15.4807   -2.1435    0.0000 C   0  0  0  0  0  0  0  0  0  0  0  0
    3.8265    3.2991    0.0000 C   0  0  0  0  0  0  0  0  0  0  0  0
   18.8847   -3.2991    0.0000 C   0  0  0  0  0  0  0  0  0  0  0  0
    4.5640    4.5080    0.0000 C   0  0  0  0  0  0  0  0  0  0  0  0
   18.1472   -4.5080    0.0000 C   0  0  0  0  0  0  0  0  0  0  0  0
    3.8265    1.5918    0.0000 C   0  0  0  0  0  0  0  0  0  0  0  0
   18.8847   -1.5918    0.0000 C   0  0  0  0  0  0  0  0  0  0  0  0
    8.0556    2.1435    0.0000 C   0  0  0  0  0  0  0  0  0  0  0  0
   14.6557   -2.1435    0.0000 C   0  0  0  0  0  0  0  0  0  0  0  0
    3.0790    2.8751    0.0000 C   0  0  0  0  0  0  0  0  0  0  0  0
   19.6323   -2.8751    0.0000 C   0  0  0  0  0  0  0  0  0  0  0  0
    3.0790    2.0158    0.0000 C   0  0  0  0  0  0  0  0  0  0  0  0
   19.6323   -2.0158    0.0000 C   0  0  0  0  0  0  0  0  0  0  0  0
    3.8495    4.0955    0.0000 C   0  0  0  0  0  0  0  0  0  0  0  0
   18.8617   -4.0955    0.0000 C   0  0  0  0  0  0  0  0  0  0  0  0
    4.5640    5.3330    0.0000 C   0  0  0  0  0  0  0  0  0  0  0  0
   18.1472   -5.3330    0.0000 C   0  0  0  0  0  0  0  0  0  0  0  0
    3.8495    5.7455    0.0000 C   0  0  0  0  0  0  0  0  0  0  0  0
   18.8617   -5.7455    0.0000 C   0  0  0  0  0  0  0  0  0  0  0  0
    3.1351    4.5080    0.0000 C   0  0  0  0  0  0  0  0  0  0  0  0
   19.5762   -4.5080    0.0000 C   0  0  0  0  0  0  0  0  0  0  0  0
    3.1351    5.3330    0.0000 C   0  0  0  0  0  0  0  0  0  0  0  0
   19.5762   -5.3330    0.0000 C   0  0  0  0  0  0  0  0  0  0  0  0
    9.2931    1.4290    0.0000 C   0  0  0  0  0  0  0  0  0  0  0  0
   13.4182   -1.4290    0.0000 C   0  0  0  0  0  0  0  0  0  0  0  0
    1.6500    2.8806    0.0000 C   0  0  0  0  0  0  0  0  0  0  0  0
   21.0612   -2.8806    0.0000 C   0  0  0  0  0  0  0  0  0  0  0  0
    2.3693    0.7755    0.0000 C   0  0  0  0  0  0  0  0  0  0  0  0
   20.3420   -0.7755    0.0000 C   0  0  0  0  0  0  0  0  0  0  0  0
    9.7056    0.7145    0.0000 C   0  0  0  0  0  0  0  0  0  0  0  0
   13.0057   -0.7145    0.0000 C   0  0  0  0  0  0  0  0  0  0  0  0
   10.5306    0.7145    0.0000 C   0  0  0  0  0  0  0  0  0  0  0  0
   12.1807   -0.7145    0.0000 C   0  0  0  0  0  0  0  0  0  0  0  0
    4.5640    6.9830    0.0000 C   0  0  0  0  0  0  0  0  0  0  0  0
   18.1472   -6.9830    0.0000 C   0  0  0  0  0  0  0  0  0  0  0  0
    1.7061    4.5080    0.0000 C   0  0  0  0  0  0  0  0  0  0  0  0
   21.0052   -4.5080    0.0000 C   0  0  0  0  0  0  0  0  0  0  0  0
    2.4206    6.5705    0.0000 C   0  0  0  0  0  0  0  0  0  0  0  0
   20.2907   -6.5705    0.0000 C   0  0  0  0  0  0  0  0  0  0  0  0
   10.9431    0.0000    0.0000 C   0  0  0  0  0  0  0  0  0  0  0  0
   11.7681    0.0000    0.0000 C   0  0  0  0  0  0  0  0  0  0  0  0
    6.2052    3.8055    0.0000 H   0  0  0  0  0  0  0  0  0  0  0  0
   16.5060   -3.8054    0.0000 H   0  0  0  0  0  0  0  0  0  0  0  0
    6.9196    1.4979    0.0000 H   0  0  0  0  0  0  0  0  0  0  0  0
    5.9930    0.9629    0.0000 H   0  0  0  0  0  0  0  0  0  0  0  0
   15.7916   -1.4979    0.0000 H   0  0  0  0  0  0  0  0  0  0  0  0
   16.7183   -0.9629    0.0000 H   0  0  0  0  0  0  0  0  0  0  0  0
    7.3530    3.7846    0.0000 H   0  0  0  0  0  0  0  0  0  0  0  0
    7.8880    2.8579    0.0000 H   0  0  0  0  0  0  0  0  0  0  0  0
   15.3582   -3.7846    0.0000 H   0  0  0  0  0  0  0  0  0  0  0  0
   14.8232   -2.8579    0.0000 H   0  0  0  0  0  0  0  0  0  0  0  0
    5.2785    0.5504    0.0000 H   0  0  0  0  0  0  0  0  0  0  0  0
    4.3519    1.0854    0.0000 H   0  0  0  0  0  0  0  0  0  0  0  0
   17.4327   -0.5504    0.0000 H   0  0  0  0  0  0  0  0  0  0  0  0
   18.3593   -1.0854    0.0000 H   0  0  0  0  0  0  0  0  0  0  0  0
    7.4755    3.5724    0.0000 H   0  0  0  0  0  0  0  0  0  0  0  0
    5.8705    4.4990    0.0000 H   0  0  0  0  0  0  0  0  0  0  0  0
    6.9405    4.4991    0.0000 H   0  0  0  0  0  0  0  0  0  0  0  0
   15.2357   -3.5723    0.0000 H   0  0  0  0  0  0  0  0  0  0  0  0
   16.8406   -4.4991    0.0000 H   0  0  0  0  0  0  0  0  0  0  0  0
   15.7706   -4.4990    0.0000 H   0  0  0  0  0  0  0  0  0  0  0  0
    6.2051    4.6305    0.0000 H   0  0  0  0  0  0  0  0  0  0  0  0
    5.2785    5.1655    0.0000 H   0  0  0  0  0  0  0  0  0  0  0  0
   16.5061   -4.6305    0.0000 H   0  0  0  0  0  0  0  0  0  0  0  0
   17.4327   -5.1655    0.0000 H   0  0  0  0  0  0  0  0  0  0  0  0
    6.6955    1.2168    0.0000 H   0  0  0  0  0  0  0  0  0  0  0  0
    7.7655    1.2169    0.0000 H   0  0  0  0  0  0  0  0  0  0  0  0
   16.0157   -1.2168    0.0000 H   0  0  0  0  0  0  0  0  0  0  0  0
   14.9457   -1.2169    0.0000 H   0  0  0  0  0  0  0  0  0  0  0  0
    3.8384    4.3310    0.0000 H   0  0  0  0  0  0  0  0  0  0  0  0
   18.8727   -4.3310    0.0000 H   0  0  0  0  0  0  0  0  0  0  0  0
    3.8384    0.5599    0.0000 H   0  0  0  0  0  0  0  0  0  0  0  0
   18.8728   -0.5599    0.0000 H   0  0  0  0  0  0  0  0  0  0  0  0
    8.5906    3.0701    0.0000 H   0  0  0  0  0  0  0  0  0  0  0  0
    7.5206    3.0701    0.0000 H   0  0  0  0  0  0  0  0  0  0  0  0
   14.1207   -3.0701    0.0000 H   0  0  0  0  0  0  0  0  0  0  0  0
   15.1907   -3.0701    0.0000 H   0  0  0  0  0  0  0  0  0  0  0  0
    3.8495    3.0635    0.0000 H   0  0  0  0  0  0  0  0  0  0  0  0
   18.8617   -3.0635    0.0000 H   0  0  0  0  0  0  0  0  0  0  0  0
    5.4577    5.8490    0.0000 H   0  0  0  0  0  0  0  0  0  0  0  0
   17.2535   -5.8490    0.0000 H   0  0  0  0  0  0  0  0  0  0  0  0
    0.7254    3.4191    0.0000 H   0  0  0  0  0  0  0  0  0  0  0  0
    1.6459    1.8106    0.0000 H   0  0  0  0  0  0  0  0  0  0  0  0
    0.7213    2.3491    0.0000 H   0  0  0  0  0  0  0  0  0  0  0  0
   21.9858   -3.4191    0.0000 H   0  0  0  0  0  0  0  0  0  0  0  0
   21.0653   -1.8106    0.0000 H   0  0  0  0  0  0  0  0  0  0  0  0
   21.9899   -2.3491    0.0000 H   0  0  0  0  0  0  0  0  0  0  0  0
    1.4447    0.2369    0.0000 H   0  0  0  0  0  0  0  0  0  0  0  0
    3.2980    0.2441    0.0000 H   0  0  0  0  0  0  0  0  0  0  0  0
    2.3735   -0.2945    0.0000 H   0  0  0  0  0  0  0  0  0  0  0  0
   21.2666   -0.2370    0.0000 H   0  0  0  0  0  0  0  0  0  0  0  0
   19.4133   -0.2440    0.0000 H   0  0  0  0  0  0  0  0  0  0  0  0
   20.3380    0.2945    0.0000 H   0  0  0  0  0  0  0  0  0  0  0  0
    9.1706   -0.2121    0.0000 H   0  0  0  0  0  0  0  0  0  0  0  0
   10.2406   -0.2121    0.0000 H   0  0  0  0  0  0  0  0  0  0  0  0
   13.5407    0.2121    0.0000 H   0  0  0  0  0  0  0  0  0  0  0  0
   12.4707    0.2121    0.0000 H   0  0  0  0  0  0  0  0  0  0  0  0
   11.0656    1.6411    0.0000 H   0  0  0  0  0  0  0  0  0  0  0  0
   11.6006    0.7145    0.0000 H   0  0  0  0  0  0  0  0  0  0  0  0
   11.6457   -1.6412    0.0000 H   0  0  0  0  0  0  0  0  0  0  0  0
   11.1107   -0.7146    0.0000 H   0  0  0  0  0  0  0  0  0  0  0  0
    5.4906    6.4480    0.0000 H   0  0  0  0  0  0  0  0  0  0  0  0
    4.5640    8.0530    0.0000 H   0  0  0  0  0  0  0  0  0  0  0  0
    5.4907    7.5180    0.0000 H   0  0  0  0  0  0  0  0  0  0  0  0
   17.2206   -6.4480    0.0000 H   0  0  0  0  0  0  0  0  0  0  0  0
   18.1472   -8.0530    0.0000 H   0  0  0  0  0  0  0  0  0  0  0  0
   17.2205   -7.5180    0.0000 H   0  0  0  0  0  0  0  0  0  0  0  0
    1.7061    5.5780    0.0000 H   0  0  0  0  0  0  0  0  0  0  0  0
    0.7795    3.9730    0.0000 H   0  0  0  0  0  0  0  0  0  0  0  0
    0.7794    5.0430    0.0000 H   0  0  0  0  0  0  0  0  0  0  0  0
   21.0052   -5.5780    0.0000 H   0  0  0  0  0  0  0  0  0  0  0  0
   21.9318   -3.9730    0.0000 H   0  0  0  0  0  0  0  0  0  0  0  0
   21.9319   -5.0430    0.0000 H   0  0  0  0  0  0  0  0  0  0  0  0
    3.3472    7.1055    0.0000 H   0  0  0  0  0  0  0  0  0  0  0  0
    1.4940    7.1055    0.0000 H   0  0  0  0  0  0  0  0  0  0  0  0
    2.4206    7.6405    0.0000 H   0  0  0  0  0  0  0  0  0  0  0  0
   19.3641   -7.1055    0.0000 H   0  0  0  0  0  0  0  0  0  0  0  0
   21.2173   -7.1055    0.0000 H   0  0  0  0  0  0  0  0  0  0  0  0
   20.2907   -7.6405    0.0000 H   0  0  0  0  0  0  0  0  0  0  0  0
   10.4271   -0.8937    0.0000 H   0  0  0  0  0  0  0  0  0  0  0  0
   12.2841    0.8938    0.0000 H   0  0  0  0  0  0  0  0  0  0  0  0
  1 41  1  0  0  0  0
  1 57  1  0  0  0  0
  2 42  1  0  0  0  0
  2 58  1  0  0  0  0
  3 43  1  0  0  0  0
  3 59  1  0  0  0  0
  4 44  1  0  0  0  0
  4 60  1  0  0  0  0
  5 45  1  0  0  0  0
  5 61  1  0  0  0  0
  6 46  1  0  0  0  0
  6 62  1  0  0  0  0
  7 51  1  0  0  0  0
  7 67  1  0  0  0  0
  8 52  1  0  0  0  0
  8 68  1  0  0  0  0
  9 53  1  0  0  0  0
  9 69  1  0  0  0  0
 10 54  1  0  0  0  0
 10 70  1  0  0  0  0
 11 55  1  0  0  0  0
 11 71  1  0  0  0  0
 12 56  1  0  0  0  0
 12 72  1  0  0  0  0
 13 57  2  0  0  0  0
 14 58  2  0  0  0  0
 15 17  1  0  0  0  0
 15 19  1  0  0  0  0
 15 21  1  0  0  0  0
 15 27  1  0  0  0  0
 16 18  1  0  0  0  0
 16 20  1  0  0  0  0
 16 22  1  0  0  0  0
 16 28  1  0  0  0  0
 17 23  1  0  0  0  0
 17 29  1  0  0  0  0
 17 75  1  6  0  0  0
 18 24  1  0  0  0  0
 18 30  1  0  0  0  0
 18 76  1  6  0  0  0
 19 25  1  0  0  0  0
 19 77  1  0  0  0  0
 19 78  1  0  0  0  0
 20 26  1  0  0  0  0
 20 79  1  0  0  0  0
 20 80  1  0  0  0  0
 21 33  1  0  0  0  0
 21 81  1  0  0  0  0
 21 82  1  0  0  0  0
 22 34  1  0  0  0  0
 22 83  1  0  0  0  0
 22 84  1  0  0  0  0
 23 31  1  0  0  0  0
 23 35  2  0  0  0  0
 24 32  1  0  0  0  0
 24 36  2  0  0  0  0
 25 31  1  0  0  0  0
 25 85  1  0  0  0  0
 25 86  1  0  0  0  0
 26 32  1  0  0  0  0
 26 87  1  0  0  0  0
 26 88  1  0  0  0  0
 27 89  1  0  0  0  0
 27 90  1  0  0  0  0
 27 91  1  0  0  0  0
 28 92  1  0  0  0  0
 28 93  1  0  0  0  0
 28 94  1  0  0  0  0
 29 37  1  0  0  0  0
 29 95  1  0  0  0  0
 29 96  1  0  0  0  0
 30 38  1  0  0  0  0
 30 97  1  0  0  0  0
 30 98  1  0  0  0  0
 31 39  2  0  0  0  0
 32 40  2  0  0  0  0
 33 41  1  0  0  0  0
 33 99  1  0  0  0  0
 33100  1  0  0  0  0
 34 42  1  0  0  0  0
 34101  1  0  0  0  0
 34102  1  0  0  0  0
 35 43  1  0  0  0  0
 35103  1  0  0  0  0
 36 44  1  0  0  0  0
 36104  1  0  0  0  0
 37 47  2  0  0  0  0
 37 49  1  0  0  0  0
 38 48  2  0  0  0  0
 38 50  1  0  0  0  0
 39 45  1  0  0  0  0
 39105  1  0  0  0  0
 40 46  1  0  0  0  0
 40106  1  0  0  0  0
 41107  1  0  0  0  0
 41108  1  0  0  0  0
 42109  1  0  0  0  0
 42110  1  0  0  0  0
 43 45  2  0  0  0  0
 44 46  2  0  0  0  0
 47 53  1  0  0  0  0
 47111  1  0  0  0  0
 48 54  1  0  0  0  0
 48112  1  0  0  0  0
 49 51  2  0  0  0  0
 49113  1  0  0  0  0
 50 52  2  0  0  0  0
 50114  1  0  0  0  0
 51 55  1  0  0  0  0
 52 56  1  0  0  0  0
 53 55  2  0  0  0  0
 54 56  2  0  0  0  0
 57 63  1  0  0  0  0
 58 64  1  0  0  0  0
 59115  1  0  0  0  0
 59116  1  0  0  0  0
 59117  1  0  0  0  0
 60118  1  0  0  0  0
 60119  1  0  0  0  0
 60120  1  0  0  0  0
 61121  1  0  0  0  0
 61122  1  0  0  0  0
 61123  1  0  0  0  0
 62124  1  0  0  0  0
 62125  1  0  0  0  0
 62126  1  0  0  0  0
 63 65  1  0  0  0  0
 63127  1  0  0  0  0
 63128  1  0  0  0  0
 64 66  1  0  0  0  0
 64129  1  0  0  0  0
 64130  1  0  0  0  0
 65 73  1  0  0  0  0
 65131  1  0  0  0  0
 65132  1  0  0  0  0
 66 74  1  0  0  0  0
 66133  1  0  0  0  0
 66134  1  0  0  0  0
 67135  1  0  0  0  0
 67136  1  0  0  0  0
 67137  1  0  0  0  0
 68138  1  0  0  0  0
 68139  1  0  0  0  0
 68140  1  0  0  0  0
 69141  1  0  0  0  0
 69142  1  0  0  0  0
 69143  1  0  0  0  0
 70144  1  0  0  0  0
 70145  1  0  0  0  0
 70146  1  0  0  0  0
 71147  1  0  0  0  0
 71148  1  0  0  0  0
 71149  1  0  0  0  0
 72150  1  0  0  0  0
 72151  1  0  0  0  0
 72152  1  0  0  0  0
 73 74  2  0  0  0  0
 73153  1  0  0  0  0
 74154  1  0  0  0  0
M  CHG  2  15   1  16   1
M  END
>  <DRUGBANK_ID>
DB01226

>  <SECONDARY_ACCESSION_NUMBERS>
APRD01119

>  <COMMON_NAME>
Mivacurium

>  <CAS_NUMBER>
133814-19-4

>  <UNII>
77D66S9Q93

>  <SYNONYMS>
Mivacurium

$$$$
