
 OpenBabel10282417072D

 39 38  0  0  1  0  0  0  0  0999 V2000
   12.6177    4.8099    0.0000 N   0  0  0  0  0  0  0  0  0  0  0  0
   12.6177    3.9849    0.0000 C   0  0  1  0  0  0  0  0  0  0  0  0
   11.9033    3.5724    0.0000 C   0  0  0  0  0  0  0  0  0  0  0  0
   11.1888    3.9849    0.0000 C   0  0  0  0  0  0  0  0  0  0  0  0
   10.4743    3.5724    0.0000 C   0  0  0  0  0  0  0  0  0  0  0  0
   10.4743    2.7474    0.0000 O   0  0  0  0  0  0  0  0  0  0  0  0
    9.7599    3.9849    0.0000 N   0  0  0  0  0  0  0  0  0  0  0  0
    9.0454    3.5724    0.0000 C   0  0  1  0  0  0  0  0  0  0  0  0
    9.0454    2.7474    0.0000 C   0  0  0  0  0  0  0  0  0  0  0  0
    8.3309    2.3349    0.0000 S   0  0  2  0  0  0  0  0  0  0  0  0
    7.6164    2.7474    0.0000 O   0  0  0  0  0  0  0  0  0  0  0  0
    8.3309    1.5099    0.0000 O   0  0  0  0  0  0  0  0  0  0  0  0
    8.3309    3.9849    0.0000 C   0  0  0  0  0  0  0  0  0  0  0  0
    8.3309    4.8099    0.0000 O   0  0  0  0  0  0  0  0  0  0  0  0
    7.6164    3.5724    0.0000 N   0  0  0  0  0  0  0  0  0  0  0  0
    6.9020    3.9849    0.0000 C   0  0  0  0  0  0  0  0  0  0  0  0
    6.1875    3.5724    0.0000 C   0  0  0  0  0  0  0  0  0  0  0  0
    5.4730    3.9849    0.0000 O   0  0  0  0  0  0  0  0  0  0  0  0
    6.1875    2.7474    0.0000 O   0  0  0  0  0  0  0  0  0  0  0  0
   13.3322    3.5724    0.0000 C   0  0  0  0  0  0  0  0  0  0  0  0
   14.0467    3.9849    0.0000 O   0  0  0  0  0  0  0  0  0  0  0  0
   13.3322    2.7474    0.0000 O   0  0  0  0  0  0  0  0  0  0  0  0
   13.5010    5.3199    0.0000 H   0  0  0  0  0  0  0  0  0  0  0  0
   11.7344    5.3199    0.0000 H   0  0  0  0  0  0  0  0  0  0  0  0
   11.6910    4.5199    0.0000 H   0  0  0  0  0  0  0  0  0  0  0  0
   11.9033    2.5024    0.0000 H   0  0  0  0  0  0  0  0  0  0  0  0
   10.9767    3.0374    0.0000 H   0  0  0  0  0  0  0  0  0  0  0  0
   11.1888    5.0549    0.0000 H   0  0  0  0  0  0  0  0  0  0  0  0
   10.2622    4.5199    0.0000 H   0  0  0  0  0  0  0  0  0  0  0  0
    9.7599    4.9694    0.0000 H   0  0  0  0  0  0  0  0  0  0  0  0
    9.9720    3.0374    0.0000 H   0  0  0  0  0  0  0  0  0  0  0  0
    9.9720    2.2124    0.0000 H   0  0  0  0  0  0  0  0  0  0  0  0
    9.0454    1.6774    0.0000 H   0  0  0  0  0  0  0  0  0  0  0  0
    7.6164    3.7174    0.0000 H   0  0  0  0  0  0  0  0  0  0  0  0
    7.6164    2.5879    0.0000 H   0  0  0  0  0  0  0  0  0  0  0  0
    6.9020    5.0549    0.0000 H   0  0  0  0  0  0  0  0  0  0  0  0
    5.9754    4.5199    0.0000 H   0  0  0  0  0  0  0  0  0  0  0  0
    5.4730    4.9219    0.0000 H   0  0  0  0  0  0  0  0  0  0  0  0
   14.8582    3.5164    0.0000 H   0  0  0  0  0  0  0  0  0  0  0  0
  1 23  1  0  0  0  0
  1 24  1  0  0  0  0
  2  1  1  0  0  0  0
  2  3  1  0  0  0  0
  2 20  1  0  0  0  0
  2 25  1  1  0  0  0
  3  4  1  0  0  0  0
  3 26  1  0  0  0  0
  3 27  1  0  0  0  0
  4  5  1  0  0  0  0
  4 28  1  0  0  0  0
  4 29  1  0  0  0  0
  5  6  2  0  0  0  0
  5  7  1  0  0  0  0
  7 30  1  0  0  0  0
  8  7  1  0  0  0  0
  8  9  1  0  0  0  0
  8 13  1  0  0  0  0
  8 31  1  6  0  0  0
  9 10  1  0  0  0  0
  9 32  1  0  0  0  0
  9 33  1  0  0  0  0
 10 11  1  0  0  0  0
 10 12  2  1  0  0  0
 11 34  1  0  0  0  0
 13 14  2  0  0  0  0
 13 15  1  0  0  0  0
 15 16  1  0  0  0  0
 15 35  1  0  0  0  0
 16 17  1  0  0  0  0
 16 36  1  0  0  0  0
 16 37  1  0  0  0  0
 17 18  1  0  0  0  0
 17 19  2  0  0  0  0
 18 38  1  0  0  0  0
 20 21  1  0  0  0  0
 20 22  2  0  0  0  0
 21 39  1  0  0  0  0
M  END
>  <DRUGBANK_ID>
DB04700

>  <COMMON_NAME>
GLUTATHIONE SULFINATE

$$$$
