
 OpenBabel10282417072D

  5  4  0  0  0  0  0  0  0  0999 V2000
   -0.0074   -0.2072    0.0000 N   0  3  0  0  0  0  0  0  0  0  0  0
    0.7099   -0.6147    0.0000 O   0  0  0  0  0  0  0  0  0  0  0  0
   -0.0074    0.6334    0.0000 O   0  0  0  0  0  0  0  0  0  0  0  0
   -0.7099   -0.6334    0.0000 O   0  5  0  0  0  0  0  0  0  0  0  0
    0.7164   -1.5517    0.0000 H   0  0  0  0  0  0  0  0  0  0  0  0
  1  2  1  0  0  0  0
  1  3  2  0  0  0  0
  1  4  1  0  0  0  0
  2  5  1  0  0  0  0
M  CHG  2   1   1   4  -1
M  END
>  <DRUGBANK_ID>
DB15995

>  <COMMON_NAME>
Nitric acid

>  <CAS_NUMBER>
7697-37-2

>  <UNII>
411VRN1TV4

>  <SYNONYMS>
Acide nitrique; Acido nitrico; Aqua fortis; Azotowy kwas; Kyselina dusicne; Nitric acid, anhydrous; Salpetersaure; Salpeterzuuroplossingen

$$$$
