
 OpenBabel10282417072D

 42 45  0  0  0  0  0  0  0  0999 V2000
    0.3877   -0.6404    0.0000 C   0  0  2  0  0  0  0  0  0  0  0  0
   -0.4121   -0.6306    0.0000 C   0  0  0  0  0  0  0  0  0  0  0  0
    0.3728    0.7973    0.0000 C   0  0  1  0  0  0  0  0  0  0  0  0
    0.7999    0.0908    0.0000 C   0  0  1  0  0  0  0  0  0  0  0  0
    0.3826    1.7100    0.0000 N   0  0  0  0  0  0  0  0  0  0  0  0
   -0.8488    0.0759    0.0000 C   0  0  0  0  0  0  0  0  0  0  0  0
   -0.4366    0.7973    0.0000 C   0  0  0  0  0  0  0  0  0  0  0  0
   -0.1716   -0.2331    0.0000 C   0  0  0  0  0  0  0  0  0  0  0  0
   -0.1716    1.2979    0.0000 C   0  0  0  0  0  0  0  0  0  0  0  0
   -0.8341   -1.3469    0.0000 C   0  0  0  0  0  0  0  0  0  0  0  0
   -1.6585    0.0759    0.0000 C   0  0  0  0  0  0  0  0  0  0  0  0
   -1.6438   -1.3469    0.0000 C   0  0  0  0  0  0  0  0  0  0  0  0
    0.8145   -1.3224    0.0000 C   0  0  0  0  0  0  0  0  0  0  0  0
   -2.0609   -0.6306    0.0000 C   0  0  0  0  0  0  0  0  0  0  0  0
    1.0059    2.0535    0.0000 C   0  0  0  0  0  0  0  0  0  0  0  0
    1.6243    0.0908    0.0000 C   0  0  0  0  0  0  0  0  0  0  0  0
   -2.0412   -2.0535    0.0000 O   0  0  0  0  0  0  0  0  0  0  0  0
    1.6487   -1.3224    0.0000 C   0  0  0  0  0  0  0  0  0  0  0  0
    2.0609   -0.6012    0.0000 C   0  0  0  0  0  0  0  0  0  0  0  0
    1.2908    0.9611    0.0000 H   0  0  0  0  0  0  0  0  0  0  0  0
   -0.3298    1.5077    0.0000 H   0  0  0  0  0  0  0  0  0  0  0  0
   -0.9737    1.7227    0.0000 H   0  0  0  0  0  0  0  0  0  0  0  0
   -1.5066    0.7937    0.0000 H   0  0  0  0  0  0  0  0  0  0  0  0
   -1.1252   -0.7183    0.0000 H   0  0  0  0  0  0  0  0  0  0  0  0
   -1.0838    0.3262    0.0000 H   0  0  0  0  0  0  0  0  0  0  0  0
   -1.1277    1.7784    0.0000 H   0  0  0  0  0  0  0  0  0  0  0  0
   -1.0824    0.7363    0.0000 H   0  0  0  0  0  0  0  0  0  0  0  0
   -0.3220   -2.2429    0.0000 H   0  0  0  0  0  0  0  0  0  0  0  0
   -2.1771    0.9681    0.0000 H   0  0  0  0  0  0  0  0  0  0  0  0
    0.2961   -2.2584    0.0000 H   0  0  0  0  0  0  0  0  0  0  0  0
    1.3577   -2.2443    0.0000 H   0  0  0  0  0  0  0  0  0  0  0  0
   -3.0929   -0.6355    0.0000 H   0  0  0  0  0  0  0  0  0  0  0  0
    1.9217    1.5002    0.0000 H   0  0  0  0  0  0  0  0  0  0  0  0
    1.0272    3.1233    0.0000 H   0  0  0  0  0  0  0  0  0  0  0  0
    1.9430    2.5699    0.0000 H   0  0  0  0  0  0  0  0  0  0  0  0
    2.1410    1.0278    0.0000 H   0  0  0  0  0  0  0  0  0  0  0  0
    2.6938    0.1223    0.0000 H   0  0  0  0  0  0  0  0  0  0  0  0
   -2.9781   -2.0641    0.0000 H   0  0  0  0  0  0  0  0  0  0  0  0
    2.1857   -2.2479    0.0000 H   0  0  0  0  0  0  0  0  0  0  0  0
    2.7187   -1.3189    0.0000 H   0  0  0  0  0  0  0  0  0  0  0  0
    3.1306   -0.5779    0.0000 H   0  0  0  0  0  0  0  0  0  0  0  0
    2.5674    0.3413    0.0000 H   0  0  0  0  0  0  0  0  0  0  0  0
  1  2  1  1  0  0  0
  1  8  1  0  0  0  0
  3  4  1  0  0  0  0
  3  5  1  0  0  0  0
  3 21  1  1  0  0  0
  4  1  1  0  0  0  0
  4 20  1  6  0  0  0
  5  9  1  0  0  0  0
  6  2  2  0  0  0  0
  6  7  1  0  0  0  0
  7  3  1  0  0  0  0
  7 22  1  0  0  0  0
  7 23  1  0  0  0  0
  8 24  1  0  0  0  0
  8 25  1  0  0  0  0
  9  8  1  0  0  0  0
  9 26  1  0  0  0  0
  9 27  1  0  0  0  0
 10  2  1  0  0  0  0
 10 28  1  0  0  0  0
 11  6  1  0  0  0  0
 11 14  2  0  0  0  0
 11 29  1  0  0  0  0
 12 10  2  0  0  0  0
 13  1  1  0  0  0  0
 13 30  1  0  0  0  0
 13 31  1  0  0  0  0
 14 12  1  0  0  0  0
 14 32  1  0  0  0  0
 15  5  1  0  0  0  0
 15 33  1  0  0  0  0
 15 34  1  0  0  0  0
 15 35  1  0  0  0  0
 16  4  1  0  0  0  0
 16 19  1  0  0  0  0
 16 36  1  0  0  0  0
 16 37  1  0  0  0  0
 17 12  1  0  0  0  0
 17 38  1  0  0  0  0
 18 13  1  0  0  0  0
 18 39  1  0  0  0  0
 18 40  1  0  0  0  0
 19 18  1  0  0  0  0
 19 41  1  0  0  0  0
 19 42  1  0  0  0  0
M  END
>  <DRUGBANK_ID>
DB14682

>  <COMMON_NAME>
Dextrorphan

>  <CAS_NUMBER>
125-73-5

>  <UNII>
04B7QNO9WS

>  <SYNONYMS>
(+)-dextrorphan; (+)-N-methylmorphinan-3-ol; d-3-hydroxy-N-methylmorphinan; Dextro-dromoran; Dextrorphan; Dextrorphane; Dextrorphanum; Levorphanol D-form

$$$$
