
 OpenBabel10282417072D

 23 23  0  0  0  0  0  0  0  0999 V2000
    0.6347   -0.5114    0.0000 N   0  0  0  0  0  0  0  0  0  0  0  0
    0.6347    0.3135    0.0000 C   0  0  1  0  0  0  0  0  0  0  0  0
   -0.0797    0.7260    0.0000 C   0  0  0  0  0  0  0  0  0  0  0  0
   -0.7942    0.3135    0.0000 C   0  0  0  0  0  0  0  0  0  0  0  0
   -0.7942   -0.5114    0.0000 C   0  0  0  0  0  0  0  0  0  0  0  0
   -2.0637   -0.0989    0.0000 C   0  0  0  0  0  0  0  0  0  0  0  0
   -1.5788    0.5684    0.0000 N   0  0  0  0  0  0  0  0  0  0  0  0
    2.0637    0.3135    0.0000 O   0  0  0  0  0  0  0  0  0  0  0  0
    1.3492    0.7260    0.0000 C   0  0  0  0  0  0  0  0  0  0  0  0
    1.3492    1.5510    0.0000 O   0  0  0  0  0  0  0  0  0  0  0  0
   -1.5788   -0.7663    0.0000 N   0  0  0  0  0  0  0  0  0  0  0  0
   -1.8337   -1.5510    0.0000 C   0  0  0  0  0  0  0  0  0  0  0  0
   -0.2486   -1.0214    0.0000 H   0  0  0  0  0  0  0  0  0  0  0  0
    1.5180   -1.0214    0.0000 H   0  0  0  0  0  0  0  0  0  0  0  0
    1.5613   -0.2215    0.0000 H   0  0  0  0  0  0  0  0  0  0  0  0
   -0.0797    1.7960    0.0000 H   0  0  0  0  0  0  0  0  0  0  0  0
   -1.0063    1.2610    0.0000 H   0  0  0  0  0  0  0  0  0  0  0  0
    0.0407   -1.1180    0.0000 H   0  0  0  0  0  0  0  0  0  0  0  0
   -3.0957   -0.0989    0.0000 H   0  0  0  0  0  0  0  0  0  0  0  0
    2.0637   -0.6235    0.0000 H   0  0  0  0  0  0  0  0  0  0  0  0
   -2.8803   -1.7735    0.0000 H   0  0  0  0  0  0  0  0  0  0  0  0
   -1.1177   -2.3461    0.0000 H   0  0  0  0  0  0  0  0  0  0  0  0
   -2.1643   -2.5687    0.0000 H   0  0  0  0  0  0  0  0  0  0  0  0
  1 13  1  0  0  0  0
  1 14  1  0  0  0  0
  2  1  1  0  0  0  0
  2  9  1  0  0  0  0
  2 15  1  6  0  0  0
  3  2  1  0  0  0  0
  3 16  1  0  0  0  0
  3 17  1  0  0  0  0
  4  3  1  0  0  0  0
  5  4  2  0  0  0  0
  5 18  1  0  0  0  0
  6 11  1  0  0  0  0
  6  7  2  0  0  0  0
  6 19  1  0  0  0  0
  7  4  1  0  0  0  0
  8 20  1  0  0  0  0
  9  8  1  0  0  0  0
 10  9  2  0  0  0  0
 11  5  1  0  0  0  0
 11 12  1  0  0  0  0
 12 21  1  0  0  0  0
 12 22  1  0  0  0  0
 12 23  1  0  0  0  0
M  END
>  <DRUGBANK_ID>
DB04151

>  <SECONDARY_ACCESSION_NUMBERS>
EXPT01748

>  <COMMON_NAME>
1-Methylhistidine

>  <CAS_NUMBER>
332-80-9

>  <UNII>
583O01BJ32

>  <SYNONYMS>
(2S)-2-amino-3-(1-methyl-1H-imidazol-4-yl)propanoic acid; 1-methyl-L-histidine; N(tele)-methyl-L-histidine; Pi-methylhistidine

$$$$
