
 OpenBabel10282417072D

 55 58  0  0  0  0  0  0  0  0999 V2000
   -5.0074    1.8620    0.0000 Cl  0  0  0  0  0  0  0  0  0  0  0  0
   -5.0074    1.0370    0.0000 C   0  0  0  0  0  0  0  0  0  0  0  0
   -4.2970    0.6245    0.0000 C   0  0  0  0  0  0  0  0  0  0  0  0
   -3.5751    1.0370    0.0000 Cl  0  0  0  0  0  0  0  0  0  0  0  0
   -4.2970   -0.2005    0.0000 C   0  0  0  0  0  0  0  0  0  0  0  0
   -5.0074   -0.6130    0.0000 C   0  0  0  0  0  0  0  0  0  0  0  0
   -5.7293   -0.2005    0.0000 C   0  0  0  0  0  0  0  0  0  0  0  0
   -5.7293    0.6245    0.0000 C   0  0  0  0  0  0  0  0  0  0  0  0
   -3.5751   -0.6130    0.0000 N   0  0  0  0  0  0  0  0  0  0  0  0
   -3.5751   -1.4495    0.0000 C   0  0  0  0  0  0  0  0  0  0  0  0
   -2.8532   -1.8620    0.0000 C   0  0  0  0  0  0  0  0  0  0  0  0
   -2.1428   -1.4495    0.0000 N   0  0  0  0  0  0  0  0  0  0  0  0
   -1.4209   -1.8620    0.0000 C   0  0  0  0  0  0  0  0  0  0  0  0
   -0.7104   -1.4495    0.0000 C   0  0  0  0  0  0  0  0  0  0  0  0
    0.0114   -1.8620    0.0000 C   0  0  0  0  0  0  0  0  0  0  0  0
    0.7333   -1.4495    0.0000 C   0  0  0  0  0  0  0  0  0  0  0  0
    1.4437   -1.8620    0.0000 O   0  0  0  0  0  0  0  0  0  0  0  0
    2.1656   -1.4495    0.0000 C   0  0  0  0  0  0  0  0  0  0  0  0
    2.1656   -0.6130    0.0000 C   0  0  0  0  0  0  0  0  0  0  0  0
    2.8761   -0.2119    0.0000 C   0  0  0  0  0  0  0  0  0  0  0  0
    3.5865   -0.6130    0.0000 C   0  0  0  0  0  0  0  0  0  0  0  0
    4.2970   -0.2119    0.0000 O   0  0  0  0  0  0  0  0  0  0  0  0
    5.0074   -0.6130    0.0000 C   0  0  0  0  0  0  0  0  0  0  0  0
    5.0074   -1.4495    0.0000 C   0  0  0  0  0  0  0  0  0  0  0  0
    5.7293   -1.8620    0.0000 O   0  0  0  0  0  0  0  0  0  0  0  0
    4.2970   -1.8620    0.0000 N   0  0  0  0  0  0  0  0  0  0  0  0
    3.5865   -1.4495    0.0000 C   0  0  0  0  0  0  0  0  0  0  0  0
    2.8761   -1.8620    0.0000 C   0  0  0  0  0  0  0  0  0  0  0  0
   -2.1428   -0.6245    0.0000 C   0  0  0  0  0  0  0  0  0  0  0  0
   -2.8647   -0.2005    0.0000 C   0  0  0  0  0  0  0  0  0  0  0  0
   -5.0038   -1.6450    0.0000 H   0  0  0  0  0  0  0  0  0  0  0  0
   -6.6219   -0.7185    0.0000 H   0  0  0  0  0  0  0  0  0  0  0  0
   -6.6219    1.1425    0.0000 H   0  0  0  0  0  0  0  0  0  0  0  0
   -4.5005   -1.9866    0.0000 H   0  0  0  0  0  0  0  0  0  0  0  0
   -3.5715   -2.5195    0.0000 H   0  0  0  0  0  0  0  0  0  0  0  0
   -2.8495   -2.9320    0.0000 H   0  0  0  0  0  0  0  0  0  0  0  0
   -1.9250   -2.3942    0.0000 H   0  0  0  0  0  0  0  0  0  0  0  0
   -1.4172   -2.9320    0.0000 H   0  0  0  0  0  0  0  0  0  0  0  0
   -0.4927   -2.3943    0.0000 H   0  0  0  0  0  0  0  0  0  0  0  0
   -0.7141   -0.3795    0.0000 H   0  0  0  0  0  0  0  0  0  0  0  0
    0.2141   -0.9109    0.0000 H   0  0  0  0  0  0  0  0  0  0  0  0
    0.0114   -2.9320    0.0000 H   0  0  0  0  0  0  0  0  0  0  0  0
    0.9368   -2.3991    0.0000 H   0  0  0  0  0  0  0  0  0  0  0  0
    0.7370   -0.3795    0.0000 H   0  0  0  0  0  0  0  0  0  0  0  0
    1.6615   -0.9173    0.0000 H   0  0  0  0  0  0  0  0  0  0  0  0
    1.2744   -0.0927    0.0000 H   0  0  0  0  0  0  0  0  0  0  0  0
    2.8761    0.8201    0.0000 H   0  0  0  0  0  0  0  0  0  0  0  0
    5.9315   -0.0736    0.0000 H   0  0  0  0  0  0  0  0  0  0  0  0
    5.9353   -1.1458    0.0000 H   0  0  0  0  0  0  0  0  0  0  0  0
    4.2970   -2.8465    0.0000 H   0  0  0  0  0  0  0  0  0  0  0  0
    2.8761   -2.8940    0.0000 H   0  0  0  0  0  0  0  0  0  0  0  0
   -1.2142   -0.0930    0.0000 H   0  0  0  0  0  0  0  0  0  0  0  0
   -2.1368    0.4455    0.0000 H   0  0  0  0  0  0  0  0  0  0  0  0
   -2.8620    0.8695    0.0000 H   0  0  0  0  0  0  0  0  0  0  0  0
   -1.9354    0.3299    0.0000 H   0  0  0  0  0  0  0  0  0  0  0  0
  1  2  1  0  0  0  0
  2  3  2  0  0  0  0
  2  8  1  0  0  0  0
  3  4  1  0  0  0  0
  3  5  1  0  0  0  0
  5  6  2  0  0  0  0
  5  9  1  0  0  0  0
  6  7  1  0  0  0  0
  6 31  1  0  0  0  0
  7  8  2  0  0  0  0
  7 32  1  0  0  0  0
  8 33  1  0  0  0  0
  9 10  1  0  0  0  0
  9 30  1  0  0  0  0
 10 11  1  0  0  0  0
 10 34  1  0  0  0  0
 10 35  1  0  0  0  0
 11 12  1  0  0  0  0
 11 36  1  0  0  0  0
 11 37  1  0  0  0  0
 12 13  1  0  0  0  0
 12 29  1  0  0  0  0
 13 14  1  0  0  0  0
 13 38  1  0  0  0  0
 13 39  1  0  0  0  0
 14 15  1  0  0  0  0
 14 40  1  0  0  0  0
 14 41  1  0  0  0  0
 15 16  1  0  0  0  0
 15 42  1  0  0  0  0
 15 43  1  0  0  0  0
 16 17  1  0  0  0  0
 16 44  1  0  0  0  0
 16 45  1  0  0  0  0
 17 18  1  0  0  0  0
 18 19  2  0  0  0  0
 18 28  1  0  0  0  0
 19 20  1  0  0  0  0
 19 46  1  0  0  0  0
 20 21  2  0  0  0  0
 20 47  1  0  0  0  0
 21 22  1  0  0  0  0
 21 27  1  0  0  0  0
 22 23  1  0  0  0  0
 23 24  1  0  0  0  0
 23 48  1  0  0  0  0
 23 49  1  0  0  0  0
 24 25  2  0  0  0  0
 24 26  1  0  0  0  0
 26 27  1  0  0  0  0
 26 50  1  0  0  0  0
 27 28  2  0  0  0  0
 28 51  1  0  0  0  0
 29 30  1  0  0  0  0
 29 52  1  0  0  0  0
 29 53  1  0  0  0  0
 30 54  1  0  0  0  0
 30 55  1  0  0  0  0
M  END
>  <DRUGBANK_ID>
DB09226

>  <COMMON_NAME>
Brilaroxazine

>  <CAS_NUMBER>
1239729-06-6

>  <UNII>
X8L60BA01I

>  <SYNONYMS>
6-(4-(4-(2,3-Dichlorophenyl)-piperazin-1-yl)-butoxy)-2H-benzo(b)(1,4)oxazin-3(4H)-one; Brilaroxazina; Brilaroxazine; Brilaroxazinum

$$$$
