
 OpenBabel10282417072D

 40 43  0  0  0  0  0  0  0  0999 V2000
    8.9947    2.0625    0.0000 C   0  0  0  0  0  0  0  0  0  0  0  0
    3.9934    0.8250    0.0000 C   0  0  0  0  0  0  0  0  0  0  0  0
    3.2789    1.2375    0.0000 C   0  0  0  0  0  0  0  0  0  0  0  0
    8.2802    2.4750    0.0000 C   0  0  0  0  0  0  0  0  0  0  0  0
    8.9947    1.2375    0.0000 C   0  0  0  0  0  0  0  0  0  0  0  0
    6.1368   -0.4125    0.0000 C   0  0  0  0  0  0  0  0  0  0  0  0
    5.4223    0.8250    0.0000 C   0  0  0  0  0  0  0  0  0  0  0  0
    6.8513   -0.0000    0.0000 C   0  0  0  0  0  0  0  0  0  0  0  0
    6.1368    1.2375    0.0000 C   0  0  0  0  0  0  0  0  0  0  0  0
    3.2789   -0.4125    0.0000 C   0  0  0  0  0  0  0  0  0  0  0  0
    4.7079   -0.4125    0.0000 C   0  0  0  0  0  0  0  0  0  0  0  0
    1.2949    0.4125    0.0000 C   0  0  0  0  0  0  0  0  0  0  0  0
    3.9934    0.0000    0.0000 C   0  0  0  0  0  0  0  0  0  0  0  0
    2.5645    0.8250    0.0000 C   0  0  0  0  0  0  0  0  0  0  0  0
    2.5645    0.0000    0.0000 C   0  0  0  0  0  0  0  0  0  0  0  0
    7.5658    1.2375    0.0000 C   0  0  0  0  0  0  0  0  0  0  0  0
    7.5658    2.0625    0.0000 N   0  0  0  0  0  0  0  0  0  0  0  0
    8.2802    0.8250    0.0000 N   0  0  0  0  0  0  0  0  0  0  0  0
    5.4223   -0.0000    0.0000 N   0  0  0  0  0  0  0  0  0  0  0  0
    6.8513    0.8250    0.0000 N   0  0  0  0  0  0  0  0  0  0  0  0
    1.7798    1.0799    0.0000 O   0  0  0  0  0  0  0  0  0  0  0  0
    1.7798   -0.2549    0.0000 O   0  0  0  0  0  0  0  0  0  0  0  0
    9.8884    2.5785    0.0000 H   0  0  0  0  0  0  0  0  0  0  0  0
    4.8871    1.3410    0.0000 H   0  0  0  0  0  0  0  0  0  0  0  0
    3.2789    2.2695    0.0000 H   0  0  0  0  0  0  0  0  0  0  0  0
    8.2802    3.5070    0.0000 H   0  0  0  0  0  0  0  0  0  0  0  0
    9.8884    0.7215    0.0000 H   0  0  0  0  0  0  0  0  0  0  0  0
    6.1368   -1.4825    0.0000 H   0  0  0  0  0  0  0  0  0  0  0  0
    5.2102   -0.9475    0.0000 H   0  0  0  0  0  0  0  0  0  0  0  0
    4.4957    1.3600    0.0000 H   0  0  0  0  0  0  0  0  0  0  0  0
    4.4957    0.2900    0.0000 H   0  0  0  0  0  0  0  0  0  0  0  0
    7.7779   -0.5350    0.0000 H   0  0  0  0  0  0  0  0  0  0  0  0
    7.7779    0.5350    0.0000 H   0  0  0  0  0  0  0  0  0  0  0  0
    6.1368    2.3075    0.0000 H   0  0  0  0  0  0  0  0  0  0  0  0
    7.0634    1.7725    0.0000 H   0  0  0  0  0  0  0  0  0  0  0  0
    3.2789   -1.4445    0.0000 H   0  0  0  0  0  0  0  0  0  0  0  0
    4.7079   -1.4825    0.0000 H   0  0  0  0  0  0  0  0  0  0  0  0
    5.6346   -0.9475    0.0000 H   0  0  0  0  0  0  0  0  0  0  0  0
    0.2249    0.4125    0.0000 H   0  0  0  0  0  0  0  0  0  0  0  0
    0.8091   -0.5409    0.0000 H   0  0  0  0  0  0  0  0  0  0  0  0
  1 23  1  0  0  0  0
  2 24  1  0  0  0  0
  3  2  2  0  0  0  0
  3 25  1  0  0  0  0
  4  1  2  0  0  0  0
  4 26  1  0  0  0  0
  5  1  1  0  0  0  0
  5 27  1  0  0  0  0
  6 28  1  0  0  0  0
  6 29  1  0  0  0  0
  7 30  1  0  0  0  0
  7 31  1  0  0  0  0
  8  6  1  0  0  0  0
  8 32  1  0  0  0  0
  8 33  1  0  0  0  0
  9  7  1  0  0  0  0
  9 34  1  0  0  0  0
  9 35  1  0  0  0  0
 10 36  1  0  0  0  0
 11 37  1  0  0  0  0
 11 38  1  0  0  0  0
 12 39  1  0  0  0  0
 12 40  1  0  0  0  0
 13  2  1  0  0  0  0
 13 10  2  0  0  0  0
 13 11  1  0  0  0  0
 14  3  1  0  0  0  0
 15 10  1  0  0  0  0
 15 14  2  0  0  0  0
 17  4  1  0  0  0  0
 17 16  2  0  0  0  0
 18  5  2  0  0  0  0
 18 16  1  0  0  0  0
 19  6  1  0  0  0  0
 19  7  1  0  0  0  0
 19 11  1  0  0  0  0
 20  8  1  0  0  0  0
 20  9  1  0  0  0  0
 20 16  1  0  0  0  0
 21 12  1  0  0  0  0
 21 14  1  0  0  0  0
 22 12  1  0  0  0  0
 22 15  1  0  0  0  0
M  END
>  <DRUGBANK_ID>
DB12478

>  <COMMON_NAME>
Piribedil

>  <CAS_NUMBER>
3605-01-4

>  <UNII>
DO22K1PRDJ

>  <SYNONYMS>
Piribedil

$$$$
