
 OpenBabel10282417072D

 50 53  0  0  0  0  0  0  0  0999 V2000
    0.0972    2.2544    0.0000 C   0  0  0  0  0  0  0  0  0  0  0  0
   -0.6460    1.8964    0.0000 C   0  0  0  0  0  0  0  0  0  0  0  0
   -0.8295    1.0922    0.0000 C   0  0  2  0  0  0  0  0  0  0  0  0
   -0.3152    0.4471    0.0000 C   0  0  2  0  0  0  0  0  0  0  0  0
    0.5098    0.4471    0.0000 C   0  0  1  0  0  0  0  0  0  0  0  0
    1.0241    1.0922    0.0000 O   0  0  0  0  0  0  0  0  0  0  0  0
    0.8405    1.8964    0.0000 C   0  0  1  0  0  0  0  0  0  0  0  0
   -1.6454    0.9692    0.0000 C   0  0  1  0  0  0  0  0  0  0  0  0
   -1.9468    0.2013    0.0000 C   0  0  0  0  0  0  0  0  0  0  0  0
   -1.4325   -0.4438    0.0000 C   0  0  0  0  0  0  0  0  0  0  0  0
   -0.7277   -0.2673    0.0000 C   0  0  1  0  0  0  0  0  0  0  0  0
   -0.3152   -0.9818    0.0000 C   0  0  2  0  0  0  0  0  0  0  0  0
    0.5098   -0.9818    0.0000 C   0  0  2  0  0  0  0  0  0  0  0  0
    0.9222   -0.2673    0.0000 O   0  0  0  0  0  0  0  0  0  0  0  0
   -1.4129    1.6754    0.0000 H   0  0  0  0  0  0  0  0  0  0  0  0
   -2.1596    1.6143    0.0000 C   0  0  0  0  0  0  0  0  0  0  0  0
    1.4856    2.4108    0.0000 C   0  0  0  0  0  0  0  0  0  0  0  0
   -0.3152    1.2721    0.0000 O   0  0  0  0  0  0  0  0  0  0  0  0
    0.0436    1.6829    0.0000 O   0  0  0  0  0  0  0  0  0  0  0  0
    0.9222   -1.6962    0.0000 O   0  0  0  0  0  0  0  0  0  0  0  0
   -0.7277   -1.6962    0.0000 C   0  0  0  0  0  0  0  0  0  0  0  0
   -1.1401   -0.9818    0.0000 H   0  0  0  0  0  0  0  0  0  0  0  0
    0.0972   -0.2673    0.0000 H   0  0  0  0  0  0  0  0  0  0  0  0
    1.7472   -1.6962    0.0000 C   0  0  0  0  0  0  0  0  0  0  0  0
    2.1596   -2.4108    0.0000 C   0  0  0  0  0  0  0  0  0  0  0  0
    0.0972    3.3244    0.0000 H   0  0  0  0  0  0  0  0  0  0  0  0
    1.0032    2.8237    0.0000 H   0  0  0  0  0  0  0  0  0  0  0  0
   -1.4826    2.5635    0.0000 H   0  0  0  0  0  0  0  0  0  0  0  0
   -1.6559    1.5429    0.0000 H   0  0  0  0  0  0  0  0  0  0  0  0
   -1.2544    1.9652    0.0000 H   0  0  0  0  0  0  0  0  0  0  0  0
   -3.0049    0.0419    0.0000 H   0  0  0  0  0  0  0  0  0  0  0  0
   -2.3378   -0.7947    0.0000 H   0  0  0  0  0  0  0  0  0  0  0  0
   -1.7754   -1.4574    0.0000 H   0  0  0  0  0  0  0  0  0  0  0  0
   -0.7071   -1.2303    0.0000 H   0  0  0  0  0  0  0  0  0  0  0  0
   -1.3852   -0.9818    0.0000 H   0  0  0  0  0  0  0  0  0  0  0  0
   -0.0252   -1.9084    0.0000 H   0  0  0  0  0  0  0  0  0  0  0  0
   -1.7684    2.6102    0.0000 H   0  0  0  0  0  0  0  0  0  0  0  0
   -3.2177    1.4551    0.0000 H   0  0  0  0  0  0  0  0  0  0  0  0
   -2.8265    2.4510    0.0000 H   0  0  0  0  0  0  0  0  0  0  0  0
    2.4816    2.0198    0.0000 H   0  0  0  0  0  0  0  0  0  0  0  0
    1.3262    3.4689    0.0000 H   0  0  0  0  0  0  0  0  0  0  0  0
    2.3222    3.0779    0.0000 H   0  0  0  0  0  0  0  0  0  0  0  0
   -1.7977   -1.6962    0.0000 H   0  0  0  0  0  0  0  0  0  0  0  0
   -0.1927   -2.6229    0.0000 H   0  0  0  0  0  0  0  0  0  0  0  0
   -1.2627   -2.6228    0.0000 H   0  0  0  0  0  0  0  0  0  0  0  0
    2.2823   -0.7696    0.0000 H   0  0  0  0  0  0  0  0  0  0  0  0
    2.8172   -1.6963    0.0000 H   0  0  0  0  0  0  0  0  0  0  0  0
    1.6244   -3.3373    0.0000 H   0  0  0  0  0  0  0  0  0  0  0  0
    3.2296   -2.4110    0.0000 H   0  0  0  0  0  0  0  0  0  0  0  0
    2.6944   -3.3375    0.0000 H   0  0  0  0  0  0  0  0  0  0  0  0
  1  2  1  0  0  0  0
  1 26  1  0  0  0  0
  1 27  1  0  0  0  0
  2  3  1  0  0  0  0
  2 28  1  0  0  0  0
  2 29  1  0  0  0  0
  3  8  1  0  0  0  0
  3 15  1  1  0  0  0
  4  3  1  0  0  0  0
  4 11  1  0  0  0  0
  4 18  1  1  0  0  0
  5  6  1  0  0  0  0
  5  4  1  0  0  0  0
  5 23  1  6  0  0  0
  6  7  1  0  0  0  0
  7  1  1  0  0  0  0
  7 17  1  1  0  0  0
  7 19  1  0  0  0  0
  8  9  1  0  0  0  0
  8 16  1  0  0  0  0
  8 30  1  6  0  0  0
  9 10  1  0  0  0  0
  9 31  1  0  0  0  0
  9 32  1  0  0  0  0
 10 11  1  0  0  0  0
 10 33  1  0  0  0  0
 10 34  1  0  0  0  0
 11 12  1  0  0  0  0
 11 22  1  1  0  0  0
 12 13  1  0  0  0  0
 12 21  1  0  0  0  0
 12 35  1  1  0  0  0
 13 14  1  0  0  0  0
 13 20  1  0  0  0  0
 13 36  1  1  0  0  0
 14  5  1  0  0  0  0
 16 37  1  0  0  0  0
 16 38  1  0  0  0  0
 16 39  1  0  0  0  0
 17 40  1  0  0  0  0
 17 41  1  0  0  0  0
 17 42  1  0  0  0  0
 19 18  1  0  0  0  0
 20 24  1  0  0  0  0
 21 43  1  0  0  0  0
 21 44  1  0  0  0  0
 21 45  1  0  0  0  0
 24 25  1  0  0  0  0
 24 46  1  0  0  0  0
 24 47  1  0  0  0  0
 25 48  1  0  0  0  0
 25 49  1  0  0  0  0
 25 50  1  0  0  0  0
M  END
>  <DRUGBANK_ID>
DB13851

>  <COMMON_NAME>
Artemotil

>  <CAS_NUMBER>
75887-54-6

>  <UNII>
XGL7GFB9YI

>  <SYNONYMS>
Arteether; Artemotil; beta-Arteether; beta-Dihydroartemisinin ethyl ether; Dihydroartemisinin ethyl ether

$$$$
