
 OpenBabel10282417072D

194197  0  0  1  0  0  0  0  0999 V2000
    6.5284    1.6808    0.0000 C   0  0  0  0  0  0  0  0  0  0  0  0
    6.5284    2.5057    0.0000 N   0  0  0  0  0  0  0  0  0  0  0  0
    7.2429    2.9182    0.0000 C   0  0  0  0  0  0  0  0  0  0  0  0
    7.9573    2.5057    0.0000 C   0  0  0  0  0  0  0  0  0  0  0  0
    8.6718    2.9182    0.0000 N   0  0  0  0  0  0  0  0  0  0  0  0
    9.3864    2.5057    0.0000 C   0  0  0  0  0  0  0  0  0  0  0  0
    8.6718    3.7432    0.0000 C   0  0  0  0  0  0  0  0  0  0  0  0
    7.2429    1.2682    0.0000 O   0  0  0  0  0  0  0  0  0  0  0  0
    5.8140    1.2682    0.0000 C   0  0  1  0  0  0  0  0  0  0  0  0
    5.8140    0.4432    0.0000 C   0  0  1  0  0  0  0  0  0  0  0  0
    5.0995    0.0309    0.0000 O   0  0  0  0  0  0  0  0  0  0  0  0
    4.3851    0.4432    0.0000 C   0  0  2  0  0  0  0  0  0  0  0  0
    4.3851    1.2682    0.0000 C   0  0  0  0  0  0  0  0  0  0  0  0
    5.0996    1.6809    0.0000 C   0  0  2  0  0  0  0  0  0  0  0  0
    5.0996    2.5059    0.0000 O   0  0  0  0  0  0  0  0  0  0  0  0
    3.6706    0.8559    0.0000 O   0  0  0  0  0  0  0  0  0  0  0  0
    3.6706    0.0309    0.0000 C   0  0  0  0  0  0  0  0  0  0  0  0
    2.9560    0.4433    0.0000 C   0  0  1  0  0  0  0  0  0  0  0  0
    2.9561    1.2683    0.0000 O   0  0  0  0  0  0  0  0  0  0  0  0
    2.2416    0.0309    0.0000 C   0  0  0  0  0  0  0  0  0  0  0  0
    1.5271    0.4433    0.0000 C   0  0  1  0  0  0  0  0  0  0  0  0
    1.5271    1.2683    0.0000 O   0  0  0  0  0  0  0  0  0  0  0  0
    0.8126    0.0309    0.0000 C   0  0  0  0  0  0  0  0  0  0  0  0
    0.0982    0.4433    0.0000 C   0  0  1  0  0  0  0  0  0  0  0  0
    0.0982    1.2683    0.0000 O   0  0  0  0  0  0  0  0  0  0  0  0
   -0.6161    0.0309    0.0000 C   0  0  0  0  0  0  0  0  0  0  0  0
   -1.3306    0.4434    0.0000 C   0  0  1  0  0  0  0  0  0  0  0  0
   -1.3306    1.2684    0.0000 O   0  0  0  0  0  0  0  0  0  0  0  0
   -2.0451    0.0309    0.0000 C   0  0  0  0  0  0  0  0  0  0  0  0
   -2.7596    0.4434    0.0000 C   0  0  0  0  0  0  0  0  0  0  0  0
   -2.7596    1.2684    0.0000 O   0  0  0  0  0  0  0  0  0  0  0  0
   -3.4741    0.0310    0.0000 C   0  0  0  0  0  0  0  0  0  0  0  0
   -4.0573    0.6142    0.0000 C   0  0  1  0  0  0  0  0  0  0  0  0
   -3.7416    1.3764    0.0000 O   0  0  0  0  0  0  0  0  0  0  0  0
   -4.8823    0.6142    0.0000 C   0  0  0  0  0  0  0  0  0  0  0  0
   -5.4657    0.0310    0.0000 C   0  0  0  0  0  0  0  0  0  0  0  0
   -6.2279    0.3467    0.0000 O   0  0  0  0  0  0  0  0  0  0  0  0
   -5.4657   -0.7939    0.0000 O   0  0  0  0  0  0  0  0  0  0  0  0
   -4.8823   -1.3773    0.0000 C   0  0  1  0  0  0  0  0  0  0  0  0
   -4.0573   -1.3773    0.0000 C   0  0  2  0  0  0  0  0  0  0  0  0
   -3.4741   -0.7939    0.0000 C   0  0  0  0  0  0  0  0  0  0  0  0
   -2.7596   -1.2065    0.0000 C   0  0  0  0  0  0  0  0  0  0  0  0
   -2.0451   -0.7939    0.0000 C   0  0  0  0  0  0  0  0  0  0  0  0
   -1.3306   -1.2066    0.0000 C   0  0  0  0  0  0  0  0  0  0  0  0
   -0.6161   -0.7939    0.0000 C   0  0  0  0  0  0  0  0  0  0  0  0
    0.0982   -1.2066    0.0000 C   0  0  0  0  0  0  0  0  0  0  0  0
    0.8126   -0.7940    0.0000 C   0  0  0  0  0  0  0  0  0  0  0  0
    1.5271   -1.2066    0.0000 C   0  0  0  0  0  0  0  0  0  0  0  0
    2.2415   -0.7940    0.0000 C   0  0  0  0  0  0  0  0  0  0  0  0
    2.9560   -1.2066    0.0000 C   0  0  0  0  0  0  0  0  0  0  0  0
    3.6706   -0.7940    0.0000 C   0  0  0  0  0  0  0  0  0  0  0  0
    4.3850   -1.2066    0.0000 C   0  0  0  0  0  0  0  0  0  0  0  0
    5.0995   -0.7940    0.0000 C   0  0  0  0  0  0  0  0  0  0  0  0
    5.8140   -1.2066    0.0000 C   0  0  0  0  0  0  0  0  0  0  0  0
    6.5284   -0.7941    0.0000 C   0  0  1  0  0  0  0  0  0  0  0  0
    6.5284    0.0308    0.0000 C   0  0  0  0  0  0  0  0  0  0  0  0
    7.2428   -1.2066    0.0000 O   0  0  0  0  0  0  0  0  0  0  0  0
    7.8748   -0.6763    0.0000 C   0  0  1  0  0  0  0  0  0  0  0  0
    8.2874    0.0380    0.0000 C   0  0  1  0  0  0  0  0  0  0  0  0
    7.8748    0.7525    0.0000 O   0  0  0  0  0  0  0  0  0  0  0  0
    9.1124    0.0380    0.0000 C   0  0  1  0  0  0  0  0  0  0  0  0
    9.5248    0.7524    0.0000 N   0  0  0  0  0  0  0  0  0  0  0  0
   10.3498    0.7524    0.0000 C   0  0  0  0  0  0  0  0  0  0  0  0
   10.7624    1.4669    0.0000 C   0  0  0  0  0  0  0  0  0  0  0  0
   11.5874    1.4669    0.0000 N   0  0  0  0  0  0  0  0  0  0  0  0
   11.9999    2.1813    0.0000 C   0  0  0  0  0  0  0  0  0  0  0  0
   11.9999    0.7524    0.0000 C   0  0  0  0  0  0  0  0  0  0  0  0
   10.7624    0.0380    0.0000 O   0  0  0  0  0  0  0  0  0  0  0  0
    9.5248   -0.6763    0.0000 C   0  0  1  0  0  0  0  0  0  0  0  0
    9.1124   -1.3907    0.0000 C   0  0  2  0  0  0  0  0  0  0  0  0
    8.2874   -1.3907    0.0000 O   0  0  0  0  0  0  0  0  0  0  0  0
    9.5248   -2.1053    0.0000 C   0  0  0  0  0  0  0  0  0  0  0  0
   10.3498   -0.6763    0.0000 O   0  0  0  0  0  0  0  0  0  0  0  0
    7.2428   -0.1460    0.0000 H   0  0  0  0  0  0  0  0  0  0  0  0
   -3.7416   -2.1395    0.0000 C   0  0  0  0  0  0  0  0  0  0  0  0
   -4.8105   -2.1991    0.0000 C   0  0  2  0  0  0  0  0  0  0  0  0
   -5.4863   -2.6725    0.0000 C   0  0  0  0  0  0  0  0  0  0  0  0
   -6.2339   -2.3237    0.0000 C   0  0  0  0  0  0  0  0  0  0  0  0
   -6.9098   -2.7969    0.0000 C   0  0  3  0  0  0  0  0  0  0  0  0
   -7.6576   -2.4482    0.0000 C   0  0  0  0  0  0  0  0  0  0  0  0
   -8.3334   -2.9214    0.0000 C   0  0  0  0  0  0  0  0  0  0  0  0
   -8.2615   -3.7432    0.0000 O   0  0  0  0  0  0  0  0  0  0  0  0
   -9.0811   -2.5728    0.0000 C   0  0  0  0  0  0  0  0  0  0  0  0
   -9.1530   -1.7509    0.0000 C   0  0  0  0  0  0  0  0  0  0  0  0
   -9.9007   -1.4022    0.0000 C   0  0  0  0  0  0  0  0  0  0  0  0
  -10.5764   -1.8755    0.0000 C   0  0  0  0  0  0  0  0  0  0  0  0
  -10.5045   -2.6973    0.0000 C   0  0  0  0  0  0  0  0  0  0  0  0
   -9.7568   -3.0459    0.0000 C   0  0  0  0  0  0  0  0  0  0  0  0
  -11.3241   -1.5267    0.0000 N   0  0  0  0  0  0  0  0  0  0  0  0
  -11.9999   -2.0000    0.0000 C   0  0  0  0  0  0  0  0  0  0  0  0
   -6.8379   -3.6188    0.0000 O   0  0  0  0  0  0  0  0  0  0  0  0
   -4.0628   -2.5479    0.0000 C   0  0  0  0  0  0  0  0  0  0  0  0
   -5.5969   -1.7899    0.0000 H   0  0  0  0  0  0  0  0  0  0  0  0
    6.5284    0.8558    0.0000 H   0  0  0  0  0  0  0  0  0  0  0  0
    5.6758    2.9980    0.0000 H   0  0  0  0  0  0  0  0  0  0  0  0
    7.2429    3.9882    0.0000 H   0  0  0  0  0  0  0  0  0  0  0  0
    8.1696    3.4532    0.0000 H   0  0  0  0  0  0  0  0  0  0  0  0
    7.9573    1.4357    0.0000 H   0  0  0  0  0  0  0  0  0  0  0  0
    8.8839    1.9707    0.0000 H   0  0  0  0  0  0  0  0  0  0  0  0
    9.3865    1.4357    0.0000 H   0  0  0  0  0  0  0  0  0  0  0  0
   10.3130    3.0408    0.0000 H   0  0  0  0  0  0  0  0  0  0  0  0
   10.3131    1.9708    0.0000 H   0  0  0  0  0  0  0  0  0  0  0  0
    9.5984    4.2782    0.0000 H   0  0  0  0  0  0  0  0  0  0  0  0
    7.7452    4.2782    0.0000 H   0  0  0  0  0  0  0  0  0  0  0  0
    8.6718    4.8132    0.0000 H   0  0  0  0  0  0  0  0  0  0  0  0
    6.7407    0.7333    0.0000 H   0  0  0  0  0  0  0  0  0  0  0  0
    3.4584    1.8031    0.0000 H   0  0  0  0  0  0  0  0  0  0  0  0
    4.3849    2.3382    0.0000 H   0  0  0  0  0  0  0  0  0  0  0  0
    4.1729    2.2158    0.0000 H   0  0  0  0  0  0  0  0  0  0  0  0
    5.9396    2.9909    0.0000 H   0  0  0  0  0  0  0  0  0  0  0  0
    3.6708    1.8259    0.0000 H   0  0  0  0  0  0  0  0  0  0  0  0
    3.6706   -1.0391    0.0000 H   0  0  0  0  0  0  0  0  0  0  0  0
    2.7440   -0.5042    0.0000 H   0  0  0  0  0  0  0  0  0  0  0  0
    3.8826    0.9783    0.0000 H   0  0  0  0  0  0  0  0  0  0  0  0
    3.7962    1.7532    0.0000 H   0  0  0  0  0  0  0  0  0  0  0  0
    2.2416   -1.0391    0.0000 H   0  0  0  0  0  0  0  0  0  0  0  0
    1.3150   -0.5042    0.0000 H   0  0  0  0  0  0  0  0  0  0  0  0
    2.4537    0.9784    0.0000 H   0  0  0  0  0  0  0  0  0  0  0  0
    2.3671    1.7533    0.0000 H   0  0  0  0  0  0  0  0  0  0  0  0
    0.8126   -1.0391    0.0000 H   0  0  0  0  0  0  0  0  0  0  0  0
   -0.1140   -0.5041    0.0000 H   0  0  0  0  0  0  0  0  0  0  0  0
    1.0248    0.9783    0.0000 H   0  0  0  0  0  0  0  0  0  0  0  0
    0.9382    1.7533    0.0000 H   0  0  0  0  0  0  0  0  0  0  0  0
   -0.6161   -1.0391    0.0000 H   0  0  0  0  0  0  0  0  0  0  0  0
   -1.5427   -0.5041    0.0000 H   0  0  0  0  0  0  0  0  0  0  0  0
   -0.4040    0.9784    0.0000 H   0  0  0  0  0  0  0  0  0  0  0  0
   -0.4906    1.7534    0.0000 H   0  0  0  0  0  0  0  0  0  0  0  0
   -2.0451   -1.0391    0.0000 H   0  0  0  0  0  0  0  0  0  0  0  0
   -2.9717   -0.5041    0.0000 H   0  0  0  0  0  0  0  0  0  0  0  0
   -3.6138   -1.0298    0.0000 H   0  0  0  0  0  0  0  0  0  0  0  0
   -4.4873   -0.3129    0.0000 H   0  0  0  0  0  0  0  0  0  0  0  0
   -3.0079    0.8230    0.0000 H   0  0  0  0  0  0  0  0  0  0  0  0
   -2.7799    1.5030    0.0000 H   0  0  0  0  0  0  0  0  0  0  0  0
   -5.2917    1.6028    0.0000 H   0  0  0  0  0  0  0  0  0  0  0  0
   -5.9317    0.8231    0.0000 H   0  0  0  0  0  0  0  0  0  0  0  0
   -4.6518   -2.2670    0.0000 H   0  0  0  0  0  0  0  0  0  0  0  0
   -3.6088    0.2293    0.0000 H   0  0  0  0  0  0  0  0  0  0  0  0
   -2.7596   -2.2385    0.0000 H   0  0  0  0  0  0  0  0  0  0  0  0
   -2.0450    0.2381    0.0000 H   0  0  0  0  0  0  0  0  0  0  0  0
   -1.3306   -2.2386    0.0000 H   0  0  0  0  0  0  0  0  0  0  0  0
   -0.6160    0.2381    0.0000 H   0  0  0  0  0  0  0  0  0  0  0  0
    0.0981   -2.2386    0.0000 H   0  0  0  0  0  0  0  0  0  0  0  0
    0.8126    0.2380    0.0000 H   0  0  0  0  0  0  0  0  0  0  0  0
    1.5271   -2.2386    0.0000 H   0  0  0  0  0  0  0  0  0  0  0  0
    2.2415    0.2380    0.0000 H   0  0  0  0  0  0  0  0  0  0  0  0
    2.9560   -2.2386    0.0000 H   0  0  0  0  0  0  0  0  0  0  0  0
    3.6707    0.2380    0.0000 H   0  0  0  0  0  0  0  0  0  0  0  0
    4.3850   -2.2386    0.0000 H   0  0  0  0  0  0  0  0  0  0  0  0
    5.0995    0.2380    0.0000 H   0  0  0  0  0  0  0  0  0  0  0  0
    5.8140   -2.2386    0.0000 H   0  0  0  0  0  0  0  0  0  0  0  0
    6.5284   -1.8641    0.0000 H   0  0  0  0  0  0  0  0  0  0  0  0
    7.4550    0.5658    0.0000 H   0  0  0  0  0  0  0  0  0  0  0  0
    6.5284    1.1008    0.0000 H   0  0  0  0  0  0  0  0  0  0  0  0
    7.2174    0.0381    0.0000 H   0  0  0  0  0  0  0  0  0  0  0  0
    8.3597    1.5926    0.0000 H   0  0  0  0  0  0  0  0  0  0  0  0
    8.5774    0.9646    0.0000 H   0  0  0  0  0  0  0  0  0  0  0  0
    9.0325    1.6050    0.0000 H   0  0  0  0  0  0  0  0  0  0  0  0
   10.2274    2.3936    0.0000 H   0  0  0  0  0  0  0  0  0  0  0  0
   11.2974    2.3935    0.0000 H   0  0  0  0  0  0  0  0  0  0  0  0
   13.0699    2.1813    0.0000 H   0  0  0  0  0  0  0  0  0  0  0  0
   11.4649    3.1080    0.0000 H   0  0  0  0  0  0  0  0  0  0  0  0
   12.5349    3.1079    0.0000 H   0  0  0  0  0  0  0  0  0  0  0  0
   11.4649   -0.1742    0.0000 H   0  0  0  0  0  0  0  0  0  0  0  0
   13.0699    0.7524    0.0000 H   0  0  0  0  0  0  0  0  0  0  0  0
   12.5349   -0.1743    0.0000 H   0  0  0  0  0  0  0  0  0  0  0  0
   10.0598    0.2503    0.0000 H   0  0  0  0  0  0  0  0  0  0  0  0
   10.1824   -1.3908    0.0000 H   0  0  0  0  0  0  0  0  0  0  0  0
    8.9896   -3.0318    0.0000 H   0  0  0  0  0  0  0  0  0  0  0  0
   10.5948   -2.1055    0.0000 H   0  0  0  0  0  0  0  0  0  0  0  0
   10.0596   -3.0320    0.0000 H   0  0  0  0  0  0  0  0  0  0  0  0
   10.8348   -1.5163    0.0000 H   0  0  0  0  0  0  0  0  0  0  0  0
   -4.3930   -2.9884    0.0000 H   0  0  0  0  0  0  0  0  0  0  0  0
   -2.6808   -2.2792    0.0000 H   0  0  0  0  0  0  0  0  0  0  0  0
   -3.3321   -3.1281    0.0000 H   0  0  0  0  0  0  0  0  0  0  0  0
   -3.9339   -1.5855    0.0000 H   0  0  0  0  0  0  0  0  0  0  0  0
   -5.3930   -3.7384    0.0000 H   0  0  0  0  0  0  0  0  0  0  0  0
   -6.3629   -3.2861    0.0000 H   0  0  0  0  0  0  0  0  0  0  0  0
   -6.3270   -1.2578    0.0000 H   0  0  0  0  0  0  0  0  0  0  0  0
   -7.2036   -1.8714    0.0000 H   0  0  0  0  0  0  0  0  0  0  0  0
   -7.0030   -1.7310    0.0000 H   0  0  0  0  0  0  0  0  0  0  0  0
   -7.7509   -1.3823    0.0000 H   0  0  0  0  0  0  0  0  0  0  0  0
   -8.6273   -1.9960    0.0000 H   0  0  0  0  0  0  0  0  0  0  0  0
   -8.3076   -1.1590    0.0000 H   0  0  0  0  0  0  0  0  0  0  0  0
   -9.9907   -0.3741    0.0000 H   0  0  0  0  0  0  0  0  0  0  0  0
  -11.3498   -3.2893    0.0000 H   0  0  0  0  0  0  0  0  0  0  0  0
   -9.6668   -4.0740    0.0000 H   0  0  0  0  0  0  0  0  0  0  0  0
  -11.4099   -0.5459    0.0000 H   0  0  0  0  0  0  0  0  0  0  0  0
  -12.9697   -1.5479    0.0000 H   0  0  0  0  0  0  0  0  0  0  0  0
  -11.9065   -3.0659    0.0000 H   0  0  0  0  0  0  0  0  0  0  0  0
  -12.8763   -2.6138    0.0000 H   0  0  0  0  0  0  0  0  0  0  0  0
   -7.6325   -4.1752    0.0000 H   0  0  0  0  0  0  0  0  0  0  0  0
   -3.9697   -3.6138    0.0000 H   0  0  0  0  0  0  0  0  0  0  0  0
   -3.1862   -1.9343    0.0000 H   0  0  0  0  0  0  0  0  0  0  0  0
   -3.0931   -3.0003    0.0000 H   0  0  0  0  0  0  0  0  0  0  0  0
  1  2  1  0  0  0  0
  1  8  2  0  0  0  0
  2  3  1  0  0  0  0
  2 95  1  0  0  0  0
  3  4  1  0  0  0  0
  3 96  1  0  0  0  0
  3 97  1  0  0  0  0
  4  5  1  0  0  0  0
  4 98  1  0  0  0  0
  4 99  1  0  0  0  0
  5  6  1  0  0  0  0
  5  7  1  0  0  0  0
  6100  1  0  0  0  0
  6101  1  0  0  0  0
  6102  1  0  0  0  0
  7103  1  0  0  0  0
  7104  1  0  0  0  0
  7105  1  0  0  0  0
  9  1  1  0  0  0  0
  9 10  1  0  0  0  0
  9 14  1  0  0  0  0
  9106  1  6  0  0  0
 10 11  1  0  0  0  0
 10 56  1  0  0  0  0
 10 94  1  1  0  0  0
 11 12  1  0  0  0  0
 12 16  1  1  0  0  0
 12 17  1  0  0  0  0
 13 12  1  0  0  0  0
 13107  1  0  0  0  0
 13108  1  0  0  0  0
 14 13  1  0  0  0  0
 14 15  1  0  0  0  0
 14109  1  1  0  0  0
 15110  1  0  0  0  0
 16111  1  0  0  0  0
 17 18  1  0  0  0  0
 17112  1  0  0  0  0
 17113  1  0  0  0  0
 18 19  1  0  0  0  0
 18 20  1  0  0  0  0
 18114  1  1  0  0  0
 19115  1  0  0  0  0
 20 21  1  0  0  0  0
 20116  1  0  0  0  0
 20117  1  0  0  0  0
 21 22  1  0  0  0  0
 21 23  1  0  0  0  0
 21118  1  1  0  0  0
 22119  1  0  0  0  0
 23 24  1  0  0  0  0
 23120  1  0  0  0  0
 23121  1  0  0  0  0
 24 25  1  0  0  0  0
 24 26  1  0  0  0  0
 24122  1  1  0  0  0
 25123  1  0  0  0  0
 26 27  1  0  0  0  0
 26124  1  0  0  0  0
 26125  1  0  0  0  0
 27 28  1  0  0  0  0
 27 29  1  0  0  0  0
 27126  1  1  0  0  0
 28127  1  0  0  0  0
 29 30  1  0  0  0  0
 29128  1  0  0  0  0
 29129  1  0  0  0  0
 30 31  2  0  0  0  0
 30 32  1  0  0  0  0
 32 33  1  0  0  0  0
 32130  1  0  0  0  0
 32131  1  0  0  0  0
 33 34  1  0  0  0  0
 33 35  1  0  0  0  0
 33132  1  1  0  0  0
 34133  1  0  0  0  0
 35 36  1  0  0  0  0
 35134  1  0  0  0  0
 35135  1  0  0  0  0
 36 37  2  0  0  0  0
 36 38  1  0  0  0  0
 38 39  1  0  0  0  0
 39 76  1  0  0  0  0
 39 93  1  6  0  0  0
 40 39  1  0  0  0  0
 40 75  1  0  0  0  0
 40136  1  1  0  0  0
 41 40  1  0  0  0  0
 41137  1  0  0  0  0
 42 41  2  0  0  0  0
 42138  1  0  0  0  0
 43 42  1  0  0  0  0
 43139  1  0  0  0  0
 44 43  2  0  0  0  0
 44140  1  0  0  0  0
 45 44  1  0  0  0  0
 45141  1  0  0  0  0
 46 45  2  0  0  0  0
 46142  1  0  0  0  0
 47 46  1  0  0  0  0
 47143  1  0  0  0  0
 48 47  2  0  0  0  0
 48144  1  0  0  0  0
 49 48  1  0  0  0  0
 49145  1  0  0  0  0
 50 49  2  0  0  0  0
 50146  1  0  0  0  0
 51 50  1  0  0  0  0
 51147  1  0  0  0  0
 52 51  2  0  0  0  0
 52148  1  0  0  0  0
 53 52  1  0  0  0  0
 53149  1  0  0  0  0
 54 53  2  0  0  0  0
 54150  1  0  0  0  0
 55 54  1  0  0  0  0
 55 57  1  0  0  0  0
 55151  1  6  0  0  0
 56 55  1  0  0  0  0
 56152  1  0  0  0  0
 56153  1  0  0  0  0
 57 58  1  0  0  0  0
 58 59  1  0  0  0  0
 58 71  1  0  0  0  0
 58 74  1  6  0  0  0
 59 60  1  0  0  0  0
 59 61  1  0  0  0  0
 59154  1  6  0  0  0
 60155  1  0  0  0  0
 61 62  1  0  0  0  0
 61 69  1  0  0  0  0
 61156  1  6  0  0  0
 62 63  1  0  0  0  0
 62157  1  0  0  0  0
 63 64  1  0  0  0  0
 63 68  2  0  0  0  0
 64 65  1  0  0  0  0
 64158  1  0  0  0  0
 64159  1  0  0  0  0
 65 66  1  0  0  0  0
 65 67  1  0  0  0  0
 66160  1  0  0  0  0
 66161  1  0  0  0  0
 66162  1  0  0  0  0
 67163  1  0  0  0  0
 67164  1  0  0  0  0
 67165  1  0  0  0  0
 69 73  1  0  0  0  0
 69166  1  1  0  0  0
 70 69  1  0  0  0  0
 70 72  1  0  0  0  0
 70167  1  6  0  0  0
 71 70  1  0  0  0  0
 72168  1  0  0  0  0
 72169  1  0  0  0  0
 72170  1  0  0  0  0
 73171  1  0  0  0  0
 75172  1  0  0  0  0
 75173  1  0  0  0  0
 75174  1  0  0  0  0
 76 77  1  0  0  0  0
 76 92  1  0  0  0  0
 76175  1  6  0  0  0
 77 78  1  0  0  0  0
 77176  1  0  0  0  0
 77177  1  0  0  0  0
 78 79  1  0  0  0  0
 78178  1  0  0  0  0
 78179  1  0  0  0  0
 79 80  1  0  0  0  0
 79 91  1  0  0  0  0
 79180  1  0  0  0  0
 80 81  1  0  0  0  0
 80181  1  0  0  0  0
 80182  1  0  0  0  0
 81 82  2  0  0  0  0
 81 83  1  0  0  0  0
 83 84  2  0  0  0  0
 83 88  1  0  0  0  0
 84 85  1  0  0  0  0
 84183  1  0  0  0  0
 85 86  2  0  0  0  0
 85184  1  0  0  0  0
 86 89  1  0  0  0  0
 87 86  1  0  0  0  0
 87185  1  0  0  0  0
 88 87  2  0  0  0  0
 88186  1  0  0  0  0
 89 90  1  0  0  0  0
 89187  1  0  0  0  0
 90188  1  0  0  0  0
 90189  1  0  0  0  0
 90190  1  0  0  0  0
 91191  1  0  0  0  0
 92192  1  0  0  0  0
 92193  1  0  0  0  0
 92194  1  0  0  0  0
M  END
>  <DRUGBANK_ID>
DB12333

>  <COMMON_NAME>
Amcipatricin

>  <CAS_NUMBER>
143483-67-4

>  <UNII>
QO0X1DPX2D

>  <SYNONYMS>
Amcipatricin

$$$$
