
 OpenBabel10282417072D

 55 59  0  0  0  0  0  0  0  0999 V2000
    1.6222   -3.1171    0.0000 C   0  0  0  0  0  0  0  0  0  0  0  0
    2.2353   -2.5651    0.0000 C   0  0  0  0  0  0  0  0  0  0  0  0
    2.1490   -1.7446    0.0000 C   0  0  0  0  0  0  0  0  0  0  0  0
    2.9027   -1.4090    0.0000 C   0  0  0  0  0  0  0  0  0  0  0  0
    3.4547   -2.0221    0.0000 N   0  0  0  0  0  0  0  0  0  0  0  0
    3.0422   -2.7366    0.0000 O   0  0  0  0  0  0  0  0  0  0  0  0
    3.0742   -0.6021    0.0000 C   0  0  0  0  0  0  0  0  0  0  0  0
    1.4346   -1.3321    0.0000 C   0  0  0  0  0  0  0  0  0  0  0  0
    0.7201   -1.7446    0.0000 C   0  0  0  0  0  0  0  0  0  0  0  0
    0.0056   -1.3321    0.0000 C   0  0  0  0  0  0  0  0  0  0  0  0
    0.0056   -0.5071    0.0000 C   0  0  0  0  0  0  0  0  0  0  0  0
   -0.7789   -0.2522    0.0000 C   0  0  0  0  0  0  0  0  0  0  0  0
   -1.2638   -0.9196    0.0000 C   0  0  0  0  0  0  0  0  0  0  0  0
   -0.7789   -1.5870    0.0000 N   0  0  0  0  0  0  0  0  0  0  0  0
   -1.0338   -2.3717    0.0000 C   0  0  3  0  0  0  0  0  0  0  0  0
   -0.4818   -2.9847    0.0000 C   0  0  0  0  0  0  0  0  0  0  0  0
   -1.8408   -2.5432    0.0000 C   0  0  0  0  0  0  0  0  0  0  0  0
   -2.0957   -3.3278    0.0000 C   0  0  0  0  0  0  0  0  0  0  0  0
   -2.9027   -3.4993    0.0000 C   0  0  0  0  0  0  0  0  0  0  0  0
   -3.4547   -2.8862    0.0000 C   0  0  0  0  0  0  0  0  0  0  0  0
   -3.1998   -2.1016    0.0000 C   0  0  0  0  0  0  0  0  0  0  0  0
   -2.3928   -1.9301    0.0000 N   0  0  0  0  0  0  0  0  0  0  0  0
   -1.0338    0.5324    0.0000 C   0  0  0  0  0  0  0  0  0  0  0  0
   -1.8408    0.7039    0.0000 C   0  0  0  0  0  0  0  0  0  0  0  0
   -2.0957    1.4885    0.0000 C   0  0  0  0  0  0  0  0  0  0  0  0
   -1.5437    2.1016    0.0000 C   0  0  0  0  0  0  0  0  0  0  0  0
   -0.7367    1.9301    0.0000 C   0  0  0  0  0  0  0  0  0  0  0  0
   -0.4818    1.1455    0.0000 C   0  0  0  0  0  0  0  0  0  0  0  0
   -1.7987    2.8862    0.0000 C   0  0  0  0  0  0  0  0  0  0  0  0
   -2.6056    3.0578    0.0000 O   0  0  0  0  0  0  0  0  0  0  0  0
   -1.2466    3.4993    0.0000 O   0  0  0  0  0  0  0  0  0  0  0  0
    0.7201   -0.0946    0.0000 N   0  0  0  0  0  0  0  0  0  0  0  0
    1.4346   -0.5071    0.0000 C   0  0  0  0  0  0  0  0  0  0  0  0
    0.6046   -2.7864    0.0000 H   0  0  0  0  0  0  0  0  0  0  0  0
    1.8446   -4.1637    0.0000 H   0  0  0  0  0  0  0  0  0  0  0  0
    0.8270   -3.8330    0.0000 H   0  0  0  0  0  0  0  0  0  0  0  0
    4.0918   -0.2714    0.0000 H   0  0  0  0  0  0  0  0  0  0  0  0
    2.2790    0.1139    0.0000 H   0  0  0  0  0  0  0  0  0  0  0  0
    3.2967    0.4445    0.0000 H   0  0  0  0  0  0  0  0  0  0  0  0
    0.7201   -2.7766    0.0000 H   0  0  0  0  0  0  0  0  0  0  0  0
   -2.2958   -0.9196    0.0000 H   0  0  0  0  0  0  0  0  0  0  0  0
    0.0128   -2.1492    0.0000 H   0  0  0  0  0  0  0  0  0  0  0  0
   -0.8124   -4.0023    0.0000 H   0  0  0  0  0  0  0  0  0  0  0  0
    0.5648   -2.7622    0.0000 H   0  0  0  0  0  0  0  0  0  0  0  0
    0.2342   -3.7798    0.0000 H   0  0  0  0  0  0  0  0  0  0  0  0
   -1.4052   -4.0947    0.0000 H   0  0  0  0  0  0  0  0  0  0  0  0
   -3.2216   -4.4808    0.0000 H   0  0  0  0  0  0  0  0  0  0  0  0
   -4.4641   -3.1008    0.0000 H   0  0  0  0  0  0  0  0  0  0  0  0
   -3.8903   -1.3347    0.0000 H   0  0  0  0  0  0  0  0  0  0  0  0
   -2.5313   -0.0630    0.0000 H   0  0  0  0  0  0  0  0  0  0  0  0
   -3.1051    1.7031    0.0000 H   0  0  0  0  0  0  0  0  0  0  0  0
   -0.0462    2.6970    0.0000 H   0  0  0  0  0  0  0  0  0  0  0  0
    0.5276    0.9309    0.0000 H   0  0  0  0  0  0  0  0  0  0  0  0
   -0.3301    3.3044    0.0000 H   0  0  0  0  0  0  0  0  0  0  0  0
    2.3283    0.0089    0.0000 H   0  0  0  0  0  0  0  0  0  0  0  0
  1  2  1  0  0  0  0
  1 34  1  0  0  0  0
  1 35  1  0  0  0  0
  1 36  1  0  0  0  0
  2  3  2  0  0  0  0
  2  6  1  0  0  0  0
  3  4  1  0  0  0  0
  3  8  1  0  0  0  0
  4  5  2  0  0  0  0
  4  7  1  0  0  0  0
  5  6  1  0  0  0  0
  7 37  1  0  0  0  0
  7 38  1  0  0  0  0
  7 39  1  0  0  0  0
  8  9  2  0  0  0  0
  8 33  1  0  0  0  0
  9 10  1  0  0  0  0
  9 40  1  0  0  0  0
 10 11  2  0  0  0  0
 10 14  1  0  0  0  0
 11 12  1  0  0  0  0
 11 32  1  0  0  0  0
 12 13  2  0  0  0  0
 12 23  1  0  0  0  0
 13 14  1  0  0  0  0
 13 41  1  0  0  0  0
 14 15  1  0  0  0  0
 15 16  1  0  0  0  0
 15 17  1  0  0  0  0
 15 42  1  0  0  0  0
 16 43  1  0  0  0  0
 16 44  1  0  0  0  0
 16 45  1  0  0  0  0
 17 18  2  0  0  0  0
 17 22  1  0  0  0  0
 18 19  1  0  0  0  0
 18 46  1  0  0  0  0
 19 20  2  0  0  0  0
 19 47  1  0  0  0  0
 20 21  1  0  0  0  0
 20 48  1  0  0  0  0
 21 22  2  0  0  0  0
 21 49  1  0  0  0  0
 23 24  2  0  0  0  0
 23 28  1  0  0  0  0
 24 25  1  0  0  0  0
 24 50  1  0  0  0  0
 25 26  2  0  0  0  0
 25 51  1  0  0  0  0
 26 27  1  0  0  0  0
 26 29  1  0  0  0  0
 27 28  2  0  0  0  0
 27 52  1  0  0  0  0
 28 53  1  0  0  0  0
 29 30  2  0  0  0  0
 29 31  1  0  0  0  0
 31 54  1  0  0  0  0
 32 33  2  0  0  0  0
 33 55  1  0  0  0  0
M  END
>  <DRUGBANK_ID>
DB17543

>  <COMMON_NAME>
PLX51107

>  <CAS_NUMBER>
1627929-55-8

>  <UNII>
W758F1L9ND

>  <SYNONYMS>
Benzoic acid, 4-(6-(3,5-dimethyl-4-isoxazolyl)-1-((1s)-1-(2-pyridinyl)ethyl)-1h-pyrrolo(3,2-b)pyridin-3-yl)-; Brd4 inhibitor plx51107

$$$$
