
 OpenBabel10282417072D

  4  3  0  0  0  0  0  0  0  0999 V2000
    0.0000    0.0000    0.0000 In  0  0  0  0  0  0  0  0  0  0  0  0
    0.0000    0.0000    0.0000 H   0  0  0  0  0  0  0  0  0  0  0  0
    0.0000    0.0000    0.0000 H   0  0  0  0  0  0  0  0  0  0  0  0
    0.0000    0.0000    0.0000 H   0  0  0  0  0  0  0  0  0  0  0  0
  1  2  1  0  0  0  0
  1  3  1  0  0  0  0
  1  4  1  0  0  0  0
M  END
>  <DRUGBANK_ID>
DB11659

>  <COMMON_NAME>
Indium

>  <CAS_NUMBER>
7440-74-6

>  <UNII>
045A6V3VFX

>  <SYNONYMS>
indio

$$$$
