MHR
 OpenBabel10282417072D

 35 37  0  0  0  0  0  0  0  0999 V2000
    1.8017   -1.4868    0.0000 C   0  0  0  0  0  0  0  0  0  0  0  0
    1.8017   -2.3118    0.0000 C   0  0  0  0  0  0  0  0  0  0  0  0
    1.0873   -1.0743    0.0000 C   0  0  0  0  0  0  0  0  0  0  0  0
   -0.6668   -0.4472    0.0000 C   0  0  0  0  0  0  0  0  0  0  0  0
    0.1824    1.5636    0.0000 N   0  0  0  0  0  0  0  0  0  0  0  0
   -0.3697    0.9505    0.0000 C   0  0  0  0  0  0  0  0  0  0  0  0
   -1.1766    1.1220    0.0000 N   0  0  0  0  0  0  0  0  0  0  0  0
   -1.7287    0.5090    0.0000 C   0  0  0  0  0  0  0  0  0  0  0  0
   -1.4737   -0.2757    0.0000 C   0  0  0  0  0  0  0  0  0  0  0  0
   -0.1147    0.1659    0.0000 N   0  0  0  0  0  0  0  0  0  0  0  0
   -0.4118   -1.2318    0.0000 C   0  0  0  0  0  0  0  0  0  0  0  0
   -0.8968   -1.8993    0.0000 C   0  0  0  0  0  0  0  0  0  0  0  0
   -0.4118   -2.5667    0.0000 N   0  0  0  0  0  0  0  0  0  0  0  0
    0.3728   -2.3118    0.0000 C   0  0  0  0  0  0  0  0  0  0  0  0
    1.0873   -2.7243    0.0000 N   0  0  0  0  0  0  0  0  0  0  0  0
    0.3728   -1.4868    0.0000 C   0  0  0  0  0  0  0  0  0  0  0  0
    1.0873   -0.2493    0.0000 O   0  0  0  0  0  0  0  0  0  0  0  0
    0.3728    0.1632    0.0000 C   0  0  0  0  0  0  0  0  0  0  0  0
    0.3728    0.9882    0.0000 C   0  0  0  0  0  0  0  0  0  0  0  0
    1.0873    1.4007    0.0000 C   0  0  0  0  0  0  0  0  0  0  0  0
    2.6954   -0.9708    0.0000 H   0  0  0  0  0  0  0  0  0  0  0  0
    2.6954   -2.8278    0.0000 H   0  0  0  0  0  0  0  0  0  0  0  0
    1.1454    1.3589    0.0000 H   0  0  0  0  0  0  0  0  0  0  0  0
   -0.1218    2.4999    0.0000 H   0  0  0  0  0  0  0  0  0  0  0  0
   -2.7381    0.7236    0.0000 H   0  0  0  0  0  0  0  0  0  0  0  0
   -2.1642   -1.0426    0.0000 H   0  0  0  0  0  0  0  0  0  0  0  0
   -1.9288   -1.8993    0.0000 H   0  0  0  0  0  0  0  0  0  0  0  0
   -0.7160   -3.5030    0.0000 H   0  0  0  0  0  0  0  0  0  0  0  0
   -0.5538   -0.3718    0.0000 H   0  0  0  0  0  0  0  0  0  0  0  0
   -0.5538    0.6982    0.0000 H   0  0  0  0  0  0  0  0  0  0  0  0
   -0.5538    1.5232    0.0000 H   0  0  0  0  0  0  0  0  0  0  0  0
    0.3728    2.0582    0.0000 H   0  0  0  0  0  0  0  0  0  0  0  0
    2.0139    0.8657    0.0000 H   0  0  0  0  0  0  0  0  0  0  0  0
    1.0873    2.4707    0.0000 H   0  0  0  0  0  0  0  0  0  0  0  0
    2.0140    1.9357    0.0000 H   0  0  0  0  0  0  0  0  0  0  0  0
  1  2  2  0  0  0  0
  1  3  1  0  0  0  0
  1 21  1  0  0  0  0
  2 15  1  0  0  0  0
  2 22  1  0  0  0  0
  3 16  2  0  0  0  0
  3 17  1  0  0  0  0
  4  9  1  0  0  0  0
  4 10  2  0  0  0  0
  4 11  1  0  0  0  0
  5  6  1  0  0  0  0
  5 23  1  0  0  0  0
  5 24  1  0  0  0  0
  6  7  2  0  0  0  0
  6 10  1  0  0  0  0
  7  8  1  0  0  0  0
  8  9  2  0  0  0  0
  8 25  1  0  0  0  0
  9 26  1  0  0  0  0
 11 12  2  0  0  0  0
 11 16  1  0  0  0  0
 12 13  1  0  0  0  0
 12 27  1  0  0  0  0
 13 14  1  0  0  0  0
 13 28  1  0  0  0  0
 14 15  2  0  0  0  0
 14 16  1  0  0  0  0
 17 18  1  0  0  0  0
 18 19  1  0  0  0  0
 18 29  1  0  0  0  0
 18 30  1  0  0  0  0
 19 20  1  0  0  0  0
 19 31  1  0  0  0  0
 19 32  1  0  0  0  0
 20 33  1  0  0  0  0
 20 34  1  0  0  0  0
 20 35  1  0  0  0  0
M  END
>  <DRUGBANK_ID>
DB08182

>  <COMMON_NAME>
4-(4-propoxy-1H-pyrrolo[2,3-b]pyridin-3-yl)pyrimidin-2-amine

>  <UNII>
7A6FRA2U0Z

$$$$
