
 OpenBabel10282417072D

 72 74  0  0  0  0  0  0  0  0999 V2000
   -5.9189   -5.3448    0.0000 C   0  0  0  0  0  0  0  0  0  0  0  0
   -5.1343   -5.5997    0.0000 C   0  0  0  0  0  0  0  0  0  0  0  0
   -4.5212   -5.0477    0.0000 C   0  0  0  0  0  0  0  0  0  0  0  0
   -4.9627   -6.4067    0.0000 C   0  0  0  0  0  0  0  0  0  0  0  0
   -4.2091   -6.7422    0.0000 C   0  0  0  0  0  0  0  0  0  0  0  0
   -4.2953   -7.5627    0.0000 N   0  0  0  0  0  0  0  0  0  0  0  0
   -5.1023   -7.7342    0.0000 C   0  0  0  0  0  0  0  0  0  0  0  0
   -5.4378   -8.4879    0.0000 N   0  0  0  0  0  0  0  0  0  0  0  0
   -6.2583   -8.5741    0.0000 C   0  0  0  0  0  0  0  0  0  0  0  0
   -6.7432   -7.9067    0.0000 O   0  0  0  0  0  0  0  0  0  0  0  0
   -6.5939   -9.3278    0.0000 C   0  0  0  0  0  0  0  0  0  0  0  0
   -6.1814  -10.0423    0.0000 C   0  0  0  0  0  0  0  0  0  0  0  0
   -6.7334  -10.6554    0.0000 C   0  0  0  0  0  0  0  0  0  0  0  0
   -6.5619  -11.4624    0.0000 N   0  0  0  0  0  0  0  0  0  0  0  0
   -7.1750  -12.0144    0.0000 C   0  0  0  0  0  0  0  0  0  0  0  0
   -7.9596  -11.7595    0.0000 O   0  0  0  0  0  0  0  0  0  0  0  0
   -7.0034  -12.8214    0.0000 C   0  0  0  0  0  0  0  0  0  0  0  0
   -6.2498  -13.1569    0.0000 C   0  0  0  0  0  0  0  0  0  0  0  0
   -6.3360  -13.9774    0.0000 C   0  0  0  0  0  0  0  0  0  0  0  0
   -5.7229  -14.5294    0.0000 N   0  0  0  0  0  0  0  0  0  0  0  0
   -5.8944  -15.3364    0.0000 C   0  0  0  0  0  0  0  0  0  0  0  0
   -5.2813  -15.8884    0.0000 O   0  0  0  0  0  0  0  0  0  0  0  0
   -7.1430  -14.1489    0.0000 C   0  0  0  0  0  0  0  0  0  0  0  0
   -7.5555  -13.4345    0.0000 N   0  0  0  0  0  0  0  0  0  0  0  0
   -8.3760  -13.3482    0.0000 C   0  0  0  0  0  0  0  0  0  0  0  0
   -7.4871  -10.3198    0.0000 C   0  0  0  0  0  0  0  0  0  0  0  0
   -7.4008   -9.4994    0.0000 N   0  0  0  0  0  0  0  0  0  0  0  0
   -8.0139   -8.9473    0.0000 C   0  0  0  0  0  0  0  0  0  0  0  0
   -5.5148   -7.0198    0.0000 S   0  0  0  0  0  0  0  0  0  0  0  0
   -3.4946   -6.3297    0.0000 C   0  0  0  0  0  0  0  0  0  0  0  0
   -3.4946   -5.5047    0.0000 O   0  0  0  0  0  0  0  0  0  0  0  0
   -2.7801   -6.7422    0.0000 N   0  0  0  0  0  0  0  0  0  0  0  0
   -2.0656   -6.3297    0.0000 C   0  0  0  0  0  0  0  0  0  0  0  0
   -1.3512   -6.7422    0.0000 C   0  0  0  0  0  0  0  0  0  0  0  0
   -0.6367   -6.3297    0.0000 C   0  0  0  0  0  0  0  0  0  0  0  0
    0.0778   -6.7422    0.0000 N   0  0  0  0  0  0  0  0  0  0  0  0
    0.7922   -6.3297    0.0000 C   0  0  0  0  0  0  0  0  0  0  0  0
    0.0778   -7.5672    0.0000 C   0  0  0  0  0  0  0  0  0  0  0  0
   -6.1414   -4.2982    0.0000 H   0  0  0  0  0  0  0  0  0  0  0  0
   -6.7140   -6.0608    0.0000 H   0  0  0  0  0  0  0  0  0  0  0  0
   -6.9365   -5.0142    0.0000 H   0  0  0  0  0  0  0  0  0  0  0  0
   -4.1167   -5.9303    0.0000 H   0  0  0  0  0  0  0  0  0  0  0  0
   -3.5036   -5.3784    0.0000 H   0  0  0  0  0  0  0  0  0  0  0  0
   -4.7436   -4.0011    0.0000 H   0  0  0  0  0  0  0  0  0  0  0  0
   -3.7260   -4.3318    0.0000 H   0  0  0  0  0  0  0  0  0  0  0  0
   -4.8591   -9.2844    0.0000 H   0  0  0  0  0  0  0  0  0  0  0  0
   -5.1551  -10.1502    0.0000 H   0  0  0  0  0  0  0  0  0  0  0  0
   -5.6256  -11.7667    0.0000 H   0  0  0  0  0  0  0  0  0  0  0  0
   -5.3561  -12.6409    0.0000 H   0  0  0  0  0  0  0  0  0  0  0  0
   -4.7866  -14.2251    0.0000 H   0  0  0  0  0  0  0  0  0  0  0  0
   -6.8759  -15.6553    0.0000 H   0  0  0  0  0  0  0  0  0  0  0  0
   -7.5628  -15.0917    0.0000 H   0  0  0  0  0  0  0  0  0  0  0  0
   -8.8111  -12.3707    0.0000 H   0  0  0  0  0  0  0  0  0  0  0  0
   -9.0050  -14.2138    0.0000 H   0  0  0  0  0  0  0  0  0  0  0  0
   -9.4401  -13.2363    0.0000 H   0  0  0  0  0  0  0  0  0  0  0  0
   -8.3809  -10.8357    0.0000 H   0  0  0  0  0  0  0  0  0  0  0  0
   -7.7914   -7.9007    0.0000 H   0  0  0  0  0  0  0  0  0  0  0  0
   -9.0315   -9.2779    0.0000 H   0  0  0  0  0  0  0  0  0  0  0  0
   -8.8090   -8.2313    0.0000 H   0  0  0  0  0  0  0  0  0  0  0  0
   -2.7801   -7.7267    0.0000 H   0  0  0  0  0  0  0  0  0  0  0  0
   -2.0656   -5.2597    0.0000 H   0  0  0  0  0  0  0  0  0  0  0  0
   -1.1389   -5.7947    0.0000 H   0  0  0  0  0  0  0  0  0  0  0  0
   -1.3512   -7.8122    0.0000 H   0  0  0  0  0  0  0  0  0  0  0  0
   -0.4246   -7.2772    0.0000 H   0  0  0  0  0  0  0  0  0  0  0  0
   -0.6367   -5.2597    0.0000 H   0  0  0  0  0  0  0  0  0  0  0  0
    0.2899   -5.7947    0.0000 H   0  0  0  0  0  0  0  0  0  0  0  0
    1.7189   -6.8647    0.0000 H   0  0  0  0  0  0  0  0  0  0  0  0
    0.7922   -5.2597    0.0000 H   0  0  0  0  0  0  0  0  0  0  0  0
    1.7188   -5.7947    0.0000 H   0  0  0  0  0  0  0  0  0  0  0  0
   -0.8488   -8.1022    0.0000 H   0  0  0  0  0  0  0  0  0  0  0  0
    1.0044   -8.1022    0.0000 H   0  0  0  0  0  0  0  0  0  0  0  0
    0.0778   -8.6372    0.0000 H   0  0  0  0  0  0  0  0  0  0  0  0
  1  2  1  0  0  0  0
  1 39  1  0  0  0  0
  1 40  1  0  0  0  0
  1 41  1  0  0  0  0
  2  3  1  0  0  0  0
  2  4  1  0  0  0  0
  2 42  1  0  0  0  0
  3 43  1  0  0  0  0
  3 44  1  0  0  0  0
  3 45  1  0  0  0  0
  4  5  2  0  0  0  0
  4 29  1  0  0  0  0
  5  6  1  0  0  0  0
  5 30  1  0  0  0  0
  6  7  2  0  0  0  0
  7  8  1  0  0  0  0
  7 29  1  0  0  0  0
  8  9  1  0  0  0  0
  8 46  1  0  0  0  0
  9 10  2  0  0  0  0
  9 11  1  0  0  0  0
 11 12  2  0  0  0  0
 11 27  1  0  0  0  0
 12 13  1  0  0  0  0
 12 47  1  0  0  0  0
 13 14  1  0  0  0  0
 13 26  2  0  0  0  0
 14 15  1  0  0  0  0
 14 48  1  0  0  0  0
 15 16  2  0  0  0  0
 15 17  1  0  0  0  0
 17 18  2  0  0  0  0
 17 24  1  0  0  0  0
 18 19  1  0  0  0  0
 18 49  1  0  0  0  0
 19 20  1  0  0  0  0
 19 23  2  0  0  0  0
 20 21  1  0  0  0  0
 20 50  1  0  0  0  0
 21 22  2  0  0  0  0
 21 51  1  0  0  0  0
 23 24  1  0  0  0  0
 23 52  1  0  0  0  0
 24 25  1  0  0  0  0
 25 53  1  0  0  0  0
 25 54  1  0  0  0  0
 25 55  1  0  0  0  0
 26 27  1  0  0  0  0
 26 56  1  0  0  0  0
 27 28  1  0  0  0  0
 28 57  1  0  0  0  0
 28 58  1  0  0  0  0
 28 59  1  0  0  0  0
 30 31  2  0  0  0  0
 30 32  1  0  0  0  0
 32 33  1  0  0  0  0
 32 60  1  0  0  0  0
 33 34  1  0  0  0  0
 33 61  1  0  0  0  0
 33 62  1  0  0  0  0
 34 35  1  0  0  0  0
 34 63  1  0  0  0  0
 34 64  1  0  0  0  0
 35 36  1  0  0  0  0
 35 65  1  0  0  0  0
 35 66  1  0  0  0  0
 36 37  1  0  0  0  0
 36 38  1  0  0  0  0
 37 67  1  0  0  0  0
 37 68  1  0  0  0  0
 37 69  1  0  0  0  0
 38 70  1  0  0  0  0
 38 71  1  0  0  0  0
 38 72  1  0  0  0  0
M  END
>  <DRUGBANK_ID>
DB02295

>  <SECONDARY_ACCESSION_NUMBERS>
EXPT00474

>  <COMMON_NAME>
N-[3-(Dimethylamino)Propyl]-2-({[4-({[4-(Formylamino)-1-Methyl-1h-Pyrrol-2-Yl]Carbonyl}Amino)-1-Methyl-1h-Pyrrol-2-Yl]Carbonyl}Amino)-5-Isopropyl-1,3-Thiazole-4-Carboxamide

$$$$
