
 OpenBabel10282417072D

 34 36  0  0  1  0  0  0  0  0999 V2000
    4.3664    3.4659    0.0000 C   0  0  0  0  0  0  0  0  0  0  0  0
    3.5594    3.2944    0.0000 C   0  0  0  0  0  0  0  0  0  0  0  0
    3.3044    2.5098    0.0000 C   0  0  0  0  0  0  0  0  0  0  0  0
    2.4975    2.3383    0.0000 N   0  0  0  0  0  0  0  0  0  0  0  0
    2.2425    1.5536    0.0000 C   0  0  1  0  0  0  0  0  0  0  0  0
    2.7275    0.8862    0.0000 C   0  0  0  0  0  0  0  0  0  0  0  0
    2.2425    0.2188    0.0000 C   0  0  2  0  0  0  0  0  0  0  0  0
    2.4975   -0.5659    0.0000 O   0  0  0  0  0  0  0  0  0  0  0  0
    1.4579    0.4737    0.0000 C   0  0  2  0  0  0  0  0  0  0  0  0
    1.1224   -0.2800    0.0000 C   0  0  0  0  0  0  0  0  0  0  0  0
    0.3019   -0.3662    0.0000 O   0  0  0  0  0  0  0  0  0  0  0  0
    0.7434    0.8862    0.0000 C   0  0  0  0  0  0  0  0  0  0  0  0
    1.4579    1.2987    0.0000 C   0  0  2  0  0  0  0  0  0  0  0  0
    1.9454    2.9514    0.0000 C   0  0  0  0  0  0  0  0  0  0  0  0
    1.1385    2.7798    0.0000 O   0  0  0  0  0  0  0  0  0  0  0  0
    2.2004    3.7360    0.0000 N   0  0  0  0  0  0  0  0  0  0  0  0
    3.0074    3.9075    0.0000 C   0  0  0  0  0  0  0  0  0  0  0  0
    3.2623    4.6921    0.0000 O   0  0  0  0  0  0  0  0  0  0  0  0
    5.0823    2.6707    0.0000 H   0  0  0  0  0  0  0  0  0  0  0  0
    4.6971    4.4835    0.0000 H   0  0  0  0  0  0  0  0  0  0  0  0
    5.4130    3.6883    0.0000 H   0  0  0  0  0  0  0  0  0  0  0  0
    3.9949    1.7428    0.0000 H   0  0  0  0  0  0  0  0  0  0  0  0
    3.2993    1.7210    0.0000 H   0  0  0  0  0  0  0  0  0  0  0  0
    3.7975    0.8862    0.0000 H   0  0  0  0  0  0  0  0  0  0  0  0
    3.2132   -0.0672    0.0000 H   0  0  0  0  0  0  0  0  0  0  0  0
    3.2993    0.0514    0.0000 H   0  0  0  0  0  0  0  0  0  0  0  0
    1.8485   -1.2868    0.0000 H   0  0  0  0  0  0  0  0  0  0  0  0
    1.7513   -1.1456    0.0000 H   0  0  0  0  0  0  0  0  0  0  0  0
    0.6872   -1.2575    0.0000 H   0  0  0  0  0  0  0  0  0  0  0  0
   -0.2682    0.4186    0.0000 H   0  0  0  0  0  0  0  0  0  0  0  0
   -0.3266    0.8862    0.0000 H   0  0  0  0  0  0  0  0  0  0  0  0
    0.4665    1.9197    0.0000 H   0  0  0  0  0  0  0  0  0  0  0  0
    1.8931    0.3212    0.0000 H   0  0  0  0  0  0  0  0  0  0  0  0
    1.5417    4.4677    0.0000 H   0  0  0  0  0  0  0  0  0  0  0  0
  1  2  1  0  0  0  0
  1 19  1  0  0  0  0
  1 20  1  0  0  0  0
  1 21  1  0  0  0  0
  2  3  2  0  0  0  0
  2 17  1  0  0  0  0
  3  4  1  0  0  0  0
  3 22  1  0  0  0  0
  4 14  1  0  0  0  0
  5  4  1  0  0  0  0
  5  6  1  0  0  0  0
  5 23  1  6  0  0  0
  6 24  1  0  0  0  0
  6 25  1  0  0  0  0
  7  6  1  0  0  0  0
  7  8  1  0  0  0  0
  7 26  1  1  0  0  0
  8 27  1  0  0  0  0
  9  7  1  0  0  0  0
  9 10  1  1  0  0  0
  9 12  1  0  0  0  0
  9 13  1  0  0  0  0
 10 11  1  0  0  0  0
 10 28  1  0  0  0  0
 10 29  1  0  0  0  0
 11 30  1  0  0  0  0
 12 31  1  0  0  0  0
 12 32  1  0  0  0  0
 13 12  1  0  0  0  0
 13  5  1  0  0  0  0
 13 33  1  1  0  0  0
 14 15  2  0  0  0  0
 14 16  1  0  0  0  0
 16 17  1  0  0  0  0
 16 34  1  0  0  0  0
 17 18  2  0  0  0  0
M  END
>  <DRUGBANK_ID>
DB17805

>  <COMMON_NAME>
North-methanocarbathymidine

>  <CAS_NUMBER>
156126-12-4

>  <UNII>
LTM5S02010

>  <SYNONYMS>
(north)-methanocarbathymidine; 1-((1s,2s,4s,5r)-4-hydroxy-5-(hydroxymethyl)bicyclo(3.1.0)hex-2-yl)-5-methyl-2,4(1h,3h)-pyrimidinedione; 2,4(1h,3h)-pyrimidinedione, 1-((1s,2s,4s,5r)-4-hydroxy-5-(hydroxymethyl)bicyclo(3.1.0)hex-2-yl)-5-methyl-; 2,4(1h,3h)-pyrimidinedione, 1-(4-hydroxy-5-(hydroxymethyl)bicyclo(3.1.0)hex-2-yl)-5-methyl-, (1s-(1.alpha.,2.alpha.,4.beta.,5.alpha.))-; N-methanocarbathymidine

$$$$
