484
 OpenBabel10282417072D

 27 29  0  0  0  0  0  0  0  0999 V2000
    5.0992   -1.2518    0.0000 Br  0  0  0  0  0  0  0  0  0  0  0  0
    2.2020   -0.3499    0.0000 N   0  0  0  0  0  0  0  0  0  0  0  0
    3.6702   -0.4268    0.0000 N   0  0  0  0  0  0  0  0  0  0  0  0
    2.8694    0.8062    0.0000 N   0  0  0  0  0  0  0  0  0  0  0  0
    6.5511   -0.4554    0.0000 N   0  0  0  0  0  0  0  0  0  0  0  0
    6.5511    1.2518    0.0000 N   0  0  0  0  0  0  0  0  0  0  0  0
    1.6500    0.2633    0.0000 C   0  0  0  0  0  0  0  0  0  0  0  0
    2.0625    0.9777    0.0000 C   0  0  0  0  0  0  0  0  0  0  0  0
    2.9557   -0.0143    0.0000 C   0  0  0  0  0  0  0  0  0  0  0  0
    4.3846   -0.0143    0.0000 C   0  0  0  0  0  0  0  0  0  0  0  0
    5.0992   -0.4268    0.0000 C   0  0  0  0  0  0  0  0  0  0  0  0
    5.8136   -0.0143    0.0000 C   0  0  0  0  0  0  0  0  0  0  0  0
    4.3846    0.8107    0.0000 C   0  0  0  0  0  0  0  0  0  0  0  0
    5.8136    0.8107    0.0000 C   0  0  0  0  0  0  0  0  0  0  0  0
    5.0992    1.2232    0.0000 C   0  0  0  0  0  0  0  0  0  0  0  0
    7.2986   -0.0314    0.0000 C   0  0  0  0  0  0  0  0  0  0  0  0
    7.2986    0.8279    0.0000 C   0  0  0  0  0  0  0  0  0  0  0  0
    1.9973   -1.3129    0.0000 H   0  0  0  0  0  0  0  0  0  0  0  0
    3.6702   -1.4113    0.0000 H   0  0  0  0  0  0  0  0  0  0  0  0
    0.5859    0.1515    0.0000 H   0  0  0  0  0  0  0  0  0  0  0  0
    1.0673    1.1607    0.0000 H   0  0  0  0  0  0  0  0  0  0  0  0
    1.6273    1.9552    0.0000 H   0  0  0  0  0  0  0  0  0  0  0  0
    0.9940    1.0337    0.0000 H   0  0  0  0  0  0  0  0  0  0  0  0
    3.4909    1.3267    0.0000 H   0  0  0  0  0  0  0  0  0  0  0  0
    5.0993    2.2552    0.0000 H   0  0  0  0  0  0  0  0  0  0  0  0
    8.1904   -0.5508    0.0000 H   0  0  0  0  0  0  0  0  0  0  0  0
    8.1903    1.3474    0.0000 H   0  0  0  0  0  0  0  0  0  0  0  0
  1 11  1  0  0  0  0
  2  7  1  0  0  0  0
  2  9  1  0  0  0  0
  2 18  1  0  0  0  0
  3  9  1  0  0  0  0
  3 10  1  0  0  0  0
  3 19  1  0  0  0  0
  4  8  1  0  0  0  0
  4  9  2  0  0  0  0
  5 12  2  0  0  0  0
  5 16  1  0  0  0  0
  6 14  2  0  0  0  0
  6 17  1  0  0  0  0
  7  8  1  0  0  0  0
  7 20  1  0  0  0  0
  7 21  1  0  0  0  0
  8 22  1  0  0  0  0
  8 23  1  0  0  0  0
 10 11  2  0  0  0  0
 10 13  1  0  0  0  0
 11 12  1  0  0  0  0
 12 14  1  0  0  0  0
 13 15  2  0  0  0  0
 13 24  1  0  0  0  0
 14 15  1  0  0  0  0
 15 25  1  0  0  0  0
 16 17  2  0  0  0  0
 16 26  1  0  0  0  0
 17 27  1  0  0  0  0
M  END
>  <DRUGBANK_ID>
DB00484

>  <SECONDARY_ACCESSION_NUMBERS>
APRD00034

>  <COMMON_NAME>
Brimonidine

>  <CAS_NUMBER>
59803-98-4

>  <UNII>
E6GNX3HHTE

>  <SYNONYMS>
5-Bromo-6-(2-imidazolin-2-ylamino)quinoxaline; Brimonidina; Brimonidine; Brimonidinum; Bromoxidine

$$$$
