FPH
 OpenBabel10282417072D

 35 38  0  0  0  0  0  0  0  0999 V2000
    0.1282    2.0521    0.0000 O   0  0  0  0  0  0  0  0  0  0  0  0
    0.3832    1.2675    0.0000 N   0  0  0  0  0  0  0  0  0  0  0  0
    1.1678    1.0125    0.0000 C   0  0  0  0  0  0  0  0  0  0  0  0
    1.8823    1.4250    0.0000 C   0  0  0  0  0  0  0  0  0  0  0  0
    2.5967    1.0125    0.0000 C   0  0  0  0  0  0  0  0  0  0  0  0
    2.5967    0.1875    0.0000 C   0  0  0  0  0  0  0  0  0  0  0  0
    1.8823   -0.2250    0.0000 N   0  0  0  0  0  0  0  0  0  0  0  0
    1.1678    0.1875    0.0000 C   0  0  0  0  0  0  0  0  0  0  0  0
    0.3832   -0.0674    0.0000 C   0  0  0  0  0  0  0  0  0  0  0  0
    0.1282   -0.8520    0.0000 C   0  0  0  0  0  0  0  0  0  0  0  0
    0.6803   -1.4651    0.0000 C   0  0  0  0  0  0  0  0  0  0  0  0
    0.4253   -2.2497    0.0000 C   0  0  0  0  0  0  0  0  0  0  0  0
   -0.3816   -2.4213    0.0000 C   0  0  0  0  0  0  0  0  0  0  0  0
   -0.6366   -3.2059    0.0000 F   0  0  0  0  0  0  0  0  0  0  0  0
   -0.9337   -1.8082    0.0000 C   0  0  0  0  0  0  0  0  0  0  0  0
   -0.6787   -1.0236    0.0000 C   0  0  0  0  0  0  0  0  0  0  0  0
   -0.1018    0.6000    0.0000 C   0  0  0  0  0  0  0  0  0  0  0  0
   -0.9268    0.6000    0.0000 C   0  0  0  0  0  0  0  0  0  0  0  0
   -1.3393   -0.1144    0.0000 C   0  0  0  0  0  0  0  0  0  0  0  0
   -2.1643   -0.1144    0.0000 C   0  0  0  0  0  0  0  0  0  0  0  0
   -2.5768    0.6000    0.0000 N   0  0  0  0  0  0  0  0  0  0  0  0
   -2.1643    1.3145    0.0000 C   0  0  0  0  0  0  0  0  0  0  0  0
   -1.3393    1.3145    0.0000 C   0  0  0  0  0  0  0  0  0  0  0  0
    0.7551    2.7485    0.0000 H   0  0  0  0  0  0  0  0  0  0  0  0
    1.8823    2.4570    0.0000 H   0  0  0  0  0  0  0  0  0  0  0  0
    3.4904    1.5285    0.0000 H   0  0  0  0  0  0  0  0  0  0  0  0
    3.4904   -0.3285    0.0000 H   0  0  0  0  0  0  0  0  0  0  0  0
    1.6898   -1.2505    0.0000 H   0  0  0  0  0  0  0  0  0  0  0  0
    1.1159   -3.0166    0.0000 H   0  0  0  0  0  0  0  0  0  0  0  0
   -1.9432   -2.0228    0.0000 H   0  0  0  0  0  0  0  0  0  0  0  0
   -1.3693   -0.2567    0.0000 H   0  0  0  0  0  0  0  0  0  0  0  0
   -0.8233   -1.0081    0.0000 H   0  0  0  0  0  0  0  0  0  0  0  0
   -2.6803   -1.0081    0.0000 H   0  0  0  0  0  0  0  0  0  0  0  0
   -2.6803    2.2082    0.0000 H   0  0  0  0  0  0  0  0  0  0  0  0
   -0.8233    2.2082    0.0000 H   0  0  0  0  0  0  0  0  0  0  0  0
  1  2  1  0  0  0  0
  1 24  1  0  0  0  0
  2  3  1  0  0  0  0
  2 17  1  0  0  0  0
  3  4  2  0  0  0  0
  3  8  1  0  0  0  0
  4  5  1  0  0  0  0
  4 25  1  0  0  0  0
  5  6  2  0  0  0  0
  5 26  1  0  0  0  0
  6  7  1  0  0  0  0
  6 27  1  0  0  0  0
  7  8  2  0  0  0  0
  8  9  1  0  0  0  0
  9 10  1  0  0  0  0
  9 17  2  0  0  0  0
 10 11  2  0  0  0  0
 10 16  1  0  0  0  0
 11 12  1  0  0  0  0
 11 28  1  0  0  0  0
 12 13  2  0  0  0  0
 12 29  1  0  0  0  0
 13 14  1  0  0  0  0
 13 15  1  0  0  0  0
 15 16  2  0  0  0  0
 15 30  1  0  0  0  0
 16 31  1  0  0  0  0
 17 18  1  0  0  0  0
 18 19  2  0  0  0  0
 18 23  1  0  0  0  0
 19 20  1  0  0  0  0
 19 32  1  0  0  0  0
 20 21  2  0  0  0  0
 20 33  1  0  0  0  0
 21 22  1  0  0  0  0
 22 23  2  0  0  0  0
 22 34  1  0  0  0  0
 23 35  1  0  0  0  0
M  END
>  <DRUGBANK_ID>
DB02195

>  <SECONDARY_ACCESSION_NUMBERS>
EXPT01476

>  <COMMON_NAME>
3-(4-Fluorophenyl)-1-Hydroxy-2-(Pyridin-4-Yl)-1h-Pyrrolo[3,2-B]Pyridine

$$$$
