
 OpenBabel10282417072D

308312  0  0  1  0  0  0  0  0999 V2000
    1.3061   -8.4533    0.0000 H   0  0  0  0  0  0  0  0  0  0  0  0
    1.9646   -7.9562    0.0000 C   0  0  1  0  0  0  0  0  0  0  0  0
    1.2048   -7.6345    0.0000 N   0  0  0  0  0  0  0  0  0  0  0  0
    0.5464   -8.1316    0.0000 C   0  0  0  0  0  0  0  0  0  0  0  0
    0.6477   -8.9504    0.0000 O   0  0  0  0  0  0  0  0  0  0  0  0
   -0.2133   -7.8099    0.0000 C   0  0  2  0  0  0  0  0  0  0  0  0
   -0.3146   -6.9912    0.0000 C   0  0  0  0  0  0  0  0  0  0  0  0
    0.3438   -6.4941    0.0000 C   0  0  0  0  0  0  0  0  0  0  0  0
    0.2425   -5.6753    0.0000 C   0  0  0  0  0  0  0  0  0  0  0  0
    0.9010   -5.1782    0.0000 N   0  0  0  0  0  0  0  0  0  0  0  0
    0.7997   -4.3595    0.0000 C   0  0  0  0  0  0  0  0  0  0  0  0
    0.0399   -4.0378    0.0000 N   0  0  0  0  0  0  0  0  0  0  0  0
    1.4581   -3.8624    0.0000 N   0  0  0  0  0  0  0  0  0  0  0  0
   -0.8717   -8.3071    0.0000 N   0  0  0  0  0  0  0  0  0  0  0  0
   -1.6314   -7.9854    0.0000 C   0  0  0  0  0  0  0  0  0  0  0  0
   -1.7327   -7.1666    0.0000 O   0  0  0  0  0  0  0  0  0  0  0  0
   -2.2898   -8.4825    0.0000 C   0  0  2  0  0  0  0  0  0  0  0  0
   -2.1885   -9.3013    0.0000 C   0  0  0  0  0  0  0  0  0  0  0  0
   -2.8470   -9.7984    0.0000 C   0  0  0  0  0  0  0  0  0  0  0  0
   -2.7457  -10.6171    0.0000 C   0  0  0  0  0  0  0  0  0  0  0  0
   -3.4041  -11.1142    0.0000 N   0  0  0  0  0  0  0  0  0  0  0  0
   -3.3028  -11.9330    0.0000 C   0  0  0  0  0  0  0  0  0  0  0  0
   -2.5431  -12.2546    0.0000 N   0  0  0  0  0  0  0  0  0  0  0  0
   -3.9612  -12.4301    0.0000 N   0  0  0  0  0  0  0  0  0  0  0  0
   -3.0495   -8.1608    0.0000 N   0  0  0  0  0  0  0  0  0  0  0  0
   -3.7080   -8.6579    0.0000 C   0  0  0  0  0  0  0  0  0  0  0  0
   -3.6067   -9.4767    0.0000 O   0  0  0  0  0  0  0  0  0  0  0  0
   -4.4677   -8.3363    0.0000 C   0  0  2  0  0  0  0  0  0  0  0  0
   -4.5690   -7.5175    0.0000 C   0  0  0  0  0  0  0  0  0  0  0  0
   -3.9106   -7.0204    0.0000 C   0  0  0  0  0  0  0  0  0  0  0  0
   -4.0119   -6.2017    0.0000 C   0  0  0  0  0  0  0  0  0  0  0  0
   -3.1508   -7.3421    0.0000 C   0  0  0  0  0  0  0  0  0  0  0  0
   -5.1261   -8.8334    0.0000 N   0  0  0  0  0  0  0  0  0  0  0  0
   -5.8858   -8.5117    0.0000 C   0  0  0  0  0  0  0  0  0  0  0  0
   -5.9871   -7.6930    0.0000 O   0  0  0  0  0  0  0  0  0  0  0  0
   -6.5442   -9.0088    0.0000 C   0  0  2  0  0  0  0  0  0  0  0  0
   -6.4429   -9.8276    0.0000 C   0  0  0  0  0  0  0  0  0  0  0  0
   -5.6832  -10.1493    0.0000 C   0  0  0  0  0  0  0  0  0  0  0  0
   -5.0248   -9.6522    0.0000 C   0  0  0  0  0  0  0  0  0  0  0  0
   -4.2651   -9.9738    0.0000 C   0  0  0  0  0  0  0  0  0  0  0  0
   -4.1638  -10.7926    0.0000 C   0  0  0  0  0  0  0  0  0  0  0  0
   -4.8222  -11.2897    0.0000 C   0  0  0  0  0  0  0  0  0  0  0  0
   -5.5819  -10.9680    0.0000 C   0  0  0  0  0  0  0  0  0  0  0  0
   -7.3039   -8.6872    0.0000 N   0  0  0  0  0  0  0  0  0  0  0  0
   -7.9624   -9.1843    0.0000 C   0  0  0  0  0  0  0  0  0  0  0  0
   -7.8611  -10.0030    0.0000 O   0  0  0  0  0  0  0  0  0  0  0  0
   -8.7221   -8.8626    0.0000 C   0  0  0  0  0  0  0  0  0  0  0  0
   -9.3805   -9.3597    0.0000 N   0  0  0  0  0  0  0  0  0  0  0  0
  -10.1402   -9.0381    0.0000 C   0  0  0  0  0  0  0  0  0  0  0  0
  -10.2415   -8.2193    0.0000 O   0  0  0  0  0  0  0  0  0  0  0  0
  -10.7986   -9.5352    0.0000 C   0  0  0  0  0  0  0  0  0  0  0  0
  -11.5583   -9.2135    0.0000 N   0  0  0  0  0  0  0  0  0  0  0  0
  -12.2167   -9.7106    0.0000 C   0  0  0  0  0  0  0  0  0  0  0  0
  -12.1155  -10.5294    0.0000 O   0  0  0  0  0  0  0  0  0  0  0  0
  -12.9765   -9.3890    0.0000 C   0  0  1  0  0  0  0  0  0  0  0  0
  -13.0778   -8.5702    0.0000 N   0  0  0  0  0  0  0  0  0  0  0  0
  -13.6349   -9.8861    0.0000 C   0  0  0  0  0  0  0  0  0  0  0  0
  -14.3946   -9.5644    0.0000 C   0  0  0  0  0  0  0  0  0  0  0  0
  -15.0530  -10.0615    0.0000 C   0  0  0  0  0  0  0  0  0  0  0  0
  -15.8127   -9.7399    0.0000 C   0  0  0  0  0  0  0  0  0  0  0  0
  -15.9140   -8.9211    0.0000 C   0  0  0  0  0  0  0  0  0  0  0  0
  -16.6737   -8.5995    0.0000 O   0  0  0  0  0  0  0  0  0  0  0  0
  -15.2556   -8.4240    0.0000 C   0  0  0  0  0  0  0  0  0  0  0  0
  -14.4959   -8.7457    0.0000 C   0  0  0  0  0  0  0  0  0  0  0  0
    2.0658   -8.7749    0.0000 C   0  0  1  0  0  0  0  0  0  0  0  0
    1.4074   -9.2720    0.0000 C   0  0  0  0  0  0  0  0  0  0  0  0
    2.8256   -9.0966    0.0000 C   0  0  0  0  0  0  0  0  0  0  0  0
    2.9269   -9.9153    0.0000 C   0  0  0  0  0  0  0  0  0  0  0  0
    2.6230   -7.4591    0.0000 C   0  0  0  0  0  0  0  0  0  0  0  0
    2.5217   -6.6403    0.0000 O   0  0  0  0  0  0  0  0  0  0  0  0
    3.3827   -7.7807    0.0000 N   0  0  0  0  0  0  0  0  0  0  0  0
    4.0411   -7.2836    0.0000 C   0  0  1  0  0  0  0  0  0  0  0  0
    4.8008   -7.6053    0.0000 C   0  0  0  0  0  0  0  0  0  0  0  0
    4.9021   -8.4240    0.0000 C   0  0  0  0  0  0  0  0  0  0  0  0
    5.6618   -8.7457    0.0000 C   0  0  0  0  0  0  0  0  0  0  0  0
    5.7631   -9.5644    0.0000 N   0  0  0  0  0  0  0  0  0  0  0  0
    6.5228   -9.8861    0.0000 C   0  0  0  0  0  0  0  0  0  0  0  0
    7.1812   -9.3890    0.0000 N   0  0  0  0  0  0  0  0  0  0  0  0
    6.6241  -10.7048    0.0000 N   0  0  0  0  0  0  0  0  0  0  0  0
    3.9398   -6.4648    0.0000 C   0  0  0  0  0  0  0  0  0  0  0  0
    3.1801   -6.1432    0.0000 O   0  0  0  0  0  0  0  0  0  0  0  0
    4.5982   -5.9677    0.0000 N   0  0  0  0  0  0  0  0  0  0  0  0
    5.3874   -6.2082    0.0000 C   0  0  0  0  0  0  0  0  0  0  0  0
    5.8600   -5.5320    0.0000 C   0  0  0  0  0  0  0  0  0  0  0  0
    5.3629   -4.8736    0.0000 C   0  0  0  0  0  0  0  0  0  0  0  0
    4.5831   -5.1429    0.0000 C   0  0  1  0  0  0  0  0  0  0  0  0
    3.9068   -4.6703    0.0000 C   0  0  0  0  0  0  0  0  0  0  0  0
    3.1594   -5.0196    0.0000 O   0  0  0  0  0  0  0  0  0  0  0  0
    3.9780   -3.8484    0.0000 N   0  0  0  0  0  0  0  0  0  0  0  0
    3.3017   -3.3758    0.0000 C   0  0  1  0  0  0  0  0  0  0  0  0
    2.5544   -3.7251    0.0000 C   0  0  0  0  0  0  0  0  0  0  0  0
    2.4832   -4.5471    0.0000 C   0  0  0  0  0  0  0  0  0  0  0  0
    1.7358   -4.8964    0.0000 C   0  0  0  0  0  0  0  0  0  0  0  0
    1.6647   -5.7183    0.0000 C   0  0  0  0  0  0  0  0  0  0  0  0
    0.9173   -6.0677    0.0000 N   0  0  0  0  0  0  0  0  0  0  0  0
    3.3729   -2.5539    0.0000 C   0  0  0  0  0  0  0  0  0  0  0  0
    4.1203   -2.2045    0.0000 O   0  0  0  0  0  0  0  0  0  0  0  0
    2.6967   -2.0813    0.0000 N   0  0  0  0  0  0  0  0  0  0  0  0
    2.7678   -1.2594    0.0000 C   0  0  1  0  0  0  0  0  0  0  0  0
    3.5152   -0.9100    0.0000 C   0  0  0  0  0  0  0  0  0  0  0  0
    4.1914   -1.3826    0.0000 C   0  0  0  0  0  0  0  0  0  0  0  0
    4.9388   -1.0332    0.0000 C   0  0  0  0  0  0  0  0  0  0  0  0
    4.6170   -2.0894    0.0000 C   0  0  0  0  0  0  0  0  0  0  0  0
    2.0916   -0.7868    0.0000 C   0  0  0  0  0  0  0  0  0  0  0  0
    1.3442   -1.1361    0.0000 O   0  0  0  0  0  0  0  0  0  0  0  0
    2.1627    0.0351    0.0000 N   0  0  0  0  0  0  0  0  0  0  0  0
    1.4865    0.5077    0.0000 C   0  0  1  0  0  0  0  0  0  0  0  0
    0.7391    0.1584    0.0000 C   0  0  0  0  0  0  0  0  0  0  0  0
    0.6680   -0.6636    0.0000 C   0  0  0  0  0  0  0  0  0  0  0  0
   -0.0794   -1.0129    0.0000 C   0  0  0  0  0  0  0  0  0  0  0  0
   -0.1506   -1.8348    0.0000 C   0  0  0  0  0  0  0  0  0  0  0  0
   -0.8980   -2.1842    0.0000 N   0  0  0  0  0  0  0  0  0  0  0  0
    1.5576    1.3296    0.0000 C   0  0  0  0  0  0  0  0  0  0  0  0
    2.3050    1.6790    0.0000 O   0  0  0  0  0  0  0  0  0  0  0  0
    0.8814    1.8022    0.0000 N   0  0  0  0  0  0  0  0  0  0  0  0
    0.9525    2.6242    0.0000 C   0  0  1  0  0  0  0  0  0  0  0  0
    0.2763    3.0967    0.0000 C   0  0  0  0  0  0  0  0  0  0  0  0
   -0.4711    2.7474    0.0000 C   0  0  0  0  0  0  0  0  0  0  0  0
   -0.6277    1.9374    0.0000 C   0  0  0  0  0  0  0  0  0  0  0  0
   -1.4465    1.8361    0.0000 N   0  0  0  0  0  0  0  0  0  0  0  0
   -1.7959    2.5835    0.0000 C   0  0  0  0  0  0  0  0  0  0  0  0
   -2.5850    2.8240    0.0000 C   0  0  0  0  0  0  0  0  0  0  0  0
   -2.7714    3.6276    0.0000 C   0  0  0  0  0  0  0  0  0  0  0  0
   -2.1685    4.1909    0.0000 C   0  0  0  0  0  0  0  0  0  0  0  0
   -1.3793    3.9504    0.0000 C   0  0  0  0  0  0  0  0  0  0  0  0
   -1.1930    3.1467    0.0000 C   0  0  0  0  0  0  0  0  0  0  0  0
    1.6999    2.9735    0.0000 C   0  0  0  0  0  0  0  0  0  0  0  0
    1.7711    3.7954    0.0000 O   0  0  0  0  0  0  0  0  0  0  0  0
    2.3762    2.5009    0.0000 N   0  0  0  0  0  0  0  0  0  0  0  0
    3.1235    2.8503    0.0000 C   0  0  1  0  0  0  0  0  0  0  0  0
    3.1947    3.6722    0.0000 C   0  0  0  0  0  0  0  0  0  0  0  0
    3.9421    4.0215    0.0000 C   0  0  0  0  0  0  0  0  0  0  0  0
    4.0132    4.8435    0.0000 O   0  0  0  0  0  0  0  0  0  0  0  0
    4.6183    3.5490    0.0000 O   0  0  0  0  0  0  0  0  0  0  0  0
    3.7998    2.3777    0.0000 C   0  0  0  0  0  0  0  0  0  0  0  0
    3.7286    1.5558    0.0000 O   0  0  0  0  0  0  0  0  0  0  0  0
    4.5472    2.7270    0.0000 N   0  0  0  0  0  0  0  0  0  0  0  0
    5.2234    2.2545    0.0000 C   0  0  1  0  0  0  0  0  0  0  0  0
    5.1522    1.4325    0.0000 C   0  0  0  0  0  0  0  0  0  0  0  0
    5.8285    0.9600    0.0000 C   0  0  0  0  0  0  0  0  0  0  0  0
    6.5759    1.3093    0.0000 N   0  0  0  0  0  0  0  0  0  0  0  0
    5.7573    0.1380    0.0000 O   0  0  0  0  0  0  0  0  0  0  0  0
    5.9708    2.6038    0.0000 C   0  0  0  0  0  0  0  0  0  0  0  0
    6.0419    3.4257    0.0000 O   0  0  0  0  0  0  0  0  0  0  0  0
    6.6470    2.1312    0.0000 N   0  0  0  0  0  0  0  0  0  0  0  0
    7.3944    2.4806    0.0000 C   0  0  1  0  0  0  0  0  0  0  0  0
    8.0706    2.0080    0.0000 C   0  0  0  0  0  0  0  0  0  0  0  0
    8.8180    2.3573    0.0000 C   0  0  0  0  0  0  0  0  0  0  0  0
    9.4943    1.8848    0.0000 C   0  0  0  0  0  0  0  0  0  0  0  0
   10.2416    2.2341    0.0000 N   0  0  0  0  0  0  0  0  0  0  0  0
    9.4231    1.0628    0.0000 O   0  0  0  0  0  0  0  0  0  0  0  0
    7.4655    3.3025    0.0000 C   0  0  0  0  0  0  0  0  0  0  0  0
    8.2129    3.6518    0.0000 O   0  0  0  0  0  0  0  0  0  0  0  0
    6.7893    3.7751    0.0000 O   0  0  0  0  0  0  0  0  0  0  0  0
    1.0839   -6.6574    0.0000 H   0  0  0  0  0  0  0  0  0  0  0  0
   -0.0819   -8.8718    0.0000 H   0  0  0  0  0  0  0  0  0  0  0  0
   -1.2999   -6.5740    0.0000 H   0  0  0  0  0  0  0  0  0  0  0  0
   -0.4460   -5.9293    0.0000 H   0  0  0  0  0  0  0  0  0  0  0  0
    1.3291   -6.9113    0.0000 H   0  0  0  0  0  0  0  0  0  0  0  0
    1.1977   -5.8494    0.0000 H   0  0  0  0  0  0  0  0  0  0  0  0
   -0.7428   -5.2581    0.0000 H   0  0  0  0  0  0  0  0  0  0  0  0
    0.1112   -4.6134    0.0000 H   0  0  0  0  0  0  0  0  0  0  0  0
    1.8076   -5.5621    0.0000 H   0  0  0  0  0  0  0  0  0  0  0  0
   -0.0810   -3.0607    0.0000 H   0  0  0  0  0  0  0  0  0  0  0  0
   -0.7458   -4.6310    0.0000 H   0  0  0  0  0  0  0  0  0  0  0  0
    2.3647   -4.2462    0.0000 H   0  0  0  0  0  0  0  0  0  0  0  0
   -0.7508   -9.2841    0.0000 H   0  0  0  0  0  0  0  0  0  0  0  0
   -2.4212   -7.4206    0.0000 H   0  0  0  0  0  0  0  0  0  0  0  0
   -1.2032   -9.7185    0.0000 H   0  0  0  0  0  0  0  0  0  0  0  0
   -2.0572  -10.3632    0.0000 H   0  0  0  0  0  0  0  0  0  0  0  0
   -3.8323   -9.3812    0.0000 H   0  0  0  0  0  0  0  0  0  0  0  0
   -3.7010  -10.4431    0.0000 H   0  0  0  0  0  0  0  0  0  0  0  0
   -1.7604  -11.0343    0.0000 H   0  0  0  0  0  0  0  0  0  0  0  0
   -2.6143  -11.6790    0.0000 H   0  0  0  0  0  0  0  0  0  0  0  0
   -4.3107  -10.7304    0.0000 H   0  0  0  0  0  0  0  0  0  0  0  0
   -2.4222  -13.2316    0.0000 H   0  0  0  0  0  0  0  0  0  0  0  0
   -1.7574  -11.6613    0.0000 H   0  0  0  0  0  0  0  0  0  0  0  0
   -4.8678  -12.0463    0.0000 H   0  0  0  0  0  0  0  0  0  0  0  0
   -3.1703   -7.1837    0.0000 H   0  0  0  0  0  0  0  0  0  0  0  0
   -4.3363   -9.3982    0.0000 H   0  0  0  0  0  0  0  0  0  0  0  0
   -5.5543   -7.1003    0.0000 H   0  0  0  0  0  0  0  0  0  0  0  0
   -4.7004   -6.4556    0.0000 H   0  0  0  0  0  0  0  0  0  0  0  0
   -3.0567   -6.3757    0.0000 H   0  0  0  0  0  0  0  0  0  0  0  0
   -3.1580   -5.5570    0.0000 H   0  0  0  0  0  0  0  0  0  0  0  0
   -4.9972   -5.7845    0.0000 H   0  0  0  0  0  0  0  0  0  0  0  0
   -4.1433   -5.1398    0.0000 H   0  0  0  0  0  0  0  0  0  0  0  0
   -3.0194   -8.4040    0.0000 H   0  0  0  0  0  0  0  0  0  0  0  0
   -2.2968   -6.6974    0.0000 H   0  0  0  0  0  0  0  0  0  0  0  0
   -2.1655   -7.7593    0.0000 H   0  0  0  0  0  0  0  0  0  0  0  0
   -5.0052   -9.8105    0.0000 H   0  0  0  0  0  0  0  0  0  0  0  0
   -6.6756   -7.9469    0.0000 H   0  0  0  0  0  0  0  0  0  0  0  0
   -7.2969  -10.4723    0.0000 H   0  0  0  0  0  0  0  0  0  0  0  0
   -6.3116  -10.8895    0.0000 H   0  0  0  0  0  0  0  0  0  0  0  0
   -5.1515   -8.6280    0.0000 H   0  0  0  0  0  0  0  0  0  0  0  0
   -3.4415   -9.3519    0.0000 H   0  0  0  0  0  0  0  0  0  0  0  0
   -3.2135  -11.1950    0.0000 H   0  0  0  0  0  0  0  0  0  0  0  0
   -4.6955  -12.3139    0.0000 H   0  0  0  0  0  0  0  0  0  0  0  0
   -6.4055  -11.5898    0.0000 H   0  0  0  0  0  0  0  0  0  0  0  0
   -7.4248   -7.7101    0.0000 H   0  0  0  0  0  0  0  0  0  0  0  0
   -8.8535   -7.8007    0.0000 H   0  0  0  0  0  0  0  0  0  0  0  0
   -9.7074   -8.4454    0.0000 H   0  0  0  0  0  0  0  0  0  0  0  0
   -9.2596  -10.3367    0.0000 H   0  0  0  0  0  0  0  0  0  0  0  0
  -10.6672  -10.5971    0.0000 H   0  0  0  0  0  0  0  0  0  0  0  0
  -11.6526  -10.1799    0.0000 H   0  0  0  0  0  0  0  0  0  0  0  0
  -11.6792   -8.2364    0.0000 H   0  0  0  0  0  0  0  0  0  0  0  0
  -12.1226   -8.7442    0.0000 H   0  0  0  0  0  0  0  0  0  0  0  0
  -12.2638   -7.9556    0.0000 H   0  0  0  0  0  0  0  0  0  0  0  0
  -14.0171   -8.1725    0.0000 H   0  0  0  0  0  0  0  0  0  0  0  0
  -13.5035  -10.9480    0.0000 H   0  0  0  0  0  0  0  0  0  0  0  0
  -14.4889  -10.5308    0.0000 H   0  0  0  0  0  0  0  0  0  0  0  0
  -14.9263  -11.0857    0.0000 H   0  0  0  0  0  0  0  0  0  0  0  0
  -16.6363  -10.3618    0.0000 H   0  0  0  0  0  0  0  0  0  0  0  0
  -16.7888   -7.6696    0.0000 H   0  0  0  0  0  0  0  0  0  0  0  0
  -15.3823   -7.3998    0.0000 H   0  0  0  0  0  0  0  0  0  0  0  0
  -13.6723   -8.1239    0.0000 H   0  0  0  0  0  0  0  0  0  0  0  0
    1.0805   -8.3577    0.0000 H   0  0  0  0  0  0  0  0  0  0  0  0
    0.4221   -8.8548    0.0000 H   0  0  0  0  0  0  0  0  0  0  0  0
    1.5388  -10.3339    0.0000 H   0  0  0  0  0  0  0  0  0  0  0  0
    0.5535   -9.9167    0.0000 H   0  0  0  0  0  0  0  0  0  0  0  0
    3.6795   -8.4519    0.0000 H   0  0  0  0  0  0  0  0  0  0  0  0
    3.8109   -9.5138    0.0000 H   0  0  0  0  0  0  0  0  0  0  0  0
    2.0730  -10.5600    0.0000 H   0  0  0  0  0  0  0  0  0  0  0  0
    3.9122  -10.3325    0.0000 H   0  0  0  0  0  0  0  0  0  0  0  0
    3.0583  -10.9772    0.0000 H   0  0  0  0  0  0  0  0  0  0  0  0
    3.5036   -8.7577    0.0000 H   0  0  0  0  0  0  0  0  0  0  0  0
    4.1725   -8.3455    0.0000 H   0  0  0  0  0  0  0  0  0  0  0  0
    5.6548   -6.9606    0.0000 H   0  0  0  0  0  0  0  0  0  0  0  0
    5.7861   -8.0225    0.0000 H   0  0  0  0  0  0  0  0  0  0  0  0
    4.0481   -9.0687    0.0000 H   0  0  0  0  0  0  0  0  0  0  0  0
    5.0334   -9.4859    0.0000 H   0  0  0  0  0  0  0  0  0  0  0  0
    6.5158   -8.1010    0.0000 H   0  0  0  0  0  0  0  0  0  0  0  0
    6.6471   -9.1629    0.0000 H   0  0  0  0  0  0  0  0  0  0  0  0
    4.9774  -10.1576    0.0000 H   0  0  0  0  0  0  0  0  0  0  0  0
    8.0878   -9.7728    0.0000 H   0  0  0  0  0  0  0  0  0  0  0  0
    7.0603   -8.4120    0.0000 H   0  0  0  0  0  0  0  0  0  0  0  0
    5.8384  -11.2980    0.0000 H   0  0  0  0  0  0  0  0  0  0  0  0
    5.7367   -7.2196    0.0000 H   0  0  0  0  0  0  0  0  0  0  0  0
    6.4471   -6.3562    0.0000 H   0  0  0  0  0  0  0  0  0  0  0  0
    6.9298   -5.5124    0.0000 H   0  0  0  0  0  0  0  0  0  0  0  0
    6.3282   -4.5699    0.0000 H   0  0  0  0  0  0  0  0  0  0  0  0
    5.6748   -3.8501    0.0000 H   0  0  0  0  0  0  0  0  0  0  0  0
    4.5925   -4.1310    0.0000 H   0  0  0  0  0  0  0  0  0  0  0  0
    4.7310   -4.0832    0.0000 H   0  0  0  0  0  0  0  0  0  0  0  0
    4.8699   -3.4315    0.0000 H   0  0  0  0  0  0  0  0  0  0  0  0
    3.2094   -4.4418    0.0000 H   0  0  0  0  0  0  0  0  0  0  0  0
    1.6774   -3.1122    0.0000 H   0  0  0  0  0  0  0  0  0  0  0  0
    1.5850   -4.1782    0.0000 H   0  0  0  0  0  0  0  0  0  0  0  0
    3.3602   -5.1601    0.0000 H   0  0  0  0  0  0  0  0  0  0  0  0
    2.3909   -5.6131    0.0000 H   0  0  0  0  0  0  0  0  0  0  0  0
    0.8587   -4.2835    0.0000 H   0  0  0  0  0  0  0  0  0  0  0  0
    0.7665   -5.3495    0.0000 H   0  0  0  0  0  0  0  0  0  0  0  0
    2.5418   -6.3312    0.0000 H   0  0  0  0  0  0  0  0  0  0  0  0
    1.5725   -6.7843    0.0000 H   0  0  0  0  0  0  0  0  0  0  0  0
    0.0812   -5.4835    0.0000 H   0  0  0  0  0  0  0  0  0  0  0  0
    0.8294   -7.0839    0.0000 H   0  0  0  0  0  0  0  0  0  0  0  0
    1.8048   -2.4982    0.0000 H   0  0  0  0  0  0  0  0  0  0  0  0
    3.6449   -1.8723    0.0000 H   0  0  0  0  0  0  0  0  0  0  0  0
    3.6075    0.1560    0.0000 H   0  0  0  0  0  0  0  0  0  0  0  0
    4.4845   -0.4569    0.0000 H   0  0  0  0  0  0  0  0  0  0  0  0
    5.2149   -1.6945    0.0000 H   0  0  0  0  0  0  0  0  0  0  0  0
    5.8159   -1.6461    0.0000 H   0  0  0  0  0  0  0  0  0  0  0  0
    5.0310    0.0328    0.0000 H   0  0  0  0  0  0  0  0  0  0  0  0
    5.9081   -0.5801    0.0000 H   0  0  0  0  0  0  0  0  0  0  0  0
    4.0991   -3.0257    0.0000 H   0  0  0  0  0  0  0  0  0  0  0  0
    5.6868   -2.0697    0.0000 H   0  0  0  0  0  0  0  0  0  0  0  0
    5.1690   -3.0060    0.0000 H   0  0  0  0  0  0  0  0  0  0  0  0
    3.0546    0.4520    0.0000 H   0  0  0  0  0  0  0  0  0  0  0  0
    1.3942   -0.5583    0.0000 H   0  0  0  0  0  0  0  0  0  0  0  0
   -0.1380    0.7713    0.0000 H   0  0  0  0  0  0  0  0  0  0  0  0
   -0.2302   -0.2947    0.0000 H   0  0  0  0  0  0  0  0  0  0  0  0
    1.5451   -1.2765    0.0000 H   0  0  0  0  0  0  0  0  0  0  0  0
    0.5757   -1.7296    0.0000 H   0  0  0  0  0  0  0  0  0  0  0  0
   -0.9564   -0.3999    0.0000 H   0  0  0  0  0  0  0  0  0  0  0  0
   -1.0488   -1.4659    0.0000 H   0  0  0  0  0  0  0  0  0  0  0  0
    0.7265   -2.4477    0.0000 H   0  0  0  0  0  0  0  0  0  0  0  0
   -0.2429   -2.9008    0.0000 H   0  0  0  0  0  0  0  0  0  0  0  0
   -1.7341   -1.6000    0.0000 H   0  0  0  0  0  0  0  0  0  0  0  0
   -0.9859   -3.2004    0.0000 H   0  0  0  0  0  0  0  0  0  0  0  0
   -0.0105    1.3853    0.0000 H   0  0  0  0  0  0  0  0  0  0  0  0
   -0.0168    2.1710    0.0000 H   0  0  0  0  0  0  0  0  0  0  0  0
    0.3686    4.1627    0.0000 H   0  0  0  0  0  0  0  0  0  0  0  0
   -0.6007    3.7096    0.0000 H   0  0  0  0  0  0  0  0  0  0  0  0
    0.0768    1.1833    0.0000 H   0  0  0  0  0  0  0  0  0  0  0  0
   -1.9230    0.9746    0.0000 H   0  0  0  0  0  0  0  0  0  0  0  0
   -3.3391    2.1195    0.0000 H   0  0  0  0  0  0  0  0  0  0  0  0
   -3.7586    3.9283    0.0000 H   0  0  0  0  0  0  0  0  0  0  0  0
   -2.4016    5.1962    0.0000 H   0  0  0  0  0  0  0  0  0  0  0  0
   -0.6252    4.6549    0.0000 H   0  0  0  0  0  0  0  0  0  0  0  0
    2.2914    1.5201    0.0000 H   0  0  0  0  0  0  0  0  0  0  0  0
    2.2464    3.4632    0.0000 H   0  0  0  0  0  0  0  0  0  0  0  0
    2.3177    4.2852    0.0000 H   0  0  0  0  0  0  0  0  0  0  0  0
    3.2870    4.7382    0.0000 H   0  0  0  0  0  0  0  0  0  0  0  0
    4.8620    5.2403    0.0000 H   0  0  0  0  0  0  0  0  0  0  0  0
    4.6321    3.7078    0.0000 H   0  0  0  0  0  0  0  0  0  0  0  0
    4.2541    1.8014    0.0000 H   0  0  0  0  0  0  0  0  0  0  0  0
    4.1829    0.9794    0.0000 H   0  0  0  0  0  0  0  0  0  0  0  0
    5.0600    0.3665    0.0000 H   0  0  0  0  0  0  0  0  0  0  0  0
    7.3828    0.7453    0.0000 H   0  0  0  0  0  0  0  0  0  0  0  0
    6.6609    2.2901    0.0000 H   0  0  0  0  0  0  0  0  0  0  0  0
    6.5621    1.1504    0.0000 H   0  0  0  0  0  0  0  0  0  0  0  0
    7.3021    1.4146    0.0000 H   0  0  0  0  0  0  0  0  0  0  0  0
    7.9783    0.9420    0.0000 H   0  0  0  0  0  0  0  0  0  0  0  0
    8.9476    1.3950    0.0000 H   0  0  0  0  0  0  0  0  0  0  0  0
    8.9102    3.4233    0.0000 H   0  0  0  0  0  0  0  0  0  0  0  0
    9.7873    2.8105    0.0000 H   0  0  0  0  0  0  0  0  0  0  0  0
   11.0486    1.6701    0.0000 H   0  0  0  0  0  0  0  0  0  0  0  0
   10.3265    3.2149    0.0000 H   0  0  0  0  0  0  0  0  0  0  0  0
    8.9809    3.1150    0.0000 H   0  0  0  0  0  0  0  0  0  0  0  0
  2  1  1  1  0  0  0
  2  3  1  0  0  0  0
  2 65  1  0  0  0  0
  2 69  1  0  0  0  0
  3  4  1  0  0  0  0
  3155  1  0  0  0  0
  4  5  2  0  0  0  0
  6  4  1  0  0  0  0
  6  7  1  0  0  0  0
  6 14  1  0  0  0  0
  6156  1  6  0  0  0
  7  8  1  0  0  0  0
  7157  1  0  0  0  0
  7158  1  0  0  0  0
  8  9  1  0  0  0  0
  8159  1  0  0  0  0
  8160  1  0  0  0  0
  9 10  1  0  0  0  0
  9161  1  0  0  0  0
  9162  1  0  0  0  0
 10 11  1  0  0  0  0
 10163  1  0  0  0  0
 11 12  1  0  0  0  0
 11 13  2  0  0  0  0
 12164  1  0  0  0  0
 12165  1  0  0  0  0
 13166  1  0  0  0  0
 14 15  1  0  0  0  0
 14167  1  0  0  0  0
 15 16  2  0  0  0  0
 17 15  1  0  0  0  0
 17 18  1  0  0  0  0
 17 25  1  0  0  0  0
 17168  1  1  0  0  0
 18 19  1  0  0  0  0
 18169  1  0  0  0  0
 18170  1  0  0  0  0
 19 20  1  0  0  0  0
 19171  1  0  0  0  0
 19172  1  0  0  0  0
 20 21  1  0  0  0  0
 20173  1  0  0  0  0
 20174  1  0  0  0  0
 21 22  1  0  0  0  0
 21175  1  0  0  0  0
 22 23  1  0  0  0  0
 22 24  2  0  0  0  0
 23176  1  0  0  0  0
 23177  1  0  0  0  0
 24178  1  0  0  0  0
 25 26  1  0  0  0  0
 25179  1  0  0  0  0
 26 27  2  0  0  0  0
 28 26  1  0  0  0  0
 28 29  1  0  0  0  0
 28 33  1  0  0  0  0
 28180  1  6  0  0  0
 29 30  1  0  0  0  0
 29181  1  0  0  0  0
 29182  1  0  0  0  0
 30 31  1  0  0  0  0
 30 32  1  0  0  0  0
 30183  1  0  0  0  0
 31184  1  0  0  0  0
 31185  1  0  0  0  0
 31186  1  0  0  0  0
 32187  1  0  0  0  0
 32188  1  0  0  0  0
 32189  1  0  0  0  0
 33 34  1  0  0  0  0
 33190  1  0  0  0  0
 34 35  2  0  0  0  0
 36 34  1  0  0  0  0
 36 37  1  0  0  0  0
 36 44  1  0  0  0  0
 36191  1  1  0  0  0
 37 38  1  0  0  0  0
 37192  1  0  0  0  0
 37193  1  0  0  0  0
 38 39  2  0  0  0  0
 38 43  1  0  0  0  0
 39 40  1  0  0  0  0
 39194  1  0  0  0  0
 40 41  2  0  0  0  0
 40195  1  0  0  0  0
 41 42  1  0  0  0  0
 41196  1  0  0  0  0
 42 43  2  0  0  0  0
 42197  1  0  0  0  0
 43198  1  0  0  0  0
 44 45  1  0  0  0  0
 44199  1  0  0  0  0
 45 46  2  0  0  0  0
 45 47  1  0  0  0  0
 47 48  1  0  0  0  0
 47200  1  0  0  0  0
 47201  1  0  0  0  0
 48 49  1  0  0  0  0
 48202  1  0  0  0  0
 49 50  2  0  0  0  0
 49 51  1  0  0  0  0
 51 52  1  0  0  0  0
 51203  1  0  0  0  0
 51204  1  0  0  0  0
 52 53  1  0  0  0  0
 52205  1  0  0  0  0
 53 54  2  0  0  0  0
 55 53  1  0  0  0  0
 55 56  1  0  0  0  0
 55 57  1  0  0  0  0
 55206  1  1  0  0  0
 56207  1  0  0  0  0
 56208  1  0  0  0  0
 57 58  1  0  0  0  0
 57209  1  0  0  0  0
 57210  1  0  0  0  0
 58 59  2  0  0  0  0
 58 64  1  0  0  0  0
 59 60  1  0  0  0  0
 59211  1  0  0  0  0
 60 61  2  0  0  0  0
 60212  1  0  0  0  0
 61 62  1  0  0  0  0
 61 63  1  0  0  0  0
 62213  1  0  0  0  0
 63 64  2  0  0  0  0
 63214  1  0  0  0  0
 64215  1  0  0  0  0
 65 66  1  0  0  0  0
 65 67  1  0  0  0  0
 65216  1  1  0  0  0
 66217  1  0  0  0  0
 66218  1  0  0  0  0
 66219  1  0  0  0  0
 67 68  1  0  0  0  0
 67220  1  0  0  0  0
 67221  1  0  0  0  0
 68222  1  0  0  0  0
 68223  1  0  0  0  0
 68224  1  0  0  0  0
 69 70  2  0  0  0  0
 69 71  1  0  0  0  0
 71225  1  0  0  0  0
 72 71  1  0  0  0  0
 72 73  1  0  0  0  0
 72 80  1  0  0  0  0
 72226  1  1  0  0  0
 73 74  1  0  0  0  0
 73227  1  0  0  0  0
 73228  1  0  0  0  0
 74 75  1  0  0  0  0
 74229  1  0  0  0  0
 74230  1  0  0  0  0
 75 76  1  0  0  0  0
 75231  1  0  0  0  0
 75232  1  0  0  0  0
 76 77  1  0  0  0  0
 76233  1  0  0  0  0
 77 78  1  0  0  0  0
 77 79  2  0  0  0  0
 78234  1  0  0  0  0
 78235  1  0  0  0  0
 79236  1  0  0  0  0
 80 81  2  0  0  0  0
 80 82  1  0  0  0  0
 82 83  1  0  0  0  0
 83 84  1  0  0  0  0
 83237  1  0  0  0  0
 83238  1  0  0  0  0
 84 85  1  0  0  0  0
 84239  1  0  0  0  0
 84240  1  0  0  0  0
 85241  1  0  0  0  0
 85242  1  0  0  0  0
 86 85  1  0  0  0  0
 86 82  1  0  0  0  0
 86 87  1  0  0  0  0
 86243  1  1  0  0  0
 87 88  2  0  0  0  0
 87 89  1  0  0  0  0
 89244  1  0  0  0  0
 90 89  1  0  0  0  0
 90 91  1  0  0  0  0
 90 96  1  0  0  0  0
 90245  1  6  0  0  0
 91 92  1  0  0  0  0
 91246  1  0  0  0  0
 91247  1  0  0  0  0
 92 93  1  0  0  0  0
 92248  1  0  0  0  0
 92249  1  0  0  0  0
 93 94  1  0  0  0  0
 93250  1  0  0  0  0
 93251  1  0  0  0  0
 94 95  1  0  0  0  0
 94252  1  0  0  0  0
 94253  1  0  0  0  0
 95254  1  0  0  0  0
 95255  1  0  0  0  0
 96 97  2  0  0  0  0
 96 98  1  0  0  0  0
 98256  1  0  0  0  0
 99 98  1  0  0  0  0
 99100  1  0  0  0  0
 99104  1  0  0  0  0
 99257  1  1  0  0  0
100101  1  0  0  0  0
100258  1  0  0  0  0
100259  1  0  0  0  0
101102  1  0  0  0  0
101103  1  0  0  0  0
101260  1  0  0  0  0
102261  1  0  0  0  0
102262  1  0  0  0  0
102263  1  0  0  0  0
103264  1  0  0  0  0
103265  1  0  0  0  0
103266  1  0  0  0  0
104105  2  0  0  0  0
104106  1  0  0  0  0
106267  1  0  0  0  0
107106  1  0  0  0  0
107108  1  0  0  0  0
107113  1  0  0  0  0
107268  1  6  0  0  0
108109  1  0  0  0  0
108269  1  0  0  0  0
108270  1  0  0  0  0
109110  1  0  0  0  0
109271  1  0  0  0  0
109272  1  0  0  0  0
110111  1  0  0  0  0
110273  1  0  0  0  0
110274  1  0  0  0  0
111112  1  0  0  0  0
111275  1  0  0  0  0
111276  1  0  0  0  0
112277  1  0  0  0  0
112278  1  0  0  0  0
113114  2  0  0  0  0
113115  1  0  0  0  0
115279  1  0  0  0  0
116115  1  0  0  0  0
116117  1  0  0  0  0
116127  1  0  0  0  0
116280  1  6  0  0  0
117118  1  0  0  0  0
117281  1  0  0  0  0
117282  1  0  0  0  0
118119  2  0  0  0  0
118126  1  0  0  0  0
119120  1  0  0  0  0
119283  1  0  0  0  0
120121  1  0  0  0  0
120284  1  0  0  0  0
121122  2  0  0  0  0
121126  1  0  0  0  0
122123  1  0  0  0  0
122285  1  0  0  0  0
123124  2  0  0  0  0
123286  1  0  0  0  0
124125  1  0  0  0  0
124287  1  0  0  0  0
125126  2  0  0  0  0
125288  1  0  0  0  0
127128  2  0  0  0  0
127129  1  0  0  0  0
129289  1  0  0  0  0
130129  1  0  0  0  0
130131  1  0  0  0  0
130135  1  0  0  0  0
130290  1  6  0  0  0
131132  1  0  0  0  0
131291  1  0  0  0  0
131292  1  0  0  0  0
132133  1  0  0  0  0
132134  2  0  0  0  0
133293  1  0  0  0  0
135136  2  0  0  0  0
135137  1  0  0  0  0
137294  1  0  0  0  0
138137  1  0  0  0  0
138139  1  0  0  0  0
138143  1  0  0  0  0
138295  1  1  0  0  0
139140  1  0  0  0  0
139296  1  0  0  0  0
139297  1  0  0  0  0
140141  1  0  0  0  0
140142  2  0  0  0  0
141298  1  0  0  0  0
141299  1  0  0  0  0
143144  2  0  0  0  0
143145  1  0  0  0  0
145300  1  0  0  0  0
146145  1  0  0  0  0
146147  1  0  0  0  0
146152  1  0  0  0  0
146301  1  1  0  0  0
147148  1  0  0  0  0
147302  1  0  0  0  0
147303  1  0  0  0  0
148149  1  0  0  0  0
148304  1  0  0  0  0
148305  1  0  0  0  0
149150  1  0  0  0  0
149151  2  0  0  0  0
150306  1  0  0  0  0
150307  1  0  0  0  0
152153  1  0  0  0  0
152154  2  0  0  0  0
153308  1  0  0  0  0
M  END
>  <DRUGBANK_ID>
DB16146

>  <COMMON_NAME>
Dynorphin

>  <CAS_NUMBER>
80448-90-4

>  <UNII>
9M18T0TD14

>  <SYNONYMS>
Dynorphin; Dynorphin a; Dynorphin a (1-17); Dynorphin a (bos taurus); Dynorphin a (human); Dynorphin a (pig); Dynorphin a (porcine); Dynorphin a (rat); Dynorphin a (swine); Dynorphin a 1-17; Dynorphins; Porcine dynorphin a (1-17)

$$$$
