GCA
 OpenBabel10282417072D

 50 51  0  0  0  0  0  0  0  0999 V2000
   -0.6898   -0.4723    0.0000 C   0  0  0  0  0  0  0  0  0  0  0  0
    0.0247   -0.8848    0.0000 C   0  0  0  0  0  0  0  0  0  0  0  0
    0.0247   -1.7098    0.0000 C   0  0  0  0  0  0  0  0  0  0  0  0
   -0.6898   -2.1223    0.0000 C   0  0  0  0  0  0  0  0  0  0  0  0
   -1.4043   -1.7098    0.0000 C   0  0  0  0  0  0  0  0  0  0  0  0
   -1.4043   -0.8848    0.0000 C   0  0  0  0  0  0  0  0  0  0  0  0
    0.7391   -2.1223    0.0000 C   0  0  0  0  0  0  0  0  0  0  0  0
   -2.1188   -2.1223    0.0000 C   0  0  0  0  0  0  0  0  0  0  0  0
   -0.6898    0.3527    0.0000 C   0  0  0  0  0  0  0  0  0  0  0  0
    0.0247    0.7652    0.0000 C   0  0  0  0  0  0  0  0  0  0  0  0
    0.0247    1.5902    0.0000 C   0  0  0  0  0  0  0  0  0  0  0  0
   -0.6898    2.0027    0.0000 C   0  0  0  0  0  0  0  0  0  0  0  0
   -0.6898    2.8277    0.0000 C   0  0  0  0  0  0  0  0  0  0  0  0
   -1.4043    1.5902    0.0000 C   0  0  0  0  0  0  0  0  0  0  0  0
    0.7391    2.0027    0.0000 C   0  0  0  0  0  0  0  0  0  0  0  0
    0.7391    2.8277    0.0000 O   0  0  0  0  0  0  0  0  0  0  0  0
    0.7391    0.3527    0.0000 N   0  0  0  0  0  0  0  0  0  0  0  0
    1.4536    0.7652    0.0000 C   0  0  0  0  0  0  0  0  0  0  0  0
    2.1681    0.3527    0.0000 O   0  0  0  0  0  0  0  0  0  0  0  0
    1.4536    1.5902    0.0000 N   0  0  0  0  0  0  0  0  0  0  0  0
    0.7391   -0.4723    0.0000 C   0  0  0  0  0  0  0  0  0  0  0  0
    1.4536   -0.8848    0.0000 O   0  0  0  0  0  0  0  0  0  0  0  0
    2.1681   -0.4723    0.0000 C   0  0  0  0  0  0  0  0  0  0  0  0
    2.8825   -0.8848    0.0000 C   0  0  0  0  0  0  0  0  0  0  0  0
    0.9184   -0.3688    0.0000 H   0  0  0  0  0  0  0  0  0  0  0  0
   -0.6898   -3.1543    0.0000 H   0  0  0  0  0  0  0  0  0  0  0  0
   -2.2980   -0.3688    0.0000 H   0  0  0  0  0  0  0  0  0  0  0  0
    0.7391   -3.1923    0.0000 H   0  0  0  0  0  0  0  0  0  0  0  0
    1.6658   -1.5873    0.0000 H   0  0  0  0  0  0  0  0  0  0  0  0
    1.6657   -2.6573    0.0000 H   0  0  0  0  0  0  0  0  0  0  0  0
   -3.0454   -1.5873    0.0000 H   0  0  0  0  0  0  0  0  0  0  0  0
   -2.1188   -3.1923    0.0000 H   0  0  0  0  0  0  0  0  0  0  0  0
   -3.0455   -2.6573    0.0000 H   0  0  0  0  0  0  0  0  0  0  0  0
   -1.6164    0.8877    0.0000 H   0  0  0  0  0  0  0  0  0  0  0  0
   -0.6898    1.4227    0.0000 H   0  0  0  0  0  0  0  0  0  0  0  0
   -1.6164    2.5377    0.0000 H   0  0  0  0  0  0  0  0  0  0  0  0
    0.2368    3.3627    0.0000 H   0  0  0  0  0  0  0  0  0  0  0  0
   -1.6164    3.3627    0.0000 H   0  0  0  0  0  0  0  0  0  0  0  0
   -0.6898    3.8977    0.0000 H   0  0  0  0  0  0  0  0  0  0  0  0
   -2.3309    2.1252    0.0000 H   0  0  0  0  0  0  0  0  0  0  0  0
   -1.4043    0.5202    0.0000 H   0  0  0  0  0  0  0  0  0  0  0  0
   -2.3310    1.0552    0.0000 H   0  0  0  0  0  0  0  0  0  0  0  0
    2.3062    2.0825    0.0000 H   0  0  0  0  0  0  0  0  0  0  0  0
   -0.1875   -1.0073    0.0000 H   0  0  0  0  0  0  0  0  0  0  0  0
    0.7391   -1.5423    0.0000 H   0  0  0  0  0  0  0  0  0  0  0  0
    2.1681    0.5977    0.0000 H   0  0  0  0  0  0  0  0  0  0  0  0
    3.0948    0.0627    0.0000 H   0  0  0  0  0  0  0  0  0  0  0  0
    2.8825   -1.9548    0.0000 H   0  0  0  0  0  0  0  0  0  0  0  0
    3.8092   -0.3498    0.0000 H   0  0  0  0  0  0  0  0  0  0  0  0
    3.8091   -1.4198    0.0000 H   0  0  0  0  0  0  0  0  0  0  0  0
  1  2  2  0  0  0  0
  1  6  1  0  0  0  0
  1  9  1  0  0  0  0
  2  3  1  0  0  0  0
  2 25  1  0  0  0  0
  3  4  2  0  0  0  0
  3  7  1  0  0  0  0
  4  5  1  0  0  0  0
  4 26  1  0  0  0  0
  5  6  2  0  0  0  0
  5  8  1  0  0  0  0
  6 27  1  0  0  0  0
  7 28  1  0  0  0  0
  7 29  1  0  0  0  0
  7 30  1  0  0  0  0
  8 31  1  0  0  0  0
  8 32  1  0  0  0  0
  8 33  1  0  0  0  0
  9 10  1  0  0  0  0
  9 34  1  0  0  0  0
  9 35  1  0  0  0  0
 10 11  2  0  0  0  0
 10 17  1  0  0  0  0
 11 12  1  0  0  0  0
 11 15  1  0  0  0  0
 12 13  1  0  0  0  0
 12 14  1  0  0  0  0
 12 36  1  0  0  0  0
 13 37  1  0  0  0  0
 13 38  1  0  0  0  0
 13 39  1  0  0  0  0
 14 40  1  0  0  0  0
 14 41  1  0  0  0  0
 14 42  1  0  0  0  0
 15 16  2  0  0  0  0
 15 20  1  0  0  0  0
 17 18  1  0  0  0  0
 17 21  1  0  0  0  0
 18 19  2  0  0  0  0
 18 20  1  0  0  0  0
 20 43  1  0  0  0  0
 21 22  1  0  0  0  0
 21 44  1  0  0  0  0
 21 45  1  0  0  0  0
 22 23  1  0  0  0  0
 23 24  1  0  0  0  0
 23 46  1  0  0  0  0
 23 47  1  0  0  0  0
 24 48  1  0  0  0  0
 24 49  1  0  0  0  0
 24 50  1  0  0  0  0
M  END
>  <DRUGBANK_ID>
DB07820

>  <COMMON_NAME>
6-(3',5'-DIMETHYLBENZYL)-1-ETHOXYMETHYL-5-ISOPROPYLURACIL

$$$$
