538
 OpenBabel10282417072D

 70 68  0  0  1  0  0  0  0  0999 V2000
    3.3009    2.4751    0.0000 Gd  0  1  0  0  0  0  0  0  0  0  0  0
    4.0154    2.0625    0.0000 O   0  5  0  0  0  0  0  0  0  0  0  0
    4.7299    3.3001    0.0000 O   0  0  0  0  0  0  0  0  0  0  0  0
    9.7313    1.2375    0.0000 O   0  0  0  0  0  0  0  0  0  0  0  0
    4.0154    3.7126    0.0000 O   0  0  0  0  0  0  0  0  0  0  0  0
    7.5879    0.0000    0.0000 O   0  5  0  0  0  0  0  0  0  0  0  0
    6.8734    6.1876    0.0000 O   0  5  0  0  0  0  0  0  0  0  0  0
    6.8734    1.2375    0.0000 O   0  0  0  0  0  0  0  0  0  0  0  0
    5.4444    6.1876    0.0000 O   0  0  0  0  0  0  0  0  0  0  0  0
   12.5893    2.0625    0.0000 O   0  0  0  0  0  0  0  0  0  0  0  0
    1.1575    4.5376    0.0000 O   0  0  0  0  0  0  0  0  0  0  0  0
    6.1588    2.4751    0.0000 N   0  0  0  0  0  0  0  0  0  0  0  0
    8.3023    2.0625    0.0000 N   0  0  0  0  0  0  0  0  0  0  0  0
    5.4444    4.5376    0.0000 N   0  0  0  0  0  0  0  0  0  0  0  0
   10.4458    2.4751    0.0000 N   0  0  0  0  0  0  0  0  0  0  0  0
    3.3009    4.9501    0.0000 N   0  0  0  0  0  0  0  0  0  0  0  0
    6.8734    2.0625    0.0000 C   0  0  0  0  0  0  0  0  0  0  0  0
    6.1588    3.3001    0.0000 C   0  0  0  0  0  0  0  0  0  0  0  0
    7.5879    2.4751    0.0000 C   0  0  0  0  0  0  0  0  0  0  0  0
    5.4444    3.7126    0.0000 C   0  0  0  0  0  0  0  0  0  0  0  0
    5.4444    2.0625    0.0000 C   0  0  0  0  0  0  0  0  0  0  0  0
    9.0168    2.4751    0.0000 C   0  0  0  0  0  0  0  0  0  0  0  0
    4.7299    4.9501    0.0000 C   0  0  0  0  0  0  0  0  0  0  0  0
    8.3023    1.2375    0.0000 C   0  0  0  0  0  0  0  0  0  0  0  0
    6.1588    4.9501    0.0000 C   0  0  0  0  0  0  0  0  0  0  0  0
    4.7299    2.4751    0.0000 C   0  0  0  0  0  0  0  0  0  0  0  0
    9.7313    2.0625    0.0000 C   0  0  0  0  0  0  0  0  0  0  0  0
    4.0154    4.5376    0.0000 C   0  0  0  0  0  0  0  0  0  0  0  0
    7.5879    0.8250    0.0000 C   0  0  0  0  0  0  0  0  0  0  0  0
    6.1588    5.7751    0.0000 C   0  0  0  0  0  0  0  0  0  0  0  0
   11.1603    2.0625    0.0000 C   0  0  0  0  0  0  0  0  0  0  0  0
    2.5864    4.5376    0.0000 C   0  0  0  0  0  0  0  0  0  0  0  0
   11.8747    2.4751    0.0000 C   0  0  0  0  0  0  0  0  0  0  0  0
    1.8720    4.9501    0.0000 C   0  0  0  0  0  0  0  0  0  0  0  0
   13.3037    2.4751    0.0000 C   0  0  0  0  0  0  0  0  0  0  0  0
    0.4430    4.9501    0.0000 C   0  0  0  0  0  0  0  0  0  0  0  0
   10.4458    3.4596    0.0000 H   0  0  0  0  0  0  0  0  0  0  0  0
    3.3009    5.9346    0.0000 H   0  0  0  0  0  0  0  0  0  0  0  0
    6.8734    0.9925    0.0000 H   0  0  0  0  0  0  0  0  0  0  0  0
    7.8001    1.5276    0.0000 H   0  0  0  0  0  0  0  0  0  0  0  0
    7.0855    3.8351    0.0000 H   0  0  0  0  0  0  0  0  0  0  0  0
    6.1588    4.3701    0.0000 H   0  0  0  0  0  0  0  0  0  0  0  0
    7.5879    3.5451    0.0000 H   0  0  0  0  0  0  0  0  0  0  0  0
    6.6612    3.0101    0.0000 H   0  0  0  0  0  0  0  0  0  0  0  0
    4.5177    3.1776    0.0000 H   0  0  0  0  0  0  0  0  0  0  0  0
    5.4444    2.6426    0.0000 H   0  0  0  0  0  0  0  0  0  0  0  0
    5.4444    0.9925    0.0000 H   0  0  0  0  0  0  0  0  0  0  0  0
    4.5177    1.5275    0.0000 H   0  0  0  0  0  0  0  0  0  0  0  0
    9.0168    3.5451    0.0000 H   0  0  0  0  0  0  0  0  0  0  0  0
    9.9435    3.0101    0.0000 H   0  0  0  0  0  0  0  0  0  0  0  0
    4.7299    6.0201    0.0000 H   0  0  0  0  0  0  0  0  0  0  0  0
    3.8033    5.4851    0.0000 H   0  0  0  0  0  0  0  0  0  0  0  0
    9.2290    0.7025    0.0000 H   0  0  0  0  0  0  0  0  0  0  0  0
    8.3023    0.1675    0.0000 H   0  0  0  0  0  0  0  0  0  0  0  0
    7.0855    4.4151    0.0000 H   0  0  0  0  0  0  0  0  0  0  0  0
    7.0854    5.4851    0.0000 H   0  0  0  0  0  0  0  0  0  0  0  0
   11.1603    0.9925    0.0000 H   0  0  0  0  0  0  0  0  0  0  0  0
   12.0870    1.5276    0.0000 H   0  0  0  0  0  0  0  0  0  0  0  0
    2.5864    3.4676    0.0000 H   0  0  0  0  0  0  0  0  0  0  0  0
    1.6597    4.0026    0.0000 H   0  0  0  0  0  0  0  0  0  0  0  0
   11.8746    3.5451    0.0000 H   0  0  0  0  0  0  0  0  0  0  0  0
   10.9480    3.0100    0.0000 H   0  0  0  0  0  0  0  0  0  0  0  0
    1.8720    6.0201    0.0000 H   0  0  0  0  0  0  0  0  0  0  0  0
    2.7987    5.4851    0.0000 H   0  0  0  0  0  0  0  0  0  0  0  0
   14.2304    1.9402    0.0000 H   0  0  0  0  0  0  0  0  0  0  0  0
   13.3035    3.5451    0.0000 H   0  0  0  0  0  0  0  0  0  0  0  0
   14.2303    3.0102    0.0000 H   0  0  0  0  0  0  0  0  0  0  0  0
    0.4430    6.0201    0.0000 H   0  0  0  0  0  0  0  0  0  0  0  0
   -0.4836    4.4151    0.0000 H   0  0  0  0  0  0  0  0  0  0  0  0
   -0.4837    5.4851    0.0000 H   0  0  0  0  0  0  0  0  0  0  0  0
  2 26  1  0  0  0  0
  3 26  2  0  0  0  0
  4 27  2  0  0  0  0
  5 28  2  0  0  0  0
  6 29  1  0  0  0  0
  7 30  1  0  0  0  0
  8 29  2  0  0  0  0
  9 30  2  0  0  0  0
 10 33  1  0  0  0  0
 10 35  1  0  0  0  0
 11 34  1  0  0  0  0
 11 36  1  0  0  0  0
 12 17  1  0  0  0  0
 12 18  1  0  0  0  0
 12 21  1  0  0  0  0
 13 19  1  0  0  0  0
 13 22  1  0  0  0  0
 13 24  1  0  0  0  0
 14 20  1  0  0  0  0
 14 23  1  0  0  0  0
 14 25  1  0  0  0  0
 15 27  1  0  0  0  0
 15 31  1  0  0  0  0
 15 37  1  0  0  0  0
 16 28  1  0  0  0  0
 16 32  1  0  0  0  0
 16 38  1  0  0  0  0
 17 19  1  0  0  0  0
 17 39  1  0  0  0  0
 17 40  1  0  0  0  0
 18 20  1  0  0  0  0
 18 41  1  0  0  0  0
 18 42  1  0  0  0  0
 19 43  1  0  0  0  0
 19 44  1  0  0  0  0
 20 45  1  0  0  0  0
 20 46  1  0  0  0  0
 21 26  1  0  0  0  0
 21 47  1  0  0  0  0
 21 48  1  0  0  0  0
 22 27  1  0  0  0  0
 22 49  1  0  0  0  0
 22 50  1  0  0  0  0
 23 28  1  0  0  0  0
 23 51  1  0  0  0  0
 23 52  1  0  0  0  0
 24 29  1  0  0  0  0
 24 53  1  0  0  0  0
 24 54  1  0  0  0  0
 25 30  1  0  0  0  0
 25 55  1  0  0  0  0
 25 56  1  0  0  0  0
 31 33  1  0  0  0  0
 31 57  1  0  0  0  0
 31 58  1  0  0  0  0
 32 34  1  0  0  0  0
 32 59  1  0  0  0  0
 32 60  1  0  0  0  0
 33 61  1  0  0  0  0
 33 62  1  0  0  0  0
 34 63  1  0  0  0  0
 34 64  1  0  0  0  0
 35 65  1  0  0  0  0
 35 66  1  0  0  0  0
 35 67  1  0  0  0  0
 36 68  1  0  0  0  0
 36 69  1  0  0  0  0
 36 70  1  0  0  0  0
M  CHG  4   1   3   2  -1   6  -1   7  -1
M  END
>  <DRUGBANK_ID>
DB00538

>  <SECONDARY_ACCESSION_NUMBERS>
APRD00993

>  <COMMON_NAME>
Gadoversetamide

>  <CAS_NUMBER>
131069-91-5

>  <UNII>
RLM74T3Z9D

>  <SYNONYMS>
Gadoversetamid; Gadoversetamida; Gadoversetamide; Gadoversetamidum

$$$$
