
 OpenBabel10282417072D

 24 23  0  0  0  0  0  0  0  0999 V2000
    2.5006   -0.2062    0.0000 O   0  0  0  0  0  0  0  0  0  0  0  0
    0.3572    0.2062    0.0000 C   0  0  0  0  0  0  0  0  0  0  0  0
   -0.3572   -0.2063    0.0000 C   0  0  0  0  0  0  0  0  0  0  0  0
   -1.0717    0.2062    0.0000 C   0  0  0  0  0  0  0  0  0  0  0  0
   -1.7862   -0.2063    0.0000 C   0  0  0  0  0  0  0  0  0  0  0  0
   -2.5006    0.2062    0.0000 N   0  0  0  0  0  0  0  0  0  0  0  0
    1.7862    0.2063    0.0000 C   0  0  0  0  0  0  0  0  0  0  0  0
    1.7862    1.0313    0.0000 O   0  0  0  0  0  0  0  0  0  0  0  0
    1.0717   -0.2063    0.0000 C   0  0  2  0  0  0  0  0  0  0  0  0
    1.0717   -1.0313    0.0000 N   0  0  0  0  0  0  0  0  0  0  0  0
    2.5006   -1.1432    0.0000 H   0  0  0  0  0  0  0  0  0  0  0  0
    0.3572    1.2762    0.0000 H   0  0  0  0  0  0  0  0  0  0  0  0
   -0.5695    0.7412    0.0000 H   0  0  0  0  0  0  0  0  0  0  0  0
   -0.3572   -1.2763    0.0000 H   0  0  0  0  0  0  0  0  0  0  0  0
   -1.2838   -0.7413    0.0000 H   0  0  0  0  0  0  0  0  0  0  0  0
   -1.0717    1.2762    0.0000 H   0  0  0  0  0  0  0  0  0  0  0  0
   -1.9983    0.7412    0.0000 H   0  0  0  0  0  0  0  0  0  0  0  0
   -1.7862   -1.2763    0.0000 H   0  0  0  0  0  0  0  0  0  0  0  0
   -2.7129   -0.7413    0.0000 H   0  0  0  0  0  0  0  0  0  0  0  0
   -2.5006    1.2262    0.0000 H   0  0  0  0  0  0  0  0  0  0  0  0
   -3.3840   -0.3038    0.0000 H   0  0  0  0  0  0  0  0  0  0  0  0
    1.9984   -0.7413    0.0000 H   0  0  0  0  0  0  0  0  0  0  0  0
    0.1884   -1.5413    0.0000 H   0  0  0  0  0  0  0  0  0  0  0  0
    1.9550   -1.5413    0.0000 H   0  0  0  0  0  0  0  0  0  0  0  0
  1  7  1  0  0  0  0
  1 11  1  0  0  0  0
  2  9  1  0  0  0  0
  2 12  1  0  0  0  0
  2 13  1  0  0  0  0
  3  2  1  0  0  0  0
  3 14  1  0  0  0  0
  3 15  1  0  0  0  0
  4  3  1  0  0  0  0
  4 16  1  0  0  0  0
  4 17  1  0  0  0  0
  5  4  1  0  0  0  0
  5 18  1  0  0  0  0
  5 19  1  0  0  0  0
  6  5  1  0  0  0  0
  6 20  1  0  0  0  0
  6 21  1  0  0  0  0
  7  8  2  0  0  0  0
  9  7  1  0  0  0  0
  9 10  1  0  0  0  0
  9 22  1  1  0  0  0
 10 23  1  0  0  0  0
 10 24  1  0  0  0  0
M  END
>  <DRUGBANK_ID>
DB03252

>  <SECONDARY_ACCESSION_NUMBERS>
EXPT01219

>  <COMMON_NAME>
D-Lysine

>  <CAS_NUMBER>
923-27-3

>  <UNII>
3HQ6U6424Q

>  <SYNONYMS>
(R)-2,6-diaminohexanoic acid; D-2,6-Diaminohexanoic acid; D-Lysin

$$$$
