
 OpenBabel10282417072D

 61 65  0  0  0  0  0  0  0  0999 V2000
    0.8975   -0.6834    0.0000 C   0  0  2  0  0  0  0  0  0  0  0  0
    0.1831   -1.0959    0.0000 C   0  0  1  0  0  0  0  0  0  0  0  0
    0.8975    0.1415    0.0000 C   0  0  1  0  0  0  0  0  0  0  0  0
    1.6822   -0.9383    0.0000 C   0  0  0  0  0  0  0  0  0  0  0  0
    0.9838   -1.5039    0.0000 O   0  0  0  0  0  0  0  0  0  0  0  0
   -0.5313   -0.6834    0.0000 C   0  0  1  0  0  0  0  0  0  0  0  0
    0.1831   -1.9209    0.0000 C   0  0  0  0  0  0  0  0  0  0  0  0
    1.6822    0.3965    0.0000 C   0  0  2  0  0  0  0  0  0  0  0  0
    0.1831    0.5540    0.0000 C   0  0  0  0  0  0  0  0  0  0  0  0
    0.9838    0.9620    0.0000 C   0  0  0  0  0  0  0  0  0  0  0  0
    2.1671   -0.2709    0.0000 C   0  0  0  0  0  0  0  0  0  0  0  0
   -1.2458   -1.0959    0.0000 C   0  0  2  0  0  0  0  0  0  0  0  0
   -0.5313    0.1415    0.0000 C   0  0  0  0  0  0  0  0  0  0  0  0
   -0.5313   -2.3334    0.0000 C   0  0  0  0  0  0  0  0  0  0  0  0
    1.9371    1.1811    0.0000 C   0  0  0  0  0  0  0  0  0  0  0  0
   -1.2458   -1.9209    0.0000 C   0  0  2  0  0  0  0  0  0  0  0  0
   -1.9602   -0.6834    0.0000 C   0  0  0  0  0  0  0  0  0  0  0  0
   -1.2458   -0.2709    0.0000 C   0  0  0  0  0  0  0  0  0  0  0  0
    1.4522    1.8485    0.0000 C   0  0  0  0  0  0  0  0  0  0  0  0
    2.7217    1.4360    0.0000 C   0  0  0  0  0  0  0  0  0  0  0  0
   -1.9602   -2.3334    0.0000 C   0  0  0  0  0  0  0  0  0  0  0  0
   -2.6747   -1.0959    0.0000 C   0  0  0  0  0  0  0  0  0  0  0  0
    1.9371    2.5160    0.0000 O   0  0  0  0  0  0  0  0  0  0  0  0
    2.7217    2.2610    0.0000 C   0  0  0  0  0  0  0  0  0  0  0  0
   -2.6747   -1.9209    0.0000 C   0  0  2  0  0  0  0  0  0  0  0  0
    3.3892    2.7459    0.0000 O   0  0  0  0  0  0  0  0  0  0  0  0
   -3.3892   -2.3334    0.0000 O   0  0  0  0  0  0  0  0  0  0  0  0
   -1.2458   -2.7459    0.0000 H   0  0  0  0  0  0  0  0  0  0  0  0
    0.1831   -0.2709    0.0000 H   0  0  0  0  0  0  0  0  0  0  0  0
   -0.5313   -1.5084    0.0000 H   0  0  0  0  0  0  0  0  0  0  0  0
    2.0129   -1.9559    0.0000 H   0  0  0  0  0  0  0  0  0  0  0  0
    2.7390   -1.1057    0.0000 H   0  0  0  0  0  0  0  0  0  0  0  0
    0.1991   -2.0741    0.0000 H   0  0  0  0  0  0  0  0  0  0  0  0
    1.1098   -2.4559    0.0000 H   0  0  0  0  0  0  0  0  0  0  0  0
    0.1831   -2.9909    0.0000 H   0  0  0  0  0  0  0  0  0  0  0  0
    0.9256    1.1531    0.0000 H   0  0  0  0  0  0  0  0  0  0  0  0
    0.1831    1.6240    0.0000 H   0  0  0  0  0  0  0  0  0  0  0  0
   -0.7436    1.0890    0.0000 H   0  0  0  0  0  0  0  0  0  0  0  0
    1.9613    1.3971    0.0000 H   0  0  0  0  0  0  0  0  0  0  0  0
    0.1182    1.5910    0.0000 H   0  0  0  0  0  0  0  0  0  0  0  0
    1.0957    2.0261    0.0000 H   0  0  0  0  0  0  0  0  0  0  0  0
    3.2371   -0.2709    0.0000 H   0  0  0  0  0  0  0  0  0  0  0  0
    2.6529    0.6825    0.0000 H   0  0  0  0  0  0  0  0  0  0  0  0
   -1.4580    0.6765    0.0000 H   0  0  0  0  0  0  0  0  0  0  0  0
   -0.5313    1.2115    0.0000 H   0  0  0  0  0  0  0  0  0  0  0  0
   -0.5313   -3.4034    0.0000 H   0  0  0  0  0  0  0  0  0  0  0  0
   -1.4579   -2.8684    0.0000 H   0  0  0  0  0  0  0  0  0  0  0  0
   -1.9602    0.3866    0.0000 H   0  0  0  0  0  0  0  0  0  0  0  0
   -2.8868   -0.1484    0.0000 H   0  0  0  0  0  0  0  0  0  0  0  0
   -0.3192    0.2641    0.0000 H   0  0  0  0  0  0  0  0  0  0  0  0
   -2.1724    0.2641    0.0000 H   0  0  0  0  0  0  0  0  0  0  0  0
   -1.2458    0.7991    0.0000 H   0  0  0  0  0  0  0  0  0  0  0  0
    0.3822    1.8485    0.0000 H   0  0  0  0  0  0  0  0  0  0  0  0
    0.9664    2.8019    0.0000 H   0  0  0  0  0  0  0  0  0  0  0  0
    3.5566    0.8294    0.0000 H   0  0  0  0  0  0  0  0  0  0  0  0
   -1.9602   -3.4034    0.0000 H   0  0  0  0  0  0  0  0  0  0  0  0
   -2.8868   -2.8684    0.0000 H   0  0  0  0  0  0  0  0  0  0  0  0
   -3.6013   -0.5609    0.0000 H   0  0  0  0  0  0  0  0  0  0  0  0
   -3.6013   -1.6309    0.0000 H   0  0  0  0  0  0  0  0  0  0  0  0
   -2.6747   -2.9909    0.0000 H   0  0  0  0  0  0  0  0  0  0  0  0
   -4.2292   -1.8484    0.0000 H   0  0  0  0  0  0  0  0  0  0  0  0
  1  2  1  0  0  0  0
  1  3  1  0  0  0  0
  1  4  1  0  0  0  0
  1  5  1  1  0  0  0
  2  6  1  0  0  0  0
  2  7  1  0  0  0  0
  2 29  1  1  0  0  0
  3  8  1  0  0  0  0
  3  9  1  0  0  0  0
  3 10  1  1  0  0  0
  4 11  1  0  0  0  0
  4 31  1  0  0  0  0
  4 32  1  0  0  0  0
  5 33  1  0  0  0  0
  6 12  1  0  0  0  0
  6 13  1  0  0  0  0
  6 30  1  6  0  0  0
  7 14  1  0  0  0  0
  7 34  1  0  0  0  0
  7 35  1  0  0  0  0
  8 15  1  0  0  0  0
  8 11  1  0  0  0  0
  8 36  1  6  0  0  0
  9 13  1  0  0  0  0
  9 37  1  0  0  0  0
  9 38  1  0  0  0  0
 10 39  1  0  0  0  0
 10 40  1  0  0  0  0
 10 41  1  0  0  0  0
 11 42  1  0  0  0  0
 11 43  1  0  0  0  0
 12 16  1  0  0  0  0
 12 17  1  0  0  0  0
 12 18  1  1  0  0  0
 13 44  1  0  0  0  0
 13 45  1  0  0  0  0
 14 16  1  0  0  0  0
 14 46  1  0  0  0  0
 14 47  1  0  0  0  0
 15 19  1  0  0  0  0
 15 20  2  0  0  0  0
 16 21  1  0  0  0  0
 16 28  1  1  0  0  0
 17 22  1  0  0  0  0
 17 48  1  0  0  0  0
 17 49  1  0  0  0  0
 18 50  1  0  0  0  0
 18 51  1  0  0  0  0
 18 52  1  0  0  0  0
 19 23  1  0  0  0  0
 19 53  1  0  0  0  0
 19 54  1  0  0  0  0
 20 24  1  0  0  0  0
 20 55  1  0  0  0  0
 21 25  1  0  0  0  0
 21 56  1  0  0  0  0
 21 57  1  0  0  0  0
 22 25  1  0  0  0  0
 22 58  1  0  0  0  0
 22 59  1  0  0  0  0
 23 24  1  0  0  0  0
 24 26  2  0  0  0  0
 25 27  1  0  0  0  0
 25 60  1  6  0  0  0
 27 61  1  0  0  0  0
M  END
>  <DRUGBANK_ID>
DB04177

>  <SECONDARY_ACCESSION_NUMBERS>
EXPT01294

>  <COMMON_NAME>
Digitoxigenin

>  <CAS_NUMBER>
143-62-4

>  <UNII>
S63WOD4VOL

>  <SYNONYMS>
Cerberigenin; Echujetin; Evonogenin; Thevetigenin

$$$$
