
 OpenBabel10282417072D

 33 35  0  0  1  0  0  0  0  0999 V2000
    5.0171   -1.8127    0.0000 S   0  0  0  0  0  0  0  0  0  0  0  0
    6.0585    0.5529    0.0000 O   0  0  0  0  0  0  0  0  0  0  0  0
    3.9646    0.9691    0.0000 O   0  0  0  0  0  0  0  0  0  0  0  0
    5.0221    2.4193    0.0000 O   0  0  0  0  0  0  0  0  0  0  0  0
    7.4813    1.5248    0.0000 O   0  0  0  0  0  0  0  0  0  0  0  0
    6.3236   -1.1488    0.0000 O   0  0  0  0  0  0  0  0  0  0  0  0
    3.5220   -2.7989    0.0000 O   0  0  0  0  0  0  0  0  0  0  0  0
    5.0171   -0.4849    0.0000 N   0  0  0  0  0  0  0  0  0  0  0  0
    3.5220   -0.3238    0.0000 N   0  0  0  0  0  0  0  0  0  0  0  0
    2.8075   -1.5613    0.0000 N   0  0  0  0  0  0  0  0  0  0  0  0
    2.0930   -0.3238    0.0000 N   0  0  0  0  0  0  0  0  0  0  0  0
    5.2734    0.2993    0.0000 C   0  0  1  0  0  0  0  0  0  0  0  0
    4.7896    0.9676    0.0000 C   0  0  1  0  0  0  0  0  0  0  0  0
    5.2757    1.6342    0.0000 C   0  0  1  0  0  0  0  0  0  0  0  0
    6.0599    1.3779    0.0000 C   0  0  1  0  0  0  0  0  0  0  0  0
    6.7282    1.8617    0.0000 C   0  0  0  0  0  0  0  0  0  0  0  0
    4.2365   -0.7363    0.0000 C   0  0  0  0  0  0  0  0  0  0  0  0
    5.4986   -1.1488    0.0000 C   0  0  0  0  0  0  0  0  0  0  0  0
    4.2365   -1.5613    0.0000 C   0  0  0  0  0  0  0  0  0  0  0  0
    3.5220   -1.9739    0.0000 C   0  0  0  0  0  0  0  0  0  0  0  0
    2.8075   -0.7363    0.0000 C   0  0  0  0  0  0  0  0  0  0  0  0
    3.4811    1.8100    0.0000 H   0  0  0  0  0  0  0  0  0  0  0  0
    5.6724    3.1390    0.0000 H   0  0  0  0  0  0  0  0  0  0  0  0
    7.5810    0.5599    0.0000 H   0  0  0  0  0  0  0  0  0  0  0  0
    3.5220    0.6607    0.0000 H   0  0  0  0  0  0  0  0  0  0  0  0
    2.0930    0.6607    0.0000 H   0  0  0  0  0  0  0  0  0  0  0  0
    1.2404   -0.8161    0.0000 H   0  0  0  0  0  0  0  0  0  0  0  0
    6.0287   -0.4586    0.0000 H   0  0  0  0  0  0  0  0  0  0  0  0
    4.3021    0.0151    0.0000 H   0  0  0  0  0  0  0  0  0  0  0  0
    4.2192    1.8034    0.0000 H   0  0  0  0  0  0  0  0  0  0  0  0
    7.0124    0.8905    0.0000 H   0  0  0  0  0  0  0  0  0  0  0  0
    6.6182    2.9260    0.0000 H   0  0  0  0  0  0  0  0  0  0  0  0
    5.7515    2.2986    0.0000 H   0  0  0  0  0  0  0  0  0  0  0  0
  1 18  1  0  0  0  0
  1 19  1  0  0  0  0
  2 12  1  0  0  0  0
  2 15  1  0  0  0  0
  3 22  1  0  0  0  0
  4 23  1  0  0  0  0
  5 16  1  0  0  0  0
  5 24  1  0  0  0  0
  6 18  2  0  0  0  0
  7 20  2  0  0  0  0
  8 17  1  0  0  0  0
  8 18  1  0  0  0  0
  9 17  1  0  0  0  0
  9 21  1  0  0  0  0
  9 25  1  0  0  0  0
 10 20  1  0  0  0  0
 10 21  2  0  0  0  0
 11 21  1  0  0  0  0
 11 26  1  0  0  0  0
 11 27  1  0  0  0  0
 12  8  1  0  0  0  0
 12 13  1  0  0  0  0
 12 28  1  6  0  0  0
 13  3  1  0  0  0  0
 13 14  1  0  0  0  0
 13 29  1  1  0  0  0
 14  4  1  0  0  0  0
 14 15  1  0  0  0  0
 14 30  1  1  0  0  0
 15 16  1  0  0  0  0
 15 31  1  6  0  0  0
 16 32  1  0  0  0  0
 16 33  1  0  0  0  0
 17 19  2  0  0  0  0
 19 20  1  0  0  0  0
M  END
>  <DRUGBANK_ID>
DB04860

>  <COMMON_NAME>
Isatoribine

>  <CAS_NUMBER>
122970-40-5

>  <UNII>
2DNT962H92

>  <SYNONYMS>
7-Deaza-7-thia-8-oxoguanosine; 7-Thia-8-oxoguanosine; 7-TOG; Isatoribine

$$$$
