
 OpenBabel10282417072D

 85 84  0  0  0  0  0  0  0  0999 V2000
   -4.2190    1.9670    0.0000 C   0  0  0  0  0  0  0  0  0  0  0  0
    0.0851    2.1384    0.0000 C   0  0  0  0  0  0  0  0  0  0  0  0
   -2.4307    1.7363    0.0000 C   0  0  0  0  0  0  0  0  0  0  0  0
   -3.0908    1.0900    0.0000 C   0  0  0  0  0  0  0  0  0  0  0  0
   -3.1247    3.2980    0.0000 C   0  0  0  0  0  0  0  0  0  0  0  0
   -2.4418    3.7610    0.0000 C   0  0  0  0  0  0  0  0  0  0  0  0
   -3.5972    0.4386    0.0000 C   0  0  0  0  0  0  0  0  0  0  0  0
    1.7094    2.4288    0.0000 C   0  0  0  0  0  0  0  0  0  0  0  0
    0.8973    2.2836    0.0000 C   0  0  0  0  0  0  0  0  0  0  0  0
    1.4579    3.8355    0.0000 C   0  0  0  0  0  0  0  0  0  0  0  0
    0.1139    4.3210    0.0000 C   0  0  0  0  0  0  0  0  0  0  0  0
   -0.7269    1.9932    0.0000 C   0  0  0  0  0  0  0  0  0  0  0  0
   -3.4818   -1.7409    0.0000 C   0  0  0  0  0  0  0  0  0  0  0  0
   -3.4017    1.8542    0.0000 C   0  0  3  0  0  0  0  0  0  0  0  0
    0.6457    3.6903    0.0000 C   0  0  3  0  0  0  0  0  0  0  0  0
    1.9897    3.2048    0.0000 C   0  0  3  0  0  0  0  0  0  0  0  0
   -2.8954    2.5055    0.0000 C   0  0  3  0  0  0  0  0  0  0  0  0
   -1.7905    3.2546    0.0000 C   0  0  3  0  0  0  0  0  0  0  0  0
   -0.4466    2.7691    0.0000 C   0  0  3  0  0  0  0  0  0  0  0  0
   -0.6981    4.1757    0.0000 C   0  0  3  0  0  0  0  0  0  0  0  0
   -1.5390    1.8480    0.0000 C   0  0  3  0  0  0  0  0  0  0  0  0
   -3.2863   -0.3254    0.0000 C   0  0  0  0  0  0  0  0  0  0  0  0
   -3.9881   -2.3923    0.0000 C   0  0  0  0  0  0  0  0  0  0  0  0
   -0.9784    3.3998    0.0000 C   0  0  3  0  0  0  0  0  0  0  0  0
    0.3654    2.9143    0.0000 C   0  0  3  0  0  0  0  0  0  0  0  0
   -2.0708    2.4787    0.0000 C   0  0  3  0  0  0  0  0  0  0  0  0
   -3.7927   -0.9768    0.0000 N   0  0  0  0  0  0  0  0  0  0  0  0
    2.8018    3.3500    0.0000 O   0  0  0  0  0  0  0  0  0  0  0  0
   -1.2299    4.8065    0.0000 O   0  0  0  0  0  0  0  0  0  0  0  0
   -1.8193    1.0721    0.0000 O   0  0  0  0  0  0  0  0  0  0  0  0
   -2.4691   -0.4383    0.0000 O   0  5  0  0  0  0  0  0  0  0  0  0
   -3.6772   -3.1565    0.0000 O   0  0  0  0  0  0  0  0  0  0  0  0
   -4.8054   -2.2794    0.0000 O   0  5  0  0  0  0  0  0  0  0  0  0
    4.8054    1.7280    0.0000 Cl  0  0  0  0  0  0  0  0  0  0  0  0
   -1.5761   -4.8065    0.0000 N   0  0  0  0  0  0  0  0  0  0  0  0
    0.7810   -4.8065    0.0000 N   0  0  0  0  0  0  0  0  0  0  0  0
   -1.6518   -0.5511    0.0000 Pt  0  2  0  0  0  0  0  0  0  0  0  0
   -4.6223    2.9581    0.0000 H   0  0  0  0  0  0  0  0  0  0  0  0
   -4.8757    1.1222    0.0000 H   0  0  0  0  0  0  0  0  0  0  0  0
   -5.2790    2.1133    0.0000 H   0  0  0  0  0  0  0  0  0  0  0  0
   -0.9682    1.9501    0.0000 H   0  0  0  0  0  0  0  0  0  0  0  0
    0.7748    1.3204    0.0000 H   0  0  0  0  0  0  0  0  0  0  0  0
   -0.2785    1.1321    0.0000 H   0  0  0  0  0  0  0  0  0  0  0  0
   -3.4979    1.6591    0.0000 H   0  0  0  0  0  0  0  0  0  0  0  0
   -1.8302    0.8507    0.0000 H   0  0  0  0  0  0  0  0  0  0  0  0
   -2.8975    0.7735    0.0000 H   0  0  0  0  0  0  0  0  0  0  0  0
   -2.0309    0.9436    0.0000 H   0  0  0  0  0  0  0  0  0  0  0  0
   -2.4341    1.9348    0.0000 H   0  0  0  0  0  0  0  0  0  0  0  0
   -4.1310    3.6616    0.0000 H   0  0  0  0  0  0  0  0  0  0  0  0
   -3.9055    2.5664    0.0000 H   0  0  0  0  0  0  0  0  0  0  0  0
   -2.4070    4.8304    0.0000 H   0  0  0  0  0  0  0  0  0  0  0  0
   -1.4731    4.2155    0.0000 H   0  0  0  0  0  0  0  0  0  0  0  0
   -4.6571    0.5849    0.0000 H   0  0  0  0  0  0  0  0  0  0  0  0
   -4.2539   -0.4062    0.0000 H   0  0  0  0  0  0  0  0  0  0  0  0
    2.3992    1.6108    0.0000 H   0  0  0  0  0  0  0  0  0  0  0  0
    2.7627    2.6172    0.0000 H   0  0  0  0  0  0  0  0  0  0  0  0
    0.5338    1.2772    0.0000 H   0  0  0  0  0  0  0  0  0  0  0  0
   -0.1560    2.0952    0.0000 H   0  0  0  0  0  0  0  0  0  0  0  0
    1.8215    4.8418    0.0000 H   0  0  0  0  0  0  0  0  0  0  0  0
    2.5112    4.0238    0.0000 H   0  0  0  0  0  0  0  0  0  0  0  0
    0.4774    5.3274    0.0000 H   0  0  0  0  0  0  0  0  0  0  0  0
   -0.5759    5.1389    0.0000 H   0  0  0  0  0  0  0  0  0  0  0  0
   -0.0372    1.1752    0.0000 H   0  0  0  0  0  0  0  0  0  0  0  0
   -1.0905    0.9869    0.0000 H   0  0  0  0  0  0  0  0  0  0  0  0
   -2.4218   -1.8872    0.0000 H   0  0  0  0  0  0  0  0  0  0  0  0
   -2.8251   -0.8961    0.0000 H   0  0  0  0  0  0  0  0  0  0  0  0
   -4.0584    1.0094    0.0000 H   0  0  0  0  0  0  0  0  0  0  0  0
    1.0093    4.6966    0.0000 H   0  0  0  0  0  0  0  0  0  0  0  0
    0.9364    3.0165    0.0000 H   0  0  0  0  0  0  0  0  0  0  0  0
   -3.9462    2.7071    0.0000 H   0  0  0  0  0  0  0  0  0  0  0  0
   -1.5341    4.2934    0.0000 H   0  0  0  0  0  0  0  0  0  0  0  0
   -1.4999    2.5808    0.0000 H   0  0  0  0  0  0  0  0  0  0  0  0
   -0.0083    3.3577    0.0000 H   0  0  0  0  0  0  0  0  0  0  0  0
   -1.1754    2.8543    0.0000 H   0  0  0  0  0  0  0  0  0  0  0  0
   -1.3420    2.3935    0.0000 H   0  0  0  0  0  0  0  0  0  0  0  0
    3.4271    2.6084    0.0000 H   0  0  0  0  0  0  0  0  0  0  0  0
   -0.9003    5.7188    0.0000 H   0  0  0  0  0  0  0  0  0  0  0  0
   -2.7742    0.9014    0.0000 H   0  0  0  0  0  0  0  0  0  0  0  0
    6.0334    1.7280    0.0000 H   0  0  0  0  0  0  0  0  0  0  0  0
   -0.5561   -4.8065    0.0000 H   0  0  0  0  0  0  0  0  0  0  0  0
   -2.0861   -3.9232    0.0000 H   0  0  0  0  0  0  0  0  0  0  0  0
   -2.0861   -5.6898    0.0000 H   0  0  0  0  0  0  0  0  0  0  0  0
    1.8010   -4.8065    0.0000 H   0  0  0  0  0  0  0  0  0  0  0  0
    0.2710   -3.9232    0.0000 H   0  0  0  0  0  0  0  0  0  0  0  0
    0.2710   -5.6898    0.0000 H   0  0  0  0  0  0  0  0  0  0  0  0
  1 38  1  0  0  0  0
  1 39  1  0  0  0  0
  1 40  1  0  0  0  0
  2 41  1  0  0  0  0
  2 42  1  0  0  0  0
  2 43  1  0  0  0  0
  3 44  1  0  0  0  0
  3 45  1  0  0  0  0
  3 46  1  0  0  0  0
  4 47  1  0  0  0  0
  4 48  1  0  0  0  0
  5 49  1  0  0  0  0
  5 50  1  0  0  0  0
  6  5  1  0  0  0  0
  6 51  1  0  0  0  0
  6 52  1  0  0  0  0
  7  4  1  0  0  0  0
  7 53  1  0  0  0  0
  7 54  1  0  0  0  0
  8 55  1  0  0  0  0
  8 56  1  0  0  0  0
  9  8  1  0  0  0  0
  9 57  1  0  0  0  0
  9 58  1  0  0  0  0
 10 59  1  0  0  0  0
 10 60  1  0  0  0  0
 11 61  1  0  0  0  0
 11 62  1  0  0  0  0
 12 63  1  0  0  0  0
 12 64  1  0  0  0  0
 13 65  1  0  0  0  0
 13 66  1  0  0  0  0
 14  1  1  0  0  0  0
 14  4  1  0  0  0  0
 14 67  1  0  0  0  0
 15 10  1  0  0  0  0
 15 11  1  0  0  0  0
 15 68  1  0  0  0  0
 16  8  1  0  0  0  0
 16 10  1  0  0  0  0
 16 69  1  0  0  0  0
 17  5  1  0  0  0  0
 17 14  1  0  0  0  0
 17 70  1  0  0  0  0
 18  6  1  0  0  0  0
 18 71  1  0  0  0  0
 19 12  1  0  0  0  0
 19 72  1  0  0  0  0
 20 11  1  0  0  0  0
 20 73  1  0  0  0  0
 21 12  1  0  0  0  0
 21 74  1  0  0  0  0
 22  7  1  0  0  0  0
 23 13  1  0  0  0  0
 24 18  1  0  0  0  0
 24 19  1  0  0  0  0
 24 20  1  0  0  0  0
 24 75  1  0  0  0  0
 25  2  1  0  0  0  0
 25  9  1  0  0  0  0
 25 15  1  0  0  0  0
 25 19  1  0  0  0  0
 26  3  1  0  0  0  0
 26 17  1  0  0  0  0
 26 18  1  0  0  0  0
 26 21  1  0  0  0  0
 27 13  1  0  0  0  0
 27 22  2  3  0  0  0
 28 16  1  0  0  0  0
 28 76  1  0  0  0  0
 29 20  1  0  0  0  0
 29 77  1  0  0  0  0
 30 21  1  0  0  0  0
 30 78  1  0  0  0  0
 31 22  1  0  0  0  0
 32 23  2  0  0  0  0
 33 23  1  0  0  0  0
 34 79  1  0  0  0  0
 35 80  1  0  0  0  0
 35 81  1  0  0  0  0
 35 82  1  0  0  0  0
 36 83  1  0  0  0  0
 36 84  1  0  0  0  0
 36 85  1  0  0  0  0
M  CHG  3  31  -1  33  -1  37   2
M  END
>  <DRUGBANK_ID>
DB08858

>  <COMMON_NAME>
cis-Diamminechlorocholylglycinateplatinum(II)

>  <CAS_NUMBER>
191595-91-2

$$$$
