
 OpenBabel10282417072D

 26 26  0  0  0  0  0  0  0  0999 V2000
   -1.0717    0.8250    0.0000 O   0  0  0  0  0  0  0  0  0  0  0  0
   -1.7862    0.4125    0.0000 C   0  0  0  0  0  0  0  0  0  0  0  0
   -0.3572    0.4125    0.0000 C   0  0  1  0  0  0  0  0  0  0  0  0
   -0.3572   -0.4124    0.0000 C   0  0  2  0  0  0  0  0  0  0  0  0
   -1.0717   -0.8250    0.0000 O   0  0  0  0  0  0  0  0  0  0  0  0
    0.3572   -0.8250    0.0000 C   0  0  2  0  0  0  0  0  0  0  0  0
    0.3572   -1.6500    0.0000 O   0  0  0  0  0  0  0  0  0  0  0  0
    1.0717   -0.4124    0.0000 C   0  0  1  0  0  0  0  0  0  0  0  0
    1.0717    0.4125    0.0000 O   0  0  0  0  0  0  0  0  0  0  0  0
    0.3572    0.8250    0.0000 C   0  0  1  0  0  0  0  0  0  0  0  0
    0.3572    1.6500    0.0000 O   0  0  0  0  0  0  0  0  0  0  0  0
    1.7862   -0.8250    0.0000 C   0  0  0  0  0  0  0  0  0  0  0  0
   -2.7128    0.9475    0.0000 H   0  0  0  0  0  0  0  0  0  0  0  0
   -1.7862   -0.6575    0.0000 H   0  0  0  0  0  0  0  0  0  0  0  0
   -2.7129   -0.1225    0.0000 H   0  0  0  0  0  0  0  0  0  0  0  0
   -1.2838   -0.1225    0.0000 H   0  0  0  0  0  0  0  0  0  0  0  0
   -1.2839    0.1226    0.0000 H   0  0  0  0  0  0  0  0  0  0  0  0
   -1.9118   -0.3401    0.0000 H   0  0  0  0  0  0  0  0  0  0  0  0
   -0.5695   -1.3599    0.0000 H   0  0  0  0  0  0  0  0  0  0  0  0
   -0.4828   -2.1350    0.0000 H   0  0  0  0  0  0  0  0  0  0  0  0
    1.0717   -1.4824    0.0000 H   0  0  0  0  0  0  0  0  0  0  0  0
    1.2838    1.3600    0.0000 H   0  0  0  0  0  0  0  0  0  0  0  0
    1.1972    2.1350    0.0000 H   0  0  0  0  0  0  0  0  0  0  0  0
    1.7861   -1.8950    0.0000 H   0  0  0  0  0  0  0  0  0  0  0  0
    2.7129   -0.2901    0.0000 H   0  0  0  0  0  0  0  0  0  0  0  0
    2.7128   -1.3601    0.0000 H   0  0  0  0  0  0  0  0  0  0  0  0
  1  2  1  0  0  0  0
  2 13  1  0  0  0  0
  2 14  1  0  0  0  0
  2 15  1  0  0  0  0
  3  1  1  0  0  0  0
  3  4  1  0  0  0  0
  3 10  1  0  0  0  0
  3 16  1  1  0  0  0
  4  5  1  0  0  0  0
  4  6  1  0  0  0  0
  4 17  1  6  0  0  0
  5 18  1  0  0  0  0
  6  7  1  0  0  0  0
  6  8  1  0  0  0  0
  6 19  1  6  0  0  0
  7 20  1  0  0  0  0
  8 12  1  0  0  0  0
  8 21  1  6  0  0  0
  9  8  1  0  0  0  0
 10  9  1  0  0  0  0
 10 11  1  0  0  0  0
 10 22  1  1  0  0  0
 11 23  1  0  0  0  0
 12 24  1  0  0  0  0
 12 25  1  0  0  0  0
 12 26  1  0  0  0  0
M  END
>  <DRUGBANK_ID>
DB04515

>  <SECONDARY_ACCESSION_NUMBERS>
EXPT02263

>  <COMMON_NAME>
2-O-methyl-alpha-L-fucopyranose

>  <CAS_NUMBER>
1887228-22-9

>  <UNII>
ZN7HRG4F33

>  <SYNONYMS>
6-deoxy-2-O-methyl-alpha-L-galactopyranose; 6-deoxy-2-O-methyl-Î±-L-galactopyranose

$$$$
