
 OpenBabel10282417072D

 24 25  0  0  1  0  0  0  0  0999 V2000
   -1.2352    0.6294    0.0000 C   0  0  0  0  0  0  0  0  0  0  0  0
   -0.5678   -0.6806    0.0000 C   0  0  0  0  0  0  0  0  0  0  0  0
   -1.9497    1.8669    0.0000 C   0  0  0  0  0  0  0  0  0  0  0  0
   -1.6477   -1.4652    0.0000 C   0  0  0  0  0  0  0  0  0  0  0  0
   -1.9497    1.0419    0.0000 C   0  0  1  0  0  0  0  0  0  0  0  0
   -1.2352   -0.1956    0.0000 C   0  0  0  0  0  0  0  0  0  0  0  0
   -0.3378   -2.1326    0.0000 C   0  0  0  0  0  0  0  0  0  0  0  0
   -2.6641    0.6294    0.0000 N   0  0  0  0  0  0  0  0  0  0  0  0
   -1.9026   -0.6806    0.0000 N   0  0  0  0  0  0  0  0  0  0  0  0
   -0.5927   -2.9172    0.0000 N   0  0  0  0  0  0  0  0  0  0  0  0
    0.4872   -2.1326    0.0000 N   0  0  0  0  0  0  0  0  0  0  0  0
    0.0747   -3.4022    0.0000 N   0  0  0  0  0  0  0  0  0  0  0  0
    0.7422   -2.9172    0.0000 N   0  0  0  0  0  0  0  0  0  0  0  0
   -0.8227   -1.4652    0.0000 N   0  0  0  0  0  0  0  0  0  0  0  0
   -2.6641    2.2794    0.0000 O   0  0  0  0  0  0  0  0  0  0  0  0
   -1.2352    1.4544    0.0000 H   0  0  0  0  0  0  0  0  0  0  0  0
   -0.3086    1.1644    0.0000 H   0  0  0  0  0  0  0  0  0  0  0  0
   -0.3086    0.0944    0.0000 H   0  0  0  0  0  0  0  0  0  0  0  0
    0.4137   -0.3617    0.0000 H   0  0  0  0  0  0  0  0  0  0  0  0
   -1.0560    2.3829    0.0000 H   0  0  0  0  0  0  0  0  0  0  0  0
   -2.2543   -2.3001    0.0000 H   0  0  0  0  0  0  0  0  0  0  0  0
   -3.5475    1.1394    0.0000 H   0  0  0  0  0  0  0  0  0  0  0  0
   -2.6641   -0.3906    0.0000 H   0  0  0  0  0  0  0  0  0  0  0  0
    0.0747   -4.3867    0.0000 H   0  0  0  0  0  0  0  0  0  0  0  0
  1 17  1  0  0  0  0
  1 18  1  0  0  0  0
  2 19  1  0  0  0  0
  3 20  1  0  0  0  0
  4 21  1  0  0  0  0
  5  1  1  0  0  0  0
  5  3  1  0  0  0  0
  5  8  1  0  0  0  0
  5 16  1  1  0  0  0
  6  1  1  0  0  0  0
  6  2  2  0  0  0  0
  8 22  1  0  0  0  0
  8 23  1  0  0  0  0
  9  4  2  0  0  0  0
  9  6  1  0  0  0  0
 10  7  2  0  0  0  0
 11  7  1  0  0  0  0
 12 10  1  0  0  0  0
 12 24  1  0  0  0  0
 13 11  2  0  0  0  0
 13 12  1  0  0  0  0
 14  2  1  0  0  0  0
 14  4  1  0  0  0  0
 14  7  1  0  0  0  0
 15  3  2  0  0  0  0
M  END
>  <DRUGBANK_ID>
DB02528

>  <SECONDARY_ACCESSION_NUMBERS>
EXPT02402

>  <COMMON_NAME>
Tetrazolyl Histidine

$$$$
