
 OpenBabel10282417072D

 64 68  0  0  1  0  0  0  0  0999 V2000
    8.3536    4.8229    0.0000 C   0  0  0  0  0  0  0  0  0  0  0  0
    8.3536    5.6479    0.0000 C   0  0  0  0  0  0  0  0  0  0  0  0
    7.6391    6.0604    0.0000 C   0  0  0  0  0  0  0  0  0  0  0  0
    7.6391    6.8854    0.0000 C   0  0  0  0  0  0  0  0  0  0  0  0
    8.3536    7.2979    0.0000 C   0  0  0  0  0  0  0  0  0  0  0  0
    9.0681    6.8854    0.0000 C   0  0  0  0  0  0  0  0  0  0  0  0
    9.0681    6.0604    0.0000 C   0  0  0  0  0  0  0  0  0  0  0  0
    9.8527    5.8055    0.0000 C   0  0  0  0  0  0  0  0  0  0  0  0
   10.3376    6.4729    0.0000 O   0  0  0  0  0  0  0  0  0  0  0  0
    9.8527    7.1404    0.0000 C   0  0  0  0  0  0  0  0  0  0  0  0
   10.1076    7.9250    0.0000 O   0  0  0  0  0  0  0  0  0  0  0  0
    6.9246    5.6479    0.0000 C   0  0  2  0  0  0  0  0  0  0  0  0
    6.9246    4.8229    0.0000 C   0  0  0  0  0  0  0  0  0  0  0  0
    6.2102    4.4104    0.0000 N   0  0  0  0  0  0  0  0  0  0  0  0
    6.2102    3.5854    0.0000 C   0  0  0  0  0  0  0  0  0  0  0  0
    5.4957    3.1729    0.0000 C   0  0  0  0  0  0  0  0  0  0  0  0
    4.7812    3.5854    0.0000 N   0  0  0  0  0  0  0  0  0  0  0  0
    4.7812    4.4104    0.0000 C   0  0  0  0  0  0  0  0  0  0  0  0
    5.4957    4.8229    0.0000 C   0  0  0  0  0  0  0  0  0  0  0  0
    4.0668    3.1729    0.0000 C   0  0  0  0  0  0  0  0  0  0  0  0
    4.0668    2.3479    0.0000 C   0  0  1  0  0  0  0  0  0  0  0  0
    3.3523    1.9354    0.0000 C   0  0  0  0  0  0  0  0  0  0  0  0
    3.3523    1.1104    0.0000 C   0  0  0  0  0  0  0  0  0  0  0  0
    2.6378    0.6979    0.0000 C   0  0  0  0  0  0  0  0  0  0  0  0
    1.9233    1.1104    0.0000 C   0  0  0  0  0  0  0  0  0  0  0  0
    1.9233    1.9354    0.0000 C   0  0  0  0  0  0  0  0  0  0  0  0
    2.6378    2.3479    0.0000 C   0  0  0  0  0  0  0  0  0  0  0  0
    2.6378    3.1729    0.0000 C   0  0  0  0  0  0  0  0  0  0  0  0
    1.1387    2.1904    0.0000 C   0  0  0  0  0  0  0  0  0  0  0  0
    0.6538    1.5229    0.0000 O   0  0  0  0  0  0  0  0  0  0  0  0
    1.1387    0.8555    0.0000 C   0  0  0  0  0  0  0  0  0  0  0  0
    0.8838    0.0709    0.0000 O   0  0  0  0  0  0  0  0  0  0  0  0
    4.7812    1.9354    0.0000 O   0  0  0  0  0  0  0  0  0  0  0  0
    6.2102    6.0604    0.0000 O   0  0  0  0  0  0  0  0  0  0  0  0
    7.4270    4.2879    0.0000 H   0  0  0  0  0  0  0  0  0  0  0  0
    9.2802    4.2879    0.0000 H   0  0  0  0  0  0  0  0  0  0  0  0
    8.3536    3.7529    0.0000 H   0  0  0  0  0  0  0  0  0  0  0  0
    6.7454    7.4014    0.0000 H   0  0  0  0  0  0  0  0  0  0  0  0
    8.3536    8.3299    0.0000 H   0  0  0  0  0  0  0  0  0  0  0  0
   10.1834    4.7879    0.0000 H   0  0  0  0  0  0  0  0  0  0  0  0
   10.9095    5.6381    0.0000 H   0  0  0  0  0  0  0  0  0  0  0  0
    6.9246    6.7179    0.0000 H   0  0  0  0  0  0  0  0  0  0  0  0
    7.8513    4.2879    0.0000 H   0  0  0  0  0  0  0  0  0  0  0  0
    6.9246    3.7529    0.0000 H   0  0  0  0  0  0  0  0  0  0  0  0
    7.1368    3.0504    0.0000 H   0  0  0  0  0  0  0  0  0  0  0  0
    6.2102    2.5154    0.0000 H   0  0  0  0  0  0  0  0  0  0  0  0
    5.4957    2.1029    0.0000 H   0  0  0  0  0  0  0  0  0  0  0  0
    4.5691    2.6379    0.0000 H   0  0  0  0  0  0  0  0  0  0  0  0
    3.8546    4.9454    0.0000 H   0  0  0  0  0  0  0  0  0  0  0  0
    4.7812    5.4804    0.0000 H   0  0  0  0  0  0  0  0  0  0  0  0
    5.4957    5.8929    0.0000 H   0  0  0  0  0  0  0  0  0  0  0  0
    6.4223    5.3579    0.0000 H   0  0  0  0  0  0  0  0  0  0  0  0
    3.1401    3.7079    0.0000 H   0  0  0  0  0  0  0  0  0  0  0  0
    3.1402    2.6379    0.0000 H   0  0  0  0  0  0  0  0  0  0  0  0
    4.9935    2.8829    0.0000 H   0  0  0  0  0  0  0  0  0  0  0  0
    4.2460    0.5944    0.0000 H   0  0  0  0  0  0  0  0  0  0  0  0
    2.6378   -0.3341    0.0000 H   0  0  0  0  0  0  0  0  0  0  0  0
    3.5644    3.7079    0.0000 H   0  0  0  0  0  0  0  0  0  0  0  0
    1.7112    3.7079    0.0000 H   0  0  0  0  0  0  0  0  0  0  0  0
    2.6378    4.2429    0.0000 H   0  0  0  0  0  0  0  0  0  0  0  0
    0.8081    3.2080    0.0000 H   0  0  0  0  0  0  0  0  0  0  0  0
    0.0819    2.3578    0.0000 H   0  0  0  0  0  0  0  0  0  0  0  0
    4.7812    0.9654    0.0000 H   0  0  0  0  0  0  0  0  0  0  0  0
    6.2102    7.0304    0.0000 H   0  0  0  0  0  0  0  0  0  0  0  0
  1  2  1  0  0  0  0
  1 35  1  0  0  0  0
  1 36  1  0  0  0  0
  1 37  1  0  0  0  0
  2  3  2  0  0  0  0
  2  7  1  0  0  0  0
  3  4  1  0  0  0  0
  3 12  1  0  0  0  0
  4  5  2  0  0  0  0
  4 38  1  0  0  0  0
  5  6  1  0  0  0  0
  5 39  1  0  0  0  0
  6  7  2  0  0  0  0
  6 10  1  0  0  0  0
  7  8  1  0  0  0  0
  8  9  1  0  0  0  0
  8 40  1  0  0  0  0
  8 41  1  0  0  0  0
  9 10  1  0  0  0  0
 10 11  2  0  0  0  0
 12 13  1  0  0  0  0
 12 34  1  0  0  0  0
 12 42  1  1  0  0  0
 13 14  1  0  0  0  0
 13 43  1  0  0  0  0
 13 44  1  0  0  0  0
 14 15  1  0  0  0  0
 14 19  1  0  0  0  0
 15 16  1  0  0  0  0
 15 45  1  0  0  0  0
 15 46  1  0  0  0  0
 16 17  1  0  0  0  0
 16 47  1  0  0  0  0
 16 48  1  0  0  0  0
 17 18  1  0  0  0  0
 17 20  1  0  0  0  0
 18 19  1  0  0  0  0
 18 49  1  0  0  0  0
 18 50  1  0  0  0  0
 19 51  1  0  0  0  0
 19 52  1  0  0  0  0
 20 21  1  0  0  0  0
 20 53  1  0  0  0  0
 20 54  1  0  0  0  0
 21 22  1  0  0  0  0
 21 33  1  0  0  0  0
 21 55  1  1  0  0  0
 22 23  2  0  0  0  0
 22 27  1  0  0  0  0
 23 24  1  0  0  0  0
 23 56  1  0  0  0  0
 24 25  2  0  0  0  0
 24 57  1  0  0  0  0
 25 26  1  0  0  0  0
 25 31  1  0  0  0  0
 26 27  2  0  0  0  0
 26 29  1  0  0  0  0
 27 28  1  0  0  0  0
 28 58  1  0  0  0  0
 28 59  1  0  0  0  0
 28 60  1  0  0  0  0
 29 30  1  0  0  0  0
 29 61  1  0  0  0  0
 29 62  1  0  0  0  0
 30 31  1  0  0  0  0
 31 32  2  0  0  0  0
 33 63  1  0  0  0  0
 34 64  1  0  0  0  0
M  END
>  <DRUGBANK_ID>
DB11968

>  <COMMON_NAME>
MK-7145

>  <CAS_NUMBER>
1255204-84-2

>  <UNII>
M371870BYL

$$$$
