Betaine.mol
 OpenBabel10282417072D

 19 18  0  0  0  0  0  0  0  0999 V2000
   -1.4289   -0.4678    0.0000 O   0  5  0  0  0  0  0  0  0  0  0  0
   -0.7145   -0.0553    0.0000 C   0  0  0  0  0  0  0  0  0  0  0  0
   -0.7145    0.7697    0.0000 O   0  0  0  0  0  0  0  0  0  0  0  0
    0.0000   -0.4678    0.0000 C   0  0  0  0  0  0  0  0  0  0  0  0
    0.7145   -0.0553    0.0000 N   0  3  0  0  0  0  0  0  0  0  0  0
    0.3020    0.6592    0.0000 C   0  0  0  0  0  0  0  0  0  0  0  0
    1.4289    0.3572    0.0000 C   0  0  0  0  0  0  0  0  0  0  0  0
    1.1270   -0.7697    0.0000 C   0  0  0  0  0  0  0  0  0  0  0  0
    0.0000   -1.5378    0.0000 H   0  0  0  0  0  0  0  0  0  0  0  0
    0.9266   -1.0028    0.0000 H   0  0  0  0  0  0  0  0  0  0  0  0
    0.8370    1.5858    0.0000 H   0  0  0  0  0  0  0  0  0  0  0  0
   -0.7680    0.6592    0.0000 H   0  0  0  0  0  0  0  0  0  0  0  0
   -0.2330    1.5859    0.0000 H   0  0  0  0  0  0  0  0  0  0  0  0
    2.3556   -0.1778    0.0000 H   0  0  0  0  0  0  0  0  0  0  0  0
    1.4289    1.4272    0.0000 H   0  0  0  0  0  0  0  0  0  0  0  0
    2.3555    0.8922    0.0000 H   0  0  0  0  0  0  0  0  0  0  0  0
    0.5920   -1.6964    0.0000 H   0  0  0  0  0  0  0  0  0  0  0  0
    2.1970   -0.7697    0.0000 H   0  0  0  0  0  0  0  0  0  0  0  0
    1.6620   -1.6963    0.0000 H   0  0  0  0  0  0  0  0  0  0  0  0
  1  2  1  0  0  0  0
  2  3  2  0  0  0  0
  2  4  1  0  0  0  0
  4  5  1  0  0  0  0
  4  9  1  0  0  0  0
  4 10  1  0  0  0  0
  5  6  1  0  0  0  0
  5  7  1  0  0  0  0
  5  8  1  0  0  0  0
  6 11  1  0  0  0  0
  6 12  1  0  0  0  0
  6 13  1  0  0  0  0
  7 14  1  0  0  0  0
  7 15  1  0  0  0  0
  7 16  1  0  0  0  0
  8 17  1  0  0  0  0
  8 18  1  0  0  0  0
  8 19  1  0  0  0  0
M  CHG  2   1  -1   5   1
M  END
>  <DRUGBANK_ID>
DB06756

>  <COMMON_NAME>
Betaine

>  <CAS_NUMBER>
107-43-7

>  <UNII>
3SCV180C9W

>  <SYNONYMS>
2-(Trimethylammonio)Acetate; 2-N,N,N-trimethylammonio acetate; 2-trimethylammonioacetate; Abromine; Acidol; Beta√≠na anhidra; Betaine; Betaine, anhydrous; Glycine betaine; Glycinebetaine; Glykokollbetain; N,N,N-trimethylammonioacetate; N,N,N-Trimethylglycine; TMG; Trimethylaminoacetate; Trimethylammonioacetate; Trimethylglycine; Trimethylglycocoll

$$$$
