
 OpenBabel10282417072D

 60 62  0  0  1  0  0  0  0  0999 V2000
    4.7812    4.4104    0.0000 C   0  0  0  0  0  0  0  0  0  0  0  0
    4.7812    3.5854    0.0000 C   0  0  0  0  0  0  0  0  0  0  0  0
    4.0668    3.1729    0.0000 C   0  0  2  0  0  0  0  0  0  0  0  0
    4.0668    2.3479    0.0000 N   0  0  0  0  0  0  0  0  0  0  0  0
    3.3523    1.9354    0.0000 C   0  0  0  0  0  0  0  0  0  0  0  0
    3.3523    1.1104    0.0000 N   0  0  0  0  0  0  0  0  0  0  0  0
    2.6378    0.6979    0.0000 C   0  0  0  0  0  0  0  0  0  0  0  0
    2.6378   -0.1271    0.0000 N   0  0  0  0  0  0  0  0  0  0  0  0
    3.3523   -0.5396    0.0000 C   0  0  0  0  0  0  0  0  0  0  0  0
    3.3523   -1.3646    0.0000 C   0  0  0  0  0  0  0  0  0  0  0  0
    4.0668   -1.7771    0.0000 C   0  0  0  0  0  0  0  0  0  0  0  0
    4.7812   -1.3646    0.0000 C   0  0  0  0  0  0  0  0  0  0  0  0
    4.0668   -2.6021    0.0000 C   0  0  0  0  0  0  0  0  0  0  0  0
    3.3523   -3.0146    0.0000 C   0  0  0  0  0  0  0  0  0  0  0  0
    3.3523   -3.8396    0.0000 C   0  0  0  0  0  0  0  0  0  0  0  0
    2.6378   -2.6021    0.0000 N   0  0  0  0  0  0  0  0  0  0  0  0
    2.6378   -1.7771    0.0000 C   0  0  0  0  0  0  0  0  0  0  0  0
    1.9233    1.1104    0.0000 C   0  0  0  0  0  0  0  0  0  0  0  0
    1.1387    0.8555    0.0000 N   0  0  0  0  0  0  0  0  0  0  0  0
    0.6538    1.5229    0.0000 C   0  0  0  0  0  0  0  0  0  0  0  0
    1.1387    2.1904    0.0000 N   0  0  0  0  0  0  0  0  0  0  0  0
    0.8838    2.9750    0.0000 C   0  0  0  0  0  0  0  0  0  0  0  0
    1.4358    3.5881    0.0000 C   0  0  0  0  0  0  0  0  0  0  0  0
    0.0768    3.1465    0.0000 C   0  0  0  0  0  0  0  0  0  0  0  0
    1.9233    1.9354    0.0000 C   0  0  0  0  0  0  0  0  0  0  0  0
    2.6378    2.3479    0.0000 N   0  0  0  0  0  0  0  0  0  0  0  0
    3.3523    3.5854    0.0000 C   0  0  1  0  0  0  0  0  0  0  0  0
    2.6378    3.1729    0.0000 C   0  0  0  0  0  0  0  0  0  0  0  0
    3.3523    4.4104    0.0000 O   0  0  0  0  0  0  0  0  0  0  0  0
    5.7078    4.9454    0.0000 H   0  0  0  0  0  0  0  0  0  0  0  0
    3.8546    4.9454    0.0000 H   0  0  0  0  0  0  0  0  0  0  0  0
    4.7812    5.4804    0.0000 H   0  0  0  0  0  0  0  0  0  0  0  0
    5.7079    3.0504    0.0000 H   0  0  0  0  0  0  0  0  0  0  0  0
    4.7812    2.5154    0.0000 H   0  0  0  0  0  0  0  0  0  0  0  0
    4.9935    2.6379    0.0000 H   0  0  0  0  0  0  0  0  0  0  0  0
    4.9194    1.8556    0.0000 H   0  0  0  0  0  0  0  0  0  0  0  0
    1.7852   -0.6194    0.0000 H   0  0  0  0  0  0  0  0  0  0  0  0
    4.2789   -0.0046    0.0000 H   0  0  0  0  0  0  0  0  0  0  0  0
    4.2789   -1.0746    0.0000 H   0  0  0  0  0  0  0  0  0  0  0  0
    5.7079   -1.8996    0.0000 H   0  0  0  0  0  0  0  0  0  0  0  0
    4.7812   -0.2946    0.0000 H   0  0  0  0  0  0  0  0  0  0  0  0
    5.7078   -0.8296    0.0000 H   0  0  0  0  0  0  0  0  0  0  0  0
    4.9605   -3.1181    0.0000 H   0  0  0  0  0  0  0  0  0  0  0  0
    2.4257   -4.3746    0.0000 H   0  0  0  0  0  0  0  0  0  0  0  0
    4.2789   -4.3746    0.0000 H   0  0  0  0  0  0  0  0  0  0  0  0
    3.3523   -4.9096    0.0000 H   0  0  0  0  0  0  0  0  0  0  0  0
    1.7441   -1.2611    0.0000 H   0  0  0  0  0  0  0  0  0  0  0  0
   -0.3782    1.5229    0.0000 H   0  0  0  0  0  0  0  0  0  0  0  0
    0.5531    3.9926    0.0000 H   0  0  0  0  0  0  0  0  0  0  0  0
    2.4824    3.3657    0.0000 H   0  0  0  0  0  0  0  0  0  0  0  0
    1.1051    4.6057    0.0000 H   0  0  0  0  0  0  0  0  0  0  0  0
    2.1517    4.3833    0.0000 H   0  0  0  0  0  0  0  0  0  0  0  0
   -0.2539    4.1641    0.0000 H   0  0  0  0  0  0  0  0  0  0  0  0
   -0.6391    2.3513    0.0000 H   0  0  0  0  0  0  0  0  0  0  0  0
   -0.9698    3.3689    0.0000 H   0  0  0  0  0  0  0  0  0  0  0  0
    4.2789    4.1204    0.0000 H   0  0  0  0  0  0  0  0  0  0  0  0
    1.7112    3.7079    0.0000 H   0  0  0  0  0  0  0  0  0  0  0  0
    2.6378    2.1029    0.0000 H   0  0  0  0  0  0  0  0  0  0  0  0
    1.7111    2.6379    0.0000 H   0  0  0  0  0  0  0  0  0  0  0  0
    4.1923    4.8954    0.0000 H   0  0  0  0  0  0  0  0  0  0  0  0
  1  2  1  0  0  0  0
  1 30  1  0  0  0  0
  1 31  1  0  0  0  0
  1 32  1  0  0  0  0
  2 33  1  0  0  0  0
  2 34  1  0  0  0  0
  3  2  1  0  0  0  0
  3  4  1  0  0  0  0
  3 27  1  0  0  0  0
  3 35  1  1  0  0  0
  4  5  1  0  0  0  0
  4 36  1  0  0  0  0
  5  6  2  0  0  0  0
  5 26  1  0  0  0  0
  6  7  1  0  0  0  0
  7  8  1  0  0  0  0
  7 18  2  0  0  0  0
  8  9  1  0  0  0  0
  8 37  1  0  0  0  0
  9 10  1  0  0  0  0
  9 38  1  0  0  0  0
  9 39  1  0  0  0  0
 10 11  2  0  0  0  0
 10 17  1  0  0  0  0
 11 12  1  0  0  0  0
 11 13  1  0  0  0  0
 12 40  1  0  0  0  0
 12 41  1  0  0  0  0
 12 42  1  0  0  0  0
 13 14  2  0  0  0  0
 13 43  1  0  0  0  0
 14 15  1  0  0  0  0
 14 16  1  0  0  0  0
 15 44  1  0  0  0  0
 15 45  1  0  0  0  0
 15 46  1  0  0  0  0
 16 17  2  0  0  0  0
 17 47  1  0  0  0  0
 18 19  1  0  0  0  0
 18 25  1  0  0  0  0
 19 20  2  0  0  0  0
 20 21  1  0  0  0  0
 20 48  1  0  0  0  0
 21 22  1  0  0  0  0
 21 25  1  0  0  0  0
 22 23  1  0  0  0  0
 22 24  1  0  0  0  0
 22 49  1  0  0  0  0
 23 50  1  0  0  0  0
 23 51  1  0  0  0  0
 23 52  1  0  0  0  0
 24 53  1  0  0  0  0
 24 54  1  0  0  0  0
 24 55  1  0  0  0  0
 25 26  2  0  0  0  0
 27 28  1  0  0  0  0
 27 29  1  0  0  0  0
 27 56  1  6  0  0  0
 28 57  1  0  0  0  0
 28 58  1  0  0  0  0
 28 59  1  0  0  0  0
 29 60  1  0  0  0  0
M  END
>  <DRUGBANK_ID>
DB15425

>  <COMMON_NAME>
CYC-065

>  <CAS_NUMBER>
1070790-89-4

>  <UNII>
YET2XNU791

$$$$
