OX3
 OpenBabel10282417072D

 35 36  0  0  0  0  0  0  0  0999 V2000
   -0.8422    4.2032    0.0000 C   0  0  0  0  0  0  0  0  0  0  0  0
   -0.8422    5.0282    0.0000 O   0  0  0  0  0  0  0  0  0  0  0  0
   -1.5567    3.7907    0.0000 C   0  0  0  0  0  0  0  0  0  0  0  0
   -1.5567    2.9657    0.0000 C   0  0  0  0  0  0  0  0  0  0  0  0
   -0.8422    2.5532    0.0000 C   0  0  0  0  0  0  0  0  0  0  0  0
   -0.1277    2.9657    0.0000 C   0  0  0  0  0  0  0  0  0  0  0  0
   -0.1277    3.7907    0.0000 C   0  0  0  0  0  0  0  0  0  0  0  0
   -0.8422    1.7282    0.0000 C   0  0  0  0  0  0  0  0  0  0  0  0
   -1.5567    1.3157    0.0000 N   0  0  0  0  0  0  0  0  0  0  0  0
   -1.5567    0.4907    0.0000 O   0  0  0  0  0  0  0  0  0  0  0  0
   -0.8422    0.0782    0.0000 C   0  0  0  0  0  0  0  0  0  0  0  0
   -0.1277    0.4907    0.0000 O   0  0  0  0  0  0  0  0  0  0  0  0
   -0.8422   -0.7468    0.0000 C   0  0  0  0  0  0  0  0  0  0  0  0
   -0.1277   -1.1593    0.0000 C   0  0  0  0  0  0  0  0  0  0  0  0
   -0.1277   -1.9843    0.0000 C   0  0  0  0  0  0  0  0  0  0  0  0
   -0.8422   -2.3968    0.0000 C   0  0  0  0  0  0  0  0  0  0  0  0
   -1.5567   -1.9843    0.0000 C   0  0  0  0  0  0  0  0  0  0  0  0
   -1.5567   -1.1593    0.0000 C   0  0  0  0  0  0  0  0  0  0  0  0
   -0.0307    5.4967    0.0000 H   0  0  0  0  0  0  0  0  0  0  0  0
   -2.4504    4.3067    0.0000 H   0  0  0  0  0  0  0  0  0  0  0  0
   -2.4504    2.4497    0.0000 H   0  0  0  0  0  0  0  0  0  0  0  0
    0.7660    2.4497    0.0000 H   0  0  0  0  0  0  0  0  0  0  0  0
    0.7660    4.3067    0.0000 H   0  0  0  0  0  0  0  0  0  0  0  0
    0.0515    1.2122    0.0000 H   0  0  0  0  0  0  0  0  0  0  0  0
   -0.8422   -1.8168    0.0000 H   0  0  0  0  0  0  0  0  0  0  0  0
    0.7989   -0.6243    0.0000 H   0  0  0  0  0  0  0  0  0  0  0  0
    0.7989   -1.6943    0.0000 H   0  0  0  0  0  0  0  0  0  0  0  0
    0.7989   -2.5193    0.0000 H   0  0  0  0  0  0  0  0  0  0  0  0
   -0.1277   -3.0543    0.0000 H   0  0  0  0  0  0  0  0  0  0  0  0
   -0.8422   -3.4668    0.0000 H   0  0  0  0  0  0  0  0  0  0  0  0
   -1.7688   -2.9318    0.0000 H   0  0  0  0  0  0  0  0  0  0  0  0
   -2.4833   -2.5193    0.0000 H   0  0  0  0  0  0  0  0  0  0  0  0
   -2.4833   -1.4493    0.0000 H   0  0  0  0  0  0  0  0  0  0  0  0
   -2.4833   -0.6243    0.0000 H   0  0  0  0  0  0  0  0  0  0  0  0
   -2.4833   -1.6943    0.0000 H   0  0  0  0  0  0  0  0  0  0  0  0
  1  7  1  0  0  0  0
  1  2  1  0  0  0  0
  1  3  2  0  0  0  0
  2 19  1  0  0  0  0
  3  4  1  0  0  0  0
  3 20  1  0  0  0  0
  4  5  2  0  0  0  0
  4 21  1  0  0  0  0
  5  6  1  0  0  0  0
  5  8  1  0  0  0  0
  6  7  2  0  0  0  0
  6 22  1  0  0  0  0
  7 23  1  0  0  0  0
  8  9  2  0  0  0  0
  8 24  1  0  0  0  0
  9 10  1  0  0  0  0
 10 11  1  0  0  0  0
 11 13  1  0  0  0  0
 11 12  2  0  0  0  0
 13 14  1  0  0  0  0
 13 18  1  0  0  0  0
 13 25  1  0  0  0  0
 14 15  1  0  0  0  0
 14 26  1  0  0  0  0
 14 27  1  0  0  0  0
 15 16  1  0  0  0  0
 15 28  1  0  0  0  0
 15 29  1  0  0  0  0
 16 17  1  0  0  0  0
 16 30  1  0  0  0  0
 16 31  1  0  0  0  0
 17 18  1  0  0  0  0
 17 32  1  0  0  0  0
 17 33  1  0  0  0  0
 18 34  1  0  0  0  0
 18 35  1  0  0  0  0
M  END
>  <DRUGBANK_ID>
DB08333

>  <COMMON_NAME>
4-HYDROXYBENZALDEHYDE O-(CYCLOHEXYLCARBONYL)OXIME

$$$$
