
 OpenBabel10282417072D

 33 32  0  0  0  0  0  0  0  0999 V2000
   -0.1710    0.1996    0.0000 C   0  0  0  0  0  0  0  0  0  0  0  0
   -1.6171    0.1996    0.0000 C   0  0  0  0  0  0  0  0  0  0  0  0
   -0.8983   -0.2053    0.0000 C   0  0  3  0  0  0  0  0  0  0  0  0
   -0.1710    1.0126    0.0000 O   0  0  0  0  0  0  0  0  0  0  0  0
    0.5191   -0.2053    0.0000 N   0  0  0  0  0  0  0  0  0  0  0  0
   -0.8983   -1.0182    0.0000 O   0  0  0  0  0  0  0  0  0  0  0  0
   -2.3786    0.6160    0.0000 C   0  0  0  0  0  0  0  0  0  0  0  0
    1.9594   -0.2053    0.0000 C   0  0  0  0  0  0  0  0  0  0  0  0
   -2.3529   -0.3508    0.0000 C   0  0  0  0  0  0  0  0  0  0  0  0
   -1.6285    1.0181    0.0000 C   0  0  0  0  0  0  0  0  0  0  0  0
   -3.2713    0.0342    0.0000 O   0  0  0  0  0  0  0  0  0  0  0  0
    3.2713   -0.1369    0.0000 O   0  0  0  0  0  0  0  0  0  0  0  0
    1.2407    0.1996    0.0000 C   0  0  0  0  0  0  0  0  0  0  0  0
    2.6525    0.1996    0.0000 C   0  0  0  0  0  0  0  0  0  0  0  0
   -0.8956    0.8647    0.0000 H   0  0  0  0  0  0  0  0  0  0  0  0
    0.5096   -1.1898    0.0000 H   0  0  0  0  0  0  0  0  0  0  0  0
   -1.7383   -1.5032    0.0000 H   0  0  0  0  0  0  0  0  0  0  0  0
   -2.4199    1.6852    0.0000 H   0  0  0  0  0  0  0  0  0  0  0  0
   -3.3290    1.1075    0.0000 H   0  0  0  0  0  0  0  0  0  0  0  0
    1.9678   -1.2753    0.0000 H   0  0  0  0  0  0  0  0  0  0  0  0
    2.8895   -0.7343    0.0000 H   0  0  0  0  0  0  0  0  0  0  0  0
   -3.3364    0.0708    0.0000 H   0  0  0  0  0  0  0  0  0  0  0  0
   -2.2263   -1.4133    0.0000 H   0  0  0  0  0  0  0  0  0  0  0  0
   -3.2097   -0.9917    0.0000 H   0  0  0  0  0  0  0  0  0  0  0  0
   -0.7094    1.5660    0.0000 H   0  0  0  0  0  0  0  0  0  0  0  0
   -2.5625    1.5401    0.0000 H   0  0  0  0  0  0  0  0  0  0  0  0
   -1.6434    2.0880    0.0000 H   0  0  0  0  0  0  0  0  0  0  0  0
   -4.1363    0.4732    0.0000 H   0  0  0  0  0  0  0  0  0  0  0  0
    3.2961   -1.1066    0.0000 H   0  0  0  0  0  0  0  0  0  0  0  0
    1.2416    1.2696    0.0000 H   0  0  0  0  0  0  0  0  0  0  0  0
    0.3176    0.7407    0.0000 H   0  0  0  0  0  0  0  0  0  0  0  0
    2.6361    1.2695    0.0000 H   0  0  0  0  0  0  0  0  0  0  0  0
    1.7204    0.7251    0.0000 H   0  0  0  0  0  0  0  0  0  0  0  0
  2  3  1  0  0  0  0
  3  1  1  0  0  0  0
  3  6  1  0  0  0  0
  3 15  1  0  0  0  0
  4  1  2  0  0  0  0
  5  1  1  0  0  0  0
  5 16  1  0  0  0  0
  6 17  1  0  0  0  0
  7  2  1  0  0  0  0
  7 18  1  0  0  0  0
  7 19  1  0  0  0  0
  8 13  1  0  0  0  0
  8 20  1  0  0  0  0
  8 21  1  0  0  0  0
  9  2  1  0  0  0  0
  9 22  1  0  0  0  0
  9 23  1  0  0  0  0
  9 24  1  0  0  0  0
 10  2  1  0  0  0  0
 10 25  1  0  0  0  0
 10 26  1  0  0  0  0
 10 27  1  0  0  0  0
 11  7  1  0  0  0  0
 11 28  1  0  0  0  0
 12 14  1  0  0  0  0
 12 29  1  0  0  0  0
 13  5  1  0  0  0  0
 13 30  1  0  0  0  0
 13 31  1  0  0  0  0
 14  8  1  0  0  0  0
 14 32  1  0  0  0  0
 14 33  1  0  0  0  0
M  END
>  <DRUGBANK_ID>
DB11204

>  <COMMON_NAME>
Panthenol

>  <CAS_NUMBER>
16485-10-2

>  <UNII>
WV9CM0O67Z

>  <SYNONYMS>
DL-panthenol; DL-Pantothenol; Pantenol; Panthenol; Panthenolum

$$$$
