
 OpenBabel10282417072D

 55 55  0  0  0  0  0  0  0  0999 V2000
    1.6106   -2.7302    0.0000 C   0  0  0  0  0  0  0  0  0  0  0  0
    3.4815   -1.1099    0.0000 C   0  0  0  0  0  0  0  0  0  0  0  0
   10.0298   -1.1099    0.0000 C   0  0  0  0  0  0  0  0  0  0  0  0
    9.5620   -2.4601    0.0000 C   0  0  0  0  0  0  0  0  0  0  0  0
    2.3902   -3.0002    0.0000 C   0  0  0  0  0  0  0  0  0  0  0  0
    2.8579   -1.6500    0.0000 C   0  0  0  0  0  0  0  0  0  0  0  0
    5.3524    0.5104    0.0000 C   0  0  0  0  0  0  0  0  0  0  0  0
    4.7288   -0.0297    0.0000 C   0  0  0  0  0  0  0  0  0  0  0  0
    6.1320    0.2403    0.0000 C   0  0  0  0  0  0  0  0  0  0  0  0
    4.8847   -0.8399    0.0000 C   0  0  0  0  0  0  0  0  0  0  0  0
    6.2879   -0.5698    0.0000 C   0  0  0  0  0  0  0  0  0  0  0  0
    8.6266   -1.3800    0.0000 C   0  0  0  0  0  0  0  0  0  0  0  0
    4.4170   -2.1901    0.0000 C   0  0  0  0  0  0  0  0  0  0  0  0
    3.7933   -2.7302    0.0000 C   0  0  0  0  0  0  0  0  0  0  0  0
    8.0029   -1.9200    0.0000 C   0  0  0  0  0  0  0  0  0  0  0  0
    9.4061   -1.6500    0.0000 C   0  0  0  0  0  0  0  0  0  0  0  0
    5.6643   -1.1099    0.0000 C   0  0  0  0  0  0  0  0  0  0  0  0
    5.8202   -1.9200    0.0000 C   0  0  3  0  0  0  0  0  0  0  0  0
    6.5997   -2.1901    0.0000 C   0  0  0  0  0  0  0  0  0  0  0  0
    5.1965   -2.4601    0.0000 N   0  0  0  0  0  0  0  0  0  0  0  0
    3.0138   -2.4601    0.0000 N   0  0  0  0  0  0  0  0  0  0  0  0
    6.7556   -3.0002    0.0000 O   0  0  0  0  0  0  0  0  0  0  0  0
    7.2234   -1.6500    0.0000 O   0  0  0  0  0  0  0  0  0  0  0  0
    1.4083   -1.6795    0.0000 H   0  0  0  0  0  0  0  0  0  0  0  0
    0.8018   -3.4307    0.0000 H   0  0  0  0  0  0  0  0  0  0  0  0
    0.5995   -2.3800    0.0000 H   0  0  0  0  0  0  0  0  0  0  0  0
    4.4926   -1.4601    0.0000 H   0  0  0  0  0  0  0  0  0  0  0  0
    3.2792   -0.0592    0.0000 H   0  0  0  0  0  0  0  0  0  0  0  0
    4.2903   -0.4094    0.0000 H   0  0  0  0  0  0  0  0  0  0  0  0
   11.0408   -1.4602    0.0000 H   0  0  0  0  0  0  0  0  0  0  0  0
    9.8276   -0.0592    0.0000 H   0  0  0  0  0  0  0  0  0  0  0  0
   10.8387   -0.4095    0.0000 H   0  0  0  0  0  0  0  0  0  0  0  0
    8.7532   -3.1606    0.0000 H   0  0  0  0  0  0  0  0  0  0  0  0
   10.5731   -2.8103    0.0000 H   0  0  0  0  0  0  0  0  0  0  0  0
    9.7642   -3.5108    0.0000 H   0  0  0  0  0  0  0  0  0  0  0  0
    2.5925   -4.0509    0.0000 H   0  0  0  0  0  0  0  0  0  0  0  0
    3.4013   -3.3504    0.0000 H   0  0  0  0  0  0  0  0  0  0  0  0
    1.8468   -1.2998    0.0000 H   0  0  0  0  0  0  0  0  0  0  0  0
    2.0491   -2.3505    0.0000 H   0  0  0  0  0  0  0  0  0  0  0  0
    5.1574    1.5238    0.0000 H   0  0  0  0  0  0  0  0  0  0  0  0
    3.7536    0.3081    0.0000 H   0  0  0  0  0  0  0  0  0  0  0  0
    6.9121    0.9159    0.0000 H   0  0  0  0  0  0  0  0  0  0  0  0
    4.1046   -1.5155    0.0000 H   0  0  0  0  0  0  0  0  0  0  0  0
    7.2631   -0.9076    0.0000 H   0  0  0  0  0  0  0  0  0  0  0  0
    8.4244   -0.3293    0.0000 H   0  0  0  0  0  0  0  0  0  0  0  0
    9.4355   -0.6795    0.0000 H   0  0  0  0  0  0  0  0  0  0  0  0
    4.2148   -1.1394    0.0000 H   0  0  0  0  0  0  0  0  0  0  0  0
    5.2258   -1.4896    0.0000 H   0  0  0  0  0  0  0  0  0  0  0  0
    3.9954   -3.7809    0.0000 H   0  0  0  0  0  0  0  0  0  0  0  0
    2.9844   -3.4306    0.0000 H   0  0  0  0  0  0  0  0  0  0  0  0
    8.2051   -2.9707    0.0000 H   0  0  0  0  0  0  0  0  0  0  0  0
    7.1940   -2.6205    0.0000 H   0  0  0  0  0  0  0  0  0  0  0  0
    8.5973   -2.3505    0.0000 H   0  0  0  0  0  0  0  0  0  0  0  0
    6.6291   -1.2196    0.0000 H   0  0  0  0  0  0  0  0  0  0  0  0
    5.3893   -3.4617    0.0000 H   0  0  0  0  0  0  0  0  0  0  0  0
  1 24  1  0  0  0  0
  1 25  1  0  0  0  0
  1 26  1  0  0  0  0
  2 27  1  0  0  0  0
  2 28  1  0  0  0  0
  2 29  1  0  0  0  0
  3 30  1  0  0  0  0
  3 31  1  0  0  0  0
  3 32  1  0  0  0  0
  4 33  1  0  0  0  0
  4 34  1  0  0  0  0
  4 35  1  0  0  0  0
  5  1  1  0  0  0  0
  5 36  1  0  0  0  0
  5 37  1  0  0  0  0
  6  2  1  0  0  0  0
  6 38  1  0  0  0  0
  6 39  1  0  0  0  0
  7 40  1  0  0  0  0
  8  7  2  0  0  0  0
  8 41  1  0  0  0  0
  9  7  1  0  0  0  0
  9 42  1  0  0  0  0
 10  8  1  0  0  0  0
 10 43  1  0  0  0  0
 11  9  2  0  0  0  0
 11 44  1  0  0  0  0
 12 45  1  0  0  0  0
 12 46  1  0  0  0  0
 13 47  1  0  0  0  0
 13 48  1  0  0  0  0
 14 13  1  0  0  0  0
 14 49  1  0  0  0  0
 14 50  1  0  0  0  0
 15 12  1  0  0  0  0
 15 51  1  0  0  0  0
 15 52  1  0  0  0  0
 16  3  1  0  0  0  0
 16  4  1  0  0  0  0
 16 12  1  0  0  0  0
 16 53  1  0  0  0  0
 17 10  2  0  0  0  0
 17 11  1  0  0  0  0
 18 17  1  0  0  0  0
 18 54  1  0  0  0  0
 19 18  1  0  0  0  0
 20 13  1  0  0  0  0
 20 18  1  0  0  0  0
 20 55  1  0  0  0  0
 21  5  1  0  0  0  0
 21  6  1  0  0  0  0
 21 14  1  0  0  0  0
 22 19  2  0  0  0  0
 23 15  1  0  0  0  0
 23 19  1  0  0  0  0
M  END
>  <DRUGBANK_ID>
DB13738

>  <COMMON_NAME>
Camylofin

>  <CAS_NUMBER>
54-30-8

>  <UNII>
340B6Q764V

>  <SYNONYMS>
Camylofin

$$$$
