BR3
 OpenBabel10282417072D

 29 30  0  0  0  0  0  0  0  0999 V2000
   -3.0639    0.8999    0.0000 C   0  0  0  0  0  0  0  0  0  0  0  0
   -2.3494    0.4874    0.0000 C   0  0  0  0  0  0  0  0  0  0  0  0
   -1.6349    0.8999    0.0000 O   0  0  0  0  0  0  0  0  0  0  0  0
   -0.9204    0.4874    0.0000 C   0  0  2  0  0  0  0  0  0  0  0  0
   -0.2060    0.8999    0.0000 C   0  0  0  0  0  0  0  0  0  0  0  0
    0.5085    0.4874    0.0000 P   0  0  1  0  0  0  0  0  0  0  0  0
    1.2230    0.8999    0.0000 O   0  5  0  0  0  0  0  0  0  0  0  0
    0.5085   -0.3376    0.0000 O   0  0  0  0  0  0  0  0  0  0  0  0
   -0.9204   -0.3376    0.0000 C   0  0  0  0  0  0  0  0  0  0  0  0
   -1.6349   -0.7501    0.0000 C   0  0  0  0  0  0  0  0  0  0  0  0
   -2.3494   -0.3376    0.0000 C   0  0  0  0  0  0  0  0  0  0  0  0
   -3.0639   -0.7501    0.0000 C   0  0  0  0  0  0  0  0  0  0  0  0
   -3.7783   -0.3376    0.0000 C   0  0  0  0  0  0  0  0  0  0  0  0
   -3.7783    0.4874    0.0000 C   0  0  0  0  0  0  0  0  0  0  0  0
   -4.4928   -0.7501    0.0000 C   0  0  0  0  0  0  0  0  0  0  0  0
   -0.9204    1.0714    0.0000 H   0  0  0  0  0  0  0  0  0  0  0  0
    0.5085    1.2160    0.0000 H   0  0  0  0  0  0  0  0  0  0  0  0
   -3.0639    1.9319    0.0000 H   0  0  0  0  0  0  0  0  0  0  0  0
   -0.2060    1.9699    0.0000 H   0  0  0  0  0  0  0  0  0  0  0  0
    0.7206    1.4349    0.0000 H   0  0  0  0  0  0  0  0  0  0  0  0
    0.0062   -0.8726    0.0000 H   0  0  0  0  0  0  0  0  0  0  0  0
   -0.9204   -1.4076    0.0000 H   0  0  0  0  0  0  0  0  0  0  0  0
   -1.6349   -1.8201    0.0000 H   0  0  0  0  0  0  0  0  0  0  0  0
   -2.5615   -1.2851    0.0000 H   0  0  0  0  0  0  0  0  0  0  0  0
   -3.0639   -1.7821    0.0000 H   0  0  0  0  0  0  0  0  0  0  0  0
   -4.6720    1.0034    0.0000 H   0  0  0  0  0  0  0  0  0  0  0  0
   -5.4194   -0.2151    0.0000 H   0  0  0  0  0  0  0  0  0  0  0  0
   -4.4928   -1.8201    0.0000 H   0  0  0  0  0  0  0  0  0  0  0  0
   -5.4195   -1.2851    0.0000 H   0  0  0  0  0  0  0  0  0  0  0  0
  1  2  2  0  0  0  0
  1 14  1  0  0  0  0
  1 18  1  0  0  0  0
  2  3  1  0  0  0  0
  2 11  1  0  0  0  0
  3  4  1  0  0  0  0
  4  5  1  0  0  0  0
  4  9  1  0  0  0  0
  4 16  1  1  0  0  0
  5  6  1  0  0  0  0
  5 19  1  0  0  0  0
  5 20  1  0  0  0  0
  6  7  1  0  0  0  0
  6  8  2  0  0  0  0
  6 17  1  6  0  0  0
  9 10  1  0  0  0  0
  9 21  1  0  0  0  0
  9 22  1  0  0  0  0
 10 11  1  0  0  0  0
 10 23  1  0  0  0  0
 10 24  1  0  0  0  0
 11 12  2  0  0  0  0
 12 13  1  0  0  0  0
 12 25  1  0  0  0  0
 13 14  2  0  0  0  0
 13 15  1  0  0  0  0
 14 26  1  0  0  0  0
 15 27  1  0  0  0  0
 15 28  1  0  0  0  0
 15 29  1  0  0  0  0
M  CHG  1   7  -1
M  END
>  <DRUGBANK_ID>
DB07487

>  <COMMON_NAME>
(6-METHYL-3,4-DIHYDRO-2H-CHROMEN-2-YL)METHYLPHOSPHINATE

$$$$
