DI4
 OpenBabel10282417072D

 67 68  0  0  0  0  0  0  0  0999 V2000
   -1.6568    0.4930    0.0000 B   0  0  0  0  0  0  0  0  0  0  0  0
   -1.6568   -0.3320    0.0000 C   0  0  2  0  0  0  0  0  0  0  0  0
   -2.3712   -0.7445    0.0000 C   0  0  0  0  0  0  0  0  0  0  0  0
   -3.0857   -0.3320    0.0000 C   0  0  0  0  0  0  0  0  0  0  0  0
   -3.8002   -0.7445    0.0000 C   0  0  0  0  0  0  0  0  0  0  0  0
   -4.5146   -0.3320    0.0000 C   0  0  0  0  0  0  0  0  0  0  0  0
   -5.2291   -0.7445    0.0000 C   0  0  0  0  0  0  0  0  0  0  0  0
    0.4867   -0.7445    0.0000 C   0  0  2  0  0  0  0  0  0  0  0  0
   -0.2278   -0.3320    0.0000 C   0  0  0  0  0  0  0  0  0  0  0  0
    0.5729   -1.5650    0.0000 C   0  0  0  0  0  0  0  0  0  0  0  0
    1.3799   -1.7365    0.0000 C   0  0  0  0  0  0  0  0  0  0  0  0
    1.7924   -1.0220    0.0000 C   0  0  0  0  0  0  0  0  0  0  0  0
    1.4119    0.3981    0.0000 C   0  0  0  0  0  0  0  0  0  0  0  0
    2.8096    0.1010    0.0000 C   0  0  0  0  0  0  0  0  0  0  0  0
    2.1965    0.6530    0.0000 C   0  0  1  0  0  0  0  0  0  0  0  0
    1.7549    2.0120    0.0000 C   0  0  0  0  0  0  0  0  0  0  0  0
    0.9703    1.7571    0.0000 C   0  0  0  0  0  0  0  0  0  0  0  0
    4.5503    1.4178    0.0000 C   0  0  0  0  0  0  0  0  0  0  0  0
    5.1634    0.8658    0.0000 C   0  0  0  0  0  0  0  0  0  0  0  0
    4.9919    0.0588    0.0000 C   0  0  0  0  0  0  0  0  0  0  0  0
    4.2073   -0.1961    0.0000 C   0  0  0  0  0  0  0  0  0  0  0  0
    3.5942    0.3559    0.0000 C   0  0  0  0  0  0  0  0  0  0  0  0
    3.7657    1.1629    0.0000 C   0  0  0  0  0  0  0  0  0  0  0  0
   -0.9423   -0.7445    0.0000 N   0  0  0  0  0  0  0  0  0  0  0  0
   -5.9436   -0.3320    0.0000 N   0  0  0  0  0  0  0  0  0  0  0  0
    1.2403   -0.4089    0.0000 N   0  0  0  0  0  0  0  0  0  0  0  0
    2.3680    1.4600    0.0000 N   0  0  0  0  0  0  0  0  0  0  0  0
   -0.9423    0.9055    0.0000 O   0  0  0  0  0  0  0  0  0  0  0  0
   -2.3712    0.9055    0.0000 O   0  0  0  0  0  0  0  0  0  0  0  0
   -0.2278    0.4930    0.0000 O   0  0  0  0  0  0  0  0  0  0  0  0
    0.7988    0.9501    0.0000 O   0  0  0  0  0  0  0  0  0  0  0  0
    1.9264    2.8190    0.0000 O   0  0  0  0  0  0  0  0  0  0  0  0
   -2.1624   -0.0400    0.0000 H   0  0  0  0  0  0  0  0  0  0  0  0
   -0.0031   -1.0625    0.0000 H   0  0  0  0  0  0  0  0  0  0  0  0
    2.0751    0.0818    0.0000 H   0  0  0  0  0  0  0  0  0  0  0  0
   -2.3712   -1.8145    0.0000 H   0  0  0  0  0  0  0  0  0  0  0  0
   -3.2978   -1.2795    0.0000 H   0  0  0  0  0  0  0  0  0  0  0  0
   -3.0857    0.7380    0.0000 H   0  0  0  0  0  0  0  0  0  0  0  0
   -4.0123    0.2030    0.0000 H   0  0  0  0  0  0  0  0  0  0  0  0
   -3.8002   -1.8145    0.0000 H   0  0  0  0  0  0  0  0  0  0  0  0
   -4.7269   -1.2795    0.0000 H   0  0  0  0  0  0  0  0  0  0  0  0
   -4.5146    0.7380    0.0000 H   0  0  0  0  0  0  0  0  0  0  0  0
   -5.4412    0.2030    0.0000 H   0  0  0  0  0  0  0  0  0  0  0  0
   -5.2291   -1.8145    0.0000 H   0  0  0  0  0  0  0  0  0  0  0  0
   -6.1557   -1.2795    0.0000 H   0  0  0  0  0  0  0  0  0  0  0  0
   -0.2223   -2.2810    0.0000 H   0  0  0  0  0  0  0  0  0  0  0  0
    0.8499   -2.5985    0.0000 H   0  0  0  0  0  0  0  0  0  0  0  0
    1.8151   -2.7140    0.0000 H   0  0  0  0  0  0  0  0  0  0  0  0
    2.4484   -1.7925    0.0000 H   0  0  0  0  0  0  0  0  0  0  0  0
    2.8565   -0.9101    0.0000 H   0  0  0  0  0  0  0  0  0  0  0  0
    2.1758   -0.0231    0.0000 H   0  0  0  0  0  0  0  0  0  0  0  0
    2.5871   -0.9456    0.0000 H   0  0  0  0  0  0  0  0  0  0  0  0
    3.6048   -0.6150    0.0000 H   0  0  0  0  0  0  0  0  0  0  0  0
    0.1752    2.4731    0.0000 H   0  0  0  0  0  0  0  0  0  0  0  0
    0.7478    0.7105    0.0000 H   0  0  0  0  0  0  0  0  0  0  0  0
   -0.0473    1.4265    0.0000 H   0  0  0  0  0  0  0  0  0  0  0  0
    4.7649    2.4272    0.0000 H   0  0  0  0  0  0  0  0  0  0  0  0
    6.1449    1.1847    0.0000 H   0  0  0  0  0  0  0  0  0  0  0  0
    5.7588   -0.6317    0.0000 H   0  0  0  0  0  0  0  0  0  0  0  0
    3.9927   -1.2055    0.0000 H   0  0  0  0  0  0  0  0  0  0  0  0
    2.9988    1.8534    0.0000 H   0  0  0  0  0  0  0  0  0  0  0  0
   -0.9423   -1.7290    0.0000 H   0  0  0  0  0  0  0  0  0  0  0  0
   -5.9436    0.6880    0.0000 H   0  0  0  0  0  0  0  0  0  0  0  0
   -6.8269   -0.8420    0.0000 H   0  0  0  0  0  0  0  0  0  0  0  0
    3.3043    1.7643    0.0000 H   0  0  0  0  0  0  0  0  0  0  0  0
   -0.1023    0.4205    0.0000 H   0  0  0  0  0  0  0  0  0  0  0  0
   -2.3712    1.8755    0.0000 H   0  0  0  0  0  0  0  0  0  0  0  0
  1 28  1  0  0  0  0
  1 29  1  0  0  0  0
  2  1  1  0  0  0  0
  2  3  1  0  0  0  0
  2 24  1  0  0  0  0
  2 33  1  6  0  0  0
  3  4  1  0  0  0  0
  3 36  1  0  0  0  0
  3 37  1  0  0  0  0
  4  5  1  0  0  0  0
  4 38  1  0  0  0  0
  4 39  1  0  0  0  0
  5  6  1  0  0  0  0
  5 40  1  0  0  0  0
  5 41  1  0  0  0  0
  6  7  1  0  0  0  0
  6 42  1  0  0  0  0
  6 43  1  0  0  0  0
  7 25  1  0  0  0  0
  7 44  1  0  0  0  0
  7 45  1  0  0  0  0
  8  9  1  0  0  0  0
  8 10  1  0  0  0  0
  8 26  1  0  0  0  0
  8 34  1  6  0  0  0
  9 24  1  0  0  0  0
  9 30  2  0  0  0  0
 10 11  1  0  0  0  0
 10 46  1  0  0  0  0
 10 47  1  0  0  0  0
 11 12  1  0  0  0  0
 11 48  1  0  0  0  0
 11 49  1  0  0  0  0
 12 26  1  0  0  0  0
 12 50  1  0  0  0  0
 12 51  1  0  0  0  0
 13 15  1  0  0  0  0
 13 26  1  0  0  0  0
 13 31  2  0  0  0  0
 14 15  1  0  0  0  0
 14 22  1  0  0  0  0
 14 52  1  0  0  0  0
 14 53  1  0  0  0  0
 15 27  1  0  0  0  0
 15 35  1  1  0  0  0
 16 17  1  0  0  0  0
 16 27  1  0  0  0  0
 16 32  2  0  0  0  0
 17 54  1  0  0  0  0
 17 55  1  0  0  0  0
 17 56  1  0  0  0  0
 18 19  2  0  0  0  0
 18 23  1  0  0  0  0
 18 57  1  0  0  0  0
 19 20  1  0  0  0  0
 19 58  1  0  0  0  0
 20 21  2  0  0  0  0
 20 59  1  0  0  0  0
 21 22  1  0  0  0  0
 21 60  1  0  0  0  0
 22 23  2  0  0  0  0
 23 61  1  0  0  0  0
 24 62  1  0  0  0  0
 25 63  1  0  0  0  0
 25 64  1  0  0  0  0
 27 65  1  0  0  0  0
 28 66  1  0  0  0  0
 29 67  1  0  0  0  0
M  END
>  <DRUGBANK_ID>
DB07659

>  <COMMON_NAME>
AC-(D)PHE-PRO-BOROHOMOLYS-OH

$$$$
