341
 OpenBabel10282417072D

 52 54  0  0  1  0  0  0  0  0999 V2000
    1.6500   -4.1746    0.0000 Cl  0  0  0  0  0  0  0  0  0  0  0  0
    5.2224    2.0130    0.0000 O   0  0  0  0  0  0  0  0  0  0  0  0
    6.6515    3.6631    0.0000 O   0  0  0  0  0  0  0  0  0  0  0  0
    5.2224    3.6631    0.0000 O   0  0  0  0  0  0  0  0  0  0  0  0
    4.5080   -1.6995    0.0000 N   0  0  0  0  0  0  0  0  0  0  0  0
    4.5080   -0.0495    0.0000 N   0  0  0  0  0  0  0  0  0  0  0  0
    5.2224   -1.2870    0.0000 C   0  0  0  0  0  0  0  0  0  0  0  0
    3.7935   -1.2870    0.0000 C   0  0  0  0  0  0  0  0  0  0  0  0
    5.2224   -0.4620    0.0000 C   0  0  0  0  0  0  0  0  0  0  0  0
    3.7935   -0.4620    0.0000 C   0  0  0  0  0  0  0  0  0  0  0  0
    4.5080   -2.5246    0.0000 C   0  0  3  0  0  0  0  0  0  0  0  0
    4.5080    0.7755    0.0000 C   0  0  0  0  0  0  0  0  0  0  0  0
    3.7935   -2.9371    0.0000 C   0  0  0  0  0  0  0  0  0  0  0  0
    5.2224   -2.9371    0.0000 C   0  0  0  0  0  0  0  0  0  0  0  0
    5.2224    1.1880    0.0000 C   0  0  0  0  0  0  0  0  0  0  0  0
    3.7935   -3.7621    0.0000 C   0  0  0  0  0  0  0  0  0  0  0  0
    3.0791   -2.5246    0.0000 C   0  0  0  0  0  0  0  0  0  0  0  0
    5.9370   -2.5246    0.0000 C   0  0  0  0  0  0  0  0  0  0  0  0
    5.2224   -3.7621    0.0000 C   0  0  0  0  0  0  0  0  0  0  0  0
    3.0791   -4.1746    0.0000 C   0  0  0  0  0  0  0  0  0  0  0  0
    2.3645   -2.9371    0.0000 C   0  0  0  0  0  0  0  0  0  0  0  0
    6.6515   -2.9371    0.0000 C   0  0  0  0  0  0  0  0  0  0  0  0
    5.9370   -4.1746    0.0000 C   0  0  0  0  0  0  0  0  0  0  0  0
    2.3645   -3.7621    0.0000 C   0  0  0  0  0  0  0  0  0  0  0  0
    6.6515   -3.7621    0.0000 C   0  0  0  0  0  0  0  0  0  0  0  0
    5.9370    2.4256    0.0000 C   0  0  0  0  0  0  0  0  0  0  0  0
    5.9370    3.2506    0.0000 C   0  0  0  0  0  0  0  0  0  0  0  0
    7.4630    3.1946    0.0000 H   0  0  0  0  0  0  0  0  0  0  0  0
    6.1491   -1.8220    0.0000 H   0  0  0  0  0  0  0  0  0  0  0  0
    6.1490   -0.7520    0.0000 H   0  0  0  0  0  0  0  0  0  0  0  0
    2.8669   -1.8220    0.0000 H   0  0  0  0  0  0  0  0  0  0  0  0
    2.8669   -0.7520    0.0000 H   0  0  0  0  0  0  0  0  0  0  0  0
    6.1491    0.0730    0.0000 H   0  0  0  0  0  0  0  0  0  0  0  0
    6.1490   -0.9970    0.0000 H   0  0  0  0  0  0  0  0  0  0  0  0
    2.8669    0.0730    0.0000 H   0  0  0  0  0  0  0  0  0  0  0  0
    2.8669   -0.9970    0.0000 H   0  0  0  0  0  0  0  0  0  0  0  0
    3.5814   -1.9896    0.0000 H   0  0  0  0  0  0  0  0  0  0  0  0
    3.5813    1.3105    0.0000 H   0  0  0  0  0  0  0  0  0  0  0  0
    4.5080    1.8455    0.0000 H   0  0  0  0  0  0  0  0  0  0  0  0
    6.1491    0.6530    0.0000 H   0  0  0  0  0  0  0  0  0  0  0  0
    5.2224    0.1180    0.0000 H   0  0  0  0  0  0  0  0  0  0  0  0
    4.6872   -4.2781    0.0000 H   0  0  0  0  0  0  0  0  0  0  0  0
    3.0792   -1.4926    0.0000 H   0  0  0  0  0  0  0  0  0  0  0  0
    5.9370   -1.4926    0.0000 H   0  0  0  0  0  0  0  0  0  0  0  0
    4.3287   -4.2781    0.0000 H   0  0  0  0  0  0  0  0  0  0  0  0
    3.0792   -5.2066    0.0000 H   0  0  0  0  0  0  0  0  0  0  0  0
    1.4708   -2.4211    0.0000 H   0  0  0  0  0  0  0  0  0  0  0  0
    7.5452   -2.4211    0.0000 H   0  0  0  0  0  0  0  0  0  0  0  0
    5.9370   -5.2066    0.0000 H   0  0  0  0  0  0  0  0  0  0  0  0
    7.5452   -4.2781    0.0000 H   0  0  0  0  0  0  0  0  0  0  0  0
    6.8637    1.8906    0.0000 H   0  0  0  0  0  0  0  0  0  0  0  0
    6.8636    2.9606    0.0000 H   0  0  0  0  0  0  0  0  0  0  0  0
  1 24  1  0  0  0  0
  2 15  1  0  0  0  0
  2 26  1  0  0  0  0
  3 27  1  0  0  0  0
  3 28  1  0  0  0  0
  4 27  2  0  0  0  0
  5  7  1  0  0  0  0
  5  8  1  0  0  0  0
  5 11  1  0  0  0  0
  6  9  1  0  0  0  0
  6 10  1  0  0  0  0
  6 12  1  0  0  0  0
  7  9  1  0  0  0  0
  7 29  1  0  0  0  0
  7 30  1  0  0  0  0
  8 10  1  0  0  0  0
  8 31  1  0  0  0  0
  8 32  1  0  0  0  0
  9 33  1  0  0  0  0
  9 34  1  0  0  0  0
 10 35  1  0  0  0  0
 10 36  1  0  0  0  0
 11 13  1  0  0  0  0
 11 14  1  0  0  0  0
 11 37  1  0  0  0  0
 12 15  1  0  0  0  0
 12 38  1  0  0  0  0
 12 39  1  0  0  0  0
 13 16  2  0  0  0  0
 13 17  1  0  0  0  0
 14 18  2  0  0  0  0
 14 19  1  0  0  0  0
 15 40  1  0  0  0  0
 15 41  1  0  0  0  0
 16 20  1  0  0  0  0
 16 42  1  0  0  0  0
 17 21  2  0  0  0  0
 17 43  1  0  0  0  0
 18 22  1  0  0  0  0
 18 44  1  0  0  0  0
 19 23  2  0  0  0  0
 19 45  1  0  0  0  0
 20 24  2  0  0  0  0
 20 46  1  0  0  0  0
 21 24  1  0  0  0  0
 21 47  1  0  0  0  0
 22 25  2  0  0  0  0
 22 48  1  0  0  0  0
 23 25  1  0  0  0  0
 23 49  1  0  0  0  0
 25 50  1  0  0  0  0
 26 27  1  0  0  0  0
 26 51  1  0  0  0  0
 26 52  1  0  0  0  0
M  END
>  <DRUGBANK_ID>
DB00341

>  <SECONDARY_ACCESSION_NUMBERS>
APRD00630

>  <COMMON_NAME>
Cetirizine

>  <CAS_NUMBER>
83881-51-0

>  <UNII>
YO7261ME24

>  <SYNONYMS>
Cetirizin; Cetirizina; Cetirizine; Cetirizinum

$$$$
