313
 OpenBabel10282417072D

  2  1  0  0  0  0  0  0  0  0999 V2000
    1.6500    0.0000    0.0000 Cl  0  0  0  0  0  0  0  0  0  0  0  0
    2.8780    0.0000    0.0000 H   0  0  0  0  0  0  0  0  0  0  0  0
  1  2  1  0  0  0  0
M  END
>  <DRUGBANK_ID>
DB13366

>  <COMMON_NAME>
Hydrochloric acid

>  <CAS_NUMBER>
7647-01-0

>  <UNII>
QTT17582CB

>  <SYNONYMS>
Chlorowodor; Chlorure d'hydrogène; Chlorwasserstoff; Cloruro de hidrógeno; Hydrochloric acid; Hydrogenchlorid; Wasserstoffchlorid

$$$$
