
 OpenBabel10282417072D

 28 29  0  0  0  0  0  0  0  0999 V2000
   -0.3572    0.2062    0.0000 C   0  0  0  0  0  0  0  0  0  0  0  0
    0.3572   -0.2062    0.0000 C   0  0  3  0  0  0  0  0  0  0  0  0
   -0.3572    1.0312    0.0000 O   0  0  0  0  0  0  0  0  0  0  0  0
    0.3572   -1.0312    0.0000 O   0  0  0  0  0  0  0  0  0  0  0  0
   -1.0717   -0.2062    0.0000 C   0  0  0  0  0  0  0  0  0  0  0  0
   -1.0717   -1.0312    0.0000 C   0  0  0  0  0  0  0  0  0  0  0  0
   -1.7861    0.2062    0.0000 C   0  0  0  0  0  0  0  0  0  0  0  0
   -1.7861   -1.4437    0.0000 C   0  0  0  0  0  0  0  0  0  0  0  0
   -2.5006   -0.2062    0.0000 C   0  0  0  0  0  0  0  0  0  0  0  0
   -2.5006   -1.0312    0.0000 C   0  0  0  0  0  0  0  0  0  0  0  0
    1.0716    0.2062    0.0000 C   0  0  0  0  0  0  0  0  0  0  0  0
    1.0716    1.0312    0.0000 C   0  0  0  0  0  0  0  0  0  0  0  0
    1.7861   -0.2062    0.0000 C   0  0  0  0  0  0  0  0  0  0  0  0
    1.7861    1.4437    0.0000 C   0  0  0  0  0  0  0  0  0  0  0  0
    2.5006    0.2062    0.0000 C   0  0  0  0  0  0  0  0  0  0  0  0
    2.5006    1.0312    0.0000 C   0  0  0  0  0  0  0  0  0  0  0  0
   -0.5694   -0.7412    0.0000 H   0  0  0  0  0  0  0  0  0  0  0  0
   -0.4828   -1.5162    0.0000 H   0  0  0  0  0  0  0  0  0  0  0  0
   -0.1780   -1.5472    0.0000 H   0  0  0  0  0  0  0  0  0  0  0  0
   -1.7861    1.2382    0.0000 H   0  0  0  0  0  0  0  0  0  0  0  0
   -1.7861   -2.4757    0.0000 H   0  0  0  0  0  0  0  0  0  0  0  0
   -3.3943    0.3099    0.0000 H   0  0  0  0  0  0  0  0  0  0  0  0
   -3.3943   -1.5472    0.0000 H   0  0  0  0  0  0  0  0  0  0  0  0
    0.1779    1.5472    0.0000 H   0  0  0  0  0  0  0  0  0  0  0  0
    1.7861   -1.2382    0.0000 H   0  0  0  0  0  0  0  0  0  0  0  0
    1.7861    2.4757    0.0000 H   0  0  0  0  0  0  0  0  0  0  0  0
    3.3943   -0.3099    0.0000 H   0  0  0  0  0  0  0  0  0  0  0  0
    3.3943    1.5472    0.0000 H   0  0  0  0  0  0  0  0  0  0  0  0
  2  1  1  0  0  0  0
  2  4  1  0  0  0  0
  2 17  1  0  0  0  0
  3  1  2  0  0  0  0
  4 18  1  0  0  0  0
  5  1  1  0  0  0  0
  6  5  2  0  0  0  0
  6 19  1  0  0  0  0
  7  5  1  0  0  0  0
  7 20  1  0  0  0  0
  8  6  1  0  0  0  0
  8 21  1  0  0  0  0
  9  7  2  0  0  0  0
  9 22  1  0  0  0  0
 10  8  2  0  0  0  0
 10  9  1  0  0  0  0
 10 23  1  0  0  0  0
 11  2  1  0  0  0  0
 12 11  2  0  0  0  0
 12 24  1  0  0  0  0
 13 11  1  0  0  0  0
 13 25  1  0  0  0  0
 14 12  1  0  0  0  0
 14 26  1  0  0  0  0
 15 13  2  0  0  0  0
 15 27  1  0  0  0  0
 16 14  2  0  0  0  0
 16 15  1  0  0  0  0
 16 28  1  0  0  0  0
M  END
>  <DRUGBANK_ID>
DB14020

>  <COMMON_NAME>
Benzoin

>  <CAS_NUMBER>
119-53-9

>  <UNII>
L7J6A1NE81

>  <SYNONYMS>
(+-)-Benzoin; 2-Hydroxy-1,2-diphenylethanone; Aerozoin; alpha-Hydroxy-alpha-phenylacetophenone; alpha-Hydroxybenzyl phenyl ketone; Benzoin extract (resinoid); Benzoylphenylcarbinol; Hydroxy-2-phenyl acetophenone; Phenyl-alpha-hydroxybenzyl ketone; phenyl-α-hydroxybenzyl ketone; Phenylbenzoyl carbinol; α-hydroxy-α-phenylacetophenone

$$$$
