SY1
 OpenBabel10282417072D

 48 51  0  0  0  0  0  0  0  0999 V2000
   -2.5299    0.3573    0.0000 N   0  0  0  0  0  0  0  0  0  0  0  0
   -1.1010   -1.2927    0.0000 C   0  0  0  0  0  0  0  0  0  0  0  0
   -0.3865   -0.8802    0.0000 C   0  0  0  0  0  0  0  0  0  0  0  0
   -1.1010    0.3573    0.0000 C   0  0  0  0  0  0  0  0  0  0  0  0
    0.3280    0.3573    0.0000 C   0  0  0  0  0  0  0  0  0  0  0  0
    1.7569    0.3573    0.0000 C   0  0  0  0  0  0  0  0  0  0  0  0
    3.1858    1.1823    0.0000 C   0  0  0  0  0  0  0  0  0  0  0  0
    1.7569    1.1823    0.0000 C   0  0  0  0  0  0  0  0  0  0  0  0
   -0.3865    2.4198    0.0000 C   0  0  0  0  0  0  0  0  0  0  0  0
    0.3280    2.8323    0.0000 C   0  0  0  0  0  0  0  0  0  0  0  0
    0.3280    3.6573    0.0000 C   0  0  0  0  0  0  0  0  0  0  0  0
   -1.1010    3.6573    0.0000 C   0  0  0  0  0  0  0  0  0  0  0  0
   -1.8155    2.4198    0.0000 C   0  0  0  0  0  0  0  0  0  0  0  0
   -2.5299    2.0073    0.0000 N   0  0  0  0  0  0  0  0  0  0  0  0
   -1.1010    2.8323    0.0000 C   0  0  0  0  0  0  0  0  0  0  0  0
   -0.3865    4.0698    0.0000 C   0  0  0  0  0  0  0  0  0  0  0  0
   -0.3865    1.5948    0.0000 C   0  0  0  0  0  0  0  0  0  0  0  0
    0.3280    1.1823    0.0000 N   0  0  0  0  0  0  0  0  0  0  0  0
   -0.3865   -0.0552    0.0000 N   0  0  0  0  0  0  0  0  0  0  0  0
   -1.8155   -0.8802    0.0000 C   0  0  0  0  0  0  0  0  0  0  0  0
   -1.8155   -0.0552    0.0000 C   0  0  1  0  0  0  0  0  0  0  0  0
    1.0424    1.5948    0.0000 C   0  0  0  0  0  0  0  0  0  0  0  0
    1.0424    2.4198    0.0000 O   0  0  0  0  0  0  0  0  0  0  0  0
    1.0424   -0.0552    0.0000 N   0  0  0  0  0  0  0  0  0  0  0  0
    2.4714    1.5948    0.0000 C   0  0  0  0  0  0  0  0  0  0  0  0
    3.1858    0.3573    0.0000 C   0  0  0  0  0  0  0  0  0  0  0  0
    2.4714   -0.0552    0.0000 C   0  0  0  0  0  0  0  0  0  0  0  0
   -1.8155    0.5287    0.0000 H   0  0  0  0  0  0  0  0  0  0  0  0
   -2.5299    1.3773    0.0000 H   0  0  0  0  0  0  0  0  0  0  0  0
   -3.4133   -0.1527    0.0000 H   0  0  0  0  0  0  0  0  0  0  0  0
   -1.1010   -2.3627    0.0000 H   0  0  0  0  0  0  0  0  0  0  0  0
   -2.0276   -1.8277    0.0000 H   0  0  0  0  0  0  0  0  0  0  0  0
    0.5401   -1.4152    0.0000 H   0  0  0  0  0  0  0  0  0  0  0  0
    0.5401   -0.3452    0.0000 H   0  0  0  0  0  0  0  0  0  0  0  0
   -1.1010    1.4273    0.0000 H   0  0  0  0  0  0  0  0  0  0  0  0
   -2.0276    0.8923    0.0000 H   0  0  0  0  0  0  0  0  0  0  0  0
    4.0795    1.6983    0.0000 H   0  0  0  0  0  0  0  0  0  0  0  0
    1.2217    2.3163    0.0000 H   0  0  0  0  0  0  0  0  0  0  0  0
    1.2217    4.1733    0.0000 H   0  0  0  0  0  0  0  0  0  0  0  0
   -1.9947    4.1733    0.0000 H   0  0  0  0  0  0  0  0  0  0  0  0
   -0.3865    5.1018    0.0000 H   0  0  0  0  0  0  0  0  0  0  0  0
   -1.3131    1.0598    0.0000 H   0  0  0  0  0  0  0  0  0  0  0  0
   -0.3865    0.5248    0.0000 H   0  0  0  0  0  0  0  0  0  0  0  0
   -2.7421   -1.4152    0.0000 H   0  0  0  0  0  0  0  0  0  0  0  0
   -2.7421   -0.3452    0.0000 H   0  0  0  0  0  0  0  0  0  0  0  0
    2.4714    2.6268    0.0000 H   0  0  0  0  0  0  0  0  0  0  0  0
    4.0795   -0.1587    0.0000 H   0  0  0  0  0  0  0  0  0  0  0  0
    2.4714   -1.0872    0.0000 H   0  0  0  0  0  0  0  0  0  0  0  0
  1 29  1  0  0  0  0
  1 30  1  0  0  0  0
  2  3  1  0  0  0  0
  2 20  1  0  0  0  0
  2 31  1  0  0  0  0
  2 32  1  0  0  0  0
  3 19  1  0  0  0  0
  3 33  1  0  0  0  0
  3 34  1  0  0  0  0
  4 19  1  0  0  0  0
  4 21  1  0  0  0  0
  4 35  1  0  0  0  0
  4 36  1  0  0  0  0
  5 18  1  0  0  0  0
  5 24  2  0  0  0  0
  5 19  1  0  0  0  0
  6  8  2  0  0  0  0
  6 27  1  0  0  0  0
  6 24  1  0  0  0  0
  7 25  2  0  0  0  0
  7 26  1  0  0  0  0
  7 37  1  0  0  0  0
  8 25  1  0  0  0  0
  8 22  1  0  0  0  0
  9 10  1  0  0  0  0
  9 17  1  0  0  0  0
  9 15  2  0  0  0  0
 10 11  2  0  0  0  0
 10 38  1  0  0  0  0
 11 16  1  0  0  0  0
 11 39  1  0  0  0  0
 12 16  2  0  0  0  0
 12 15  1  0  0  0  0
 12 40  1  0  0  0  0
 13 15  1  0  0  0  0
 13 14  3  0  0  0  0
 16 41  1  0  0  0  0
 17 18  1  0  0  0  0
 17 42  1  0  0  0  0
 17 43  1  0  0  0  0
 18 22  1  0  0  0  0
 20 21  1  0  0  0  0
 20 44  1  0  0  0  0
 20 45  1  0  0  0  0
 21  1  1  0  0  0  0
 21 28  1  6  0  0  0
 22 23  2  0  0  0  0
 25 46  1  0  0  0  0
 26 27  2  0  0  0  0
 26 47  1  0  0  0  0
 27 48  1  0  0  0  0
M  END
>  <DRUGBANK_ID>
DB08588

>  <COMMON_NAME>
2-({2-[(3R)-3-AMINOPIPERIDIN-1-YL]-4-OXOQUINAZOLIN-3(4H)-YL}METHYL)BENZONITRILE

$$$$
