
 OpenBabel10282417072D

 42 44  0  0  1  0  0  0  0  0999 V2000
   17.8239   -8.7812    0.0000 C   0  0  2  0  0  0  0  0  0  0  0  0
   17.8239   -9.6062    0.0000 N   0  0  0  0  0  0  0  0  0  0  0  0
   18.5384  -10.0187    0.0000 C   0  0  0  0  0  0  0  0  0  0  0  0
   19.2529   -9.6062    0.0000 C   0  0  0  0  0  0  0  0  0  0  0  0
   19.2529   -8.7812    0.0000 C   0  0  0  0  0  0  0  0  0  0  0  0
   18.5384   -8.3687    0.0000 S   0  0  0  0  0  0  0  0  0  0  0  0
   16.9989   -8.7812    0.0000 C   0  0  1  0  0  0  0  0  0  0  0  0
   16.9989   -9.6062    0.0000 C   0  0  0  0  0  0  0  0  0  0  0  0
   16.2844   -8.3687    0.0000 N   0  0  0  0  0  0  0  0  0  0  0  0
   15.5698   -8.7812    0.0000 C   0  0  0  0  0  0  0  0  0  0  0  0
   15.5698   -9.6062    0.0000 O   0  0  0  0  0  0  0  0  0  0  0  0
   16.2844  -10.0187    0.0000 O   0  0  0  0  0  0  0  0  0  0  0  0
   14.8553   -8.3687    0.0000 C   0  0  1  0  0  0  0  0  0  0  0  0
   19.9784  -10.0253    0.0000 C   0  0  0  0  0  0  0  0  0  0  0  0
   18.5384  -10.8436    0.0000 C   0  0  0  0  0  0  0  0  0  0  0  0
   17.8140  -11.2620    0.0000 O   0  0  0  0  0  0  0  0  0  0  0  0
   19.2429  -11.2505    0.0000 O   0  0  0  0  0  0  0  0  0  0  0  0
   14.1293   -8.7881    0.0000 C   0  0  0  0  0  0  0  0  0  0  0  0
   13.4158   -8.3761    0.0000 C   0  0  0  0  0  0  0  0  0  0  0  0
   12.7021   -8.7881    0.0000 C   0  0  0  0  0  0  0  0  0  0  0  0
   12.7021   -9.6121    0.0000 C   0  0  0  0  0  0  0  0  0  0  0  0
   13.4158  -10.0241    0.0000 C   0  0  0  0  0  0  0  0  0  0  0  0
   14.1293   -9.6121    0.0000 C   0  0  0  0  0  0  0  0  0  0  0  0
   14.8553   -7.5410    0.0000 N   0  0  0  0  0  0  0  0  0  0  0  0
   17.8239   -7.9553    0.0000 H   0  0  0  0  0  0  0  0  0  0  0  0
   11.9953  -10.0203    0.0000 O   0  0  0  0  0  0  0  0  0  0  0  0
   20.1795   -8.2462    0.0000 H   0  0  0  0  0  0  0  0  0  0  0  0
   19.2529   -7.7112    0.0000 H   0  0  0  0  0  0  0  0  0  0  0  0
   17.2758   -7.7477    0.0000 H   0  0  0  0  0  0  0  0  0  0  0  0
   16.2844   -7.3842    0.0000 H   0  0  0  0  0  0  0  0  0  0  0  0
   15.7819   -7.8337    0.0000 H   0  0  0  0  0  0  0  0  0  0  0  0
   19.9781  -11.0953    0.0000 H   0  0  0  0  0  0  0  0  0  0  0  0
   20.9052   -9.4905    0.0000 H   0  0  0  0  0  0  0  0  0  0  0  0
   20.9049  -10.5605    0.0000 H   0  0  0  0  0  0  0  0  0  0  0  0
   19.2427  -12.1875    0.0000 H   0  0  0  0  0  0  0  0  0  0  0  0
   13.4159   -7.3441    0.0000 H   0  0  0  0  0  0  0  0  0  0  0  0
   11.8084   -8.2721    0.0000 H   0  0  0  0  0  0  0  0  0  0  0  0
   13.4159  -11.0561    0.0000 H   0  0  0  0  0  0  0  0  0  0  0  0
   15.0231  -10.1281    0.0000 H   0  0  0  0  0  0  0  0  0  0  0  0
   15.7386   -7.0310    0.0000 H   0  0  0  0  0  0  0  0  0  0  0  0
   13.9720   -7.0310    0.0000 H   0  0  0  0  0  0  0  0  0  0  0  0
   11.1838   -9.5519    0.0000 H   0  0  0  0  0  0  0  0  0  0  0  0
  1  2  1  0  0  0  0
  1  6  1  0  0  0  0
  1  7  1  0  0  0  0
  1 25  1  6  0  0  0
  2  3  1  0  0  0  0
  2  8  1  0  0  0  0
  3  4  2  0  0  0  0
  3 15  1  0  0  0  0
  4  5  1  0  0  0  0
  4 14  1  0  0  0  0
  5  6  1  0  0  0  0
  5 27  1  0  0  0  0
  5 28  1  0  0  0  0
  7  8  1  0  0  0  0
  7  9  1  0  0  0  0
  7 29  1  6  0  0  0
  8 12  2  0  0  0  0
  9 10  1  0  0  0  0
  9 30  1  0  0  0  0
 10 11  2  0  0  0  0
 10 13  1  0  0  0  0
 13 18  1  0  0  0  0
 13 24  1  0  0  0  0
 13 31  1  6  0  0  0
 14 32  1  0  0  0  0
 14 33  1  0  0  0  0
 14 34  1  0  0  0  0
 15 16  2  0  0  0  0
 15 17  1  0  0  0  0
 17 35  1  0  0  0  0
 18 19  2  0  0  0  0
 18 23  1  0  0  0  0
 19 20  1  0  0  0  0
 19 36  1  0  0  0  0
 20 21  2  0  0  0  0
 20 37  1  0  0  0  0
 21 22  1  0  0  0  0
 21 26  1  0  0  0  0
 22 23  2  0  0  0  0
 22 38  1  0  0  0  0
 23 39  1  0  0  0  0
 24 40  1  0  0  0  0
 24 41  1  0  0  0  0
 26 42  1  0  0  0  0
M  END
>  <DRUGBANK_ID>
DB01140

>  <SECONDARY_ACCESSION_NUMBERS>
APRD00196

>  <COMMON_NAME>
Cefadroxil

>  <CAS_NUMBER>
50370-12-2

>  <UNII>
Q525PA8JJB

>  <SYNONYMS>
CDX; Cefadroxil; Cefadroxil anhydrous; Cefadroxilo; Cefadroxilum; Cephadroxil; D-Cefadroxil

$$$$
