
 OpenBabel10282417072D

 75 78  0  0  1  0  0  0  0  0999 V2000
   -1.7029    0.2165    0.0000 C   0  0  0  0  0  0  0  0  0  0  0  0
   -2.4173   -0.1960    0.0000 C   0  0  0  0  0  0  0  0  0  0  0  0
   -1.7029   -1.4335    0.0000 C   0  0  0  0  0  0  0  0  0  0  0  0
   -0.2739   -1.4335    0.0000 C   0  0  0  0  0  0  0  0  0  0  0  0
   -0.9884   -0.1960    0.0000 C   0  0  2  0  0  0  0  0  0  0  0  0
   -0.2739    1.0415    0.0000 C   0  0  0  0  0  0  0  0  0  0  0  0
    0.4405    1.4540    0.0000 C   0  0  0  0  0  0  0  0  0  0  0  0
    1.9396   -0.0384    0.0000 C   0  0  0  0  0  0  0  0  0  0  0  0
    2.4246    0.6290    0.0000 C   0  0  0  0  0  0  0  0  0  0  0  0
   -0.9884    0.6290    0.0000 C   0  0  0  0  0  0  0  0  0  0  0  0
   -0.2739    0.2165    0.0000 C   0  0  1  0  0  0  0  0  0  0  0  0
    0.4405   -0.1960    0.0000 C   0  0  2  0  0  0  0  0  0  0  0  0
    1.1550    0.2165    0.0000 C   0  0  1  0  0  0  0  0  0  0  0  0
    1.1550    1.0415    0.0000 C   0  0  2  0  0  0  0  0  0  0  0  0
    1.1550    1.8665    0.0000 C   0  0  0  0  0  0  0  0  0  0  0  0
    3.3686    2.1214    0.0000 C   0  0  0  0  0  0  0  0  0  0  0  0
    2.6541    2.5339    0.0000 C   0  0  0  0  0  0  0  0  0  0  0  0
    1.2251    2.5339    0.0000 C   0  0  0  0  0  0  0  0  0  0  0  0
    1.9396    2.1214    0.0000 C   0  0  1  0  0  0  0  0  0  0  0  0
    1.9396    1.2964    0.0000 C   0  0  1  0  0  0  0  0  0  0  0  0
   -2.4173   -1.0210    0.0000 C   0  0  2  0  0  0  0  0  0  0  0  0
   -3.1318   -1.4335    0.0000 O   0  0  0  0  0  0  0  0  0  0  0  0
    0.4405   -1.0210    0.0000 C   0  0  2  0  0  0  0  0  0  0  0  0
    1.1550   -1.4335    0.0000 O   0  0  0  0  0  0  0  0  0  0  0  0
   -0.9884   -1.0210    0.0000 C   0  0  1  0  0  0  0  0  0  0  0  0
    4.0830    2.5339    0.0000 C   0  0  0  0  0  0  0  0  0  0  0  0
    4.0830    3.3589    0.0000 O   0  0  0  0  0  0  0  0  0  0  0  0
    4.7975    2.1214    0.0000 N   0  0  0  0  0  0  0  0  0  0  0  0
    5.5119    2.5339    0.0000 C   0  0  0  0  0  0  0  0  0  0  0  0
    6.9409    2.5339    0.0000 O   0  0  0  0  0  0  0  0  0  0  0  0
    6.2264    2.1214    0.0000 C   0  0  0  0  0  0  0  0  0  0  0  0
    6.2264    1.2964    0.0000 O   0  0  0  0  0  0  0  0  0  0  0  0
   -1.7029    1.2865    0.0000 H   0  0  0  0  0  0  0  0  0  0  0  0
   -2.6296    0.7515    0.0000 H   0  0  0  0  0  0  0  0  0  0  0  0
   -3.3440    0.3390    0.0000 H   0  0  0  0  0  0  0  0  0  0  0  0
   -3.3439   -0.7310    0.0000 H   0  0  0  0  0  0  0  0  0  0  0  0
   -1.7029   -2.5035    0.0000 H   0  0  0  0  0  0  0  0  0  0  0  0
   -2.6296   -1.9685    0.0000 H   0  0  0  0  0  0  0  0  0  0  0  0
   -0.2739   -2.5035    0.0000 H   0  0  0  0  0  0  0  0  0  0  0  0
   -1.2005   -1.9685    0.0000 H   0  0  0  0  0  0  0  0  0  0  0  0
   -1.2006    1.5765    0.0000 H   0  0  0  0  0  0  0  0  0  0  0  0
   -0.2739    2.1115    0.0000 H   0  0  0  0  0  0  0  0  0  0  0  0
    0.4405    2.5240    0.0000 H   0  0  0  0  0  0  0  0  0  0  0  0
   -0.4862    1.9890    0.0000 H   0  0  0  0  0  0  0  0  0  0  0  0
    2.2702   -1.0560    0.0000 H   0  0  0  0  0  0  0  0  0  0  0  0
    2.9964   -0.2059    0.0000 H   0  0  0  0  0  0  0  0  0  0  0  0
    3.4946    0.6290    0.0000 H   0  0  0  0  0  0  0  0  0  0  0  0
    2.9103   -0.3244    0.0000 H   0  0  0  0  0  0  0  0  0  0  0  0
   -0.0618    1.1640    0.0000 H   0  0  0  0  0  0  0  0  0  0  0  0
   -1.9150    1.1640    0.0000 H   0  0  0  0  0  0  0  0  0  0  0  0
   -0.9884    1.6990    0.0000 H   0  0  0  0  0  0  0  0  0  0  0  0
   -1.2005    0.7515    0.0000 H   0  0  0  0  0  0  0  0  0  0  0  0
    1.3671   -0.7310    0.0000 H   0  0  0  0  0  0  0  0  0  0  0  0
    2.0206    0.8454    0.0000 H   0  0  0  0  0  0  0  0  0  0  0  0
    2.0816    2.4015    0.0000 H   0  0  0  0  0  0  0  0  0  0  0  0
    0.2284    2.4015    0.0000 H   0  0  0  0  0  0  0  0  0  0  0  0
    1.1550    2.9365    0.0000 H   0  0  0  0  0  0  0  0  0  0  0  0
    3.3686    1.0514    0.0000 H   0  0  0  0  0  0  0  0  0  0  0  0
    4.2953    1.5864    0.0000 H   0  0  0  0  0  0  0  0  0  0  0  0
    2.6541    3.6039    0.0000 H   0  0  0  0  0  0  0  0  0  0  0  0
    1.7275    3.0689    0.0000 H   0  0  0  0  0  0  0  0  0  0  0  0
    1.2251    3.6039    0.0000 H   0  0  0  0  0  0  0  0  0  0  0  0
    0.2985    1.9989    0.0000 H   0  0  0  0  0  0  0  0  0  0  0  0
    0.2984    3.0689    0.0000 H   0  0  0  0  0  0  0  0  0  0  0  0
    1.9396    3.1914    0.0000 H   0  0  0  0  0  0  0  0  0  0  0  0
    1.0740    1.9253    0.0000 H   0  0  0  0  0  0  0  0  0  0  0  0
   -2.4173   -2.0910    0.0000 H   0  0  0  0  0  0  0  0  0  0  0  0
   -3.9718   -0.9485    0.0000 H   0  0  0  0  0  0  0  0  0  0  0  0
   -0.4862   -0.4860    0.0000 H   0  0  0  0  0  0  0  0  0  0  0  0
    1.1550   -2.4035    0.0000 H   0  0  0  0  0  0  0  0  0  0  0  0
   -1.9150   -0.4860    0.0000 H   0  0  0  0  0  0  0  0  0  0  0  0
    4.7975    1.1369    0.0000 H   0  0  0  0  0  0  0  0  0  0  0  0
    5.5119    3.6039    0.0000 H   0  0  0  0  0  0  0  0  0  0  0  0
    6.4385    3.0689    0.0000 H   0  0  0  0  0  0  0  0  0  0  0  0
    7.7524    2.0654    0.0000 H   0  0  0  0  0  0  0  0  0  0  0  0
  1 33  1  0  0  0  0
  1 34  1  0  0  0  0
  2  1  1  0  0  0  0
  2 35  1  0  0  0  0
  2 36  1  0  0  0  0
  3 37  1  0  0  0  0
  3 38  1  0  0  0  0
  4 23  1  0  0  0  0
  4 39  1  0  0  0  0
  4 40  1  0  0  0  0
  5 11  1  0  0  0  0
  5 10  1  1  0  0  0
  5  1  1  0  0  0  0
  6  7  1  0  0  0  0
  6 41  1  0  0  0  0
  6 42  1  0  0  0  0
  7 43  1  0  0  0  0
  7 44  1  0  0  0  0
  8 45  1  0  0  0  0
  8 46  1  0  0  0  0
  9  8  1  0  0  0  0
  9 47  1  0  0  0  0
  9 48  1  0  0  0  0
 10 49  1  0  0  0  0
 10 50  1  0  0  0  0
 10 51  1  0  0  0  0
 11  6  1  0  0  0  0
 11 12  1  0  0  0  0
 11 52  1  6  0  0  0
 12 13  1  0  0  0  0
 12 23  1  0  0  0  0
 12 53  1  1  0  0  0
 13 14  1  0  0  0  0
 13  8  1  0  0  0  0
 13 54  1  6  0  0  0
 14 20  1  0  0  0  0
 14  7  1  0  0  0  0
 14 15  1  1  0  0  0
 15 55  1  0  0  0  0
 15 56  1  0  0  0  0
 15 57  1  0  0  0  0
 16 17  1  0  0  0  0
 16 26  1  0  0  0  0
 16 58  1  0  0  0  0
 16 59  1  0  0  0  0
 17 60  1  0  0  0  0
 17 61  1  0  0  0  0
 18 62  1  0  0  0  0
 18 63  1  0  0  0  0
 18 64  1  0  0  0  0
 19 17  1  0  0  0  0
 19 18  1  0  0  0  0
 19 65  1  1  0  0  0
 20  9  1  0  0  0  0
 20 19  1  0  0  0  0
 20 66  1  6  0  0  0
 21  3  1  0  0  0  0
 21  2  1  0  0  0  0
 21 22  1  0  0  0  0
 21 67  1  1  0  0  0
 22 68  1  0  0  0  0
 23 24  1  0  0  0  0
 23 69  1  1  0  0  0
 24 70  1  0  0  0  0
 25  5  1  0  0  0  0
 25  3  1  0  0  0  0
 25  4  1  0  0  0  0
 25 71  1  1  0  0  0
 26 28  1  0  0  0  0
 26 27  2  0  0  0  0
 28 29  1  0  0  0  0
 28 72  1  0  0  0  0
 29 31  1  0  0  0  0
 29 73  1  0  0  0  0
 29 74  1  0  0  0  0
 30 75  1  0  0  0  0
 31 30  1  0  0  0  0
 31 32  2  0  0  0  0
M  END
>  <DRUGBANK_ID>
DB02123

>  <SECONDARY_ACCESSION_NUMBERS>
EXPT00909

>  <COMMON_NAME>
Glycochenodeoxycholic Acid

>  <CAS_NUMBER>
640-79-9

>  <UNII>
451ZNJ667Y

$$$$
