
 OpenBabel10282417072D

 51 55  0  0  0  0  0  0  0  0999 V2000
   -0.9919    0.0929    0.0000 C   0  0  0  0  0  0  0  0  0  0  0  0
   -1.7065   -0.3196    0.0000 C   0  0  0  0  0  0  0  0  0  0  0  0
   -1.7065   -1.1447    0.0000 C   0  0  0  0  0  0  0  0  0  0  0  0
   -0.9919   -1.5571    0.0000 C   0  0  2  0  0  0  0  0  0  0  0  0
   -0.2775   -1.1447    0.0000 C   0  0  1  0  0  0  0  0  0  0  0  0
   -0.2775   -0.3196    0.0000 C   0  0  1  0  0  0  0  0  0  0  0  0
    0.4368    0.0929    0.0000 C   0  0  2  0  0  0  0  0  0  0  0  0
    0.4368   -1.5571    0.0000 C   0  0  0  0  0  0  0  0  0  0  0  0
    1.1514   -1.1447    0.0000 C   0  0  0  0  0  0  0  0  0  0  0  0
    1.1514   -0.3196    0.0000 C   0  0  1  0  0  0  0  0  0  0  0  0
    1.1514    1.3304    0.0000 C   0  0  0  0  0  0  0  0  0  0  0  0
    0.4368    0.9179    0.0000 C   0  0  0  0  0  0  0  0  0  0  0  0
    1.8658    0.0929    0.0000 C   0  0  1  0  0  0  0  0  0  0  0  0
    1.8658    0.9179    0.0000 C   0  0  1  0  0  0  0  0  0  0  0  0
    2.6505    1.1728    0.0000 C   0  0  2  0  0  0  0  0  0  0  0  0
    2.6505   -0.1620    0.0000 C   0  0  0  0  0  0  0  0  0  0  0  0
    3.1354    0.5053    0.0000 C   0  0  0  0  0  0  0  0  0  0  0  0
   -2.4208   -1.5571    0.0000 O   0  0  0  0  0  0  0  0  0  0  0  0
   -2.4208    0.0928    0.0000 C   0  0  0  0  0  0  0  0  0  0  0  0
   -3.1353    0.5053    0.0000 N   0  0  0  0  0  0  0  0  0  0  0  0
   -0.2775   -1.9696    0.0000 O   0  0  0  0  0  0  0  0  0  0  0  0
    0.4368   -0.7320    0.0000 H   0  0  0  0  0  0  0  0  0  0  0  0
    1.8658   -0.7320    0.0000 H   0  0  0  0  0  0  0  0  0  0  0  0
   -0.2775    0.5053    0.0000 C   0  0  0  0  0  0  0  0  0  0  0  0
    1.8658    1.7429    0.0000 C   0  0  0  0  0  0  0  0  0  0  0  0
    2.8640    1.9697    0.0000 O   0  0  0  0  0  0  0  0  0  0  0  0
    1.1514    0.5053    0.0000 H   0  0  0  0  0  0  0  0  0  0  0  0
   -0.9918    1.1629    0.0000 H   0  0  0  0  0  0  0  0  0  0  0  0
   -0.0652    0.6279    0.0000 H   0  0  0  0  0  0  0  0  0  0  0  0
   -1.5268   -2.4838    0.0000 H   0  0  0  0  0  0  0  0  0  0  0  0
    0.4367   -2.6271    0.0000 H   0  0  0  0  0  0  0  0  0  0  0  0
    1.3634   -2.0922    0.0000 H   0  0  0  0  0  0  0  0  0  0  0  0
    2.0780   -1.6798    0.0000 H   0  0  0  0  0  0  0  0  0  0  0  0
    2.0781   -0.6097    0.0000 H   0  0  0  0  0  0  0  0  0  0  0  0
    1.1515    2.4004    0.0000 H   0  0  0  0  0  0  0  0  0  0  0  0
    2.0781    1.8654    0.0000 H   0  0  0  0  0  0  0  0  0  0  0  0
   -0.4898    1.4529    0.0000 H   0  0  0  0  0  0  0  0  0  0  0  0
    0.4369    1.9879    0.0000 H   0  0  0  0  0  0  0  0  0  0  0  0
    1.8744    1.9094    0.0000 H   0  0  0  0  0  0  0  0  0  0  0  0
    2.9811   -1.1796    0.0000 H   0  0  0  0  0  0  0  0  0  0  0  0
    3.7073   -0.3294    0.0000 H   0  0  0  0  0  0  0  0  0  0  0  0
    4.2054    0.5052    0.0000 H   0  0  0  0  0  0  0  0  0  0  0  0
    3.6212    1.4586    0.0000 H   0  0  0  0  0  0  0  0  0  0  0  0
   -3.2323   -1.0886    0.0000 H   0  0  0  0  0  0  0  0  0  0  0  0
    0.6491    1.0403    0.0000 H   0  0  0  0  0  0  0  0  0  0  0  0
   -1.2041    1.0403    0.0000 H   0  0  0  0  0  0  0  0  0  0  0  0
   -0.2775    1.5753    0.0000 H   0  0  0  0  0  0  0  0  0  0  0  0
    2.7924    2.2779    0.0000 H   0  0  0  0  0  0  0  0  0  0  0  0
    0.9392    2.2779    0.0000 H   0  0  0  0  0  0  0  0  0  0  0  0
    1.8658    2.8129    0.0000 H   0  0  0  0  0  0  0  0  0  0  0  0
    3.8009    2.2208    0.0000 H   0  0  0  0  0  0  0  0  0  0  0  0
  1  2  1  0  0  0  0
  1  6  1  0  0  0  0
  1 28  1  0  0  0  0
  1 29  1  0  0  0  0
  2  3  2  0  0  0  0
  2 19  1  0  0  0  0
  3  4  1  0  0  0  0
  3 18  1  0  0  0  0
  4  5  1  0  0  0  0
  4 21  1  0  0  0  0
  4 30  1  1  0  0  0
  5  8  1  0  0  0  0
  5 21  1  6  0  0  0
  6  5  1  0  0  0  0
  6 24  1  1  0  0  0
  7  6  1  0  0  0  0
  7 10  1  0  0  0  0
  7 22  1  6  0  0  0
  8  9  1  0  0  0  0
  8 31  1  0  0  0  0
  8 32  1  0  0  0  0
  9 10  1  0  0  0  0
  9 33  1  0  0  0  0
  9 34  1  0  0  0  0
 10 13  1  0  0  0  0
 10 27  1  1  0  0  0
 11 12  1  0  0  0  0
 11 14  1  0  0  0  0
 11 35  1  0  0  0  0
 11 36  1  0  0  0  0
 12  7  1  0  0  0  0
 12 37  1  0  0  0  0
 12 38  1  0  0  0  0
 13 16  1  0  0  0  0
 13 23  1  6  0  0  0
 14 13  1  0  0  0  0
 14 25  1  1  0  0  0
 15 14  1  0  0  0  0
 15 17  1  0  0  0  0
 15 26  1  0  0  0  0
 15 39  1  6  0  0  0
 16 17  1  0  0  0  0
 16 40  1  0  0  0  0
 16 41  1  0  0  0  0
 17 42  1  0  0  0  0
 17 43  1  0  0  0  0
 18 44  1  0  0  0  0
 19 20  3  0  0  0  0
 24 45  1  0  0  0  0
 24 46  1  0  0  0  0
 24 47  1  0  0  0  0
 25 48  1  0  0  0  0
 25 49  1  0  0  0  0
 25 50  1  0  0  0  0
 26 51  1  0  0  0  0
M  END
>  <DRUGBANK_ID>
DB01108

>  <SECONDARY_ACCESSION_NUMBERS>
APRD01276

>  <COMMON_NAME>
Trilostane

>  <CAS_NUMBER>
13647-35-3

>  <UNII>
L0FPV48Q5R

>  <SYNONYMS>
Trilostane; Trilostano; Trilostanum

$$$$
