HM2
 OpenBabel10282417072D

 40 42  0  0  0  0  0  0  0  0999 V2000
    0.8731   -1.3160    0.0000 N   0  0  0  0  0  0  0  0  0  0  0  0
   -0.5558   -0.4910    0.0000 N   0  0  0  0  0  0  0  0  0  0  0  0
   -1.2703   -1.7285    0.0000 N   0  0  0  0  0  0  0  0  0  0  0  0
   -1.2703    0.7465    0.0000 N   0  0  0  0  0  0  0  0  0  0  0  0
    1.5876   -1.7285    0.0000 C   0  0  0  0  0  0  0  0  0  0  0  0
    1.5876   -2.5535    0.0000 C   0  0  0  0  0  0  0  0  0  0  0  0
    0.8731   -2.9660    0.0000 C   0  0  0  0  0  0  0  0  0  0  0  0
    0.1586   -2.5535    0.0000 C   0  0  0  0  0  0  0  0  0  0  0  0
    0.1586   -1.7285    0.0000 C   0  0  0  0  0  0  0  0  0  0  0  0
   -0.5558   -1.3160    0.0000 C   0  0  0  0  0  0  0  0  0  0  0  0
   -1.2703   -0.0785    0.0000 C   0  0  0  0  0  0  0  0  0  0  0  0
   -1.9848   -1.3160    0.0000 C   0  0  0  0  0  0  0  0  0  0  0  0
   -1.9848   -0.4910    0.0000 C   0  0  0  0  0  0  0  0  0  0  0  0
   -0.5558    1.1590    0.0000 C   0  0  0  0  0  0  0  0  0  0  0  0
   -0.5558    1.9840    0.0000 C   0  0  0  0  0  0  0  0  0  0  0  0
    0.1586    2.3965    0.0000 C   0  0  0  0  0  0  0  0  0  0  0  0
    0.1586    3.2215    0.0000 C   0  0  0  0  0  0  0  0  0  0  0  0
    0.8731    3.6340    0.0000 C   0  0  0  0  0  0  0  0  0  0  0  0
    1.5876    3.2215    0.0000 C   0  0  0  0  0  0  0  0  0  0  0  0
    1.5876    2.3965    0.0000 C   0  0  0  0  0  0  0  0  0  0  0  0
    0.8731    1.9840    0.0000 C   0  0  0  0  0  0  0  0  0  0  0  0
   -2.6993   -1.7285    0.0000 C   0  0  0  0  0  0  0  0  0  0  0  0
   -2.6993   -0.0785    0.0000 Cl  0  0  0  0  0  0  0  0  0  0  0  0
   -2.1229    1.2388    0.0000 H   0  0  0  0  0  0  0  0  0  0  0  0
    2.4813   -1.2125    0.0000 H   0  0  0  0  0  0  0  0  0  0  0  0
    2.4813   -3.0695    0.0000 H   0  0  0  0  0  0  0  0  0  0  0  0
    0.8731   -3.9980    0.0000 H   0  0  0  0  0  0  0  0  0  0  0  0
   -0.7351   -3.0695    0.0000 H   0  0  0  0  0  0  0  0  0  0  0  0
    0.3708    0.6240    0.0000 H   0  0  0  0  0  0  0  0  0  0  0  0
    0.3708    1.6940    0.0000 H   0  0  0  0  0  0  0  0  0  0  0  0
   -1.4825    2.5190    0.0000 H   0  0  0  0  0  0  0  0  0  0  0  0
   -0.5558    3.0540    0.0000 H   0  0  0  0  0  0  0  0  0  0  0  0
   -0.7351    3.7375    0.0000 H   0  0  0  0  0  0  0  0  0  0  0  0
    0.8731    4.6660    0.0000 H   0  0  0  0  0  0  0  0  0  0  0  0
    2.4813    3.7375    0.0000 H   0  0  0  0  0  0  0  0  0  0  0  0
    2.4813    1.8805    0.0000 H   0  0  0  0  0  0  0  0  0  0  0  0
    0.8731    0.9520    0.0000 H   0  0  0  0  0  0  0  0  0  0  0  0
   -3.6259   -1.1935    0.0000 H   0  0  0  0  0  0  0  0  0  0  0  0
   -2.6993   -2.7985    0.0000 H   0  0  0  0  0  0  0  0  0  0  0  0
   -3.6260   -2.2635    0.0000 H   0  0  0  0  0  0  0  0  0  0  0  0
  1  5  1  0  0  0  0
  1  9  2  0  0  0  0
  2 10  1  0  0  0  0
  2 11  2  0  0  0  0
  3 10  2  0  0  0  0
  3 12  1  0  0  0  0
  4 11  1  0  0  0  0
  4 14  1  0  0  0  0
  4 24  1  0  0  0  0
  5  6  2  0  0  0  0
  5 25  1  0  0  0  0
  6  7  1  0  0  0  0
  6 26  1  0  0  0  0
  7  8  2  0  0  0  0
  7 27  1  0  0  0  0
  8  9  1  0  0  0  0
  8 28  1  0  0  0  0
  9 10  1  0  0  0  0
 11 13  1  0  0  0  0
 12 13  2  0  0  0  0
 12 22  1  0  0  0  0
 13 23  1  0  0  0  0
 14 15  1  0  0  0  0
 14 29  1  0  0  0  0
 14 30  1  0  0  0  0
 15 16  1  0  0  0  0
 15 31  1  0  0  0  0
 15 32  1  0  0  0  0
 16 17  1  0  0  0  0
 16 21  2  0  0  0  0
 17 18  2  0  0  0  0
 17 33  1  0  0  0  0
 18 19  1  0  0  0  0
 18 34  1  0  0  0  0
 19 20  2  0  0  0  0
 19 35  1  0  0  0  0
 20 21  1  0  0  0  0
 20 36  1  0  0  0  0
 21 37  1  0  0  0  0
 22 38  1  0  0  0  0
 22 39  1  0  0  0  0
 22 40  1  0  0  0  0
M  END
>  <DRUGBANK_ID>
DB07901

>  <COMMON_NAME>
5-CHLORO-6-METHYL-N-(2-PHENYLETHYL)-2-PYRIDIN-2-YLPYRIMIDIN-4-AMINE

$$$$
