A05
 OpenBabel10282417072D

 24 25  0  0  0  0  0  0  0  0999 V2000
   -1.3668    2.9776    0.0000 O   0  0  0  0  0  0  0  0  0  0  0  0
   -0.6523    2.5651    0.0000 C   0  0  0  0  0  0  0  0  0  0  0  0
    0.0622    2.9776    0.0000 O   0  0  0  0  0  0  0  0  0  0  0  0
   -0.6523    1.7401    0.0000 C   0  0  0  0  0  0  0  0  0  0  0  0
    0.0151    1.2551    0.0000 O   0  0  0  0  0  0  0  0  0  0  0  0
   -1.3197    1.2551    0.0000 C   0  0  0  0  0  0  0  0  0  0  0  0
   -1.0648    0.4705    0.0000 C   0  0  0  0  0  0  0  0  0  0  0  0
   -0.2398    0.4705    0.0000 C   0  0  0  0  0  0  0  0  0  0  0  0
    0.2451   -0.1969    0.0000 C   0  0  0  0  0  0  0  0  0  0  0  0
    1.0656   -0.1107    0.0000 C   0  0  0  0  0  0  0  0  0  0  0  0
    1.5505   -0.7781    0.0000 C   0  0  0  0  0  0  0  0  0  0  0  0
    1.2150   -1.5318    0.0000 C   0  0  0  0  0  0  0  0  0  0  0  0
    1.6999   -2.1992    0.0000 N   0  3  0  0  0  0  0  0  0  0  0  0
    2.5204   -2.1130    0.0000 O   0  5  0  0  0  0  0  0  0  0  0  0
    1.3643   -2.9529    0.0000 O   0  0  0  0  0  0  0  0  0  0  0  0
    0.3945   -1.6180    0.0000 C   0  0  0  0  0  0  0  0  0  0  0  0
   -0.0904   -0.9506    0.0000 C   0  0  0  0  0  0  0  0  0  0  0  0
   -0.9109   -1.0368    0.0000 Cl  0  0  0  0  0  0  0  0  0  0  0  0
   -1.3668    3.9146    0.0000 H   0  0  0  0  0  0  0  0  0  0  0  0
   -2.3012    1.5740    0.0000 H   0  0  0  0  0  0  0  0  0  0  0  0
   -1.6714   -0.3644    0.0000 H   0  0  0  0  0  0  0  0  0  0  0  0
    1.4854    0.8321    0.0000 H   0  0  0  0  0  0  0  0  0  0  0  0
    2.5768   -0.6702    0.0000 H   0  0  0  0  0  0  0  0  0  0  0  0
   -0.0253   -2.5608    0.0000 H   0  0  0  0  0  0  0  0  0  0  0  0
  1  2  1  0  0  0  0
  1 19  1  0  0  0  0
  2  3  2  0  0  0  0
  2  4  1  0  0  0  0
  4  5  1  0  0  0  0
  4  6  2  0  0  0  0
  5  8  1  0  0  0  0
  6  7  1  0  0  0  0
  6 20  1  0  0  0  0
  7  8  2  0  0  0  0
  7 21  1  0  0  0  0
  8  9  1  0  0  0  0
  9 10  2  0  0  0  0
  9 17  1  0  0  0  0
 10 11  1  0  0  0  0
 10 22  1  0  0  0  0
 11 12  2  0  0  0  0
 11 23  1  0  0  0  0
 12 13  1  0  0  0  0
 12 16  1  0  0  0  0
 13 14  1  0  0  0  0
 13 15  2  0  0  0  0
 16 17  2  0  0  0  0
 16 24  1  0  0  0  0
 17 18  1  0  0  0  0
M  CHG  2  13   1  14  -1
M  END
>  <DRUGBANK_ID>
DB07305

>  <COMMON_NAME>
5-(2-CHLORO-4-NITROPHENYL)-2-FUROIC ACID

$$$$
