
 OpenBabel10282417072D

  2  1  0  0  0  0  0  0  0  0999 V2000
    0.0000   -0.4125    0.0000 Cl  0  0  0  0  0  0  0  0  0  0  0  0
    0.0000    0.4125    0.0000 Cl  0  0  0  0  0  0  0  0  0  0  0  0
  1  2  1  0  0  0  0
M  END
>  <DRUGBANK_ID>
DB11109

>  <COMMON_NAME>
Chlorine

>  <CAS_NUMBER>
7782-50-5

>  <UNII>
4R7X1O2820

>  <SYNONYMS>
Chlor; Chlore; Cloro; Dichlorine

$$$$
