
 OpenBabel10282417072D

 52 54  0  0  0  0  0  0  0  0999 V2000
   -1.2412    0.3794    0.0000 C   0  0  0  0  0  0  0  0  0  0  0  0
    3.7112    0.7919    0.0000 C   0  0  0  0  0  0  0  0  0  0  0  0
   -3.1170   -3.1564    0.0000 C   0  0  0  0  0  0  0  0  0  0  0  0
   -3.7112   -0.3609    0.0000 C   0  0  0  0  0  0  0  0  0  0  0  0
   -3.6690   -2.5433    0.0000 C   0  0  0  0  0  0  0  0  0  0  0  0
    1.5677   -0.4455    0.0000 C   0  0  0  0  0  0  0  0  0  0  0  0
    2.2822   -0.0330    0.0000 C   0  0  0  0  0  0  0  0  0  0  0  0
   -1.2481   -2.0287    0.0000 C   0  0  0  0  0  0  0  0  0  0  0  0
   -1.5452   -0.6310    0.0000 C   0  0  0  0  0  0  0  0  0  0  0  0
   -0.4162    0.3794    0.0000 C   0  0  0  0  0  0  0  0  0  0  0  0
   -0.9932   -1.2441    0.0000 C   0  0  0  0  0  0  0  0  0  0  0  0
    0.8533   -0.0330    0.0000 C   0  0  0  0  0  0  0  0  0  0  0  0
    2.2822    0.7919    0.0000 C   0  0  0  0  0  0  0  0  0  0  0  0
   -2.0551   -2.2002    0.0000 C   0  0  0  0  0  0  0  0  0  0  0  0
   -2.3522   -0.8025    0.0000 C   0  0  0  0  0  0  0  0  0  0  0  0
    0.0687   -0.2879    0.0000 C   0  0  0  0  0  0  0  0  0  0  0  0
   -0.1862   -1.0726    0.0000 C   0  0  0  0  0  0  0  0  0  0  0  0
    0.8533    0.7919    0.0000 C   0  0  0  0  0  0  0  0  0  0  0  0
   -2.6071   -1.5871    0.0000 C   0  0  0  0  0  0  0  0  0  0  0  0
    1.5677    1.2044    0.0000 C   0  0  0  0  0  0  0  0  0  0  0  0
    0.3658   -1.6856    0.0000 O   0  0  0  0  0  0  0  0  0  0  0  0
    1.8697    3.1564    0.0000 O   0  0  0  0  0  0  0  0  0  0  0  0
    2.9967    2.8544    0.0000 O   0  0  0  0  0  0  0  0  0  0  0  0
    2.6947    1.7274    0.0000 O   0  0  0  0  0  0  0  0  0  0  0  0
    2.9967    1.2044    0.0000 O   0  0  0  0  0  0  0  0  0  0  0  0
   -2.3100   -2.9849    0.0000 O   0  0  0  0  0  0  0  0  0  0  0  0
   -2.9042   -0.1894    0.0000 O   0  0  0  0  0  0  0  0  0  0  0  0
   -3.4141   -1.7587    0.0000 O   0  0  0  0  0  0  0  0  0  0  0  0
    0.0687    1.0468    0.0000 O   0  0  0  0  0  0  0  0  0  0  0  0
    1.5677    2.0294    0.0000 O   0  0  0  0  0  0  0  0  0  0  0  0
    2.2822    2.4419    0.0000 P   0  0  0  0  0  0  0  0  0  0  0  0
   -1.7762    1.3060    0.0000 H   0  0  0  0  0  0  0  0  0  0  0  0
   -1.7762   -0.5472    0.0000 H   0  0  0  0  0  0  0  0  0  0  0  0
   -2.3112    0.3794    0.0000 H   0  0  0  0  0  0  0  0  0  0  0  0
    3.7112   -0.2781    0.0000 H   0  0  0  0  0  0  0  0  0  0  0  0
    4.6378    1.3269    0.0000 H   0  0  0  0  0  0  0  0  0  0  0  0
    4.6379    0.2569    0.0000 H   0  0  0  0  0  0  0  0  0  0  0  0
   -3.8329   -2.3612    0.0000 H   0  0  0  0  0  0  0  0  0  0  0  0
   -3.4477   -4.1740    0.0000 H   0  0  0  0  0  0  0  0  0  0  0  0
   -4.1636   -3.3788    0.0000 H   0  0  0  0  0  0  0  0  0  0  0  0
   -4.4271    0.4343    0.0000 H   0  0  0  0  0  0  0  0  0  0  0  0
   -4.0419   -1.3785    0.0000 H   0  0  0  0  0  0  0  0  0  0  0  0
   -4.7578   -0.5833    0.0000 H   0  0  0  0  0  0  0  0  0  0  0  0
   -4.7156   -2.7658    0.0000 H   0  0  0  0  0  0  0  0  0  0  0  0
   -2.9530   -3.3384    0.0000 H   0  0  0  0  0  0  0  0  0  0  0  0
   -3.9996   -3.5609    0.0000 H   0  0  0  0  0  0  0  0  0  0  0  0
    1.5677   -1.4775    0.0000 H   0  0  0  0  0  0  0  0  0  0  0  0
    3.1759   -0.5490    0.0000 H   0  0  0  0  0  0  0  0  0  0  0  0
   -0.5576   -2.7956    0.0000 H   0  0  0  0  0  0  0  0  0  0  0  0
   -1.2263    0.3505    0.0000 H   0  0  0  0  0  0  0  0  0  0  0  0
    2.3547    3.9964    0.0000 H   0  0  0  0  0  0  0  0  0  0  0  0
    3.8367    2.3694    0.0000 H   0  0  0  0  0  0  0  0  0  0  0  0
  1 32  1  0  0  0  0
  1 33  1  0  0  0  0
  1 34  1  0  0  0  0
  2 35  1  0  0  0  0
  2 36  1  0  0  0  0
  2 37  1  0  0  0  0
  3 38  1  0  0  0  0
  3 39  1  0  0  0  0
  3 40  1  0  0  0  0
  4 41  1  0  0  0  0
  4 42  1  0  0  0  0
  4 43  1  0  0  0  0
  5 44  1  0  0  0  0
  5 45  1  0  0  0  0
  5 46  1  0  0  0  0
  6 47  1  0  0  0  0
  7  6  2  0  0  0  0
  7 48  1  0  0  0  0
  8 49  1  0  0  0  0
  9 50  1  0  0  0  0
 10  1  1  0  0  0  0
 11  8  2  0  0  0  0
 11  9  1  0  0  0  0
 12  6  1  0  0  0  0
 13  7  1  0  0  0  0
 14  8  1  0  0  0  0
 15  9  2  0  0  0  0
 16 10  2  0  0  0  0
 16 12  1  0  0  0  0
 17 11  1  0  0  0  0
 17 16  1  0  0  0  0
 18 12  2  0  0  0  0
 19 14  2  0  0  0  0
 19 15  1  0  0  0  0
 20 13  2  0  0  0  0
 20 18  1  0  0  0  0
 21 17  2  0  0  0  0
 22 51  1  0  0  0  0
 23 52  1  0  0  0  0
 25  2  1  0  0  0  0
 25 13  1  0  0  0  0
 26  3  1  0  0  0  0
 26 14  1  0  0  0  0
 27  4  1  0  0  0  0
 27 15  1  0  0  0  0
 28  5  1  0  0  0  0
 28 19  1  0  0  0  0
 29 10  1  0  0  0  0
 29 18  1  0  0  0  0
 30 20  1  0  0  0  0
 31 22  1  0  0  0  0
 31 23  1  0  0  0  0
 31 24  2  0  0  0  0
 31 30  1  0  0  0  0
M  END
>  <DRUGBANK_ID>
DB06313

>  <COMMON_NAME>
BNC105

>  <CAS_NUMBER>
945772-45-2

>  <UNII>
TO9V2XZF53

$$$$
