
 OpenBabel10282417072D

 74 78  0  0  1  0  0  0  0  0999 V2000
   -3.4154   -0.9504    0.0000 C   0  0  0  0  0  0  0  0  0  0  0  0
   -3.8526   -1.6500    0.0000 C   0  0  0  0  0  0  0  0  0  0  0  0
   -4.6771   -1.6212    0.0000 C   0  0  0  0  0  0  0  0  0  0  0  0
   -3.4653   -2.3784    0.0000 C   0  0  1  0  0  0  0  0  0  0  0  0
   -3.9024   -3.0781    0.0000 C   0  0  0  0  0  0  0  0  0  0  0  0
   -3.5151   -3.8065    0.0000 C   0  0  0  0  0  0  0  0  0  0  0  0
   -2.6906   -3.8353    0.0000 C   0  0  0  0  0  0  0  0  0  0  0  0
   -2.2534   -3.1357    0.0000 C   0  0  0  0  0  0  0  0  0  0  0  0
   -2.6408   -2.4072    0.0000 C   0  0  2  0  0  0  0  0  0  0  0  0
   -1.9263   -1.9947    0.0000 C   0  0  0  0  0  0  0  0  0  0  0  0
   -1.2118   -2.4072    0.0000 C   0  0  0  0  0  0  0  0  0  0  0  0
   -0.4973   -1.9947    0.0000 N   0  0  0  0  0  0  0  0  0  0  0  0
   -0.4973   -1.1697    0.0000 C   0  0  0  0  0  0  0  0  0  0  0  0
    0.2171   -2.4072    0.0000 C   0  0  0  0  0  0  0  0  0  0  0  0
    0.9316   -1.9947    0.0000 C   0  0  0  0  0  0  0  0  0  0  0  0
    1.6461   -2.4072    0.0000 C   0  0  0  0  0  0  0  0  0  0  0  0
    2.3605   -1.9947    0.0000 C   0  0  0  0  0  0  0  0  0  0  0  0
    2.4468   -1.1742    0.0000 N   0  0  0  0  0  0  0  0  0  0  0  0
    3.2538   -1.0027    0.0000 C   0  0  0  0  0  0  0  0  0  0  0  0
    3.6663   -0.2882    0.0000 C   0  0  0  0  0  0  0  0  0  0  0  0
    4.4913   -0.2882    0.0000 C   0  0  0  0  0  0  0  0  0  0  0  0
    4.9038   -1.0027    0.0000 C   0  0  0  0  0  0  0  0  0  0  0  0
    4.4913   -1.7172    0.0000 C   0  0  0  0  0  0  0  0  0  0  0  0
    3.6663   -1.7172    0.0000 C   0  0  0  0  0  0  0  0  0  0  0  0
    3.1142   -2.3303    0.0000 N   0  0  0  0  0  0  0  0  0  0  0  0
   -2.5832   -1.5842    0.0000 O   0  0  0  0  0  0  0  0  0  0  0  0
   -1.8417   -1.2226    0.0000 C   0  0  0  0  0  0  0  0  0  0  0  0
   -1.1577   -1.6839    0.0000 O   0  0  0  0  0  0  0  0  0  0  0  0
   -1.7842   -0.3996    0.0000 C   0  0  0  0  0  0  0  0  0  0  0  0
   -2.1458    0.3419    0.0000 C   0  0  0  0  0  0  0  0  0  0  0  0
   -1.3228    0.2844    0.0000 C   0  0  0  0  0  0  0  0  0  0  0  0
   -3.9523   -4.5061    0.0000 C   0  0  0  0  0  0  0  0  0  0  0  0
   -4.7768   -4.4774    0.0000 C   0  0  0  0  0  0  0  0  0  0  0  0
   -5.2140   -5.1770    0.0000 F   0  0  0  0  0  0  0  0  0  0  0  0
   -5.1641   -3.7489    0.0000 C   0  0  0  0  0  0  0  0  0  0  0  0
   -4.7269   -3.0493    0.0000 C   0  0  0  0  0  0  0  0  0  0  0  0
   -2.3461   -0.9878    0.0000 H   0  0  0  0  0  0  0  0  0  0  0  0
   -3.9177   -0.0056    0.0000 H   0  0  0  0  0  0  0  0  0  0  0  0
   -2.8483   -0.0430    0.0000 H   0  0  0  0  0  0  0  0  0  0  0  0
   -4.4196   -2.5574    0.0000 H   0  0  0  0  0  0  0  0  0  0  0  0
   -5.1794   -0.6764    0.0000 H   0  0  0  0  0  0  0  0  0  0  0  0
   -5.2441   -2.5286    0.0000 H   0  0  0  0  0  0  0  0  0  0  0  0
   -5.7464   -1.5838    0.0000 H   0  0  0  0  0  0  0  0  0  0  0  0
   -4.5347   -2.3411    0.0000 H   0  0  0  0  0  0  0  0  0  0  0  0
   -2.1883   -4.7801    0.0000 H   0  0  0  0  0  0  0  0  0  0  0  0
   -1.6213   -3.8727    0.0000 H   0  0  0  0  0  0  0  0  0  0  0  0
   -1.1841   -3.1730    0.0000 H   0  0  0  0  0  0  0  0  0  0  0  0
   -1.6864   -2.2283    0.0000 H   0  0  0  0  0  0  0  0  0  0  0  0
   -1.9263   -0.9247    0.0000 H   0  0  0  0  0  0  0  0  0  0  0  0
   -0.9997   -1.4597    0.0000 H   0  0  0  0  0  0  0  0  0  0  0  0
   -1.2118   -3.4772    0.0000 H   0  0  0  0  0  0  0  0  0  0  0  0
   -0.2852   -2.9422    0.0000 H   0  0  0  0  0  0  0  0  0  0  0  0
    0.4293   -0.6347    0.0000 H   0  0  0  0  0  0  0  0  0  0  0  0
   -1.4239   -0.6347    0.0000 H   0  0  0  0  0  0  0  0  0  0  0  0
   -0.4973   -0.0997    0.0000 H   0  0  0  0  0  0  0  0  0  0  0  0
    0.2171   -3.4772    0.0000 H   0  0  0  0  0  0  0  0  0  0  0  0
    1.1437   -2.9422    0.0000 H   0  0  0  0  0  0  0  0  0  0  0  0
    0.9316   -0.9247    0.0000 H   0  0  0  0  0  0  0  0  0  0  0  0
    1.8582   -1.4597    0.0000 H   0  0  0  0  0  0  0  0  0  0  0  0
    1.6461   -3.4772    0.0000 H   0  0  0  0  0  0  0  0  0  0  0  0
    2.5728   -2.9422    0.0000 H   0  0  0  0  0  0  0  0  0  0  0  0
    3.1503    0.6055    0.0000 H   0  0  0  0  0  0  0  0  0  0  0  0
    5.0073    0.6055    0.0000 H   0  0  0  0  0  0  0  0  0  0  0  0
    5.9358   -1.0027    0.0000 H   0  0  0  0  0  0  0  0  0  0  0  0
    5.0073   -2.6109    0.0000 H   0  0  0  0  0  0  0  0  0  0  0  0
    3.3188   -3.2933    0.0000 H   0  0  0  0  0  0  0  0  0  0  0  0
   -1.7095    0.6678    0.0000 H   0  0  0  0  0  0  0  0  0  0  0  0
   -3.0329    0.9402    0.0000 H   0  0  0  0  0  0  0  0  0  0  0  0
   -1.7975    1.3536    0.0000 H   0  0  0  0  0  0  0  0  0  0  0  0
   -0.3611    0.7535    0.0000 H   0  0  0  0  0  0  0  0  0  0  0  0
   -0.6208   -0.5231    0.0000 H   0  0  0  0  0  0  0  0  0  0  0  0
   -3.4678   -5.4173    0.0000 H   0  0  0  0  0  0  0  0  0  0  0  0
   -6.1955   -3.7128    0.0000 H   0  0  0  0  0  0  0  0  0  0  0  0
   -5.2114   -2.1381    0.0000 H   0  0  0  0  0  0  0  0  0  0  0  0
  1  2  1  0  0  0  0
  1 37  1  0  0  0  0
  1 38  1  0  0  0  0
  1 39  1  0  0  0  0
  2  3  1  0  0  0  0
  2 40  1  0  0  0  0
  3 41  1  0  0  0  0
  3 42  1  0  0  0  0
  3 43  1  0  0  0  0
  4  2  1  0  0  0  0
  4  5  1  0  0  0  0
  4  9  1  0  0  0  0
  4 44  1  1  0  0  0
  5  6  2  0  0  0  0
  5 36  1  0  0  0  0
  6  7  1  0  0  0  0
  6 32  1  0  0  0  0
  7  8  1  0  0  0  0
  7 45  1  0  0  0  0
  7 46  1  0  0  0  0
  8 47  1  0  0  0  0
  8 48  1  0  0  0  0
  9  8  1  0  0  0  0
  9 10  1  0  0  0  0
  9 26  1  6  0  0  0
 10 11  1  0  0  0  0
 10 49  1  0  0  0  0
 10 50  1  0  0  0  0
 11 12  1  0  0  0  0
 11 51  1  0  0  0  0
 11 52  1  0  0  0  0
 12 13  1  0  0  0  0
 12 14  1  0  0  0  0
 13 53  1  0  0  0  0
 13 54  1  0  0  0  0
 13 55  1  0  0  0  0
 14 15  1  0  0  0  0
 14 56  1  0  0  0  0
 14 57  1  0  0  0  0
 15 16  1  0  0  0  0
 15 58  1  0  0  0  0
 15 59  1  0  0  0  0
 16 17  1  0  0  0  0
 16 60  1  0  0  0  0
 16 61  1  0  0  0  0
 17 18  2  0  0  0  0
 17 25  1  0  0  0  0
 18 19  1  0  0  0  0
 19 20  2  0  0  0  0
 19 24  1  0  0  0  0
 20 21  1  0  0  0  0
 20 62  1  0  0  0  0
 21 22  2  0  0  0  0
 21 63  1  0  0  0  0
 22 23  1  0  0  0  0
 22 64  1  0  0  0  0
 23 24  2  0  0  0  0
 23 65  1  0  0  0  0
 24 25  1  0  0  0  0
 25 66  1  0  0  0  0
 26 27  1  0  0  0  0
 27 28  2  0  0  0  0
 27 29  1  0  0  0  0
 29 30  1  0  0  0  0
 29 31  1  0  0  0  0
 29 67  1  0  0  0  0
 30 31  1  0  0  0  0
 30 68  1  0  0  0  0
 30 69  1  0  0  0  0
 31 70  1  0  0  0  0
 31 71  1  0  0  0  0
 32 33  2  0  0  0  0
 32 72  1  0  0  0  0
 33 34  1  0  0  0  0
 33 35  1  0  0  0  0
 35 36  2  0  0  0  0
 35 73  1  0  0  0  0
 36 74  1  0  0  0  0
M  END
>  <DRUGBANK_ID>
DB17037

>  <COMMON_NAME>
NNC-55-0396 free base

>  <CAS_NUMBER>
357400-14-7

>  <UNII>
MET7ZRB8Y7

>  <SYNONYMS>
Cyclopropanecarboxylic acid, (1s,2s)-2-(2-((3-(1h-benzimidazol-2-yl)propyl)methylamino)ethyl)-6-fluoro-1,2,3,4-tetrahydro-1-(1-methylethyl)-2-naphthalenyl ester

$$$$
