DA8
 OpenBabel10282417072D

 67 68  0  0  0  0  0  0  0  0999 V2000
    4.0910   -0.1250    0.0000 C   0  0  0  0  0  0  0  0  0  0  0  0
    3.3765   -0.5375    0.0000 C   0  0  0  0  0  0  0  0  0  0  0  0
    2.6620   -0.1250    0.0000 C   0  0  0  0  0  0  0  0  0  0  0  0
    1.9476   -0.5375    0.0000 C   0  0  0  0  0  0  0  0  0  0  0  0
    1.2331   -0.1250    0.0000 C   0  0  0  0  0  0  0  0  0  0  0  0
    0.5186   -0.5375    0.0000 C   0  0  0  0  0  0  0  0  0  0  0  0
   -0.1959   -0.1250    0.0000 O   0  0  0  0  0  0  0  0  0  0  0  0
   -0.9103   -0.5375    0.0000 C   0  0  2  0  0  0  0  0  0  0  0  0
   -0.9103   -1.3625    0.0000 O   0  0  0  0  0  0  0  0  0  0  0  0
   -1.6248   -1.7750    0.0000 C   0  0  2  0  0  0  0  0  0  0  0  0
   -1.6248   -2.6000    0.0000 C   0  0  0  0  0  0  0  0  0  0  0  0
   -2.3393   -3.0125    0.0000 O   0  0  0  0  0  0  0  0  0  0  0  0
   -2.3393   -1.3625    0.0000 C   0  0  2  0  0  0  0  0  0  0  0  0
   -3.0537   -1.7750    0.0000 O   0  0  0  0  0  0  0  0  0  0  0  0
   -2.3393   -0.5375    0.0000 C   0  0  0  0  0  0  0  0  0  0  0  0
   -1.6248   -0.1250    0.0000 C   0  0  1  0  0  0  0  0  0  0  0  0
   -1.6248    0.7000    0.0000 O   0  0  0  0  0  0  0  0  0  0  0  0
   -2.3393    1.1125    0.0000 C   0  0  2  0  0  0  0  0  0  0  0  0
   -3.0537    0.7000    0.0000 O   0  0  0  0  0  0  0  0  0  0  0  0
   -3.7682    1.1125    0.0000 C   0  0  1  0  0  0  0  0  0  0  0  0
   -4.4827    0.7000    0.0000 C   0  0  0  0  0  0  0  0  0  0  0  0
   -3.7682    1.9375    0.0000 C   0  0  1  0  0  0  0  0  0  0  0  0
   -4.4827    2.3500    0.0000 O   0  0  0  0  0  0  0  0  0  0  0  0
   -3.0537    2.3500    0.0000 C   0  0  1  0  0  0  0  0  0  0  0  0
   -3.0537    3.1750    0.0000 O   0  0  0  0  0  0  0  0  0  0  0  0
   -2.3393    1.9375    0.0000 C   0  0  2  0  0  0  0  0  0  0  0  0
   -1.6248    2.3500    0.0000 O   0  0  0  0  0  0  0  0  0  0  0  0
    4.8054   -0.5375    0.0000 C   0  0  0  0  0  0  0  0  0  0  0  0
   -0.4046   -0.8295    0.0000 H   0  0  0  0  0  0  0  0  0  0  0  0
   -1.1191   -2.0670    0.0000 H   0  0  0  0  0  0  0  0  0  0  0  0
   -2.3393   -1.9465    0.0000 H   0  0  0  0  0  0  0  0  0  0  0  0
   -1.1191    0.1669    0.0000 H   0  0  0  0  0  0  0  0  0  0  0  0
   -2.3393    0.5285    0.0000 H   0  0  0  0  0  0  0  0  0  0  0  0
   -3.7682    0.5285    0.0000 H   0  0  0  0  0  0  0  0  0  0  0  0
   -4.2739    1.6455    0.0000 H   0  0  0  0  0  0  0  0  0  0  0  0
   -3.5594    2.6419    0.0000 H   0  0  0  0  0  0  0  0  0  0  0  0
   -1.8336    1.6455    0.0000 H   0  0  0  0  0  0  0  0  0  0  0  0
    5.5199   -0.1250    0.0000 C   0  0  0  0  0  0  0  0  0  0  0  0
    4.0910    0.9450    0.0000 H   0  0  0  0  0  0  0  0  0  0  0  0
    5.0177    0.4100    0.0000 H   0  0  0  0  0  0  0  0  0  0  0  0
    3.3765   -1.6075    0.0000 H   0  0  0  0  0  0  0  0  0  0  0  0
    2.4499   -1.0725    0.0000 H   0  0  0  0  0  0  0  0  0  0  0  0
    2.6620    0.9450    0.0000 H   0  0  0  0  0  0  0  0  0  0  0  0
    1.7353    0.4100    0.0000 H   0  0  0  0  0  0  0  0  0  0  0  0
    1.9476   -1.6075    0.0000 H   0  0  0  0  0  0  0  0  0  0  0  0
    1.0210   -1.0725    0.0000 H   0  0  0  0  0  0  0  0  0  0  0  0
    1.2331    0.9450    0.0000 H   0  0  0  0  0  0  0  0  0  0  0  0
    0.3065    0.4100    0.0000 H   0  0  0  0  0  0  0  0  0  0  0  0
    0.5186   -1.6075    0.0000 H   0  0  0  0  0  0  0  0  0  0  0  0
   -0.4080   -1.0725    0.0000 H   0  0  0  0  0  0  0  0  0  0  0  0
   -0.6982   -3.1350    0.0000 H   0  0  0  0  0  0  0  0  0  0  0  0
   -1.6248   -3.6700    0.0000 H   0  0  0  0  0  0  0  0  0  0  0  0
   -3.1793   -2.5275    0.0000 H   0  0  0  0  0  0  0  0  0  0  0  0
   -3.8938   -1.2900    0.0000 H   0  0  0  0  0  0  0  0  0  0  0  0
   -3.2659   -0.0025    0.0000 H   0  0  0  0  0  0  0  0  0  0  0  0
   -2.3393    0.5325    0.0000 H   0  0  0  0  0  0  0  0  0  0  0  0
   -5.4093    1.2350    0.0000 H   0  0  0  0  0  0  0  0  0  0  0  0
   -4.4827   -0.3700    0.0000 H   0  0  0  0  0  0  0  0  0  0  0  0
   -5.4094    0.1650    0.0000 H   0  0  0  0  0  0  0  0  0  0  0  0
   -4.4827    3.3200    0.0000 H   0  0  0  0  0  0  0  0  0  0  0  0
   -2.2137    3.6600    0.0000 H   0  0  0  0  0  0  0  0  0  0  0  0
   -0.7848    1.8650    0.0000 H   0  0  0  0  0  0  0  0  0  0  0  0
    4.8054   -1.6075    0.0000 H   0  0  0  0  0  0  0  0  0  0  0  0
    5.7320   -1.0725    0.0000 H   0  0  0  0  0  0  0  0  0  0  0  0
    6.4465   -0.6600    0.0000 H   0  0  0  0  0  0  0  0  0  0  0  0
    5.5199    0.9450    0.0000 H   0  0  0  0  0  0  0  0  0  0  0  0
    6.4466    0.4100    0.0000 H   0  0  0  0  0  0  0  0  0  0  0  0
  1  2  1  0  0  0  0
  1 28  1  0  0  0  0
  1 39  1  0  0  0  0
  1 40  1  0  0  0  0
  2  3  1  0  0  0  0
  2 41  1  0  0  0  0
  2 42  1  0  0  0  0
  3  4  1  0  0  0  0
  3 43  1  0  0  0  0
  3 44  1  0  0  0  0
  4  5  1  0  0  0  0
  4 45  1  0  0  0  0
  4 46  1  0  0  0  0
  5  6  1  0  0  0  0
  5 47  1  0  0  0  0
  5 48  1  0  0  0  0
  6  7  1  0  0  0  0
  6 49  1  0  0  0  0
  6 50  1  0  0  0  0
  8  7  1  0  0  0  0
  8  9  1  0  0  0  0
  8 16  1  0  0  0  0
  8 29  1  1  0  0  0
  9 10  1  0  0  0  0
 10 11  1  0  0  0  0
 10 13  1  0  0  0  0
 10 30  1  1  0  0  0
 11 12  1  0  0  0  0
 11 51  1  0  0  0  0
 11 52  1  0  0  0  0
 12 53  1  0  0  0  0
 13 14  1  0  0  0  0
 13 15  1  0  0  0  0
 13 31  1  1  0  0  0
 14 54  1  0  0  0  0
 15 16  1  0  0  0  0
 15 55  1  0  0  0  0
 15 56  1  0  0  0  0
 16 17  1  0  0  0  0
 16 32  1  6  0  0  0
 18 17  1  0  0  0  0
 18 19  1  0  0  0  0
 18 26  1  0  0  0  0
 18 33  1  1  0  0  0
 19 20  1  0  0  0  0
 20 21  1  0  0  0  0
 20 22  1  0  0  0  0
 20 34  1  6  0  0  0
 21 57  1  0  0  0  0
 21 58  1  0  0  0  0
 21 59  1  0  0  0  0
 22 23  1  0  0  0  0
 22 24  1  0  0  0  0
 22 35  1  6  0  0  0
 23 60  1  0  0  0  0
 24 25  1  0  0  0  0
 24 26  1  0  0  0  0
 24 36  1  6  0  0  0
 25 61  1  0  0  0  0
 26 27  1  0  0  0  0
 26 37  1  1  0  0  0
 27 62  1  0  0  0  0
 28 38  1  0  0  0  0
 28 63  1  0  0  0  0
 28 64  1  0  0  0  0
 38 65  1  0  0  0  0
 38 66  1  0  0  0  0
 38 67  1  0  0  0  0
M  END
>  <DRUGBANK_ID>
DB07633

>  <COMMON_NAME>
octyl 3-deoxy-2-O-(6-deoxy-alpha-L-galactopyranosyl)-beta-D-xylo-hexopyranoside

$$$$
