
 OpenBabel10282417072D

 35 35  0  0  0  0  0  0  0  0999 V2000
    1.6725   -1.2028    0.0000 O   0  0  0  0  0  0  0  0  0  0  0  0
    1.4193   -0.4231    0.0000 C   0  0  0  0  0  0  0  0  0  0  0  0
    1.9057    0.2432    0.0000 C   0  0  1  0  0  0  0  0  0  0  0  0
    2.6187   -0.1632    0.0000 H   0  0  0  0  0  0  0  0  0  0  0  0
    2.6187    0.6563    0.0000 C   0  0  1  0  0  0  0  0  0  0  0  0
    3.0319   -0.0565    0.0000 H   0  0  0  0  0  0  0  0  0  0  0  0
    2.2056    1.3759    0.0000 O   0  0  0  0  0  0  0  0  0  0  0  0
    3.3318    1.0694    0.0000 C   0  0  0  0  0  0  0  0  0  0  0  0
    3.3318    1.8957    0.0000 O   0  0  0  0  0  0  0  0  0  0  0  0
    1.4193    0.9162    0.0000 O   0  0  0  0  0  0  0  0  0  0  0  0
    0.6330    0.6563    0.0000 C   0  0  0  0  0  0  0  0  0  0  0  0
   -0.0333    1.1427    0.0000 O   0  0  0  0  0  0  0  0  0  0  0  0
    0.6330   -0.1632    0.0000 C   0  0  0  0  0  0  0  0  0  0  0  0
   -0.0333   -0.6496    0.0000 O   0  0  0  0  0  0  0  0  0  0  0  0
   -1.6859   -1.1827    0.0000 C   0  0  0  0  0  0  0  0  0  0  0  0
   -2.0923   -0.4698    0.0000 C   0  0  0  0  0  0  0  0  0  0  0  0
   -1.6859    0.2432    0.0000 C   0  0  0  0  0  0  0  0  0  0  0  0
   -2.0923    0.9628    0.0000 C   0  0  0  0  0  0  0  0  0  0  0  0
   -2.9185    0.9628    0.0000 C   0  0  0  0  0  0  0  0  0  0  0  0
   -3.3318    0.2432    0.0000 N   0  0  0  0  0  0  0  0  0  0  0  0
   -2.9185   -0.4698    0.0000 C   0  0  0  0  0  0  0  0  0  0  0  0
   -2.0923   -1.8957    0.0000 O   0  0  0  0  0  0  0  0  0  0  0  0
   -0.8596   -1.1827    0.0000 N   0  0  0  0  0  0  0  0  0  0  0  0
    1.0454   -1.8990    0.0000 H   0  0  0  0  0  0  0  0  0  0  0  0
    2.6927    2.2147    0.0000 H   0  0  0  0  0  0  0  0  0  0  0  0
    4.2588    0.5351    0.0000 H   0  0  0  0  0  0  0  0  0  0  0  0
    4.2583    1.6047    0.0000 H   0  0  0  0  0  0  0  0  0  0  0  0
    4.1718    2.3807    0.0000 H   0  0  0  0  0  0  0  0  0  0  0  0
   -0.8902   -0.2704    0.0000 H   0  0  0  0  0  0  0  0  0  0  0  0
   -0.6539    0.2412    0.0000 H   0  0  0  0  0  0  0  0  0  0  0  0
   -1.5721    1.8541    0.0000 H   0  0  0  0  0  0  0  0  0  0  0  0
   -3.4355    1.8560    0.0000 H   0  0  0  0  0  0  0  0  0  0  0  0
   -3.4337   -1.3640    0.0000 H   0  0  0  0  0  0  0  0  0  0  0  0
   -0.3673   -2.0353    0.0000 H   0  0  0  0  0  0  0  0  0  0  0  0
   -0.3673   -0.3301    0.0000 H   0  0  0  0  0  0  0  0  0  0  0  0
  1  2  1  0  0  0  0
  1 24  1  0  0  0  0
  2  3  1  0  0  0  0
  2 13  2  0  0  0  0
  3  4  1  1  0  0  0
  3  5  1  0  0  0  0
  3 10  1  0  0  0  0
  5  6  1  6  0  0  0
  5  7  1  0  0  0  0
  5  8  1  0  0  0  0
  7 25  1  0  0  0  0
  8  9  1  0  0  0  0
  8 26  1  0  0  0  0
  8 27  1  0  0  0  0
  9 28  1  0  0  0  0
 10 11  1  0  0  0  0
 11 12  2  0  0  0  0
 11 13  1  0  0  0  0
 13 14  1  0  0  0  0
 14 29  1  0  0  0  0
 15 16  1  0  0  0  0
 15 22  2  0  0  0  0
 15 23  1  0  0  0  0
 16 17  1  0  0  0  0
 16 21  2  0  0  0  0
 17 18  2  0  0  0  0
 17 30  1  0  0  0  0
 18 19  1  0  0  0  0
 18 31  1  0  0  0  0
 19 20  2  0  0  0  0
 19 32  1  0  0  0  0
 20 21  1  0  0  0  0
 21 33  1  0  0  0  0
 23 34  1  0  0  0  0
 23 35  1  0  0  0  0
M  END
>  <DRUGBANK_ID>
DB14486

>  <SECONDARY_ACCESSION_NUMBERS>
DBSALT002426

>  <COMMON_NAME>
Niacinamide ascorbate

>  <CAS_NUMBER>
1987-71-9

>  <UNII>
JTL8B7TVW7

>  <SYNONYMS>
Ascorbic acid nicotinamide complex; Niacinamide ascorbate; Nicotinamide-ascorbic acid complex

$$$$
