
 OpenBabel10282417072D

159164  0  0  1  0  0  0  0  0999 V2000
   -0.5937    2.3864    0.0000 C   0  0  0  0  0  0  0  0  0  0  0  0
    0.1081    1.9527    0.0000 O   0  0  0  0  0  0  0  0  0  0  0  0
    0.0834    1.1281    0.0000 C   0  0  2  0  0  0  0  0  0  0  0  0
    0.7853    0.6944    0.0000 C   0  0  0  0  0  0  0  0  0  0  0  0
    0.7606   -0.1302    0.0000 C   0  0  2  0  0  0  0  0  0  0  0  0
    1.4624   -0.5639    0.0000 C   0  0  0  0  0  0  0  0  0  0  0  0
    2.1889   -0.1729    0.0000 C   0  0  1  0  0  0  0  0  0  0  0  0
    2.2136    0.6517    0.0000 C   0  0  0  0  0  0  0  0  0  0  0  0
    2.8907   -0.6066    0.0000 C   0  0  2  0  0  0  0  0  0  0  0  0
    3.4024    0.0475    0.0000 C   0  0  0  0  0  0  0  0  0  0  0  0
    4.0429    0.5752    0.0000 C   0  0  0  0  0  0  0  0  0  0  0  0
    3.5903    1.2650    0.0000 O   0  0  0  0  0  0  0  0  0  0  0  0
    4.7809    0.9521    0.0000 C   0  0  2  0  0  0  0  0  0  0  0  0
    4.4873    1.7231    0.0000 C   0  0  0  0  0  0  0  0  0  0  0  0
    5.5827    1.1616    0.0000 C   0  0  0  0  0  0  0  0  0  0  0  0
    6.4104    1.1939    0.0000 C   0  0  0  0  0  0  0  0  0  0  0  0
    6.4675    2.0169    0.0000 C   0  0  0  0  0  0  0  0  0  0  0  0
    7.2253    1.0478    0.0000 C   0  0  1  0  0  0  0  0  0  0  0  0
    7.4575    1.8394    0.0000 O   0  0  0  0  0  0  0  0  0  0  0  0
    7.9891    0.7308    0.0000 C   0  0  1  0  0  0  0  0  0  0  0  0
    8.3864    1.4538    0.0000 O   0  0  0  0  0  0  0  0  0  0  0  0
    7.9589    2.1595    0.0000 C   0  0  0  0  0  0  0  0  0  0  0  0
    8.6733    0.2509    0.0000 C   0  0  0  0  0  0  0  0  0  0  0  0
    9.2175    0.8710    0.0000 O   0  0  0  0  0  0  0  0  0  0  0  0
    9.2358   -0.3629    0.0000 C   0  0  2  0  0  0  0  0  0  0  0  0
    9.9004    0.1260    0.0000 C   0  0  0  0  0  0  0  0  0  0  0  0
    9.6651   -1.1012    0.0000 C   0  0  0  0  0  0  0  0  0  0  0  0
    9.9190   -1.9142    0.0000 C   0  0  2  0  0  0  0  0  0  0  0  0
   10.7367   -1.8047    0.0000 C   0  0  0  0  0  0  0  0  0  0  0  0
    9.8872   -2.7839    0.0000 C   0  0  2  0  0  0  0  0  0  0  0  0
   10.3838   -3.4769    0.0000 C   0  0  0  0  0  0  0  0  0  0  0  0
   10.0749   -4.2666    0.0000 C   0  0  0  0  0  0  0  0  0  0  0  0
    9.2335   -4.4052    0.0000 C   0  0  1  0  0  0  0  0  0  0  0  0
    8.7412   -3.7200    0.0000 O   0  0  0  0  0  0  0  0  0  0  0  0
    9.0638   -2.9472    0.0000 N   0  0  0  0  0  0  0  0  0  0  0  0
    8.5415   -2.3085    0.0000 C   0  0  0  0  0  0  0  0  0  0  0  0
    7.7273   -2.4416    0.0000 C   0  0  0  0  0  0  0  0  0  0  0  0
    7.2050   -1.8030    0.0000 C   0  0  0  0  0  0  0  0  0  0  0  0
    7.4968   -1.0313    0.0000 C   0  0  0  0  0  0  0  0  0  0  0  0
    8.3111   -0.8983    0.0000 C   0  0  0  0  0  0  0  0  0  0  0  0
    8.8334   -1.5369    0.0000 C   0  0  0  0  0  0  0  0  0  0  0  0
    8.6756   -5.0959    0.0000 C   0  0  0  0  0  0  0  0  0  0  0  0
    8.0532   -5.7203    0.0000 C   0  0  0  0  0  0  0  0  0  0  0  0
    8.5594   -6.3718    0.0000 C   0  0  0  0  0  0  0  0  0  0  0  0
    7.2967   -6.1678    0.0000 C   0  0  2  0  0  0  0  0  0  0  0  0
    6.4351   -6.3703    0.0000 C   0  0  0  0  0  0  0  0  0  0  0  0
    5.5140   -6.3706    0.0000 C   0  0  2  0  0  0  0  0  0  0  0  0
    5.1299   -7.1272    0.0000 C   0  0  0  0  0  0  0  0  0  0  0  0
    4.2990   -7.2630    0.0000 C   0  0  0  0  0  0  0  0  0  0  0  0
    3.7904   -6.6074    0.0000 C   0  0  1  0  0  0  0  0  0  0  0  0
    2.9749   -6.7323    0.0000 C   0  0  0  0  0  0  0  0  0  0  0  0
    4.0818   -5.8237    0.0000 C   0  0  1  0  0  0  0  0  0  0  0  0
    3.2785   -6.0117    0.0000 O   0  0  0  0  0  0  0  0  0  0  0  0
    4.9387   -5.7405    0.0000 O   0  0  0  0  0  0  0  0  0  0  0  0
    3.4554   -5.2341    0.0000 C   0  0  0  0  0  0  0  0  0  0  0  0
    2.8601   -5.8053    0.0000 O   0  0  0  0  0  0  0  0  0  0  0  0
    2.9021   -4.5954    0.0000 C   0  0  0  0  0  0  0  0  0  0  0  0
    2.2137   -5.0501    0.0000 O   0  0  0  0  0  0  0  0  0  0  0  0
    2.5350   -3.8424    0.0000 N   0  0  0  0  0  0  0  0  0  0  0  0
    1.9307   -4.4041    0.0000 C   0  0  0  0  0  0  0  0  0  0  0  0
    1.1421   -4.1616    0.0000 C   0  0  0  0  0  0  0  0  0  0  0  0
    0.9579   -3.3574    0.0000 C   0  0  0  0  0  0  0  0  0  0  0  0
    1.5622   -2.7958    0.0000 C   0  0  0  0  0  0  0  0  0  0  0  0
    2.3507   -3.0383    0.0000 C   0  0  1  0  0  0  0  0  0  0  0  0
    2.3463   -2.1818    0.0000 C   0  0  0  0  0  0  0  0  0  0  0  0
    1.5261   -2.0927    0.0000 O   0  0  0  0  0  0  0  0  0  0  0  0
    2.5299   -1.3668    0.0000 O   0  0  0  0  0  0  0  0  0  0  0  0
    7.6046   -6.9332    0.0000 O   0  0  0  0  0  0  0  0  0  0  0  0
    7.0957   -7.5826    0.0000 C   0  0  0  0  0  0  0  0  0  0  0  0
    0.0341   -0.5212    0.0000 C   0  0  0  0  0  0  0  0  0  0  0  0
   -0.6677   -0.0875    0.0000 C   0  0  0  0  0  0  0  0  0  0  0  0
   -0.6431    0.7371    0.0000 C   0  0  1  0  0  0  0  0  0  0  0  0
   -1.3449    1.1708    0.0000 O   0  0  0  0  0  0  0  0  0  0  0  0
   -0.5617    3.4559    0.0000 H   0  0  0  0  0  0  0  0  0  0  0  0
   -1.5359    1.8794    0.0000 H   0  0  0  0  0  0  0  0  0  0  0  0
   -1.5039    2.9489    0.0000 H   0  0  0  0  0  0  0  0  0  0  0  0
    1.0256    1.6351    0.0000 H   0  0  0  0  0  0  0  0  0  0  0  0
    1.7275    1.2014    0.0000 H   0  0  0  0  0  0  0  0  0  0  0  0
    1.6955    0.1319    0.0000 H   0  0  0  0  0  0  0  0  0  0  0  0
    1.7028    0.3768    0.0000 H   0  0  0  0  0  0  0  0  0  0  0  0
    1.4304   -1.6334    0.0000 H   0  0  0  0  0  0  0  0  0  0  0  0
    2.3726   -1.1263    0.0000 H   0  0  0  0  0  0  0  0  0  0  0  0
    1.2787    0.3896    0.0000 H   0  0  0  0  0  0  0  0  0  0  0  0
    3.1558    1.1587    0.0000 H   0  0  0  0  0  0  0  0  0  0  0  0
    1.3034    1.2142    0.0000 H   0  0  0  0  0  0  0  0  0  0  0  0
    2.2456    1.7212    0.0000 H   0  0  0  0  0  0  0  0  0  0  0  0
    1.8645   -0.9096    0.0000 H   0  0  0  0  0  0  0  0  0  0  0  0
    2.6363    0.7945    0.0000 H   0  0  0  0  0  0  0  0  0  0  0  0
    3.4471    1.1166    0.0000 H   0  0  0  0  0  0  0  0  0  0  0  0
    3.7823    1.3364    0.0000 H   0  0  0  0  0  0  0  0  0  0  0  0
    5.1629    2.5528    0.0000 H   0  0  0  0  0  0  0  0  0  0  0  0
    3.4309    1.8933    0.0000 H   0  0  0  0  0  0  0  0  0  0  0  0
    4.1065    2.7231    0.0000 H   0  0  0  0  0  0  0  0  0  0  0  0
    5.4312    2.1824    0.0000 H   0  0  0  0  0  0  0  0  0  0  0  0
    7.4290    2.4865    0.0000 H   0  0  0  0  0  0  0  0  0  0  0  0
    5.5801    2.6148    0.0000 H   0  0  0  0  0  0  0  0  0  0  0  0
    6.5416    3.0843    0.0000 H   0  0  0  0  0  0  0  0  0  0  0  0
    6.6623    1.9577    0.0000 H   0  0  0  0  0  0  0  0  0  0  0  0
    8.4001    2.0683    0.0000 H   0  0  0  0  0  0  0  0  0  0  0  0
    7.6348    1.7404    0.0000 H   0  0  0  0  0  0  0  0  0  0  0  0
    8.4743    3.0972    0.0000 H   0  0  0  0  0  0  0  0  0  0  0  0
    6.8891    2.1370    0.0000 H   0  0  0  0  0  0  0  0  0  0  0  0
    7.4045    3.0747    0.0000 H   0  0  0  0  0  0  0  0  0  0  0  0
    9.3398    0.7020    0.0000 H   0  0  0  0  0  0  0  0  0  0  0  0
   10.8805   -0.3034    0.0000 H   0  0  0  0  0  0  0  0  0  0  0  0
    9.7823    1.1895    0.0000 H   0  0  0  0  0  0  0  0  0  0  0  0
   10.7623    0.7600    0.0000 H   0  0  0  0  0  0  0  0  0  0  0  0
   10.6444   -0.6701    0.0000 H   0  0  0  0  0  0  0  0  0  0  0  0
   10.6392   -1.5440    0.0000 H   0  0  0  0  0  0  0  0  0  0  0  0
   10.4941   -1.0119    0.0000 H   0  0  0  0  0  0  0  0  0  0  0  0
   11.3900   -2.6521    0.0000 H   0  0  0  0  0  0  0  0  0  0  0  0
   11.1440   -0.8152    0.0000 H   0  0  0  0  0  0  0  0  0  0  0  0
   11.7972   -1.6627    0.0000 H   0  0  0  0  0  0  0  0  0  0  0  0
    9.0728   -2.0899    0.0000 H   0  0  0  0  0  0  0  0  0  0  0  0
   11.4455   -3.3441    0.0000 H   0  0  0  0  0  0  0  0  0  0  0  0
   11.0408   -4.3214    0.0000 H   0  0  0  0  0  0  0  0  0  0  0  0
   10.7482   -5.0982    0.0000 H   0  0  0  0  0  0  0  0  0  0  0  0
    9.6945   -5.2667    0.0000 H   0  0  0  0  0  0  0  0  0  0  0  0
    9.6425   -3.4165    0.0000 H   0  0  0  0  0  0  0  0  0  0  0  0
    7.3622   -3.4069    0.0000 H   0  0  0  0  0  0  0  0  0  0  0  0
    6.1865   -1.9695    0.0000 H   0  0  0  0  0  0  0  0  0  0  0  0
    6.8434   -0.2325    0.0000 H   0  0  0  0  0  0  0  0  0  0  0  0
    8.6763    0.0669    0.0000 H   0  0  0  0  0  0  0  0  0  0  0  0
    9.8519   -1.3705    0.0000 H   0  0  0  0  0  0  0  0  0  0  0  0
    9.4435   -5.7854    0.0000 H   0  0  0  0  0  0  0  0  0  0  0  0
    8.1559   -7.3628    0.0000 H   0  0  0  0  0  0  0  0  0  0  0  0
    9.6194   -6.2257    0.0000 H   0  0  0  0  0  0  0  0  0  0  0  0
    9.2159   -7.2167    0.0000 H   0  0  0  0  0  0  0  0  0  0  0  0
    8.3100   -6.5116    0.0000 H   0  0  0  0  0  0  0  0  0  0  0  0
    6.5585   -7.4332    0.0000 H   0  0  0  0  0  0  0  0  0  0  0  0
    5.7236   -7.1695    0.0000 H   0  0  0  0  0  0  0  0  0  0  0  0
    5.9457   -5.3915    0.0000 H   0  0  0  0  0  0  0  0  0  0  0  0
    5.7616   -7.9908    0.0000 H   0  0  0  0  0  0  0  0  0  0  0  0
    4.7244   -8.1174    0.0000 H   0  0  0  0  0  0  0  0  0  0  0  0
    3.9076   -8.2588    0.0000 H   0  0  0  0  0  0  0  0  0  0  0  0
    3.2399   -7.4151    0.0000 H   0  0  0  0  0  0  0  0  0  0  0  0
    3.3940   -7.6013    0.0000 H   0  0  0  0  0  0  0  0  0  0  0  0
    2.3058   -5.8973    0.0000 H   0  0  0  0  0  0  0  0  0  0  0  0
    2.5864   -7.7293    0.0000 H   0  0  0  0  0  0  0  0  0  0  0  0
    1.9172   -6.8943    0.0000 H   0  0  0  0  0  0  0  0  0  0  0  0
    2.6148   -5.3043    0.0000 H   0  0  0  0  0  0  0  0  0  0  0  0
    2.1697   -5.4471    0.0000 H   0  0  0  0  0  0  0  0  0  0  0  0
    1.1470   -5.1326    0.0000 H   0  0  0  0  0  0  0  0  0  0  0  0
    0.3583   -4.8900    0.0000 H   0  0  0  0  0  0  0  0  0  0  0  0
    0.1194   -3.8470    0.0000 H   0  0  0  0  0  0  0  0  0  0  0  0
   -0.0648   -3.0428    0.0000 H   0  0  0  0  0  0  0  0  0  0  0  0
    0.7190   -2.3144    0.0000 H   0  0  0  0  0  0  0  0  0  0  0  0
    1.3233   -1.7528    0.0000 H   0  0  0  0  0  0  0  0  0  0  0  0
    2.3460   -2.0674    0.0000 H   0  0  0  0  0  0  0  0  0  0  0  0
    1.5670   -3.7668    0.0000 H   0  0  0  0  0  0  0  0  0  0  0  0
    6.0363   -7.4321    0.0000 H   0  0  0  0  0  0  0  0  0  0  0  0
    7.4951   -8.5753    0.0000 H   0  0  0  0  0  0  0  0  0  0  0  0
    6.4357   -8.4248    0.0000 H   0  0  0  0  0  0  0  0  0  0  0  0
    0.0021   -1.5907    0.0000 H   0  0  0  0  0  0  0  0  0  0  0  0
   -0.9081   -1.0282    0.0000 H   0  0  0  0  0  0  0  0  0  0  0  0
   -1.6099   -0.5946    0.0000 H   0  0  0  0  0  0  0  0  0  0  0  0
   -1.5780    0.4749    0.0000 H   0  0  0  0  0  0  0  0  0  0  0  0
   -1.5853    0.2300    0.0000 H   0  0  0  0  0  0  0  0  0  0  0  0
   -1.3159    2.1404    0.0000 H   0  0  0  0  0  0  0  0  0  0  0  0
  1  2  1  0  0  0  0
  1 74  1  0  0  0  0
  1 75  1  0  0  0  0
  1 76  1  0  0  0  0
  3  2  1  0  0  0  0
  3  4  1  0  0  0  0
  3 72  1  0  0  0  0
  3 77  1  1  0  0  0
  4 78  1  0  0  0  0
  4 79  1  0  0  0  0
  5  4  1  0  0  0  0
  5  6  1  0  0  0  0
  5 70  1  0  0  0  0
  5 80  1  1  0  0  0
  6 81  1  0  0  0  0
  6 82  1  0  0  0  0
  7  6  1  0  0  0  0
  7  8  1  0  0  0  0
  7  9  1  0  0  0  0
  7 83  1  6  0  0  0
  8 84  1  0  0  0  0
  8 85  1  0  0  0  0
  8 86  1  0  0  0  0
  9 10  1  0  0  0  0
  9 67  1  0  0  0  0
  9 87  1  1  0  0  0
 10 11  1  0  0  0  0
 10 88  1  0  0  0  0
 10 89  1  0  0  0  0
 11 12  2  0  0  0  0
 13 11  1  0  0  0  0
 13 14  1  0  0  0  0
 13 15  1  0  0  0  0
 13 90  1  1  0  0  0
 14 91  1  0  0  0  0
 14 92  1  0  0  0  0
 14 93  1  0  0  0  0
 15 16  2  0  0  0  0
 15 94  1  0  0  0  0
 16 17  1  0  0  0  0
 17 95  1  0  0  0  0
 17 96  1  0  0  0  0
 17 97  1  0  0  0  0
 18 16  1  0  0  0  0
 18 19  1  0  0  0  0
 18 20  1  0  0  0  0
 18 98  1  6  0  0  0
 19 99  1  0  0  0  0
 20 21  1  0  0  0  0
 20 23  1  0  0  0  0
 20100  1  6  0  0  0
 21 22  1  0  0  0  0
 22101  1  0  0  0  0
 22102  1  0  0  0  0
 22103  1  0  0  0  0
 23 24  2  0  0  0  0
 25 23  1  0  0  0  0
 25 26  1  0  0  0  0
 25 27  1  0  0  0  0
 25104  1  1  0  0  0
 26105  1  0  0  0  0
 26106  1  0  0  0  0
 26107  1  0  0  0  0
 27108  1  0  0  0  0
 27109  1  0  0  0  0
 28 27  1  0  0  0  0
 28 29  1  0  0  0  0
 28 30  1  0  0  0  0
 28110  1  1  0  0  0
 29111  1  0  0  0  0
 29112  1  0  0  0  0
 29113  1  0  0  0  0
 30 31  1  0  0  0  0
 30 35  1  0  0  0  0
 30114  1  1  0  0  0
 31 32  1  0  0  0  0
 31115  1  0  0  0  0
 31116  1  0  0  0  0
 32117  1  0  0  0  0
 32118  1  0  0  0  0
 33 32  1  0  0  0  0
 33 34  1  0  0  0  0
 33 42  1  0  0  0  0
 33119  1  1  0  0  0
 34 35  1  0  0  0  0
 35 36  1  0  0  0  0
 36 37  2  0  0  0  0
 36 41  1  0  0  0  0
 37 38  1  0  0  0  0
 37120  1  0  0  0  0
 38 39  2  0  0  0  0
 38121  1  0  0  0  0
 39 40  1  0  0  0  0
 39122  1  0  0  0  0
 40 41  2  0  0  0  0
 40123  1  0  0  0  0
 41124  1  0  0  0  0
 42 43  2  0  0  0  0
 42125  1  0  0  0  0
 43 44  1  0  0  0  0
 44126  1  0  0  0  0
 44127  1  0  0  0  0
 44128  1  0  0  0  0
 45 43  1  0  0  0  0
 45 46  1  0  0  0  0
 45 68  1  0  0  0  0
 45129  1  6  0  0  0
 46130  1  0  0  0  0
 46131  1  0  0  0  0
 47 46  1  0  0  0  0
 47 48  1  0  0  0  0
 47 54  1  0  0  0  0
 47132  1  1  0  0  0
 48 49  1  0  0  0  0
 48133  1  0  0  0  0
 48134  1  0  0  0  0
 49135  1  0  0  0  0
 49136  1  0  0  0  0
 50 49  1  0  0  0  0
 50 51  1  0  0  0  0
 50 52  1  0  0  0  0
 50137  1  6  0  0  0
 51138  1  0  0  0  0
 51139  1  0  0  0  0
 51140  1  0  0  0  0
 52 53  1  1  0  0  0
 52 54  1  0  0  0  0
 52 55  1  0  0  0  0
 53141  1  0  0  0  0
 55 56  2  0  0  0  0
 55 57  1  0  0  0  0
 57 58  2  0  0  0  0
 57 59  1  0  0  0  0
 59 60  1  0  0  0  0
 60 61  1  0  0  0  0
 60142  1  0  0  0  0
 60143  1  0  0  0  0
 61 62  1  0  0  0  0
 61144  1  0  0  0  0
 61145  1  0  0  0  0
 62 63  1  0  0  0  0
 62146  1  0  0  0  0
 62147  1  0  0  0  0
 63148  1  0  0  0  0
 63149  1  0  0  0  0
 64 63  1  0  0  0  0
 64 59  1  0  0  0  0
 64 65  1  0  0  0  0
 64150  1  6  0  0  0
 65 66  2  0  0  0  0
 65 67  1  0  0  0  0
 68 69  1  0  0  0  0
 69151  1  0  0  0  0
 69152  1  0  0  0  0
 69153  1  0  0  0  0
 70 71  1  0  0  0  0
 70154  1  0  0  0  0
 70155  1  0  0  0  0
 71156  1  0  0  0  0
 71157  1  0  0  0  0
 72 71  1  0  0  0  0
 72 73  1  0  0  0  0
 72158  1  6  0  0  0
 73159  1  0  0  0  0
M  END
>  <DRUGBANK_ID>
DB15422

>  <COMMON_NAME>
ILS-920

>  <CAS_NUMBER>
892494-07-4

>  <UNII>
F2D5P81X82

$$$$
