651
 OpenBabel10282417072D

 32 33  0  0  1  0  0  0  0  0999 V2000
    6.1888    0.2998    0.0000 O   0  0  0  0  0  0  0  0  0  0  0  0
    3.0791    0.9456    0.0000 O   0  0  0  0  0  0  0  0  0  0  0  0
    6.7013    1.8682    0.0000 O   0  0  0  0  0  0  0  0  0  0  0  0
    1.6501   -1.5294    0.0000 O   0  0  0  0  0  0  0  0  0  0  0  0
    4.5742   -0.0404    0.0000 N   0  0  0  0  0  0  0  0  0  0  0  0
    3.0791   -1.5294    0.0000 N   0  0  0  0  0  0  0  0  0  0  0  0
    2.3645   -0.2919    0.0000 N   0  0  0  0  0  0  0  0  0  0  0  0
    4.5742   -1.3683    0.0000 N   0  0  0  0  0  0  0  0  0  0  0  0
    3.7935   -0.2919    0.0000 C   0  0  0  0  0  0  0  0  0  0  0  0
    4.8305    0.7438    0.0000 C   0  0  0  0  0  0  0  0  0  0  0  0
    3.7935   -1.1169    0.0000 C   0  0  0  0  0  0  0  0  0  0  0  0
    5.6378    0.9139    0.0000 C   0  0  3  0  0  0  0  0  0  0  0  0
    3.0791    0.1206    0.0000 C   0  0  0  0  0  0  0  0  0  0  0  0
    5.0557   -0.7044    0.0000 C   0  0  0  0  0  0  0  0  0  0  0  0
    2.3645   -1.1169    0.0000 C   0  0  0  0  0  0  0  0  0  0  0  0
    5.8941    1.6981    0.0000 C   0  0  0  0  0  0  0  0  0  0  0  0
    3.0791   -2.3545    0.0000 C   0  0  0  0  0  0  0  0  0  0  0  0
    1.6501    0.1206    0.0000 C   0  0  0  0  0  0  0  0  0  0  0  0
    5.8874   -0.6222    0.0000 H   0  0  0  0  0  0  0  0  0  0  0  0
    7.3491    1.1462    0.0000 H   0  0  0  0  0  0  0  0  0  0  0  0
    4.1159    1.5402    0.0000 H   0  0  0  0  0  0  0  0  0  0  0  0
    5.1629    1.7608    0.0000 H   0  0  0  0  0  0  0  0  0  0  0  0
    5.3054   -0.1031    0.0000 H   0  0  0  0  0  0  0  0  0  0  0  0
    6.0877   -0.7044    0.0000 H   0  0  0  0  0  0  0  0  0  0  0  0
    5.1795    2.4945    0.0000 H   0  0  0  0  0  0  0  0  0  0  0  0
    4.8471    1.4774    0.0000 H   0  0  0  0  0  0  0  0  0  0  0  0
    2.1525   -2.8895    0.0000 H   0  0  0  0  0  0  0  0  0  0  0  0
    4.0057   -2.8895    0.0000 H   0  0  0  0  0  0  0  0  0  0  0  0
    3.0791   -3.4245    0.0000 H   0  0  0  0  0  0  0  0  0  0  0  0
    1.6501    1.1906    0.0000 H   0  0  0  0  0  0  0  0  0  0  0  0
    0.7234   -0.4144    0.0000 H   0  0  0  0  0  0  0  0  0  0  0  0
    0.7235    0.6556    0.0000 H   0  0  0  0  0  0  0  0  0  0  0  0
  1 12  1  0  0  0  0
  1 19  1  0  0  0  0
  2 13  2  0  0  0  0
  3 16  1  0  0  0  0
  3 20  1  0  0  0  0
  4 15  2  0  0  0  0
  5  9  1  0  0  0  0
  5 10  1  0  0  0  0
  5 14  1  0  0  0  0
  6 11  1  0  0  0  0
  6 15  1  0  0  0  0
  6 17  1  0  0  0  0
  7 13  1  0  0  0  0
  7 15  1  0  0  0  0
  7 18  1  0  0  0  0
  8 11  1  0  0  0  0
  8 14  2  0  0  0  0
  9 11  2  0  0  0  0
  9 13  1  0  0  0  0
 10 12  1  0  0  0  0
 10 21  1  0  0  0  0
 10 22  1  0  0  0  0
 12 16  1  0  0  0  0
 12 23  1  0  0  0  0
 14 24  1  0  0  0  0
 16 25  1  0  0  0  0
 16 26  1  0  0  0  0
 17 27  1  0  0  0  0
 17 28  1  0  0  0  0
 17 29  1  0  0  0  0
 18 30  1  0  0  0  0
 18 31  1  0  0  0  0
 18 32  1  0  0  0  0
M  END
>  <DRUGBANK_ID>
DB00651

>  <SECONDARY_ACCESSION_NUMBERS>
APRD00769

>  <COMMON_NAME>
Dyphylline

>  <CAS_NUMBER>
479-18-5

>  <UNII>
263T0E9RR9

>  <SYNONYMS>
(±)-7-(2,3-dihydroxypropyl)theophylline; (±)-diprophylline; (±)-dyphylline; (1,2-dihydroxy-3-propyl)thiophyllin; 1,3-dimethyl-7-(2,3-dihydroxypropyl)xanthine; 7-(2,3-dihydroxypropyl)-1,3-dimethylxanthine; 7-(2,3-dihydroxypropyl)-3,7-dihydro-1,3-dimethyl-1H-purine-2,6-dione; 7-(2,3-dihydroxypropyl)theophylline; 7-(β,γ-dihydroxypropyl)theophylline; Dihydroxypropyl theopylin; Diprofilina; Diprophylline; Diprophyllinum; Dyphylline

$$$$
