
 OpenBabel10282417072D

 42 42  0  0  1  0  0  0  0  0999 V2000
   -5.4417    1.3579    0.0000 C   0  0  0  0  0  0  0  0  0  0  0  0
   -4.6213    1.2717    0.0000 C   0  0  2  0  0  0  0  0  0  0  0  0
   -4.2857    0.5180    0.0000 N   0  0  0  0  0  0  0  0  0  0  0  0
   -4.1363    1.9391    0.0000 C   0  0  0  0  0  0  0  0  0  0  0  0
   -4.4719    2.6928    0.0000 O   0  0  0  0  0  0  0  0  0  0  0  0
   -3.3159    1.8529    0.0000 N   0  0  0  0  0  0  0  0  0  0  0  0
   -2.7638    2.4660    0.0000 C   0  0  0  0  0  0  0  0  0  0  0  0
   -2.0101    2.1304    0.0000 C   0  0  2  0  0  0  0  0  0  0  0  0
   -1.2957    2.5429    0.0000 C   0  0  0  0  0  0  0  0  0  0  0  0
   -0.5812    2.1304    0.0000 C   0  0  0  0  0  0  0  0  0  0  0  0
    0.1333    2.5429    0.0000 C   0  0  0  0  0  0  0  0  0  0  0  0
    0.8477    2.1304    0.0000 B   0  0  0  0  0  0  0  0  0  0  0  0
    1.5622    2.5429    0.0000 O   0  0  0  0  0  0  0  0  0  0  0  0
    0.8477    1.3054    0.0000 O   0  0  0  0  0  0  0  0  0  0  0  0
   -2.0964    1.3099    0.0000 C   0  0  1  0  0  0  0  0  0  0  0  0
   -1.2714    1.3099    0.0000 N   0  0  0  0  0  0  0  0  0  0  0  0
   -2.9034    1.1384    0.0000 C   0  0  0  0  0  0  0  0  0  0  0  0
   -2.0101    0.4894    0.0000 C   0  0  0  0  0  0  0  0  0  0  0  0
   -2.6776    0.0045    0.0000 O   0  0  0  0  0  0  0  0  0  0  0  0
   -1.2565    0.1539    0.0000 O   0  0  0  0  0  0  0  0  0  0  0  0
   -5.8769    2.3354    0.0000 H   0  0  0  0  0  0  0  0  0  0  0  0
   -6.0706    0.4922    0.0000 H   0  0  0  0  0  0  0  0  0  0  0  0
   -6.5058    1.4697    0.0000 H   0  0  0  0  0  0  0  0  0  0  0  0
   -5.2502    0.4060    0.0000 H   0  0  0  0  0  0  0  0  0  0  0  0
   -4.8852   -0.3072    0.0000 H   0  0  0  0  0  0  0  0  0  0  0  0
   -3.2713    0.4114    0.0000 H   0  0  0  0  0  0  0  0  0  0  0  0
   -2.9862    3.5126    0.0000 H   0  0  0  0  0  0  0  0  0  0  0  0
   -1.9322    3.1393    0.0000 H   0  0  0  0  0  0  0  0  0  0  0  0
   -2.0661    3.1989    0.0000 H   0  0  0  0  0  0  0  0  0  0  0  0
   -1.2957    3.6129    0.0000 H   0  0  0  0  0  0  0  0  0  0  0  0
   -0.3691    3.0779    0.0000 H   0  0  0  0  0  0  0  0  0  0  0  0
   -0.5812    1.0604    0.0000 H   0  0  0  0  0  0  0  0  0  0  0  0
    0.3454    1.5954    0.0000 H   0  0  0  0  0  0  0  0  0  0  0  0
    0.1333    3.6129    0.0000 H   0  0  0  0  0  0  0  0  0  0  0  0
    1.0600    3.0779    0.0000 H   0  0  0  0  0  0  0  0  0  0  0  0
    2.4022    2.0579    0.0000 H   0  0  0  0  0  0  0  0  0  0  0  0
    0.0077    0.8204    0.0000 H   0  0  0  0  0  0  0  0  0  0  0  0
   -0.7614    0.4266    0.0000 H   0  0  0  0  0  0  0  0  0  0  0  0
   -0.7614    2.1932    0.0000 H   0  0  0  0  0  0  0  0  0  0  0  0
   -3.3386    0.1609    0.0000 H   0  0  0  0  0  0  0  0  0  0  0  0
   -3.9719    1.0824    0.0000 H   0  0  0  0  0  0  0  0  0  0  0  0
   -3.5336    0.3857    0.0000 H   0  0  0  0  0  0  0  0  0  0  0  0
  1 21  1  0  0  0  0
  1 22  1  0  0  0  0
  1 23  1  0  0  0  0
  2  1  1  0  0  0  0
  2  3  1  0  0  0  0
  2  4  1  0  0  0  0
  2 24  1  6  0  0  0
  3 25  1  0  0  0  0
  3 26  1  0  0  0  0
  4  5  2  0  0  0  0
  4  6  1  0  0  0  0
  6  7  1  0  0  0  0
  6 17  1  0  0  0  0
  7 27  1  0  0  0  0
  7 28  1  0  0  0  0
  8  7  1  0  0  0  0
  8  9  1  0  0  0  0
  8 15  1  0  0  0  0
  8 29  1  1  0  0  0
  9 10  1  0  0  0  0
  9 30  1  0  0  0  0
  9 31  1  0  0  0  0
 10 11  1  0  0  0  0
 10 32  1  0  0  0  0
 10 33  1  0  0  0  0
 11 12  1  0  0  0  0
 11 34  1  0  0  0  0
 11 35  1  0  0  0  0
 12 13  1  0  0  0  0
 12 14  1  0  0  0  0
 13 36  1  0  0  0  0
 14 37  1  0  0  0  0
 15 16  1  0  0  0  0
 15 17  1  0  0  0  0
 15 18  1  6  0  0  0
 16 38  1  0  0  0  0
 16 39  1  0  0  0  0
 17 40  1  0  0  0  0
 17 41  1  0  0  0  0
 18 19  1  0  0  0  0
 18 20  2  0  0  0  0
 19 42  1  0  0  0  0
M  END
>  <DRUGBANK_ID>
DB15286

>  <COMMON_NAME>
CB-1158

>  <CAS_NUMBER>
2095732-06-0

>  <UNII>
IFD73D535A

>  <SYNONYMS>
INCB001158

$$$$
