
 OpenBabel10282417072D

 19 16  0  0  0  0  0  0  0  0999 V2000
   -0.9552    1.1032    0.0000 O   0  5  0  0  0  0  0  0  0  0  0  0
   -0.9552    0.2781    0.0000 P   0  0  0  0  0  0  0  0  0  0  0  0
   -0.9552   -0.5469    0.0000 O   0  0  0  0  0  0  0  0  0  0  0  0
   -0.1301    0.2781    0.0000 O   0  0  0  0  0  0  0  0  0  0  0  0
    0.2823   -0.4364    0.0000 C   0  0  0  0  0  0  0  0  0  0  0  0
    1.1032   -0.4364    0.0000 C   0  0  3  0  0  0  0  0  0  0  0  0
    1.5161    0.2778    0.0000 O   0  0  0  0  0  0  0  0  0  0  0  0
    1.5164   -1.1538    0.0000 C   0  0  0  0  0  0  0  0  0  0  0  0
    2.3372   -1.1538    0.0000 O   0  0  0  0  0  0  0  0  0  0  0  0
   -1.7803    0.2840    0.0000 O   0  5  0  0  0  0  0  0  0  0  0  0
   -0.4327    1.1538    0.0000 K   0  3  0  0  0  0  0  0  0  0  0  0
   -2.3372    0.2531    0.0000 K   0  3  0  0  0  0  0  0  0  0  0  0
   -0.2528   -1.3630    0.0000 H   0  0  0  0  0  0  0  0  0  0  0  0
    0.8173   -1.3631    0.0000 H   0  0  0  0  0  0  0  0  0  0  0  0
    0.5685    0.4904    0.0000 H   0  0  0  0  0  0  0  0  0  0  0  0
    2.4861    0.2772    0.0000 H   0  0  0  0  0  0  0  0  0  0  0  0
    0.9809   -2.0802    0.0000 H   0  0  0  0  0  0  0  0  0  0  0  0
    2.0512   -2.0806    0.0000 H   0  0  0  0  0  0  0  0  0  0  0  0
    2.8222   -1.9938    0.0000 H   0  0  0  0  0  0  0  0  0  0  0  0
  1  2  1  0  0  0  0
  2  3  2  0  0  0  0
  2  4  1  0  0  0  0
  2 10  1  0  0  0  0
  4  5  1  0  0  0  0
  5  6  1  0  0  0  0
  5 13  1  0  0  0  0
  5 14  1  0  0  0  0
  6  7  1  0  0  0  0
  6  8  1  0  0  0  0
  6 15  1  0  0  0  0
  7 16  1  0  0  0  0
  8  9  1  0  0  0  0
  8 17  1  0  0  0  0
  8 18  1  0  0  0  0
  9 19  1  0  0  0  0
M  CHG  4   1  -1  10  -1  11   1  12   1
M  END
>  <DRUGBANK_ID>
DB15948

>  <COMMON_NAME>
Potassium glycerophosphate

>  <CAS_NUMBER>
1319-69-3

>  <UNII>
6ZC849M884

>  <SYNONYMS>
Potassium glycerophosphate anhydrous

$$$$
