
 OpenBabel10282417072D

 52 55  0  0  0  0  0  0  0  0999 V2000
    2.1785   -1.0012    0.0000 C   0  0  0  0  0  0  0  0  0  0  0  0
    0.6794   -1.9838    0.0000 C   0  0  0  0  0  0  0  0  0  0  0  0
    2.1785    0.3336    0.0000 C   0  0  2  0  0  0  0  0  0  0  0  0
    0.6794    0.4911    0.0000 C   0  0  0  0  0  0  0  0  0  0  0  0
    2.6635   -0.3338    0.0000 C   0  0  0  0  0  0  0  0  0  0  0  0
   -0.7495   -1.1588    0.0000 C   0  0  2  0  0  0  0  0  0  0  0  0
   -0.0350    0.0786    0.0000 C   0  0  0  0  0  0  0  0  0  0  0  0
   -0.0350   -2.3962    0.0000 C   0  0  0  0  0  0  0  0  0  0  0  0
   -0.7495   -1.9838    0.0000 C   0  0  0  0  0  0  0  0  0  0  0  0
   -1.4640   -0.7463    0.0000 C   0  0  0  0  0  0  0  0  0  0  0  0
   -1.4640   -2.3962    0.0000 C   0  0  0  0  0  0  0  0  0  0  0  0
   -2.1783   -1.1588    0.0000 C   0  0  0  0  0  0  0  0  0  0  0  0
    0.6794   -1.1588    0.0000 C   0  0  2  0  0  0  0  0  0  0  0  0
    0.6794   -0.3338    0.0000 H   0  0  0  0  0  0  0  0  0  0  0  0
   -0.0350   -0.7463    0.0000 C   0  0  1  0  0  0  0  0  0  0  0  0
   -0.0350   -1.5712    0.0000 H   0  0  0  0  0  0  0  0  0  0  0  0
    1.3938    0.0786    0.0000 C   0  0  2  0  0  0  0  0  0  0  0  0
    1.3938    0.9036    0.0000 C   0  0  0  0  0  0  0  0  0  0  0  0
    1.3938   -0.7463    0.0000 C   0  0  1  0  0  0  0  0  0  0  0  0
    1.3938   -1.5712    0.0000 H   0  0  0  0  0  0  0  0  0  0  0  0
   -2.8929   -2.3962    0.0000 O   0  0  0  0  0  0  0  0  0  0  0  0
   -2.1783   -1.9838    0.0000 C   0  0  0  0  0  0  0  0  0  0  0  0
   -0.7495   -0.3338    0.0000 C   0  0  0  0  0  0  0  0  0  0  0  0
    2.8929    0.7461    0.0000 O   0  0  0  0  0  0  0  0  0  0  0  0
    2.1785    1.1587    0.0000 C   0  0  0  0  0  0  0  0  0  0  0  0
   -0.7495    0.4911    0.0000 O   0  0  0  0  0  0  0  0  0  0  0  0
    1.4640    1.5711    0.0000 O   0  0  0  0  0  0  0  0  0  0  0  0
    2.8929    1.5711    0.0000 C   0  0  0  0  0  0  0  0  0  0  0  0
    2.8929    2.3962    0.0000 O   0  0  0  0  0  0  0  0  0  0  0  0
    2.5091   -2.0188    0.0000 H   0  0  0  0  0  0  0  0  0  0  0  0
    3.2353   -1.1686    0.0000 H   0  0  0  0  0  0  0  0  0  0  0  0
    1.6060   -2.5188    0.0000 H   0  0  0  0  0  0  0  0  0  0  0  0
    0.6794   -3.0538    0.0000 H   0  0  0  0  0  0  0  0  0  0  0  0
    0.6794    1.5611    0.0000 H   0  0  0  0  0  0  0  0  0  0  0  0
   -0.2473    1.0261    0.0000 H   0  0  0  0  0  0  0  0  0  0  0  0
    3.7335   -0.3338    0.0000 H   0  0  0  0  0  0  0  0  0  0  0  0
    3.1492    0.6196    0.0000 H   0  0  0  0  0  0  0  0  0  0  0  0
   -0.0350   -3.4662    0.0000 H   0  0  0  0  0  0  0  0  0  0  0  0
   -0.9616   -2.9313    0.0000 H   0  0  0  0  0  0  0  0  0  0  0  0
   -1.4641    0.2857    0.0000 H   0  0  0  0  0  0  0  0  0  0  0  0
   -1.4641   -3.4282    0.0000 H   0  0  0  0  0  0  0  0  0  0  0  0
   -3.0721   -0.6428    0.0000 H   0  0  0  0  0  0  0  0  0  0  0  0
    2.3204    1.4386    0.0000 H   0  0  0  0  0  0  0  0  0  0  0  0
    0.4672    1.4386    0.0000 H   0  0  0  0  0  0  0  0  0  0  0  0
    1.3938    1.9736    0.0000 H   0  0  0  0  0  0  0  0  0  0  0  0
    0.1771    0.2012    0.0000 H   0  0  0  0  0  0  0  0  0  0  0  0
   -1.6761    0.2012    0.0000 H   0  0  0  0  0  0  0  0  0  0  0  0
   -0.7495    0.7362    0.0000 H   0  0  0  0  0  0  0  0  0  0  0  0
    3.7330    0.2611    0.0000 H   0  0  0  0  0  0  0  0  0  0  0  0
    3.8195    1.0361    0.0000 H   0  0  0  0  0  0  0  0  0  0  0  0
    3.8196    2.1061    0.0000 H   0  0  0  0  0  0  0  0  0  0  0  0
    3.7329    2.8812    0.0000 H   0  0  0  0  0  0  0  0  0  0  0  0
  1 30  1  0  0  0  0
  1 31  1  0  0  0  0
  2  8  1  0  0  0  0
  2 32  1  0  0  0  0
  2 33  1  0  0  0  0
  3  5  1  0  0  0  0
  3 24  1  6  0  0  0
  3 25  1  0  0  0  0
  4  7  1  0  0  0  0
  4 34  1  0  0  0  0
  4 35  1  0  0  0  0
  5  1  1  0  0  0  0
  5 36  1  0  0  0  0
  5 37  1  0  0  0  0
  6  9  1  0  0  0  0
  6 10  1  0  0  0  0
  6 23  1  1  0  0  0
  7 26  2  0  0  0  0
  8  9  1  0  0  0  0
  8 38  1  0  0  0  0
  8 39  1  0  0  0  0
  9 11  2  0  0  0  0
 10 12  2  0  0  0  0
 10 40  1  0  0  0  0
 11 22  1  0  0  0  0
 11 41  1  0  0  0  0
 12 22  1  0  0  0  0
 12 42  1  0  0  0  0
 13 15  1  0  0  0  0
 13  2  1  0  0  0  0
 13 14  1  1  0  0  0
 15  6  1  0  0  0  0
 15  7  1  0  0  0  0
 15 16  1  6  0  0  0
 17  3  1  0  0  0  0
 17  4  1  0  0  0  0
 17 18  1  1  0  0  0
 18 43  1  0  0  0  0
 18 44  1  0  0  0  0
 18 45  1  0  0  0  0
 19 13  1  0  0  0  0
 19 17  1  0  0  0  0
 19  1  1  0  0  0  0
 19 20  1  6  0  0  0
 22 21  2  0  0  0  0
 23 46  1  0  0  0  0
 23 47  1  0  0  0  0
 23 48  1  0  0  0  0
 24 49  1  0  0  0  0
 27 25  2  0  0  0  0
 28 25  1  0  0  0  0
 28 50  1  0  0  0  0
 28 51  1  0  0  0  0
 29 28  1  0  0  0  0
 29 52  1  0  0  0  0
M  END
>  <DRUGBANK_ID>
DB00635

>  <SECONDARY_ACCESSION_NUMBERS>
APRD00340

>  <COMMON_NAME>
Prednisone

>  <CAS_NUMBER>
53-03-2

>  <UNII>
VB0R961HZT

>  <SYNONYMS>
1,2-Dehydrocortisone; 1,4-Pregnadiene-17Î±,21-diol-3,11,20-trione; 17,21-Dihydroxypregna-1,4-diene-3,11,20-trione; Dehydrocortisone; Prednisona; Prednisone; Prednisonum

$$$$
