
 OpenBabel10282417072D

 62 69  0  0  0  0  0  0  0  0999 V2000
   -1.4197    3.2053    0.0000 O   0  0  0  0  0  0  0  0  0  0  0  0
   -0.6373    2.9434    0.0000 C   0  0  1  0  0  0  0  0  0  0  0  0
    0.0343    3.4223    0.0000 N   0  0  0  0  0  0  0  0  0  0  0  0
    0.6974    2.9315    0.0000 C   0  0  0  0  0  0  0  0  0  0  0  0
    1.4843    3.1795    0.0000 O   0  0  0  0  0  0  0  0  0  0  0  0
    0.4355    2.1492    0.0000 C   0  0  0  0  0  0  0  0  0  0  0  0
    0.8815    1.4387    0.0000 C   0  0  0  0  0  0  0  0  0  0  0  0
    1.7069    1.2118    0.0000 C   0  0  0  0  0  0  0  0  0  0  0  0
    1.7589    0.3884    0.0000 C   0  0  0  0  0  0  0  0  0  0  0  0
    2.4979    0.0217    0.0000 C   0  0  0  0  0  0  0  0  0  0  0  0
    3.1850    0.4784    0.0000 C   0  0  0  0  0  0  0  0  0  0  0  0
    3.1330    1.3018    0.0000 C   0  0  0  0  0  0  0  0  0  0  0  0
    2.3940    1.6685    0.0000 C   0  0  0  0  0  0  0  0  0  0  0  0
    0.9574    0.0649    0.0000 N   0  0  0  0  0  0  0  0  0  0  0  0
    0.4266    0.7424    0.0000 C   0  0  0  0  0  0  0  0  0  0  0  0
   -0.4183    0.7074    0.0000 C   0  0  0  0  0  0  0  0  0  0  0  0
   -0.9442    0.0070    0.0000 N   0  0  0  0  0  0  0  0  0  0  0  0
   -1.7622    0.3679    0.0000 C   0  0  0  0  0  0  0  0  0  0  0  0
   -1.6854    1.1893    0.0000 C   0  0  0  0  0  0  0  0  0  0  0  0
   -2.3584    1.6665    0.0000 C   0  0  0  0  0  0  0  0  0  0  0  0
   -3.1082    1.3223    0.0000 C   0  0  0  0  0  0  0  0  0  0  0  0
   -3.1850    0.5009    0.0000 C   0  0  0  0  0  0  0  0  0  0  0  0
   -2.5120    0.0237    0.0000 C   0  0  0  0  0  0  0  0  0  0  0  0
   -0.8558    1.4219    0.0000 C   0  0  0  0  0  0  0  0  0  0  0  0
   -0.3894    2.1565    0.0000 C   0  0  0  0  0  0  0  0  0  0  0  0
   -0.6976   -0.8972    0.0000 C   0  0  1  0  0  0  0  0  0  0  0  0
    0.0538   -0.8128    0.0000 O   0  0  0  0  0  0  0  0  0  0  0  0
    0.7974   -0.8312    0.0000 C   0  0  2  0  0  0  0  0  0  0  0  0
    0.8338   -1.7269    0.0000 C   0  0  0  0  0  0  0  0  0  0  0  0
    0.1504   -2.2359    0.0000 C   0  0  1  0  0  0  0  0  0  0  0  0
    0.2061   -3.0590    0.0000 N   0  0  0  0  0  0  0  0  0  0  0  0
    0.9468   -3.4223    0.0000 C   0  0  0  0  0  0  0  0  0  0  0  0
   -0.6036   -1.8191    0.0000 C   0  0  1  0  0  0  0  0  0  0  0  0
   -1.2920   -2.2738    0.0000 O   0  0  0  0  0  0  0  0  0  0  0  0
   -1.2425   -3.0973    0.0000 C   0  0  0  0  0  0  0  0  0  0  0  0
   -1.5088   -1.0480    0.0000 C   0  0  0  0  0  0  0  0  0  0  0  0
    1.7951   -0.8992    0.0000 H   0  0  0  0  0  0  0  0  0  0  0  0
   -1.6130    4.1559    0.0000 H   0  0  0  0  0  0  0  0  0  0  0  0
   -0.7953    4.0017    0.0000 H   0  0  0  0  0  0  0  0  0  0  0  0
    0.0430    4.4068    0.0000 H   0  0  0  0  0  0  0  0  0  0  0  0
    2.5629   -1.0083    0.0000 H   0  0  0  0  0  0  0  0  0  0  0  0
    4.1095    0.0197    0.0000 H   0  0  0  0  0  0  0  0  0  0  0  0
    3.9925    1.8731    0.0000 H   0  0  0  0  0  0  0  0  0  0  0  0
    2.3290    2.6985    0.0000 H   0  0  0  0  0  0  0  0  0  0  0  0
   -2.2623    2.6940    0.0000 H   0  0  0  0  0  0  0  0  0  0  0  0
   -3.9500    1.9193    0.0000 H   0  0  0  0  0  0  0  0  0  0  0  0
   -4.1229    0.0703    0.0000 H   0  0  0  0  0  0  0  0  0  0  0  0
   -2.6081   -1.0038    0.0000 H   0  0  0  0  0  0  0  0  0  0  0  0
    1.7996   -2.1875    0.0000 H   0  0  0  0  0  0  0  0  0  0  0  0
    0.9380   -2.7918    0.0000 H   0  0  0  0  0  0  0  0  0  0  0  0
    1.1223   -2.6834    0.0000 H   0  0  0  0  0  0  0  0  0  0  0  0
   -0.6408   -3.6275    0.0000 H   0  0  0  0  0  0  0  0  0  0  0  0
    1.0191   -4.4899    0.0000 H   0  0  0  0  0  0  0  0  0  0  0  0
    1.8352   -2.8259    0.0000 H   0  0  0  0  0  0  0  0  0  0  0  0
    1.9075   -3.8935    0.0000 H   0  0  0  0  0  0  0  0  0  0  0  0
   -1.5704   -1.3607    0.0000 H   0  0  0  0  0  0  0  0  0  0  0  0
   -2.1354   -3.6869    0.0000 H   0  0  0  0  0  0  0  0  0  0  0  0
   -0.2854   -3.5757    0.0000 H   0  0  0  0  0  0  0  0  0  0  0  0
   -1.1783   -4.1654    0.0000 H   0  0  0  0  0  0  0  0  0  0  0  0
   -2.2041   -0.2347    0.0000 H   0  0  0  0  0  0  0  0  0  0  0  0
   -1.8654   -2.0568    0.0000 H   0  0  0  0  0  0  0  0  0  0  0  0
   -2.5608   -1.2436    0.0000 H   0  0  0  0  0  0  0  0  0  0  0  0
  1 38  1  0  0  0  0
  2  1  1  0  0  0  0
  2  3  1  0  0  0  0
  2 39  1  6  0  0  0
  3 40  1  0  0  0  0
  4  3  1  0  0  0  0
  4  5  2  0  0  0  0
  6  4  1  0  0  0  0
  7  6  2  0  0  0  0
  8  7  1  0  0  0  0
  9  8  2  0  0  0  0
  9 14  1  0  0  0  0
 10  9  1  0  0  0  0
 10 11  2  0  0  0  0
 10 41  1  0  0  0  0
 11 12  1  0  0  0  0
 11 42  1  0  0  0  0
 12 13  2  0  0  0  0
 12 43  1  0  0  0  0
 13  8  1  0  0  0  0
 13 44  1  0  0  0  0
 15  7  1  0  0  0  0
 15 14  1  0  0  0  0
 16 15  2  0  0  0  0
 16 17  1  0  0  0  0
 18 17  1  0  0  0  0
 19 18  2  0  0  0  0
 19 20  1  0  0  0  0
 20 21  2  0  0  0  0
 20 45  1  0  0  0  0
 21 22  1  0  0  0  0
 21 46  1  0  0  0  0
 22 23  2  0  0  0  0
 22 47  1  0  0  0  0
 23 18  1  0  0  0  0
 23 48  1  0  0  0  0
 24 16  1  0  0  0  0
 24 19  1  0  0  0  0
 25  2  1  0  0  0  0
 25  6  1  0  0  0  0
 25 24  2  0  0  0  0
 26 17  1  0  0  0  0
 26 27  1  0  0  0  0
 26 33  1  0  0  0  0
 26 36  1  6  0  0  0
 28 14  1  0  0  0  0
 28 27  1  0  0  0  0
 28 37  1  6  0  0  0
 29 28  1  0  0  0  0
 29 49  1  0  0  0  0
 29 50  1  0  0  0  0
 30 29  1  0  0  0  0
 30 31  1  0  0  0  0
 30 51  1  6  0  0  0
 31 52  1  0  0  0  0
 32 31  1  0  0  0  0
 32 53  1  0  0  0  0
 32 54  1  0  0  0  0
 32 55  1  0  0  0  0
 33 30  1  0  0  0  0
 33 34  1  0  0  0  0
 33 56  1  6  0  0  0
 35 34  1  0  0  0  0
 35 57  1  0  0  0  0
 35 58  1  0  0  0  0
 35 59  1  0  0  0  0
 36 60  1  0  0  0  0
 36 61  1  0  0  0  0
 36 62  1  0  0  0  0
M  END
>  <DRUGBANK_ID>
DB01933

>  <SECONDARY_ACCESSION_NUMBERS>
EXPT03167

>  <COMMON_NAME>
7-Hydroxystaurosporine

>  <CAS_NUMBER>
112953-11-4

>  <UNII>
7BU5H4V94A

$$$$
