BDI
 OpenBabel10282417072D

 27 28  0  0  0  0  0  0  0  0999 V2000
    0.4413   -0.3917    0.0000 N   0  0  0  0  0  0  0  0  0  0  0  0
   -0.0436    0.2757    0.0000 C   0  0  0  0  0  0  0  0  0  0  0  0
   -0.8686    0.2757    0.0000 C   0  0  0  0  0  0  0  0  0  0  0  0
   -1.2811   -0.4387    0.0000 C   0  0  0  0  0  0  0  0  0  0  0  0
   -2.1061   -0.4387    0.0000 C   0  0  0  0  0  0  0  0  0  0  0  0
   -2.5186   -1.1532    0.0000 C   0  0  0  0  0  0  0  0  0  0  0  0
    0.4413    0.9432    0.0000 N   0  0  0  0  0  0  0  0  0  0  0  0
    1.2259    0.6882    0.0000 C   0  0  0  0  0  0  0  0  0  0  0  0
    1.9404    1.1007    0.0000 C   0  0  0  0  0  0  0  0  0  0  0  0
    2.6549    0.6882    0.0000 N   0  0  0  0  0  0  0  0  0  0  0  0
    2.6549   -0.1368    0.0000 N   0  0  0  0  0  0  0  0  0  0  0  0
    1.9404   -0.5493    0.0000 C   0  0  0  0  0  0  0  0  0  0  0  0
    1.9404   -1.3743    0.0000 O   0  0  0  0  0  0  0  0  0  0  0  0
    1.2259   -0.1368    0.0000 C   0  0  0  0  0  0  0  0  0  0  0  0
    1.9404    1.9257    0.0000 O   0  0  0  0  0  0  0  0  0  0  0  0
   -1.4036    1.2024    0.0000 H   0  0  0  0  0  0  0  0  0  0  0  0
   -1.9386    0.2757    0.0000 H   0  0  0  0  0  0  0  0  0  0  0  0
   -0.7461   -1.3654    0.0000 H   0  0  0  0  0  0  0  0  0  0  0  0
   -1.8161   -1.3653    0.0000 H   0  0  0  0  0  0  0  0  0  0  0  0
   -2.6411    0.4879    0.0000 H   0  0  0  0  0  0  0  0  0  0  0  0
   -3.1761   -0.4387    0.0000 H   0  0  0  0  0  0  0  0  0  0  0  0
   -3.5886   -1.1532    0.0000 H   0  0  0  0  0  0  0  0  0  0  0  0
   -1.9836   -2.0798    0.0000 H   0  0  0  0  0  0  0  0  0  0  0  0
   -3.0536   -2.0799    0.0000 H   0  0  0  0  0  0  0  0  0  0  0  0
    0.1371    1.8795    0.0000 H   0  0  0  0  0  0  0  0  0  0  0  0
    3.5075    1.1805    0.0000 H   0  0  0  0  0  0  0  0  0  0  0  0
    3.5075   -0.6291    0.0000 H   0  0  0  0  0  0  0  0  0  0  0  0
  1  2  2  0  0  0  0
  1 14  1  0  0  0  0
  2  3  1  0  0  0  0
  2  7  1  0  0  0  0
  3  4  1  0  0  0  0
  3 16  1  0  0  0  0
  3 17  1  0  0  0  0
  4  5  1  0  0  0  0
  4 18  1  0  0  0  0
  4 19  1  0  0  0  0
  5  6  1  0  0  0  0
  5 20  1  0  0  0  0
  5 21  1  0  0  0  0
  6 22  1  0  0  0  0
  6 23  1  0  0  0  0
  6 24  1  0  0  0  0
  7  8  1  0  0  0  0
  7 25  1  0  0  0  0
  8  9  1  0  0  0  0
  8 14  2  0  0  0  0
  9 10  1  0  0  0  0
  9 15  2  0  0  0  0
 10 11  1  0  0  0  0
 10 26  1  0  0  0  0
 11 12  1  0  0  0  0
 11 27  1  0  0  0  0
 12 13  2  0  0  0  0
 12 14  1  0  0  0  0
M  END
>  <DRUGBANK_ID>
DB02441

>  <SECONDARY_ACCESSION_NUMBERS>
EXPT00650

>  <COMMON_NAME>
2-Butyl-5,6-Dihydro-1h-Imidazo[4,5-D]Pyridazine-4,7-Dione

>  <UNII>
917N15H9XX

$$$$
