
 OpenBabel10282417072D

 59 61  0  0  0  0  0  0  0  0999 V2000
    1.7862    2.2687    0.0000 O   0  0  0  0  0  0  0  0  0  0  0  0
    0.3572   -0.2062    0.0000 N   0  0  0  0  0  0  0  0  0  0  0  0
    0.3572    2.2687    0.0000 N   0  0  0  0  0  0  0  0  0  0  0  0
    0.3572    1.4437    0.0000 C   0  0  3  0  0  0  0  0  0  0  0  0
    1.0717    1.0312    0.0000 C   0  0  3  0  0  0  0  0  0  0  0  0
   -0.3571    0.2062    0.0000 C   0  0  3  0  0  0  0  0  0  0  0  0
   -0.3571    1.0312    0.0000 C   0  0  0  0  0  0  0  0  0  0  0  0
    1.0717    0.2062    0.0000 C   0  0  0  0  0  0  0  0  0  0  0  0
    0.3572   -1.0312    0.0000 C   0  0  0  0  0  0  0  0  0  0  0  0
    1.7862    1.4437    0.0000 C   0  0  0  0  0  0  0  0  0  0  0  0
   -1.0717   -0.2062    0.0000 C   0  0  0  0  0  0  0  0  0  0  0  0
    1.0717   -1.4437    0.0000 C   0  0  0  0  0  0  0  0  0  0  0  0
   -0.3571    2.6813    0.0000 C   0  0  0  0  0  0  0  0  0  0  0  0
    1.0717    2.6813    0.0000 C   0  0  0  0  0  0  0  0  0  0  0  0
    1.0717   -2.2687    0.0000 C   0  0  0  0  0  0  0  0  0  0  0  0
    1.0717    3.5063    0.0000 C   0  0  0  0  0  0  0  0  0  0  0  0
   -1.0717    2.2687    0.0000 C   0  0  0  0  0  0  0  0  0  0  0  0
   -0.3571    3.5063    0.0000 C   0  0  0  0  0  0  0  0  0  0  0  0
    1.7862    3.9188    0.0000 C   0  0  0  0  0  0  0  0  0  0  0  0
    1.7862   -2.6813    0.0000 C   0  0  0  0  0  0  0  0  0  0  0  0
    0.3572   -2.6813    0.0000 C   0  0  0  0  0  0  0  0  0  0  0  0
   -1.7862    2.6813    0.0000 C   0  0  0  0  0  0  0  0  0  0  0  0
   -1.0717    3.9188    0.0000 C   0  0  0  0  0  0  0  0  0  0  0  0
   -1.7862    3.5063    0.0000 C   0  0  0  0  0  0  0  0  0  0  0  0
    1.7862   -3.5063    0.0000 C   0  0  0  0  0  0  0  0  0  0  0  0
    0.3572   -3.5063    0.0000 C   0  0  0  0  0  0  0  0  0  0  0  0
    1.0717   -3.9188    0.0000 C   0  0  0  0  0  0  0  0  0  0  0  0
    1.2838    1.9787    0.0000 H   0  0  0  0  0  0  0  0  0  0  0  0
    0.1451    0.4962    0.0000 H   0  0  0  0  0  0  0  0  0  0  0  0
    0.5695    0.7412    0.0000 H   0  0  0  0  0  0  0  0  0  0  0  0
   -1.2838    1.5662    0.0000 H   0  0  0  0  0  0  0  0  0  0  0  0
   -1.2837    0.4962    0.0000 H   0  0  0  0  0  0  0  0  0  0  0  0
    1.9983   -0.3289    0.0000 H   0  0  0  0  0  0  0  0  0  0  0  0
    1.9984    0.7412    0.0000 H   0  0  0  0  0  0  0  0  0  0  0  0
   -0.5694   -1.5662    0.0000 H   0  0  0  0  0  0  0  0  0  0  0  0
    0.3572   -2.1012    0.0000 H   0  0  0  0  0  0  0  0  0  0  0  0
    2.7128    0.9087    0.0000 H   0  0  0  0  0  0  0  0  0  0  0  0
    1.7862    2.5137    0.0000 H   0  0  0  0  0  0  0  0  0  0  0  0
    2.7129    1.9787    0.0000 H   0  0  0  0  0  0  0  0  0  0  0  0
   -1.9982    0.3290    0.0000 H   0  0  0  0  0  0  0  0  0  0  0  0
   -1.0719   -1.2762    0.0000 H   0  0  0  0  0  0  0  0  0  0  0  0
   -1.9984   -0.7410    0.0000 H   0  0  0  0  0  0  0  0  0  0  0  0
    1.9983   -0.9087    0.0000 H   0  0  0  0  0  0  0  0  0  0  0  0
    1.9983   -1.9787    0.0000 H   0  0  0  0  0  0  0  0  0  0  0  0
    0.1451    4.0413    0.0000 H   0  0  0  0  0  0  0  0  0  0  0  0
    1.0717    4.5763    0.0000 H   0  0  0  0  0  0  0  0  0  0  0  0
   -1.0717    1.2367    0.0000 H   0  0  0  0  0  0  0  0  0  0  0  0
    0.5366    4.0223    0.0000 H   0  0  0  0  0  0  0  0  0  0  0  0
    2.7128    3.3838    0.0000 H   0  0  0  0  0  0  0  0  0  0  0  0
    1.7862    4.9888    0.0000 H   0  0  0  0  0  0  0  0  0  0  0  0
    2.7129    4.4538    0.0000 H   0  0  0  0  0  0  0  0  0  0  0  0
    2.6800   -2.1653    0.0000 H   0  0  0  0  0  0  0  0  0  0  0  0
   -0.5366   -2.1653    0.0000 H   0  0  0  0  0  0  0  0  0  0  0  0
   -2.6800    2.1653    0.0000 H   0  0  0  0  0  0  0  0  0  0  0  0
   -1.0717    4.9508    0.0000 H   0  0  0  0  0  0  0  0  0  0  0  0
   -2.6799    4.0223    0.0000 H   0  0  0  0  0  0  0  0  0  0  0  0
    2.6799   -4.0223    0.0000 H   0  0  0  0  0  0  0  0  0  0  0  0
   -0.5365   -4.0223    0.0000 H   0  0  0  0  0  0  0  0  0  0  0  0
    1.0717   -4.9508    0.0000 H   0  0  0  0  0  0  0  0  0  0  0  0
  1 14  2  0  0  0  0
  2  6  1  0  0  0  0
  2  8  1  0  0  0  0
  2  9  1  0  0  0  0
  3  4  1  0  0  0  0
  3 13  1  0  0  0  0
  3 14  1  0  0  0  0
  4  5  1  0  0  0  0
  4  7  1  0  0  0  0
  4 28  1  0  0  0  0
  5  8  1  0  0  0  0
  5 10  1  0  0  0  0
  5 29  1  0  0  0  0
  6  7  1  0  0  0  0
  6 11  1  0  0  0  0
  6 30  1  0  0  0  0
  7 31  1  0  0  0  0
  7 32  1  0  0  0  0
  8 33  1  0  0  0  0
  8 34  1  0  0  0  0
  9 12  1  0  0  0  0
  9 35  1  0  0  0  0
  9 36  1  0  0  0  0
 10 37  1  0  0  0  0
 10 38  1  0  0  0  0
 10 39  1  0  0  0  0
 11 40  1  0  0  0  0
 11 41  1  0  0  0  0
 11 42  1  0  0  0  0
 12 15  1  0  0  0  0
 12 43  1  0  0  0  0
 12 44  1  0  0  0  0
 13 17  2  0  0  0  0
 13 18  1  0  0  0  0
 14 16  1  0  0  0  0
 15 20  2  0  0  0  0
 15 21  1  0  0  0  0
 16 19  1  0  0  0  0
 16 45  1  0  0  0  0
 16 46  1  0  0  0  0
 17 22  1  0  0  0  0
 17 47  1  0  0  0  0
 18 23  2  0  0  0  0
 18 48  1  0  0  0  0
 19 49  1  0  0  0  0
 19 50  1  0  0  0  0
 19 51  1  0  0  0  0
 20 25  1  0  0  0  0
 20 52  1  0  0  0  0
 21 26  2  0  0  0  0
 21 53  1  0  0  0  0
 22 24  2  0  0  0  0
 22 54  1  0  0  0  0
 23 24  1  0  0  0  0
 23 55  1  0  0  0  0
 24 56  1  0  0  0  0
 25 27  2  0  0  0  0
 25 57  1  0  0  0  0
 26 27  1  0  0  0  0
 26 58  1  0  0  0  0
 27 59  1  0  0  0  0
M  END
>  <DRUGBANK_ID>
DB09178

>  <COMMON_NAME>
Phenaridine

>  <CAS_NUMBER>
42045-97-6

>  <UNII>
S07S9928YH

>  <SYNONYMS>
2,5-Dimethylfentanyl

$$$$
