LIE
 OpenBabel10282417072D

 45 48  0  0  0  0  0  0  0  0999 V2000
    1.7302    0.2965    0.0000 C   0  0  0  0  0  0  0  0  0  0  0  0
    0.3012    0.2965    0.0000 C   0  0  0  0  0  0  0  0  0  0  0  0
   -0.7383   -0.7431    0.0000 C   0  0  0  0  0  0  0  0  0  0  0  0
   -0.9683    0.7090    0.0000 C   0  0  0  0  0  0  0  0  0  0  0  0
   -1.7933    0.7090    0.0000 N   0  0  0  0  0  0  0  0  0  0  0  0
    2.4447   -0.9410    0.0000 C   0  0  0  0  0  0  0  0  0  0  0  0
    3.1591   -1.3535    0.0000 C   0  0  0  0  0  0  0  0  0  0  0  0
    1.7302   -2.1785    0.0000 C   0  0  0  0  0  0  0  0  0  0  0  0
   -1.5453   -0.9146    0.0000 C   0  0  0  0  0  0  0  0  0  0  0  0
   -3.4433    0.7090    0.0000 F   0  0  0  0  0  0  0  0  0  0  0  0
   -3.0308    1.4235    0.0000 C   0  0  0  0  0  0  0  0  0  0  0  0
   -3.4433    2.1379    0.0000 C   0  0  0  0  0  0  0  0  0  0  0  0
   -3.0308    2.8524    0.0000 C   0  0  0  0  0  0  0  0  0  0  0  0
   -2.2058    2.8524    0.0000 C   0  0  0  0  0  0  0  0  0  0  0  0
   -1.7933    2.1379    0.0000 C   0  0  0  0  0  0  0  0  0  0  0  0
   -2.2058    1.4235    0.0000 C   0  0  0  0  0  0  0  0  0  0  0  0
   -0.4834    1.3764    0.0000 N   0  0  0  0  0  0  0  0  0  0  0  0
    0.3012    1.1215    0.0000 C   0  0  0  0  0  0  0  0  0  0  0  0
    1.0157    1.5340    0.0000 C   0  0  0  0  0  0  0  0  0  0  0  0
   -0.4834    0.0415    0.0000 N   0  0  0  0  0  0  0  0  0  0  0  0
   -0.1863   -1.3562    0.0000 C   0  0  0  0  0  0  0  0  0  0  0  0
    1.0157   -0.1160    0.0000 N   0  0  0  0  0  0  0  0  0  0  0  0
    1.7302    1.1215    0.0000 N   0  0  0  0  0  0  0  0  0  0  0  0
    2.4447   -0.1160    0.0000 O   0  0  0  0  0  0  0  0  0  0  0  0
    3.8736   -0.9410    0.0000 F   0  0  0  0  0  0  0  0  0  0  0  0
    3.1591   -2.1785    0.0000 C   0  0  0  0  0  0  0  0  0  0  0  0
    2.4447   -2.5910    0.0000 C   0  0  0  0  0  0  0  0  0  0  0  0
    1.7302   -1.3535    0.0000 C   0  0  0  0  0  0  0  0  0  0  0  0
    1.0157   -0.9410    0.0000 F   0  0  0  0  0  0  0  0  0  0  0  0
    0.3083   -0.5206    0.0000 H   0  0  0  0  0  0  0  0  0  0  0  0
   -2.2856   -0.1436    0.0000 H   0  0  0  0  0  0  0  0  0  0  0  0
    0.8365   -2.6945    0.0000 H   0  0  0  0  0  0  0  0  0  0  0  0
   -2.2612   -0.1194    0.0000 H   0  0  0  0  0  0  0  0  0  0  0  0
   -1.8760   -1.9322    0.0000 H   0  0  0  0  0  0  0  0  0  0  0  0
   -2.5919   -1.1370    0.0000 H   0  0  0  0  0  0  0  0  0  0  0  0
   -4.4753    2.1379    0.0000 H   0  0  0  0  0  0  0  0  0  0  0  0
   -3.5468    3.7461    0.0000 H   0  0  0  0  0  0  0  0  0  0  0  0
   -1.6898    3.7461    0.0000 H   0  0  0  0  0  0  0  0  0  0  0  0
   -0.7613    2.1379    0.0000 H   0  0  0  0  0  0  0  0  0  0  0  0
    1.0157    2.5660    0.0000 H   0  0  0  0  0  0  0  0  0  0  0  0
   -0.5170   -2.3738    0.0000 H   0  0  0  0  0  0  0  0  0  0  0  0
    0.8603   -1.1338    0.0000 H   0  0  0  0  0  0  0  0  0  0  0  0
    0.5296   -2.1514    0.0000 H   0  0  0  0  0  0  0  0  0  0  0  0
    4.0528   -2.6945    0.0000 H   0  0  0  0  0  0  0  0  0  0  0  0
    2.4447   -3.6230    0.0000 H   0  0  0  0  0  0  0  0  0  0  0  0
  1 22  1  0  0  0  0
  1 23  2  0  0  0  0
  1 24  1  0  0  0  0
  2 18  1  0  0  0  0
  2 20  1  0  0  0  0
  2 22  2  0  0  0  0
  3  9  1  0  0  0  0
  3 20  1  0  0  0  0
  3 21  1  0  0  0  0
  3 30  1  0  0  0  0
  4  5  1  0  0  0  0
  4 17  2  0  0  0  0
  4 20  1  0  0  0  0
  5 16  1  0  0  0  0
  5 31  1  0  0  0  0
  6  7  1  0  0  0  0
  6 24  1  0  0  0  0
  6 28  2  0  0  0  0
  7 25  1  0  0  0  0
  7 26  2  0  0  0  0
  8 27  2  0  0  0  0
  8 28  1  0  0  0  0
  8 32  1  0  0  0  0
  9 33  1  0  0  0  0
  9 34  1  0  0  0  0
  9 35  1  0  0  0  0
 10 11  1  0  0  0  0
 11 12  2  0  0  0  0
 11 16  1  0  0  0  0
 12 13  1  0  0  0  0
 12 36  1  0  0  0  0
 13 14  2  0  0  0  0
 13 37  1  0  0  0  0
 14 15  1  0  0  0  0
 14 38  1  0  0  0  0
 15 16  2  0  0  0  0
 15 39  1  0  0  0  0
 17 18  1  0  0  0  0
 18 19  2  0  0  0  0
 19 23  1  0  0  0  0
 19 40  1  0  0  0  0
 21 41  1  0  0  0  0
 21 42  1  0  0  0  0
 21 43  1  0  0  0  0
 26 27  1  0  0  0  0
 26 44  1  0  0  0  0
 27 45  1  0  0  0  0
 28 29  1  0  0  0  0
M  END
>  <DRUGBANK_ID>
DB08097

>  <COMMON_NAME>
2-(2,6-DIFLUOROPHENOXY)-N-(2-FLUOROPHENYL)-9-ISOPROPYL-9H-PURIN-8-AMINE

$$$$
