
 OpenBabel10282417072D

 54 52  0  0  0  0  0  0  0  0999 V2000
    2.9314   -0.8250    0.0000 C   0  0  0  0  0  0  0  0  0  0  0  0
   -0.6408   -0.4125    0.0000 C   0  0  0  0  0  0  0  0  0  0  0  0
   -1.3553   -0.8250    0.0000 C   0  0  3  0  0  0  0  0  0  0  0  0
    2.2169   -0.4125    0.0000 C   0  0  2  0  0  0  0  0  0  0  0  0
   -2.0698   -0.4125    0.0000 C   0  0  3  0  0  0  0  0  0  0  0  0
    2.2169    0.4125    0.0000 C   0  0  2  0  0  0  0  0  0  0  0  0
   -2.7842   -0.8250    0.0000 C   0  0  3  0  0  0  0  0  0  0  0  0
    1.5025    0.8250    0.0000 C   0  0  1  0  0  0  0  0  0  0  0  0
   -3.4987   -0.4125    0.0000 C   0  0  3  0  0  0  0  0  0  0  0  0
   -4.2132   -0.8250    0.0000 C   0  0  3  0  0  0  0  0  0  0  0  0
    0.7880    0.4125    0.0000 C   0  0  2  0  0  0  0  0  0  0  0  0
   -4.9277   -0.4125    0.0000 C   0  0  0  0  0  0  0  0  0  0  0  0
    0.7880   -0.4125    0.0000 C   0  0  1  0  0  0  0  0  0  0  0  0
    3.6459   -0.4125    0.0000 O   0  0  0  0  0  0  0  0  0  0  0  0
   -1.3553   -1.6500    0.0000 O   0  0  0  0  0  0  0  0  0  0  0  0
   -2.0698    0.4125    0.0000 O   0  0  0  0  0  0  0  0  0  0  0  0
    2.9314    0.8250    0.0000 O   0  0  0  0  0  0  0  0  0  0  0  0
   -2.7842   -1.6500    0.0000 O   0  0  0  0  0  0  0  0  0  0  0  0
    1.5025    1.6500    0.0000 O   0  0  0  0  0  0  0  0  0  0  0  0
   -3.4987    0.4125    0.0000 O   0  0  0  0  0  0  0  0  0  0  0  0
   -4.2132   -1.6500    0.0000 O   0  0  0  0  0  0  0  0  0  0  0  0
    0.0735    0.8250    0.0000 O   0  0  0  0  0  0  0  0  0  0  0  0
   -4.9277    0.4125    0.0000 O   0  0  0  0  0  0  0  0  0  0  0  0
   -5.6421   -0.8250    0.0000 O   0  5  0  0  0  0  0  0  0  0  0  0
    0.0735   -0.8250    0.0000 O   0  0  0  0  0  0  0  0  0  0  0  0
    1.5025   -0.8250    0.0000 O   0  0  0  0  0  0  0  0  0  0  0  0
   -6.3566   -1.2375    0.0000 Fe  0  3  0  0  0  0  0  0  0  0  0  0
    6.3566   -0.2341    0.0000 O   0  0  0  0  0  0  0  0  0  0  0  0
    5.5316   -0.2341    0.0000 O   0  0  0  0  0  0  0  0  0  0  0  0
   -1.3553    0.0000    0.0000 H   0  0  0  0  0  0  0  0  0  0  0  0
    2.9314    0.0000    0.0000 H   0  0  0  0  0  0  0  0  0  0  0  0
   -2.0698   -1.2375    0.0000 H   0  0  0  0  0  0  0  0  0  0  0  0
    2.2169    1.2375    0.0000 H   0  0  0  0  0  0  0  0  0  0  0  0
   -2.7842    0.0000    0.0000 H   0  0  0  0  0  0  0  0  0  0  0  0
    1.5025    0.0000    0.0000 H   0  0  0  0  0  0  0  0  0  0  0  0
   -3.4987   -1.2375    0.0000 H   0  0  0  0  0  0  0  0  0  0  0  0
   -4.2132    0.0000    0.0000 H   0  0  0  0  0  0  0  0  0  0  0  0
    0.7880    1.2375    0.0000 H   0  0  0  0  0  0  0  0  0  0  0  0
    0.0735    0.0000    0.0000 H   0  0  0  0  0  0  0  0  0  0  0  0
    2.9314   -1.8950    0.0000 H   0  0  0  0  0  0  0  0  0  0  0  0
    3.8580   -1.3600    0.0000 H   0  0  0  0  0  0  0  0  0  0  0  0
   -0.6407    0.6575    0.0000 H   0  0  0  0  0  0  0  0  0  0  0  0
    0.2859    0.1224    0.0000 H   0  0  0  0  0  0  0  0  0  0  0  0
    4.4859   -0.8975    0.0000 H   0  0  0  0  0  0  0  0  0  0  0  0
   -2.1953   -2.1350    0.0000 H   0  0  0  0  0  0  0  0  0  0  0  0
   -1.2298    0.8975    0.0000 H   0  0  0  0  0  0  0  0  0  0  0  0
    3.7714    0.3400    0.0000 H   0  0  0  0  0  0  0  0  0  0  0  0
   -3.6242   -2.1350    0.0000 H   0  0  0  0  0  0  0  0  0  0  0  0
    2.3425    2.1350    0.0000 H   0  0  0  0  0  0  0  0  0  0  0  0
   -2.6587    0.8975    0.0000 H   0  0  0  0  0  0  0  0  0  0  0  0
   -5.0532   -2.1350    0.0000 H   0  0  0  0  0  0  0  0  0  0  0  0
    0.0735    1.7950    0.0000 H   0  0  0  0  0  0  0  0  0  0  0  0
    6.8416   -1.0741    0.0000 H   0  0  0  0  0  0  0  0  0  0  0  0
    5.0466    0.6059    0.0000 H   0  0  0  0  0  0  0  0  0  0  0  0
  1 40  1  0  0  0  0
  1 41  1  0  0  0  0
  2 42  1  0  0  0  0
  2 43  1  0  0  0  0
  3  2  1  0  0  0  0
  4  1  1  0  0  0  0
  4 26  1  0  0  0  0
  4 31  1  6  0  0  0
  5  3  1  0  0  0  0
  6  4  1  0  0  0  0
  6  8  1  0  0  0  0
  6 17  1  0  0  0  0
  6 33  1  1  0  0  0
  7  5  1  0  0  0  0
  8 11  1  0  0  0  0
  8 19  1  0  0  0  0
  8 35  1  6  0  0  0
  9  7  1  0  0  0  0
 10  9  1  0  0  0  0
 11 13  1  0  0  0  0
 11 22  1  0  0  0  0
 11 38  1  1  0  0  0
 12 10  1  0  0  0  0
 13 25  1  0  0  0  0
 13 26  1  0  0  0  0
 13 39  1  1  0  0  0
 14  1  1  0  0  0  0
 14 44  1  0  0  0  0
 15  3  1  0  0  0  0
 15 45  1  0  0  0  0
 16  5  1  0  0  0  0
 16 46  1  0  0  0  0
 17 47  1  0  0  0  0
 18  7  1  0  0  0  0
 18 48  1  0  0  0  0
 19 49  1  0  0  0  0
 20  9  1  0  0  0  0
 20 50  1  0  0  0  0
 21 10  1  0  0  0  0
 21 51  1  0  0  0  0
 22 52  1  0  0  0  0
 23 12  2  0  0  0  0
 24 12  1  0  0  0  0
 25  2  1  0  0  0  0
 28 53  1  0  0  0  0
 29 28  1  0  0  0  0
 29 54  1  0  0  0  0
 30  3  1  0  0  0  0
 32  5  1  0  0  0  0
 34  7  1  0  0  0  0
 36  9  1  0  0  0  0
 37 10  1  0  0  0  0
M  CHG  2  24  -1  27   1
M  END
>  <DRUGBANK_ID>
DB11417

>  <COMMON_NAME>
Gleptoferron

>  <CAS_NUMBER>
57680-55-4

>  <UNII>
898723IQHQ

>  <SYNONYMS>
Gleptoferron; Gleptoferronum

$$$$
