SHM
 OpenBabel10282417072D

 35 36  0  0  0  0  0  0  0  0999 V2000
   -2.2016   -0.5131    0.0000 C   0  0  1  0  0  0  0  0  0  0  0  0
   -1.6496    0.1000    0.0000 C   0  0  2  0  0  0  0  0  0  0  0  0
   -2.0621    0.8144    0.0000 N   0  0  0  0  0  0  0  0  0  0  0  0
   -2.8690    0.6429    0.0000 C   0  0  0  0  0  0  0  0  0  0  0  0
   -2.9553   -0.1776    0.0000 N   0  0  0  0  0  0  0  0  0  0  0  0
   -0.8959   -0.2356    0.0000 C   0  0  1  0  0  0  0  0  0  0  0  0
   -0.9821   -1.0561    0.0000 S   0  0  0  0  0  0  0  0  0  0  0  0
   -1.7891   -1.2276    0.0000 C   0  0  0  0  0  0  0  0  0  0  0  0
   -0.1814    0.1769    0.0000 C   0  0  0  0  0  0  0  0  0  0  0  0
    0.5331   -0.2356    0.0000 C   0  0  0  0  0  0  0  0  0  0  0  0
    1.2475    0.1769    0.0000 C   0  0  0  0  0  0  0  0  0  0  0  0
    1.9620   -0.2356    0.0000 C   0  0  0  0  0  0  0  0  0  0  0  0
    2.6765    0.1769    0.0000 C   0  0  0  0  0  0  0  0  0  0  0  0
    3.3909   -0.2356    0.0000 C   0  0  0  0  0  0  0  0  0  0  0  0
    4.1054    0.1769    0.0000 O   0  0  0  0  0  0  0  0  0  0  0  0
    3.3909   -1.0606    0.0000 O   0  0  0  0  0  0  0  0  0  0  0  0
   -3.4821    1.1949    0.0000 O   0  0  0  0  0  0  0  0  0  0  0  0
   -2.5923   -0.9471    0.0000 H   0  0  0  0  0  0  0  0  0  0  0  0
   -1.2588    0.5339    0.0000 H   0  0  0  0  0  0  0  0  0  0  0  0
   -0.9265    0.3475    0.0000 H   0  0  0  0  0  0  0  0  0  0  0  0
   -1.6617    1.7138    0.0000 H   0  0  0  0  0  0  0  0  0  0  0  0
   -3.8079   -0.6699    0.0000 H   0  0  0  0  0  0  0  0  0  0  0  0
   -2.2243   -2.2051    0.0000 H   0  0  0  0  0  0  0  0  0  0  0  0
   -1.1158   -2.0592    0.0000 H   0  0  0  0  0  0  0  0  0  0  0  0
   -0.1814    1.2469    0.0000 H   0  0  0  0  0  0  0  0  0  0  0  0
    0.7452    0.7119    0.0000 H   0  0  0  0  0  0  0  0  0  0  0  0
    0.5331   -1.3056    0.0000 H   0  0  0  0  0  0  0  0  0  0  0  0
    1.4598   -0.7706    0.0000 H   0  0  0  0  0  0  0  0  0  0  0  0
    1.2475    1.2469    0.0000 H   0  0  0  0  0  0  0  0  0  0  0  0
    2.1741    0.7119    0.0000 H   0  0  0  0  0  0  0  0  0  0  0  0
    1.9620   -1.3056    0.0000 H   0  0  0  0  0  0  0  0  0  0  0  0
    2.8886   -0.7706    0.0000 H   0  0  0  0  0  0  0  0  0  0  0  0
    2.6765    1.2469    0.0000 H   0  0  0  0  0  0  0  0  0  0  0  0
    3.6032    0.7119    0.0000 H   0  0  0  0  0  0  0  0  0  0  0  0
    2.5794   -1.5291    0.0000 H   0  0  0  0  0  0  0  0  0  0  0  0
  1  2  1  0  0  0  0
  1  5  1  0  0  0  0
  1  8  1  0  0  0  0
  1 18  1  1  0  0  0
  2  3  1  0  0  0  0
  2  6  1  0  0  0  0
  2 19  1  1  0  0  0
  3  4  1  0  0  0  0
  3 21  1  0  0  0  0
  4  5  1  0  0  0  0
  4 17  2  0  0  0  0
  5 22  1  0  0  0  0
  6  7  1  0  0  0  0
  6  9  1  0  0  0  0
  6 20  1  1  0  0  0
  7  8  1  0  0  0  0
  8 23  1  0  0  0  0
  8 24  1  0  0  0  0
  9 10  1  0  0  0  0
  9 25  1  0  0  0  0
  9 26  1  0  0  0  0
 10 11  1  0  0  0  0
 10 27  1  0  0  0  0
 10 28  1  0  0  0  0
 11 12  1  0  0  0  0
 11 29  1  0  0  0  0
 11 30  1  0  0  0  0
 12 13  1  0  0  0  0
 12 31  1  0  0  0  0
 12 32  1  0  0  0  0
 13 14  1  0  0  0  0
 13 33  1  0  0  0  0
 13 34  1  0  0  0  0
 14 15  2  0  0  0  0
 14 16  1  0  0  0  0
 16 35  1  0  0  0  0
M  END
>  <DRUGBANK_ID>
DB03112

>  <SECONDARY_ACCESSION_NUMBERS>
EXPT02904

>  <COMMON_NAME>
6-(2-Oxo-Hexahydro-Thieno[3,4-D]Imidazol-4-Yl)-Hexanoic Acid

$$$$
