
 OpenBabel10282417072D

  4  3  0  0  0  0  0  0  0  0999 V2000
    0.0000    0.0000    0.0000 In  0  0  0  0  0  0  0  0  0  0  0  0
    0.0000    0.0000    0.0000 H   0  0  0  0  0  0  0  0  0  0  0  0
    0.0000    0.0000    0.0000 H   0  0  0  0  0  0  0  0  0  0  0  0
    0.0000    0.0000    0.0000 H   0  0  0  0  0  0  0  0  0  0  0  0
  1  2  1  0  0  0  0
  1  3  1  0  0  0  0
  1  4  1  0  0  0  0
M  ISO  1   1 111
M  END
>  <DRUGBANK_ID>
DB11916

>  <COMMON_NAME>
Indium In-111

>  <CAS_NUMBER>
15750-15-9

>  <UNII>
E9NGC49E0T

>  <SYNONYMS>
Indium (111 In)

$$$$
