
 OpenBabel10282417072D

 36 36  0  0  0  0  0  0  0  0999 V2000
    0.0391    0.7537    0.0000 N   0  0  0  0  0  0  0  0  0  0  0  0
    0.0391   -0.0713    0.0000 C   0  0  0  0  0  0  0  0  0  0  0  0
   -0.6754   -0.4838    0.0000 C   0  0  0  0  0  0  0  0  0  0  0  0
   -0.6754   -1.3089    0.0000 C   0  0  0  0  0  0  0  0  0  0  0  0
   -1.3899   -1.7213    0.0000 C   0  0  0  0  0  0  0  0  0  0  0  0
   -2.1044   -1.3089    0.0000 C   0  0  0  0  0  0  0  0  0  0  0  0
    0.1496   -1.3089    0.0000 C   0  0  0  0  0  0  0  0  0  0  0  0
   -0.2628   -2.0233    0.0000 C   0  0  0  0  0  0  0  0  0  0  0  0
   -1.3899   -0.0713    0.0000 O   0  0  0  0  0  0  0  0  0  0  0  0
    0.7536   -0.4838    0.0000 O   0  0  0  0  0  0  0  0  0  0  0  0
    0.7066    1.2388    0.0000 C   0  0  2  0  0  0  0  0  0  0  0  0
    1.4913    0.9837    0.0000 C   0  0  0  0  0  0  0  0  0  0  0  0
    1.6628    0.1767    0.0000 O   0  0  0  0  0  0  0  0  0  0  0  0
    2.1044    1.5358    0.0000 O   0  0  0  0  0  0  0  0  0  0  0  0
    0.4517    2.0233    0.0000 C   0  0  0  0  0  0  0  0  0  0  0  0
   -0.3733    2.0233    0.0000 C   0  0  0  0  0  0  0  0  0  0  0  0
   -0.6283    1.2388    0.0000 C   0  0  0  0  0  0  0  0  0  0  0  0
   -1.3899   -2.7913    0.0000 H   0  0  0  0  0  0  0  0  0  0  0  0
   -2.3165   -2.2564    0.0000 H   0  0  0  0  0  0  0  0  0  0  0  0
   -2.1045   -0.2389    0.0000 H   0  0  0  0  0  0  0  0  0  0  0  0
   -3.0310   -1.8440    0.0000 H   0  0  0  0  0  0  0  0  0  0  0  0
   -3.0311   -0.7740    0.0000 H   0  0  0  0  0  0  0  0  0  0  0  0
    0.6846   -2.2355    0.0000 H   0  0  0  0  0  0  0  0  0  0  0  0
    0.6846   -0.3823    0.0000 H   0  0  0  0  0  0  0  0  0  0  0  0
    1.2196   -1.3089    0.0000 H   0  0  0  0  0  0  0  0  0  0  0  0
   -0.7977   -2.9500    0.0000 H   0  0  0  0  0  0  0  0  0  0  0  0
    0.8072   -2.0231    0.0000 H   0  0  0  0  0  0  0  0  0  0  0  0
    0.2723   -2.9499    0.0000 H   0  0  0  0  0  0  0  0  0  0  0  0
    0.8740    0.1820    0.0000 H   0  0  0  0  0  0  0  0  0  0  0  0
    2.9956    1.2463    0.0000 H   0  0  0  0  0  0  0  0  0  0  0  0
    1.0806    2.8889    0.0000 H   0  0  0  0  0  0  0  0  0  0  0  0
   -0.0341    2.9767    0.0000 H   0  0  0  0  0  0  0  0  0  0  0  0
   -1.0022    2.8890    0.0000 H   0  0  0  0  0  0  0  0  0  0  0  0
   -1.4301    1.8560    0.0000 H   0  0  0  0  0  0  0  0  0  0  0  0
   -1.6460    0.9083    0.0000 H   0  0  0  0  0  0  0  0  0  0  0  0
   -0.7959    0.1820    0.0000 H   0  0  0  0  0  0  0  0  0  0  0  0
  2  1  1  0  0  0  0
  3  2  1  0  0  0  0
  4  3  1  0  0  0  0
  5  4  1  0  0  0  0
  5 18  1  0  0  0  0
  5 19  1  0  0  0  0
  6  5  1  0  0  0  0
  6 20  1  0  0  0  0
  6 21  1  0  0  0  0
  6 22  1  0  0  0  0
  7  4  1  0  0  0  0
  7 23  1  0  0  0  0
  7 24  1  0  0  0  0
  7 25  1  0  0  0  0
  8  4  1  0  0  0  0
  8 26  1  0  0  0  0
  8 27  1  0  0  0  0
  8 28  1  0  0  0  0
  9  3  2  0  0  0  0
 10  2  2  0  0  0  0
 11  1  1  0  0  0  0
 11 12  1  0  0  0  0
 11 29  1  6  0  0  0
 13 12  2  0  0  0  0
 14 12  1  0  0  0  0
 14 30  1  0  0  0  0
 15 11  1  0  0  0  0
 15 31  1  0  0  0  0
 15 32  1  0  0  0  0
 16 15  1  0  0  0  0
 16 17  1  0  0  0  0
 16 33  1  0  0  0  0
 16 34  1  0  0  0  0
 17  1  1  0  0  0  0
 17 35  1  0  0  0  0
 17 36  1  0  0  0  0
M  END
>  <DRUGBANK_ID>
DB05814

>  <COMMON_NAME>
GPI-1485

>  <CAS_NUMBER>
186268-78-0

>  <UNII>
0709BVY57W

$$$$
