
 OpenBabel10282417072D

 55 56  0  0  1  0  0  0  0  0999 V2000
    0.6000   -2.1769    0.0000 C   0  0  0  0  0  0  0  0  0  0  0  0
    1.3926   -1.9481    0.0000 C   0  0  0  0  0  0  0  0  0  0  0  0
    1.9871   -2.5201    0.0000 N   0  0  0  0  0  0  0  0  0  0  0  0
    2.7797   -2.2913    0.0000 C   0  0  0  0  0  0  0  0  0  0  0  0
    3.3742   -2.8633    0.0000 C   0  0  0  0  0  0  0  0  0  0  0  0
    4.1668   -2.6345    0.0000 C   0  0  0  0  0  0  0  0  0  0  0  0
    4.3650   -1.8337    0.0000 C   0  0  0  0  0  0  0  0  0  0  0  0
    3.7705   -1.2617    0.0000 C   0  0  0  0  0  0  0  0  0  0  0  0
    2.9779   -1.4905    0.0000 C   0  0  0  0  0  0  0  0  0  0  0  0
    3.9687   -0.4608    0.0000 O   0  0  0  0  0  0  0  0  0  0  0  0
    5.1576   -1.6049    0.0000 C   0  0  0  0  0  0  0  0  0  0  0  0
    5.7521   -2.1769    0.0000 O   0  0  0  0  0  0  0  0  0  0  0  0
    5.3558   -0.8040    0.0000 O   0  0  0  0  0  0  0  0  0  0  0  0
    6.1484   -0.5752    0.0000 C   0  0  2  0  0  0  0  0  0  0  0  0
    6.7429   -1.1472    0.0000 C   0  0  1  0  0  0  0  0  0  0  0  0
    7.5355   -0.9184    0.0000 C   0  0  0  0  0  0  0  0  0  0  0  0
    8.1300   -1.4905    0.0000 C   0  0  0  0  0  0  0  0  0  0  0  0
    7.9318   -2.2913    0.0000 C   0  0  0  0  0  0  0  0  0  0  0  0
    8.5263   -2.8633    0.0000 O   0  0  0  0  0  0  0  0  0  0  0  0
    7.1392   -2.5201    0.0000 C   0  0  2  0  0  0  0  0  0  0  0  0
    6.9411   -3.3210    0.0000 C   0  0  2  0  0  0  0  0  0  0  0  0
    6.1484   -3.5498    0.0000 C   0  0  0  0  0  0  0  0  0  0  0  0
    5.5539   -2.9778    0.0000 C   0  0  0  0  0  0  0  0  0  0  0  0
    4.7613   -3.2066    0.0000 C   0  0  0  0  0  0  0  0  0  0  0  0
    7.5355   -3.8930    0.0000 O   0  0  0  0  0  0  0  0  0  0  0  0
    6.5447   -1.9481    0.0000 O   0  0  0  0  0  0  0  0  0  0  0  0
    6.1119   -1.6787    0.0000 C   0  0  0  0  0  0  0  0  0  0  0  0
    6.3466    0.2256    0.0000 C   0  0  0  0  0  0  0  0  0  0  0  0
   -0.1710   -1.4350    0.0000 H   0  0  0  0  0  0  0  0  0  0  0  0
    0.3430   -3.2156    0.0000 H   0  0  0  0  0  0  0  0  0  0  0  0
   -0.4280   -2.4737    0.0000 H   0  0  0  0  0  0  0  0  0  0  0  0
    1.6496   -0.9094    0.0000 H   0  0  0  0  0  0  0  0  0  0  0  0
    2.4206   -1.6513    0.0000 H   0  0  0  0  0  0  0  0  0  0  0  0
    1.7507   -3.4758    0.0000 H   0  0  0  0  0  0  0  0  0  0  0  0
    3.1263   -3.8651    0.0000 H   0  0  0  0  0  0  0  0  0  0  0  0
    2.2343   -0.7749    0.0000 H   0  0  0  0  0  0  0  0  0  0  0  0
    4.8689   -0.2010    0.0000 H   0  0  0  0  0  0  0  0  0  0  0  0
    5.3774    0.1667    0.0000 H   0  0  0  0  0  0  0  0  0  0  0  0
    5.6735   -1.1118    0.0000 H   0  0  0  0  0  0  0  0  0  0  0  0
    7.7834    0.0834    0.0000 H   0  0  0  0  0  0  0  0  0  0  0  0
    9.1215   -1.2043    0.0000 H   0  0  0  0  0  0  0  0  0  0  0  0
    7.3962   -1.4814    0.0000 H   0  0  0  0  0  0  0  0  0  0  0  0
    7.9691   -3.0242    0.0000 H   0  0  0  0  0  0  0  0  0  0  0  0
    5.8914   -4.5885    0.0000 H   0  0  0  0  0  0  0  0  0  0  0  0
    5.1204   -3.8466    0.0000 H   0  0  0  0  0  0  0  0  0  0  0  0
    5.8018   -1.9760    0.0000 H   0  0  0  0  0  0  0  0  0  0  0  0
    4.5134   -4.2084    0.0000 H   0  0  0  0  0  0  0  0  0  0  0  0
    7.3025   -4.8346    0.0000 H   0  0  0  0  0  0  0  0  0  0  0  0
    6.7776   -1.0065    0.0000 H   0  0  0  0  0  0  0  0  0  0  0  0
    5.1057   -1.3146    0.0000 H   0  0  0  0  0  0  0  0  0  0  0  0
    6.2997   -2.7321    0.0000 H   0  0  0  0  0  0  0  0  0  0  0  0
    5.2935   -2.3680    0.0000 H   0  0  0  0  0  0  0  0  0  0  0  0
    7.3746    0.5223    0.0000 H   0  0  0  0  0  0  0  0  0  0  0  0
    5.5756    0.9676    0.0000 H   0  0  0  0  0  0  0  0  0  0  0  0
    6.6037    1.2643    0.0000 H   0  0  0  0  0  0  0  0  0  0  0  0
  1  2  1  0  0  0  0
  1 29  1  0  0  0  0
  1 30  1  0  0  0  0
  1 31  1  0  0  0  0
  2  3  1  0  0  0  0
  2 32  1  0  0  0  0
  2 33  1  0  0  0  0
  3  4  1  0  0  0  0
  3 34  1  0  0  0  0
  4  5  2  0  0  0  0
  4  9  1  0  0  0  0
  5  6  1  0  0  0  0
  5 35  1  0  0  0  0
  6  7  2  0  0  0  0
  6 24  1  0  0  0  0
  7  8  1  0  0  0  0
  7 11  1  0  0  0  0
  8  9  2  0  0  0  0
  8 10  1  0  0  0  0
  9 36  1  0  0  0  0
 10 37  1  0  0  0  0
 11 12  2  0  0  0  0
 11 13  1  0  0  0  0
 13 14  1  0  0  0  0
 14 15  1  0  0  0  0
 14 28  1  0  0  0  0
 14 38  1  6  0  0  0
 15 16  1  0  0  0  0
 15 27  1  0  0  0  0
 15 39  1  6  0  0  0
 16 17  2  0  0  0  0
 16 40  1  0  0  0  0
 17 18  1  0  0  0  0
 17 41  1  0  0  0  0
 18 19  2  0  0  0  0
 18 20  1  0  0  0  0
 20 21  1  0  0  0  0
 20 26  1  0  0  0  0
 20 42  1  1  0  0  0
 21 22  1  0  0  0  0
 21 25  1  0  0  0  0
 21 43  1  6  0  0  0
 22 23  1  0  0  0  0
 22 44  1  0  0  0  0
 22 45  1  0  0  0  0
 23 24  2  0  0  0  0
 23 46  1  0  0  0  0
 24 47  1  0  0  0  0
 25 48  1  0  0  0  0
 26 49  1  0  0  0  0
 27 50  1  0  0  0  0
 27 51  1  0  0  0  0
 27 52  1  0  0  0  0
 28 53  1  0  0  0  0
 28 54  1  0  0  0  0
 28 55  1  0  0  0  0
M  END
>  <DRUGBANK_ID>
DB11687

>  <COMMON_NAME>
E-6201

>  <CAS_NUMBER>
603987-35-5

>  <UNII>
CZP9GB25HO

$$$$
