4MP
 OpenBabel10282417072D

 29 30  0  0  0  0  0  0  0  0999 V2000
   -0.7502   -0.5399    0.0000 O   0  0  0  0  0  0  0  0  0  0  0  0
   -0.0240    1.9741    0.0000 O   0  0  0  0  0  0  0  0  0  0  0  0
    2.2568   -1.0410    0.0000 O   0  0  0  0  0  0  0  0  0  0  0  0
   -0.9802    0.9122    0.0000 N   0  0  0  0  0  0  0  0  0  0  0  0
   -1.2351    0.1276    0.0000 C   0  0  0  0  0  0  0  0  0  0  0  0
   -2.0601    0.1276    0.0000 C   0  0  0  0  0  0  0  0  0  0  0  0
   -2.3151    0.9122    0.0000 C   0  0  0  0  0  0  0  0  0  0  0  0
   -1.6476    1.3971    0.0000 C   0  0  0  0  0  0  0  0  0  0  0  0
   -0.1956    1.1671    0.0000 C   0  0  0  0  0  0  0  0  0  0  0  0
    0.4175    0.6151    0.0000 C   0  0  0  0  0  0  0  0  0  0  0  0
    1.2021    0.8700    0.0000 C   0  0  0  0  0  0  0  0  0  0  0  0
    1.8152    0.3180    0.0000 C   0  0  0  0  0  0  0  0  0  0  0  0
    1.6437   -0.4890    0.0000 C   0  0  0  0  0  0  0  0  0  0  0  0
    0.8591   -0.7439    0.0000 C   0  0  0  0  0  0  0  0  0  0  0  0
    0.2460   -0.1919    0.0000 C   0  0  0  0  0  0  0  0  0  0  0  0
    3.0414   -0.7861    0.0000 C   0  0  0  0  0  0  0  0  0  0  0  0
   -2.6890   -0.7381    0.0000 H   0  0  0  0  0  0  0  0  0  0  0  0
   -3.1169    0.2949    0.0000 H   0  0  0  0  0  0  0  0  0  0  0  0
   -3.3327    1.2428    0.0000 H   0  0  0  0  0  0  0  0  0  0  0  0
   -2.4825    1.9690    0.0000 H   0  0  0  0  0  0  0  0  0  0  0  0
   -1.6476    2.4671    0.0000 H   0  0  0  0  0  0  0  0  0  0  0  0
   -2.6010    1.8829    0.0000 H   0  0  0  0  0  0  0  0  0  0  0  0
    1.4167    1.8794    0.0000 H   0  0  0  0  0  0  0  0  0  0  0  0
    2.7967    0.6369    0.0000 H   0  0  0  0  0  0  0  0  0  0  0  0
    0.6445   -1.7533    0.0000 H   0  0  0  0  0  0  0  0  0  0  0  0
   -0.7355   -0.5108    0.0000 H   0  0  0  0  0  0  0  0  0  0  0  0
    3.8365   -1.5021    0.0000 H   0  0  0  0  0  0  0  0  0  0  0  0
    3.2639    0.2605    0.0000 H   0  0  0  0  0  0  0  0  0  0  0  0
    4.0590   -0.4555    0.0000 H   0  0  0  0  0  0  0  0  0  0  0  0
  1  5  2  0  0  0  0
  2  9  2  0  0  0  0
  3 13  1  0  0  0  0
  3 16  1  0  0  0  0
  4  5  1  0  0  0  0
  4  8  1  0  0  0  0
  4  9  1  0  0  0  0
  5  6  1  0  0  0  0
  6  7  1  0  0  0  0
  6 17  1  0  0  0  0
  6 18  1  0  0  0  0
  7  8  1  0  0  0  0
  7 19  1  0  0  0  0
  7 20  1  0  0  0  0
  8 21  1  0  0  0  0
  8 22  1  0  0  0  0
  9 10  1  0  0  0  0
 10 11  2  0  0  0  0
 10 15  1  0  0  0  0
 11 12  1  0  0  0  0
 11 23  1  0  0  0  0
 12 13  2  0  0  0  0
 12 24  1  0  0  0  0
 13 14  1  0  0  0  0
 14 15  2  0  0  0  0
 14 25  1  0  0  0  0
 15 26  1  0  0  0  0
 16 27  1  0  0  0  0
 16 28  1  0  0  0  0
 16 29  1  0  0  0  0
M  END
>  <DRUGBANK_ID>
DB04599

>  <COMMON_NAME>
Aniracetam

>  <CAS_NUMBER>
72432-10-1

>  <UNII>
5L16LKN964

>  <SYNONYMS>
1-p-anisoylpyrrolidin-2-one; Aniracetam; Aniracetamun

$$$$
