893
 OpenBabel10282417072D

 44 45  0  0  0  0  0  0  0  0999 V2000
   -1.8308    2.8947    0.0000 C   0  0  0  0  0  0  0  0  0  0  0  0
   -1.1163    2.4822    0.0000 C   0  0  0  0  0  0  0  0  0  0  0  0
   -1.1163    1.6572    0.0000 C   0  0  0  0  0  0  0  0  0  0  0  0
   -1.8308    1.2447    0.0000 C   0  0  0  0  0  0  0  0  0  0  0  0
   -2.5453    1.6572    0.0000 C   0  0  0  0  0  0  0  0  0  0  0  0
   -2.5453    2.4822    0.0000 C   0  0  0  0  0  0  0  0  0  0  0  0
   -0.4018    1.2447    0.0000 C   0  0  0  0  0  0  0  0  0  0  0  0
   -0.4018    0.4197    0.0000 N   0  0  0  0  0  0  0  0  0  0  0  0
    0.3126    0.0072    0.0000 C   0  0  0  0  0  0  0  0  0  0  0  0
    0.3126   -0.8178    0.0000 C   0  0  0  0  0  0  0  0  0  0  0  0
    1.0271   -1.2303    0.0000 N   0  0  0  0  0  0  0  0  0  0  0  0
    1.0271   -2.0553    0.0000 C   0  0  0  0  0  0  0  0  0  0  0  0
    0.3126   -2.4678    0.0000 C   0  0  0  0  0  0  0  0  0  0  0  0
   -0.4018   -2.0553    0.0000 C   0  0  0  0  0  0  0  0  0  0  0  0
   -0.4018   -1.2303    0.0000 C   0  0  0  0  0  0  0  0  0  0  0  0
   -3.2597    1.2447    0.0000 O   0  0  0  0  0  0  0  0  0  0  0  0
   -3.9742    1.6572    0.0000 C   0  0  0  0  0  0  0  0  0  0  0  0
   -0.4018    2.8947    0.0000 O   0  0  0  0  0  0  0  0  0  0  0  0
    0.3126    2.4822    0.0000 C   0  0  0  0  0  0  0  0  0  0  0  0
    0.3126   -3.2928    0.0000 C   0  0  0  0  0  0  0  0  0  0  0  0
    0.3126   -4.1178    0.0000 N   0  0  0  0  0  0  0  0  0  0  0  0
    1.7416   -2.4678    0.0000 O   0  0  0  0  0  0  0  0  0  0  0  0
    2.4560   -2.0553    0.0000 C   0  0  0  0  0  0  0  0  0  0  0  0
    3.1705   -2.4678    0.0000 C   0  0  0  0  0  0  0  0  0  0  0  0
    1.0271    0.4197    0.0000 O   0  0  0  0  0  0  0  0  0  0  0  0
   -1.8308    3.9267    0.0000 H   0  0  0  0  0  0  0  0  0  0  0  0
   -1.8308    0.2127    0.0000 H   0  0  0  0  0  0  0  0  0  0  0  0
   -3.4390    2.9982    0.0000 H   0  0  0  0  0  0  0  0  0  0  0  0
    0.5248    1.7797    0.0000 H   0  0  0  0  0  0  0  0  0  0  0  0
    0.5248    0.7097    0.0000 H   0  0  0  0  0  0  0  0  0  0  0  0
   -1.2544   -0.0725    0.0000 H   0  0  0  0  0  0  0  0  0  0  0  0
   -1.2955   -2.5713    0.0000 H   0  0  0  0  0  0  0  0  0  0  0  0
   -1.2955   -0.7143    0.0000 H   0  0  0  0  0  0  0  0  0  0  0  0
   -3.9742    2.7272    0.0000 H   0  0  0  0  0  0  0  0  0  0  0  0
   -4.9008    1.1222    0.0000 H   0  0  0  0  0  0  0  0  0  0  0  0
   -4.9009    2.1922    0.0000 H   0  0  0  0  0  0  0  0  0  0  0  0
    0.3126    1.4122    0.0000 H   0  0  0  0  0  0  0  0  0  0  0  0
    1.2393    3.0172    0.0000 H   0  0  0  0  0  0  0  0  0  0  0  0
    1.2392    1.9472    0.0000 H   0  0  0  0  0  0  0  0  0  0  0  0
    2.4560   -0.9853    0.0000 H   0  0  0  0  0  0  0  0  0  0  0  0
    3.3826   -1.5203    0.0000 H   0  0  0  0  0  0  0  0  0  0  0  0
    3.1705   -3.5378    0.0000 H   0  0  0  0  0  0  0  0  0  0  0  0
    4.0971   -1.9328    0.0000 H   0  0  0  0  0  0  0  0  0  0  0  0
    4.0972   -3.0028    0.0000 H   0  0  0  0  0  0  0  0  0  0  0  0
  1  2  2  0  0  0  0
  1  6  1  0  0  0  0
  1 26  1  0  0  0  0
  2  3  1  0  0  0  0
  2 18  1  0  0  0  0
  3  4  2  0  0  0  0
  3  7  1  0  0  0  0
  4  5  1  0  0  0  0
  4 27  1  0  0  0  0
  5  6  2  0  0  0  0
  5 16  1  0  0  0  0
  6 28  1  0  0  0  0
  7  8  1  0  0  0  0
  7 29  1  0  0  0  0
  7 30  1  0  0  0  0
  8  9  1  0  0  0  0
  8 31  1  0  0  0  0
  9 10  1  0  0  0  0
  9 25  2  0  0  0  0
 10 11  1  0  0  0  0
 10 15  2  0  0  0  0
 11 12  2  0  0  0  0
 12 13  1  0  0  0  0
 12 22  1  0  0  0  0
 13 14  2  0  0  0  0
 13 20  1  0  0  0  0
 14 15  1  0  0  0  0
 14 32  1  0  0  0  0
 15 33  1  0  0  0  0
 16 17  1  0  0  0  0
 17 34  1  0  0  0  0
 17 35  1  0  0  0  0
 17 36  1  0  0  0  0
 18 19  1  0  0  0  0
 19 37  1  0  0  0  0
 19 38  1  0  0  0  0
 19 39  1  0  0  0  0
 20 21  3  0  0  0  0
 22 23  1  0  0  0  0
 23 24  1  0  0  0  0
 23 40  1  0  0  0  0
 23 41  1  0  0  0  0
 24 42  1  0  0  0  0
 24 43  1  0  0  0  0
 24 44  1  0  0  0  0
M  END
>  <DRUGBANK_ID>
DB07276

>  <COMMON_NAME>
5-CYANO-N-(2,5-DIMETHOXYBENZYL)-6-ETHOXYPYRIDINE-2-CARBOXAMIDE

$$$$
