
 OpenBabel10282417072D

137141  0  0  0  0  0  0  0  0999 V2000
    2.3966    5.4847    0.0000 Mg  0  2  0  0  0  0  0  0  0  0  0  0
    3.8151    2.7732    0.0000 C   0  0  0  0  0  0  0  0  0  0  0  0
    4.4258    2.1933    0.0000 O   0  0  0  0  0  0  0  0  0  0  0  0
    2.9140    2.6770    0.0000 C   0  0  2  0  0  0  0  0  0  0  0  0
    2.6698    2.0538    0.0000 C   0  0  0  0  0  0  0  0  0  0  0  0
    1.9108    1.5467    0.0000 O   0  0  0  0  0  0  0  0  0  0  0  0
    1.9703    0.6359    0.0000 C   0  0  0  0  0  0  0  0  0  0  0  0
    3.4717    1.5431    0.0000 O   0  0  0  0  0  0  0  0  0  0  0  0
    2.7509    3.5161    0.0000 C   0  0  0  0  0  0  0  0  0  0  0  0
    2.0146    3.9147    0.0000 C   0  0  0  0  0  0  0  0  0  0  0  0
    1.8875    4.6840    0.0000 N   0  0  0  0  0  0  0  0  0  0  0  0
    1.0661    4.8187    0.0000 C   0  0  0  0  0  0  0  0  0  0  0  0
    0.6818    5.5212    0.0000 C   0  0  0  0  0  0  0  0  0  0  0  0
    1.0536    6.2884    0.0000 C   0  0  0  0  0  0  0  0  0  0  0  0
    1.8394    6.4378    0.0000 N   0  5  0  0  0  0  0  0  0  0  0  0
    2.0153    7.2378    0.0000 C   0  0  0  0  0  0  0  0  0  0  0  0
    2.7444    7.6225    0.0000 C   0  0  0  0  0  0  0  0  0  0  0  0
    3.4585    7.2499    0.0000 C   0  0  0  0  0  0  0  0  0  0  0  0
    3.6035    6.4280    0.0000 N   0  0  0  0  0  0  0  0  0  0  0  0
    4.3762    6.3143    0.0000 C   0  0  0  0  0  0  0  0  0  0  0  0
    4.7921    5.5855    0.0000 C   0  0  0  0  0  0  0  0  0  0  0  0
    4.4195    4.8809    0.0000 C   0  0  0  0  0  0  0  0  0  0  0  0
    3.5934    4.6951    0.0000 N   0  5  0  0  0  0  0  0  0  0  0  0
    3.4583    3.9003    0.0000 C   0  0  0  0  0  0  0  0  0  0  0  0
    4.2520    3.5290    0.0000 C   0  0  0  0  0  0  0  0  0  0  0  0
    4.8051    4.0891    0.0000 C   0  0  0  0  0  0  0  0  0  0  0  0
    5.6223    4.0891    0.0000 C   0  0  0  0  0  0  0  0  0  0  0  0
    4.7793    7.0866    0.0000 C   0  0  0  0  0  0  0  0  0  0  0  0
    5.5940    7.0866    0.0000 C   0  0  0  0  0  0  0  0  0  0  0  0
    5.9987    6.3784    0.0000 C   0  0  0  0  0  0  0  0  0  0  0  0
    4.2142    7.6398    0.0000 C   0  0  0  0  0  0  0  0  0  0  0  0
    4.2142    8.4677    0.0000 C   0  0  0  0  0  0  0  0  0  0  0  0
    1.2799    7.5835    0.0000 C   0  0  0  0  0  0  0  0  0  0  0  0
    1.2799    8.4066    0.0000 C   0  0  0  0  0  0  0  0  0  0  0  0
    0.5585    8.8160    0.0000 C   0  0  0  0  0  0  0  0  0  0  0  0
    0.6960    6.9914    0.0000 C   0  0  0  0  0  0  0  0  0  0  0  0
   -0.1285    6.9914    0.0000 C   0  0  0  0  0  0  0  0  0  0  0  0
    0.6943    4.0562    0.0000 C   0  0  1  0  0  0  0  0  0  0  0  0
   -0.1332    4.0562    0.0000 C   0  0  0  0  0  0  0  0  0  0  0  0
    1.2594    3.4985    0.0000 C   0  0  2  0  0  0  0  0  0  0  0  0
    1.2594    2.6839    0.0000 C   0  0  0  0  0  0  0  0  0  0  0  0
    0.5272    2.2746    0.0000 C   0  0  0  0  0  0  0  0  0  0  0  0
    0.5272    1.4496    0.0000 C   0  0  0  0  0  0  0  0  0  0  0  0
   -0.1909    1.0436    0.0000 O   0  0  0  0  0  0  0  0  0  0  0  0
   -0.1909    0.2188    0.0000 C   0  0  0  0  0  0  0  0  0  0  0  0
   -0.9246   -0.1870    0.0000 C   0  0  0  0  0  0  0  0  0  0  0  0
   -0.9246   -1.0120    0.0000 C   0  0  0  0  0  0  0  0  0  0  0  0
   -0.2140   -1.4311    0.0000 C   0  0  0  0  0  0  0  0  0  0  0  0
   -1.6429   -1.4178    0.0000 C   0  0  0  0  0  0  0  0  0  0  0  0
   -1.6429   -2.2429    0.0000 C   0  0  0  0  0  0  0  0  0  0  0  0
   -2.3765   -2.6487    0.0000 C   0  0  0  0  0  0  0  0  0  0  0  0
   -2.3765   -3.4737    0.0000 C   0  0  2  0  0  0  0  0  0  0  0  0
   -1.6659   -3.8928    0.0000 C   0  0  0  0  0  0  0  0  0  0  0  0
   -3.0948   -3.8795    0.0000 C   0  0  0  0  0  0  0  0  0  0  0  0
   -3.0948   -4.7044    0.0000 C   0  0  0  0  0  0  0  0  0  0  0  0
   -3.8284   -5.1102    0.0000 C   0  0  0  0  0  0  0  0  0  0  0  0
   -3.8284   -5.9352    0.0000 C   0  0  2  0  0  0  0  0  0  0  0  0
   -3.1179   -6.3544    0.0000 C   0  0  0  0  0  0  0  0  0  0  0  0
   -4.5468   -6.3412    0.0000 C   0  0  0  0  0  0  0  0  0  0  0  0
   -4.5468   -7.1662    0.0000 C   0  0  0  0  0  0  0  0  0  0  0  0
   -5.2804   -7.5720    0.0000 C   0  0  0  0  0  0  0  0  0  0  0  0
   -5.2804   -8.3970    0.0000 C   0  0  0  0  0  0  0  0  0  0  0  0
   -4.5698   -8.8160    0.0000 C   0  0  0  0  0  0  0  0  0  0  0  0
   -5.9987   -8.8028    0.0000 C   0  0  0  0  0  0  0  0  0  0  0  0
    1.2378    1.0305    0.0000 O   0  0  0  0  0  0  0  0  0  0  0  0
    3.5631    1.8264    0.0000 H   0  0  0  0  0  0  0  0  0  0  0  0
    1.0805    0.0416    0.0000 H   0  0  0  0  0  0  0  0  0  0  0  0
    2.9299    0.1624    0.0000 H   0  0  0  0  0  0  0  0  0  0  0  0
    2.0401   -0.4318    0.0000 H   0  0  0  0  0  0  0  0  0  0  0  0
   -0.3499    5.4958    0.0000 H   0  0  0  0  0  0  0  0  0  0  0  0
    2.7420    8.6545    0.0000 H   0  0  0  0  0  0  0  0  0  0  0  0
    5.8240    5.6021    0.0000 H   0  0  0  0  0  0  0  0  0  0  0  0
    6.1573    3.1625    0.0000 H   0  0  0  0  0  0  0  0  0  0  0  0
    6.1573    5.0157    0.0000 H   0  0  0  0  0  0  0  0  0  0  0  0
    6.6923    4.0891    0.0000 H   0  0  0  0  0  0  0  0  0  0  0  0
    6.1311    8.0121    0.0000 H   0  0  0  0  0  0  0  0  0  0  0  0
    6.6640    7.0830    0.0000 H   0  0  0  0  0  0  0  0  0  0  0  0
    5.4596    5.4541    0.0000 H   0  0  0  0  0  0  0  0  0  0  0  0
    7.0687    6.3737    0.0000 H   0  0  0  0  0  0  0  0  0  0  0  0
    6.5296    5.4494    0.0000 H   0  0  0  0  0  0  0  0  0  0  0  0
    5.1408    9.0027    0.0000 H   0  0  0  0  0  0  0  0  0  0  0  0
    3.2876    9.0027    0.0000 H   0  0  0  0  0  0  0  0  0  0  0  0
    4.2142    9.5377    0.0000 H   0  0  0  0  0  0  0  0  0  0  0  0
    2.1717    8.9259    0.0000 H   0  0  0  0  0  0  0  0  0  0  0  0
    0.5508    9.8480    0.0000 H   0  0  0  0  0  0  0  0  0  0  0  0
   -0.3314    8.2934    0.0000 H   0  0  0  0  0  0  0  0  0  0  0  0
   -0.6635    7.9180    0.0000 H   0  0  0  0  0  0  0  0  0  0  0  0
   -0.6635    6.0648    0.0000 H   0  0  0  0  0  0  0  0  0  0  0  0
   -1.1985    6.9914    0.0000 H   0  0  0  0  0  0  0  0  0  0  0  0
    0.1272    4.9636    0.0000 H   0  0  0  0  0  0  0  0  0  0  0  0
   -0.6682    4.9828    0.0000 H   0  0  0  0  0  0  0  0  0  0  0  0
   -0.6682    3.1296    0.0000 H   0  0  0  0  0  0  0  0  0  0  0  0
   -1.2032    4.0562    0.0000 H   0  0  0  0  0  0  0  0  0  0  0  0
    0.2722    3.0858    0.0000 H   0  0  0  0  0  0  0  0  0  0  0  0
    2.1823    2.1425    0.0000 H   0  0  0  0  0  0  0  0  0  0  0  0
    1.2483    1.6140    0.0000 H   0  0  0  0  0  0  0  0  0  0  0  0
   -0.3957    2.8160    0.0000 H   0  0  0  0  0  0  0  0  0  0  0  0
   -0.4013    1.7428    0.0000 H   0  0  0  0  0  0  0  0  0  0  0  0
    0.7308   -0.3247    0.0000 H   0  0  0  0  0  0  0  0  0  0  0  0
   -0.2057   -0.8511    0.0000 H   0  0  0  0  0  0  0  0  0  0  0  0
   -1.8136    0.3372    0.0000 H   0  0  0  0  0  0  0  0  0  0  0  0
   -0.2239   -2.5011    0.0000 H   0  0  0  0  0  0  0  0  0  0  0  0
    0.7176   -0.9047    0.0000 H   0  0  0  0  0  0  0  0  0  0  0  0
    0.7076   -1.9747    0.0000 H   0  0  0  0  0  0  0  0  0  0  0  0
   -2.5670   -0.8785    0.0000 H   0  0  0  0  0  0  0  0  0  0  0  0
   -2.5708   -1.9506    0.0000 H   0  0  0  0  0  0  0  0  0  0  0  0
   -0.7212   -2.7864    0.0000 H   0  0  0  0  0  0  0  0  0  0  0  0
   -1.6576   -3.3128    0.0000 H   0  0  0  0  0  0  0  0  0  0  0  0
   -3.2982   -2.1052    0.0000 H   0  0  0  0  0  0  0  0  0  0  0  0
   -3.3056   -3.1794    0.0000 H   0  0  0  0  0  0  0  0  0  0  0  0
   -1.4474   -2.9430    0.0000 H   0  0  0  0  0  0  0  0  0  0  0  0
   -1.6758   -4.9628    0.0000 H   0  0  0  0  0  0  0  0  0  0  0  0
   -0.7343   -3.3664    0.0000 H   0  0  0  0  0  0  0  0  0  0  0  0
   -0.7443   -4.4364    0.0000 H   0  0  0  0  0  0  0  0  0  0  0  0
   -4.0189   -3.3402    0.0000 H   0  0  0  0  0  0  0  0  0  0  0  0
   -4.0227   -4.4123    0.0000 H   0  0  0  0  0  0  0  0  0  0  0  0
   -2.1731   -5.2479    0.0000 H   0  0  0  0  0  0  0  0  0  0  0  0
   -3.1095   -5.7743    0.0000 H   0  0  0  0  0  0  0  0  0  0  0  0
   -4.7501   -4.5667    0.0000 H   0  0  0  0  0  0  0  0  0  0  0  0
   -4.7575   -5.6409    0.0000 H   0  0  0  0  0  0  0  0  0  0  0  0
   -2.8992   -5.4046    0.0000 H   0  0  0  0  0  0  0  0  0  0  0  0
   -3.1280   -7.4244    0.0000 H   0  0  0  0  0  0  0  0  0  0  0  0
   -2.1862   -5.8282    0.0000 H   0  0  0  0  0  0  0  0  0  0  0  0
   -2.1963   -6.8981    0.0000 H   0  0  0  0  0  0  0  0  0  0  0  0
   -5.4710   -5.8019    0.0000 H   0  0  0  0  0  0  0  0  0  0  0  0
   -5.4747   -6.8741    0.0000 H   0  0  0  0  0  0  0  0  0  0  0  0
   -3.6251   -7.7097    0.0000 H   0  0  0  0  0  0  0  0  0  0  0  0
   -4.5615   -8.2361    0.0000 H   0  0  0  0  0  0  0  0  0  0  0  0
   -6.2021   -7.0285    0.0000 H   0  0  0  0  0  0  0  0  0  0  0  0
   -6.2095   -8.1027    0.0000 H   0  0  0  0  0  0  0  0  0  0  0  0
   -5.2903   -9.4670    0.0000 H   0  0  0  0  0  0  0  0  0  0  0  0
   -4.5796   -9.8860    0.0000 H   0  0  0  0  0  0  0  0  0  0  0  0
   -3.6383   -8.2895    0.0000 H   0  0  0  0  0  0  0  0  0  0  0  0
   -3.6481   -9.3595    0.0000 H   0  0  0  0  0  0  0  0  0  0  0  0
   -6.9203   -8.2592    0.0000 H   0  0  0  0  0  0  0  0  0  0  0  0
   -6.0087   -9.8728    0.0000 H   0  0  0  0  0  0  0  0  0  0  0  0
   -6.9303   -9.3291    0.0000 H   0  0  0  0  0  0  0  0  0  0  0  0
  2  3  2  0  0  0  0
  2  4  1  0  0  0  0
  4  5  1  0  0  0  0
  4  9  1  0  0  0  0
  4 66  1  1  0  0  0
  5  6  1  0  0  0  0
  5  8  2  0  0  0  0
  6  7  1  0  0  0  0
  7 67  1  0  0  0  0
  7 68  1  0  0  0  0
  7 69  1  0  0  0  0
  9 10  2  0  0  0  0
 10 11  1  0  0  0  0
 11 12  2  0  0  0  0
 12 13  1  0  0  0  0
 12 38  1  0  0  0  0
 13 14  2  0  0  0  0
 13 70  1  0  0  0  0
 14 15  1  0  0  0  0
 15 16  1  0  0  0  0
 16 17  2  0  0  0  0
 16 33  1  0  0  0  0
 17 18  1  0  0  0  0
 17 71  1  0  0  0  0
 18 19  2  0  0  0  0
 19 20  1  0  0  0  0
 20 21  2  0  0  0  0
 20 28  1  0  0  0  0
 21 22  1  0  0  0  0
 21 72  1  0  0  0  0
 22 23  1  0  0  0  0
 23 24  1  0  0  0  0
 24  9  1  0  0  0  0
 24 25  2  0  0  0  0
 25  2  1  0  0  0  0
 25 26  1  0  0  0  0
 26 22  2  0  0  0  0
 26 27  1  0  0  0  0
 27 73  1  0  0  0  0
 27 74  1  0  0  0  0
 27 75  1  0  0  0  0
 28 29  1  0  0  0  0
 28 31  2  0  0  0  0
 29 30  1  0  0  0  0
 29 76  1  0  0  0  0
 29 77  1  0  0  0  0
 30 78  1  0  0  0  0
 30 79  1  0  0  0  0
 30 80  1  0  0  0  0
 31 18  1  0  0  0  0
 31 32  1  0  0  0  0
 32 81  1  0  0  0  0
 32 82  1  0  0  0  0
 32 83  1  0  0  0  0
 33 34  1  0  0  0  0
 33 36  2  0  0  0  0
 34 35  2  0  0  0  0
 34 84  1  0  0  0  0
 35 85  1  0  0  0  0
 35 86  1  0  0  0  0
 36 14  1  0  0  0  0
 36 37  1  0  0  0  0
 37 87  1  0  0  0  0
 37 88  1  0  0  0  0
 37 89  1  0  0  0  0
 38 39  1  0  0  0  0
 38 40  1  0  0  0  0
 38 90  1  1  0  0  0
 39 91  1  0  0  0  0
 39 92  1  0  0  0  0
 39 93  1  0  0  0  0
 40 10  1  0  0  0  0
 40 41  1  0  0  0  0
 40 94  1  6  0  0  0
 41 42  1  0  0  0  0
 41 95  1  0  0  0  0
 41 96  1  0  0  0  0
 42 43  1  0  0  0  0
 42 97  1  0  0  0  0
 42 98  1  0  0  0  0
 43 44  1  0  0  0  0
 43 65  2  0  0  0  0
 44 45  1  0  0  0  0
 45 46  1  0  0  0  0
 45 99  1  0  0  0  0
 45100  1  0  0  0  0
 46 47  2  0  0  0  0
 46101  1  0  0  0  0
 47 48  1  0  0  0  0
 47 49  1  0  0  0  0
 48102  1  0  0  0  0
 48103  1  0  0  0  0
 48104  1  0  0  0  0
 49 50  1  0  0  0  0
 49105  1  0  0  0  0
 49106  1  0  0  0  0
 50 51  1  0  0  0  0
 50107  1  0  0  0  0
 50108  1  0  0  0  0
 51 52  1  0  0  0  0
 51109  1  0  0  0  0
 51110  1  0  0  0  0
 52 53  1  0  0  0  0
 52 54  1  0  0  0  0
 52111  1  1  0  0  0
 53112  1  0  0  0  0
 53113  1  0  0  0  0
 53114  1  0  0  0  0
 54 55  1  0  0  0  0
 54115  1  0  0  0  0
 54116  1  0  0  0  0
 55 56  1  0  0  0  0
 55117  1  0  0  0  0
 55118  1  0  0  0  0
 56 57  1  0  0  0  0
 56119  1  0  0  0  0
 56120  1  0  0  0  0
 57 58  1  0  0  0  0
 57 59  1  0  0  0  0
 57121  1  1  0  0  0
 58122  1  0  0  0  0
 58123  1  0  0  0  0
 58124  1  0  0  0  0
 59 60  1  0  0  0  0
 59125  1  0  0  0  0
 59126  1  0  0  0  0
 60 61  1  0  0  0  0
 60127  1  0  0  0  0
 60128  1  0  0  0  0
 61 62  1  0  0  0  0
 61129  1  0  0  0  0
 61130  1  0  0  0  0
 62 63  1  0  0  0  0
 62 64  1  0  0  0  0
 62131  1  0  0  0  0
 63132  1  0  0  0  0
 63133  1  0  0  0  0
 63134  1  0  0  0  0
 64135  1  0  0  0  0
 64136  1  0  0  0  0
 64137  1  0  0  0  0
M  CHG  3   1   2  15  -1  23  -1
M  END
>  <DRUGBANK_ID>
DB02133

>  <SECONDARY_ACCESSION_NUMBERS>
EXPT00935

>  <COMMON_NAME>
Chlorophyll A

>  <CAS_NUMBER>
479-61-8

>  <UNII>
YF5Q9EJC8Y

$$$$
