
 OpenBabel10282417072D

 38 40  0  0  0  0  0  0  0  0999 V2000
   -0.3502    0.2058    0.0000 C   0  0  0  0  0  0  0  0  0  0  0  0
    0.3646   -0.2058    0.0000 N   0  0  0  0  0  0  0  0  0  0  0  0
    1.0797    0.2058    0.0000 C   0  0  0  0  0  0  0  0  0  0  0  0
    1.0797    1.0299    0.0000 C   0  0  0  0  0  0  0  0  0  0  0  0
    0.3646    1.4418    0.0000 C   0  0  0  0  0  0  0  0  0  0  0  0
   -0.3502    1.0299    0.0000 N   0  0  0  0  0  0  0  0  0  0  0  0
    1.7947    1.4418    0.0000 Cl  0  0  0  0  0  0  0  0  0  0  0  0
    1.7947   -0.2058    0.0000 N   0  0  0  0  0  0  0  0  0  0  0  0
    2.5097    0.2058    0.0000 C   0  0  0  0  0  0  0  0  0  0  0  0
    2.5963    1.0248    0.0000 N   0  0  0  0  0  0  0  0  0  0  0  0
    3.4001    1.1969    0.0000 N   0  0  0  0  0  0  0  0  0  0  0  0
    3.8168    0.4817    0.0000 C   0  0  0  0  0  0  0  0  0  0  0  0
    3.2636   -0.1297    0.0000 C   0  0  0  0  0  0  0  0  0  0  0  0
    4.6355    0.3953    0.0000 C   0  0  0  0  0  0  0  0  0  0  0  0
   -1.0606   -0.2058    0.0000 N   0  0  0  0  0  0  0  0  0  0  0  0
   -1.7756    0.2058    0.0000 C   0  0  1  0  0  0  0  0  0  0  0  0
   -1.7756    1.0299    0.0000 C   0  0  0  0  0  0  0  0  0  0  0  0
   -2.4905   -0.2058    0.0000 C   0  0  0  0  0  0  0  0  0  0  0  0
   -2.4905   -1.0299    0.0000 N   0  0  0  0  0  0  0  0  0  0  0  0
   -3.2056   -1.4418    0.0000 C   0  0  0  0  0  0  0  0  0  0  0  0
   -3.9206   -1.0299    0.0000 C   0  0  0  0  0  0  0  0  0  0  0  0
   -3.9206   -0.2058    0.0000 C   0  0  0  0  0  0  0  0  0  0  0  0
   -3.2056    0.2059    0.0000 N   0  0  0  0  0  0  0  0  0  0  0  0
   -4.6355   -1.4418    0.0000 F   0  0  0  0  0  0  0  0  0  0  0  0
    0.3645    2.4738    0.0000 H   0  0  0  0  0  0  0  0  0  0  0  0
    1.7947   -1.1903    0.0000 H   0  0  0  0  0  0  0  0  0  0  0  0
    3.7981    2.0974    0.0000 H   0  0  0  0  0  0  0  0  0  0  0  0
    3.4770   -1.1394    0.0000 H   0  0  0  0  0  0  0  0  0  0  0  0
    5.0703   -0.5824    0.0000 H   0  0  0  0  0  0  0  0  0  0  0  0
    5.2648    1.2607    0.0000 H   0  0  0  0  0  0  0  0  0  0  0  0
    5.6996    0.2830    0.0000 H   0  0  0  0  0  0  0  0  0  0  0  0
   -1.0592   -1.1903    0.0000 H   0  0  0  0  0  0  0  0  0  0  0  0
   -0.8493    0.7414    0.0000 H   0  0  0  0  0  0  0  0  0  0  0  0
   -0.8490    1.5649    0.0000 H   0  0  0  0  0  0  0  0  0  0  0  0
   -2.7022    1.5649    0.0000 H   0  0  0  0  0  0  0  0  0  0  0  0
   -1.7756    2.0999    0.0000 H   0  0  0  0  0  0  0  0  0  0  0  0
   -3.2056   -2.4738    0.0000 H   0  0  0  0  0  0  0  0  0  0  0  0
   -4.8140    0.3107    0.0000 H   0  0  0  0  0  0  0  0  0  0  0  0
  1  2  1  0  0  0  0
  1  6  2  0  0  0  0
  1 15  1  0  0  0  0
  2  3  2  0  0  0  0
  3  4  1  0  0  0  0
  3  8  1  0  0  0  0
  4  5  2  0  0  0  0
  4  7  1  0  0  0  0
  5  6  1  0  0  0  0
  5 25  1  0  0  0  0
  8  9  1  0  0  0  0
  8 26  1  0  0  0  0
  9 13  1  0  0  0  0
 10  9  2  0  0  0  0
 11 10  1  0  0  0  0
 11 12  1  0  0  0  0
 11 27  1  0  0  0  0
 12 14  1  0  0  0  0
 13 12  2  0  0  0  0
 13 28  1  0  0  0  0
 14 29  1  0  0  0  0
 14 30  1  0  0  0  0
 14 31  1  0  0  0  0
 15 16  1  0  0  0  0
 15 32  1  0  0  0  0
 16 17  1  0  0  0  0
 16 18  1  0  0  0  0
 16 33  1  1  0  0  0
 17 34  1  0  0  0  0
 17 35  1  0  0  0  0
 17 36  1  0  0  0  0
 18 19  1  0  0  0  0
 18 23  2  0  0  0  0
 19 20  2  0  0  0  0
 20 21  1  0  0  0  0
 20 37  1  0  0  0  0
 21 22  2  0  0  0  0
 21 24  1  0  0  0  0
 22 23  1  0  0  0  0
 22 38  1  0  0  0  0
M  END
>  <DRUGBANK_ID>
DB12588

>  <COMMON_NAME>
AZD-1480

>  <CAS_NUMBER>
935666-88-9

>  <UNII>
KL2Z2TLF01

$$$$
