
 OpenBabel10282417072D

 86 89  0  0  0  0  0  0  0  0999 V2000
    3.7474    1.1820    0.0000 S   0  0  0  0  0  0  0  0  0  0  0  0
   -0.4923   -3.8403    0.0000 O   0  0  0  0  0  0  0  0  0  0  0  0
    0.9366   -3.8403    0.0000 O   0  0  0  0  0  0  0  0  0  0  0  0
   -0.4923   -6.3154    0.0000 O   0  0  0  0  0  0  0  0  0  0  0  0
   -1.9212   -5.4904    0.0000 O   0  0  0  0  0  0  0  0  0  0  0  0
    0.9366   -5.4904    0.0000 O   0  0  0  0  0  0  0  0  0  0  0  0
   -1.9212   -3.0153    0.0000 O   0  0  0  0  0  0  0  0  0  0  0  0
   -1.2068   -1.7778    0.0000 O   0  0  0  0  0  0  0  0  0  0  0  0
    1.6510   -0.1278    0.0000 O   0  0  0  0  0  0  0  0  0  0  0  0
   -1.9212    1.9346    0.0000 N   0  0  0  0  0  0  0  0  0  0  0  0
   -1.9212    3.5846    0.0000 N   0  0  0  0  0  0  0  0  0  0  0  0
   -0.4923   -0.5403    0.0000 N   0  0  0  0  0  0  0  0  0  0  0  0
   -3.3502    6.0596    0.0000 N   0  0  0  0  0  0  0  0  0  0  0  0
    2.3655   -1.3653    0.0000 N   0  0  0  0  0  0  0  0  0  0  0  0
   -0.4923   -5.4904    0.0000 C   0  0  1  0  0  0  0  0  0  0  0  0
   -1.2068   -5.0779    0.0000 C   0  0  2  0  0  0  0  0  0  0  0  0
   -1.2068    2.3471    0.0000 C   0  0  0  0  0  0  0  0  0  0  0  0
   -2.6357    2.3471    0.0000 C   0  0  0  0  0  0  0  0  0  0  0  0
   -1.2068    3.1721    0.0000 C   0  0  0  0  0  0  0  0  0  0  0  0
   -2.6357    3.1721    0.0000 C   0  0  0  0  0  0  0  0  0  0  0  0
    0.2221   -5.0779    0.0000 C   0  0  2  0  0  0  0  0  0  0  0  0
   -1.2068   -4.2528    0.0000 C   0  0  1  0  0  0  0  0  0  0  0  0
    0.2221   -4.2528    0.0000 C   0  0  2  0  0  0  0  0  0  0  0  0
   -1.9212    1.1096    0.0000 C   0  0  0  0  0  0  0  0  0  0  0  0
   -1.9212    4.4096    0.0000 C   0  0  0  0  0  0  0  0  0  0  0  0
   -1.2068    0.6971    0.0000 C   0  0  0  0  0  0  0  0  0  0  0  0
   -1.9212   -3.8403    0.0000 C   0  0  0  0  0  0  0  0  0  0  0  0
   -2.6357    4.8221    0.0000 C   0  0  0  0  0  0  0  0  0  0  0  0
   -1.2068   -0.1278    0.0000 C   0  0  0  0  0  0  0  0  0  0  0  0
   -2.6357    5.6471    0.0000 C   0  0  0  0  0  0  0  0  0  0  0  0
    0.9366   -3.0153    0.0000 C   0  0  0  0  0  0  0  0  0  0  0  0
    0.2221   -2.6028    0.0000 C   0  0  0  0  0  0  0  0  0  0  0  0
    0.2221   -1.7778    0.0000 C   0  0  0  0  0  0  0  0  0  0  0  0
   -0.4923   -1.3653    0.0000 C   0  0  0  0  0  0  0  0  0  0  0  0
    1.6510   -2.6028    0.0000 C   0  0  0  0  0  0  0  0  0  0  0  0
    1.6510   -1.7778    0.0000 C   0  0  0  0  0  0  0  0  0  0  0  0
    0.9366   -1.3653    0.0000 C   0  0  0  0  0  0  0  0  0  0  0  0
    2.3655   -0.5403    0.0000 C   0  0  0  0  0  0  0  0  0  0  0  0
    3.0800   -0.1278    0.0000 C   0  0  0  0  0  0  0  0  0  0  0  0
    3.0800    0.6971    0.0000 C   0  0  0  0  0  0  0  0  0  0  0  0
    2.4126    1.1820    0.0000 C   0  0  0  0  0  0  0  0  0  0  0  0
    2.6675    1.9666    0.0000 C   0  0  0  0  0  0  0  0  0  0  0  0
    3.4925    1.9666    0.0000 C   0  0  0  0  0  0  0  0  0  0  0  0
   -1.3323   -6.8004    0.0000 H   0  0  0  0  0  0  0  0  0  0  0  0
   -2.7613   -5.0054    0.0000 H   0  0  0  0  0  0  0  0  0  0  0  0
    0.9366   -6.4604    0.0000 H   0  0  0  0  0  0  0  0  0  0  0  0
   -1.0812   -2.5303    0.0000 H   0  0  0  0  0  0  0  0  0  0  0  0
    0.3603   -0.0480    0.0000 H   0  0  0  0  0  0  0  0  0  0  0  0
   -3.3502    7.0796    0.0000 H   0  0  0  0  0  0  0  0  0  0  0  0
   -4.2335    5.5496    0.0000 H   0  0  0  0  0  0  0  0  0  0  0  0
    3.2181   -1.8576    0.0000 H   0  0  0  0  0  0  0  0  0  0  0  0
   -1.4189   -6.0254    0.0000 H   0  0  0  0  0  0  0  0  0  0  0  0
   -1.2068   -6.1479    0.0000 H   0  0  0  0  0  0  0  0  0  0  0  0
   -0.2801    1.8121    0.0000 H   0  0  0  0  0  0  0  0  0  0  0  0
   -0.2802    2.8821    0.0000 H   0  0  0  0  0  0  0  0  0  0  0  0
   -3.5623    1.8121    0.0000 H   0  0  0  0  0  0  0  0  0  0  0  0
   -3.5623    2.8821    0.0000 H   0  0  0  0  0  0  0  0  0  0  0  0
   -0.2801    3.7071    0.0000 H   0  0  0  0  0  0  0  0  0  0  0  0
   -0.2802    2.6371    0.0000 H   0  0  0  0  0  0  0  0  0  0  0  0
   -3.5623    3.7071    0.0000 H   0  0  0  0  0  0  0  0  0  0  0  0
   -3.5623    2.6371    0.0000 H   0  0  0  0  0  0  0  0  0  0  0  0
    0.2221   -6.1479    0.0000 H   0  0  0  0  0  0  0  0  0  0  0  0
   -1.2068   -3.1828    0.0000 H   0  0  0  0  0  0  0  0  0  0  0  0
    0.2221   -3.1828    0.0000 H   0  0  0  0  0  0  0  0  0  0  0  0
   -2.8479    0.5746    0.0000 H   0  0  0  0  0  0  0  0  0  0  0  0
   -1.9212    0.0396    0.0000 H   0  0  0  0  0  0  0  0  0  0  0  0
   -0.9946    4.9446    0.0000 H   0  0  0  0  0  0  0  0  0  0  0  0
   -1.9212    5.4796    0.0000 H   0  0  0  0  0  0  0  0  0  0  0  0
   -0.2801    1.2321    0.0000 H   0  0  0  0  0  0  0  0  0  0  0  0
   -0.2802    0.1621    0.0000 H   0  0  0  0  0  0  0  0  0  0  0  0
   -2.8479   -4.3753    0.0000 H   0  0  0  0  0  0  0  0  0  0  0  0
   -1.9212   -4.9103    0.0000 H   0  0  0  0  0  0  0  0  0  0  0  0
   -3.5623    4.2871    0.0000 H   0  0  0  0  0  0  0  0  0  0  0  0
   -3.5623    5.3571    0.0000 H   0  0  0  0  0  0  0  0  0  0  0  0
   -2.1334   -0.6628    0.0000 H   0  0  0  0  0  0  0  0  0  0  0  0
   -2.1334    0.4072    0.0000 H   0  0  0  0  0  0  0  0  0  0  0  0
   -1.7091    6.1821    0.0000 H   0  0  0  0  0  0  0  0  0  0  0  0
   -1.7091    5.1121    0.0000 H   0  0  0  0  0  0  0  0  0  0  0  0
   -0.6716   -3.1188    0.0000 H   0  0  0  0  0  0  0  0  0  0  0  0
    2.5447   -3.1188    0.0000 H   0  0  0  0  0  0  0  0  0  0  0  0
    0.9366   -0.3333    0.0000 H   0  0  0  0  0  0  0  0  0  0  0  0
    4.0066   -0.6628    0.0000 H   0  0  0  0  0  0  0  0  0  0  0  0
    4.0066    0.4072    0.0000 H   0  0  0  0  0  0  0  0  0  0  0  0
    1.4311    0.8631    0.0000 H   0  0  0  0  0  0  0  0  0  0  0  0
    2.0609    2.8015    0.0000 H   0  0  0  0  0  0  0  0  0  0  0  0
    4.0991    2.8015    0.0000 H   0  0  0  0  0  0  0  0  0  0  0  0
  1 40  1  0  0  0  0
  1 43  1  0  0  0  0
  2 22  1  0  0  0  0
  2 23  1  0  0  0  0
  3 31  1  0  0  0  0
  4 44  1  0  0  0  0
  5 45  1  0  0  0  0
  6 46  1  0  0  0  0
  7 27  1  0  0  0  0
  7 47  1  0  0  0  0
  8 34  2  0  0  0  0
  9 38  2  0  0  0  0
 10 17  1  0  0  0  0
 10 18  1  0  0  0  0
 10 24  1  0  0  0  0
 11 19  1  0  0  0  0
 11 20  1  0  0  0  0
 11 25  1  0  0  0  0
 12 29  1  0  0  0  0
 12 34  1  0  0  0  0
 12 48  1  0  0  0  0
 13 30  1  0  0  0  0
 13 49  1  0  0  0  0
 13 50  1  0  0  0  0
 14 36  1  0  0  0  0
 14 38  1  0  0  0  0
 14 51  1  0  0  0  0
 15  4  1  0  0  0  0
 15 16  1  0  0  0  0
 15 21  1  0  0  0  0
 15 52  1  6  0  0  0
 16  5  1  0  0  0  0
 16 22  1  0  0  0  0
 16 53  1  6  0  0  0
 17 19  1  0  0  0  0
 17 54  1  0  0  0  0
 17 55  1  0  0  0  0
 18 20  1  0  0  0  0
 18 56  1  0  0  0  0
 18 57  1  0  0  0  0
 19 58  1  0  0  0  0
 19 59  1  0  0  0  0
 20 60  1  0  0  0  0
 20 61  1  0  0  0  0
 21  6  1  0  0  0  0
 21 23  1  0  0  0  0
 21 62  1  1  0  0  0
 22 27  1  0  0  0  0
 22 63  1  6  0  0  0
 23  3  1  0  0  0  0
 23 64  1  1  0  0  0
 24 26  1  0  0  0  0
 24 65  1  0  0  0  0
 24 66  1  0  0  0  0
 25 28  1  0  0  0  0
 25 67  1  0  0  0  0
 25 68  1  0  0  0  0
 26 29  1  0  0  0  0
 26 69  1  0  0  0  0
 26 70  1  0  0  0  0
 27 71  1  0  0  0  0
 27 72  1  0  0  0  0
 28 30  1  0  0  0  0
 28 73  1  0  0  0  0
 28 74  1  0  0  0  0
 29 75  1  0  0  0  0
 29 76  1  0  0  0  0
 30 77  1  0  0  0  0
 30 78  1  0  0  0  0
 31 32  2  0  0  0  0
 31 35  1  0  0  0  0
 32 33  1  0  0  0  0
 32 79  1  0  0  0  0
 33 34  1  0  0  0  0
 33 37  2  0  0  0  0
 35 36  2  0  0  0  0
 35 80  1  0  0  0  0
 36 37  1  0  0  0  0
 37 81  1  0  0  0  0
 38 39  1  0  0  0  0
 39 40  1  0  0  0  0
 39 82  1  0  0  0  0
 39 83  1  0  0  0  0
 40 41  2  0  0  0  0
 41 42  1  0  0  0  0
 41 84  1  0  0  0  0
 42 43  2  0  0  0  0
 42 85  1  0  0  0  0
 43 86  1  0  0  0  0
M  END
>  <DRUGBANK_ID>
DB03524

>  <SECONDARY_ACCESSION_NUMBERS>
EXPT01953

>  <COMMON_NAME>
N-[3-[4-(3-aminopropyl)piperazin-1-yl]propyl]-3-[(2-thiophen-2-ylacetyl)amino]-5-[(2R,3R,4S,5R,6R)-3,4,5-trihydroxy-6-(hydroxymethyl)oxan-2-yl]oxybenzamide

$$$$
