
 OpenBabel10282417072D

 99103  0  0  0  0  0  0  0  0999 V2000
    2.8542   -0.4221    0.0000 N   0  0  0  0  0  0  0  0  0  0  0  0
    2.8462   -1.2488    0.0000 C   0  0  1  0  0  0  0  0  0  0  0  0
    3.5693   -0.0112    0.0000 C   0  0  0  0  0  0  0  0  0  0  0  0
    2.1395   -0.0063    0.0000 C   0  0  0  0  0  0  0  0  0  0  0  0
    3.5593   -1.6614    0.0000 C   0  0  0  0  0  0  0  0  0  0  0  0
    2.1295   -1.6566    0.0000 C   0  0  0  0  0  0  0  0  0  0  0  0
    4.2750   -0.4319    0.0000 C   0  0  2  0  0  0  0  0  0  0  0  0
    2.1444    0.8186    0.0000 C   0  0  2  0  0  0  0  0  0  0  0  0
    4.2760   -1.2536    0.0000 C   0  0  1  0  0  0  0  0  0  0  0  0
    2.1275   -2.4798    0.0000 N   0  0  0  0  0  0  0  0  0  0  0  0
    1.4210   -1.2452    0.0000 O   0  0  0  0  0  0  0  0  0  0  0  0
    4.9872   -0.0228    0.0000 C   0  0  0  0  0  0  0  0  0  0  0  0
    1.4296    1.2342    0.0000 C   0  0  2  0  0  0  0  0  0  0  0  0
    2.8594    1.2293    0.0000 O   0  0  0  0  0  0  0  0  0  0  0  0
    4.9844   -1.6648    0.0000 C   0  0  0  0  0  0  0  0  0  0  0  0
    5.7032   -0.4338    0.0000 C   0  0  0  0  0  0  0  0  0  0  0  0
    1.4331    2.0624    0.0000 C   0  0  0  0  0  0  0  0  0  0  0  0
    0.7150    0.8254    0.0000 N   0  0  0  0  0  0  0  0  0  0  0  0
    5.6978   -1.2512    0.0000 C   0  0  0  0  0  0  0  0  0  0  0  0
    2.1478    2.4781    0.0000 C   0  0  0  0  0  0  0  0  0  0  0  0
    0.0071    1.2377    0.0000 C   0  0  0  0  0  0  0  0  0  0  0  0
   -0.7073    0.8323    0.0000 C   0  0  1  0  0  0  0  0  0  0  0  0
    0.0071    2.0658    0.0000 O   0  0  0  0  0  0  0  0  0  0  0  0
   -1.4219    1.2446    0.0000 N   0  0  0  0  0  0  0  0  0  0  0  0
   -0.7108   -0.1985    0.0000 C   0  0  0  0  0  0  0  0  0  0  0  0
   -2.1367    0.8357    0.0000 C   0  0  0  0  0  0  0  0  0  0  0  0
    0.0037   -0.6176    0.0000 C   0  0  0  0  0  0  0  0  0  0  0  0
   -2.8480    1.2446    0.0000 C   0  0  0  0  0  0  0  0  0  0  0  0
   -2.1367    0.0111    0.0000 O   0  0  0  0  0  0  0  0  0  0  0  0
    0.0037   -1.4422    0.0000 N   0  0  0  0  0  0  0  0  0  0  0  0
    0.7184   -0.2086    0.0000 O   0  0  0  0  0  0  0  0  0  0  0  0
   -3.5661    0.8392    0.0000 N   0  0  0  0  0  0  0  0  0  0  0  0
   -2.8445    2.0725    0.0000 C   0  0  0  0  0  0  0  0  0  0  0  0
   -4.2395    1.2516    0.0000 C   0  0  0  0  0  0  0  0  0  0  0  0
   -3.5592    2.4884    0.0000 C   0  0  0  0  0  0  0  0  0  0  0  0
   -4.2739    2.0795    0.0000 C   0  0  0  0  0  0  0  0  0  0  0  0
   -4.9886    0.8392    0.0000 C   0  0  0  0  0  0  0  0  0  0  0  0
   -4.9886    2.4918    0.0000 C   0  0  0  0  0  0  0  0  0  0  0  0
   -5.7032    1.2516    0.0000 C   0  0  0  0  0  0  0  0  0  0  0  0
   -5.7032    2.0795    0.0000 C   0  0  0  0  0  0  0  0  0  0  0  0
    4.2736    0.3974    0.0000 H   0  0  0  0  0  0  0  0  0  0  0  0
    4.2616   -2.0760    0.0000 H   0  0  0  0  0  0  0  0  0  0  0  0
    2.8623    3.7157    0.0000 C   0  0  0  0  0  0  0  0  0  0  0  0
    2.1478    3.3032    0.0000 C   0  0  0  0  0  0  0  0  0  0  0  0
    2.8623    2.0656    0.0000 C   0  0  0  0  0  0  0  0  0  0  0  0
    3.5768    2.4781    0.0000 C   0  0  0  0  0  0  0  0  0  0  0  0
    3.5768    3.3032    0.0000 C   0  0  0  0  0  0  0  0  0  0  0  0
    1.4120   -2.8906    0.0000 C   0  0  0  0  0  0  0  0  0  0  0  0
    1.4100   -3.7157    0.0000 C   0  0  0  0  0  0  0  0  0  0  0  0
    0.6985   -2.4764    0.0000 C   0  0  0  0  0  0  0  0  0  0  0  0
    0.6975   -3.3032    0.0000 C   0  0  0  0  0  0  0  0  0  0  0  0
    1.9239   -0.7064    0.0000 H   0  0  0  0  0  0  0  0  0  0  0  0
    3.5779    1.0588    0.0000 H   0  0  0  0  0  0  0  0  0  0  0  0
    4.5018    0.5136    0.0000 H   0  0  0  0  0  0  0  0  0  0  0  0
    1.2104   -0.5370    0.0000 H   0  0  0  0  0  0  0  0  0  0  0  0
    1.2157    0.5336    0.0000 H   0  0  0  0  0  0  0  0  0  0  0  0
    3.5554   -2.7314    0.0000 H   0  0  0  0  0  0  0  0  0  0  0  0
    4.4833   -2.2010    0.0000 H   0  0  0  0  0  0  0  0  0  0  0  0
    3.0689    0.2798    0.0000 H   0  0  0  0  0  0  0  0  0  0  0  0
    2.9789   -2.9741    0.0000 H   0  0  0  0  0  0  0  0  0  0  0  0
    4.9870    1.0472    0.0000 H   0  0  0  0  0  0  0  0  0  0  0  0
    5.9131    0.5134    0.0000 H   0  0  0  0  0  0  0  0  0  0  0  0
    2.3582    1.7658    0.0000 H   0  0  0  0  0  0  0  0  0  0  0  0
    3.6984    0.7424    0.0000 H   0  0  0  0  0  0  0  0  0  0  0  0
    4.9841   -2.7348    0.0000 H   0  0  0  0  0  0  0  0  0  0  0  0
    5.9115   -2.1991    0.0000 H   0  0  0  0  0  0  0  0  0  0  0  0
    6.6309    0.0993    0.0000 H   0  0  0  0  0  0  0  0  0  0  0  0
    6.6275   -0.9728    0.0000 H   0  0  0  0  0  0  0  0  0  0  0  0
    0.5067    2.5979    0.0000 H   0  0  0  0  0  0  0  0  0  0  0  0
    1.4317    3.1324    0.0000 H   0  0  0  0  0  0  0  0  0  0  0  0
    0.7112   -0.1591    0.0000 H   0  0  0  0  0  0  0  0  0  0  0  0
    6.6232   -1.7884    0.0000 H   0  0  0  0  0  0  0  0  0  0  0  0
    6.6268   -0.7204    0.0000 H   0  0  0  0  0  0  0  0  0  0  0  0
    0.2164    0.2923    0.0000 H   0  0  0  0  0  0  0  0  0  0  0  0
   -1.4201    2.2291    0.0000 H   0  0  0  0  0  0  0  0  0  0  0  0
   -1.6402   -0.7287    0.0000 H   0  0  0  0  0  0  0  0  0  0  0  0
   -0.7172   -1.2685    0.0000 H   0  0  0  0  0  0  0  0  0  0  0  0
   -0.8489   -1.9345    0.0000 H   0  0  0  0  0  0  0  0  0  0  0  0
    0.8563   -1.9345    0.0000 H   0  0  0  0  0  0  0  0  0  0  0  0
   -1.9488    2.5851    0.0000 H   0  0  0  0  0  0  0  0  0  0  0  0
   -3.5554    3.5204    0.0000 H   0  0  0  0  0  0  0  0  0  0  0  0
   -4.9990   -0.1927    0.0000 H   0  0  0  0  0  0  0  0  0  0  0  0
   -4.9886    3.5238    0.0000 H   0  0  0  0  0  0  0  0  0  0  0  0
   -6.5969    0.7355    0.0000 H   0  0  0  0  0  0  0  0  0  0  0  0
   -6.5969    2.5956    0.0000 H   0  0  0  0  0  0  0  0  0  0  0  0
    2.8623    4.7477    0.0000 H   0  0  0  0  0  0  0  0  0  0  0  0
    1.2541    3.8192    0.0000 H   0  0  0  0  0  0  0  0  0  0  0  0
    2.8623    1.0336    0.0000 H   0  0  0  0  0  0  0  0  0  0  0  0
    4.4705    1.9621    0.0000 H   0  0  0  0  0  0  0  0  0  0  0  0
    4.4705    3.8192    0.0000 H   0  0  0  0  0  0  0  0  0  0  0  0
    0.4821   -4.2485    0.0000 H   0  0  0  0  0  0  0  0  0  0  0  0
    2.3353   -4.2529    0.0000 H   0  0  0  0  0  0  0  0  0  0  0  0
    1.4074   -4.7857    0.0000 H   0  0  0  0  0  0  0  0  0  0  0  0
    0.7010   -1.4064    0.0000 H   0  0  0  0  0  0  0  0  0  0  0  0
   -0.2294   -3.0092    0.0000 H   0  0  0  0  0  0  0  0  0  0  0  0
   -0.2269   -1.9392    0.0000 H   0  0  0  0  0  0  0  0  0  0  0  0
   -0.2292   -2.7683    0.0000 H   0  0  0  0  0  0  0  0  0  0  0  0
    0.6976   -4.3732    0.0000 H   0  0  0  0  0  0  0  0  0  0  0  0
   -0.2291   -3.8383    0.0000 H   0  0  0  0  0  0  0  0  0  0  0  0
  1  2  1  0  0  0  0
  1  3  1  0  0  0  0
  1  4  1  0  0  0  0
  2  5  1  0  0  0  0
  2  6  1  0  0  0  0
  2 52  1  6  0  0  0
  3  7  1  0  0  0  0
  3 53  1  0  0  0  0
  3 54  1  0  0  0  0
  4  8  1  0  0  0  0
  4 55  1  0  0  0  0
  4 56  1  0  0  0  0
  5  9  1  0  0  0  0
  5 57  1  0  0  0  0
  5 58  1  0  0  0  0
  6 10  1  0  0  0  0
  6 11  2  0  0  0  0
  7 12  1  0  0  0  0
  7  9  1  0  0  0  0
  7 41  1  6  0  0  0
  8 13  1  0  0  0  0
  8 14  1  0  0  0  0
  8 59  1  1  0  0  0
  9 15  1  0  0  0  0
  9 42  1  6  0  0  0
 10 48  1  0  0  0  0
 10 60  1  0  0  0  0
 12 16  1  0  0  0  0
 12 61  1  0  0  0  0
 12 62  1  0  0  0  0
 13 17  1  0  0  0  0
 13 18  1  0  0  0  0
 13 63  1  6  0  0  0
 14 64  1  0  0  0  0
 15 19  1  0  0  0  0
 15 65  1  0  0  0  0
 15 66  1  0  0  0  0
 16 19  1  0  0  0  0
 16 67  1  0  0  0  0
 16 68  1  0  0  0  0
 17 20  1  0  0  0  0
 17 69  1  0  0  0  0
 17 70  1  0  0  0  0
 18 21  1  0  0  0  0
 18 71  1  0  0  0  0
 19 72  1  0  0  0  0
 19 73  1  0  0  0  0
 20 45  1  0  0  0  0
 21 22  1  0  0  0  0
 21 23  2  0  0  0  0
 22 24  1  0  0  0  0
 22 25  1  0  0  0  0
 22 74  1  1  0  0  0
 24 26  1  0  0  0  0
 24 75  1  0  0  0  0
 25 27  1  0  0  0  0
 25 76  1  0  0  0  0
 25 77  1  0  0  0  0
 26 28  1  0  0  0  0
 26 29  2  0  0  0  0
 27 30  1  0  0  0  0
 27 31  2  0  0  0  0
 28 32  2  0  0  0  0
 28 33  1  0  0  0  0
 30 78  1  0  0  0  0
 30 79  1  0  0  0  0
 32 34  1  0  0  0  0
 33 35  2  0  0  0  0
 33 80  1  0  0  0  0
 34 36  2  0  0  0  0
 34 37  1  0  0  0  0
 35 36  1  0  0  0  0
 35 81  1  0  0  0  0
 36 38  1  0  0  0  0
 37 39  2  0  0  0  0
 37 82  1  0  0  0  0
 38 40  2  0  0  0  0
 38 83  1  0  0  0  0
 39 40  1  0  0  0  0
 39 84  1  0  0  0  0
 40 85  1  0  0  0  0
 43 44  1  0  0  0  0
 43 47  2  0  0  0  0
 43 86  1  0  0  0  0
 44 20  2  0  0  0  0
 44 87  1  0  0  0  0
 45 46  2  0  0  0  0
 45 88  1  0  0  0  0
 46 47  1  0  0  0  0
 46 89  1  0  0  0  0
 47 90  1  0  0  0  0
 48 49  1  0  0  0  0
 48 50  1  0  0  0  0
 48 51  1  0  0  0  0
 49 91  1  0  0  0  0
 49 92  1  0  0  0  0
 49 93  1  0  0  0  0
 50 94  1  0  0  0  0
 50 95  1  0  0  0  0
 50 96  1  0  0  0  0
 51 97  1  0  0  0  0
 51 98  1  0  0  0  0
 51 99  1  0  0  0  0
M  END
>  <DRUGBANK_ID>
DB01232

>  <SECONDARY_ACCESSION_NUMBERS>
APRD00623

>  <COMMON_NAME>
Saquinavir

>  <CAS_NUMBER>
127779-20-8

>  <UNII>
L3JE09KZ2F

>  <SYNONYMS>
Saquinavir

$$$$
