
 OpenBabel10282417072D

 35 36  0  0  0  0  0  0  0  0999 V2000
    3.4656    3.5277    0.0000 C   0  0  0  0  0  0  0  0  0  0  0  0
    2.0367    3.5277    0.0000 C   0  0  0  0  0  0  0  0  0  0  0  0
    4.2032    2.0602    0.0000 C   0  0  0  0  0  0  0  0  0  0  0  0
    3.6486    0.3532    0.0000 C   0  0  0  0  0  0  0  0  0  0  0  0
    0.8839   -0.9817    0.0000 C   0  0  0  0  0  0  0  0  0  0  0  0
    1.7044   -1.0679    0.0000 C   0  0  0  0  0  0  0  0  0  0  0  0
    0.5484   -0.2280    0.0000 C   0  0  0  0  0  0  0  0  0  0  0  0
    2.1893   -0.4005    0.0000 C   0  0  0  0  0  0  0  0  0  0  0  0
    1.0333    0.4394    0.0000 C   0  0  0  0  0  0  0  0  0  0  0  0
    2.7512    3.1152    0.0000 C   0  0  0  0  0  0  0  0  0  0  0  0
    3.4186    1.8053    0.0000 C   0  0  0  0  0  0  0  0  0  0  0  0
    1.8538    0.3532    0.0000 C   0  0  0  0  0  0  0  0  0  0  0  0
    2.7512    2.2902    0.0000 C   0  0  0  0  0  0  0  0  0  0  0  0
    2.0837    1.8053    0.0000 C   0  0  0  0  0  0  0  0  0  0  0  0
    3.1637    1.0206    0.0000 N   0  0  0  0  0  0  0  0  0  0  0  0
    2.3387    1.0206    0.0000 N   0  0  0  0  0  0  0  0  0  0  0  0
    1.2991    2.0602    0.0000 O   0  0  0  0  0  0  0  0  0  0  0  0
    4.3923    2.9927    0.0000 H   0  0  0  0  0  0  0  0  0  0  0  0
    3.4656    4.5977    0.0000 H   0  0  0  0  0  0  0  0  0  0  0  0
    4.3922    4.0627    0.0000 H   0  0  0  0  0  0  0  0  0  0  0  0
    2.0367    4.5977    0.0000 H   0  0  0  0  0  0  0  0  0  0  0  0
    1.1101    2.9927    0.0000 H   0  0  0  0  0  0  0  0  0  0  0  0
    1.1100    4.0627    0.0000 H   0  0  0  0  0  0  0  0  0  0  0  0
    4.9983    1.3442    0.0000 H   0  0  0  0  0  0  0  0  0  0  0  0
    4.4257    3.1068    0.0000 H   0  0  0  0  0  0  0  0  0  0  0  0
    5.2208    2.3908    0.0000 H   0  0  0  0  0  0  0  0  0  0  0  0
    3.2134   -0.6243    0.0000 H   0  0  0  0  0  0  0  0  0  0  0  0
    4.7127    0.4651    0.0000 H   0  0  0  0  0  0  0  0  0  0  0  0
    4.2775   -0.5124    0.0000 H   0  0  0  0  0  0  0  0  0  0  0  0
    0.2773   -1.8166    0.0000 H   0  0  0  0  0  0  0  0  0  0  0  0
    2.1242   -2.0107    0.0000 H   0  0  0  0  0  0  0  0  0  0  0  0
   -0.4779   -0.1201    0.0000 H   0  0  0  0  0  0  0  0  0  0  0  0
    3.2156   -0.5084    0.0000 H   0  0  0  0  0  0  0  0  0  0  0  0
    0.6135    1.3822    0.0000 H   0  0  0  0  0  0  0  0  0  0  0  0
    1.8246    2.5802    0.0000 H   0  0  0  0  0  0  0  0  0  0  0  0
  1 18  1  0  0  0  0
  1 19  1  0  0  0  0
  1 20  1  0  0  0  0
  2 21  1  0  0  0  0
  2 22  1  0  0  0  0
  2 23  1  0  0  0  0
  3 24  1  0  0  0  0
  3 25  1  0  0  0  0
  3 26  1  0  0  0  0
  4 27  1  0  0  0  0
  4 28  1  0  0  0  0
  4 29  1  0  0  0  0
  5 30  1  0  0  0  0
  6  5  2  0  0  0  0
  6 31  1  0  0  0  0
  7  5  1  0  0  0  0
  7 32  1  0  0  0  0
  8  6  1  0  0  0  0
  8 33  1  0  0  0  0
  9  7  2  0  0  0  0
  9 34  1  0  0  0  0
 10  1  1  0  0  0  0
 10  2  1  0  0  0  0
 10 35  1  0  0  0  0
 11  3  1  0  0  0  0
 12  8  2  0  0  0  0
 12  9  1  0  0  0  0
 13 10  1  0  0  0  0
 13 11  2  0  0  0  0
 14 13  1  0  0  0  0
 15  4  1  0  0  0  0
 15 11  1  0  0  0  0
 16 12  1  0  0  0  0
 16 14  1  0  0  0  0
 16 15  1  0  0  0  0
 17 14  2  0  0  0  0
M  END
>  <DRUGBANK_ID>
DB13524

>  <COMMON_NAME>
Propyphenazone

>  <CAS_NUMBER>
479-92-5

>  <UNII>
OED8FV75PY

>  <SYNONYMS>
1-Phenyl-2,3-dimethyl-4-isopropyl-3-pyrazolin-5-one; 1-Phenyl-2,3-dimethyl-4-isopropylpyrazol-5-one; 4-Isopropyl-1,5-dimethyl-2-phenyl-1,2-dihydro-pyrazol-3-one; 4-Isopropylantipyrine; Isopropylantipyrine; Isopropylphenazone; Propifenazona; Propyphenazone; Propyphenazonum

$$$$
