
 OpenBabel10282417072D

 44 44  0  0  0  0  0  0  0  0999 V2000
   -3.2100    0.4054    0.0000 C   0  0  0  0  0  0  0  0  0  0  0  0
   -3.2112   -0.4227    0.0000 C   0  0  0  0  0  0  0  0  0  0  0  0
   -2.4955   -0.8360    0.0000 C   0  0  0  0  0  0  0  0  0  0  0  0
   -1.7782   -0.4223    0.0000 C   0  0  0  0  0  0  0  0  0  0  0  0
   -1.7811    0.4091    0.0000 C   0  0  0  0  0  0  0  0  0  0  0  0
   -2.4973    0.8187    0.0000 C   0  0  0  0  0  0  0  0  0  0  0  0
   -1.0687    0.8226    0.0000 C   0  0  0  0  0  0  0  0  0  0  0  0
   -0.3554    0.4138    0.0000 C   0  0  1  0  0  0  0  0  0  0  0  0
    0.3579    0.8267    0.0000 C   0  0  0  0  0  0  0  0  0  0  0  0
    1.0712    0.4180    0.0000 C   0  0  0  0  0  0  0  0  0  0  0  0
    1.7844    0.8309    0.0000 C   0  0  0  0  0  0  0  0  0  0  0  0
    2.4978    0.4222    0.0000 C   0  0  0  0  0  0  0  0  0  0  0  0
    3.2111    0.8351    0.0000 C   0  0  0  0  0  0  0  0  0  0  0  0
   -3.9268   -0.8351    0.0000 N   0  0  0  0  0  0  0  0  0  0  0  0
   -4.6417   -0.4216    0.0000 C   0  0  0  0  0  0  0  0  0  0  0  0
   -3.9274   -1.6610    0.0000 C   0  0  0  0  0  0  0  0  0  0  0  0
   -1.0709    1.6486    0.0000 O   0  0  0  0  0  0  0  0  0  0  0  0
    1.0730   -0.4078    0.0000 C   0  0  0  0  0  0  0  0  0  0  0  0
    3.9269    0.4230    0.0000 N   0  0  0  0  0  0  0  0  0  0  0  0
    3.2101    1.6610    0.0000 O   0  0  0  0  0  0  0  0  0  0  0  0
    4.6417    0.8368    0.0000 O   0  0  0  0  0  0  0  0  0  0  0  0
   -0.3536   -0.4121    0.0000 C   0  0  0  0  0  0  0  0  0  0  0  0
   -4.1039    0.9212    0.0000 H   0  0  0  0  0  0  0  0  0  0  0  0
   -2.4958   -1.8680    0.0000 H   0  0  0  0  0  0  0  0  0  0  0  0
   -0.8837   -0.9369    0.0000 H   0  0  0  0  0  0  0  0  0  0  0  0
   -2.5004    1.8507    0.0000 H   0  0  0  0  0  0  0  0  0  0  0  0
   -1.2806   -0.1237    0.0000 H   0  0  0  0  0  0  0  0  0  0  0  0
    0.3556    1.8587    0.0000 H   0  0  0  0  0  0  0  0  0  0  0  0
    1.7821    1.8629    0.0000 H   0  0  0  0  0  0  0  0  0  0  0  0
    2.5001   -0.6098    0.0000 H   0  0  0  0  0  0  0  0  0  0  0  0
   -4.6409    0.6484    0.0000 H   0  0  0  0  0  0  0  0  0  0  0  0
   -5.5688   -0.9559    0.0000 H   0  0  0  0  0  0  0  0  0  0  0  0
   -5.5679    0.1141    0.0000 H   0  0  0  0  0  0  0  0  0  0  0  0
   -4.8544   -2.1953    0.0000 H   0  0  0  0  0  0  0  0  0  0  0  0
   -3.0011   -2.1967    0.0000 H   0  0  0  0  0  0  0  0  0  0  0  0
   -3.9282   -2.7310    0.0000 H   0  0  0  0  0  0  0  0  0  0  0  0
    0.1475   -0.9448    0.0000 H   0  0  0  0  0  0  0  0  0  0  0  0
    2.0008   -0.9408    0.0000 H   0  0  0  0  0  0  0  0  0  0  0  0
    1.0753   -1.4778    0.0000 H   0  0  0  0  0  0  0  0  0  0  0  0
    3.9281   -0.5615    0.0000 H   0  0  0  0  0  0  0  0  0  0  0  0
    5.4823    0.3528    0.0000 H   0  0  0  0  0  0  0  0  0  0  0  0
   -1.2791   -0.9491    0.0000 H   0  0  0  0  0  0  0  0  0  0  0  0
    0.5742   -0.9451    0.0000 H   0  0  0  0  0  0  0  0  0  0  0  0
   -0.3513   -1.4821    0.0000 H   0  0  0  0  0  0  0  0  0  0  0  0
  1  2  2  0  0  0  0
  1 23  1  0  0  0  0
  2 14  1  0  0  0  0
  2  3  1  0  0  0  0
  3  4  2  0  0  0  0
  3 24  1  0  0  0  0
  4  5  1  0  0  0  0
  4 25  1  0  0  0  0
  5  6  2  0  0  0  0
  5  7  1  0  0  0  0
  6  1  1  0  0  0  0
  6 26  1  0  0  0  0
  7  8  1  0  0  0  0
  7 17  2  0  0  0  0
  8  9  1  0  0  0  0
  8 22  1  0  0  0  0
  8 27  1  6  0  0  0
  9 10  2  0  0  0  0
  9 28  1  0  0  0  0
 10 11  1  0  0  0  0
 10 18  1  0  0  0  0
 11 12  2  0  0  0  0
 11 29  1  0  0  0  0
 12 13  1  0  0  0  0
 12 30  1  0  0  0  0
 13 19  1  0  0  0  0
 13 20  2  0  0  0  0
 14 15  1  0  0  0  0
 14 16  1  0  0  0  0
 15 31  1  0  0  0  0
 15 32  1  0  0  0  0
 15 33  1  0  0  0  0
 16 34  1  0  0  0  0
 16 35  1  0  0  0  0
 16 36  1  0  0  0  0
 18 37  1  0  0  0  0
 18 38  1  0  0  0  0
 18 39  1  0  0  0  0
 19 21  1  0  0  0  0
 19 40  1  0  0  0  0
 21 41  1  0  0  0  0
 22 42  1  0  0  0  0
 22 43  1  0  0  0  0
 22 44  1  0  0  0  0
M  END
>  <DRUGBANK_ID>
DB04297

>  <SECONDARY_ACCESSION_NUMBERS>
EXPT03123

>  <COMMON_NAME>
Trichostatin A

>  <CAS_NUMBER>
58880-19-6

>  <UNII>
3X2S926L3Z

>  <SYNONYMS>
TSA

$$$$
