
 OpenBabel10282417072D

 72 75  0  0  1  0  0  0  0  0999 V2000
   -0.2861   -2.2796    0.0000 C   0  0  0  0  0  0  0  0  0  0  0  0
    0.1264   -1.5652    0.0000 C   0  0  0  0  0  0  0  0  0  0  0  0
    0.9514   -1.5652    0.0000 C   0  0  0  0  0  0  0  0  0  0  0  0
    1.3639   -2.2796    0.0000 C   0  0  0  0  0  0  0  0  0  0  0  0
    0.9514   -2.9941    0.0000 C   0  0  0  0  0  0  0  0  0  0  0  0
    0.1264   -2.9941    0.0000 C   0  0  0  0  0  0  0  0  0  0  0  0
    1.3639   -3.7086    0.0000 C   0  0  0  0  0  0  0  0  0  0  0  0
    0.9514   -4.4231    0.0000 O   0  0  0  0  0  0  0  0  0  0  0  0
    2.1889   -3.7086    0.0000 N   0  0  0  0  0  0  0  0  0  0  0  0
    1.3639   -0.8507    0.0000 C   0  0  1  0  0  0  0  0  0  0  0  0
    2.1866   -0.9123    0.0000 C   0  0  0  0  0  0  0  0  0  0  0  0
    2.7477   -0.3076    0.0000 C   0  0  1  0  0  0  0  0  0  0  0  0
    2.6248    0.5082    0.0000 C   0  0  0  0  0  0  0  0  0  0  0  0
    1.9103    0.9207    0.0000 C   0  0  0  0  0  0  0  0  0  0  0  0
    1.1423    0.6193    0.0000 C   0  0  1  0  0  0  0  0  0  0  0  0
    0.8992   -0.1690    0.0000 C   0  0  0  0  0  0  0  0  0  0  0  0
    2.0609    0.3565    0.0000 N   0  0  0  0  0  0  0  0  0  0  0  0
    2.4734    1.0710    0.0000 C   0  0  0  0  0  0  0  0  0  0  0  0
    2.0609    1.7855    0.0000 C   0  0  0  0  0  0  0  0  0  0  0  0
    2.4734    2.4999    0.0000 N   0  0  0  0  0  0  0  0  0  0  0  0
    2.0609    3.2144    0.0000 C   0  0  0  0  0  0  0  0  0  0  0  0
    2.4734    3.9289    0.0000 C   0  0  0  0  0  0  0  0  0  0  0  0
    2.0609    4.6434    0.0000 C   0  0  0  0  0  0  0  0  0  0  0  0
    2.4734    5.3578    0.0000 C   0  0  0  0  0  0  0  0  0  0  0  0
    3.2984    5.3578    0.0000 C   0  0  0  0  0  0  0  0  0  0  0  0
    3.7109    4.6434    0.0000 C   0  0  0  0  0  0  0  0  0  0  0  0
    3.2984    3.9289    0.0000 C   0  0  0  0  0  0  0  0  0  0  0  0
    3.2984    2.4999    0.0000 C   0  0  0  0  0  0  0  0  0  0  0  0
    3.7109    3.2144    0.0000 O   0  0  0  0  0  0  0  0  0  0  0  0
    3.7109    1.7855    0.0000 C   0  0  2  0  0  0  0  0  0  0  0  0
    4.5359    1.7855    0.0000 C   0  0  0  0  0  0  0  0  0  0  0  0
    4.9484    1.0710    0.0000 O   0  0  0  0  0  0  0  0  0  0  0  0
    3.2984    1.0710    0.0000 O   0  0  0  0  0  0  0  0  0  0  0  0
   -1.3181   -2.2796    0.0000 H   0  0  0  0  0  0  0  0  0  0  0  0
   -0.3896   -0.6715    0.0000 H   0  0  0  0  0  0  0  0  0  0  0  0
    2.3959   -2.2796    0.0000 H   0  0  0  0  0  0  0  0  0  0  0  0
   -0.3896   -3.8878    0.0000 H   0  0  0  0  0  0  0  0  0  0  0  0
    2.6812   -4.5612    0.0000 H   0  0  0  0  0  0  0  0  0  0  0  0
    2.6811   -2.8560    0.0000 H   0  0  0  0  0  0  0  0  0  0  0  0
    1.8639   -1.7967    0.0000 H   0  0  0  0  0  0  0  0  0  0  0  0
    2.5775   -1.9083    0.0000 H   0  0  0  0  0  0  0  0  0  0  0  0
    3.2379   -1.1112    0.0000 H   0  0  0  0  0  0  0  0  0  0  0  0
    1.6781   -0.3366    0.0000 H   0  0  0  0  0  0  0  0  0  0  0  0
    3.5089    1.1109    0.0000 H   0  0  0  0  0  0  0  0  0  0  0  0
    2.5848    1.5775    0.0000 H   0  0  0  0  0  0  0  0  0  0  0  0
    1.9903    1.9877    0.0000 H   0  0  0  0  0  0  0  0  0  0  0  0
    1.0494    1.5561    0.0000 H   0  0  0  0  0  0  0  0  0  0  0  0
    2.2111    0.6703    0.0000 H   0  0  0  0  0  0  0  0  0  0  0  0
   -0.1588   -0.3285    0.0000 H   0  0  0  0  0  0  0  0  0  0  0  0
    0.4713   -1.1497    0.0000 H   0  0  0  0  0  0  0  0  0  0  0  0
    3.5434    1.0710    0.0000 H   0  0  0  0  0  0  0  0  0  0  0  0
    3.0084    1.9976    0.0000 H   0  0  0  0  0  0  0  0  0  0  0  0
    0.9909    1.7855    0.0000 H   0  0  0  0  0  0  0  0  0  0  0  0
    1.5259    2.7122    0.0000 H   0  0  0  0  0  0  0  0  0  0  0  0
    0.9909    3.2144    0.0000 H   0  0  0  0  0  0  0  0  0  0  0  0
    1.5259    4.1410    0.0000 H   0  0  0  0  0  0  0  0  0  0  0  0
    3.0084    4.8555    0.0000 H   0  0  0  0  0  0  0  0  0  0  0  0
    0.9909    4.6434    0.0000 H   0  0  0  0  0  0  0  0  0  0  0  0
    1.5259    5.5701    0.0000 H   0  0  0  0  0  0  0  0  0  0  0  0
    1.9384    6.2845    0.0000 H   0  0  0  0  0  0  0  0  0  0  0  0
    3.0084    6.2844    0.0000 H   0  0  0  0  0  0  0  0  0  0  0  0
    3.8334    6.2845    0.0000 H   0  0  0  0  0  0  0  0  0  0  0  0
    4.3684    5.3578    0.0000 H   0  0  0  0  0  0  0  0  0  0  0  0
    4.7809    4.6434    0.0000 H   0  0  0  0  0  0  0  0  0  0  0  0
    4.2459    3.7168    0.0000 H   0  0  0  0  0  0  0  0  0  0  0  0
    3.8334    3.0023    0.0000 H   0  0  0  0  0  0  0  0  0  0  0  0
    2.7634    3.0023    0.0000 H   0  0  0  0  0  0  0  0  0  0  0  0
    2.6409    1.7855    0.0000 H   0  0  0  0  0  0  0  0  0  0  0  0
    5.0709    2.7121    0.0000 H   0  0  0  0  0  0  0  0  0  0  0  0
    5.6059    1.7855    0.0000 H   0  0  0  0  0  0  0  0  0  0  0  0
    4.4634    0.2310    0.0000 H   0  0  0  0  0  0  0  0  0  0  0  0
    2.3284    1.0710    0.0000 H   0  0  0  0  0  0  0  0  0  0  0  0
  1  2  2  0  0  0  0
  1  6  1  0  0  0  0
  1 34  1  0  0  0  0
  2  3  1  0  0  0  0
  2 35  1  0  0  0  0
  3  4  2  0  0  0  0
  4  5  1  0  0  0  0
  4 36  1  0  0  0  0
  5  6  2  0  0  0  0
  5  7  1  0  0  0  0
  6 37  1  0  0  0  0
  7  8  2  0  0  0  0
  7  9  1  0  0  0  0
  9 38  1  0  0  0  0
  9 39  1  0  0  0  0
 10  3  1  0  0  0  0
 10 11  1  0  0  0  0
 10 16  1  0  0  0  0
 10 40  1  1  0  0  0
 11 12  1  0  0  0  0
 11 41  1  0  0  0  0
 11 42  1  0  0  0  0
 12 13  1  0  0  0  0
 12 17  1  0  0  0  0
 12 43  1  1  0  0  0
 13 14  1  0  0  0  0
 13 44  1  0  0  0  0
 13 45  1  0  0  0  0
 14 15  1  0  0  0  0
 14 46  1  0  0  0  0
 14 47  1  0  0  0  0
 15 16  1  0  0  0  0
 15 17  1  0  0  0  0
 15 48  1  1  0  0  0
 16 49  1  0  0  0  0
 16 50  1  0  0  0  0
 17 18  1  0  0  0  0
 18 19  1  0  0  0  0
 18 51  1  0  0  0  0
 18 52  1  0  0  0  0
 19 20  1  0  0  0  0
 19 53  1  0  0  0  0
 19 54  1  0  0  0  0
 20 21  1  0  0  0  0
 20 28  1  0  0  0  0
 21 22  1  0  0  0  0
 21 55  1  0  0  0  0
 21 56  1  0  0  0  0
 22 23  1  0  0  0  0
 22 27  1  0  0  0  0
 22 57  1  0  0  0  0
 23 24  1  0  0  0  0
 23 58  1  0  0  0  0
 23 59  1  0  0  0  0
 24 25  1  0  0  0  0
 24 60  1  0  0  0  0
 24 61  1  0  0  0  0
 25 26  1  0  0  0  0
 25 62  1  0  0  0  0
 25 63  1  0  0  0  0
 26 27  1  0  0  0  0
 26 64  1  0  0  0  0
 26 65  1  0  0  0  0
 27 66  1  0  0  0  0
 27 67  1  0  0  0  0
 28 29  2  0  0  0  0
 28 30  1  0  0  0  0
 30 31  1  0  0  0  0
 30 33  1  0  0  0  0
 30 68  1  1  0  0  0
 31 32  1  0  0  0  0
 31 69  1  0  0  0  0
 31 70  1  0  0  0  0
 32 71  1  0  0  0  0
 33 72  1  0  0  0  0
M  END
>  <DRUGBANK_ID>
DB12013

>  <COMMON_NAME>
Axelopran

>  <CAS_NUMBER>
949904-48-7

>  <UNII>
85U7ROB149

>  <SYNONYMS>
Axelopran

$$$$
