
 OpenBabel10282417072D

 51 52  0  0  0  0  0  0  0  0999 V2000
    1.4289   -2.4750    0.0000 C   0  0  0  0  0  0  0  0  0  0  0  0
    2.5559   -2.7770    0.0000 C   0  0  0  0  0  0  0  0  0  0  0  0
    1.7309   -1.3480    0.0000 C   0  0  0  0  0  0  0  0  0  0  0  0
    3.5724   -0.4125    0.0000 C   0  0  0  0  0  0  0  0  0  0  0  0
    4.2868   -1.6500    0.0000 C   0  0  0  0  0  0  0  0  0  0  0  0
    5.0013   -0.4125    0.0000 C   0  0  0  0  0  0  0  0  0  0  0  0
   10.0026   -0.8250    0.0000 C   0  0  0  0  0  0  0  0  0  0  0  0
    9.2881   -2.0625    0.0000 C   0  0  0  0  0  0  0  0  0  0  0  0
    2.8579   -0.8250    0.0000 C   0  0  0  0  0  0  0  0  0  0  0  0
    3.5724   -2.0625    0.0000 C   0  0  0  0  0  0  0  0  0  0  0  0
    5.7158   -0.8250    0.0000 C   0  0  0  0  0  0  0  0  0  0  0  0
    9.2881   -0.4125    0.0000 C   0  0  0  0  0  0  0  0  0  0  0  0
    8.5737   -1.6500    0.0000 C   0  0  0  0  0  0  0  0  0  0  0  0
    7.1447   -0.8250    0.0000 C   0  0  0  0  0  0  0  0  0  0  0  0
    4.2868   -0.8250    0.0000 C   0  0  0  0  0  0  0  0  0  0  0  0
   10.0026   -1.6500    0.0000 C   0  0  0  0  0  0  0  0  0  0  0  0
    2.8579   -1.6500    0.0000 C   0  0  0  0  0  0  0  0  0  0  0  0
    6.4302   -0.4125    0.0000 C   0  0  3  0  0  0  0  0  0  0  0  0
    8.5737   -0.8250    0.0000 C   0  0  0  0  0  0  0  0  0  0  0  0
   10.7171   -2.0625    0.0000 C   0  0  0  0  0  0  0  0  0  0  0  0
    2.1434   -2.0625    0.0000 C   0  0  0  0  0  0  0  0  0  0  0  0
    6.4302    0.4125    0.0000 O   0  0  0  0  0  0  0  0  0  0  0  0
   11.4315   -1.6500    0.0000 O   0  0  0  0  0  0  0  0  0  0  0  0
   10.7171   -2.8875    0.0000 O   0  0  0  0  0  0  0  0  0  0  0  0
    7.8592   -0.4125    0.0000 O   0  0  0  0  0  0  0  0  0  0  0  0
    0.5023   -1.9400    0.0000 H   0  0  0  0  0  0  0  0  0  0  0  0
    1.4289   -3.5450    0.0000 H   0  0  0  0  0  0  0  0  0  0  0  0
    0.5022   -3.0100    0.0000 H   0  0  0  0  0  0  0  0  0  0  0  0
    2.0209   -3.7036    0.0000 H   0  0  0  0  0  0  0  0  0  0  0  0
    3.6259   -2.7770    0.0000 H   0  0  0  0  0  0  0  0  0  0  0  0
    3.0909   -3.7037    0.0000 H   0  0  0  0  0  0  0  0  0  0  0  0
    2.2659   -0.4214    0.0000 H   0  0  0  0  0  0  0  0  0  0  0  0
    0.6609   -1.3480    0.0000 H   0  0  0  0  0  0  0  0  0  0  0  0
    1.1959   -0.4213    0.0000 H   0  0  0  0  0  0  0  0  0  0  0  0
    3.5724    0.6195    0.0000 H   0  0  0  0  0  0  0  0  0  0  0  0
    5.1805   -2.1660    0.0000 H   0  0  0  0  0  0  0  0  0  0  0  0
    5.0013    0.6575    0.0000 H   0  0  0  0  0  0  0  0  0  0  0  0
    4.0747    0.1225    0.0000 H   0  0  0  0  0  0  0  0  0  0  0  0
   10.8963   -0.3090    0.0000 H   0  0  0  0  0  0  0  0  0  0  0  0
    9.2881   -3.0945    0.0000 H   0  0  0  0  0  0  0  0  0  0  0  0
    1.9642   -0.3090    0.0000 H   0  0  0  0  0  0  0  0  0  0  0  0
    3.5724   -3.0945    0.0000 H   0  0  0  0  0  0  0  0  0  0  0  0
    5.7158   -1.8950    0.0000 H   0  0  0  0  0  0  0  0  0  0  0  0
    6.6425   -1.3600    0.0000 H   0  0  0  0  0  0  0  0  0  0  0  0
    9.2881    0.6195    0.0000 H   0  0  0  0  0  0  0  0  0  0  0  0
    7.6800   -2.1660    0.0000 H   0  0  0  0  0  0  0  0  0  0  0  0
    7.1447   -1.8950    0.0000 H   0  0  0  0  0  0  0  0  0  0  0  0
    8.0713   -1.3600    0.0000 H   0  0  0  0  0  0  0  0  0  0  0  0
    6.4302   -1.4825    0.0000 H   0  0  0  0  0  0  0  0  0  0  0  0
    7.2702    0.8975    0.0000 H   0  0  0  0  0  0  0  0  0  0  0  0
   12.2430   -2.1185    0.0000 H   0  0  0  0  0  0  0  0  0  0  0  0
  1 26  1  0  0  0  0
  1 27  1  0  0  0  0
  1 28  1  0  0  0  0
  2 29  1  0  0  0  0
  2 30  1  0  0  0  0
  2 31  1  0  0  0  0
  3 32  1  0  0  0  0
  3 33  1  0  0  0  0
  3 34  1  0  0  0  0
  4 35  1  0  0  0  0
  5 36  1  0  0  0  0
  6 37  1  0  0  0  0
  6 38  1  0  0  0  0
  7 39  1  0  0  0  0
  8 40  1  0  0  0  0
  9  4  1  0  0  0  0
  9 41  1  0  0  0  0
 10  5  2  0  0  0  0
 10 42  1  0  0  0  0
 11  6  1  0  0  0  0
 11 43  1  0  0  0  0
 11 44  1  0  0  0  0
 12  7  1  0  0  0  0
 12 45  1  0  0  0  0
 13  8  2  0  0  0  0
 13 46  1  0  0  0  0
 14 47  1  0  0  0  0
 14 48  1  0  0  0  0
 15  4  2  0  0  0  0
 15  5  1  0  0  0  0
 15  6  1  0  0  0  0
 16  7  2  0  0  0  0
 16  8  1  0  0  0  0
 17  9  2  0  0  0  0
 17 10  1  0  0  0  0
 18 11  1  0  0  0  0
 18 14  1  0  0  0  0
 18 49  1  0  0  0  0
 19 12  2  0  0  0  0
 19 13  1  0  0  0  0
 20 16  1  0  0  0  0
 21  1  1  0  0  0  0
 21  2  1  0  0  0  0
 21  3  1  0  0  0  0
 21 17  1  0  0  0  0
 22 18  1  0  0  0  0
 22 50  1  0  0  0  0
 23 20  1  0  0  0  0
 23 51  1  0  0  0  0
 24 20  2  0  0  0  0
 25 14  1  0  0  0  0
 25 19  1  0  0  0  0
M  END
>  <DRUGBANK_ID>
DB12448

>  <COMMON_NAME>
Lifibrol

>  <CAS_NUMBER>
96609-16-4

>  <UNII>
6KWX9X0Q5K

>  <SYNONYMS>
Lifibrol

$$$$
