FXG
 OpenBabel10282417072D

 60 62  0  0  0  0  0  0  0  0999 V2000
   -0.3875   -1.8183    0.0000 O   0  0  0  0  0  0  0  0  0  0  0  0
   -0.3875   -0.9933    0.0000 C   0  0  0  0  0  0  0  0  0  0  0  0
   -1.1020   -0.5808    0.0000 C   0  0  0  0  0  0  0  0  0  0  0  0
   -1.8165   -0.9933    0.0000 C   0  0  0  0  0  0  0  0  0  0  0  0
   -2.5309   -0.5808    0.0000 C   0  0  0  0  0  0  0  0  0  0  0  0
   -3.2454   -0.9933    0.0000 C   0  0  0  0  0  0  0  0  0  0  0  0
   -3.9599   -0.5808    0.0000 C   0  0  0  0  0  0  0  0  0  0  0  0
   -4.6744   -0.9933    0.0000 N   0  0  0  0  0  0  0  0  0  0  0  0
   -5.3888   -0.5808    0.0000 C   0  0  0  0  0  0  0  0  0  0  0  0
   -5.3888    0.2442    0.0000 C   0  0  0  0  0  0  0  0  0  0  0  0
   -6.1033    0.6567    0.0000 C   0  0  0  0  0  0  0  0  0  0  0  0
   -5.9318    1.4637    0.0000 N   0  0  0  0  0  0  0  0  0  0  0  0
   -5.1113    1.5499    0.0000 C   0  0  0  0  0  0  0  0  0  0  0  0
   -4.7757    0.7962    0.0000 N   0  0  0  0  0  0  0  0  0  0  0  0
   -6.8178    0.2442    0.0000 N   0  0  0  0  0  0  0  0  0  0  0  0
   -6.8178   -0.5808    0.0000 C   0  0  0  0  0  0  0  0  0  0  0  0
   -6.1033   -0.9933    0.0000 N   0  0  0  0  0  0  0  0  0  0  0  0
    0.3269   -0.5808    0.0000 N   0  0  0  0  0  0  0  0  0  0  0  0
    1.0414   -0.9933    0.0000 C   0  0  0  0  0  0  0  0  0  0  0  0
    1.0414   -1.8183    0.0000 C   0  0  0  0  0  0  0  0  0  0  0  0
    1.7559   -2.2308    0.0000 C   0  0  0  0  0  0  0  0  0  0  0  0
    2.4704   -1.8183    0.0000 C   0  0  0  0  0  0  0  0  0  0  0  0
    2.4704   -0.9933    0.0000 C   0  0  0  0  0  0  0  0  0  0  0  0
    1.7559   -0.5808    0.0000 C   0  0  0  0  0  0  0  0  0  0  0  0
    3.1848   -0.5808    0.0000 C   0  0  0  0  0  0  0  0  0  0  0  0
    3.8993   -0.9933    0.0000 O   0  0  0  0  0  0  0  0  0  0  0  0
    3.1848    0.2442    0.0000 N   0  0  0  0  0  0  0  0  0  0  0  0
    3.8993    0.6567    0.0000 C   0  0  0  0  0  0  0  0  0  0  0  0
    3.8993    1.4817    0.0000 C   0  0  0  0  0  0  0  0  0  0  0  0
    4.6138    1.8942    0.0000 C   0  0  0  0  0  0  0  0  0  0  0  0
    4.6138    2.7192    0.0000 C   0  0  0  0  0  0  0  0  0  0  0  0
   -1.1020    0.4892    0.0000 H   0  0  0  0  0  0  0  0  0  0  0  0
   -2.0286   -0.0458    0.0000 H   0  0  0  0  0  0  0  0  0  0  0  0
   -1.8165   -2.0633    0.0000 H   0  0  0  0  0  0  0  0  0  0  0  0
   -2.7432   -1.5283    0.0000 H   0  0  0  0  0  0  0  0  0  0  0  0
   -2.5309    0.4892    0.0000 H   0  0  0  0  0  0  0  0  0  0  0  0
   -3.4575   -0.0458    0.0000 H   0  0  0  0  0  0  0  0  0  0  0  0
   -3.2454   -2.0633    0.0000 H   0  0  0  0  0  0  0  0  0  0  0  0
   -4.1720   -1.5283    0.0000 H   0  0  0  0  0  0  0  0  0  0  0  0
   -3.9599    0.4892    0.0000 H   0  0  0  0  0  0  0  0  0  0  0  0
   -4.8865   -0.0458    0.0000 H   0  0  0  0  0  0  0  0  0  0  0  0
   -4.6744   -1.9778    0.0000 H   0  0  0  0  0  0  0  0  0  0  0  0
   -6.5906    2.1953    0.0000 H   0  0  0  0  0  0  0  0  0  0  0  0
   -4.5953    2.4436    0.0000 H   0  0  0  0  0  0  0  0  0  0  0  0
   -7.7115   -1.0968    0.0000 H   0  0  0  0  0  0  0  0  0  0  0  0
    0.3269    0.4037    0.0000 H   0  0  0  0  0  0  0  0  0  0  0  0
    0.1477   -2.3343    0.0000 H   0  0  0  0  0  0  0  0  0  0  0  0
    1.7559   -3.2628    0.0000 H   0  0  0  0  0  0  0  0  0  0  0  0
    3.3641   -2.3343    0.0000 H   0  0  0  0  0  0  0  0  0  0  0  0
    1.7559    0.4512    0.0000 H   0  0  0  0  0  0  0  0  0  0  0  0
    2.3322    0.7365    0.0000 H   0  0  0  0  0  0  0  0  0  0  0  0
    4.8259    0.1217    0.0000 H   0  0  0  0  0  0  0  0  0  0  0  0
    4.8259    1.1917    0.0000 H   0  0  0  0  0  0  0  0  0  0  0  0
    2.9727    2.0167    0.0000 H   0  0  0  0  0  0  0  0  0  0  0  0
    3.8993    2.5517    0.0000 H   0  0  0  0  0  0  0  0  0  0  0  0
    5.5404    1.3592    0.0000 H   0  0  0  0  0  0  0  0  0  0  0  0
    5.5404    2.4292    0.0000 H   0  0  0  0  0  0  0  0  0  0  0  0
    5.5404    3.2542    0.0000 H   0  0  0  0  0  0  0  0  0  0  0  0
    3.6872    3.2542    0.0000 H   0  0  0  0  0  0  0  0  0  0  0  0
    4.6138    3.7892    0.0000 H   0  0  0  0  0  0  0  0  0  0  0  0
  2  1  2  0  0  0  0
  2  3  1  0  0  0  0
  3  4  1  0  0  0  0
  3 32  1  0  0  0  0
  3 33  1  0  0  0  0
  4 34  1  0  0  0  0
  4 35  1  0  0  0  0
  5  4  1  0  0  0  0
  5 36  1  0  0  0  0
  5 37  1  0  0  0  0
  6  5  1  0  0  0  0
  6 38  1  0  0  0  0
  6 39  1  0  0  0  0
  7  6  1  0  0  0  0
  7 40  1  0  0  0  0
  7 41  1  0  0  0  0
  8  7  1  0  0  0  0
  8 42  1  0  0  0  0
  9  8  1  0  0  0  0
  9 17  1  0  0  0  0
 10  9  2  0  0  0  0
 11 10  1  0  0  0  0
 11 15  2  0  0  0  0
 12 11  1  0  0  0  0
 12 13  1  0  0  0  0
 12 43  1  0  0  0  0
 13 14  2  0  0  0  0
 13 44  1  0  0  0  0
 14 10  1  0  0  0  0
 15 16  1  0  0  0  0
 16 17  2  0  0  0  0
 16 45  1  0  0  0  0
 18  2  1  0  0  0  0
 18 46  1  0  0  0  0
 19 18  1  0  0  0  0
 20 19  1  0  0  0  0
 20 47  1  0  0  0  0
 21 20  2  0  0  0  0
 21 48  1  0  0  0  0
 22 21  1  0  0  0  0
 22 23  2  0  0  0  0
 22 49  1  0  0  0  0
 23 24  1  0  0  0  0
 24 19  2  0  0  0  0
 24 50  1  0  0  0  0
 25 23  1  0  0  0  0
 25 26  2  0  0  0  0
 27 25  1  0  0  0  0
 27 51  1  0  0  0  0
 28 27  1  0  0  0  0
 28 52  1  0  0  0  0
 28 53  1  0  0  0  0
 29 28  1  0  0  0  0
 29 30  1  0  0  0  0
 29 54  1  0  0  0  0
 29 55  1  0  0  0  0
 30 56  1  0  0  0  0
 30 57  1  0  0  0  0
 31 30  1  0  0  0  0
 31 58  1  0  0  0  0
 31 59  1  0  0  0  0
 31 60  1  0  0  0  0
M  END
>  <DRUGBANK_ID>
DB07801

>  <COMMON_NAME>
N-butyl-3-{[6-(9H-purin-6-ylamino)hexanoyl]amino}benzamide

$$$$
