458
 OpenBabel10282417072D

 39 41  0  0  0  0  0  0  0  0999 V2000
    0.8242    0.6900    0.0000 C   0  0  0  0  0  0  0  0  0  0  0  0
    0.2744    0.2540    0.0000 C   0  0  1  0  0  0  0  0  0  0  0  0
   -0.4796    0.0883    0.0000 C   0  0  0  0  0  0  0  0  0  0  0  0
   -0.4191    1.0570    0.0000 C   0  0  0  0  0  0  0  0  0  0  0  0
   -0.7715   -0.5486    0.0000 C   0  0  0  0  0  0  0  0  0  0  0  0
   -0.2670   -0.1243    0.0000 C   0  0  0  0  0  0  0  0  0  0  0  0
    0.6930   -0.1136    0.0000 C   0  0  1  0  0  0  0  0  0  0  0  0
    1.5830    0.2141    0.0000 C   0  0  0  0  0  0  0  0  0  0  0  0
    2.4189    0.2540    0.0000 O   0  0  0  0  0  0  0  0  0  0  0  0
    0.7400   -1.1005    0.0000 C   0  0  0  0  0  0  0  0  0  0  0  0
   -0.0763   -1.2800    0.0000 O   0  0  0  0  0  0  0  0  0  0  0  0
    0.3358   -0.6991    0.0000 C   0  0  2  0  0  0  0  0  0  0  0  0
   -0.4579   -0.4740    0.0000 C   0  0  0  0  0  0  0  0  0  0  0  0
   -1.0497   -1.0488    0.0000 C   0  0  0  0  0  0  0  0  0  0  0  0
   -1.8434   -0.8237    0.0000 C   0  0  0  0  0  0  0  0  0  0  0  0
   -2.0453   -0.0238    0.0000 C   0  0  0  0  0  0  0  0  0  0  0  0
   -2.8390    0.2013    0.0000 O   0  0  0  0  0  0  0  0  0  0  0  0
   -1.4535    0.5510    0.0000 C   0  0  0  0  0  0  0  0  0  0  0  0
   -0.6598    0.3259    0.0000 C   0  0  0  0  0  0  0  0  0  0  0  0
    0.4447    0.8126    0.0000 H   0  0  0  0  0  0  0  0  0  0  0  0
   -0.1644   -0.3977    0.0000 H   0  0  0  0  0  0  0  0  0  0  0  0
    1.3661    1.6126    0.0000 H   0  0  0  0  0  0  0  0  0  0  0  0
    1.8306    0.3267    0.0000 H   0  0  0  0  0  0  0  0  0  0  0  0
    0.5391    1.5332    0.0000 H   0  0  0  0  0  0  0  0  0  0  0  0
   -1.3106    1.6487    0.0000 H   0  0  0  0  0  0  0  0  0  0  0  0
   -0.3524    2.1249    0.0000 H   0  0  0  0  0  0  0  0  0  0  0  0
   -1.3966   -1.3698    0.0000 H   0  0  0  0  0  0  0  0  0  0  0  0
   -0.6391    0.8789    0.0000 H   0  0  0  0  0  0  0  0  0  0  0  0
    0.3391    0.7575    0.0000 H   0  0  0  0  0  0  0  0  0  0  0  0
    1.3702    1.2627    0.0000 H   0  0  0  0  0  0  0  0  0  0  0  0
    2.2402    1.0585    0.0000 H   0  0  0  0  0  0  0  0  0  0  0  0
    2.9434   -0.5620    0.0000 H   0  0  0  0  0  0  0  0  0  0  0  0
    1.5896   -1.7509    0.0000 H   0  0  0  0  0  0  0  0  0  0  0  0
    0.5081   -2.1451    0.0000 H   0  0  0  0  0  0  0  0  0  0  0  0
   -0.7971   -2.0494    0.0000 H   0  0  0  0  0  0  0  0  0  0  0  0
   -2.5837   -1.5427    0.0000 H   0  0  0  0  0  0  0  0  0  0  0  0
   -3.0683    1.1098    0.0000 H   0  0  0  0  0  0  0  0  0  0  0  0
   -1.7061    1.5516    0.0000 H   0  0  0  0  0  0  0  0  0  0  0  0
    0.0805    1.0449    0.0000 H   0  0  0  0  0  0  0  0  0  0  0  0
  1  2  1  0  0  0  0
  1  7  1  0  0  0  0
  1 22  1  0  0  0  0
  1 23  1  0  0  0  0
  2  3  1  0  0  0  0
  2 12  1  0  0  0  0
  2 20  1  1  0  0  0
  3  4  1  0  0  0  0
  3  5  2  0  0  0  0
  4 24  1  0  0  0  0
  4 25  1  0  0  0  0
  4 26  1  0  0  0  0
  5  6  1  0  0  0  0
  5 27  1  0  0  0  0
  6  7  1  0  0  0  0
  6 28  1  0  0  0  0
  6 29  1  0  0  0  0
  7  8  1  6  0  0  0
  7 10  1  0  0  0  0
  8  9  1  0  0  0  0
  8 30  1  0  0  0  0
  8 31  1  0  0  0  0
  9 32  1  0  0  0  0
 10 11  1  0  0  0  0
 10 33  1  0  0  0  0
 10 34  1  0  0  0  0
 11 12  1  0  0  0  0
 12 13  1  0  0  0  0
 12 21  1  1  0  0  0
 13 14  1  0  0  0  0
 13 19  2  0  0  0  0
 14 15  2  0  0  0  0
 14 35  1  0  0  0  0
 15 16  1  0  0  0  0
 15 36  1  0  0  0  0
 16 17  1  0  0  0  0
 16 18  2  0  0  0  0
 17 37  1  0  0  0  0
 18 19  1  0  0  0  0
 18 38  1  0  0  0  0
 19 39  1  0  0  0  0
M  END
>  <DRUGBANK_ID>
DB07086

>  <COMMON_NAME>
4-[(1S,2S,5S)-5-(HYDROXYMETHYL)-8-METHYL-3-OXABICYCLO[3.3.1]NON-7-EN-2-YL]PHENOL

$$$$
