
 OpenBabel10282417072D

 83 88  0  0  0  0  0  0  0  0999 V2000
   -6.1606    1.2204    0.0000 C   0  0  0  0  0  0  0  0  0  0  0  0
   -6.1618    0.3929    0.0000 C   0  0  0  0  0  0  0  0  0  0  0  0
   -5.4469   -0.0198    0.0000 C   0  0  0  0  0  0  0  0  0  0  0  0
   -4.7304    0.3933    0.0000 C   0  0  0  0  0  0  0  0  0  0  0  0
   -4.7333    1.2240    0.0000 C   0  0  0  0  0  0  0  0  0  0  0  0
   -5.4487    1.6331    0.0000 C   0  0  0  0  0  0  0  0  0  0  0  0
   -5.4453   -0.8427    0.0000 C   0  0  0  0  0  0  0  0  0  0  0  0
   -6.1615   -1.2544    0.0000 C   0  0  0  0  0  0  0  0  0  0  0  0
   -6.1620   -2.0788    0.0000 C   0  0  0  0  0  0  0  0  0  0  0  0
   -5.4471   -2.4923    0.0000 C   0  0  0  0  0  0  0  0  0  0  0  0
   -4.7301   -2.0755    0.0000 C   0  0  0  0  0  0  0  0  0  0  0  0
   -4.7330   -1.2526    0.0000 C   0  0  0  0  0  0  0  0  0  0  0  0
   -5.4550    2.4621    0.0000 C   0  0  0  0  0  0  0  0  0  0  0  0
   -5.4592    3.2871    0.0000 F   0  0  0  0  0  0  0  0  0  0  0  0
   -6.2800    2.4569    0.0000 F   0  0  0  0  0  0  0  0  0  0  0  0
   -4.6300    2.4711    0.0000 F   0  0  0  0  0  0  0  0  0  0  0  0
   -4.0196   -0.8382    0.0000 C   0  0  0  0  0  0  0  0  0  0  0  0
   -3.3040   -1.2491    0.0000 N   0  0  0  0  0  0  0  0  0  0  0  0
   -4.0217   -0.0132    0.0000 O   0  0  0  0  0  0  0  0  0  0  0  0
   -2.5906   -0.8347    0.0000 C   0  0  0  0  0  0  0  0  0  0  0  0
   -1.8771   -1.2495    0.0000 C   0  0  0  0  0  0  0  0  0  0  0  0
   -1.8863    0.4006    0.0000 C   0  0  0  0  0  0  0  0  0  0  0  0
   -2.5963   -0.0154    0.0000 C   0  0  0  0  0  0  0  0  0  0  0  0
   -1.1656   -0.0100    0.0000 C   0  0  0  0  0  0  0  0  0  0  0  0
   -1.1665   -0.8323    0.0000 C   0  0  0  0  0  0  0  0  0  0  0  0
   -0.3847   -1.0873    0.0000 C   0  0  0  0  0  0  0  0  0  0  0  0
    0.0994   -0.4223    0.0000 C   0  0  0  0  0  0  0  0  0  0  0  0
   -0.3834    0.2432    0.0000 N   0  0  0  0  0  0  0  0  0  0  0  0
    0.9244   -0.4231    0.0000 C   0  0  0  0  0  0  0  0  0  0  0  0
    1.3363   -1.1381    0.0000 N   0  0  0  0  0  0  0  0  0  0  0  0
    1.3377    0.2909    0.0000 O   0  0  0  0  0  0  0  0  0  0  0  0
    2.1613   -1.1388    0.0000 C   0  0  2  0  0  0  0  0  0  0  0  0
    2.5731   -1.8537    0.0000 C   0  0  0  0  0  0  0  0  0  0  0  0
    2.5746   -0.4247    0.0000 C   0  0  0  0  0  0  0  0  0  0  0  0
    3.3973   -0.4284    0.0000 C   0  0  0  0  0  0  0  0  0  0  0  0
    3.8104    0.2849    0.0000 C   0  0  0  0  0  0  0  0  0  0  0  0
    3.3985    1.0007    0.0000 C   0  0  0  0  0  0  0  0  0  0  0  0
    2.5691    0.9989    0.0000 C   0  0  0  0  0  0  0  0  0  0  0  0
    2.1598    0.2850    0.0000 C   0  0  0  0  0  0  0  0  0  0  0  0
    2.1599   -2.5679    0.0000 O   0  0  0  0  0  0  0  0  0  0  0  0
    3.3982   -1.8545    0.0000 N   0  0  0  0  0  0  0  0  0  0  0  0
    3.8100   -2.5695    0.0000 C   0  0  0  0  0  0  0  0  0  0  0  0
    3.8114   -1.1404    0.0000 C   0  0  0  0  0  0  0  0  0  0  0  0
    4.6350   -2.5703    0.0000 C   0  0  0  0  0  0  0  0  0  0  0  0
   -0.1276    1.0277    0.0000 C   0  0  0  0  0  0  0  0  0  0  0  0
    5.0418   -3.2860    0.0000 C   0  0  0  0  0  0  0  0  0  0  0  0
    5.8661   -3.2871    0.0000 C   0  0  0  0  0  0  0  0  0  0  0  0
    6.2800   -2.5725    0.0000 C   0  0  0  0  0  0  0  0  0  0  0  0
    5.8638   -1.8551    0.0000 C   0  0  0  0  0  0  0  0  0  0  0  0
    5.0408   -1.8575    0.0000 C   0  0  0  0  0  0  0  0  0  0  0  0
   -7.0544    1.7363    0.0000 H   0  0  0  0  0  0  0  0  0  0  0  0
   -7.0559   -0.1225    0.0000 H   0  0  0  0  0  0  0  0  0  0  0  0
   -3.8359   -0.1214    0.0000 H   0  0  0  0  0  0  0  0  0  0  0  0
   -3.8415    1.7434    0.0000 H   0  0  0  0  0  0  0  0  0  0  0  0
   -7.0546   -0.7373    0.0000 H   0  0  0  0  0  0  0  0  0  0  0  0
   -7.0561   -2.5942    0.0000 H   0  0  0  0  0  0  0  0  0  0  0  0
   -5.4460   -3.5243    0.0000 H   0  0  0  0  0  0  0  0  0  0  0  0
   -3.8347   -2.5886    0.0000 H   0  0  0  0  0  0  0  0  0  0  0  0
   -3.3015   -2.2336    0.0000 H   0  0  0  0  0  0  0  0  0  0  0  0
   -1.8749   -2.2815    0.0000 H   0  0  0  0  0  0  0  0  0  0  0  0
   -1.8926    1.4326    0.0000 H   0  0  0  0  0  0  0  0  0  0  0  0
   -3.4935    0.4946    0.0000 H   0  0  0  0  0  0  0  0  0  0  0  0
   -0.0668   -2.0691    0.0000 H   0  0  0  0  0  0  0  0  0  0  0  0
    0.8433   -1.9903    0.0000 H   0  0  0  0  0  0  0  0  0  0  0  0
    1.6272   -0.2116    0.0000 H   0  0  0  0  0  0  0  0  0  0  0  0
    3.9107   -1.3236    0.0000 H   0  0  0  0  0  0  0  0  0  0  0  0
    4.8424    0.2835    0.0000 H   0  0  0  0  0  0  0  0  0  0  0  0
    3.9142    1.8946    0.0000 H   0  0  0  0  0  0  0  0  0  0  0  0
    2.0508    1.8913    0.0000 H   0  0  0  0  0  0  0  0  0  0  0  0
    1.1278    0.2807    0.0000 H   0  0  0  0  0  0  0  0  0  0  0  0
    3.2741   -3.4956    0.0000 H   0  0  0  0  0  0  0  0  0  0  0  0
    4.3441   -3.4967    0.0000 H   0  0  0  0  0  0  0  0  0  0  0  0
    4.8814   -1.1414    0.0000 H   0  0  0  0  0  0  0  0  0  0  0  0
    3.2773   -0.2132    0.0000 H   0  0  0  0  0  0  0  0  0  0  0  0
    4.3473   -0.2143    0.0000 H   0  0  0  0  0  0  0  0  0  0  0  0
    0.9192    1.2491    0.0000 H   0  0  0  0  0  0  0  0  0  0  0  0
   -0.8427    1.8236    0.0000 H   0  0  0  0  0  0  0  0  0  0  0  0
    0.2041    2.0450    0.0000 H   0  0  0  0  0  0  0  0  0  0  0  0
    4.5222   -4.1776    0.0000 H   0  0  0  0  0  0  0  0  0  0  0  0
    6.3809   -4.1815    0.0000 H   0  0  0  0  0  0  0  0  0  0  0  0
    7.3120   -2.5721    0.0000 H   0  0  0  0  0  0  0  0  0  0  0  0
    6.3776   -0.9601    0.0000 H   0  0  0  0  0  0  0  0  0  0  0  0
    4.5208   -0.9661    0.0000 H   0  0  0  0  0  0  0  0  0  0  0  0
  1  2  2  0  0  0  0
  1 51  1  0  0  0  0
  2  3  1  0  0  0  0
  2 52  1  0  0  0  0
  3  7  1  0  0  0  0
  3  4  2  0  0  0  0
  4  5  1  0  0  0  0
  4 53  1  0  0  0  0
  5  6  2  0  0  0  0
  5 54  1  0  0  0  0
  6  1  1  0  0  0  0
  6 13  1  0  0  0  0
  7  8  2  0  0  0  0
  8  9  1  0  0  0  0
  8 55  1  0  0  0  0
  9 10  2  0  0  0  0
  9 56  1  0  0  0  0
 10 11  1  0  0  0  0
 10 57  1  0  0  0  0
 11 12  2  0  0  0  0
 11 58  1  0  0  0  0
 12  7  1  0  0  0  0
 12 17  1  0  0  0  0
 13 14  1  0  0  0  0
 13 15  1  0  0  0  0
 13 16  1  0  0  0  0
 17 18  1  0  0  0  0
 17 19  2  0  0  0  0
 18 20  1  0  0  0  0
 18 59  1  0  0  0  0
 20 21  2  0  0  0  0
 21 25  1  0  0  0  0
 21 60  1  0  0  0  0
 22 23  2  0  0  0  0
 22 61  1  0  0  0  0
 23 20  1  0  0  0  0
 23 62  1  0  0  0  0
 24 25  2  0  0  0  0
 24 22  1  0  0  0  0
 25 26  1  0  0  0  0
 26 27  2  0  0  0  0
 26 63  1  0  0  0  0
 27 28  1  0  0  0  0
 27 29  1  0  0  0  0
 28 24  1  0  0  0  0
 28 45  1  0  0  0  0
 29 30  1  0  0  0  0
 29 31  2  0  0  0  0
 30 32  1  0  0  0  0
 30 64  1  0  0  0  0
 32 33  1  0  0  0  0
 32 34  1  0  0  0  0
 32 65  1  6  0  0  0
 33 40  2  0  0  0  0
 33 41  1  0  0  0  0
 34 35  2  0  0  0  0
 35 36  1  0  0  0  0
 35 66  1  0  0  0  0
 36 37  2  0  0  0  0
 36 67  1  0  0  0  0
 37 38  1  0  0  0  0
 37 68  1  0  0  0  0
 38 39  2  0  0  0  0
 38 69  1  0  0  0  0
 39 34  1  0  0  0  0
 39 70  1  0  0  0  0
 41 42  1  0  0  0  0
 41 43  1  0  0  0  0
 42 44  1  0  0  0  0
 42 71  1  0  0  0  0
 42 72  1  0  0  0  0
 43 73  1  0  0  0  0
 43 74  1  0  0  0  0
 43 75  1  0  0  0  0
 44 46  2  0  0  0  0
 45 76  1  0  0  0  0
 45 77  1  0  0  0  0
 45 78  1  0  0  0  0
 46 47  1  0  0  0  0
 46 79  1  0  0  0  0
 47 48  2  0  0  0  0
 47 80  1  0  0  0  0
 48 49  1  0  0  0  0
 48 81  1  0  0  0  0
 49 50  2  0  0  0  0
 49 82  1  0  0  0  0
 50 44  1  0  0  0  0
 50 83  1  0  0  0  0
M  END
>  <DRUGBANK_ID>
DB11399

>  <COMMON_NAME>
Dirlotapide

>  <CAS_NUMBER>
481658-94-0

>  <UNII>
578H0RMP25

>  <SYNONYMS>
Dirlotapide

$$$$
