
 OpenBabel10282417072D

 59 63  0  0  1  0  0  0  0  0999 V2000
    3.2789    2.0625    0.0000 N   0  0  0  0  0  0  0  0  0  0  0  0
    3.2789    1.2375    0.0000 C   0  0  0  0  0  0  0  0  0  0  0  0
    3.9934    0.8250    0.0000 N   0  0  0  0  0  0  0  0  0  0  0  0
    3.9934    0.0000    0.0000 C   0  0  0  0  0  0  0  0  0  0  0  0
    3.2789   -0.4125    0.0000 C   0  0  0  0  0  0  0  0  0  0  0  0
    2.5645    0.0000    0.0000 C   0  0  0  0  0  0  0  0  0  0  0  0
    1.7798   -0.2549    0.0000 N   0  0  0  0  0  0  0  0  0  0  0  0
    1.5249   -1.0396    0.0000 C   0  0  2  0  0  0  0  0  0  0  0  0
    2.0769   -1.6527    0.0000 C   0  0  0  0  0  0  0  0  0  0  0  0
    1.8220   -2.4373    0.0000 C   0  0  0  0  0  0  0  0  0  0  0  0
    1.0150   -2.6088    0.0000 C   0  0  0  0  0  0  0  0  0  0  0  0
    0.4630   -1.9957    0.0000 N   0  0  0  0  0  0  0  0  0  0  0  0
    0.7179   -1.2111    0.0000 C   0  0  0  0  0  0  0  0  0  0  0  0
   -0.3440   -2.1672    0.0000 C   0  0  0  0  0  0  0  0  0  0  0  0
   -0.8960   -1.5541    0.0000 O   0  0  0  0  0  0  0  0  0  0  0  0
   -0.5989   -2.9519    0.0000 C   0  0  0  0  0  0  0  0  0  0  0  0
   -1.4059   -3.1234    0.0000 C   0  0  0  0  0  0  0  0  0  0  0  0
    1.2949    0.4125    0.0000 C   0  0  0  0  0  0  0  0  0  0  0  0
    0.4699    0.4125    0.0000 O   0  0  0  0  0  0  0  0  0  0  0  0
    1.7798    1.0799    0.0000 N   0  0  0  0  0  0  0  0  0  0  0  0
    1.5249    1.8646    0.0000 C   0  0  0  0  0  0  0  0  0  0  0  0
    0.7179    2.0361    0.0000 C   0  0  0  0  0  0  0  0  0  0  0  0
    0.4630    2.8207    0.0000 C   0  0  0  0  0  0  0  0  0  0  0  0
    1.0150    3.4338    0.0000 C   0  0  0  0  0  0  0  0  0  0  0  0
    0.7601    4.2184    0.0000 O   0  0  0  0  0  0  0  0  0  0  0  0
    1.3121    4.8315    0.0000 C   0  0  0  0  0  0  0  0  0  0  0  0
    1.0572    5.6161    0.0000 C   0  0  0  0  0  0  0  0  0  0  0  0
    1.6092    6.2292    0.0000 C   0  0  0  0  0  0  0  0  0  0  0  0
    2.4162    6.0577    0.0000 C   0  0  0  0  0  0  0  0  0  0  0  0
    2.6711    5.2731    0.0000 C   0  0  0  0  0  0  0  0  0  0  0  0
    2.1191    4.6600    0.0000 C   0  0  0  0  0  0  0  0  0  0  0  0
    1.8220    3.2623    0.0000 C   0  0  0  0  0  0  0  0  0  0  0  0
    2.0769    2.4777    0.0000 C   0  0  0  0  0  0  0  0  0  0  0  0
    2.5645    0.8250    0.0000 C   0  0  0  0  0  0  0  0  0  0  0  0
    4.1315    2.5548    0.0000 H   0  0  0  0  0  0  0  0  0  0  0  0
    2.4263    2.5548    0.0000 H   0  0  0  0  0  0  0  0  0  0  0  0
    4.8871   -0.5160    0.0000 H   0  0  0  0  0  0  0  0  0  0  0  0
    3.2789   -1.4445    0.0000 H   0  0  0  0  0  0  0  0  0  0  0  0
    2.5715   -0.8171    0.0000 H   0  0  0  0  0  0  0  0  0  0  0  0
    3.1235   -1.4302    0.0000 H   0  0  0  0  0  0  0  0  0  0  0  0
    2.7929   -2.4479    0.0000 H   0  0  0  0  0  0  0  0  0  0  0  0
    2.5380   -3.2325    0.0000 H   0  0  0  0  0  0  0  0  0  0  0  0
    1.4913   -3.4549    0.0000 H   0  0  0  0  0  0  0  0  0  0  0  0
    0.6843   -3.6264    0.0000 H   0  0  0  0  0  0  0  0  0  0  0  0
   -0.0316   -2.8312    0.0000 H   0  0  0  0  0  0  0  0  0  0  0  0
    0.0019   -0.4159    0.0000 H   0  0  0  0  0  0  0  0  0  0  0  0
    1.0486   -0.1935    0.0000 H   0  0  0  0  0  0  0  0  0  0  0  0
    0.0917   -3.7188    0.0000 H   0  0  0  0  0  0  0  0  0  0  0  0
   -2.0964   -2.3564    0.0000 H   0  0  0  0  0  0  0  0  0  0  0  0
   -1.7248   -4.1049    0.0000 H   0  0  0  0  0  0  0  0  0  0  0  0
    0.0274    1.2692    0.0000 H   0  0  0  0  0  0  0  0  0  0  0  0
   -0.5464    3.0353    0.0000 H   0  0  0  0  0  0  0  0  0  0  0  0
    0.0478    5.8307    0.0000 H   0  0  0  0  0  0  0  0  0  0  0  0
    1.2903    7.2107    0.0000 H   0  0  0  0  0  0  0  0  0  0  0  0
    3.1067    6.8246    0.0000 H   0  0  0  0  0  0  0  0  0  0  0  0
    3.6805    5.0585    0.0000 H   0  0  0  0  0  0  0  0  0  0  0  0
    2.4380    3.6785    0.0000 H   0  0  0  0  0  0  0  0  0  0  0  0
    2.5125    4.0292    0.0000 H   0  0  0  0  0  0  0  0  0  0  0  0
    3.0863    2.2631    0.0000 H   0  0  0  0  0  0  0  0  0  0  0  0
  1  2  1  0  0  0  0
  1 35  1  0  0  0  0
  1 36  1  0  0  0  0
  2  3  1  0  0  0  0
  2 34  2  0  0  0  0
  3  4  2  0  0  0  0
  4  5  1  0  0  0  0
  4 37  1  0  0  0  0
  5  6  2  0  0  0  0
  5 38  1  0  0  0  0
  6  7  1  0  0  0  0
  6 34  1  0  0  0  0
  7 18  1  0  0  0  0
  8  7  1  0  0  0  0
  8  9  1  0  0  0  0
  8 13  1  0  0  0  0
  8 39  1  1  0  0  0
  9 10  1  0  0  0  0
  9 40  1  0  0  0  0
  9 41  1  0  0  0  0
 10 11  1  0  0  0  0
 10 42  1  0  0  0  0
 10 43  1  0  0  0  0
 11 12  1  0  0  0  0
 11 44  1  0  0  0  0
 11 45  1  0  0  0  0
 12 13  1  0  0  0  0
 12 14  1  0  0  0  0
 13 46  1  0  0  0  0
 13 47  1  0  0  0  0
 14 15  2  0  0  0  0
 14 16  1  0  0  0  0
 16 17  2  0  0  0  0
 16 48  1  0  0  0  0
 17 49  1  0  0  0  0
 17 50  1  0  0  0  0
 18 19  2  0  0  0  0
 18 20  1  0  0  0  0
 20 21  1  0  0  0  0
 20 34  1  0  0  0  0
 21 22  2  0  0  0  0
 21 33  1  0  0  0  0
 22 23  1  0  0  0  0
 22 51  1  0  0  0  0
 23 24  2  0  0  0  0
 23 52  1  0  0  0  0
 24 25  1  0  0  0  0
 24 32  1  0  0  0  0
 25 26  1  0  0  0  0
 26 27  2  0  0  0  0
 26 31  1  0  0  0  0
 27 28  1  0  0  0  0
 27 53  1  0  0  0  0
 28 29  2  0  0  0  0
 28 54  1  0  0  0  0
 29 30  1  0  0  0  0
 29 55  1  0  0  0  0
 30 31  2  0  0  0  0
 30 56  1  0  0  0  0
 31 57  1  0  0  0  0
 32 33  2  0  0  0  0
 32 58  1  0  0  0  0
 33 59  1  0  0  0  0
M  END
>  <DRUGBANK_ID>
DB18715

>  <COMMON_NAME>
Tolebrutinib

>  <CAS_NUMBER>
1971920-73-6

>  <UNII>
8CZ82ZYY9X

>  <SYNONYMS>
2h-imidazo(4,5-c)pyridin-2-one, 4-amino-1,3-dihydro-1-((3r)-1-(1-oxo-2-propen-1-yl)-3-piperidinyl)-3-(4-phenoxyphenyl)-; 4-amino-1,3-dihydro-1-((3r)-1-(1-oxo-2-propen-1-yl)-3-piperidinyl)-3-(4-phenoxyphenyl)-2h-imidazo(4,5-c)pyridin-2-one

$$$$
