
 OpenBabel10282417072D

 61 62  0  0  1  0  0  0  0  0999 V2000
    3.0706   -3.2500    0.0000 C   0  0  0  0  0  0  0  0  0  0  0  0
    3.7850   -2.8375    0.0000 C   0  0  0  0  0  0  0  0  0  0  0  0
    4.4995   -3.2500    0.0000 N   0  0  0  0  0  0  0  0  0  0  0  0
    4.4995   -4.0750    0.0000 C   0  0  0  0  0  0  0  0  0  0  0  0
    3.7850   -4.4875    0.0000 C   0  0  0  0  0  0  0  0  0  0  0  0
    5.2140   -2.8375    0.0000 C   0  0  0  0  0  0  0  0  0  0  0  0
    5.9285   -3.2500    0.0000 C   0  0  3  0  0  0  0  0  0  0  0  0
    5.9285   -4.0750    0.0000 C   0  0  0  0  0  0  0  0  0  0  0  0
    6.6429   -2.8375    0.0000 O   0  0  0  0  0  0  0  0  0  0  0  0
    7.3574   -3.2500    0.0000 C   0  0  0  0  0  0  0  0  0  0  0  0
    7.3574   -4.0750    0.0000 O   0  0  0  0  0  0  0  0  0  0  0  0
    8.0719   -2.8375    0.0000 C   0  0  1  0  0  0  0  0  0  0  0  0
    8.0719   -2.0125    0.0000 C   0  0  0  0  0  0  0  0  0  0  0  0
    8.7863   -1.6000    0.0000 C   0  0  0  0  0  0  0  0  0  0  0  0
    9.5008   -2.0125    0.0000 C   0  0  0  0  0  0  0  0  0  0  0  0
    9.5008   -2.8375    0.0000 C   0  0  0  0  0  0  0  0  0  0  0  0
    8.7863   -3.2500    0.0000 C   0  0  2  0  0  0  0  0  0  0  0  0
    9.1737   -3.9785    0.0000 C   0  0  0  0  0  0  0  0  0  0  0  0
    9.9982   -4.0073    0.0000 C   0  0  0  0  0  0  0  0  0  0  0  0
   10.3855   -4.7357    0.0000 C   0  0  0  0  0  0  0  0  0  0  0  0
    9.9483   -5.4353    0.0000 C   0  0  0  0  0  0  0  0  0  0  0  0
    9.1238   -5.4065    0.0000 C   0  0  0  0  0  0  0  0  0  0  0  0
    8.7365   -4.6781    0.0000 C   0  0  0  0  0  0  0  0  0  0  0  0
    8.3990   -3.9785    0.0000 O   0  0  0  0  0  0  0  0  0  0  0  0
    2.1439   -2.7150    0.0000 H   0  0  0  0  0  0  0  0  0  0  0  0
    3.0706   -4.3200    0.0000 H   0  0  0  0  0  0  0  0  0  0  0  0
    2.1440   -3.7850    0.0000 H   0  0  0  0  0  0  0  0  0  0  0  0
    3.7850   -1.7675    0.0000 H   0  0  0  0  0  0  0  0  0  0  0  0
    4.7116   -2.3025    0.0000 H   0  0  0  0  0  0  0  0  0  0  0  0
    5.4261   -4.6100    0.0000 H   0  0  0  0  0  0  0  0  0  0  0  0
    4.4995   -5.1450    0.0000 H   0  0  0  0  0  0  0  0  0  0  0  0
    2.8584   -3.9525    0.0000 H   0  0  0  0  0  0  0  0  0  0  0  0
    3.7850   -5.5575    0.0000 H   0  0  0  0  0  0  0  0  0  0  0  0
    2.8583   -5.0225    0.0000 H   0  0  0  0  0  0  0  0  0  0  0  0
    5.2140   -1.7675    0.0000 H   0  0  0  0  0  0  0  0  0  0  0  0
    6.1406   -2.3025    0.0000 H   0  0  0  0  0  0  0  0  0  0  0  0
    5.0019   -3.7850    0.0000 H   0  0  0  0  0  0  0  0  0  0  0  0
    5.0019   -4.6100    0.0000 H   0  0  0  0  0  0  0  0  0  0  0  0
    6.8551   -4.6100    0.0000 H   0  0  0  0  0  0  0  0  0  0  0  0
    5.9285   -5.1450    0.0000 H   0  0  0  0  0  0  0  0  0  0  0  0
    7.1453   -2.3025    0.0000 H   0  0  0  0  0  0  0  0  0  0  0  0
    7.1452   -1.4775    0.0000 H   0  0  0  0  0  0  0  0  0  0  0  0
    8.0719   -0.9425    0.0000 H   0  0  0  0  0  0  0  0  0  0  0  0
    8.7863   -0.5300    0.0000 H   0  0  0  0  0  0  0  0  0  0  0  0
    9.7129   -1.0650    0.0000 H   0  0  0  0  0  0  0  0  0  0  0  0
   10.4274   -1.4775    0.0000 H   0  0  0  0  0  0  0  0  0  0  0  0
   10.4274   -2.5475    0.0000 H   0  0  0  0  0  0  0  0  0  0  0  0
   10.4274   -3.3725    0.0000 H   0  0  0  0  0  0  0  0  0  0  0  0
    9.5008   -3.9075    0.0000 H   0  0  0  0  0  0  0  0  0  0  0  0
    9.6760   -4.9233    0.0000 H   0  0  0  0  0  0  0  0  0  0  0  0
   10.5652   -3.0999    0.0000 H   0  0  0  0  0  0  0  0  0  0  0  0
   11.0675   -4.0446    0.0000 H   0  0  0  0  0  0  0  0  0  0  0  0
   11.4548   -4.7731    0.0000 H   0  0  0  0  0  0  0  0  0  0  0  0
   10.8878   -5.6805    0.0000 H   0  0  0  0  0  0  0  0  0  0  0  0
   10.4506   -6.3801    0.0000 H   0  0  0  0  0  0  0  0  0  0  0  0
    9.3813   -6.3427    0.0000 H   0  0  0  0  0  0  0  0  0  0  0  0
    8.5568   -6.3139    0.0000 H   0  0  0  0  0  0  0  0  0  0  0  0
    8.0545   -5.3692    0.0000 H   0  0  0  0  0  0  0  0  0  0  0  0
    7.6672   -4.6407    0.0000 H   0  0  0  0  0  0  0  0  0  0  0  0
    8.2342   -3.7333    0.0000 H   0  0  0  0  0  0  0  0  0  0  0  0
    7.4296   -4.0124    0.0000 H   0  0  0  0  0  0  0  0  0  0  0  0
  1  2  1  0  0  0  0
  1 25  1  0  0  0  0
  1 26  1  0  0  0  0
  1 27  1  0  0  0  0
  2  3  1  0  0  0  0
  2 28  1  0  0  0  0
  2 29  1  0  0  0  0
  3  4  1  0  0  0  0
  3  6  1  0  0  0  0
  4  5  1  0  0  0  0
  4 30  1  0  0  0  0
  4 31  1  0  0  0  0
  5 32  1  0  0  0  0
  5 33  1  0  0  0  0
  5 34  1  0  0  0  0
  6  7  1  0  0  0  0
  6 35  1  0  0  0  0
  6 36  1  0  0  0  0
  7  8  1  0  0  0  0
  7  9  1  0  0  0  0
  7 37  1  0  0  0  0
  8 38  1  0  0  0  0
  8 39  1  0  0  0  0
  8 40  1  0  0  0  0
  9 10  1  0  0  0  0
 10 11  2  0  0  0  0
 12 10  1  0  0  0  0
 12 13  1  0  0  0  0
 12 17  1  0  0  0  0
 12 41  1  6  0  0  0
 13 14  1  0  0  0  0
 13 42  1  0  0  0  0
 13 43  1  0  0  0  0
 14 15  1  0  0  0  0
 14 44  1  0  0  0  0
 14 45  1  0  0  0  0
 15 16  1  0  0  0  0
 15 46  1  0  0  0  0
 15 47  1  0  0  0  0
 16 17  1  0  0  0  0
 16 48  1  0  0  0  0
 16 49  1  0  0  0  0
 17 18  1  0  0  0  0
 17 24  1  1  0  0  0
 18 19  1  0  0  0  0
 18 23  1  0  0  0  0
 18 50  1  0  0  0  0
 19 20  1  0  0  0  0
 19 51  1  0  0  0  0
 19 52  1  0  0  0  0
 20 21  1  0  0  0  0
 20 53  1  0  0  0  0
 20 54  1  0  0  0  0
 21 22  1  0  0  0  0
 21 55  1  0  0  0  0
 21 56  1  0  0  0  0
 22 23  1  0  0  0  0
 22 57  1  0  0  0  0
 22 58  1  0  0  0  0
 23 59  1  0  0  0  0
 23 60  1  0  0  0  0
 24 61  1  0  0  0  0
M  END
>  <DRUGBANK_ID>
DB13581

>  <COMMON_NAME>
Rociverine

>  <CAS_NUMBER>
53716-44-2

>  <UNII>
VI08KS44V0

>  <SYNONYMS>
Rociverine

$$$$
