
 OpenBabel10282417072D

221225  0  0  1  0  0  0  0  0999 V2000
   -3.5724   -4.8716    0.0000 C   0  0  0  0  0  0  0  0  0  0  0  0
   -2.8581   -5.2842    0.0000 C   0  0  1  0  0  0  0  0  0  0  0  0
   -2.8581   -6.1092    0.0000 C   0  0  0  0  0  0  0  0  0  0  0  0
   -3.5725   -6.5217    0.0000 O   0  0  0  0  0  0  0  0  0  0  0  0
   -2.1436   -4.8717    0.0000 N   0  0  0  0  0  0  0  0  0  0  0  0
   -1.4291   -5.2844    0.0000 C   0  0  0  0  0  0  0  0  0  0  0  0
   -1.4291   -6.1094    0.0000 O   0  0  0  0  0  0  0  0  0  0  0  0
   -0.7146   -4.8718    0.0000 C   0  0  0  0  0  0  0  0  0  0  0  0
   -0.0002   -5.2845    0.0000 N   0  0  0  0  0  0  0  0  0  0  0  0
    0.7143   -4.8720    0.0000 C   0  0  0  0  0  0  0  0  0  0  0  0
    0.7143   -4.0471    0.0000 O   0  0  0  0  0  0  0  0  0  0  0  0
    1.4288   -5.2846    0.0000 C   0  0  2  0  0  0  0  0  0  0  0  0
    1.4288   -6.1096    0.0000 C   0  0  0  0  0  0  0  0  0  0  0  0
    0.7142   -6.5221    0.0000 C   0  0  0  0  0  0  0  0  0  0  0  0
    0.7142   -7.3472    0.0000 O   0  0  0  0  0  0  0  0  0  0  0  0
   -0.0002   -6.1096    0.0000 O   0  0  0  0  0  0  0  0  0  0  0  0
    2.1433   -4.8721    0.0000 N   0  0  0  0  0  0  0  0  0  0  0  0
    2.8577   -5.2847    0.0000 C   0  0  0  0  0  0  0  0  0  0  0  0
    2.8577   -6.1097    0.0000 O   0  0  0  0  0  0  0  0  0  0  0  0
    3.5722   -4.8722    0.0000 C   0  0  1  0  0  0  0  0  0  0  0  0
    4.2867   -5.2848    0.0000 C   0  0  0  0  0  0  0  0  0  0  0  0
    3.5722   -4.0474    0.0000 N   0  0  0  0  0  0  0  0  0  0  0  0
    4.2869   -3.6349    0.0000 C   0  0  0  0  0  0  0  0  0  0  0  0
    5.0014   -4.0475    0.0000 O   0  0  0  0  0  0  0  0  0  0  0  0
    4.2869   -2.8099    0.0000 C   0  0  2  0  0  0  0  0  0  0  0  0
    5.0014   -2.3974    0.0000 C   0  0  0  0  0  0  0  0  0  0  0  0
    5.7159   -2.8099    0.0000 C   0  0  0  0  0  0  0  0  0  0  0  0
    5.7159   -3.6349    0.0000 O   0  0  0  0  0  0  0  0  0  0  0  0
    6.4305   -2.3974    0.0000 O   0  0  0  0  0  0  0  0  0  0  0  0
    3.5725   -2.3973    0.0000 N   0  0  0  0  0  0  0  0  0  0  0  0
    3.5725   -1.5723    0.0000 C   0  0  0  0  0  0  0  0  0  0  0  0
    4.2870   -1.1598    0.0000 O   0  0  0  0  0  0  0  0  0  0  0  0
    2.8581   -1.1596    0.0000 C   0  0  2  0  0  0  0  0  0  0  0  0
    2.8581   -0.3346    0.0000 C   0  0  0  0  0  0  0  0  0  0  0  0
    3.5560   -0.0505    0.0000 C   0  0  0  0  0  0  0  0  0  0  0  0
    3.6688    0.7668    0.0000 C   0  0  0  0  0  0  0  0  0  0  0  0
    4.4329    1.0779    0.0000 N   0  0  0  0  0  0  0  0  0  0  0  0
    2.1436   -1.5721    0.0000 N   0  0  0  0  0  0  0  0  0  0  0  0
    1.4291   -1.1595    0.0000 C   0  0  0  0  0  0  0  0  0  0  0  0
    1.4291   -0.3345    0.0000 O   0  0  0  0  0  0  0  0  0  0  0  0
    0.7146   -1.5719    0.0000 C   0  0  0  0  0  0  0  0  0  0  0  0
    0.0002   -1.1594    0.0000 N   0  0  0  0  0  0  0  0  0  0  0  0
   -0.2954   -0.3890    0.0000 C   0  0  0  0  0  0  0  0  0  0  0  0
    0.1171    0.3253    0.0000 O   0  0  0  0  0  0  0  0  0  0  0  0
   -1.1203   -0.3890    0.0000 C   0  0  1  0  0  0  0  0  0  0  0  0
   -1.5329    0.3254    0.0000 N   0  0  0  0  0  0  0  0  0  0  0  0
   -1.1203    1.0399    0.0000 C   0  0  0  0  0  0  0  0  0  0  0  0
   -1.5329    1.7545    0.0000 C   0  0  1  0  0  0  0  0  0  0  0  0
   -1.1203    2.4689    0.0000 N   0  0  0  0  0  0  0  0  0  0  0  0
   -0.2954    2.4689    0.0000 C   0  0  0  0  0  0  0  0  0  0  0  0
    0.1171    3.1834    0.0000 C   0  0  2  0  0  0  0  0  0  0  0  0
   -0.2954    3.8979    0.0000 N   0  0  0  0  0  0  0  0  0  0  0  0
    0.1171    4.6124    0.0000 C   0  0  0  0  0  0  0  0  0  0  0  0
   -0.2954    5.3269    0.0000 C   0  0  1  0  0  0  0  0  0  0  0  0
    0.1171    6.0414    0.0000 N   0  0  0  0  0  0  0  0  0  0  0  0
    0.9422    6.0414    0.0000 C   0  0  0  0  0  0  0  0  0  0  0  0
    1.3546    6.7559    0.0000 O   0  0  0  0  0  0  0  0  0  0  0  0
    1.3546    5.3269    0.0000 C   0  0  0  0  0  0  0  0  0  0  0  0
    2.1797    5.3269    0.0000 C   0  0  0  0  0  0  0  0  0  0  0  0
    2.5922    4.6125    0.0000 C   0  0  0  0  0  0  0  0  0  0  0  0
    2.1797    3.8979    0.0000 C   0  0  0  0  0  0  0  0  0  0  0  0
    2.5922    3.1835    0.0000 C   0  0  0  0  0  0  0  0  0  0  0  0
    3.4171    3.1835    0.0000 C   0  0  0  0  0  0  0  0  0  0  0  0
    3.8297    2.4690    0.0000 C   0  0  0  0  0  0  0  0  0  0  0  0
    4.6547    2.4690    0.0000 C   0  0  0  0  0  0  0  0  0  0  0  0
    5.0671    1.7546    0.0000 C   0  0  0  0  0  0  0  0  0  0  0  0
    5.8922    1.7545    0.0000 C   0  0  0  0  0  0  0  0  0  0  0  0
    6.3046    1.0400    0.0000 C   0  0  0  0  0  0  0  0  0  0  0  0
    3.8297    3.8979    0.0000 C   0  0  0  0  0  0  0  0  0  0  0  0
    3.4171    4.6125    0.0000 C   0  0  0  0  0  0  0  0  0  0  0  0
    2.5922    6.0414    0.0000 C   0  0  0  0  0  0  0  0  0  0  0  0
   -1.1203    5.3269    0.0000 C   0  0  0  0  0  0  0  0  0  0  0  0
   -1.5329    6.0414    0.0000 C   0  0  0  0  0  0  0  0  0  0  0  0
   -1.1973    6.7952    0.0000 C   0  0  0  0  0  0  0  0  0  0  0  0
   -1.8104    7.3472    0.0000 N   0  0  0  0  0  0  0  0  0  0  0  0
   -2.5249    6.9348    0.0000 C   0  0  0  0  0  0  0  0  0  0  0  0
   -3.3096    7.1896    0.0000 C   0  0  0  0  0  0  0  0  0  0  0  0
   -3.9411    6.6596    0.0000 C   0  0  0  0  0  0  0  0  0  0  0  0
   -3.7511    5.8306    0.0000 C   0  0  0  0  0  0  0  0  0  0  0  0
   -2.9849    5.5977    0.0000 C   0  0  0  0  0  0  0  0  0  0  0  0
   -2.3533    6.1277    0.0000 C   0  0  0  0  0  0  0  0  0  0  0  0
    0.9422    4.6124    0.0000 O   0  0  0  0  0  0  0  0  0  0  0  0
    0.9421    3.1834    0.0000 C   0  0  0  0  0  0  0  0  0  0  0  0
    1.3545    2.4690    0.0000 C   0  0  0  0  0  0  0  0  0  0  0  0
    1.2379    1.8270    0.0000 O   0  0  0  0  0  0  0  0  0  0  0  0
    2.1674    2.6101    0.0000 N   0  0  0  0  0  0  0  0  0  0  0  0
    0.1171    1.7545    0.0000 O   0  0  0  0  0  0  0  0  0  0  0  0
   -2.3579    1.7545    0.0000 C   0  0  0  0  0  0  0  0  0  0  0  0
   -2.7704    2.4689    0.0000 C   0  0  0  0  0  0  0  0  0  0  0  0
   -3.5954    2.4689    0.0000 O   0  0  0  0  0  0  0  0  0  0  0  0
   -2.3579    3.1834    0.0000 O   0  0  0  0  0  0  0  0  0  0  0  0
   -0.2954    1.0399    0.0000 O   0  0  0  0  0  0  0  0  0  0  0  0
   -1.4161   -1.1593    0.0000 C   0  0  1  0  0  0  0  0  0  0  0  0
   -0.7887   -1.6952    0.0000 C   0  0  0  0  0  0  0  0  0  0  0  0
   -2.1306   -1.5717    0.0000 O   0  0  0  0  0  0  0  0  0  0  0  0
   -2.8450   -1.1591    0.0000 C   0  0  0  0  0  0  0  0  0  0  0  0
   -2.8450   -0.3341    0.0000 O   0  0  0  0  0  0  0  0  0  0  0  0
   -3.5596   -1.5716    0.0000 C   0  0  2  0  0  0  0  0  0  0  0  0
   -4.2741   -1.1591    0.0000 C   0  0  0  0  0  0  0  0  0  0  0  0
   -4.2741   -0.3341    0.0000 C   0  0  0  0  0  0  0  0  0  0  0  0
   -3.7740   -0.0454    0.0000 O   0  0  0  0  0  0  0  0  0  0  0  0
   -4.9885    0.0784    0.0000 C   0  0  0  0  0  0  0  0  0  0  0  0
   -5.7030   -0.3341    0.0000 C   0  0  0  0  0  0  0  0  0  0  0  0
   -5.7030   -1.1590    0.0000 N   0  0  0  0  0  0  0  0  0  0  0  0
   -6.4175    0.0785    0.0000 C   0  0  0  0  0  0  0  0  0  0  0  0
   -6.4175    0.9034    0.0000 C   0  0  0  0  0  0  0  0  0  0  0  0
   -5.7029    1.3159    0.0000 C   0  0  0  0  0  0  0  0  0  0  0  0
   -4.9885    0.9034    0.0000 C   0  0  0  0  0  0  0  0  0  0  0  0
   -3.5596   -2.3966    0.0000 N   0  0  0  0  0  0  0  0  0  0  0  0
   -4.2869   -2.8090    0.0000 C   0  0  0  0  0  0  0  0  0  0  0  0
   -5.0014   -2.3965    0.0000 O   0  0  0  0  0  0  0  0  0  0  0  0
   -4.2869   -3.6340    0.0000 C   0  0  2  0  0  0  0  0  0  0  0  0
   -5.0014   -4.0466    0.0000 C   0  0  2  0  0  0  0  0  0  0  0  0
   -5.7159   -3.6340    0.0000 C   0  0  0  0  0  0  0  0  0  0  0  0
   -5.0014   -4.8715    0.0000 C   0  0  0  0  0  0  0  0  0  0  0  0
   -5.7159   -5.2841    0.0000 C   0  0  0  0  0  0  0  0  0  0  0  0
   -6.4305   -4.8715    0.0000 O   0  0  0  0  0  0  0  0  0  0  0  0
   -5.7159   -6.1091    0.0000 O   0  0  0  0  0  0  0  0  0  0  0  0
   -3.5724   -4.0466    0.0000 N   0  0  0  0  0  0  0  0  0  0  0  0
   -4.2870   -5.2842    0.0000 O   0  0  0  0  0  0  0  0  0  0  0  0
   -3.7848   -5.8191    0.0000 H   0  0  0  0  0  0  0  0  0  0  0  0
   -1.9314   -6.6442    0.0000 H   0  0  0  0  0  0  0  0  0  0  0  0
   -2.8581   -7.1792    0.0000 H   0  0  0  0  0  0  0  0  0  0  0  0
   -4.4126   -6.0367    0.0000 H   0  0  0  0  0  0  0  0  0  0  0  0
   -2.1435   -3.8872    0.0000 H   0  0  0  0  0  0  0  0  0  0  0  0
   -0.7145   -3.8018    0.0000 H   0  0  0  0  0  0  0  0  0  0  0  0
    0.2121   -4.3370    0.0000 H   0  0  0  0  0  0  0  0  0  0  0  0
   -0.0003   -6.2690    0.0000 H   0  0  0  0  0  0  0  0  0  0  0  0
    0.5021   -5.8196    0.0000 H   0  0  0  0  0  0  0  0  0  0  0  0
    2.3554   -6.6446    0.0000 H   0  0  0  0  0  0  0  0  0  0  0  0
    1.4287   -7.1796    0.0000 H   0  0  0  0  0  0  0  0  0  0  0  0
   -0.0002   -5.1726    0.0000 H   0  0  0  0  0  0  0  0  0  0  0  0
    2.1434   -3.8876    0.0000 H   0  0  0  0  0  0  0  0  0  0  0  0
    3.5721   -5.9422    0.0000 H   0  0  0  0  0  0  0  0  0  0  0  0
    4.2866   -6.3548    0.0000 H   0  0  0  0  0  0  0  0  0  0  0  0
    5.2134   -4.7499    0.0000 H   0  0  0  0  0  0  0  0  0  0  0  0
    5.2133   -5.8199    0.0000 H   0  0  0  0  0  0  0  0  0  0  0  0
    2.7196   -3.5551    0.0000 H   0  0  0  0  0  0  0  0  0  0  0  0
    5.2135   -3.3449    0.0000 H   0  0  0  0  0  0  0  0  0  0  0  0
    5.0014   -1.3274    0.0000 H   0  0  0  0  0  0  0  0  0  0  0  0
    5.9280   -1.8624    0.0000 H   0  0  0  0  0  0  0  0  0  0  0  0
    7.2419   -2.8660    0.0000 H   0  0  0  0  0  0  0  0  0  0  0  0
    2.7199   -2.8895    0.0000 H   0  0  0  0  0  0  0  0  0  0  0  0
    3.7848   -0.6247    0.0000 H   0  0  0  0  0  0  0  0  0  0  0  0
    1.9702    0.2626    0.0000 H   0  0  0  0  0  0  0  0  0  0  0  0
    2.9679    0.7298    0.0000 H   0  0  0  0  0  0  0  0  0  0  0  0
    4.4008   -0.7071    0.0000 H   0  0  0  0  0  0  0  0  0  0  0  0
    4.5471    0.3528    0.0000 H   0  0  0  0  0  0  0  0  0  0  0  0
    2.8239    1.4234    0.0000 H   0  0  0  0  0  0  0  0  0  0  0  0
    3.8149    1.8268    0.0000 H   0  0  0  0  0  0  0  0  0  0  0  0
    5.2384    0.4521    0.0000 H   0  0  0  0  0  0  0  0  0  0  0  0
    4.5722    2.0884    0.0000 H   0  0  0  0  0  0  0  0  0  0  0  0
    2.1435   -2.5566    0.0000 H   0  0  0  0  0  0  0  0  0  0  0  0
    0.7145   -2.6419    0.0000 H   0  0  0  0  0  0  0  0  0  0  0  0
   -0.2121   -2.1068    0.0000 H   0  0  0  0  0  0  0  0  0  0  0  0
   -0.7485   -1.7987    0.0000 H   0  0  0  0  0  0  0  0  0  0  0  0
   -0.5854    0.5377    0.0000 H   0  0  0  0  0  0  0  0  0  0  0  0
   -2.5174    0.3254    0.0000 H   0  0  0  0  0  0  0  0  0  0  0  0
   -0.4629    1.7544    0.0000 H   0  0  0  0  0  0  0  0  0  0  0  0
   -1.6125    3.3215    0.0000 H   0  0  0  0  0  0  0  0  0  0  0  0
   -0.9529    3.1834    0.0000 H   0  0  0  0  0  0  0  0  0  0  0  0
   -1.2799    3.8979    0.0000 H   0  0  0  0  0  0  0  0  0  0  0  0
    0.7746    5.3269    0.0000 H   0  0  0  0  0  0  0  0  0  0  0  0
   -0.3752    6.8940    0.0000 H   0  0  0  0  0  0  0  0  0  0  0  0
    0.8385    4.4332    0.0000 H   0  0  0  0  0  0  0  0  0  0  0  0
    1.1477    3.8978    0.0000 H   0  0  0  0  0  0  0  0  0  0  0  0
    2.0762    2.2898    0.0000 H   0  0  0  0  0  0  0  0  0  0  0  0
    3.2947    1.5423    0.0000 H   0  0  0  0  0  0  0  0  0  0  0  0
    4.3647    1.5424    0.0000 H   0  0  0  0  0  0  0  0  0  0  0  0
    5.1897    3.3956    0.0000 H   0  0  0  0  0  0  0  0  0  0  0  0
    5.7247    2.4690    0.0000 H   0  0  0  0  0  0  0  0  0  0  0  0
    4.5320    0.8280    0.0000 H   0  0  0  0  0  0  0  0  0  0  0  0
    5.6020    0.8279    0.0000 H   0  0  0  0  0  0  0  0  0  0  0  0
    6.4273    2.6811    0.0000 H   0  0  0  0  0  0  0  0  0  0  0  0
    6.9622    1.7544    0.0000 H   0  0  0  0  0  0  0  0  0  0  0  0
    5.7695    0.1134    0.0000 H   0  0  0  0  0  0  0  0  0  0  0  0
    7.3746    1.0399    0.0000 H   0  0  0  0  0  0  0  0  0  0  0  0
    6.8395    0.1133    0.0000 H   0  0  0  0  0  0  0  0  0  0  0  0
    4.8617    3.8978    0.0000 H   0  0  0  0  0  0  0  0  0  0  0  0
    3.9331    5.5062    0.0000 H   0  0  0  0  0  0  0  0  0  0  0  0
    3.6622    6.0414    0.0000 H   0  0  0  0  0  0  0  0  0  0  0  0
    2.0572    6.9680    0.0000 H   0  0  0  0  0  0  0  0  0  0  0  0
    3.1272    6.9681    0.0000 H   0  0  0  0  0  0  0  0  0  0  0  0
   -1.6553    4.4002    0.0000 H   0  0  0  0  0  0  0  0  0  0  0  0
   -2.1903    5.3268    0.0000 H   0  0  0  0  0  0  0  0  0  0  0  0
   -0.1879    7.0098    0.0000 H   0  0  0  0  0  0  0  0  0  0  0  0
   -1.7074    8.3263    0.0000 H   0  0  0  0  0  0  0  0  0  0  0  0
   -3.5067    8.2026    0.0000 H   0  0  0  0  0  0  0  0  0  0  0  0
   -4.9195    6.9878    0.0000 H   0  0  0  0  0  0  0  0  0  0  0  0
   -4.5058    5.1268    0.0000 H   0  0  0  0  0  0  0  0  0  0  0  0
   -2.7783    4.5866    0.0000 H   0  0  0  0  0  0  0  0  0  0  0  0
    1.4771    4.1100    0.0000 H   0  0  0  0  0  0  0  0  0  0  0  0
    2.0121    3.1834    0.0000 H   0  0  0  0  0  0  0  0  0  0  0  0
    2.7982    1.8542    0.0000 H   0  0  0  0  0  0  0  0  0  0  0  0
    2.5066    3.5343    0.0000 H   0  0  0  0  0  0  0  0  0  0  0  0
   -2.8929    0.8278    0.0000 H   0  0  0  0  0  0  0  0  0  0  0  0
   -3.4279    1.7545    0.0000 H   0  0  0  0  0  0  0  0  0  0  0  0
   -1.4209    3.1834    0.0000 H   0  0  0  0  0  0  0  0  0  0  0  0
   -0.3790   -0.8960    0.0000 H   0  0  0  0  0  0  0  0  0  0  0  0
   -0.9837   -2.7473    0.0000 H   0  0  0  0  0  0  0  0  0  0  0  0
    0.2199   -1.3381    0.0000 H   0  0  0  0  0  0  0  0  0  0  0  0
    0.0249   -2.3901    0.0000 H   0  0  0  0  0  0  0  0  0  0  0  0
   -3.5596   -0.5016    0.0000 H   0  0  0  0  0  0  0  0  0  0  0  0
   -5.2007   -1.6941    0.0000 H   0  0  0  0  0  0  0  0  0  0  0  0
   -5.2007   -0.6241    0.0000 H   0  0  0  0  0  0  0  0  0  0  0  0
   -6.5556   -1.6513    0.0000 H   0  0  0  0  0  0  0  0  0  0  0  0
   -4.8504   -1.6513    0.0000 H   0  0  0  0  0  0  0  0  0  0  0  0
   -7.3113   -0.4375    0.0000 H   0  0  0  0  0  0  0  0  0  0  0  0
   -7.3112    1.4194    0.0000 H   0  0  0  0  0  0  0  0  0  0  0  0
   -5.7028    2.3479    0.0000 H   0  0  0  0  0  0  0  0  0  0  0  0
   -4.0948    1.4194    0.0000 H   0  0  0  0  0  0  0  0  0  0  0  0
   -2.7089   -2.8922    0.0000 H   0  0  0  0  0  0  0  0  0  0  0  0
   -3.3602   -3.0990    0.0000 H   0  0  0  0  0  0  0  0  0  0  0  0
   -5.0014   -2.9766    0.0000 H   0  0  0  0  0  0  0  0  0  0  0  0
   -5.7158   -2.5640    0.0000 H   0  0  0  0  0  0  0  0  0  0  0  0
   -6.6426   -4.1689    0.0000 H   0  0  0  0  0  0  0  0  0  0  0  0
   -6.6425   -3.0989    0.0000 H   0  0  0  0  0  0  0  0  0  0  0  0
   -4.0747   -5.4065    0.0000 H   0  0  0  0  0  0  0  0  0  0  0  0
   -5.0013   -5.9415    0.0000 H   0  0  0  0  0  0  0  0  0  0  0  0
   -6.5274   -6.5776    0.0000 H   0  0  0  0  0  0  0  0  0  0  0  0
   -2.7198   -3.5544    0.0000 H   0  0  0  0  0  0  0  0  0  0  0  0
  1  2  1  0  0  0  0
  1119  1  0  0  0  0
  1120  2  0  0  0  0
  2  3  1  0  0  0  0
  2  5  1  0  0  0  0
  2121  1  1  0  0  0
  3  4  1  0  0  0  0
  3122  1  0  0  0  0
  3123  1  0  0  0  0
  4124  1  0  0  0  0
  5  6  1  0  0  0  0
  5125  1  0  0  0  0
  6  7  2  0  0  0  0
  6  8  1  0  0  0  0
  8  9  1  0  0  0  0
  8126  1  0  0  0  0
  8127  1  0  0  0  0
  9 10  1  0  0  0  0
  9128  1  0  0  0  0
 10 11  2  0  0  0  0
 10 12  1  0  0  0  0
 12 13  1  0  0  0  0
 12 17  1  0  0  0  0
 12129  1  6  0  0  0
 13 14  1  0  0  0  0
 13130  1  0  0  0  0
 13131  1  0  0  0  0
 14 15  2  0  0  0  0
 14 16  1  0  0  0  0
 16132  1  0  0  0  0
 17 18  1  0  0  0  0
 17133  1  0  0  0  0
 18 19  2  0  0  0  0
 18 20  1  0  0  0  0
 20 21  1  0  0  0  0
 20 22  1  0  0  0  0
 20134  1  1  0  0  0
 21135  1  0  0  0  0
 21136  1  0  0  0  0
 21137  1  0  0  0  0
 22 23  1  0  0  0  0
 22138  1  0  0  0  0
 23 24  2  0  0  0  0
 23 25  1  0  0  0  0
 25 26  1  0  0  0  0
 25 30  1  0  0  0  0
 25139  1  6  0  0  0
 26 27  1  0  0  0  0
 26140  1  0  0  0  0
 26141  1  0  0  0  0
 27 28  2  0  0  0  0
 27 29  1  0  0  0  0
 29142  1  0  0  0  0
 30 31  1  0  0  0  0
 30143  1  0  0  0  0
 31 32  2  0  0  0  0
 31 33  1  0  0  0  0
 33 34  1  0  0  0  0
 33 38  1  0  0  0  0
 33144  1  6  0  0  0
 34 35  1  0  0  0  0
 34145  1  0  0  0  0
 34146  1  0  0  0  0
 35 36  1  0  0  0  0
 35147  1  0  0  0  0
 35148  1  0  0  0  0
 36 37  1  0  0  0  0
 36149  1  0  0  0  0
 36150  1  0  0  0  0
 37151  1  0  0  0  0
 37152  1  0  0  0  0
 38 39  1  0  0  0  0
 38153  1  0  0  0  0
 39 40  2  0  0  0  0
 39 41  1  0  0  0  0
 41 42  1  0  0  0  0
 41154  1  0  0  0  0
 41155  1  0  0  0  0
 42 43  1  0  0  0  0
 42156  1  0  0  0  0
 43 44  2  0  0  0  0
 43 45  1  0  0  0  0
 45 46  1  0  0  0  0
 45 93  1  0  0  0  0
 45157  1  1  0  0  0
 46 47  1  0  0  0  0
 46158  1  0  0  0  0
 47 48  1  0  0  0  0
 47 92  2  0  0  0  0
 48 49  1  0  0  0  0
 48 88  1  0  0  0  0
 48159  1  1  0  0  0
 49 50  1  0  0  0  0
 49160  1  0  0  0  0
 50 51  1  0  0  0  0
 50 87  2  0  0  0  0
 51 52  1  0  0  0  0
 51 83  1  0  0  0  0
 51161  1  1  0  0  0
 52 53  1  0  0  0  0
 52162  1  0  0  0  0
 53 54  1  0  0  0  0
 53 82  2  0  0  0  0
 54 55  1  0  0  0  0
 54 72  1  0  0  0  0
 54163  1  1  0  0  0
 55 56  1  0  0  0  0
 55164  1  0  0  0  0
 56 57  2  0  0  0  0
 56 58  1  0  0  0  0
 58 59  2  0  0  0  0
 58165  1  0  0  0  0
 59 60  1  0  0  0  0
 59 71  1  0  0  0  0
 60 61  1  0  0  0  0
 60 70  2  0  0  0  0
 61 62  2  0  0  0  0
 61166  1  0  0  0  0
 62 63  1  0  0  0  0
 62167  1  0  0  0  0
 63 64  1  0  0  0  0
 63 69  2  0  0  0  0
 64 65  1  0  0  0  0
 64168  1  0  0  0  0
 64169  1  0  0  0  0
 65 66  1  0  0  0  0
 65170  1  0  0  0  0
 65171  1  0  0  0  0
 66 67  1  0  0  0  0
 66172  1  0  0  0  0
 66173  1  0  0  0  0
 67 68  1  0  0  0  0
 67174  1  0  0  0  0
 67175  1  0  0  0  0
 68176  1  0  0  0  0
 68177  1  0  0  0  0
 68178  1  0  0  0  0
 69 70  1  0  0  0  0
 69179  1  0  0  0  0
 70180  1  0  0  0  0
 71181  1  0  0  0  0
 71182  1  0  0  0  0
 71183  1  0  0  0  0
 72 73  1  0  0  0  0
 72184  1  0  0  0  0
 72185  1  0  0  0  0
 73 74  2  0  0  0  0
 73 81  1  0  0  0  0
 74 75  1  0  0  0  0
 74186  1  0  0  0  0
 75 76  1  0  0  0  0
 75187  1  0  0  0  0
 76 77  2  0  0  0  0
 76 81  1  0  0  0  0
 77 78  1  0  0  0  0
 77188  1  0  0  0  0
 78 79  2  0  0  0  0
 78189  1  0  0  0  0
 79 80  1  0  0  0  0
 79190  1  0  0  0  0
 80 81  2  0  0  0  0
 80191  1  0  0  0  0
 83 84  1  0  0  0  0
 83192  1  0  0  0  0
 83193  1  0  0  0  0
 84 85  2  0  0  0  0
 84 86  1  0  0  0  0
 86194  1  0  0  0  0
 86195  1  0  0  0  0
 88 89  1  0  0  0  0
 88196  1  0  0  0  0
 88197  1  0  0  0  0
 89 90  2  0  0  0  0
 89 91  1  0  0  0  0
 91198  1  0  0  0  0
 93 94  1  0  0  0  0
 93 95  1  0  0  0  0
 93199  1  6  0  0  0
 94200  1  0  0  0  0
 94201  1  0  0  0  0
 94202  1  0  0  0  0
 95 96  1  0  0  0  0
 96 97  2  0  0  0  0
 96 98  1  0  0  0  0
 98 99  1  0  0  0  0
 98109  1  0  0  0  0
 98203  1  6  0  0  0
 99100  1  0  0  0  0
 99204  1  0  0  0  0
 99205  1  0  0  0  0
100101  2  0  0  0  0
100102  1  0  0  0  0
102108  1  0  0  0  0
103102  2  0  0  0  0
103104  1  0  0  0  0
104206  1  0  0  0  0
104207  1  0  0  0  0
105103  1  0  0  0  0
105208  1  0  0  0  0
106105  2  0  0  0  0
106209  1  0  0  0  0
107106  1  0  0  0  0
107210  1  0  0  0  0
108107  2  0  0  0  0
108211  1  0  0  0  0
109110  1  0  0  0  0
109212  1  0  0  0  0
110111  2  0  0  0  0
110112  1  0  0  0  0
112113  1  0  0  0  0
112119  1  0  0  0  0
112213  1  6  0  0  0
113114  1  0  0  0  0
113115  1  0  0  0  0
113214  1  6  0  0  0
114215  1  0  0  0  0
114216  1  0  0  0  0
114217  1  0  0  0  0
115116  1  0  0  0  0
115218  1  0  0  0  0
115219  1  0  0  0  0
116117  2  0  0  0  0
116118  1  0  0  0  0
118220  1  0  0  0  0
119221  1  0  0  0  0
M  END
>  <DRUGBANK_ID>
DB12076

>  <COMMON_NAME>
Surotomycin

>  <CAS_NUMBER>
1233389-51-9

>  <UNII>
ON0N776N05

>  <SYNONYMS>
Surotomycin

$$$$
