
 OpenBabel10282417072D

  3  2  0  0  0  0  0  0  0  0999 V2000
   -1.1895    0.4575    0.0000 O   0  0  0  0  0  0  0  0  0  0  0  0
    0.4604    0.4575    0.0000 O   0  0  0  0  0  0  0  0  0  0  0  0
   -0.3645    0.4575    0.0000 Ti  0  0  0  0  0  0  0  0  0  0  0  0
  1  3  2  0  0  0  0
  3  2  2  0  0  0  0
M  END
>  <DRUGBANK_ID>
DB09536

>  <COMMON_NAME>
Titanium dioxide

>  <CAS_NUMBER>
13463-67-7

>  <UNII>
15FIX9V2JP

>  <SYNONYMS>
dióxido de titanio; óxido de titanio(4); Titanium dioxide

$$$$
