
 OpenBabel10282417072D

 82 85  0  0  1  0  0  0  0  0999 V2000
    2.1434    2.8875    0.0000 C   0  0  0  0  0  0  0  0  0  0  0  0
    2.8579    3.3000    0.0000 C   0  0  0  0  0  0  0  0  0  0  0  0
    3.5724    2.8875    0.0000 C   0  0  0  0  0  0  0  0  0  0  0  0
    4.2868    3.3000    0.0000 C   0  0  0  0  0  0  0  0  0  0  0  0
    5.0013    2.8875    0.0000 O   0  0  0  0  0  0  0  0  0  0  0  0
    5.7158    3.3000    0.0000 C   0  0  0  0  0  0  0  0  0  0  0  0
    5.7158    4.1250    0.0000 O   0  0  0  0  0  0  0  0  0  0  0  0
    6.4302    2.8875    0.0000 N   0  0  0  0  0  0  0  0  0  0  0  0
    7.1447    3.3000    0.0000 C   0  0  0  0  0  0  0  0  0  0  0  0
    7.8592    2.8875    0.0000 C   0  0  0  0  0  0  0  0  0  0  0  0
    7.8592    2.0625    0.0000 N   0  0  0  0  0  0  0  0  0  0  0  0
    7.1447    1.6500    0.0000 C   0  0  0  0  0  0  0  0  0  0  0  0
    6.4302    2.0625    0.0000 C   0  0  0  0  0  0  0  0  0  0  0  0
    8.5737    1.6500    0.0000 C   0  0  0  0  0  0  0  0  0  0  0  0
    9.2881    2.0625    0.0000 O   0  0  0  0  0  0  0  0  0  0  0  0
    8.5737    0.8250    0.0000 C   0  0  2  0  0  0  0  0  0  0  0  0
    9.2881    0.4125    0.0000 C   0  0  0  0  0  0  0  0  0  0  0  0
   10.0026    0.8250    0.0000 P   0  0  0  0  0  0  0  0  0  0  0  0
    9.5901    1.5395    0.0000 O   0  0  0  0  0  0  0  0  0  0  0  0
   10.7171    1.2375    0.0000 O   0  0  0  0  0  0  0  0  0  0  0  0
   10.4151    0.1105    0.0000 O   0  0  0  0  0  0  0  0  0  0  0  0
    7.8592    0.4125    0.0000 N   0  0  0  0  0  0  0  0  0  0  0  0
    7.8592   -0.4125    0.0000 C   0  0  0  0  0  0  0  0  0  0  0  0
    8.5737   -0.8250    0.0000 O   0  0  0  0  0  0  0  0  0  0  0  0
    7.1447   -0.8250    0.0000 C   0  0  0  0  0  0  0  0  0  0  0  0
    7.1447   -1.6500    0.0000 C   0  0  0  0  0  0  0  0  0  0  0  0
    6.4302   -2.0625    0.0000 C   0  0  0  0  0  0  0  0  0  0  0  0
    5.7158   -1.6500    0.0000 N   0  0  0  0  0  0  0  0  0  0  0  0
    5.7158   -0.8250    0.0000 C   0  0  0  0  0  0  0  0  0  0  0  0
    6.4302   -0.4125    0.0000 N   0  0  0  0  0  0  0  0  0  0  0  0
    5.0013   -0.4125    0.0000 C   0  0  0  0  0  0  0  0  0  0  0  0
    4.2868   -0.8250    0.0000 C   0  0  0  0  0  0  0  0  0  0  0  0
    3.5724   -0.4125    0.0000 C   0  0  0  0  0  0  0  0  0  0  0  0
    3.5724    0.4125    0.0000 C   0  0  0  0  0  0  0  0  0  0  0  0
    4.2868    0.8250    0.0000 C   0  0  0  0  0  0  0  0  0  0  0  0
    5.0013    0.4125    0.0000 C   0  0  0  0  0  0  0  0  0  0  0  0
    6.4302   -2.8875    0.0000 N   0  0  0  0  0  0  0  0  0  0  0  0
    7.0977   -3.3724    0.0000 C   0  0  0  0  0  0  0  0  0  0  0  0
    6.8427   -4.1570    0.0000 C   0  0  0  0  0  0  0  0  0  0  0  0
    6.0177   -4.1570    0.0000 C   0  0  1  0  0  0  0  0  0  0  0  0
    5.7628   -3.3724    0.0000 C   0  0  0  0  0  0  0  0  0  0  0  0
    5.5328   -4.8245    0.0000 O   0  0  0  0  0  0  0  0  0  0  0  0
    5.8684   -5.5782    0.0000 C   0  0  0  0  0  0  0  0  0  0  0  0
    1.2168    3.4225    0.0000 H   0  0  0  0  0  0  0  0  0  0  0  0
    2.1434    1.8175    0.0000 H   0  0  0  0  0  0  0  0  0  0  0  0
    1.2167    2.3525    0.0000 H   0  0  0  0  0  0  0  0  0  0  0  0
    2.8579    4.3700    0.0000 H   0  0  0  0  0  0  0  0  0  0  0  0
    3.7845    3.8350    0.0000 H   0  0  0  0  0  0  0  0  0  0  0  0
    3.5724    1.8175    0.0000 H   0  0  0  0  0  0  0  0  0  0  0  0
    4.4991    2.3525    0.0000 H   0  0  0  0  0  0  0  0  0  0  0  0
    4.2868    4.3700    0.0000 H   0  0  0  0  0  0  0  0  0  0  0  0
    5.2134    3.8350    0.0000 H   0  0  0  0  0  0  0  0  0  0  0  0
    7.1447    4.3700    0.0000 H   0  0  0  0  0  0  0  0  0  0  0  0
    8.0713    3.8350    0.0000 H   0  0  0  0  0  0  0  0  0  0  0  0
    8.7858    3.4225    0.0000 H   0  0  0  0  0  0  0  0  0  0  0  0
    8.7858    2.3525    0.0000 H   0  0  0  0  0  0  0  0  0  0  0  0
    7.1447    0.5800    0.0000 H   0  0  0  0  0  0  0  0  0  0  0  0
    6.2181    1.1150    0.0000 H   0  0  0  0  0  0  0  0  0  0  0  0
    5.5036    1.5275    0.0000 H   0  0  0  0  0  0  0  0  0  0  0  0
    5.5036    2.5975    0.0000 H   0  0  0  0  0  0  0  0  0  0  0  0
    7.6471    1.3600    0.0000 H   0  0  0  0  0  0  0  0  0  0  0  0
    9.2881   -0.6575    0.0000 H   0  0  0  0  0  0  0  0  0  0  0  0
   10.2147   -0.1225    0.0000 H   0  0  0  0  0  0  0  0  0  0  0  0
   10.0751    2.3795    0.0000 H   0  0  0  0  0  0  0  0  0  0  0  0
   11.5571    0.7525    0.0000 H   0  0  0  0  0  0  0  0  0  0  0  0
    7.0066    0.9048    0.0000 H   0  0  0  0  0  0  0  0  0  0  0  0
    8.0384   -2.1660    0.0000 H   0  0  0  0  0  0  0  0  0  0  0  0
    4.2868   -1.8570    0.0000 H   0  0  0  0  0  0  0  0  0  0  0  0
    2.6787   -0.9285    0.0000 H   0  0  0  0  0  0  0  0  0  0  0  0
    2.6787    0.9285    0.0000 H   0  0  0  0  0  0  0  0  0  0  0  0
    4.2868    1.8570    0.0000 H   0  0  0  0  0  0  0  0  0  0  0  0
    5.8950    0.9285    0.0000 H   0  0  0  0  0  0  0  0  0  0  0  0
    8.1153   -3.0418    0.0000 H   0  0  0  0  0  0  0  0  0  0  0  0
    7.8543   -4.1290    0.0000 H   0  0  0  0  0  0  0  0  0  0  0  0
    7.4716   -5.0227    0.0000 H   0  0  0  0  0  0  0  0  0  0  0  0
    6.3569   -5.1104    0.0000 H   0  0  0  0  0  0  0  0  0  0  0  0
    6.5035   -5.1104    0.0000 H   0  0  0  0  0  0  0  0  0  0  0  0
    4.7452   -3.0417    0.0000 H   0  0  0  0  0  0  0  0  0  0  0  0
    5.5954   -2.3156    0.0000 H   0  0  0  0  0  0  0  0  0  0  0  0
    5.2395   -6.4439    0.0000 H   0  0  0  0  0  0  0  0  0  0  0  0
    6.9325   -5.6900    0.0000 H   0  0  0  0  0  0  0  0  0  0  0  0
    6.3036   -6.5557    0.0000 H   0  0  0  0  0  0  0  0  0  0  0  0
  1  2  1  0  0  0  0
  1 44  1  0  0  0  0
  1 45  1  0  0  0  0
  1 46  1  0  0  0  0
  2  3  1  0  0  0  0
  2 47  1  0  0  0  0
  2 48  1  0  0  0  0
  3  4  1  0  0  0  0
  3 49  1  0  0  0  0
  3 50  1  0  0  0  0
  4  5  1  0  0  0  0
  4 51  1  0  0  0  0
  4 52  1  0  0  0  0
  5  6  1  0  0  0  0
  6  7  2  0  0  0  0
  6  8  1  0  0  0  0
  8  9  1  0  0  0  0
  8 13  1  0  0  0  0
  9 10  1  0  0  0  0
  9 53  1  0  0  0  0
  9 54  1  0  0  0  0
 10 11  1  0  0  0  0
 10 55  1  0  0  0  0
 10 56  1  0  0  0  0
 11 12  1  0  0  0  0
 11 14  1  0  0  0  0
 12 13  1  0  0  0  0
 12 57  1  0  0  0  0
 12 58  1  0  0  0  0
 13 59  1  0  0  0  0
 13 60  1  0  0  0  0
 14 15  2  0  0  0  0
 16 14  1  0  0  0  0
 16 17  1  0  0  0  0
 16 22  1  0  0  0  0
 16 61  1  1  0  0  0
 17 18  1  0  0  0  0
 17 62  1  0  0  0  0
 17 63  1  0  0  0  0
 18 19  1  0  0  0  0
 18 20  1  0  0  0  0
 18 21  2  0  0  0  0
 19 64  1  0  0  0  0
 20 65  1  0  0  0  0
 22 23  1  0  0  0  0
 22 66  1  0  0  0  0
 23 24  2  0  0  0  0
 23 25  1  0  0  0  0
 25 26  2  0  0  0  0
 25 30  1  0  0  0  0
 26 27  1  0  0  0  0
 26 67  1  0  0  0  0
 27 28  2  0  0  0  0
 27 37  1  0  0  0  0
 28 29  1  0  0  0  0
 29 30  2  0  0  0  0
 29 31  1  0  0  0  0
 31 32  2  0  0  0  0
 31 36  1  0  0  0  0
 32 33  1  0  0  0  0
 32 68  1  0  0  0  0
 33 34  2  0  0  0  0
 33 69  1  0  0  0  0
 34 35  1  0  0  0  0
 34 70  1  0  0  0  0
 35 36  2  0  0  0  0
 35 71  1  0  0  0  0
 36 72  1  0  0  0  0
 37 38  1  0  0  0  0
 37 41  1  0  0  0  0
 38 39  1  0  0  0  0
 38 73  1  0  0  0  0
 38 74  1  0  0  0  0
 39 75  1  0  0  0  0
 39 76  1  0  0  0  0
 40 39  1  0  0  0  0
 40 41  1  0  0  0  0
 40 42  1  0  0  0  0
 40 77  1  1  0  0  0
 41 78  1  0  0  0  0
 41 79  1  0  0  0  0
 42 43  1  0  0  0  0
 43 80  1  0  0  0  0
 43 81  1  0  0  0  0
 43 82  1  0  0  0  0
M  END
>  <DRUGBANK_ID>
DB15163

>  <COMMON_NAME>
Selatogrel

>  <CAS_NUMBER>
1159500-34-1

>  <UNII>
6DPK7O4PR7

>  <SYNONYMS>
ACT-246475; Selatogrel

$$$$
