
 OpenBabel10282417072D

 72 73  0  0  0  0  0  0  0  0999 V2000
    2.5974    1.2897    0.0000 O   0  0  0  0  0  0  0  0  0  0  0  0
   -0.9920    2.2985    0.0000 C   0  0  0  0  0  0  0  0  0  0  0  0
   -0.9920    1.4736    0.0000 N   0  0  0  0  0  0  0  0  0  0  0  0
   -1.7066    2.7111    0.0000 C   0  0  0  0  0  0  0  0  0  0  0  0
   -1.7066    1.0611    0.0000 C   0  0  0  0  0  0  0  0  0  0  0  0
   -2.4210    2.2985    0.0000 C   0  0  0  0  0  0  0  0  0  0  0  0
   -2.4210    1.4736    0.0000 O   0  0  0  0  0  0  0  0  0  0  0  0
   -0.2776    2.7111    0.0000 C   0  0  0  0  0  0  0  0  0  0  0  0
    0.4368    2.2985    0.0000 N   0  0  0  0  0  0  0  0  0  0  0  0
   -0.2776    3.5361    0.0000 O   0  0  0  0  0  0  0  0  0  0  0  0
    1.1512    2.7111    0.0000 C   0  0  2  0  0  0  0  0  0  0  0  0
    2.1739    2.3583    0.0000 C   0  0  0  0  0  0  0  0  0  0  0  0
    1.1512    3.5361    0.0000 C   0  0  0  0  0  0  0  0  0  0  0  0
    1.8657    3.9485    0.0000 C   0  0  0  0  0  0  0  0  0  0  0  0
    0.4368    3.9485    0.0000 C   0  0  0  0  0  0  0  0  0  0  0  0
   -1.7066    0.2360    0.0000 C   0  0  2  0  0  0  0  0  0  0  0  0
   -0.9922   -0.1764    0.0000 N   0  0  0  0  0  0  0  0  0  0  0  0
   -0.9922   -1.0014    0.0000 C   0  0  0  0  0  0  0  0  0  0  0  0
   -0.2777   -1.4139    0.0000 C   0  0  1  0  0  0  0  0  0  0  0  0
   -0.2778   -2.2389    0.0000 C   0  0  0  0  0  0  0  0  0  0  0  0
    0.4367   -1.0015    0.0000 N   0  0  0  0  0  0  0  0  0  0  0  0
    0.4367   -0.1765    0.0000 C   0  0  0  0  0  0  0  0  0  0  0  0
    1.1512    0.2359    0.0000 C   0  0  0  0  0  0  0  0  0  0  0  0
   -0.2776    0.2360    0.0000 O   0  0  0  0  0  0  0  0  0  0  0  0
   -0.9922   -2.6514    0.0000 C   0  0  0  0  0  0  0  0  0  0  0  0
    0.4366   -2.6515    0.0000 C   0  0  0  0  0  0  0  0  0  0  0  0
   -1.7066   -1.4139    0.0000 O   0  0  0  0  0  0  0  0  0  0  0  0
    2.0843    0.1116    0.0000 C   0  0  1  0  0  0  0  0  0  0  0  0
    2.7600    2.9710    0.0000 O   0  0  0  0  0  0  0  0  0  0  0  0
   -2.4807   -0.4249    0.0000 C   0  0  0  0  0  0  0  0  0  0  0  0
   -2.7601   -1.7717    0.0000 S   0  0  0  0  0  0  0  0  0  0  0  0
   -2.3228   -3.1633    0.0000 S   0  0  0  0  0  0  0  0  0  0  0  0
   -0.2752   -3.9486    0.0000 C   0  0  0  0  0  0  0  0  0  0  0  0
    1.9313   -2.9844    0.0000 C   0  0  0  0  0  0  0  0  0  0  0  0
    1.8418   -1.7419    0.0000 C   0  0  0  0  0  0  0  0  0  0  0  0
    2.5875   -0.7380    0.0000 C   0  0  0  0  0  0  0  0  0  0  0  0
   -0.1394    0.9813    0.0000 H   0  0  0  0  0  0  0  0  0  0  0  0
   -1.7067    3.7431    0.0000 H   0  0  0  0  0  0  0  0  0  0  0  0
   -3.3477    2.8334    0.0000 H   0  0  0  0  0  0  0  0  0  0  0  0
   -2.4208    1.2285    0.0000 H   0  0  0  0  0  0  0  0  0  0  0  0
   -3.3476    1.7634    0.0000 H   0  0  0  0  0  0  0  0  0  0  0  0
    0.4368    1.3140    0.0000 H   0  0  0  0  0  0  0  0  0  0  0  0
    0.2245    3.2460    0.0000 H   0  0  0  0  0  0  0  0  0  0  0  0
    1.1512    4.6061    0.0000 H   0  0  0  0  0  0  0  0  0  0  0  0
    2.7923    3.4134    0.0000 H   0  0  0  0  0  0  0  0  0  0  0  0
    1.8658    5.0185    0.0000 H   0  0  0  0  0  0  0  0  0  0  0  0
    2.7924    4.4834    0.0000 H   0  0  0  0  0  0  0  0  0  0  0  0
    0.4367    5.0185    0.0000 H   0  0  0  0  0  0  0  0  0  0  0  0
   -0.4898    3.4134    0.0000 H   0  0  0  0  0  0  0  0  0  0  0  0
   -0.4899    4.4834    0.0000 H   0  0  0  0  0  0  0  0  0  0  0  0
   -2.6783    0.6841    0.0000 H   0  0  0  0  0  0  0  0  0  0  0  0
   -0.1396    0.3159    0.0000 H   0  0  0  0  0  0  0  0  0  0  0  0
   -1.2044   -1.9489    0.0000 H   0  0  0  0  0  0  0  0  0  0  0  0
   -0.2779   -3.3089    0.0000 H   0  0  0  0  0  0  0  0  0  0  0  0
    1.2893   -1.4938    0.0000 H   0  0  0  0  0  0  0  0  0  0  0  0
    0.9433    1.2855    0.0000 H   0  0  0  0  0  0  0  0  0  0  0  0
    1.8836    1.0160    0.0000 H   0  0  0  0  0  0  0  0  0  0  0  0
   -1.9189   -2.1164    0.0000 H   0  0  0  0  0  0  0  0  0  0  0  0
   -0.9922   -3.7214    0.0000 H   0  0  0  0  0  0  0  0  0  0  0  0
   -1.9188   -3.1864    0.0000 H   0  0  0  0  0  0  0  0  0  0  0  0
    0.4364   -3.7215    0.0000 H   0  0  0  0  0  0  0  0  0  0  0  0
    1.3633   -2.1166    0.0000 H   0  0  0  0  0  0  0  0  0  0  0  0
    1.3632   -3.1866    0.0000 H   0  0  0  0  0  0  0  0  0  0  0  0
    3.1522    0.1779    0.0000 H   0  0  0  0  0  0  0  0  0  0  0  0
   -3.4015    0.1200    0.0000 H   0  0  0  0  0  0  0  0  0  0  0  0
   -3.4595   -0.8572    0.0000 H   0  0  0  0  0  0  0  0  0  0  0  0
   -0.2507   -5.0183    0.0000 H   0  0  0  0  0  0  0  0  0  0  0  0
    0.6268   -4.5242    0.0000 H   0  0  0  0  0  0  0  0  0  0  0  0
    2.8471   -3.5377    0.0000 H   0  0  0  0  0  0  0  0  0  0  0  0
    2.8437   -2.4255    0.0000 H   0  0  0  0  0  0  0  0  0  0  0  0
    0.8510   -1.4532    0.0000 H   0  0  0  0  0  0  0  0  0  0  0  0
    3.6181   -0.7917    0.0000 H   0  0  0  0  0  0  0  0  0  0  0  0
  1 12  1  0  0  0  0
  1 28  1  0  0  0  0
  2  8  1  0  0  0  0
  3  2  1  0  0  0  0
  3 37  1  0  0  0  0
  4  2  2  0  0  0  0
  4 38  1  0  0  0  0
  5  3  1  0  0  0  0
  5 16  1  0  0  0  0
  6  4  1  0  0  0  0
  6 39  1  0  0  0  0
  6 40  1  0  0  0  0
  6 41  1  0  0  0  0
  7  5  2  0  0  0  0
  8  9  1  0  0  0  0
  8 10  2  0  0  0  0
  9 11  1  0  0  0  0
  9 42  1  0  0  0  0
 11 12  1  0  0  0  0
 11 13  1  0  0  0  0
 11 43  1  6  0  0  0
 12 29  2  0  0  0  0
 13 14  1  0  0  0  0
 13 15  1  0  0  0  0
 13 44  1  0  0  0  0
 14 45  1  0  0  0  0
 14 46  1  0  0  0  0
 14 47  1  0  0  0  0
 15 48  1  0  0  0  0
 15 49  1  0  0  0  0
 15 50  1  0  0  0  0
 16 17  1  0  0  0  0
 16 30  1  0  0  0  0
 16 51  1  1  0  0  0
 17 18  1  0  0  0  0
 17 52  1  0  0  0  0
 18 19  1  0  0  0  0
 18 27  2  0  0  0  0
 19 20  1  0  0  0  0
 19 21  1  0  0  0  0
 19 53  1  1  0  0  0
 20 25  1  0  0  0  0
 20 26  1  0  0  0  0
 20 54  1  0  0  0  0
 21 22  1  0  0  0  0
 21 55  1  0  0  0  0
 22 23  1  0  0  0  0
 22 24  2  0  0  0  0
 23 28  1  0  0  0  0
 23 56  1  0  0  0  0
 23 57  1  0  0  0  0
 25 58  1  0  0  0  0
 25 59  1  0  0  0  0
 25 60  1  0  0  0  0
 26 61  1  0  0  0  0
 26 62  1  0  0  0  0
 26 63  1  0  0  0  0
 28 36  1  0  0  0  0
 28 64  1  1  0  0  0
 30 31  1  0  0  0  0
 30 65  1  0  0  0  0
 30 66  1  0  0  0  0
 31 32  1  0  0  0  0
 32 33  1  0  0  0  0
 33 34  1  0  0  0  0
 33 67  1  0  0  0  0
 33 68  1  0  0  0  0
 34 35  1  0  0  0  0
 34 69  1  0  0  0  0
 34 70  1  0  0  0  0
 35 36  2  0  0  0  0
 35 71  1  0  0  0  0
 36 72  1  0  0  0  0
M  END
>  <DRUGBANK_ID>
DB06176

>  <COMMON_NAME>
Romidepsin

>  <CAS_NUMBER>
128517-07-7

>  <UNII>
CX3T89XQBK

>  <SYNONYMS>
Romidepsin; Romidepsina; Romidepsine; Romidepsinum

$$$$
