
 OpenBabel10282417072D

101104  0  0  1  0  0  0  0  0999 V2000
    2.3864   -5.7255    0.0000 C   0  0  0  0  0  0  0  0  0  0  0  0
    3.0401   -5.2222    0.0000 C   0  0  0  0  0  0  0  0  0  0  0  0
    3.5433   -5.8760    0.0000 C   0  0  0  0  0  0  0  0  0  0  0  0
    3.6938   -4.7190    0.0000 C   0  0  0  0  0  0  0  0  0  0  0  0
    3.5849   -3.9012    0.0000 O   0  0  0  0  0  0  0  0  0  0  0  0
    4.4565   -5.0335    0.0000 N   0  0  0  0  0  0  0  0  0  0  0  0
    5.1103   -4.5303    0.0000 C   0  0  1  0  0  0  0  0  0  0  0  0
    5.0013   -3.7125    0.0000 C   0  0  0  0  0  0  0  0  0  0  0  0
    5.6550   -3.2093    0.0000 C   0  0  0  0  0  0  0  0  0  0  0  0
    5.6322   -2.3846    0.0000 C   0  0  0  0  0  0  0  0  0  0  0  0
    6.4094   -2.1080    0.0000 N   0  0  0  0  0  0  0  0  0  0  0  0
    6.9126   -2.7617    0.0000 C   0  0  0  0  0  0  0  0  0  0  0  0
    6.4464   -3.4423    0.0000 N   0  0  0  0  0  0  0  0  0  0  0  0
    5.8729   -4.8448    0.0000 C   0  0  0  0  0  0  0  0  0  0  0  0
    5.9819   -5.6626    0.0000 O   0  0  0  0  0  0  0  0  0  0  0  0
    6.5267   -4.3416    0.0000 N   0  0  0  0  0  0  0  0  0  0  0  0
    7.2894   -4.6561    0.0000 C   0  0  2  0  0  0  0  0  0  0  0  0
    7.3983   -5.4739    0.0000 C   0  0  0  0  0  0  0  0  0  0  0  0
    8.1610   -5.7884    0.0000 C   0  0  0  0  0  0  0  0  0  0  0  0
    8.8147   -5.2851    0.0000 C   0  0  0  0  0  0  0  0  0  0  0  0
    9.5774   -5.5997    0.0000 C   0  0  0  0  0  0  0  0  0  0  0  0
    9.6864   -6.4174    0.0000 C   0  0  0  0  0  0  0  0  0  0  0  0
   10.4491   -6.7320    0.0000 C   0  0  0  0  0  0  0  0  0  0  0  0
   10.5580   -7.5497    0.0000 C   0  0  0  0  0  0  0  0  0  0  0  0
    9.9043   -8.0530    0.0000 C   0  0  0  0  0  0  0  0  0  0  0  0
    9.1416   -7.7385    0.0000 C   0  0  0  0  0  0  0  0  0  0  0  0
    9.0327   -6.9207    0.0000 C   0  0  0  0  0  0  0  0  0  0  0  0
    8.2700   -6.6062    0.0000 C   0  0  0  0  0  0  0  0  0  0  0  0
    7.9431   -4.1528    0.0000 C   0  0  0  0  0  0  0  0  0  0  0  0
    7.8341   -3.3351    0.0000 O   0  0  0  0  0  0  0  0  0  0  0  0
    8.7058   -4.4674    0.0000 N   0  0  0  0  0  0  0  0  0  0  0  0
    9.3595   -3.9641    0.0000 C   0  0  2  0  0  0  0  0  0  0  0  0
    9.2506   -3.1463    0.0000 C   0  0  0  0  0  0  0  0  0  0  0  0
    9.9043   -2.6431    0.0000 C   0  0  0  0  0  0  0  0  0  0  0  0
    9.7954   -1.8253    0.0000 C   0  0  0  0  0  0  0  0  0  0  0  0
   10.4491   -1.3221    0.0000 C   0  0  0  0  0  0  0  0  0  0  0  0
   11.2118   -1.6366    0.0000 C   0  0  0  0  0  0  0  0  0  0  0  0
   11.3207   -2.4544    0.0000 C   0  0  0  0  0  0  0  0  0  0  0  0
   10.6670   -2.9576    0.0000 C   0  0  0  0  0  0  0  0  0  0  0  0
   10.1222   -4.2787    0.0000 C   0  0  0  0  0  0  0  0  0  0  0  0
   10.2312   -5.0964    0.0000 O   0  0  0  0  0  0  0  0  0  0  0  0
   10.7760   -3.7754    0.0000 N   0  0  0  0  0  0  0  0  0  0  0  0
   11.5386   -4.0899    0.0000 C   0  0  1  0  0  0  0  0  0  0  0  0
   12.1924   -3.5867    0.0000 C   0  0  0  0  0  0  0  0  0  0  0  0
   12.9551   -3.9012    0.0000 C   0  0  0  0  0  0  0  0  0  0  0  0
   13.6088   -3.3980    0.0000 C   0  0  0  0  0  0  0  0  0  0  0  0
   14.3715   -3.7125    0.0000 C   0  0  0  0  0  0  0  0  0  0  0  0
   15.0252   -3.2093    0.0000 N   0  0  0  0  0  0  0  0  0  0  0  0
   11.6476   -4.9077    0.0000 C   0  0  0  0  0  0  0  0  0  0  0  0
   12.4103   -5.2222    0.0000 O   0  0  0  0  0  0  0  0  0  0  0  0
   10.9939   -5.4110    0.0000 N   0  0  0  0  0  0  0  0  0  0  0  0
    2.5368   -4.5685    0.0000 N   0  0  0  0  0  0  0  0  0  0  0  0
    1.3972   -5.3176    0.0000 H   0  0  0  0  0  0  0  0  0  0  0  0
    2.5278   -6.7861    0.0000 H   0  0  0  0  0  0  0  0  0  0  0  0
    1.5386   -6.3783    0.0000 H   0  0  0  0  0  0  0  0  0  0  0  0
    3.1353   -6.8651    0.0000 H   0  0  0  0  0  0  0  0  0  0  0  0
    4.6039   -5.7348    0.0000 H   0  0  0  0  0  0  0  0  0  0  0  0
    4.1959   -6.7239    0.0000 H   0  0  0  0  0  0  0  0  0  0  0  0
    4.5865   -6.0094    0.0000 H   0  0  0  0  0  0  0  0  0  0  0  0
    4.1211   -4.1223    0.0000 H   0  0  0  0  0  0  0  0  0  0  0  0
    4.0121   -3.3046    0.0000 H   0  0  0  0  0  0  0  0  0  0  0  0
    4.8600   -2.6519    0.0000 H   0  0  0  0  0  0  0  0  0  0  0  0
    4.7808   -1.8014    0.0000 H   0  0  0  0  0  0  0  0  0  0  0  0
    6.6875   -1.1636    0.0000 H   0  0  0  0  0  0  0  0  0  0  0  0
    7.9442   -2.7331    0.0000 H   0  0  0  0  0  0  0  0  0  0  0  0
    6.3967   -3.3657    0.0000 H   0  0  0  0  0  0  0  0  0  0  0  0
    6.4415   -5.3088    0.0000 H   0  0  0  0  0  0  0  0  0  0  0  0
    6.5504   -6.1266    0.0000 H   0  0  0  0  0  0  0  0  0  0  0  0
    7.5396   -6.5345    0.0000 H   0  0  0  0  0  0  0  0  0  0  0  0
    8.6784   -4.2621    0.0000 H   0  0  0  0  0  0  0  0  0  0  0  0
   10.3952   -4.9702    0.0000 H   0  0  0  0  0  0  0  0  0  0  0  0
   11.2669   -6.1025    0.0000 H   0  0  0  0  0  0  0  0  0  0  0  0
   11.5121   -7.9431    0.0000 H   0  0  0  0  0  0  0  0  0  0  0  0
   10.0407   -9.0760    0.0000 H   0  0  0  0  0  0  0  0  0  0  0  0
    8.3238   -8.3680    0.0000 H   0  0  0  0  0  0  0  0  0  0  0  0
    7.4523   -7.2357    0.0000 H   0  0  0  0  0  0  0  0  0  0  0  0
    8.8358   -5.4433    0.0000 H   0  0  0  0  0  0  0  0  0  0  0  0
    8.3703   -3.5562    0.0000 H   0  0  0  0  0  0  0  0  0  0  0  0
    8.2614   -2.7383    0.0000 H   0  0  0  0  0  0  0  0  0  0  0  0
    9.1093   -2.0857    0.0000 H   0  0  0  0  0  0  0  0  0  0  0  0
    8.8414   -1.4318    0.0000 H   0  0  0  0  0  0  0  0  0  0  0  0
   10.3128   -0.2991    0.0000 H   0  0  0  0  0  0  0  0  0  0  0  0
   12.0296   -1.0071    0.0000 H   0  0  0  0  0  0  0  0  0  0  0  0
   12.2747   -2.8479    0.0000 H   0  0  0  0  0  0  0  0  0  0  0  0
   10.8033   -3.9806    0.0000 H   0  0  0  0  0  0  0  0  0  0  0  0
   10.6460   -2.7995    0.0000 H   0  0  0  0  0  0  0  0  0  0  0  0
   11.3973   -3.0293    0.0000 H   0  0  0  0  0  0  0  0  0  0  0  0
   12.0511   -2.5261    0.0000 H   0  0  0  0  0  0  0  0  0  0  0  0
   13.0403   -2.9340    0.0000 H   0  0  0  0  0  0  0  0  0  0  0  0
   13.0964   -4.9618    0.0000 H   0  0  0  0  0  0  0  0  0  0  0  0
   13.9443   -4.3091    0.0000 H   0  0  0  0  0  0  0  0  0  0  0  0
   13.4675   -2.3374    0.0000 H   0  0  0  0  0  0  0  0  0  0  0  0
   14.4567   -2.7453    0.0000 H   0  0  0  0  0  0  0  0  0  0  0  0
   14.5128   -4.7731    0.0000 H   0  0  0  0  0  0  0  0  0  0  0  0
   15.3607   -4.1204    0.0000 H   0  0  0  0  0  0  0  0  0  0  0  0
   15.9682   -3.5982    0.0000 H   0  0  0  0  0  0  0  0  0  0  0  0
   14.8905   -2.1982    0.0000 H   0  0  0  0  0  0  0  0  0  0  0  0
   10.0837   -5.0357    0.0000 H   0  0  0  0  0  0  0  0  0  0  0  0
   11.1240   -6.3869    0.0000 H   0  0  0  0  0  0  0  0  0  0  0  0
    2.9256   -3.6255    0.0000 H   0  0  0  0  0  0  0  0  0  0  0  0
    1.5257   -4.7033    0.0000 H   0  0  0  0  0  0  0  0  0  0  0  0
  1  2  1  0  0  0  0
  1 53  1  0  0  0  0
  1 54  1  0  0  0  0
  1 55  1  0  0  0  0
  2  3  1  0  0  0  0
  2  4  1  0  0  0  0
  2 52  1  0  0  0  0
  3 56  1  0  0  0  0
  3 57  1  0  0  0  0
  3 58  1  0  0  0  0
  4  5  2  0  0  0  0
  4  6  1  0  0  0  0
  6 59  1  0  0  0  0
  7  6  1  0  0  0  0
  7  8  1  0  0  0  0
  7 14  1  0  0  0  0
  7 60  1  6  0  0  0
  8  9  1  0  0  0  0
  8 61  1  0  0  0  0
  8 62  1  0  0  0  0
  9 10  2  0  0  0  0
  9 13  1  0  0  0  0
 10 11  1  0  0  0  0
 10 63  1  0  0  0  0
 11 12  1  0  0  0  0
 11 64  1  0  0  0  0
 12 13  2  0  0  0  0
 12 65  1  0  0  0  0
 14 15  2  0  0  0  0
 14 16  1  0  0  0  0
 16 66  1  0  0  0  0
 17 16  1  0  0  0  0
 17 18  1  0  0  0  0
 17 29  1  0  0  0  0
 17 67  1  6  0  0  0
 18 19  1  0  0  0  0
 18 68  1  0  0  0  0
 18 69  1  0  0  0  0
 19 20  2  0  0  0  0
 19 28  1  0  0  0  0
 20 21  1  0  0  0  0
 20 70  1  0  0  0  0
 21 22  2  0  0  0  0
 21 71  1  0  0  0  0
 22 23  1  0  0  0  0
 22 27  1  0  0  0  0
 23 24  2  0  0  0  0
 23 72  1  0  0  0  0
 24 25  1  0  0  0  0
 24 73  1  0  0  0  0
 25 26  2  0  0  0  0
 25 74  1  0  0  0  0
 26 27  1  0  0  0  0
 26 75  1  0  0  0  0
 27 28  2  0  0  0  0
 28 76  1  0  0  0  0
 29 30  2  0  0  0  0
 29 31  1  0  0  0  0
 31 77  1  0  0  0  0
 32 31  1  0  0  0  0
 32 33  1  0  0  0  0
 32 40  1  0  0  0  0
 32 78  1  1  0  0  0
 33 34  1  0  0  0  0
 33 79  1  0  0  0  0
 33 80  1  0  0  0  0
 34 35  2  0  0  0  0
 34 39  1  0  0  0  0
 35 36  1  0  0  0  0
 35 81  1  0  0  0  0
 36 37  2  0  0  0  0
 36 82  1  0  0  0  0
 37 38  1  0  0  0  0
 37 83  1  0  0  0  0
 38 39  2  0  0  0  0
 38 84  1  0  0  0  0
 39 85  1  0  0  0  0
 40 41  2  0  0  0  0
 40 42  1  0  0  0  0
 42 86  1  0  0  0  0
 43 42  1  0  0  0  0
 43 44  1  0  0  0  0
 43 49  1  0  0  0  0
 43 87  1  6  0  0  0
 44 45  1  0  0  0  0
 44 88  1  0  0  0  0
 44 89  1  0  0  0  0
 45 46  1  0  0  0  0
 45 90  1  0  0  0  0
 45 91  1  0  0  0  0
 46 47  1  0  0  0  0
 46 92  1  0  0  0  0
 46 93  1  0  0  0  0
 47 48  1  0  0  0  0
 47 94  1  0  0  0  0
 47 95  1  0  0  0  0
 48 96  1  0  0  0  0
 48 97  1  0  0  0  0
 49 50  2  0  0  0  0
 49 51  1  0  0  0  0
 51 98  1  0  0  0  0
 51 99  1  0  0  0  0
 52100  1  0  0  0  0
 52101  1  0  0  0  0
M  END
>  <DRUGBANK_ID>
DB12370

>  <COMMON_NAME>
Ipamorelin

>  <CAS_NUMBER>
170851-70-4

>  <UNII>
Y9M3S784Z6

>  <SYNONYMS>
Ipamorelin

$$$$
