
 OpenBabel10282417072D

 39 41  0  0  0  0  0  0  0  0999 V2000
   -2.1435   -0.4125    0.0000 C   0  0  0  0  0  0  0  0  0  0  0  0
   -2.8579   -0.8251    0.0000 C   0  0  0  0  0  0  0  0  0  0  0  0
   -2.8579   -1.6500    0.0000 C   0  0  0  0  0  0  0  0  0  0  0  0
   -2.1435   -2.0625    0.0000 C   0  0  0  0  0  0  0  0  0  0  0  0
   -1.4289   -0.8251    0.0000 C   0  0  0  0  0  0  0  0  0  0  0  0
   -1.4289   -1.6500    0.0000 C   0  0  0  0  0  0  0  0  0  0  0  0
    0.0000   -0.8251    0.0000 C   0  0  0  0  0  0  0  0  0  0  0  0
    1.4289   -0.8251    0.0000 C   0  0  0  0  0  0  0  0  0  0  0  0
    2.8579   -0.8251    0.0000 C   0  0  0  0  0  0  0  0  0  0  0  0
    0.7145   -0.4125    0.0000 C   0  0  1  0  0  0  0  0  0  0  0  0
    0.7145    0.4125    0.0000 C   0  0  0  0  0  0  0  0  0  0  0  0
    0.7145    2.0625    0.0000 C   0  0  0  0  0  0  0  0  0  0  0  0
    0.0000    1.6499    0.0000 C   0  0  0  0  0  0  0  0  0  0  0  0
    0.0000    0.8250    0.0000 C   0  0  0  0  0  0  0  0  0  0  0  0
    1.4289    0.8250    0.0000 C   0  0  0  0  0  0  0  0  0  0  0  0
    1.4289    1.6499    0.0000 C   0  0  0  0  0  0  0  0  0  0  0  0
   -0.7145   -0.4125    0.0000 C   0  0  0  0  0  0  0  0  0  0  0  0
   -0.7145    0.4125    0.0000 O   0  0  0  0  0  0  0  0  0  0  0  0
   -0.7145   -2.0625    0.0000 O   0  0  0  0  0  0  0  0  0  0  0  0
    0.0000   -1.6500    0.0000 C   0  0  0  0  0  0  0  0  0  0  0  0
    0.7145   -2.0625    0.0000 O   0  0  0  0  0  0  0  0  0  0  0  0
    2.1435   -0.4125    0.0000 C   0  0  0  0  0  0  0  0  0  0  0  0
    2.1435    0.4125    0.0000 O   0  0  0  0  0  0  0  0  0  0  0  0
   -2.1436    0.6195    0.0000 H   0  0  0  0  0  0  0  0  0  0  0  0
   -3.7517   -0.3092    0.0000 H   0  0  0  0  0  0  0  0  0  0  0  0
   -3.7516   -2.1660    0.0000 H   0  0  0  0  0  0  0  0  0  0  0  0
   -2.1436   -3.0945    0.0000 H   0  0  0  0  0  0  0  0  0  0  0  0
    1.4288   -1.8951    0.0000 H   0  0  0  0  0  0  0  0  0  0  0  0
    2.3555   -1.3601    0.0000 H   0  0  0  0  0  0  0  0  0  0  0  0
    2.8577   -1.8951    0.0000 H   0  0  0  0  0  0  0  0  0  0  0  0
    3.7846   -0.2902    0.0000 H   0  0  0  0  0  0  0  0  0  0  0  0
    3.7845   -1.3602    0.0000 H   0  0  0  0  0  0  0  0  0  0  0  0
   -0.2122    0.1225    0.0000 H   0  0  0  0  0  0  0  0  0  0  0  0
    0.7145    3.0945    0.0000 H   0  0  0  0  0  0  0  0  0  0  0  0
   -0.8938    2.1659    0.0000 H   0  0  0  0  0  0  0  0  0  0  0  0
   -0.8937    0.3090    0.0000 H   0  0  0  0  0  0  0  0  0  0  0  0
    2.3226    0.3090    0.0000 H   0  0  0  0  0  0  0  0  0  0  0  0
    2.3227    2.1658    0.0000 H   0  0  0  0  0  0  0  0  0  0  0  0
    0.0970    0.8810    0.0000 H   0  0  0  0  0  0  0  0  0  0  0  0
  1  2  2  0  0  0  0
  1  5  1  0  0  0  0
  1 24  1  0  0  0  0
  2  3  1  0  0  0  0
  2 25  1  0  0  0  0
  3  4  2  0  0  0  0
  3 26  1  0  0  0  0
  4  6  1  0  0  0  0
  4 27  1  0  0  0  0
  6  5  2  0  0  0  0
  6 19  1  0  0  0  0
  7 10  1  0  0  0  0
  8 22  1  0  0  0  0
  8 28  1  0  0  0  0
  8 29  1  0  0  0  0
  9 30  1  0  0  0  0
  9 31  1  0  0  0  0
  9 32  1  0  0  0  0
 10  8  1  0  0  0  0
 10 11  1  0  0  0  0
 10 33  1  1  0  0  0
 11 15  1  0  0  0  0
 12 13  2  0  0  0  0
 12 16  1  0  0  0  0
 12 34  1  0  0  0  0
 13 14  1  0  0  0  0
 13 35  1  0  0  0  0
 14 11  2  0  0  0  0
 14 36  1  0  0  0  0
 15 16  2  0  0  0  0
 15 37  1  0  0  0  0
 16 38  1  0  0  0  0
 17  5  1  0  0  0  0
 17  7  2  0  0  0  0
 17 18  1  0  0  0  0
 18 39  1  0  0  0  0
 19 20  1  0  0  0  0
 20  7  1  0  0  0  0
 20 21  2  0  0  0  0
 22  9  1  0  0  0  0
 22 23  2  0  0  0  0
M  END
>  <DRUGBANK_ID>
DB14055

>  <SECONDARY_ACCESSION_NUMBERS>
EXPT02984; DB02507

>  <COMMON_NAME>
(S)-Warfarin

>  <CAS_NUMBER>
5543-57-7

>  <UNII>
HP31W7FNP4

>  <SYNONYMS>
(-)-Warfarin; (S)-4-Hydroxy-3-(3-oxo-1-phenylbutyl)-2-benzopyrone; 4-hydroxy-3-[(1S)-3-oxo-1-phenylbutyl]-2H-chromen-2-one; Levrowarfarin; S-Warfarin

$$$$
