
 OpenBabel10282417072D

 75 79  0  0  0  0  0  0  0  0999 V2000
    2.8579   -2.4750    0.0000 C   0  0  0  0  0  0  0  0  0  0  0  0
    2.1434   -2.8875    0.0000 O   0  0  0  0  0  0  0  0  0  0  0  0
    1.4289   -2.4750    0.0000 C   0  0  0  0  0  0  0  0  0  0  0  0
    0.7145   -2.8875    0.0000 C   0  0  0  0  0  0  0  0  0  0  0  0
    0.7145   -3.7125    0.0000 N   0  0  0  0  0  0  0  0  0  0  0  0
    1.4289   -4.1250    0.0000 C   0  0  0  0  0  0  0  0  0  0  0  0
    2.1434   -3.7125    0.0000 N   0  0  0  0  0  0  0  0  0  0  0  0
    2.8579   -4.1250    0.0000 C   0  0  0  0  0  0  0  0  0  0  0  0
    2.8579   -4.9500    0.0000 C   0  0  0  0  0  0  0  0  0  0  0  0
    2.1434   -5.3625    0.0000 C   0  0  0  0  0  0  0  0  0  0  0  0
    1.4289   -4.9500    0.0000 N   0  0  0  0  0  0  0  0  0  0  0  0
    2.1434   -6.1875    0.0000 N   0  0  0  0  0  0  0  0  0  0  0  0
    2.8109   -6.6724    0.0000 C   0  0  0  0  0  0  0  0  0  0  0  0
    2.5559   -7.4570    0.0000 C   0  0  0  0  0  0  0  0  0  0  0  0
    3.0408   -8.1245    0.0000 C   0  0  0  0  0  0  0  0  0  0  0  0
    3.8613   -8.0382    0.0000 N   0  0  0  0  0  0  0  0  0  0  0  0
    4.1969   -7.2846    0.0000 C   0  0  0  0  0  0  0  0  0  0  0  0
    4.3462   -8.7057    0.0000 C   0  0  0  0  0  0  0  0  0  0  0  0
    1.7309   -7.4570    0.0000 C   0  0  0  0  0  0  0  0  0  0  0  0
    1.4760   -6.6724    0.0000 N   0  0  0  0  0  0  0  0  0  0  0  0
    1.2460   -8.1245    0.0000 C   0  0  0  0  0  0  0  0  0  0  0  0
    1.5815   -8.8782    0.0000 C   0  0  0  0  0  0  0  0  0  0  0  0
    1.0966   -9.5456    0.0000 C   0  0  0  0  0  0  0  0  0  0  0  0
    0.2761   -9.4594    0.0000 C   0  0  0  0  0  0  0  0  0  0  0  0
   -0.0594   -8.7057    0.0000 C   0  0  0  0  0  0  0  0  0  0  0  0
    0.4255   -8.0382    0.0000 C   0  0  0  0  0  0  0  0  0  0  0  0
    0.0000   -2.4750    0.0000 C   0  0  0  0  0  0  0  0  0  0  0  0
    0.0000   -1.6500    0.0000 C   0  0  0  0  0  0  0  0  0  0  0  0
   -0.7145   -1.2375    0.0000 N   0  0  0  0  0  0  0  0  0  0  0  0
   -1.4289   -1.6500    0.0000 C   0  0  0  0  0  0  0  0  0  0  0  0
   -2.1434   -1.2375    0.0000 O   0  0  0  0  0  0  0  0  0  0  0  0
   -1.4289   -2.4750    0.0000 C   0  0  0  0  0  0  0  0  0  0  0  0
   -2.1434   -2.8875    0.0000 C   0  0  0  0  0  0  0  0  0  0  0  0
    0.7145   -1.2375    0.0000 C   0  0  0  0  0  0  0  0  0  0  0  0
    1.4289   -1.6500    0.0000 C   0  0  0  0  0  0  0  0  0  0  0  0
    0.7145   -0.4125    0.0000 N   0  0  0  0  0  0  0  0  0  0  0  0
    0.0000    0.0000    0.0000 C   0  0  0  0  0  0  0  0  0  0  0  0
    0.0000    0.8250    0.0000 C   0  0  0  0  0  0  0  0  0  0  0  0
    0.7145    1.2375    0.0000 O   0  0  0  0  0  0  0  0  0  0  0  0
    1.4289    0.8250    0.0000 C   0  0  0  0  0  0  0  0  0  0  0  0
    1.4289    0.0000    0.0000 C   0  0  0  0  0  0  0  0  0  0  0  0
    3.7845   -3.0100    0.0000 H   0  0  0  0  0  0  0  0  0  0  0  0
    2.8579   -1.4050    0.0000 H   0  0  0  0  0  0  0  0  0  0  0  0
    3.7846   -1.9400    0.0000 H   0  0  0  0  0  0  0  0  0  0  0  0
   -0.1381   -4.2047    0.0000 H   0  0  0  0  0  0  0  0  0  0  0  0
    3.7516   -3.6090    0.0000 H   0  0  0  0  0  0  0  0  0  0  0  0
    3.7516   -5.4660    0.0000 H   0  0  0  0  0  0  0  0  0  0  0  0
    3.7924   -6.3535    0.0000 H   0  0  0  0  0  0  0  0  0  0  0  0
    2.6056   -9.1020    0.0000 H   0  0  0  0  0  0  0  0  0  0  0  0
    3.6698   -8.9901    0.0000 H   0  0  0  0  0  0  0  0  0  0  0  0
    5.2610   -7.1728    0.0000 H   0  0  0  0  0  0  0  0  0  0  0  0
    3.5680   -6.4189    0.0000 H   0  0  0  0  0  0  0  0  0  0  0  0
    4.6322   -6.3071    0.0000 H   0  0  0  0  0  0  0  0  0  0  0  0
    3.9109   -9.6832    0.0000 H   0  0  0  0  0  0  0  0  0  0  0  0
    5.4103   -8.5939    0.0000 H   0  0  0  0  0  0  0  0  0  0  0  0
    4.9751   -9.5714    0.0000 H   0  0  0  0  0  0  0  0  0  0  0  0
    2.6078   -8.9861    0.0000 H   0  0  0  0  0  0  0  0  0  0  0  0
    1.5164  -10.4884    0.0000 H   0  0  0  0  0  0  0  0  0  0  0  0
   -0.3305  -10.2943    0.0000 H   0  0  0  0  0  0  0  0  0  0  0  0
   -1.0857   -8.5978    0.0000 H   0  0  0  0  0  0  0  0  0  0  0  0
    0.0058   -7.0954    0.0000 H   0  0  0  0  0  0  0  0  0  0  0  0
   -0.8937   -2.9910    0.0000 H   0  0  0  0  0  0  0  0  0  0  0  0
   -0.7145   -0.2530    0.0000 H   0  0  0  0  0  0  0  0  0  0  0  0
   -0.5352   -2.9910    0.0000 H   0  0  0  0  0  0  0  0  0  0  0  0
   -3.0371   -2.3715    0.0000 H   0  0  0  0  0  0  0  0  0  0  0  0
   -2.1434   -3.9195    0.0000 H   0  0  0  0  0  0  0  0  0  0  0  0
    2.3226   -1.1340    0.0000 H   0  0  0  0  0  0  0  0  0  0  0  0
   -0.9266   -0.5350    0.0000 H   0  0  0  0  0  0  0  0  0  0  0  0
   -0.9266    0.5350    0.0000 H   0  0  0  0  0  0  0  0  0  0  0  0
   -0.9266    1.3600    0.0000 H   0  0  0  0  0  0  0  0  0  0  0  0
    0.0000    1.8950    0.0000 H   0  0  0  0  0  0  0  0  0  0  0  0
    2.3556    1.3600    0.0000 H   0  0  0  0  0  0  0  0  0  0  0  0
    2.3555    0.2900    0.0000 H   0  0  0  0  0  0  0  0  0  0  0  0
    2.3556   -0.5350    0.0000 H   0  0  0  0  0  0  0  0  0  0  0  0
    1.4289   -1.0700    0.0000 H   0  0  0  0  0  0  0  0  0  0  0  0
  1  2  1  0  0  0  0
  1 42  1  0  0  0  0
  1 43  1  0  0  0  0
  1 44  1  0  0  0  0
  2  3  1  0  0  0  0
  3  4  2  0  0  0  0
  3 35  1  0  0  0  0
  4  5  1  0  0  0  0
  4 27  1  0  0  0  0
  5  6  1  0  0  0  0
  5 45  1  0  0  0  0
  6  7  2  0  0  0  0
  6 11  1  0  0  0  0
  7  8  1  0  0  0  0
  8  9  2  0  0  0  0
  8 46  1  0  0  0  0
  9 10  1  0  0  0  0
  9 47  1  0  0  0  0
 10 11  2  0  0  0  0
 10 12  1  0  0  0  0
 12 13  1  0  0  0  0
 12 20  1  0  0  0  0
 13 14  2  0  0  0  0
 13 48  1  0  0  0  0
 14 15  1  0  0  0  0
 14 19  1  0  0  0  0
 15 16  1  0  0  0  0
 15 49  1  0  0  0  0
 15 50  1  0  0  0  0
 16 17  1  0  0  0  0
 16 18  1  0  0  0  0
 17 51  1  0  0  0  0
 17 52  1  0  0  0  0
 17 53  1  0  0  0  0
 18 54  1  0  0  0  0
 18 55  1  0  0  0  0
 18 56  1  0  0  0  0
 19 20  2  0  0  0  0
 19 21  1  0  0  0  0
 21 22  2  0  0  0  0
 21 26  1  0  0  0  0
 22 23  1  0  0  0  0
 22 57  1  0  0  0  0
 23 24  2  0  0  0  0
 23 58  1  0  0  0  0
 24 25  1  0  0  0  0
 24 59  1  0  0  0  0
 25 26  2  0  0  0  0
 25 60  1  0  0  0  0
 26 61  1  0  0  0  0
 27 28  2  0  0  0  0
 27 62  1  0  0  0  0
 28 29  1  0  0  0  0
 28 34  1  0  0  0  0
 29 30  1  0  0  0  0
 29 63  1  0  0  0  0
 30 31  2  0  0  0  0
 30 32  1  0  0  0  0
 32 33  2  0  0  0  0
 32 64  1  0  0  0  0
 33 65  1  0  0  0  0
 33 66  1  0  0  0  0
 34 35  2  0  0  0  0
 34 36  1  0  0  0  0
 35 67  1  0  0  0  0
 36 37  1  0  0  0  0
 36 41  1  0  0  0  0
 37 38  1  0  0  0  0
 37 68  1  0  0  0  0
 37 69  1  0  0  0  0
 38 39  1  0  0  0  0
 38 70  1  0  0  0  0
 38 71  1  0  0  0  0
 39 40  1  0  0  0  0
 40 41  1  0  0  0  0
 40 72  1  0  0  0  0
 40 73  1  0  0  0  0
 41 74  1  0  0  0  0
 41 75  1  0  0  0  0
M  END
>  <DRUGBANK_ID>
DB16216

>  <COMMON_NAME>
Lazertinib

>  <CAS_NUMBER>
1903008-80-9

>  <UNII>
4A2Y23XK11

>  <SYNONYMS>
Lazertinib

$$$$
