78P
 OpenBabel10282417072D

 34 36  0  0  0  0  0  0  0  0999 V2000
    1.2549    0.2312    0.0000 C   0  0  0  0  0  0  0  0  0  0  0  0
    1.9694    0.6437    0.0000 C   0  0  0  0  0  0  0  0  0  0  0  0
    2.6838    0.2312    0.0000 C   0  0  0  0  0  0  0  0  0  0  0  0
   -0.0147   -0.1813    0.0000 C   0  0  0  0  0  0  0  0  0  0  0  0
    1.9694    1.4687    0.0000 C   0  0  0  0  0  0  0  0  0  0  0  0
   -0.8397   -0.1813    0.0000 C   0  0  1  0  0  0  0  0  0  0  0  0
   -2.1482   -0.4451    0.0000 C   0  0  0  0  0  0  0  0  0  0  0  0
   -0.9345   -1.0008    0.0000 C   0  0  0  0  0  0  0  0  0  0  0  0
    2.6838   -0.5938    0.0000 C   0  0  0  0  0  0  0  0  0  0  0  0
    1.9694   -1.0063    0.0000 C   0  0  0  0  0  0  0  0  0  0  0  0
    1.2549   -0.5938    0.0000 C   0  0  0  0  0  0  0  0  0  0  0  0
    0.4703   -0.8487    0.0000 N   0  0  0  0  0  0  0  0  0  0  0  0
    0.4703    0.4861    0.0000 N   0  0  0  0  0  0  0  0  0  0  0  0
    1.2549    1.8812    0.0000 N   0  0  0  0  0  0  0  0  0  0  0  0
    2.6838    1.8812    0.0000 O   0  0  0  0  0  0  0  0  0  0  0  0
   -1.5898    0.1621    0.0000 N   0  0  0  0  0  0  0  0  0  0  0  0
   -1.7432   -1.1639    0.0000 C   0  0  0  0  0  0  0  0  0  0  0  0
   -0.4123    0.5244    0.0000 C   0  0  0  0  0  0  0  0  0  0  0  0
    3.5775    0.7472    0.0000 H   0  0  0  0  0  0  0  0  0  0  0  0
   -3.2111   -0.3221    0.0000 H   0  0  0  0  0  0  0  0  0  0  0  0
   -2.5211    0.5578    0.0000 H   0  0  0  0  0  0  0  0  0  0  0  0
   -0.1469   -1.7250    0.0000 H   0  0  0  0  0  0  0  0  0  0  0  0
   -1.2222   -2.0314    0.0000 H   0  0  0  0  0  0  0  0  0  0  0  0
    3.5775   -1.1098    0.0000 H   0  0  0  0  0  0  0  0  0  0  0  0
    1.9694   -2.0383    0.0000 H   0  0  0  0  0  0  0  0  0  0  0  0
    0.1661    1.4224    0.0000 H   0  0  0  0  0  0  0  0  0  0  0  0
    1.2549    2.8657    0.0000 H   0  0  0  0  0  0  0  0  0  0  0  0
    0.4023    1.3889    0.0000 H   0  0  0  0  0  0  0  0  0  0  0  0
   -1.7914    1.1620    0.0000 H   0  0  0  0  0  0  0  0  0  0  0  0
   -2.1886   -2.1368    0.0000 H   0  0  0  0  0  0  0  0  0  0  0  0
   -1.0785   -2.0024    0.0000 H   0  0  0  0  0  0  0  0  0  0  0  0
    0.6575    0.5020    0.0000 H   0  0  0  0  0  0  0  0  0  0  0  0
   -0.9278    1.4621    0.0000 H   0  0  0  0  0  0  0  0  0  0  0  0
    0.1420    1.4396    0.0000 H   0  0  0  0  0  0  0  0  0  0  0  0
  1  2  2  0  0  0  0
  2  3  1  0  0  0  0
  2  5  1  0  0  0  0
  3 19  1  0  0  0  0
  4 13  1  0  0  0  0
  5 15  2  0  0  0  0
  6  8  1  0  0  0  0
  6 16  1  0  0  0  0
  6  4  1  0  0  0  0
  6 18  1  6  0  0  0
  7 17  1  0  0  0  0
  7 20  1  0  0  0  0
  7 21  1  0  0  0  0
  8 17  1  0  0  0  0
  8 22  1  0  0  0  0
  8 23  1  0  0  0  0
  9  3  2  0  0  0  0
  9 24  1  0  0  0  0
 10  9  1  0  0  0  0
 10 25  1  0  0  0  0
 11 10  2  0  0  0  0
 11  1  1  0  0  0  0
 12  4  2  0  0  0  0
 12 11  1  0  0  0  0
 13  1  1  0  0  0  0
 13 26  1  0  0  0  0
 14  5  1  0  0  0  0
 14 27  1  0  0  0  0
 14 28  1  0  0  0  0
 16  7  1  0  0  0  0
 16 29  1  0  0  0  0
 17 30  1  0  0  0  0
 17 31  1  0  0  0  0
 18 32  1  0  0  0  0
 18 33  1  0  0  0  0
 18 34  1  0  0  0  0
M  END
>  <DRUGBANK_ID>
DB07232

>  <COMMON_NAME>
Veliparib

>  <CAS_NUMBER>
912444-00-9

>  <UNII>
01O4K0631N

>  <SYNONYMS>
(2R)-2-(7-carbamoyl-1H-benzimidazol-2-yl)-2-methylpyrrolidinium; 2-((2R)-2-methylpyrrolidin-2-yl)-1H-benzimidazole-4-carboxamide; 2-[(R)-2-methylpyrrolidin-2-yl]-1H-benzimadazole-4-carboxamide; Veliparib

$$$$
