
 OpenBabel10282417072D

 31 32  0  0  0  0  0  0  0  0999 V2000
    1.7861   -0.2062    0.0000 C   0  0  0  0  0  0  0  0  0  0  0  0
    1.0716    0.2062    0.0000 C   0  0  0  0  0  0  0  0  0  0  0  0
    1.0716    1.0312    0.0000 C   0  0  0  0  0  0  0  0  0  0  0  0
    1.7861    1.4437    0.0000 N   0  0  0  0  0  0  0  0  0  0  0  0
    2.5006    1.0312    0.0000 C   0  0  0  0  0  0  0  0  0  0  0  0
    2.5006    0.2062    0.0000 C   0  0  0  0  0  0  0  0  0  0  0  0
   -1.0717   -0.2062    0.0000 C   0  0  0  0  0  0  0  0  0  0  0  0
   -0.3572    0.2062    0.0000 C   0  0  0  0  0  0  0  0  0  0  0  0
   -1.7862    0.2062    0.0000 C   0  0  0  0  0  0  0  0  0  0  0  0
   -1.0717   -1.0312    0.0000 C   0  0  0  0  0  0  0  0  0  0  0  0
   -0.3572    1.0312    0.0000 O   0  0  0  0  0  0  0  0  0  0  0  0
   -2.5006   -0.2062    0.0000 C   0  0  0  0  0  0  0  0  0  0  0  0
   -1.7862   -1.4437    0.0000 N   0  0  0  0  0  0  0  0  0  0  0  0
   -2.5006   -1.0312    0.0000 C   0  0  0  0  0  0  0  0  0  0  0  0
    0.3572   -0.2062    0.0000 C   0  0  0  0  0  0  0  0  0  0  0  0
    0.7697   -0.9206    0.0000 C   0  0  0  0  0  0  0  0  0  0  0  0
   -0.0552   -0.9206    0.0000 C   0  0  0  0  0  0  0  0  0  0  0  0
    1.7861   -1.2382    0.0000 H   0  0  0  0  0  0  0  0  0  0  0  0
    0.1779    1.5472    0.0000 H   0  0  0  0  0  0  0  0  0  0  0  0
    3.3943    1.5472    0.0000 H   0  0  0  0  0  0  0  0  0  0  0  0
    3.3943   -0.3099    0.0000 H   0  0  0  0  0  0  0  0  0  0  0  0
   -1.7862    1.2382    0.0000 H   0  0  0  0  0  0  0  0  0  0  0  0
   -0.1780   -1.5472    0.0000 H   0  0  0  0  0  0  0  0  0  0  0  0
   -3.3943    0.3098    0.0000 H   0  0  0  0  0  0  0  0  0  0  0  0
   -3.3943   -1.5472    0.0000 H   0  0  0  0  0  0  0  0  0  0  0  0
    0.2347   -1.8473    0.0000 H   0  0  0  0  0  0  0  0  0  0  0  0
    1.8397   -0.9206    0.0000 H   0  0  0  0  0  0  0  0  0  0  0  0
    1.3047   -1.8472    0.0000 H   0  0  0  0  0  0  0  0  0  0  0  0
   -1.1252   -0.9207    0.0000 H   0  0  0  0  0  0  0  0  0  0  0  0
    0.4799   -1.8472    0.0000 H   0  0  0  0  0  0  0  0  0  0  0  0
   -0.5901   -1.8473    0.0000 H   0  0  0  0  0  0  0  0  0  0  0  0
  1  6  1  0  0  0  0
  1 18  1  0  0  0  0
  2  1  2  0  0  0  0
  2  3  1  0  0  0  0
  3  4  2  0  0  0  0
  3 19  1  0  0  0  0
  4  5  1  0  0  0  0
  5 20  1  0  0  0  0
  6  5  2  0  0  0  0
  6 21  1  0  0  0  0
  7  8  1  0  0  0  0
  7  9  1  0  0  0  0
  7 10  2  0  0  0  0
  8 15  1  0  0  0  0
  8 11  2  0  0  0  0
  9 12  2  0  0  0  0
  9 22  1  0  0  0  0
 10 13  1  0  0  0  0
 10 23  1  0  0  0  0
 12 14  1  0  0  0  0
 12 24  1  0  0  0  0
 13 14  2  0  0  0  0
 14 25  1  0  0  0  0
 15  2  1  0  0  0  0
 15 16  1  0  0  0  0
 15 17  1  0  0  0  0
 16 26  1  0  0  0  0
 16 27  1  0  0  0  0
 16 28  1  0  0  0  0
 17 29  1  0  0  0  0
 17 30  1  0  0  0  0
 17 31  1  0  0  0  0
M  END
>  <DRUGBANK_ID>
DB01011

>  <SECONDARY_ACCESSION_NUMBERS>
APRD01111; EXPT02271

>  <COMMON_NAME>
Metyrapone

>  <CAS_NUMBER>
54-36-4

>  <UNII>
ZS9KD92H6V

>  <SYNONYMS>
Metirapona; MÃ©tyrapone; Metyrapone; Metyraponum

$$$$
