
 OpenBabel10282417072D

 56 57  0  0  0  0  0  0  0  0999 V2000
   -3.6585    1.8883    0.0000 C   0  0  0  0  0  0  0  0  0  0  0  0
   -3.2460    1.1738    0.0000 C   0  0  0  0  0  0  0  0  0  0  0  0
   -2.4211    1.1737    0.0000 C   0  0  0  0  0  0  0  0  0  0  0  0
   -2.0085    0.4593    0.0000 C   0  0  0  0  0  0  0  0  0  0  0  0
   -1.1836    0.4592    0.0000 C   0  0  0  0  0  0  0  0  0  0  0  0
   -0.6986    1.1266    0.0000 N   0  0  0  0  0  0  0  0  0  0  0  0
    0.0860    0.8717    0.0000 C   0  0  0  0  0  0  0  0  0  0  0  0
    0.0860    0.0467    0.0000 C   0  0  0  0  0  0  0  0  0  0  0  0
   -0.6986   -0.2081    0.0000 N   0  0  0  0  0  0  0  0  0  0  0  0
   -0.9535   -0.9928    0.0000 C   0  0  0  0  0  0  0  0  0  0  0  0
   -1.7606   -1.1643    0.0000 C   0  0  0  0  0  0  0  0  0  0  0  0
   -2.0156   -1.9489    0.0000 N   0  0  0  0  0  0  0  0  0  0  0  0
   -2.8225   -2.1205    0.0000 C   0  0  0  0  0  0  0  0  0  0  0  0
   -3.0776   -2.9050    0.0000 C   0  0  0  0  0  0  0  0  0  0  0  0
   -1.4635   -2.5620    0.0000 C   0  0  0  0  0  0  0  0  0  0  0  0
   -1.7184   -3.3467    0.0000 C   0  0  0  0  0  0  0  0  0  0  0  0
    0.8005   -0.3657    0.0000 C   0  0  0  0  0  0  0  0  0  0  0  0
    1.5150    0.0466    0.0000 C   0  0  0  0  0  0  0  0  0  0  0  0
    1.5150    0.8716    0.0000 C   0  0  0  0  0  0  0  0  0  0  0  0
    0.8005    1.2842    0.0000 C   0  0  0  0  0  0  0  0  0  0  0  0
    2.2294    1.2841    0.0000 C   0  0  0  0  0  0  0  0  0  0  0  0
    2.2296    2.1092    0.0000 C   0  0  0  0  0  0  0  0  0  0  0  0
    2.9441    2.5217    0.0000 C   0  0  0  0  0  0  0  0  0  0  0  0
    2.9442    3.3467    0.0000 O   0  0  0  0  0  0  0  0  0  0  0  0
    3.6585    2.1091    0.0000 N   0  0  0  0  0  0  0  0  0  0  0  0
    3.6584    1.2840    0.0000 O   0  0  0  0  0  0  0  0  0  0  0  0
   -3.1235    2.8149    0.0000 H   0  0  0  0  0  0  0  0  0  0  0  0
   -4.7285    1.8883    0.0000 H   0  0  0  0  0  0  0  0  0  0  0  0
   -4.1935    2.8150    0.0000 H   0  0  0  0  0  0  0  0  0  0  0  0
   -3.7811    0.2472    0.0000 H   0  0  0  0  0  0  0  0  0  0  0  0
   -2.7111    0.2471    0.0000 H   0  0  0  0  0  0  0  0  0  0  0  0
   -1.8861    2.1004    0.0000 H   0  0  0  0  0  0  0  0  0  0  0  0
   -1.3511    1.1738    0.0000 H   0  0  0  0  0  0  0  0  0  0  0  0
   -2.5435   -0.4674    0.0000 H   0  0  0  0  0  0  0  0  0  0  0  0
   -1.4735   -0.4674    0.0000 H   0  0  0  0  0  0  0  0  0  0  0  0
   -0.2375   -1.7880    0.0000 H   0  0  0  0  0  0  0  0  0  0  0  0
   -1.2842   -2.0104    0.0000 H   0  0  0  0  0  0  0  0  0  0  0  0
   -2.4765   -0.3691    0.0000 H   0  0  0  0  0  0  0  0  0  0  0  0
   -2.8072   -1.3867    0.0000 H   0  0  0  0  0  0  0  0  0  0  0  0
   -3.5384   -1.3253    0.0000 H   0  0  0  0  0  0  0  0  0  0  0  0
   -3.8692   -2.3428    0.0000 H   0  0  0  0  0  0  0  0  0  0  0  0
   -4.1243   -3.1272    0.0000 H   0  0  0  0  0  0  0  0  0  0  0  0
   -2.3618   -3.7003    0.0000 H   0  0  0  0  0  0  0  0  0  0  0  0
   -3.4085   -3.9226    0.0000 H   0  0  0  0  0  0  0  0  0  0  0  0
   -0.4169   -2.3395    0.0000 H   0  0  0  0  0  0  0  0  0  0  0  0
   -0.7475   -3.3571    0.0000 H   0  0  0  0  0  0  0  0  0  0  0  0
   -2.7650   -3.5692    0.0000 H   0  0  0  0  0  0  0  0  0  0  0  0
   -1.0024   -4.1418    0.0000 H   0  0  0  0  0  0  0  0  0  0  0  0
   -2.0490   -4.3644    0.0000 H   0  0  0  0  0  0  0  0  0  0  0  0
    0.8004   -1.3977    0.0000 H   0  0  0  0  0  0  0  0  0  0  0  0
    2.4087   -0.4695    0.0000 H   0  0  0  0  0  0  0  0  0  0  0  0
    0.8006    2.3162    0.0000 H   0  0  0  0  0  0  0  0  0  0  0  0
    3.1231    0.7680    0.0000 H   0  0  0  0  0  0  0  0  0  0  0  0
    1.3359    2.6253    0.0000 H   0  0  0  0  0  0  0  0  0  0  0  0
    4.5112    2.6012    0.0000 H   0  0  0  0  0  0  0  0  0  0  0  0
    2.8183    0.7991    0.0000 H   0  0  0  0  0  0  0  0  0  0  0  0
  1  2  1  0  0  0  0
  1 27  1  0  0  0  0
  1 28  1  0  0  0  0
  1 29  1  0  0  0  0
  2  3  1  0  0  0  0
  2 30  1  0  0  0  0
  2 31  1  0  0  0  0
  3  4  1  0  0  0  0
  3 32  1  0  0  0  0
  3 33  1  0  0  0  0
  4  5  1  0  0  0  0
  4 34  1  0  0  0  0
  4 35  1  0  0  0  0
  5  6  2  0  0  0  0
  6  7  1  0  0  0  0
  7  8  2  0  0  0  0
  8  9  1  0  0  0  0
  8 17  1  0  0  0  0
  9  5  1  0  0  0  0
  9 10  1  0  0  0  0
 10 11  1  0  0  0  0
 10 36  1  0  0  0  0
 10 37  1  0  0  0  0
 11 12  1  0  0  0  0
 11 38  1  0  0  0  0
 11 39  1  0  0  0  0
 12 13  1  0  0  0  0
 12 15  1  0  0  0  0
 13 14  1  0  0  0  0
 13 40  1  0  0  0  0
 13 41  1  0  0  0  0
 14 42  1  0  0  0  0
 14 43  1  0  0  0  0
 14 44  1  0  0  0  0
 15 16  1  0  0  0  0
 15 45  1  0  0  0  0
 15 46  1  0  0  0  0
 16 47  1  0  0  0  0
 16 48  1  0  0  0  0
 16 49  1  0  0  0  0
 17 18  2  0  0  0  0
 17 50  1  0  0  0  0
 18 19  1  0  0  0  0
 18 51  1  0  0  0  0
 19 20  2  0  0  0  0
 20  7  1  0  0  0  0
 20 52  1  0  0  0  0
 21 19  1  0  0  0  0
 21 22  2  0  0  0  0
 21 53  1  0  0  0  0
 22 23  1  0  0  0  0
 22 54  1  0  0  0  0
 23 24  2  0  0  0  0
 23 25  1  0  0  0  0
 25 26  1  0  0  0  0
 25 55  1  0  0  0  0
 26 56  1  0  0  0  0
M  END
>  <DRUGBANK_ID>
DB05223

>  <COMMON_NAME>
Pracinostat

>  <CAS_NUMBER>
929016-96-6

>  <UNII>
GPO2JN4UON

>  <SYNONYMS>
Pracinostat; Pracinostatum

$$$$
