1113
 OpenBabel10282417072D

 46 48  0  0  0  0  0  0  0  0999 V2000
    1.6500    0.6371    0.0000 O   0  0  0  0  0  0  0  0  0  0  0  0
    1.6500    2.2871    0.0000 O   0  0  0  0  0  0  0  0  0  0  0  0
    5.9217   -2.7079    0.0000 O   0  0  0  0  0  0  0  0  0  0  0  0
    7.3601   -1.8994    0.0000 O   0  0  0  0  0  0  0  0  0  0  0  0
    5.2785    1.0324    0.0000 N   0  0  0  0  0  0  0  0  0  0  0  0
    3.7935    1.0496    0.0000 C   0  0  0  0  0  0  0  0  0  0  0  0
    4.5215   -0.2165    0.0000 C   0  0  0  0  0  0  0  0  0  0  0  0
    4.5310    0.6084    0.0000 C   0  0  0  0  0  0  0  0  0  0  0  0
    3.7935    1.8746    0.0000 C   0  0  0  0  0  0  0  0  0  0  0  0
    5.2311   -0.6372    0.0000 C   0  0  0  0  0  0  0  0  0  0  0  0
    3.0790    0.6371    0.0000 C   0  0  0  0  0  0  0  0  0  0  0  0
    3.0790    2.2871    0.0000 C   0  0  0  0  0  0  0  0  0  0  0  0
    2.3645    1.0496    0.0000 C   0  0  0  0  0  0  0  0  0  0  0  0
    4.5310    2.3157    0.0000 C   0  0  0  0  0  0  0  0  0  0  0  0
    2.3645    1.8746    0.0000 C   0  0  0  0  0  0  0  0  0  0  0  0
    5.2216   -1.4622    0.0000 C   0  0  0  0  0  0  0  0  0  0  0  0
    5.9503   -0.2330    0.0000 C   0  0  0  0  0  0  0  0  0  0  0  0
    5.2785    1.8918    0.0000 C   0  0  0  0  0  0  0  0  0  0  0  0
    5.9313   -1.8829    0.0000 C   0  0  0  0  0  0  0  0  0  0  0  0
    6.6505   -1.4787    0.0000 C   0  0  0  0  0  0  0  0  0  0  0  0
    6.6600   -0.6537    0.0000 C   0  0  0  0  0  0  0  0  0  0  0  0
    1.6500   -0.1879    0.0000 C   0  0  0  0  0  0  0  0  0  0  0  0
    1.6500    3.1121    0.0000 C   0  0  0  0  0  0  0  0  0  0  0  0
    5.2026   -3.1121    0.0000 C   0  0  0  0  0  0  0  0  0  0  0  0
    8.0793   -1.4953    0.0000 C   0  0  0  0  0  0  0  0  0  0  0  0
    3.5887   -0.7408    0.0000 H   0  0  0  0  0  0  0  0  0  0  0  0
    4.5091   -1.2864    0.0000 H   0  0  0  0  0  0  0  0  0  0  0  0
    3.0790   -0.3949    0.0000 H   0  0  0  0  0  0  0  0  0  0  0  0
    3.0790    3.3191    0.0000 H   0  0  0  0  0  0  0  0  0  0  0  0
    4.5191    3.3476    0.0000 H   0  0  0  0  0  0  0  0  0  0  0  0
    4.3220   -1.9679    0.0000 H   0  0  0  0  0  0  0  0  0  0  0  0
    5.9622    0.7989    0.0000 H   0  0  0  0  0  0  0  0  0  0  0  0
    6.1702    2.4113    0.0000 H   0  0  0  0  0  0  0  0  0  0  0  0
    7.5596   -0.1480    0.0000 H   0  0  0  0  0  0  0  0  0  0  0  0
    0.7234   -0.7229    0.0000 H   0  0  0  0  0  0  0  0  0  0  0  0
    2.5766   -0.7229    0.0000 H   0  0  0  0  0  0  0  0  0  0  0  0
    1.6500   -1.2579    0.0000 H   0  0  0  0  0  0  0  0  0  0  0  0
    2.5766    3.6471    0.0000 H   0  0  0  0  0  0  0  0  0  0  0  0
    0.7234    3.6471    0.0000 H   0  0  0  0  0  0  0  0  0  0  0  0
    1.6500    4.1821    0.0000 H   0  0  0  0  0  0  0  0  0  0  0  0
    4.2822   -2.5665    0.0000 H   0  0  0  0  0  0  0  0  0  0  0  0
    5.1903   -4.1820    0.0000 H   0  0  0  0  0  0  0  0  0  0  0  0
    4.2699   -3.6364    0.0000 H   0  0  0  0  0  0  0  0  0  0  0  0
    8.9996   -2.0411    0.0000 H   0  0  0  0  0  0  0  0  0  0  0  0
    8.0918   -0.4254    0.0000 H   0  0  0  0  0  0  0  0  0  0  0  0
    9.0121   -0.9712    0.0000 H   0  0  0  0  0  0  0  0  0  0  0  0
  1 13  1  0  0  0  0
  1 22  1  0  0  0  0
  2 15  1  0  0  0  0
  2 23  1  0  0  0  0
  3 19  1  0  0  0  0
  3 24  1  0  0  0  0
  4 20  1  0  0  0  0
  4 25  1  0  0  0  0
  5  8  2  0  0  0  0
  5 18  1  0  0  0  0
  6  8  1  0  0  0  0
  6  9  1  0  0  0  0
  6 11  2  0  0  0  0
  7  8  1  0  0  0  0
  7 10  1  0  0  0  0
  7 26  1  0  0  0  0
  7 27  1  0  0  0  0
  9 12  2  0  0  0  0
  9 14  1  0  0  0  0
 10 16  2  0  0  0  0
 10 17  1  0  0  0  0
 11 13  1  0  0  0  0
 11 28  1  0  0  0  0
 12 15  1  0  0  0  0
 12 29  1  0  0  0  0
 13 15  2  0  0  0  0
 14 18  2  0  0  0  0
 14 30  1  0  0  0  0
 16 19  1  0  0  0  0
 16 31  1  0  0  0  0
 17 21  2  0  0  0  0
 17 32  1  0  0  0  0
 18 33  1  0  0  0  0
 19 20  2  0  0  0  0
 20 21  1  0  0  0  0
 21 34  1  0  0  0  0
 22 35  1  0  0  0  0
 22 36  1  0  0  0  0
 22 37  1  0  0  0  0
 23 38  1  0  0  0  0
 23 39  1  0  0  0  0
 23 40  1  0  0  0  0
 24 41  1  0  0  0  0
 24 42  1  0  0  0  0
 24 43  1  0  0  0  0
 25 44  1  0  0  0  0
 25 45  1  0  0  0  0
 25 46  1  0  0  0  0
M  END
>  <DRUGBANK_ID>
DB01113

>  <SECONDARY_ACCESSION_NUMBERS>
APRD00628; DB07725

>  <COMMON_NAME>
Papaverine

>  <CAS_NUMBER>
58-74-2

>  <UNII>
DAA13NKG2Q

>  <SYNONYMS>
Papaverina; Papaverine

$$$$
