S1H
 OpenBabel10282417072D

 65 64  0  0  0  0  0  0  0  0999 V2000
   -6.3963    0.9712    0.0000 N   0  0  0  0  0  0  0  0  0  0  0  0
   -6.3435    0.1479    0.0000 C   0  0  2  0  0  0  0  0  0  0  0  0
   -7.0301   -0.3095    0.0000 C   0  0  0  0  0  0  0  0  0  0  0  0
   -7.7695    0.0564    0.0000 O   0  0  0  0  0  0  0  0  0  0  0  0
   -5.6041   -0.2180    0.0000 C   0  0  0  0  0  0  0  0  0  0  0  0
   -4.9175    0.2394    0.0000 O   0  0  0  0  0  0  0  0  0  0  0  0
   -6.9773   -1.1328    0.0000 O   0  0  0  0  0  0  0  0  0  0  0  0
   -3.4386   -0.4925    0.0000 C   0  0  0  0  0  0  0  0  0  0  0  0
   -2.7520   -0.0351    0.0000 C   0  0  0  0  0  0  0  0  0  0  0  0
   -2.0126   -0.4010    0.0000 C   0  0  0  0  0  0  0  0  0  0  0  0
   -1.3260    0.0564    0.0000 C   0  0  0  0  0  0  0  0  0  0  0  0
   -0.5866   -0.3095    0.0000 C   0  0  0  0  0  0  0  0  0  0  0  0
    0.1000    0.1479    0.0000 C   0  0  0  0  0  0  0  0  0  0  0  0
    0.8394   -0.2180    0.0000 C   0  0  0  0  0  0  0  0  0  0  0  0
    1.5260    0.2394    0.0000 C   0  0  0  0  0  0  0  0  0  0  0  0
    2.2654   -0.1265    0.0000 C   0  0  0  0  0  0  0  0  0  0  0  0
    2.9520    0.3309    0.0000 C   0  0  0  0  0  0  0  0  0  0  0  0
    3.6914   -0.0351    0.0000 C   0  0  0  0  0  0  0  0  0  0  0  0
    4.3780    0.4223    0.0000 C   0  0  0  0  0  0  0  0  0  0  0  0
    5.1174    0.0564    0.0000 C   0  0  0  0  0  0  0  0  0  0  0  0
    5.8040    0.5138    0.0000 C   0  0  0  0  0  0  0  0  0  0  0  0
    6.5434    0.1479    0.0000 C   0  0  0  0  0  0  0  0  0  0  0  0
    7.2300    0.6053    0.0000 C   0  0  0  0  0  0  0  0  0  0  0  0
   -4.1781   -0.1265    0.0000 S   0  0  0  0  0  0  0  0  0  0  0  0
   -4.5440   -0.8660    0.0000 O   0  0  0  0  0  0  0  0  0  0  0  0
   -3.8121    0.6129    0.0000 O   0  0  0  0  0  0  0  0  0  0  0  0
   -6.8668    0.4069    0.0000 H   0  0  0  0  0  0  0  0  0  0  0  0
   -5.5474    1.5367    0.0000 H   0  0  0  0  0  0  0  0  0  0  0  0
   -7.3105    1.4236    0.0000 H   0  0  0  0  0  0  0  0  0  0  0  0
   -5.5356   -1.2858    0.0000 H   0  0  0  0  0  0  0  0  0  0  0  0
   -4.6451   -0.6926    0.0000 H   0  0  0  0  0  0  0  0  0  0  0  0
   -7.7571   -1.6523    0.0000 H   0  0  0  0  0  0  0  0  0  0  0  0
   -3.3701   -1.5603    0.0000 H   0  0  0  0  0  0  0  0  0  0  0  0
   -4.3291   -1.0857    0.0000 H   0  0  0  0  0  0  0  0  0  0  0  0
   -2.8205    1.0327    0.0000 H   0  0  0  0  0  0  0  0  0  0  0  0
   -1.8615    0.5581    0.0000 H   0  0  0  0  0  0  0  0  0  0  0  0
   -1.9441   -1.4688    0.0000 H   0  0  0  0  0  0  0  0  0  0  0  0
   -1.0536   -0.8756    0.0000 H   0  0  0  0  0  0  0  0  0  0  0  0
   -1.3945    1.1242    0.0000 H   0  0  0  0  0  0  0  0  0  0  0  0
   -0.4355    0.6496    0.0000 H   0  0  0  0  0  0  0  0  0  0  0  0
   -0.5181   -1.3773    0.0000 H   0  0  0  0  0  0  0  0  0  0  0  0
    0.3724   -0.7841    0.0000 H   0  0  0  0  0  0  0  0  0  0  0  0
    0.0315    1.2157    0.0000 H   0  0  0  0  0  0  0  0  0  0  0  0
    0.9905    0.7411    0.0000 H   0  0  0  0  0  0  0  0  0  0  0  0
    0.9079   -1.2858    0.0000 H   0  0  0  0  0  0  0  0  0  0  0  0
    1.7984   -0.6926    0.0000 H   0  0  0  0  0  0  0  0  0  0  0  0
    1.4575    1.3072    0.0000 H   0  0  0  0  0  0  0  0  0  0  0  0
    2.4165    0.8326    0.0000 H   0  0  0  0  0  0  0  0  0  0  0  0
    2.3339   -1.1943    0.0000 H   0  0  0  0  0  0  0  0  0  0  0  0
    3.2244   -0.6011    0.0000 H   0  0  0  0  0  0  0  0  0  0  0  0
    2.8836    1.3987    0.0000 H   0  0  0  0  0  0  0  0  0  0  0  0
    3.8425    0.9241    0.0000 H   0  0  0  0  0  0  0  0  0  0  0  0
    3.7598   -1.1029    0.0000 H   0  0  0  0  0  0  0  0  0  0  0  0
    4.6504   -0.5097    0.0000 H   0  0  0  0  0  0  0  0  0  0  0  0
    4.3095    1.4901    0.0000 H   0  0  0  0  0  0  0  0  0  0  0  0
    5.2685    1.0155    0.0000 H   0  0  0  0  0  0  0  0  0  0  0  0
    5.1859   -1.0114    0.0000 H   0  0  0  0  0  0  0  0  0  0  0  0
    6.0764   -0.4182    0.0000 H   0  0  0  0  0  0  0  0  0  0  0  0
    5.7355    1.5816    0.0000 H   0  0  0  0  0  0  0  0  0  0  0  0
    6.6945    1.1070    0.0000 H   0  0  0  0  0  0  0  0  0  0  0  0
    6.6119   -0.9199    0.0000 H   0  0  0  0  0  0  0  0  0  0  0  0
    7.5024   -0.3267    0.0000 H   0  0  0  0  0  0  0  0  0  0  0  0
    8.1890    0.1307    0.0000 H   0  0  0  0  0  0  0  0  0  0  0  0
    7.1615    1.6731    0.0000 H   0  0  0  0  0  0  0  0  0  0  0  0
    8.1205    1.1985    0.0000 H   0  0  0  0  0  0  0  0  0  0  0  0
  1 28  1  0  0  0  0
  1 29  1  0  0  0  0
  2  1  1  0  0  0  0
  2  3  1  0  0  0  0
  2  5  1  0  0  0  0
  2 27  1  6  0  0  0
  3  4  2  0  0  0  0
  3  7  1  0  0  0  0
  5  6  1  0  0  0  0
  5 30  1  0  0  0  0
  5 31  1  0  0  0  0
  6 24  1  0  0  0  0
  7 32  1  0  0  0  0
  8  9  1  0  0  0  0
  8 24  1  0  0  0  0
  8 33  1  0  0  0  0
  8 34  1  0  0  0  0
  9 10  1  0  0  0  0
  9 35  1  0  0  0  0
  9 36  1  0  0  0  0
 10 11  1  0  0  0  0
 10 37  1  0  0  0  0
 10 38  1  0  0  0  0
 11 12  1  0  0  0  0
 11 39  1  0  0  0  0
 11 40  1  0  0  0  0
 12 13  1  0  0  0  0
 12 41  1  0  0  0  0
 12 42  1  0  0  0  0
 13 14  1  0  0  0  0
 13 43  1  0  0  0  0
 13 44  1  0  0  0  0
 14 15  1  0  0  0  0
 14 45  1  0  0  0  0
 14 46  1  0  0  0  0
 15 16  1  0  0  0  0
 15 47  1  0  0  0  0
 15 48  1  0  0  0  0
 16 17  1  0  0  0  0
 16 49  1  0  0  0  0
 16 50  1  0  0  0  0
 17 18  1  0  0  0  0
 17 51  1  0  0  0  0
 17 52  1  0  0  0  0
 18 19  1  0  0  0  0
 18 53  1  0  0  0  0
 18 54  1  0  0  0  0
 19 20  1  0  0  0  0
 19 55  1  0  0  0  0
 19 56  1  0  0  0  0
 20 21  1  0  0  0  0
 20 57  1  0  0  0  0
 20 58  1  0  0  0  0
 21 22  1  0  0  0  0
 21 59  1  0  0  0  0
 21 60  1  0  0  0  0
 22 23  1  0  0  0  0
 22 61  1  0  0  0  0
 22 62  1  0  0  0  0
 23 63  1  0  0  0  0
 23 64  1  0  0  0  0
 23 65  1  0  0  0  0
 24 25  2  0  0  0  0
 24 26  2  0  0  0  0
M  END
>  <DRUGBANK_ID>
DB03692

>  <SECONDARY_ACCESSION_NUMBERS>
EXPT02830

>  <COMMON_NAME>
1-Hexadecanosulfonyl-O-L-Serine

$$$$
