
 OpenBabel10282417072D

 49 52  0  0  1  0  0  0  0  0999 V2000
    0.0000    0.0000    0.0000 C   0  0  0  0  0  0  0  0  0  0  0  0
    0.7145   -0.4125    0.0000 C   0  0  1  0  0  0  0  0  0  0  0  0
    1.4289    0.0000    0.0000 C   0  0  0  0  0  0  0  0  0  0  0  0
    2.1434   -0.4125    0.0000 C   0  0  1  0  0  0  0  0  0  0  0  0
    2.8579    0.0000    0.0000 C   0  0  0  0  0  0  0  0  0  0  0  0
    3.5724   -0.4125    0.0000 S   0  0  0  0  0  0  0  0  0  0  0  0
    3.5724   -1.2375    0.0000 C   0  0  0  0  0  0  0  0  0  0  0  0
    4.2868   -1.6500    0.0000 N   0  0  0  0  0  0  0  0  0  0  0  0
    2.8579   -1.6500    0.0000 N   0  0  0  0  0  0  0  0  0  0  0  0
    2.1434   -1.2375    0.0000 C   0  0  1  0  0  0  0  0  0  0  0  0
    1.4289   -1.6500    0.0000 C   0  0  0  0  0  0  0  0  0  0  0  0
    0.7145   -1.2375    0.0000 O   0  0  0  0  0  0  0  0  0  0  0  0
    2.1434   -2.0625    0.0000 C   0  0  0  0  0  0  0  0  0  0  0  0
    2.8109   -2.5474    0.0000 N   0  0  0  0  0  0  0  0  0  0  0  0
    2.5559   -3.3320    0.0000 C   0  0  0  0  0  0  0  0  0  0  0  0
    3.0408   -3.9995    0.0000 N   0  0  0  0  0  0  0  0  0  0  0  0
    3.8613   -3.9132    0.0000 C   0  0  0  0  0  0  0  0  0  0  0  0
    4.1969   -3.1596    0.0000 O   0  0  0  0  0  0  0  0  0  0  0  0
    4.3462   -4.5807    0.0000 C   0  0  0  0  0  0  0  0  0  0  0  0
    5.1667   -4.4945    0.0000 N   0  0  0  0  0  0  0  0  0  0  0  0
    5.6516   -5.1619    0.0000 C   0  0  0  0  0  0  0  0  0  0  0  0
    5.3161   -5.9156    0.0000 C   0  0  0  0  0  0  0  0  0  0  0  0
    5.8010   -6.5830    0.0000 O   0  0  0  0  0  0  0  0  0  0  0  0
    5.4654   -7.3367    0.0000 C   0  0  0  0  0  0  0  0  0  0  0  0
    5.9504   -8.0041    0.0000 F   0  0  0  0  0  0  0  0  0  0  0  0
    4.6450   -7.4229    0.0000 F   0  0  0  0  0  0  0  0  0  0  0  0
    4.4956   -6.0018    0.0000 C   0  0  0  0  0  0  0  0  0  0  0  0
    4.0107   -5.3344    0.0000 C   0  0  0  0  0  0  0  0  0  0  0  0
    1.7309   -3.3320    0.0000 C   0  0  0  0  0  0  0  0  0  0  0  0
    1.4760   -2.5474    0.0000 S   0  0  0  0  0  0  0  0  0  0  0  0
   -0.0000    1.0700    0.0000 H   0  0  0  0  0  0  0  0  0  0  0  0
   -0.9266   -0.5350    0.0000 H   0  0  0  0  0  0  0  0  0  0  0  0
   -0.9267    0.5350    0.0000 H   0  0  0  0  0  0  0  0  0  0  0  0
    0.7145    0.6575    0.0000 H   0  0  0  0  0  0  0  0  0  0  0  0
    1.4289    1.0700    0.0000 H   0  0  0  0  0  0  0  0  0  0  0  0
    2.3555    0.5350    0.0000 H   0  0  0  0  0  0  0  0  0  0  0  0
    2.1434    0.6575    0.0000 H   0  0  0  0  0  0  0  0  0  0  0  0
    2.8579    1.0700    0.0000 H   0  0  0  0  0  0  0  0  0  0  0  0
    3.7845    0.5350    0.0000 H   0  0  0  0  0  0  0  0  0  0  0  0
    4.2868   -2.6345    0.0000 H   0  0  0  0  0  0  0  0  0  0  0  0
    5.1394   -1.1578    0.0000 H   0  0  0  0  0  0  0  0  0  0  0  0
    1.4289   -2.7200    0.0000 H   0  0  0  0  0  0  0  0  0  0  0  0
    0.5022   -2.1850    0.0000 H   0  0  0  0  0  0  0  0  0  0  0  0
    2.6404   -4.8989    0.0000 H   0  0  0  0  0  0  0  0  0  0  0  0
    6.6779   -5.0540    0.0000 H   0  0  0  0  0  0  0  0  0  0  0  0
    5.0302   -8.3142    0.0000 H   0  0  0  0  0  0  0  0  0  0  0  0
    4.0758   -6.9446    0.0000 H   0  0  0  0  0  0  0  0  0  0  0  0
    2.9844   -5.4423    0.0000 H   0  0  0  0  0  0  0  0  0  0  0  0
    1.1243   -4.1669    0.0000 H   0  0  0  0  0  0  0  0  0  0  0  0
  1 31  1  0  0  0  0
  1 32  1  0  0  0  0
  1 33  1  0  0  0  0
  2  1  1  0  0  0  0
  2  3  1  0  0  0  0
  2 12  1  0  0  0  0
  2 34  1  6  0  0  0
  3 35  1  0  0  0  0
  3 36  1  0  0  0  0
  4  3  1  0  0  0  0
  4  5  1  0  0  0  0
  4 10  1  0  0  0  0
  4 37  1  6  0  0  0
  5  6  1  0  0  0  0
  5 38  1  0  0  0  0
  5 39  1  0  0  0  0
  6  7  1  0  0  0  0
  7  8  1  0  0  0  0
  7  9  2  0  0  0  0
  8 40  1  0  0  0  0
  8 41  1  0  0  0  0
 10  9  1  0  0  0  0
 10 11  1  0  0  0  0
 10 13  1  6  0  0  0
 11 12  1  0  0  0  0
 11 42  1  0  0  0  0
 11 43  1  0  0  0  0
 13 14  2  0  0  0  0
 13 30  1  0  0  0  0
 14 15  1  0  0  0  0
 15 16  1  0  0  0  0
 15 29  2  0  0  0  0
 16 17  1  0  0  0  0
 16 44  1  0  0  0  0
 17 18  2  0  0  0  0
 17 19  1  0  0  0  0
 19 20  2  0  0  0  0
 19 28  1  0  0  0  0
 20 21  1  0  0  0  0
 21 22  2  0  0  0  0
 21 45  1  0  0  0  0
 22 23  1  0  0  0  0
 22 27  1  0  0  0  0
 23 24  1  0  0  0  0
 24 25  1  0  0  0  0
 24 26  1  0  0  0  0
 24 46  1  0  0  0  0
 27 28  2  0  0  0  0
 27 47  1  0  0  0  0
 28 48  1  0  0  0  0
 29 30  1  0  0  0  0
 29 49  1  0  0  0  0
M  END
>  <DRUGBANK_ID>
DB15105

>  <COMMON_NAME>
PF-06751979

>  <CAS_NUMBER>
1818339-66-0

>  <UNII>
1Y0Y126GUG

$$$$
