269
 OpenBabel10282417072D

 48 50  0  0  0  0  0  0  0  0999 V2000
    1.6500   -0.2063    0.0000 Cl  0  0  0  0  0  0  0  0  0  0  0  0
    5.9370    1.4438    0.0000 O   0  0  0  0  0  0  0  0  0  0  0  0
    3.0791   -3.5063    0.0000 O   0  0  0  0  0  0  0  0  0  0  0  0
    2.3645    3.5063    0.0000 O   0  0  0  0  0  0  0  0  0  0  0  0
    3.0791   -0.2063    0.0000 C   0  0  0  0  0  0  0  0  0  0  0  0
    3.7935    0.2063    0.0000 C   0  0  0  0  0  0  0  0  0  0  0  0
    3.0791   -1.0313    0.0000 C   0  0  0  0  0  0  0  0  0  0  0  0
    2.3645    0.2063    0.0000 C   0  0  0  0  0  0  0  0  0  0  0  0
    2.3645    1.0313    0.0000 C   0  0  0  0  0  0  0  0  0  0  0  0
    3.7935    1.0313    0.0000 C   0  0  0  0  0  0  0  0  0  0  0  0
    3.7935   -1.4438    0.0000 C   0  0  0  0  0  0  0  0  0  0  0  0
    4.5080   -0.2063    0.0000 C   0  0  0  0  0  0  0  0  0  0  0  0
    2.3645   -1.4438    0.0000 C   0  0  0  0  0  0  0  0  0  0  0  0
    4.5080    1.4438    0.0000 C   0  0  0  0  0  0  0  0  0  0  0  0
    3.7935   -2.2688    0.0000 C   0  0  0  0  0  0  0  0  0  0  0  0
    5.2224    0.2063    0.0000 C   0  0  0  0  0  0  0  0  0  0  0  0
    2.3645   -2.2688    0.0000 C   0  0  0  0  0  0  0  0  0  0  0  0
    1.6500    1.4438    0.0000 C   0  0  0  0  0  0  0  0  0  0  0  0
    3.0791    1.4438    0.0000 C   0  0  0  0  0  0  0  0  0  0  0  0
    5.2224    1.0313    0.0000 C   0  0  0  0  0  0  0  0  0  0  0  0
    3.0791   -2.6813    0.0000 C   0  0  0  0  0  0  0  0  0  0  0  0
    1.6500    2.2688    0.0000 C   0  0  0  0  0  0  0  0  0  0  0  0
    3.0791    2.2688    0.0000 C   0  0  0  0  0  0  0  0  0  0  0  0
    2.3645    2.6813    0.0000 C   0  0  0  0  0  0  0  0  0  0  0  0
    6.6515    1.0313    0.0000 C   0  0  0  0  0  0  0  0  0  0  0  0
    2.3645   -3.9188    0.0000 C   0  0  0  0  0  0  0  0  0  0  0  0
    1.6500    3.9188    0.0000 C   0  0  0  0  0  0  0  0  0  0  0  0
    2.8998    1.5473    0.0000 H   0  0  0  0  0  0  0  0  0  0  0  0
    4.6872   -0.9278    0.0000 H   0  0  0  0  0  0  0  0  0  0  0  0
    4.5080   -1.2383    0.0000 H   0  0  0  0  0  0  0  0  0  0  0  0
    1.4708   -0.9278    0.0000 H   0  0  0  0  0  0  0  0  0  0  0  0
    4.5080    2.4758    0.0000 H   0  0  0  0  0  0  0  0  0  0  0  0
    4.6872   -2.7848    0.0000 H   0  0  0  0  0  0  0  0  0  0  0  0
    6.1162   -0.3096    0.0000 H   0  0  0  0  0  0  0  0  0  0  0  0
    1.4708   -2.7848    0.0000 H   0  0  0  0  0  0  0  0  0  0  0  0
    0.7563    0.9278    0.0000 H   0  0  0  0  0  0  0  0  0  0  0  0
    3.9728    0.9278    0.0000 H   0  0  0  0  0  0  0  0  0  0  0  0
    0.7563    2.7848    0.0000 H   0  0  0  0  0  0  0  0  0  0  0  0
    3.9728    2.7848    0.0000 H   0  0  0  0  0  0  0  0  0  0  0  0
    6.6515   -0.0387    0.0000 H   0  0  0  0  0  0  0  0  0  0  0  0
    7.5781    1.5663    0.0000 H   0  0  0  0  0  0  0  0  0  0  0  0
    7.5782    0.4963    0.0000 H   0  0  0  0  0  0  0  0  0  0  0  0
    1.4379   -3.3837    0.0000 H   0  0  0  0  0  0  0  0  0  0  0  0
    2.3644   -4.9888    0.0000 H   0  0  0  0  0  0  0  0  0  0  0  0
    1.4378   -4.4537    0.0000 H   0  0  0  0  0  0  0  0  0  0  0  0
    1.6500    4.9888    0.0000 H   0  0  0  0  0  0  0  0  0  0  0  0
    0.7234    3.3838    0.0000 H   0  0  0  0  0  0  0  0  0  0  0  0
    0.7233    4.4538    0.0000 H   0  0  0  0  0  0  0  0  0  0  0  0
  1  8  1  0  0  0  0
  2 20  1  0  0  0  0
  2 25  1  0  0  0  0
  3 21  1  0  0  0  0
  3 26  1  0  0  0  0
  4 24  1  0  0  0  0
  4 27  1  0  0  0  0
  5  6  1  0  0  0  0
  5  7  1  0  0  0  0
  5  8  2  0  0  0  0
  6 10  2  0  0  0  0
  6 12  1  0  0  0  0
  7 11  2  0  0  0  0
  7 13  1  0  0  0  0
  8  9  1  0  0  0  0
  9 18  2  0  0  0  0
  9 19  1  0  0  0  0
 10 14  1  0  0  0  0
 10 28  1  0  0  0  0
 11 15  1  0  0  0  0
 11 29  1  0  0  0  0
 12 16  2  0  0  0  0
 12 30  1  0  0  0  0
 13 17  2  0  0  0  0
 13 31  1  0  0  0  0
 14 20  2  0  0  0  0
 14 32  1  0  0  0  0
 15 21  2  0  0  0  0
 15 33  1  0  0  0  0
 16 20  1  0  0  0  0
 16 34  1  0  0  0  0
 17 21  1  0  0  0  0
 17 35  1  0  0  0  0
 18 22  1  0  0  0  0
 18 36  1  0  0  0  0
 19 23  2  0  0  0  0
 19 37  1  0  0  0  0
 22 24  2  0  0  0  0
 22 38  1  0  0  0  0
 23 24  1  0  0  0  0
 23 39  1  0  0  0  0
 25 40  1  0  0  0  0
 25 41  1  0  0  0  0
 25 42  1  0  0  0  0
 26 43  1  0  0  0  0
 26 44  1  0  0  0  0
 26 45  1  0  0  0  0
 27 46  1  0  0  0  0
 27 47  1  0  0  0  0
 27 48  1  0  0  0  0
M  END
>  <DRUGBANK_ID>
DB00269

>  <SECONDARY_ACCESSION_NUMBERS>
APRD00715

>  <COMMON_NAME>
Chlorotrianisene

>  <CAS_NUMBER>
569-57-3

>  <UNII>
6V5034L121

>  <SYNONYMS>
Chloortrianisestrol; Chlorestrolo; Chlorotrianisene; Chlorotrianisenum; Chlorotrianisine; Chlorotrianizen; Chlortrianisen; Chlortrianisestrol; Chlortrianisoestrolum; Chlortrianizen; Clorotrianiseno

$$$$
