
 OpenBabel10282417072D

 77 80  0  0  1  0  0  0  0  0999 V2000
   -1.3979    4.8583    0.0000 C   0  0  0  0  0  0  0  0  0  0  0  0
   -0.6502    4.5096    0.0000 C   0  0  0  0  0  0  0  0  0  0  0  0
   -0.5783    3.6878    0.0000 C   0  0  0  0  0  0  0  0  0  0  0  0
    0.1694    3.3391    0.0000 C   0  0  0  0  0  0  0  0  0  0  0  0
    0.2413    2.5172    0.0000 C   0  0  2  0  0  0  0  0  0  0  0  0
    0.7145    1.8414    0.0000 C   0  0  1  0  0  0  0  0  0  0  0  0
   -0.1074    1.7695    0.0000 O   0  0  0  0  0  0  0  0  0  0  0  0
    1.5269    1.9847    0.0000 C   0  0  0  0  0  0  0  0  0  0  0  0
    1.1270    1.1270    0.0000 C   0  0  1  0  0  0  0  0  0  0  0  0
    1.9520    1.1270    0.0000 C   0  0  1  0  0  0  0  0  0  0  0  0
    2.3645    0.4125    0.0000 C   0  0  1  0  0  0  0  0  0  0  0  0
    1.9520   -0.3020    0.0000 C   0  0  0  0  0  0  0  0  0  0  0  0
    1.1270   -0.3020    0.0000 C   0  0  0  0  0  0  0  0  0  0  0  0
    0.7145    0.4125    0.0000 C   0  0  2  0  0  0  0  0  0  0  0  0
    0.0000    0.0000    0.0000 C   0  0  0  0  0  0  0  0  0  0  0  0
   -0.0000    0.8250    0.0000 O   0  0  0  0  0  0  0  0  0  0  0  0
    3.1895    0.4125    0.0000 O   0  0  0  0  0  0  0  0  0  0  0  0
    3.6020    1.1270    0.0000 C   0  0  0  0  0  0  0  0  0  0  0  0
    4.4270    1.1270    0.0000 O   0  0  0  0  0  0  0  0  0  0  0  0
    3.1895    1.8414    0.0000 C   0  0  0  0  0  0  0  0  0  0  0  0
    3.6020    2.5559    0.0000 C   0  0  0  0  0  0  0  0  0  0  0  0
    3.1895    3.2704    0.0000 C   0  0  0  0  0  0  0  0  0  0  0  0
    2.3645    3.2704    0.0000 C   0  0  0  0  0  0  0  0  0  0  0  0
    1.9520    3.9849    0.0000 C   0  0  0  0  0  0  0  0  0  0  0  0
    2.3645    4.6993    0.0000 C   0  0  0  0  0  0  0  0  0  0  0  0
    3.1895    4.6993    0.0000 C   0  0  0  0  0  0  0  0  0  0  0  0
    3.6020    3.9849    0.0000 C   0  0  0  0  0  0  0  0  0  0  0  0
    1.9520    5.4138    0.0000 O   0  0  0  0  0  0  0  0  0  0  0  0
    2.3645    6.1283    0.0000 C   0  0  0  0  0  0  0  0  0  0  0  0
    1.9520    6.8427    0.0000 C   0  0  0  0  0  0  0  0  0  0  0  0
    2.3645    7.5572    0.0000 N   0  0  0  0  0  0  0  0  0  0  0  0
    1.9520    8.2717    0.0000 C   0  0  0  0  0  0  0  0  0  0  0  0
    3.1895    7.5572    0.0000 C   0  0  0  0  0  0  0  0  0  0  0  0
    2.3645    1.8414    0.0000 O   0  0  0  0  0  0  0  0  0  0  0  0
    1.9520    2.5559    0.0000 C   0  0  0  0  0  0  0  0  0  0  0  0
    0.0256    4.9828    0.0000 C   0  0  0  0  0  0  0  0  0  0  0  0
   -1.4911    5.9242    0.0000 H   0  0  0  0  0  0  0  0  0  0  0  0
   -2.2744    4.2446    0.0000 H   0  0  0  0  0  0  0  0  0  0  0  0
   -2.3676    5.3105    0.0000 H   0  0  0  0  0  0  0  0  0  0  0  0
   -1.4237    3.0959    0.0000 H   0  0  0  0  0  0  0  0  0  0  0  0
    1.0459    3.9528    0.0000 H   0  0  0  0  0  0  0  0  0  0  0  0
    1.1391    2.8869    0.0000 H   0  0  0  0  0  0  0  0  0  0  0  0
    1.2468    2.8832    0.0000 H   0  0  0  0  0  0  0  0  0  0  0  0
    2.2147    1.1651    0.0000 H   0  0  0  0  0  0  0  0  0  0  0  0
    1.8928    2.9902    0.0000 H   0  0  0  0  0  0  0  0  0  0  0  0
    2.5806    2.1706    0.0000 H   0  0  0  0  0  0  0  0  0  0  0  0
    1.6620    0.2004    0.0000 H   0  0  0  0  0  0  0  0  0  0  0  0
    1.4170    2.0537    0.0000 H   0  0  0  0  0  0  0  0  0  0  0  0
    2.8995    1.3391    0.0000 H   0  0  0  0  0  0  0  0  0  0  0  0
    2.4870   -1.2286    0.0000 H   0  0  0  0  0  0  0  0  0  0  0  0
    1.4170   -1.2286    0.0000 H   0  0  0  0  0  0  0  0  0  0  0  0
    0.5920   -1.2286    0.0000 H   0  0  0  0  0  0  0  0  0  0  0  0
    0.0570   -0.3020    0.0000 H   0  0  0  0  0  0  0  0  0  0  0  0
   -0.5350   -0.9266    0.0000 H   0  0  0  0  0  0  0  0  0  0  0  0
   -1.0335    0.2769    0.0000 H   0  0  0  0  0  0  0  0  0  0  0  0
    2.1575    1.8414    0.0000 H   0  0  0  0  0  0  0  0  0  0  0  0
    4.6340    2.5559    0.0000 H   0  0  0  0  0  0  0  0  0  0  0  0
    1.8485    2.3767    0.0000 H   0  0  0  0  0  0  0  0  0  0  0  0
    0.9200    3.9849    0.0000 H   0  0  0  0  0  0  0  0  0  0  0  0
    3.7055    5.5930    0.0000 H   0  0  0  0  0  0  0  0  0  0  0  0
    4.6340    3.9849    0.0000 H   0  0  0  0  0  0  0  0  0  0  0  0
    3.4345    6.1283    0.0000 H   0  0  0  0  0  0  0  0  0  0  0  0
    2.8995    7.0550    0.0000 H   0  0  0  0  0  0  0  0  0  0  0  0
    0.8820    6.8427    0.0000 H   0  0  0  0  0  0  0  0  0  0  0  0
    1.4170    7.7693    0.0000 H   0  0  0  0  0  0  0  0  0  0  0  0
    2.4870    9.1983    0.0000 H   0  0  0  0  0  0  0  0  0  0  0  0
    0.8820    8.2717    0.0000 H   0  0  0  0  0  0  0  0  0  0  0  0
    1.4170    9.1984    0.0000 H   0  0  0  0  0  0  0  0  0  0  0  0
    3.7245    6.6306    0.0000 H   0  0  0  0  0  0  0  0  0  0  0  0
    3.7245    8.4838    0.0000 H   0  0  0  0  0  0  0  0  0  0  0  0
    4.2595    7.5572    0.0000 H   0  0  0  0  0  0  0  0  0  0  0  0
    2.4870    3.4825    0.0000 H   0  0  0  0  0  0  0  0  0  0  0  0
    0.8820    2.5559    0.0000 H   0  0  0  0  0  0  0  0  0  0  0  0
    1.4170    3.4826    0.0000 H   0  0  0  0  0  0  0  0  0  0  0  0
    0.9953    4.5306    0.0000 H   0  0  0  0  0  0  0  0  0  0  0  0
   -0.0677    6.0487    0.0000 H   0  0  0  0  0  0  0  0  0  0  0  0
    0.9021    5.5965    0.0000 H   0  0  0  0  0  0  0  0  0  0  0  0
  1  2  1  0  0  0  0
  1 37  1  0  0  0  0
  1 38  1  0  0  0  0
  1 39  1  0  0  0  0
  2  3  2  0  0  0  0
  2 36  1  0  0  0  0
  3  4  1  0  0  0  0
  3 40  1  0  0  0  0
  4 41  1  0  0  0  0
  4 42  1  0  0  0  0
  5  4  1  0  0  0  0
  5  6  1  0  0  0  0
  5  7  1  0  0  0  0
  5 43  1  1  0  0  0
  6  7  1  0  0  0  0
  6  8  1  6  0  0  0
  6  9  1  0  0  0  0
  8 44  1  0  0  0  0
  8 45  1  0  0  0  0
  8 46  1  0  0  0  0
  9 10  1  0  0  0  0
  9 14  1  0  0  0  0
  9 47  1  6  0  0  0
 10 11  1  0  0  0  0
 10 34  1  0  0  0  0
 10 48  1  1  0  0  0
 11 12  1  0  0  0  0
 11 17  1  0  0  0  0
 11 49  1  1  0  0  0
 12 13  1  0  0  0  0
 12 50  1  0  0  0  0
 12 51  1  0  0  0  0
 13 14  1  0  0  0  0
 13 52  1  0  0  0  0
 13 53  1  0  0  0  0
 14 15  1  0  0  0  0
 14 16  1  1  0  0  0
 15 16  1  0  0  0  0
 15 54  1  0  0  0  0
 15 55  1  0  0  0  0
 17 18  1  0  0  0  0
 18 19  2  0  0  0  0
 18 20  1  0  0  0  0
 20 21  2  0  0  0  0
 20 56  1  0  0  0  0
 21 22  1  0  0  0  0
 21 57  1  0  0  0  0
 22 23  2  0  0  0  0
 22 27  1  0  0  0  0
 23 24  1  0  0  0  0
 23 58  1  0  0  0  0
 24 25  2  0  0  0  0
 24 59  1  0  0  0  0
 25 26  1  0  0  0  0
 25 28  1  0  0  0  0
 26 27  2  0  0  0  0
 26 60  1  0  0  0  0
 27 61  1  0  0  0  0
 28 29  1  0  0  0  0
 29 30  1  0  0  0  0
 29 62  1  0  0  0  0
 29 63  1  0  0  0  0
 30 31  1  0  0  0  0
 30 64  1  0  0  0  0
 30 65  1  0  0  0  0
 31 32  1  0  0  0  0
 31 33  1  0  0  0  0
 32 66  1  0  0  0  0
 32 67  1  0  0  0  0
 32 68  1  0  0  0  0
 33 69  1  0  0  0  0
 33 70  1  0  0  0  0
 33 71  1  0  0  0  0
 34 35  1  0  0  0  0
 35 72  1  0  0  0  0
 35 73  1  0  0  0  0
 35 74  1  0  0  0  0
 36 75  1  0  0  0  0
 36 76  1  0  0  0  0
 36 77  1  0  0  0  0
M  END
>  <DRUGBANK_ID>
DB12671

>  <COMMON_NAME>
Beloranib

>  <CAS_NUMBER>
251111-30-5

>  <UNII>
FI471K8BU6

>  <SYNONYMS>
Beloranib

$$$$
