
 OpenBabel10282417072D

 50 53  0  0  1  0  0  0  0  0999 V2000
    4.3228    1.7357    0.0000 C   0  0  0  0  0  0  0  0  0  0  0  0
    3.9629    0.9934    0.0000 C   0  0  2  0  0  0  0  0  0  0  0  0
    3.4311    1.6241    0.0000 C   0  0  0  0  0  0  0  0  0  0  0  0
    2.6190    1.4789    0.0000 C   0  0  0  0  0  0  0  0  0  0  0  0
    2.3387    0.7029    0.0000 C   0  0  1  0  0  0  0  0  0  0  0  0
    2.8705    0.0722    0.0000 C   0  0  2  0  0  0  0  0  0  0  0  0
    3.6826    0.2174    0.0000 C   0  0  2  0  0  0  0  0  0  0  0  0
    4.3340   -0.2889    0.0000 C   0  0  0  0  0  0  0  0  0  0  0  0
    5.0168    0.1741    0.0000 C   0  0  0  0  0  0  0  0  0  0  0  0
    4.7875    0.9666    0.0000 C   0  0  2  0  0  0  0  0  0  0  0  0
    5.2939    1.6179    0.0000 O   0  0  0  0  0  0  0  0  0  0  0  0
    6.1111    1.5050    0.0000 S   0  0  0  0  0  0  0  0  0  0  0  0
    6.9284    1.3922    0.0000 O   0  0  0  0  0  0  0  0  0  0  0  0
    6.2240    2.3223    0.0000 O   0  0  0  0  0  0  0  0  0  0  0  0
    5.9983    0.6878    0.0000 O   0  0  0  0  0  0  0  0  0  0  0  0
    2.5902   -0.7037    0.0000 C   0  0  0  0  0  0  0  0  0  0  0  0
    1.7781   -0.8489    0.0000 C   0  0  0  0  0  0  0  0  0  0  0  0
    1.2463   -0.2182    0.0000 C   0  0  0  0  0  0  0  0  0  0  0  0
    0.4342   -0.3634    0.0000 C   0  0  0  0  0  0  0  0  0  0  0  0
   -0.0976    0.2673    0.0000 C   0  0  0  0  0  0  0  0  0  0  0  0
   -0.9098    0.1221    0.0000 O   0  0  0  0  0  0  0  0  0  0  0  0
    0.1827    1.0432    0.0000 C   0  0  0  0  0  0  0  0  0  0  0  0
    0.9948    1.1884    0.0000 C   0  0  0  0  0  0  0  0  0  0  0  0
    1.5266    0.5577    0.0000 C   0  0  2  0  0  0  0  0  0  0  0  0
    5.3900    1.8128    0.0000 H   0  0  0  0  0  0  0  0  0  0  0  0
    3.7224    2.6214    0.0000 H   0  0  0  0  0  0  0  0  0  0  0  0
    4.7896    2.6985    0.0000 H   0  0  0  0  0  0  0  0  0  0  0  0
    3.7947    2.6304    0.0000 H   0  0  0  0  0  0  0  0  0  0  0  0
    2.7414    2.4421    0.0000 H   0  0  0  0  0  0  0  0  0  0  0  0
    1.9292    2.2969    0.0000 H   0  0  0  0  0  0  0  0  0  0  0  0
    1.5657    1.2905    0.0000 H   0  0  0  0  0  0  0  0  0  0  0  0
    3.3920    0.8912    0.0000 H   0  0  0  0  0  0  0  0  0  0  0  0
    1.8172   -0.1161    0.0000 H   0  0  0  0  0  0  0  0  0  0  0  0
    3.4263   -0.8214    0.0000 H   0  0  0  0  0  0  0  0  0  0  0  0
    4.2993   -1.3583    0.0000 H   0  0  0  0  0  0  0  0  0  0  0  0
    5.2711   -0.8053    0.0000 H   0  0  0  0  0  0  0  0  0  0  0  0
    6.0232   -0.1894    0.0000 H   0  0  0  0  0  0  0  0  0  0  0  0
    5.7976    0.9057    0.0000 H   0  0  0  0  0  0  0  0  0  0  0  0
    5.8383    0.7649    0.0000 H   0  0  0  0  0  0  0  0  0  0  0  0
    5.0998    0.3222    0.0000 H   0  0  0  0  0  0  0  0  0  0  0  0
    3.2799   -1.5217    0.0000 H   0  0  0  0  0  0  0  0  0  0  0  0
    2.2266   -1.7100    0.0000 H   0  0  0  0  0  0  0  0  0  0  0  0
    1.4145   -1.8552    0.0000 H   0  0  0  0  0  0  0  0  0  0  0  0
    0.7248   -1.0372    0.0000 H   0  0  0  0  0  0  0  0  0  0  0  0
    0.0836   -1.3340    0.0000 H   0  0  0  0  0  0  0  0  0  0  0  0
   -0.5070    1.8612    0.0000 H   0  0  0  0  0  0  0  0  0  0  0  0
    0.5463    2.0495    0.0000 H   0  0  0  0  0  0  0  0  0  0  0  0
    1.3584    2.1947    0.0000 H   0  0  0  0  0  0  0  0  0  0  0  0
    2.0481    1.3767    0.0000 H   0  0  0  0  0  0  0  0  0  0  0  0
    1.8902    1.5640    0.0000 H   0  0  0  0  0  0  0  0  0  0  0  0
  1 25  1  0  0  0  0
  1 26  1  0  0  0  0
  1 27  1  0  0  0  0
  2  1  1  1  0  0  0
  2  3  1  0  0  0  0
  2  7  1  0  0  0  0
  2 10  1  0  0  0  0
  3  4  1  0  0  0  0
  3 28  1  0  0  0  0
  3 29  1  0  0  0  0
  4 30  1  0  0  0  0
  4 31  1  0  0  0  0
  5  4  1  0  0  0  0
  5  6  1  0  0  0  0
  5 24  1  0  0  0  0
  5 32  1  6  0  0  0
  6  7  1  0  0  0  0
  6 16  1  0  0  0  0
  6 33  1  1  0  0  0
  7  8  1  0  0  0  0
  7 34  1  6  0  0  0
  8  9  1  0  0  0  0
  8 35  1  0  0  0  0
  8 36  1  0  0  0  0
  9 10  1  0  0  0  0
  9 37  1  0  0  0  0
  9 38  1  0  0  0  0
 10 11  1  0  0  0  0
 10 39  1  6  0  0  0
 11 12  1  0  0  0  0
 12 13  2  0  0  0  0
 12 14  2  0  0  0  0
 12 15  1  0  0  0  0
 15 40  1  0  0  0  0
 16 17  1  0  0  0  0
 16 41  1  0  0  0  0
 16 42  1  0  0  0  0
 17 18  1  0  0  0  0
 17 43  1  0  0  0  0
 17 44  1  0  0  0  0
 18 19  2  0  0  0  0
 18 24  1  0  0  0  0
 19 20  1  0  0  0  0
 19 45  1  0  0  0  0
 20 21  2  0  0  0  0
 20 22  1  0  0  0  0
 22 23  1  0  0  0  0
 22 46  1  0  0  0  0
 22 47  1  0  0  0  0
 23 48  1  0  0  0  0
 23 49  1  0  0  0  0
 24 23  1  0  0  0  0
 24 50  1  1  0  0  0
M  END
>  <DRUGBANK_ID>
DB14624

>  <SECONDARY_ACCESSION_NUMBERS>
DBSALT002266

>  <COMMON_NAME>
Nandrolone hydrogen sulfate

>  <CAS_NUMBER>
98804-55-8

>  <UNII>
2S202OX23O

>  <SYNONYMS>
Nandrolone sulfate

$$$$
