
 OpenBabel10282417072D

 29 30  0  0  0  0  0  0  0  0999 V2000
    1.8972    1.0009    0.0000 C   0  0  0  0  0  0  0  0  0  0  0  0
    1.4847    0.2933    0.0000 C   0  0  0  0  0  0  0  0  0  0  0  0
    1.4599    1.7479    0.0000 C   0  0  0  0  0  0  0  0  0  0  0  0
    2.7222    1.0009    0.0000 C   0  0  0  0  0  0  0  0  0  0  0  0
    0.6348    0.2933    0.0000 C   0  0  0  0  0  0  0  0  0  0  0  0
    0.6348    1.7479    0.0000 C   0  0  0  0  0  0  0  0  0  0  0  0
    3.1561    0.2933    0.0000 O   0  0  0  0  0  0  0  0  0  0  0  0
    3.1348    1.7479    0.0000 O   0  0  0  0  0  0  0  0  0  0  0  0
    0.2222    1.0009    0.0000 C   0  0  0  0  0  0  0  0  0  0  0  0
   -0.6206    1.0009    0.0000 O   0  0  0  0  0  0  0  0  0  0  0  0
   -1.0331    0.2933    0.0000 C   0  0  0  0  0  0  0  0  0  0  0  0
   -1.8581    0.2933    0.0000 C   0  0  0  0  0  0  0  0  0  0  0  0
   -2.2707   -0.4178    0.0000 N   0  0  0  0  0  0  0  0  0  0  0  0
   -1.8581   -1.1647    0.0000 C   0  0  0  0  0  0  0  0  0  0  0  0
   -3.0779   -0.5992    0.0000 C   0  0  0  0  0  0  0  0  0  0  0  0
   -2.4128   -1.7479    0.0000 C   0  0  0  0  0  0  0  0  0  0  0  0
   -3.1561   -1.4385    0.0000 N   0  0  0  0  0  0  0  0  0  0  0  0
    1.9988   -0.6015    0.0000 H   0  0  0  0  0  0  0  0  0  0  0  0
    1.9732    2.6432    0.0000 H   0  0  0  0  0  0  0  0  0  0  0  0
    0.1207   -0.6015    0.0000 H   0  0  0  0  0  0  0  0  0  0  0  0
    0.1104    2.6367    0.0000 H   0  0  0  0  0  0  0  0  0  0  0  0
    2.7092   -0.5303    0.0000 H   0  0  0  0  0  0  0  0  0  0  0  0
   -0.5000   -0.6345    0.0000 H   0  0  0  0  0  0  0  0  0  0  0  0
   -1.5691   -0.6328    0.0000 H   0  0  0  0  0  0  0  0  0  0  0  0
   -2.3921    1.2205    0.0000 H   0  0  0  0  0  0  0  0  0  0  0  0
   -2.9281    0.2950    0.0000 H   0  0  0  0  0  0  0  0  0  0  0  0
   -0.8345   -1.2963    0.0000 H   0  0  0  0  0  0  0  0  0  0  0  0
   -3.8529    0.0823    0.0000 H   0  0  0  0  0  0  0  0  0  0  0  0
   -2.1997   -2.7577    0.0000 H   0  0  0  0  0  0  0  0  0  0  0  0
  1  2  2  0  0  0  0
  1  3  1  0  0  0  0
  1  4  1  0  0  0  0
  2  5  1  0  0  0  0
  2 18  1  0  0  0  0
  3  6  2  0  0  0  0
  3 19  1  0  0  0  0
  4  7  1  0  0  0  0
  4  8  2  0  0  0  0
  5  9  2  0  0  0  0
  5 20  1  0  0  0  0
  6  9  1  0  0  0  0
  6 21  1  0  0  0  0
  7 22  1  0  0  0  0
  9 10  1  0  0  0  0
 10 11  1  0  0  0  0
 11 12  1  0  0  0  0
 11 23  1  0  0  0  0
 11 24  1  0  0  0  0
 12 13  1  0  0  0  0
 12 25  1  0  0  0  0
 12 26  1  0  0  0  0
 13 14  1  0  0  0  0
 13 15  1  0  0  0  0
 14 16  2  0  0  0  0
 14 27  1  0  0  0  0
 15 17  2  0  0  0  0
 15 28  1  0  0  0  0
 16 17  1  0  0  0  0
 16 29  1  0  0  0  0
M  END
>  <DRUGBANK_ID>
DB03052

>  <SECONDARY_ACCESSION_NUMBERS>
EXPT03297

>  <COMMON_NAME>
Dazoxiben

>  <CAS_NUMBER>
78218-09-4

>  <UNII>
09ZFC7974Q

>  <SYNONYMS>
Dazoxiben; Dazoxibene; Dazoxibenum

$$$$
