TUN
 OpenBabel10282417072D

 27 26  0  0  0  0  0  0  0  0999 V2000
   -2.6431    0.1434    0.0000 C   0  0  0  0  0  0  0  0  0  0  0  0
   -1.8181    0.1434    0.0000 C   0  0  0  0  0  0  0  0  0  0  0  0
   -1.4056   -0.5711    0.0000 O   0  0  0  0  0  0  0  0  0  0  0  0
   -0.5806   -0.5711    0.0000 P   0  0  2  0  0  0  0  0  0  0  0  0
   -0.5806   -1.3961    0.0000 O   0  0  0  0  0  0  0  0  0  0  0  0
    0.2444   -0.5711    0.0000 N   0  0  0  0  0  0  0  0  0  0  0  0
    0.6569   -1.2855    0.0000 C   0  0  0  0  0  0  0  0  0  0  0  0
    1.4819   -1.2855    0.0000 C   0  0  0  0  0  0  0  0  0  0  0  0
    0.6569    0.1434    0.0000 C   0  0  0  0  0  0  0  0  0  0  0  0
    1.4819    0.1434    0.0000 C   0  0  0  0  0  0  0  0  0  0  0  0
   -0.5806    0.2539    0.0000 O   0  0  0  0  0  0  0  0  0  0  0  0
   -3.1781    1.0700    0.0000 H   0  0  0  0  0  0  0  0  0  0  0  0
   -3.1781   -0.7832    0.0000 H   0  0  0  0  0  0  0  0  0  0  0  0
   -3.7131    0.1434    0.0000 H   0  0  0  0  0  0  0  0  0  0  0  0
   -1.2831    1.0700    0.0000 H   0  0  0  0  0  0  0  0  0  0  0  0
   -0.7481    0.1434    0.0000 H   0  0  0  0  0  0  0  0  0  0  0  0
    0.1219   -2.2122    0.0000 H   0  0  0  0  0  0  0  0  0  0  0  0
    1.1919   -2.2121    0.0000 H   0  0  0  0  0  0  0  0  0  0  0  0
    2.0169   -2.2121    0.0000 H   0  0  0  0  0  0  0  0  0  0  0  0
    2.0169   -0.3589    0.0000 H   0  0  0  0  0  0  0  0  0  0  0  0
    2.5519   -1.2855    0.0000 H   0  0  0  0  0  0  0  0  0  0  0  0
    0.1219    1.0700    0.0000 H   0  0  0  0  0  0  0  0  0  0  0  0
    1.1919    1.0700    0.0000 H   0  0  0  0  0  0  0  0  0  0  0  0
    2.0169   -0.7832    0.0000 H   0  0  0  0  0  0  0  0  0  0  0  0
    2.0169    1.0700    0.0000 H   0  0  0  0  0  0  0  0  0  0  0  0
    2.5519    0.1434    0.0000 H   0  0  0  0  0  0  0  0  0  0  0  0
    0.2594    0.7389    0.0000 H   0  0  0  0  0  0  0  0  0  0  0  0
  1  2  1  0  0  0  0
  1 12  1  0  0  0  0
  1 13  1  0  0  0  0
  1 14  1  0  0  0  0
  2  3  1  0  0  0  0
  2 15  1  0  0  0  0
  2 16  1  0  0  0  0
  3  4  1  0  0  0  0
  4  5  2  6  0  0  0
  4  6  1  0  0  0  0
  4 11  1  0  0  0  0
  6  7  1  0  0  0  0
  6  9  1  0  0  0  0
  7  8  1  0  0  0  0
  7 17  1  0  0  0  0
  7 18  1  0  0  0  0
  8 19  1  0  0  0  0
  8 20  1  0  0  0  0
  8 21  1  0  0  0  0
  9 10  1  0  0  0  0
  9 22  1  0  0  0  0
  9 23  1  0  0  0  0
 10 24  1  0  0  0  0
 10 25  1  0  0  0  0
 10 26  1  0  0  0  0
 11 27  1  0  0  0  0
M  END
>  <DRUGBANK_ID>
DB08658

>  <COMMON_NAME>
Ethyl hydrogen diethylamidophosphate

$$$$
