
 OpenBabel10282417072D

 33 33  0  0  0  0  0  0  0  0999 V2000
   -2.1435    0.8251    0.0000 C   0  0  0  0  0  0  0  0  0  0  0  0
   -2.8580    0.4125    0.0000 C   0  0  0  0  0  0  0  0  0  0  0  0
   -2.8580   -0.4124    0.0000 C   0  0  0  0  0  0  0  0  0  0  0  0
   -2.1435   -0.8251    0.0000 C   0  0  0  0  0  0  0  0  0  0  0  0
   -1.4290   -0.4124    0.0000 C   0  0  0  0  0  0  0  0  0  0  0  0
   -1.4290    0.4125    0.0000 C   0  0  0  0  0  0  0  0  0  0  0  0
   -3.5726   -0.8250    0.0000 Cl  0  0  0  0  0  0  0  0  0  0  0  0
   -0.7145    0.8251    0.0000 N   0  0  0  0  0  0  0  0  0  0  0  0
    0.0000    0.4125    0.0000 C   0  0  0  0  0  0  0  0  0  0  0  0
    0.0000   -0.4124    0.0000 N   0  0  0  0  0  0  0  0  0  0  0  0
    0.7145    0.8251    0.0000 N   0  0  0  0  0  0  0  0  0  0  0  0
    1.4290    0.4125    0.0000 C   0  0  0  0  0  0  0  0  0  0  0  0
    1.4290   -0.4124    0.0000 N   0  0  0  0  0  0  0  0  0  0  0  0
    2.1436    0.8251    0.0000 N   0  0  0  0  0  0  0  0  0  0  0  0
    2.8580    0.4125    0.0000 C   0  0  0  0  0  0  0  0  0  0  0  0
    3.5726    0.8251    0.0000 C   0  0  0  0  0  0  0  0  0  0  0  0
    2.8580   -0.4124    0.0000 C   0  0  0  0  0  0  0  0  0  0  0  0
   -2.1435    1.8571    0.0000 H   0  0  0  0  0  0  0  0  0  0  0  0
   -3.7518    0.9285    0.0000 H   0  0  0  0  0  0  0  0  0  0  0  0
   -2.1435   -1.8571    0.0000 H   0  0  0  0  0  0  0  0  0  0  0  0
   -0.5352   -0.9283    0.0000 H   0  0  0  0  0  0  0  0  0  0  0  0
   -0.7145    1.8096    0.0000 H   0  0  0  0  0  0  0  0  0  0  0  0
   -0.8526   -0.9047    0.0000 H   0  0  0  0  0  0  0  0  0  0  0  0
    0.7145    1.8096    0.0000 H   0  0  0  0  0  0  0  0  0  0  0  0
    0.5764   -0.9047    0.0000 H   0  0  0  0  0  0  0  0  0  0  0  0
    2.1437    1.8096    0.0000 H   0  0  0  0  0  0  0  0  0  0  0  0
    3.7847   -0.1225    0.0000 H   0  0  0  0  0  0  0  0  0  0  0  0
    4.4993    0.2901    0.0000 H   0  0  0  0  0  0  0  0  0  0  0  0
    3.5726    1.8951    0.0000 H   0  0  0  0  0  0  0  0  0  0  0  0
    4.4992    1.3601    0.0000 H   0  0  0  0  0  0  0  0  0  0  0  0
    1.9314   -0.9474    0.0000 H   0  0  0  0  0  0  0  0  0  0  0  0
    3.7846   -0.9474    0.0000 H   0  0  0  0  0  0  0  0  0  0  0  0
    2.8580   -1.4824    0.0000 H   0  0  0  0  0  0  0  0  0  0  0  0
  1  2  1  0  0  0  0
  1  6  2  0  0  0  0
  1 18  1  0  0  0  0
  2  3  2  0  0  0  0
  2 19  1  0  0  0  0
  3  4  1  0  0  0  0
  3  7  1  0  0  0  0
  4  5  2  0  0  0  0
  4 20  1  0  0  0  0
  5  6  1  0  0  0  0
  5 21  1  0  0  0  0
  6  8  1  0  0  0  0
  8  9  1  0  0  0  0
  8 22  1  0  0  0  0
  9 10  2  0  0  0  0
  9 11  1  0  0  0  0
 10 23  1  0  0  0  0
 11 12  1  0  0  0  0
 11 24  1  0  0  0  0
 12 13  2  0  0  0  0
 12 14  1  0  0  0  0
 13 25  1  0  0  0  0
 14 15  1  0  0  0  0
 14 26  1  0  0  0  0
 15 16  1  0  0  0  0
 15 17  1  0  0  0  0
 15 27  1  0  0  0  0
 16 28  1  0  0  0  0
 16 29  1  0  0  0  0
 16 30  1  0  0  0  0
 17 31  1  0  0  0  0
 17 32  1  0  0  0  0
 17 33  1  0  0  0  0
M  END
>  <DRUGBANK_ID>
DB01131

>  <SECONDARY_ACCESSION_NUMBERS>
APRD00188

>  <COMMON_NAME>
Proguanil

>  <CAS_NUMBER>
500-92-5

>  <UNII>
S61K3P7B2V

>  <SYNONYMS>
1-(p-Chlorophenyl)-5-isopropylbiguanide; Chlorguanide; Chloroguanide; Proguanil; Proguanile; Proguanilo; Proguanilum

$$$$
