
 OpenBabel10282417072D

 40 40  0  0  0  0  0  0  0  0999 V2000
   -0.7145    3.7125    0.0000 C   0  0  0  0  0  0  0  0  0  0  0  0
    0.0000    3.3000    0.0000 C   0  0  0  0  0  0  0  0  0  0  0  0
    0.0000    2.4750    0.0000 C   0  0  0  0  0  0  0  0  0  0  0  0
    0.7145    2.0625    0.0000 N   0  0  0  0  0  0  0  0  0  0  0  0
    0.7145    1.2375    0.0000 C   0  0  0  0  0  0  0  0  0  0  0  0
    1.4289    0.8250    0.0000 N   0  0  0  0  0  0  0  0  0  0  0  0
    1.4289   -0.0000    0.0000 C   0  0  0  0  0  0  0  0  0  0  0  0
    2.1434   -0.4125    0.0000 N   0  0  0  0  0  0  0  0  0  0  0  0
    2.8579   -0.0000    0.0000 C   0  0  0  0  0  0  0  0  0  0  0  0
    3.5724   -0.4125    0.0000 C   0  0  0  0  0  0  0  0  0  0  0  0
    4.2868   -0.0000    0.0000 C   0  0  0  0  0  0  0  0  0  0  0  0
    0.7145   -0.4125    0.0000 N   0  0  0  0  0  0  0  0  0  0  0  0
    0.0000    0.0000    0.0000 C   0  0  0  0  0  0  0  0  0  0  0  0
    0.0000    0.8250    0.0000 N   0  0  0  0  0  0  0  0  0  0  0  0
   -0.7145   -0.4125    0.0000 N   0  0  0  0  0  0  0  0  0  0  0  0
   -1.4289    0.0000    0.0000 C   0  0  0  0  0  0  0  0  0  0  0  0
   -0.7145   -1.2375    0.0000 O   0  0  0  0  0  0  0  0  0  0  0  0
   -1.4289   -1.6500    0.0000 C   0  0  0  0  0  0  0  0  0  0  0  0
   -0.7145    4.7825    0.0000 H   0  0  0  0  0  0  0  0  0  0  0  0
   -1.6411    3.1775    0.0000 H   0  0  0  0  0  0  0  0  0  0  0  0
   -1.6412    4.2475    0.0000 H   0  0  0  0  0  0  0  0  0  0  0  0
    0.9266    3.8350    0.0000 H   0  0  0  0  0  0  0  0  0  0  0  0
    0.9266    2.7650    0.0000 H   0  0  0  0  0  0  0  0  0  0  0  0
   -0.9266    1.9400    0.0000 H   0  0  0  0  0  0  0  0  0  0  0  0
    0.0000    1.4050    0.0000 H   0  0  0  0  0  0  0  0  0  0  0  0
    1.5671    2.5548    0.0000 H   0  0  0  0  0  0  0  0  0  0  0  0
    2.1434   -1.3970    0.0000 H   0  0  0  0  0  0  0  0  0  0  0  0
    2.8579    1.0700    0.0000 H   0  0  0  0  0  0  0  0  0  0  0  0
    3.7845    0.5350    0.0000 H   0  0  0  0  0  0  0  0  0  0  0  0
    3.5724   -1.4825    0.0000 H   0  0  0  0  0  0  0  0  0  0  0  0
    4.4991   -0.9475    0.0000 H   0  0  0  0  0  0  0  0  0  0  0  0
    5.2135   -0.5350    0.0000 H   0  0  0  0  0  0  0  0  0  0  0  0
    4.2868    1.0700    0.0000 H   0  0  0  0  0  0  0  0  0  0  0  0
    5.2134    0.5350    0.0000 H   0  0  0  0  0  0  0  0  0  0  0  0
   -1.4289    1.0700    0.0000 H   0  0  0  0  0  0  0  0  0  0  0  0
   -2.3556   -0.5350    0.0000 H   0  0  0  0  0  0  0  0  0  0  0  0
   -2.3555    0.5350    0.0000 H   0  0  0  0  0  0  0  0  0  0  0  0
   -2.3556   -1.1150    0.0000 H   0  0  0  0  0  0  0  0  0  0  0  0
   -1.4289   -2.7200    0.0000 H   0  0  0  0  0  0  0  0  0  0  0  0
   -2.3555   -2.1850    0.0000 H   0  0  0  0  0  0  0  0  0  0  0  0
  1  2  1  0  0  0  0
  1 19  1  0  0  0  0
  1 20  1  0  0  0  0
  1 21  1  0  0  0  0
  2  3  1  0  0  0  0
  2 22  1  0  0  0  0
  2 23  1  0  0  0  0
  3  4  1  0  0  0  0
  3 24  1  0  0  0  0
  3 25  1  0  0  0  0
  4  5  1  0  0  0  0
  4 26  1  0  0  0  0
  5  6  2  0  0  0  0
  5 14  1  0  0  0  0
  6  7  1  0  0  0  0
  7  8  1  0  0  0  0
  7 12  2  0  0  0  0
  8  9  1  0  0  0  0
  8 27  1  0  0  0  0
  9 10  1  0  0  0  0
  9 28  1  0  0  0  0
  9 29  1  0  0  0  0
 10 11  1  0  0  0  0
 10 30  1  0  0  0  0
 10 31  1  0  0  0  0
 11 32  1  0  0  0  0
 11 33  1  0  0  0  0
 11 34  1  0  0  0  0
 12 13  1  0  0  0  0
 13 14  2  0  0  0  0
 13 15  1  0  0  0  0
 15 16  1  0  0  0  0
 15 17  1  0  0  0  0
 16 35  1  0  0  0  0
 16 36  1  0  0  0  0
 16 37  1  0  0  0  0
 17 18  1  0  0  0  0
 18 38  1  0  0  0  0
 18 39  1  0  0  0  0
 18 40  1  0  0  0  0
M  END
>  <DRUGBANK_ID>
DB18153

>  <COMMON_NAME>
ENA-001

>  <CAS_NUMBER>
1380341-99-0

>  <UNII>
4RZ4OGT40Z

>  <SYNONYMS>
1,3,5-triazine-2,4,6-triamine, n2-methoxy-n2-methyl-n4,n6-dipropyl-

$$$$
