
 OpenBabel10282417072D

 66 67  0  0  0  0  0  0  0  0999 V2000
   -3.5832    0.3082    0.0000 C   0  0  0  0  0  0  0  0  0  0  0  0
   -4.2971   -0.0918    0.0000 C   0  0  0  0  0  0  0  0  0  0  0  0
   -3.5832    1.1398    0.0000 C   0  0  0  0  0  0  0  0  0  0  0  0
   -2.8614   -0.0918    0.0000 C   0  0  0  0  0  0  0  0  0  0  0  0
   -5.0187    0.3082    0.0000 C   0  0  0  0  0  0  0  0  0  0  0  0
   -4.2971    1.5439    0.0000 C   0  0  0  0  0  0  0  0  0  0  0  0
   -2.1436    0.3161    0.0000 O   0  0  0  0  0  0  0  0  0  0  0  0
   -2.8614   -0.9193    0.0000 O   0  0  0  0  0  0  0  0  0  0  0  0
   -5.0187    1.1281    0.0000 C   0  0  0  0  0  0  0  0  0  0  0  0
   -5.7288   -0.0918    0.0000 O   0  0  0  0  0  0  0  0  0  0  0  0
   -1.4335   -0.1075    0.0000 C   0  0  0  0  0  0  0  0  0  0  0  0
   -5.7288    1.5439    0.0000 O   0  0  0  0  0  0  0  0  0  0  0  0
   -5.7288   -0.9193    0.0000 C   0  0  0  0  0  0  0  0  0  0  0  0
   -0.7157    0.3161    0.0000 C   0  0  0  0  0  0  0  0  0  0  0  0
   -5.7288    2.3637    0.0000 C   0  0  0  0  0  0  0  0  0  0  0  0
    0.0020   -0.1075    0.0000 C   0  0  0  0  0  0  0  0  0  0  0  0
    0.7079    0.3082    0.0000 C   0  0  0  0  0  0  0  0  0  0  0  0
    1.4218   -0.0918    0.0000 N   0  0  0  0  0  0  0  0  0  0  0  0
    2.1436    0.3082    0.0000 C   0  0  3  0  0  0  0  0  0  0  0  0
    1.4218   -0.9193    0.0000 C   0  0  0  0  0  0  0  0  0  0  0  0
    2.8614   -0.0918    0.0000 C   0  0  0  0  0  0  0  0  0  0  0  0
    2.1436    1.1281    0.0000 C   0  0  0  0  0  0  0  0  0  0  0  0
    0.7079   -1.3352    0.0000 C   0  0  0  0  0  0  0  0  0  0  0  0
    3.5714    0.3082    0.0000 C   0  0  0  0  0  0  0  0  0  0  0  0
    4.2814   -0.1075    0.0000 C   0  0  0  0  0  0  0  0  0  0  0  0
    3.5714    1.1398    0.0000 C   0  0  0  0  0  0  0  0  0  0  0  0
    4.9914    0.3161    0.0000 C   0  0  0  0  0  0  0  0  0  0  0  0
    4.2814    1.5398    0.0000 C   0  0  0  0  0  0  0  0  0  0  0  0
    5.0071    1.1398    0.0000 C   0  0  0  0  0  0  0  0  0  0  0  0
    5.7288    1.5398    0.0000 O   0  0  0  0  0  0  0  0  0  0  0  0
    5.7288    2.3637    0.0000 C   0  0  0  0  0  0  0  0  0  0  0  0
   -4.2947   -1.1238    0.0000 H   0  0  0  0  0  0  0  0  0  0  0  0
   -2.6917    1.6596    0.0000 H   0  0  0  0  0  0  0  0  0  0  0  0
   -4.3011    2.5759    0.0000 H   0  0  0  0  0  0  0  0  0  0  0  0
   -1.4360   -1.1775    0.0000 H   0  0  0  0  0  0  0  0  0  0  0  0
   -0.5049   -0.6392    0.0000 H   0  0  0  0  0  0  0  0  0  0  0  0
   -6.6554   -1.4543    0.0000 H   0  0  0  0  0  0  0  0  0  0  0  0
   -4.8022   -1.4543    0.0000 H   0  0  0  0  0  0  0  0  0  0  0  0
   -5.7288   -1.9893    0.0000 H   0  0  0  0  0  0  0  0  0  0  0  0
   -0.7157    1.3861    0.0000 H   0  0  0  0  0  0  0  0  0  0  0  0
    0.2135    0.8466    0.0000 H   0  0  0  0  0  0  0  0  0  0  0  0
   -4.8022    2.8987    0.0000 H   0  0  0  0  0  0  0  0  0  0  0  0
   -6.6554    2.8987    0.0000 H   0  0  0  0  0  0  0  0  0  0  0  0
   -5.7288    3.4337    0.0000 H   0  0  0  0  0  0  0  0  0  0  0  0
    0.0015   -1.1775    0.0000 H   0  0  0  0  0  0  0  0  0  0  0  0
    0.9308   -0.6387    0.0000 H   0  0  0  0  0  0  0  0  0  0  0  0
    0.6964    1.3781    0.0000 H   0  0  0  0  0  0  0  0  0  0  0  0
    1.6282    0.8541    0.0000 H   0  0  0  0  0  0  0  0  0  0  0  0
    2.1423   -0.7618    0.0000 H   0  0  0  0  0  0  0  0  0  0  0  0
    2.3495   -1.4525    0.0000 H   0  0  0  0  0  0  0  0  0  0  0  0
    1.4249   -1.9893    0.0000 H   0  0  0  0  0  0  0  0  0  0  0  0
    2.8639   -1.1618    0.0000 H   0  0  0  0  0  0  0  0  0  0  0  0
    3.7858   -0.6306    0.0000 H   0  0  0  0  0  0  0  0  0  0  0  0
    3.0702    1.6631    0.0000 H   0  0  0  0  0  0  0  0  0  0  0  0
    1.2170    1.6631    0.0000 H   0  0  0  0  0  0  0  0  0  0  0  0
    2.1436    2.1981    0.0000 H   0  0  0  0  0  0  0  0  0  0  0  0
   -0.2208   -0.8038    0.0000 H   0  0  0  0  0  0  0  0  0  0  0  0
    0.7121   -2.4052    0.0000 H   0  0  0  0  0  0  0  0  0  0  0  0
   -0.2166   -1.8738    0.0000 H   0  0  0  0  0  0  0  0  0  0  0  0
    4.2857   -1.1395    0.0000 H   0  0  0  0  0  0  0  0  0  0  0  0
    2.6804    1.6605    0.0000 H   0  0  0  0  0  0  0  0  0  0  0  0
    5.8839   -0.2020    0.0000 H   0  0  0  0  0  0  0  0  0  0  0  0
    4.2766    2.5718    0.0000 H   0  0  0  0  0  0  0  0  0  0  0  0
    6.6554    2.8987    0.0000 H   0  0  0  0  0  0  0  0  0  0  0  0
    4.8022    2.8987    0.0000 H   0  0  0  0  0  0  0  0  0  0  0  0
    5.7288    3.4337    0.0000 H   0  0  0  0  0  0  0  0  0  0  0  0
  1  2  2  0  0  0  0
  1  3  1  0  0  0  0
  1  4  1  0  0  0  0
  2  5  1  0  0  0  0
  2 32  1  0  0  0  0
  3  6  2  0  0  0  0
  3 33  1  0  0  0  0
  4  7  1  0  0  0  0
  4  8  2  0  0  0  0
  5  9  2  0  0  0  0
  5 10  1  0  0  0  0
  6  9  1  0  0  0  0
  6 34  1  0  0  0  0
  7 11  1  0  0  0  0
  9 12  1  0  0  0  0
 10 13  1  0  0  0  0
 11 14  1  0  0  0  0
 11 35  1  0  0  0  0
 11 36  1  0  0  0  0
 12 15  1  0  0  0  0
 13 37  1  0  0  0  0
 13 38  1  0  0  0  0
 13 39  1  0  0  0  0
 14 16  1  0  0  0  0
 14 40  1  0  0  0  0
 14 41  1  0  0  0  0
 15 42  1  0  0  0  0
 15 43  1  0  0  0  0
 15 44  1  0  0  0  0
 16 17  1  0  0  0  0
 16 45  1  0  0  0  0
 16 46  1  0  0  0  0
 17 18  1  0  0  0  0
 17 47  1  0  0  0  0
 17 48  1  0  0  0  0
 18 19  1  0  0  0  0
 18 20  1  0  0  0  0
 19 21  1  0  0  0  0
 19 22  1  0  0  0  0
 19 49  1  0  0  0  0
 20 23  1  0  0  0  0
 20 50  1  0  0  0  0
 20 51  1  0  0  0  0
 21 24  1  0  0  0  0
 21 52  1  0  0  0  0
 21 53  1  0  0  0  0
 22 54  1  0  0  0  0
 22 55  1  0  0  0  0
 22 56  1  0  0  0  0
 23 57  1  0  0  0  0
 23 58  1  0  0  0  0
 23 59  1  0  0  0  0
 24 25  2  0  0  0  0
 24 26  1  0  0  0  0
 25 27  1  0  0  0  0
 25 60  1  0  0  0  0
 26 28  2  0  0  0  0
 26 61  1  0  0  0  0
 27 29  2  0  0  0  0
 27 62  1  0  0  0  0
 28 29  1  0  0  0  0
 28 63  1  0  0  0  0
 29 30  1  0  0  0  0
 30 31  1  0  0  0  0
 31 64  1  0  0  0  0
 31 65  1  0  0  0  0
 31 66  1  0  0  0  0
M  END
>  <DRUGBANK_ID>
DB12554

>  <COMMON_NAME>
Mebeverine

>  <CAS_NUMBER>
3625-06-7

>  <UNII>
7F80CC3NNV

>  <SYNONYMS>
Mebeverina; Mebeverine; Mebeverinum

$$$$
