
 OpenBabel10282417072D

  5  4  0  0  0  0  0  0  0  0999 V2000
    0.8250    0.0000    0.0000 I   0  0  0  0  0  0  0  0  0  0  0  0
    0.0000   -0.8250    0.0000 I   0  0  0  0  0  0  0  0  0  0  0  0
    0.0000    0.0000    0.0000 C   0  0  0  0  0  0  0  0  0  0  0  0
    0.0000    0.8250    0.0000 H   0  0  0  0  0  0  0  0  0  0  0  0
   -0.8250    0.0000    0.0000 I   0  0  0  0  0  0  0  0  0  0  0  0
  1  3  1  0  0  0  0
  3  4  1  0  0  0  0
  3  2  1  0  0  0  0
  5  3  1  0  0  0  0
M  END
>  <DRUGBANK_ID>
DB13813

>  <COMMON_NAME>
Iodoform

>  <CAS_NUMBER>
75-47-8

>  <UNII>
KXI2J76489

>  <SYNONYMS>
carbon triiodide; Iodoform; Jodoform; methyl triiodide; triiodomethane

$$$$
