
 OpenBabel10282417072D

 82 88  0  0  0  0  0  0  0  0999 V2000
    0.0000    2.1750    0.0000 C   0  0  0  0  0  0  0  0  0  0  0  0
    0.0000    1.3500    0.0000 C   0  0  0  0  0  0  0  0  0  0  0  0
    0.7145    0.9375    0.0000 C   0  0  0  0  0  0  0  0  0  0  0  0
    0.7145    0.1125    0.0000 C   0  0  0  0  0  0  0  0  0  0  0  0
    0.0000   -0.3000    0.0000 C   0  0  0  0  0  0  0  0  0  0  0  0
   -0.7145    0.1125    0.0000 C   0  0  0  0  0  0  0  0  0  0  0  0
   -0.7145    0.9375    0.0000 C   0  0  0  0  0  0  0  0  0  0  0  0
   -0.0000   -1.1250    0.0000 S   0  0  0  0  0  0  0  0  0  0  0  0
   -0.0000   -1.9500    0.0000 O   0  0  0  0  0  0  0  0  0  0  0  0
   -0.8250   -1.1250    0.0000 O   0  0  0  0  0  0  0  0  0  0  0  0
    0.8250   -1.1250    0.0000 O   0  0  0  0  0  0  0  0  0  0  0  0
    8.5877   -2.9859    0.0000 C   0  0  0  0  0  0  0  0  0  0  0  0
    8.4906   -2.1666    0.0000 C   0  0  0  0  0  0  0  0  0  0  0  0
    9.1515   -1.6729    0.0000 C   0  0  0  0  0  0  0  0  0  0  0  0
    7.7325   -1.8412    0.0000 C   0  0  0  0  0  0  0  0  0  0  0  0
    7.6353   -1.0219    0.0000 N   0  0  0  0  0  0  0  0  0  0  0  0
    6.9154   -0.6190    0.0000 C   0  0  0  0  0  0  0  0  0  0  0  0
    6.1342   -0.8844    0.0000 C   0  0  0  0  0  0  0  0  0  0  0  0
    5.5138   -0.3406    0.0000 C   0  0  0  0  0  0  0  0  0  0  0  0
    5.6746    0.4686    0.0000 C   0  0  0  0  0  0  0  0  0  0  0  0
    5.0542    1.0124    0.0000 N   0  0  0  0  0  0  0  0  0  0  0  0
    4.2730    0.7470    0.0000 C   0  0  0  0  0  0  0  0  0  0  0  0
    4.1123   -0.0622    0.0000 N   0  0  0  0  0  0  0  0  0  0  0  0
    3.3311   -0.3276    0.0000 C   0  0  0  0  0  0  0  0  0  0  0  0
    2.7107    0.2162    0.0000 C   0  0  0  0  0  0  0  0  0  0  0  0
    2.8715    1.0254    0.0000 C   0  0  0  0  0  0  0  0  0  0  0  0
    3.6526    1.2908    0.0000 N   0  0  0  0  0  0  0  0  0  0  0  0
    6.4557    0.7340    0.0000 C   0  0  0  0  0  0  0  0  0  0  0  0
    7.0761    0.1902    0.0000 C   0  0  0  0  0  0  0  0  0  0  0  0
    7.8954    0.2874    0.0000 C   0  0  0  0  0  0  0  0  0  0  0  0
    8.3714    0.9612    0.0000 C   0  0  0  0  0  0  0  0  0  0  0  0
    8.1891    1.7658    0.0000 C   0  0  0  0  0  0  0  0  0  0  0  0
    8.8980    2.1878    0.0000 N   0  0  0  0  0  0  0  0  0  0  0  0
    9.5184    1.6440    0.0000 C   0  0  0  0  0  0  0  0  0  0  0  0
   10.3230    1.8263    0.0000 O   0  0  0  0  0  0  0  0  0  0  0  0
    9.1929    0.8860    0.0000 C   0  0  0  0  0  0  0  0  0  0  0  0
    9.5385    0.1368    0.0000 C   0  0  0  0  0  0  0  0  0  0  0  0
   10.3601    0.0615    0.0000 C   0  0  0  0  0  0  0  0  0  0  0  0
   10.9657    0.6217    0.0000 C   0  0  0  0  0  0  0  0  0  0  0  0
   11.6856    0.2188    0.0000 N   0  0  0  0  0  0  0  0  0  0  0  0
   12.4348    0.5644    0.0000 C   0  0  0  0  0  0  0  0  0  0  0  0
   11.5249   -0.5904    0.0000 N   0  0  0  0  0  0  0  0  0  0  0  0
   10.7056   -0.6876    0.0000 C   0  0  0  0  0  0  0  0  0  0  0  0
   10.2297   -1.3614    0.0000 C   0  0  0  0  0  0  0  0  0  0  0  0
    9.4081   -1.2862    0.0000 C   0  0  0  0  0  0  0  0  0  0  0  0
    9.0625   -0.5370    0.0000 C   0  0  0  0  0  0  0  0  0  0  0  0
    8.2410   -0.4618    0.0000 C   0  0  0  0  0  0  0  0  0  0  0  0
    0.9266    2.7100    0.0000 H   0  0  0  0  0  0  0  0  0  0  0  0
   -0.9266    2.7100    0.0000 H   0  0  0  0  0  0  0  0  0  0  0  0
    0.0000    3.2450    0.0000 H   0  0  0  0  0  0  0  0  0  0  0  0
    1.6082    1.4535    0.0000 H   0  0  0  0  0  0  0  0  0  0  0  0
    1.6082   -0.4035    0.0000 H   0  0  0  0  0  0  0  0  0  0  0  0
   -1.6082   -0.4035    0.0000 H   0  0  0  0  0  0  0  0  0  0  0  0
   -1.6082    1.4535    0.0000 H   0  0  0  0  0  0  0  0  0  0  0  0
   -0.8400   -2.4350    0.0000 H   0  0  0  0  0  0  0  0  0  0  0  0
    7.7305   -3.6262    0.0000 H   0  0  0  0  0  0  0  0  0  0  0  0
    9.5709   -3.4081    0.0000 H   0  0  0  0  0  0  0  0  0  0  0  0
    8.7136   -4.0485    0.0000 H   0  0  0  0  0  0  0  0  0  0  0  0
    8.3646   -1.1040    0.0000 H   0  0  0  0  0  0  0  0  0  0  0  0
   10.1347   -2.0951    0.0000 H   0  0  0  0  0  0  0  0  0  0  0  0
    9.0255   -0.6103    0.0000 H   0  0  0  0  0  0  0  0  0  0  0  0
   10.0087   -1.0325    0.0000 H   0  0  0  0  0  0  0  0  0  0  0  0
    6.8754   -2.4817    0.0000 H   0  0  0  0  0  0  0  0  0  0  0  0
    6.7493   -1.4191    0.0000 H   0  0  0  0  0  0  0  0  0  0  0  0
    5.9331   -1.8966    0.0000 H   0  0  0  0  0  0  0  0  0  0  0  0
    4.5366   -0.6725    0.0000 H   0  0  0  0  0  0  0  0  0  0  0  0
    5.2460    1.9780    0.0000 H   0  0  0  0  0  0  0  0  0  0  0  0
    3.1300   -1.3398    0.0000 H   0  0  0  0  0  0  0  0  0  0  0  0
    1.7335   -0.1157    0.0000 H   0  0  0  0  0  0  0  0  0  0  0  0
    2.0954    1.7057    0.0000 H   0  0  0  0  0  0  0  0  0  0  0  0
    6.6568    1.7462    0.0000 H   0  0  0  0  0  0  0  0  0  0  0  0
    7.2059    2.1879    0.0000 H   0  0  0  0  0  0  0  0  0  0  0  0
    8.1188    2.8335    0.0000 H   0  0  0  0  0  0  0  0  0  0  0  0
    8.9878    3.1682    0.0000 H   0  0  0  0  0  0  0  0  0  0  0  0
   10.8441    1.6465    0.0000 H   0  0  0  0  0  0  0  0  0  0  0  0
   13.3088   -0.0529    0.0000 H   0  0  0  0  0  0  0  0  0  0  0  0
   12.5325    1.6299    0.0000 H   0  0  0  0  0  0  0  0  0  0  0  0
   13.4064    1.0126    0.0000 H   0  0  0  0  0  0  0  0  0  0  0  0
   10.6780   -2.3330    0.0000 H   0  0  0  0  0  0  0  0  0  0  0  0
    9.6125   -2.2354    0.0000 H   0  0  0  0  0  0  0  0  0  0  0  0
    8.7908   -2.1602    0.0000 H   0  0  0  0  0  0  0  0  0  0  0  0
    8.3426   -1.1886    0.0000 H   0  0  0  0  0  0  0  0  0  0  0  0
  1  2  1  0  0  0  0
  1 48  1  0  0  0  0
  1 49  1  0  0  0  0
  1 50  1  0  0  0  0
  2  3  2  0  0  0  0
  2  7  1  0  0  0  0
  3  4  1  0  0  0  0
  3 51  1  0  0  0  0
  4  5  2  0  0  0  0
  4 52  1  0  0  0  0
  5  6  1  0  0  0  0
  5  8  1  0  0  0  0
  6  7  2  0  0  0  0
  6 53  1  0  0  0  0
  7 54  1  0  0  0  0
  8  9  1  0  0  0  0
  8 10  2  0  0  0  0
  8 11  2  0  0  0  0
  9 55  1  0  0  0  0
 12 13  1  0  0  0  0
 12 56  1  0  0  0  0
 12 57  1  0  0  0  0
 12 58  1  0  0  0  0
 13 14  1  0  0  0  0
 13 15  1  0  0  0  0
 13 59  1  0  0  0  0
 14 60  1  0  0  0  0
 14 61  1  0  0  0  0
 14 62  1  0  0  0  0
 15 16  1  0  0  0  0
 15 63  1  0  0  0  0
 15 64  1  0  0  0  0
 16 17  1  0  0  0  0
 16 47  1  0  0  0  0
 17 18  1  0  0  0  0
 17 29  2  0  0  0  0
 18 19  2  0  0  0  0
 18 65  1  0  0  0  0
 19 20  1  0  0  0  0
 19 66  1  0  0  0  0
 20 21  1  0  0  0  0
 20 28  2  0  0  0  0
 21 22  1  0  0  0  0
 21 67  1  0  0  0  0
 22 23  2  0  0  0  0
 22 27  1  0  0  0  0
 23 24  1  0  0  0  0
 24 25  2  0  0  0  0
 24 68  1  0  0  0  0
 25 26  1  0  0  0  0
 25 69  1  0  0  0  0
 26 27  2  0  0  0  0
 26 70  1  0  0  0  0
 28 29  1  0  0  0  0
 28 71  1  0  0  0  0
 29 30  1  0  0  0  0
 30 31  1  0  0  0  0
 30 47  2  0  0  0  0
 31 32  1  0  0  0  0
 31 36  2  0  0  0  0
 32 33  1  0  0  0  0
 32 72  1  0  0  0  0
 32 73  1  0  0  0  0
 33 34  1  0  0  0  0
 33 74  1  0  0  0  0
 34 35  2  0  0  0  0
 34 36  1  0  0  0  0
 36 37  1  0  0  0  0
 37 38  1  0  0  0  0
 37 46  2  0  0  0  0
 38 39  2  0  0  0  0
 38 43  1  0  0  0  0
 39 40  1  0  0  0  0
 39 75  1  0  0  0  0
 40 41  1  0  0  0  0
 40 42  1  0  0  0  0
 41 76  1  0  0  0  0
 41 77  1  0  0  0  0
 41 78  1  0  0  0  0
 42 43  2  0  0  0  0
 43 44  1  0  0  0  0
 44 45  1  0  0  0  0
 44 79  1  0  0  0  0
 44 80  1  0  0  0  0
 45 46  1  0  0  0  0
 45 81  1  0  0  0  0
 45 82  1  0  0  0  0
 46 47  1  0  0  0  0
M  END
>  <DRUGBANK_ID>
DB18155

>  <COMMON_NAME>
ESK981

>  <CAS_NUMBER>
856691-93-5

>  <UNII>
J8AY0Z4CBP

>  <SYNONYMS>
4h-indazolo(5,4-a)pyrrolo(3,4-c)carbazol-4-one, 2,5,6,11,12,13-hexahydro-2-methyl-11-(2-methylpropyl)-8-(2-pyrimidinylamino)-, 4-methylbenzenesulfonate (1:1); Bol 303213x tosylate; Bol-303213x tosylate; Cep-11981 tosylate

$$$$
