
 OpenBabel10282417072D

 52 56  0  0  0  0  0  0  0  0999 V2000
   -1.1307    0.9116    0.0000 C   0  0  0  0  0  0  0  0  0  0  0  0
   -0.3057    0.9116    0.0000 C   0  0  0  0  0  0  0  0  0  0  0  0
   -0.0508    1.6964    0.0000 C   0  0  0  0  0  0  0  0  0  0  0  0
   -0.7182    2.1812    0.0000 N   0  0  0  0  0  0  0  0  0  0  0  0
   -1.3857    1.6964    0.0000 C   0  0  0  0  0  0  0  0  0  0  0  0
   -2.1702    1.9512    0.0000 O   0  0  0  0  0  0  0  0  0  0  0  0
    0.7337    1.9512    0.0000 O   0  0  0  0  0  0  0  0  0  0  0  0
   -1.6157    0.2443    0.0000 C   0  0  0  0  0  0  0  0  0  0  0  0
   -1.3607   -0.5402    0.0000 C   0  0  0  0  0  0  0  0  0  0  0  0
   -2.0282   -1.0251    0.0000 N   0  0  0  0  0  0  0  0  0  0  0  0
   -2.0282   -1.8502    0.0000 C   0  0  0  0  0  0  0  0  0  0  0  0
   -2.6955   -0.5402    0.0000 C   0  0  0  0  0  0  0  0  0  0  0  0
   -2.4407    0.2443    0.0000 C   0  0  0  0  0  0  0  0  0  0  0  0
   -2.9927    0.8573    0.0000 C   0  0  0  0  0  0  0  0  0  0  0  0
   -3.7997    0.6859    0.0000 C   0  0  0  0  0  0  0  0  0  0  0  0
   -4.0546   -0.0986    0.0000 C   0  0  0  0  0  0  0  0  0  0  0  0
   -3.5026   -0.7117    0.0000 C   0  0  0  0  0  0  0  0  0  0  0  0
    1.0041    0.2443    0.0000 C   0  0  0  0  0  0  0  0  0  0  0  0
    1.2590   -0.5402    0.0000 N   0  0  0  0  0  0  0  0  0  0  0  0
    0.1792    0.2443    0.0000 C   0  0  0  0  0  0  0  0  0  0  0  0
   -0.0758   -0.5402    0.0000 C   0  0  0  0  0  0  0  0  0  0  0  0
    0.5916   -1.0251    0.0000 C   0  0  0  0  0  0  0  0  0  0  0  0
    0.5054   -1.8457    0.0000 C   0  0  0  0  0  0  0  0  0  0  0  0
   -0.2482   -2.1812    0.0000 C   0  0  0  0  0  0  0  0  0  0  0  0
   -0.9157   -1.6963    0.0000 C   0  0  0  0  0  0  0  0  0  0  0  0
   -0.8294   -0.8758    0.0000 C   0  0  0  0  0  0  0  0  0  0  0  0
    2.0437   -0.7953    0.0000 C   0  0  0  0  0  0  0  0  0  0  0  0
    2.6568   -0.2431    0.0000 C   0  0  0  0  0  0  0  0  0  0  0  0
    3.4415   -0.4981    0.0000 C   0  0  0  0  0  0  0  0  0  0  0  0
    4.0546    0.0538    0.0000 N   0  0  0  0  0  0  0  0  0  0  0  0
   -0.7182    3.1657    0.0000 H   0  0  0  0  0  0  0  0  0  0  0  0
   -0.3792   -0.8591    0.0000 H   0  0  0  0  0  0  0  0  0  0  0  0
   -2.9548   -2.3852    0.0000 H   0  0  0  0  0  0  0  0  0  0  0  0
   -1.1016   -2.3852    0.0000 H   0  0  0  0  0  0  0  0  0  0  0  0
   -2.0282   -2.9202    0.0000 H   0  0  0  0  0  0  0  0  0  0  0  0
   -2.6737    1.8388    0.0000 H   0  0  0  0  0  0  0  0  0  0  0  0
   -4.4902    1.4529    0.0000 H   0  0  0  0  0  0  0  0  0  0  0  0
   -5.0641   -0.3131    0.0000 H   0  0  0  0  0  0  0  0  0  0  0  0
   -3.8216   -1.6932    0.0000 H   0  0  0  0  0  0  0  0  0  0  0  0
    1.6107    1.0792    0.0000 H   0  0  0  0  0  0  0  0  0  0  0  0
    1.3403   -2.4523    0.0000 H   0  0  0  0  0  0  0  0  0  0  0  0
   -0.3561   -3.2075    0.0000 H   0  0  0  0  0  0  0  0  0  0  0  0
   -1.8585   -2.1160    0.0000 H   0  0  0  0  0  0  0  0  0  0  0  0
   -1.6643   -0.2692    0.0000 H   0  0  0  0  0  0  0  0  0  0  0  0
    2.2662   -1.8419    0.0000 H   0  0  0  0  0  0  0  0  0  0  0  0
    3.0614   -1.1259    0.0000 H   0  0  0  0  0  0  0  0  0  0  0  0
    2.4343    0.8035    0.0000 H   0  0  0  0  0  0  0  0  0  0  0  0
    3.4520    0.4729    0.0000 H   0  0  0  0  0  0  0  0  0  0  0  0
    3.6639   -1.5447    0.0000 H   0  0  0  0  0  0  0  0  0  0  0  0
    4.4591   -0.8289    0.0000 H   0  0  0  0  0  0  0  0  0  0  0  0
    5.0246   -0.2615    0.0000 H   0  0  0  0  0  0  0  0  0  0  0  0
    3.8427    1.0515    0.0000 H   0  0  0  0  0  0  0  0  0  0  0  0
  1  8  1  0  0  0  0
  1  2  2  0  0  0  0
  2  3  1  0  0  0  0
  3  7  2  0  0  0  0
  3  4  1  0  0  0  0
  4  5  1  0  0  0  0
  4 31  1  0  0  0  0
  5  1  1  0  0  0  0
  5  6  2  0  0  0  0
  8 13  1  0  0  0  0
  8  9  2  0  0  0  0
  9 10  1  0  0  0  0
  9 32  1  0  0  0  0
 10 12  1  0  0  0  0
 10 11  1  0  0  0  0
 11 33  1  0  0  0  0
 11 34  1  0  0  0  0
 11 35  1  0  0  0  0
 12 13  2  0  0  0  0
 13 14  1  0  0  0  0
 14 15  2  0  0  0  0
 14 36  1  0  0  0  0
 15 16  1  0  0  0  0
 15 37  1  0  0  0  0
 16 17  2  0  0  0  0
 16 38  1  0  0  0  0
 17 12  1  0  0  0  0
 17 39  1  0  0  0  0
 18 19  1  0  0  0  0
 18 40  1  0  0  0  0
 19 22  1  0  0  0  0
 19 27  1  0  0  0  0
 20 18  2  0  0  0  0
 20  2  1  0  0  0  0
 21 20  1  0  0  0  0
 21 22  2  0  0  0  0
 22 23  1  0  0  0  0
 23 24  2  0  0  0  0
 23 41  1  0  0  0  0
 24 25  1  0  0  0  0
 24 42  1  0  0  0  0
 25 26  2  0  0  0  0
 25 43  1  0  0  0  0
 26 21  1  0  0  0  0
 26 44  1  0  0  0  0
 27 28  1  0  0  0  0
 27 45  1  0  0  0  0
 27 46  1  0  0  0  0
 28 29  1  0  0  0  0
 28 47  1  0  0  0  0
 28 48  1  0  0  0  0
 29 30  1  0  0  0  0
 29 49  1  0  0  0  0
 29 50  1  0  0  0  0
 30 51  1  0  0  0  0
 30 52  1  0  0  0  0
M  END
>  <DRUGBANK_ID>
DB01946

>  <SECONDARY_ACCESSION_NUMBERS>
EXPT00704

>  <COMMON_NAME>
Bisindolylmaleimide VIII

>  <CAS_NUMBER>
125313-65-7

>  <UNII>
Y6197FQK8I

$$$$
