
 OpenBabel10282417072D

 33 33  0  0  0  0  0  0  0  0999 V2000
    2.0212   -0.2978    0.0000 O   0  0  0  0  0  0  0  0  0  0  0  0
   -0.3207   -1.9984    0.0000 O   0  0  0  0  0  0  0  0  0  0  0  0
   -0.1420    1.9984    0.0000 O   0  0  0  0  0  0  0  0  0  0  0  0
   -1.4941   -0.8432    0.0000 O   0  0  0  0  0  0  0  0  0  0  0  0
    2.2917   -1.9205    0.0000 O   0  0  0  0  0  0  0  0  0  0  0  0
    1.2878    1.9984    0.0000 O   0  0  0  0  0  0  0  0  0  0  0  0
   -2.2917    0.7562    0.0000 O   0  0  0  0  0  0  0  0  0  0  0  0
   -0.0962   -0.5453    0.0000 N   0  0  0  0  0  0  0  0  0  0  0  0
    0.9809   -1.3337    0.0000 N   0  0  0  0  0  0  0  0  0  0  0  0
    0.5729    0.7562    0.0000 N   0  0  0  0  0  0  0  0  0  0  0  0
   -0.8616    0.7562    0.0000 N   0  0  0  0  0  0  0  0  0  0  0  0
    0.5729   -0.0687    0.0000 C   0  0  3  0  0  0  0  0  0  0  0  0
    1.2375   -0.5453    0.0000 C   0  0  0  0  0  0  0  0  0  0  0  0
    0.1558   -1.3337    0.0000 C   0  0  0  0  0  0  0  0  0  0  0  0
   -0.1420    1.1733    0.0000 C   0  0  0  0  0  0  0  0  0  0  0  0
   -0.8800   -0.2978    0.0000 C   0  0  0  0  0  0  0  0  0  0  0  0
    1.4666   -1.9984    0.0000 C   0  0  0  0  0  0  0  0  0  0  0  0
    1.2878    1.1733    0.0000 C   0  0  0  0  0  0  0  0  0  0  0  0
   -1.5766    1.1733    0.0000 C   0  0  0  0  0  0  0  0  0  0  0  0
   -2.4146   -0.5372    0.0000 H   0  0  0  0  0  0  0  0  0  0  0  0
    2.8535   -2.7112    0.0000 H   0  0  0  0  0  0  0  0  0  0  0  0
    2.1278    2.4834    0.0000 H   0  0  0  0  0  0  0  0  0  0  0  0
   -3.1339    1.2375    0.0000 H   0  0  0  0  0  0  0  0  0  0  0  0
   -0.8630   -0.2283    0.0000 H   0  0  0  0  0  0  0  0  0  0  0  0
   -0.3782    0.4215    0.0000 H   0  0  0  0  0  0  0  0  0  0  0  0
   -1.1032    0.7487    0.0000 H   0  0  0  0  0  0  0  0  0  0  0  0
   -0.0881    0.4218    0.0000 H   0  0  0  0  0  0  0  0  0  0  0  0
    1.0276   -2.9742    0.0000 H   0  0  0  0  0  0  0  0  0  0  0  0
    0.4024   -2.1096    0.0000 H   0  0  0  0  0  0  0  0  0  0  0  0
    2.2157    0.6404    0.0000 H   0  0  0  0  0  0  0  0  0  0  0  0
    1.2915    0.1033    0.0000 H   0  0  0  0  0  0  0  0  0  0  0  0
   -1.5766    2.2433    0.0000 H   0  0  0  0  0  0  0  0  0  0  0  0
   -0.6487    1.7062    0.0000 H   0  0  0  0  0  0  0  0  0  0  0  0
  1 13  2  0  0  0  0
  2 14  2  0  0  0  0
  3 15  2  0  0  0  0
  4 16  1  0  0  0  0
  4 20  1  0  0  0  0
  5 17  1  0  0  0  0
  5 21  1  0  0  0  0
  6 18  1  0  0  0  0
  6 22  1  0  0  0  0
  7 19  1  0  0  0  0
  7 23  1  0  0  0  0
  8 12  1  0  0  0  0
  8 14  1  0  0  0  0
  8 16  1  0  0  0  0
  9 13  1  0  0  0  0
  9 14  1  0  0  0  0
  9 17  1  0  0  0  0
 10 12  1  0  0  0  0
 10 15  1  0  0  0  0
 10 18  1  0  0  0  0
 11 15  1  0  0  0  0
 11 19  1  0  0  0  0
 11 24  1  0  0  0  0
 12 13  1  0  0  0  0
 12 25  1  0  0  0  0
 16 26  1  0  0  0  0
 16 27  1  0  0  0  0
 17 28  1  0  0  0  0
 17 29  1  0  0  0  0
 18 30  1  0  0  0  0
 18 31  1  0  0  0  0
 19 32  1  0  0  0  0
 19 33  1  0  0  0  0
M  END
>  <DRUGBANK_ID>
DB14173

>  <COMMON_NAME>
Diazolidinylurea

>  <CAS_NUMBER>
78491-02-8

>  <UNII>
N9VX1IBW6K

>  <SYNONYMS>
Diazolidinyl urea; N-(1,3-Bis(hydroxymethyl)-2,5-dioxo-4-imidazolidinyl)-N,N'-bis(hydroxymethyl)urea; N,N'-Bis(hydroxymethyl) urea

$$$$
