935
 OpenBabel10282417072D

 43 44  0  0  0  0  0  0  0  0999 V2000
    2.0930    1.2002    0.0000 O   0  0  0  0  0  0  0  0  0  0  0  0
    4.3227   -2.5079    0.0000 N   0  0  0  0  0  0  0  0  0  0  0  0
    4.9902   -1.3519    0.0000 N   0  0  0  0  0  0  0  0  0  0  0  0
    3.5220    2.0252    0.0000 C   0  0  0  0  0  0  0  0  0  0  0  0
    3.5220    1.2002    0.0000 C   0  0  0  0  0  0  0  0  0  0  0  0
    3.5220   -0.4499    0.0000 C   0  0  0  0  0  0  0  0  0  0  0  0
    2.8075    0.7876    0.0000 C   0  0  0  0  0  0  0  0  0  0  0  0
    2.8075   -0.0374    0.0000 C   0  0  0  0  0  0  0  0  0  0  0  0
    4.2365   -0.0374    0.0000 C   0  0  0  0  0  0  0  0  0  0  0  0
    4.2365    0.7876    0.0000 C   0  0  0  0  0  0  0  0  0  0  0  0
    3.5220    2.8502    0.0000 C   0  0  0  0  0  0  0  0  0  0  0  0
    4.3470    2.0252    0.0000 C   0  0  0  0  0  0  0  0  0  0  0  0
    2.6970    2.0252    0.0000 C   0  0  0  0  0  0  0  0  0  0  0  0
    3.5220   -1.2749    0.0000 C   0  0  0  0  0  0  0  0  0  0  0  0
    4.2365   -1.6874    0.0000 C   0  0  0  0  0  0  0  0  0  0  0  0
    2.0930   -0.4499    0.0000 C   0  0  0  0  0  0  0  0  0  0  0  0
    4.9509   -0.4499    0.0000 C   0  0  0  0  0  0  0  0  0  0  0  0
    5.1297   -2.6794    0.0000 C   0  0  0  0  0  0  0  0  0  0  0  0
    5.5422   -1.9649    0.0000 C   0  0  0  0  0  0  0  0  0  0  0  0
    2.0931    2.1372    0.0000 H   0  0  0  0  0  0  0  0  0  0  0  0
    3.5911   -3.1667    0.0000 H   0  0  0  0  0  0  0  0  0  0  0  0
    5.1303    1.3036    0.0000 H   0  0  0  0  0  0  0  0  0  0  0  0
    4.4486    3.3852    0.0000 H   0  0  0  0  0  0  0  0  0  0  0  0
    2.5954    3.3852    0.0000 H   0  0  0  0  0  0  0  0  0  0  0  0
    3.5220    3.9202    0.0000 H   0  0  0  0  0  0  0  0  0  0  0  0
    4.8820    1.0986    0.0000 H   0  0  0  0  0  0  0  0  0  0  0  0
    4.8820    2.9518    0.0000 H   0  0  0  0  0  0  0  0  0  0  0  0
    5.4170    2.0252    0.0000 H   0  0  0  0  0  0  0  0  0  0  0  0
    2.1620    2.9518    0.0000 H   0  0  0  0  0  0  0  0  0  0  0  0
    2.1620    1.0986    0.0000 H   0  0  0  0  0  0  0  0  0  0  0  0
    1.6270    2.0252    0.0000 H   0  0  0  0  0  0  0  0  0  0  0  0
    2.5954   -1.8099    0.0000 H   0  0  0  0  0  0  0  0  0  0  0  0
    3.5220   -2.3449    0.0000 H   0  0  0  0  0  0  0  0  0  0  0  0
    1.1664    0.0851    0.0000 H   0  0  0  0  0  0  0  0  0  0  0  0
    2.0930   -1.5199    0.0000 H   0  0  0  0  0  0  0  0  0  0  0  0
    1.1663   -0.9849    0.0000 H   0  0  0  0  0  0  0  0  0  0  0  0
    4.9509   -1.5199    0.0000 H   0  0  0  0  0  0  0  0  0  0  0  0
    5.8776    0.0851    0.0000 H   0  0  0  0  0  0  0  0  0  0  0  0
    5.8775   -0.9849    0.0000 H   0  0  0  0  0  0  0  0  0  0  0  0
    5.5649   -3.6569    0.0000 H   0  0  0  0  0  0  0  0  0  0  0  0
    6.1982   -2.7354    0.0000 H   0  0  0  0  0  0  0  0  0  0  0  0
    6.6063   -1.8530    0.0000 H   0  0  0  0  0  0  0  0  0  0  0  0
    6.1250   -2.8623    0.0000 H   0  0  0  0  0  0  0  0  0  0  0  0
  1  7  1  0  0  0  0
  1 20  1  0  0  0  0
  2 15  1  0  0  0  0
  2 18  1  0  0  0  0
  2 21  1  0  0  0  0
  3 15  2  0  0  0  0
  3 19  1  0  0  0  0
  4  5  1  0  0  0  0
  4 11  1  0  0  0  0
  4 12  1  0  0  0  0
  4 13  1  0  0  0  0
  5  7  2  0  0  0  0
  5 10  1  0  0  0  0
  6  8  2  0  0  0  0
  6  9  1  0  0  0  0
  6 14  1  0  0  0  0
  7  8  1  0  0  0  0
  8 16  1  0  0  0  0
  9 10  2  0  0  0  0
  9 17  1  0  0  0  0
 10 22  1  0  0  0  0
 11 23  1  0  0  0  0
 11 24  1  0  0  0  0
 11 25  1  0  0  0  0
 12 26  1  0  0  0  0
 12 27  1  0  0  0  0
 12 28  1  0  0  0  0
 13 29  1  0  0  0  0
 13 30  1  0  0  0  0
 13 31  1  0  0  0  0
 14 15  1  0  0  0  0
 14 32  1  0  0  0  0
 14 33  1  0  0  0  0
 16 34  1  0  0  0  0
 16 35  1  0  0  0  0
 16 36  1  0  0  0  0
 17 37  1  0  0  0  0
 17 38  1  0  0  0  0
 17 39  1  0  0  0  0
 18 19  1  0  0  0  0
 18 40  1  0  0  0  0
 18 41  1  0  0  0  0
 19 42  1  0  0  0  0
 19 43  1  0  0  0  0
M  END
>  <DRUGBANK_ID>
DB00935

>  <SECONDARY_ACCESSION_NUMBERS>
APRD01158

>  <COMMON_NAME>
Oxymetazoline

>  <CAS_NUMBER>
1491-59-4

>  <UNII>
8VLN5B44ZY

>  <SYNONYMS>
2-(4-tert-butyl-2,6-dimethyl-3-hydroxybenzyl)-2-imidazoline; 3-[(4,5-dihydro-1H-imidazol-2-yl)methyl]-6-(1,1-dimethylethyl)-2,4-dimethylphenol; 6-t-butyl-3-(2-imidazolin-2-ylmethyl)-2,4-dimethylphenol; 6-tert-butyl-3-(2-imidazolin-2-ylmethyl)-2,4-dimethylphenol; Oximetazolinum; Oxymetazolina; Oxymetazoline; Oxym√©tazoline; Oxymetazolinum; Oxymethazoline; Oxymetozoline

$$$$
