PLB
 OpenBabel10282417072D

 38 40  0  0  0  0  0  0  0  0999 V2000
    1.0898    4.7011    0.0000 Cl  0  0  0  0  0  0  0  0  0  0  0  0
    1.0898    3.8761    0.0000 C   0  0  0  0  0  0  0  0  0  0  0  0
    1.8042    3.4636    0.0000 C   0  0  0  0  0  0  0  0  0  0  0  0
    1.8042    2.6386    0.0000 C   0  0  0  0  0  0  0  0  0  0  0  0
    2.5187    2.2261    0.0000 Cl  0  0  0  0  0  0  0  0  0  0  0  0
    0.3753    3.4636    0.0000 C   0  0  0  0  0  0  0  0  0  0  0  0
    0.3753    2.6386    0.0000 C   0  0  0  0  0  0  0  0  0  0  0  0
    1.0898    2.2261    0.0000 C   0  0  0  0  0  0  0  0  0  0  0  0
    1.0898    1.4011    0.0000 C   0  0  0  0  0  0  0  0  0  0  0  0
    1.8042    0.9886    0.0000 O   0  0  0  0  0  0  0  0  0  0  0  0
    0.3753    0.9886    0.0000 N   0  0  0  0  0  0  0  0  0  0  0  0
    0.3753    0.1636    0.0000 C   0  0  0  0  0  0  0  0  0  0  0  0
    1.0898   -0.2489    0.0000 C   0  0  0  0  0  0  0  0  0  0  0  0
    1.0898   -1.0739    0.0000 C   0  0  0  0  0  0  0  0  0  0  0  0
    0.3753   -1.4864    0.0000 C   0  0  0  0  0  0  0  0  0  0  0  0
   -0.3392   -1.0739    0.0000 C   0  0  0  0  0  0  0  0  0  0  0  0
   -0.3392   -0.2489    0.0000 C   0  0  0  0  0  0  0  0  0  0  0  0
   -1.0537    0.1636    0.0000 C   0  0  0  0  0  0  0  0  0  0  0  0
   -1.7681   -0.2489    0.0000 O   0  0  0  0  0  0  0  0  0  0  0  0
   -1.0537    0.9886    0.0000 O   0  0  0  0  0  0  0  0  0  0  0  0
    0.3753   -2.3114    0.0000 O   0  0  0  0  0  0  0  0  0  0  0  0
   -0.3392   -2.7239    0.0000 C   0  0  0  0  0  0  0  0  0  0  0  0
   -0.3392   -3.5489    0.0000 N   0  0  0  0  0  0  0  0  0  0  0  0
   -1.0537   -3.9614    0.0000 C   0  0  0  0  0  0  0  0  0  0  0  0
   -1.7681   -3.5489    0.0000 C   0  0  0  0  0  0  0  0  0  0  0  0
   -1.7681   -2.7239    0.0000 C   0  0  0  0  0  0  0  0  0  0  0  0
   -1.0537   -2.3114    0.0000 N   0  0  0  0  0  0  0  0  0  0  0  0
    2.6979    3.9796    0.0000 H   0  0  0  0  0  0  0  0  0  0  0  0
   -0.5184    3.9796    0.0000 H   0  0  0  0  0  0  0  0  0  0  0  0
   -0.5184    2.1226    0.0000 H   0  0  0  0  0  0  0  0  0  0  0  0
   -0.4773    1.4809    0.0000 H   0  0  0  0  0  0  0  0  0  0  0  0
    1.9835    0.2671    0.0000 H   0  0  0  0  0  0  0  0  0  0  0  0
    1.9835   -1.5899    0.0000 H   0  0  0  0  0  0  0  0  0  0  0  0
   -1.2329   -1.5899    0.0000 H   0  0  0  0  0  0  0  0  0  0  0  0
   -0.2422    1.4571    0.0000 H   0  0  0  0  0  0  0  0  0  0  0  0
   -1.0537   -4.9934    0.0000 H   0  0  0  0  0  0  0  0  0  0  0  0
   -2.6618   -4.0649    0.0000 H   0  0  0  0  0  0  0  0  0  0  0  0
   -2.6618   -2.2079    0.0000 H   0  0  0  0  0  0  0  0  0  0  0  0
  1  2  1  0  0  0  0
  2  3  2  0  0  0  0
  2  6  1  0  0  0  0
  3  4  1  0  0  0  0
  3 28  1  0  0  0  0
  4  5  1  0  0  0  0
  4  8  2  0  0  0  0
  6  7  2  0  0  0  0
  6 29  1  0  0  0  0
  7  8  1  0  0  0  0
  7 30  1  0  0  0  0
  8  9  1  0  0  0  0
  9 10  2  0  0  0  0
  9 11  1  0  0  0  0
 11 12  1  0  0  0  0
 11 31  1  0  0  0  0
 12 13  1  0  0  0  0
 12 17  2  0  0  0  0
 13 14  2  0  0  0  0
 13 32  1  0  0  0  0
 14 15  1  0  0  0  0
 14 33  1  0  0  0  0
 15 16  2  0  0  0  0
 15 21  1  0  0  0  0
 16 17  1  0  0  0  0
 16 34  1  0  0  0  0
 17 18  1  0  0  0  0
 18 19  2  0  0  0  0
 18 20  1  0  0  0  0
 20 35  1  0  0  0  0
 21 22  1  0  0  0  0
 22 23  1  0  0  0  0
 22 27  2  0  0  0  0
 23 24  2  0  0  0  0
 24 25  1  0  0  0  0
 24 36  1  0  0  0  0
 25 26  2  0  0  0  0
 25 37  1  0  0  0  0
 26 27  1  0  0  0  0
 26 38  1  0  0  0  0
M  END
>  <DRUGBANK_ID>
DB08402

>  <COMMON_NAME>
2-[(2,4-DICHLOROBENZOYL)AMINO]-5-(PYRIMIDIN-2-YLOXY)BENZOIC ACID

$$$$
