024
 OpenBabel10282417072D

 47 49  0  0  0  0  0  0  0  0999 V2000
    0.3053   -1.5870    0.0000 S   0  0  0  0  0  0  0  0  0  0  0  0
    0.0504   -2.3716    0.0000 C   0  0  0  0  0  0  0  0  0  0  0  0
   -0.7746   -2.3716    0.0000 C   0  0  0  0  0  0  0  0  0  0  0  0
   -1.0296   -1.5870    0.0000 C   0  0  0  0  0  0  0  0  0  0  0  0
   -0.3621   -1.1021    0.0000 C   0  0  0  0  0  0  0  0  0  0  0  0
    0.5353   -3.0390    0.0000 C   0  0  0  0  0  0  0  0  0  0  0  0
    0.1997   -3.7927    0.0000 O   0  0  0  0  0  0  0  0  0  0  0  0
    1.3558   -2.9528    0.0000 O   0  0  0  0  0  0  0  0  0  0  0  0
   -0.3621   -0.2771    0.0000 C   0  0  0  0  0  0  0  0  0  0  0  0
   -1.0766    0.1354    0.0000 C   0  0  0  0  0  0  0  0  0  0  0  0
   -1.0766    0.9604    0.0000 C   0  0  0  0  0  0  0  0  0  0  0  0
   -0.3621    1.3729    0.0000 C   0  0  0  0  0  0  0  0  0  0  0  0
    0.3523    0.9604    0.0000 C   0  0  0  0  0  0  0  0  0  0  0  0
    0.3523    0.1354    0.0000 C   0  0  0  0  0  0  0  0  0  0  0  0
   -1.8142   -1.3320    0.0000 Br  0  0  0  0  0  0  0  0  0  0  0  0
   -1.2596   -3.0390    0.0000 O   0  0  0  0  0  0  0  0  0  0  0  0
   -0.9240   -3.7927    0.0000 C   0  0  0  0  0  0  0  0  0  0  0  0
   -1.4089   -4.4602    0.0000 C   0  0  0  0  0  0  0  0  0  0  0  0
   -1.0734   -5.2138    0.0000 O   0  0  0  0  0  0  0  0  0  0  0  0
   -2.2294   -4.3739    0.0000 O   0  0  0  0  0  0  0  0  0  0  0  0
   -1.7911    1.3729    0.0000 N   0  0  0  0  0  0  0  0  0  0  0  0
   -1.7911    2.1979    0.0000 C   0  0  0  0  0  0  0  0  0  0  0  0
   -2.5055    2.6104    0.0000 C   0  0  0  0  0  0  0  0  0  0  0  0
   -2.5055    3.4354    0.0000 C   0  0  0  0  0  0  0  0  0  0  0  0
   -1.7911    3.8479    0.0000 C   0  0  0  0  0  0  0  0  0  0  0  0
   -1.0766    3.4354    0.0000 C   0  0  0  0  0  0  0  0  0  0  0  0
   -1.0766    2.6104    0.0000 C   0  0  0  0  0  0  0  0  0  0  0  0
    1.9065   -3.7109    0.0000 H   0  0  0  0  0  0  0  0  0  0  0  0
   -1.9703   -0.3806    0.0000 H   0  0  0  0  0  0  0  0  0  0  0  0
   -0.3621    2.4049    0.0000 H   0  0  0  0  0  0  0  0  0  0  0  0
    1.2460    1.4764    0.0000 H   0  0  0  0  0  0  0  0  0  0  0  0
    1.2460   -0.3806    0.0000 H   0  0  0  0  0  0  0  0  0  0  0  0
    0.1401   -3.9045    0.0000 H   0  0  0  0  0  0  0  0  0  0  0  0
   -0.4887   -4.7702    0.0000 H   0  0  0  0  0  0  0  0  0  0  0  0
   -1.6242   -5.9718    0.0000 H   0  0  0  0  0  0  0  0  0  0  0  0
   -2.6437    0.8806    0.0000 H   0  0  0  0  0  0  0  0  0  0  0  0
   -1.7911    3.2679    0.0000 H   0  0  0  0  0  0  0  0  0  0  0  0
   -3.4322    2.0754    0.0000 H   0  0  0  0  0  0  0  0  0  0  0  0
   -3.4321    3.1454    0.0000 H   0  0  0  0  0  0  0  0  0  0  0  0
   -3.4322    3.9704    0.0000 H   0  0  0  0  0  0  0  0  0  0  0  0
   -2.5055    4.5054    0.0000 H   0  0  0  0  0  0  0  0  0  0  0  0
   -1.7911    4.9179    0.0000 H   0  0  0  0  0  0  0  0  0  0  0  0
   -0.8645    4.3829    0.0000 H   0  0  0  0  0  0  0  0  0  0  0  0
   -0.1500    3.9704    0.0000 H   0  0  0  0  0  0  0  0  0  0  0  0
   -0.1500    2.9004    0.0000 H   0  0  0  0  0  0  0  0  0  0  0  0
   -0.1500    2.0754    0.0000 H   0  0  0  0  0  0  0  0  0  0  0  0
   -0.1500    3.1454    0.0000 H   0  0  0  0  0  0  0  0  0  0  0  0
  1  2  1  0  0  0  0
  1  5  1  0  0  0  0
  2  3  2  0  0  0  0
  2  6  1  0  0  0  0
  3  4  1  0  0  0  0
  3 16  1  0  0  0  0
  4  5  2  0  0  0  0
  4 15  1  0  0  0  0
  5  9  1  0  0  0  0
  6  7  2  0  0  0  0
  6  8  1  0  0  0  0
  8 28  1  0  0  0  0
  9 10  1  0  0  0  0
  9 14  2  0  0  0  0
 10 11  2  0  0  0  0
 10 29  1  0  0  0  0
 11 12  1  0  0  0  0
 11 21  1  0  0  0  0
 12 13  2  0  0  0  0
 12 30  1  0  0  0  0
 13 14  1  0  0  0  0
 13 31  1  0  0  0  0
 14 32  1  0  0  0  0
 16 17  1  0  0  0  0
 17 18  1  0  0  0  0
 17 33  1  0  0  0  0
 17 34  1  0  0  0  0
 18 19  1  0  0  0  0
 18 20  2  0  0  0  0
 19 35  1  0  0  0  0
 21 22  1  0  0  0  0
 21 36  1  0  0  0  0
 22 23  1  0  0  0  0
 22 27  1  0  0  0  0
 22 37  1  0  0  0  0
 23 24  1  0  0  0  0
 23 38  1  0  0  0  0
 23 39  1  0  0  0  0
 24 25  1  0  0  0  0
 24 40  1  0  0  0  0
 24 41  1  0  0  0  0
 25 26  1  0  0  0  0
 25 42  1  0  0  0  0
 25 43  1  0  0  0  0
 26 27  1  0  0  0  0
 26 44  1  0  0  0  0
 26 45  1  0  0  0  0
 27 46  1  0  0  0  0
 27 47  1  0  0  0  0
M  END
>  <DRUGBANK_ID>
DB06829

>  <COMMON_NAME>
4-BROMO-3-(CARBOXYMETHOXY)-5-[3-(CYCLOHEXYLAMINO)PHENYL]THIOPHENE-2-CARBOXYLIC ACID

$$$$
