
 OpenBabel10282417072D

 70 73  0  0  1  0  0  0  0  0999 V2000
   -0.7145    2.0625    0.0000 C   0  0  0  0  0  0  0  0  0  0  0  0
   -0.7145    1.2375    0.0000 C   0  0  2  0  0  0  0  0  0  0  0  0
    0.0000    0.8250    0.0000 C   0  0  0  0  0  0  0  0  0  0  0  0
    0.0000    0.0000    0.0000 N   0  0  0  0  0  0  0  0  0  0  0  0
   -0.7145   -0.4125    0.0000 C   0  0  0  0  0  0  0  0  0  0  0  0
   -1.4289   -0.0000    0.0000 C   0  0  1  0  0  0  0  0  0  0  0  0
   -1.4289    0.8250    0.0000 C   0  0  1  0  0  0  0  0  0  0  0  0
   -2.2534    0.8538    0.0000 C   0  0  0  0  0  0  0  0  0  0  0  0
   -2.6906    0.1542    0.0000 C   0  0  0  0  0  0  0  0  0  0  0  0
   -3.5151    0.1829    0.0000 C   0  0  0  0  0  0  0  0  0  0  0  0
   -3.9024    0.9114    0.0000 C   0  0  0  0  0  0  0  0  0  0  0  0
   -3.4653    1.6110    0.0000 C   0  0  0  0  0  0  0  0  0  0  0  0
   -2.6408    1.5822    0.0000 C   0  0  0  0  0  0  0  0  0  0  0  0
   -1.8661    1.5246    0.0000 O   0  0  0  0  0  0  0  0  0  0  0  0
   -2.1434   -0.4125    0.0000 C   0  0  0  0  0  0  0  0  0  0  0  0
    0.7145   -0.4125    0.0000 C   0  0  0  0  0  0  0  0  0  0  0  0
    1.4289   -0.0000    0.0000 O   0  0  0  0  0  0  0  0  0  0  0  0
    0.7145   -1.2375    0.0000 C   0  0  2  0  0  0  0  0  0  0  0  0
    0.0470   -1.7224    0.0000 C   0  0  0  0  0  0  0  0  0  0  0  0
    0.3020   -2.5070    0.0000 N   0  0  0  0  0  0  0  0  0  0  0  0
    1.1270   -2.5070    0.0000 C   0  0  0  0  0  0  0  0  0  0  0  0
    1.3819   -1.7224    0.0000 C   0  0  1  0  0  0  0  0  0  0  0  0
    2.1665   -1.4675    0.0000 C   0  0  0  0  0  0  0  0  0  0  0  0
    2.3381   -0.6605    0.0000 C   0  0  0  0  0  0  0  0  0  0  0  0
    3.1227   -0.4056    0.0000 C   0  0  0  0  0  0  0  0  0  0  0  0
    3.7358   -0.9576    0.0000 C   0  0  0  0  0  0  0  0  0  0  0  0
    3.5642   -1.7646    0.0000 C   0  0  0  0  0  0  0  0  0  0  0  0
    2.7796   -2.0195    0.0000 C   0  0  0  0  0  0  0  0  0  0  0  0
    2.6081   -2.8265    0.0000 F   0  0  0  0  0  0  0  0  0  0  0  0
    4.5204   -0.7027    0.0000 F   0  0  0  0  0  0  0  0  0  0  0  0
   -0.1830   -3.1745    0.0000 C   0  0  0  0  0  0  0  0  0  0  0  0
   -0.6679   -3.8419    0.0000 C   0  0  0  0  0  0  0  0  0  0  0  0
    0.4845   -3.6594    0.0000 C   0  0  0  0  0  0  0  0  0  0  0  0
   -0.8504   -2.6896    0.0000 C   0  0  0  0  0  0  0  0  0  0  0  0
    0.2121    2.5975    0.0000 H   0  0  0  0  0  0  0  0  0  0  0  0
   -1.6411    2.5975    0.0000 H   0  0  0  0  0  0  0  0  0  0  0  0
   -0.7145    3.1325    0.0000 H   0  0  0  0  0  0  0  0  0  0  0  0
    0.2121    1.7725    0.0000 H   0  0  0  0  0  0  0  0  0  0  0  0
    0.9266    1.3600    0.0000 H   0  0  0  0  0  0  0  0  0  0  0  0
    0.9266    0.2900    0.0000 H   0  0  0  0  0  0  0  0  0  0  0  0
   -0.7145   -1.4825    0.0000 H   0  0  0  0  0  0  0  0  0  0  0  0
   -1.6412   -0.9475    0.0000 H   0  0  0  0  0  0  0  0  0  0  0  0
   -1.4289   -1.0700    0.0000 H   0  0  0  0  0  0  0  0  0  0  0  0
   -2.2061   -0.7570    0.0000 H   0  0  0  0  0  0  0  0  0  0  0  0
   -4.0620   -0.6923    0.0000 H   0  0  0  0  0  0  0  0  0  0  0  0
   -4.9338    0.9474    0.0000 H   0  0  0  0  0  0  0  0  0  0  0  0
   -3.9498    2.5222    0.0000 H   0  0  0  0  0  0  0  0  0  0  0  0
   -2.0940    2.4574    0.0000 H   0  0  0  0  0  0  0  0  0  0  0  0
   -1.4107    2.3811    0.0000 H   0  0  0  0  0  0  0  0  0  0  0  0
   -3.0700    0.1225    0.0000 H   0  0  0  0  0  0  0  0  0  0  0  0
   -2.1434   -1.4825    0.0000 H   0  0  0  0  0  0  0  0  0  0  0  0
   -3.0701   -0.9475    0.0000 H   0  0  0  0  0  0  0  0  0  0  0  0
   -0.2389   -0.7517    0.0000 H   0  0  0  0  0  0  0  0  0  0  0  0
   -0.9706   -1.3918    0.0000 H   0  0  0  0  0  0  0  0  0  0  0  0
   -0.7096   -2.4790    0.0000 H   0  0  0  0  0  0  0  0  0  0  0  0
    1.7559   -3.3726    0.0000 H   0  0  0  0  0  0  0  0  0  0  0  0
    2.1838   -2.3396    0.0000 H   0  0  0  0  0  0  0  0  0  0  0  0
    2.1385   -2.4790    0.0000 H   0  0  0  0  0  0  0  0  0  0  0  0
    1.5712    0.0301    0.0000 H   0  0  0  0  0  0  0  0  0  0  0  0
    3.3373    0.6038    0.0000 H   0  0  0  0  0  0  0  0  0  0  0  0
    4.3311   -2.4552    0.0000 H   0  0  0  0  0  0  0  0  0  0  0  0
   -1.7320   -3.7300    0.0000 H   0  0  0  0  0  0  0  0  0  0  0  0
   -0.2327   -4.8194    0.0000 H   0  0  0  0  0  0  0  0  0  0  0  0
   -1.2968   -4.7075    0.0000 H   0  0  0  0  0  0  0  0  0  0  0  0
    0.3727   -4.7235    0.0000 H   0  0  0  0  0  0  0  0  0  0  0  0
    1.4620   -3.2241    0.0000 H   0  0  0  0  0  0  0  0  0  0  0  0
    1.3502   -4.2883    0.0000 H   0  0  0  0  0  0  0  0  0  0  0  0
   -0.7385   -1.6255    0.0000 H   0  0  0  0  0  0  0  0  0  0  0  0
   -1.8279   -3.1248    0.0000 H   0  0  0  0  0  0  0  0  0  0  0  0
   -1.7160   -2.0607    0.0000 H   0  0  0  0  0  0  0  0  0  0  0  0
  1 35  1  0  0  0  0
  1 36  1  0  0  0  0
  1 37  1  0  0  0  0
  2  1  1  0  0  0  0
  2  3  1  0  0  0  0
  2  7  1  0  0  0  0
  2 38  1  1  0  0  0
  3  4  1  0  0  0  0
  3 39  1  0  0  0  0
  3 40  1  0  0  0  0
  4  5  1  0  0  0  0
  4 16  1  0  0  0  0
  5  6  1  0  0  0  0
  5 41  1  0  0  0  0
  5 42  1  0  0  0  0
  6  7  1  0  0  0  0
  6 15  1  0  0  0  0
  6 43  1  1  0  0  0
  7  8  1  0  0  0  0
  7 14  1  6  0  0  0
  8  9  2  0  0  0  0
  8 13  1  0  0  0  0
  9 10  1  0  0  0  0
  9 44  1  0  0  0  0
 10 11  2  0  0  0  0
 10 45  1  0  0  0  0
 11 12  1  0  0  0  0
 11 46  1  0  0  0  0
 12 13  2  0  0  0  0
 12 47  1  0  0  0  0
 13 48  1  0  0  0  0
 14 49  1  0  0  0  0
 15 50  1  0  0  0  0
 15 51  1  0  0  0  0
 15 52  1  0  0  0  0
 16 17  2  0  0  0  0
 18 16  1  0  0  0  0
 18 19  1  0  0  0  0
 18 22  1  0  0  0  0
 18 53  1  6  0  0  0
 19 20  1  0  0  0  0
 19 54  1  0  0  0  0
 19 55  1  0  0  0  0
 20 21  1  0  0  0  0
 20 31  1  0  0  0  0
 21 22  1  0  0  0  0
 21 56  1  0  0  0  0
 21 57  1  0  0  0  0
 22 23  1  0  0  0  0
 22 58  1  1  0  0  0
 23 24  2  0  0  0  0
 23 28  1  0  0  0  0
 24 25  1  0  0  0  0
 24 59  1  0  0  0  0
 25 26  2  0  0  0  0
 25 60  1  0  0  0  0
 26 27  1  0  0  0  0
 26 30  1  0  0  0  0
 27 28  2  0  0  0  0
 27 61  1  0  0  0  0
 28 29  1  0  0  0  0
 31 32  1  0  0  0  0
 31 33  1  0  0  0  0
 31 34  1  0  0  0  0
 32 62  1  0  0  0  0
 32 63  1  0  0  0  0
 32 64  1  0  0  0  0
 33 65  1  0  0  0  0
 33 66  1  0  0  0  0
 33 67  1  0  0  0  0
 34 68  1  0  0  0  0
 34 69  1  0  0  0  0
 34 70  1  0  0  0  0
M  END
>  <DRUGBANK_ID>
DB12517

>  <COMMON_NAME>
PF-00446687

>  <CAS_NUMBER>
862281-92-3

>  <UNII>
63P236Z73I

$$$$
