
 OpenBabel10282417072D

 76 79  0  0  0  0  0  0  0  0999 V2000
    4.2135    0.6979    0.0000 C   0  0  0  0  0  0  0  0  0  0  0  0
    3.4990    1.1104    0.0000 C   0  0  0  0  0  0  0  0  0  0  0  0
    2.7845    0.6979    0.0000 O   0  0  0  0  0  0  0  0  0  0  0  0
    2.0701    1.1104    0.0000 C   0  0  0  0  0  0  0  0  0  0  0  0
    1.3556    0.6979    0.0000 C   0  0  0  0  0  0  0  0  0  0  0  0
    0.6411    1.1104    0.0000 C   0  0  0  0  0  0  0  0  0  0  0  0
    0.6411    1.9354    0.0000 C   0  0  0  0  0  0  0  0  0  0  0  0
    1.3556    2.3479    0.0000 C   0  0  0  0  0  0  0  0  0  0  0  0
    2.0701    1.9354    0.0000 C   0  0  0  0  0  0  0  0  0  0  0  0
    2.7845    2.3479    0.0000 O   0  0  0  0  0  0  0  0  0  0  0  0
    2.7845    3.1729    0.0000 C   0  0  0  0  0  0  0  0  0  0  0  0
    3.4990    3.5854    0.0000 C   0  0  0  0  0  0  0  0  0  0  0  0
    1.3556    3.1729    0.0000 F   0  0  0  0  0  0  0  0  0  0  0  0
   -0.1435    2.1904    0.0000 C   0  0  0  0  0  0  0  0  0  0  0  0
   -0.3984    2.9750    0.0000 N   0  0  0  0  0  0  0  0  0  0  0  0
   -0.6284    1.5229    0.0000 N   0  0  0  0  0  0  0  0  0  0  0  0
   -0.1435    0.8555    0.0000 C   0  0  0  0  0  0  0  0  0  0  0  0
   -1.4534    1.5229    0.0000 C   0  0  0  0  0  0  0  0  0  0  0  0
   -1.8659    2.2374    0.0000 C   0  0  0  0  0  0  0  0  0  0  0  0
   -1.4534    2.9519    0.0000 O   0  0  0  0  0  0  0  0  0  0  0  0
   -2.6909    2.2374    0.0000 C   0  0  0  0  0  0  0  0  0  0  0  0
   -3.1034    1.5229    0.0000 C   0  0  0  0  0  0  0  0  0  0  0  0
   -3.9284    1.5229    0.0000 C   0  0  0  0  0  0  0  0  0  0  0  0
   -4.3409    2.2374    0.0000 C   0  0  0  0  0  0  0  0  0  0  0  0
   -3.9284    2.9519    0.0000 C   0  0  0  0  0  0  0  0  0  0  0  0
   -3.1034    2.9519    0.0000 C   0  0  0  0  0  0  0  0  0  0  0  0
   -4.3409    3.6664    0.0000 N   0  0  0  0  0  0  0  0  0  0  0  0
   -5.1659    3.6664    0.0000 C   0  0  0  0  0  0  0  0  0  0  0  0
   -5.5784    4.3808    0.0000 C   0  0  0  0  0  0  0  0  0  0  0  0
   -5.1659    5.0953    0.0000 O   0  0  0  0  0  0  0  0  0  0  0  0
   -4.3409    5.0953    0.0000 C   0  0  0  0  0  0  0  0  0  0  0  0
   -3.9284    4.3808    0.0000 C   0  0  0  0  0  0  0  0  0  0  0  0
   -5.1659    2.2374    0.0000 O   0  0  0  0  0  0  0  0  0  0  0  0
   -5.5784    2.9519    0.0000 C   0  0  0  0  0  0  0  0  0  0  0  0
   -4.3409    0.8085    0.0000 C   0  0  0  0  0  0  0  0  0  0  0  0
   -4.7534    0.0940    0.0000 C   0  0  0  0  0  0  0  0  0  0  0  0
   -5.0554    1.2210    0.0000 C   0  0  0  0  0  0  0  0  0  0  0  0
   -3.6265    0.3960    0.0000 C   0  0  0  0  0  0  0  0  0  0  0  0
    4.2135   -0.3721    0.0000 H   0  0  0  0  0  0  0  0  0  0  0  0
    5.1401    1.2329    0.0000 H   0  0  0  0  0  0  0  0  0  0  0  0
    5.1402    0.1629    0.0000 H   0  0  0  0  0  0  0  0  0  0  0  0
    3.4990    2.1804    0.0000 H   0  0  0  0  0  0  0  0  0  0  0  0
    2.5724    1.6454    0.0000 H   0  0  0  0  0  0  0  0  0  0  0  0
    1.3556   -0.3341    0.0000 H   0  0  0  0  0  0  0  0  0  0  0  0
    1.8579    3.7079    0.0000 H   0  0  0  0  0  0  0  0  0  0  0  0
    2.7845    4.2429    0.0000 H   0  0  0  0  0  0  0  0  0  0  0  0
    4.4256    3.0504    0.0000 H   0  0  0  0  0  0  0  0  0  0  0  0
    3.4990    4.6554    0.0000 H   0  0  0  0  0  0  0  0  0  0  0  0
    4.4257    4.1204    0.0000 H   0  0  0  0  0  0  0  0  0  0  0  0
    0.2604    3.7066    0.0000 H   0  0  0  0  0  0  0  0  0  0  0  0
   -0.4742   -0.1621    0.0000 H   0  0  0  0  0  0  0  0  0  0  0  0
    0.6131    0.0989    0.0000 H   0  0  0  0  0  0  0  0  0  0  0  0
   -1.9884    0.5963    0.0000 H   0  0  0  0  0  0  0  0  0  0  0  0
   -2.5234    1.5229    0.0000 H   0  0  0  0  0  0  0  0  0  0  0  0
   -2.5874    0.6292    0.0000 H   0  0  0  0  0  0  0  0  0  0  0  0
   -2.5874    3.8456    0.0000 H   0  0  0  0  0  0  0  0  0  0  0  0
   -5.7009    2.7397    0.0000 H   0  0  0  0  0  0  0  0  0  0  0  0
   -6.2359    3.6664    0.0000 H   0  0  0  0  0  0  0  0  0  0  0  0
   -6.6484    4.3808    0.0000 H   0  0  0  0  0  0  0  0  0  0  0  0
   -6.1134    5.3074    0.0000 H   0  0  0  0  0  0  0  0  0  0  0  0
   -3.8059    6.0219    0.0000 H   0  0  0  0  0  0  0  0  0  0  0  0
   -3.2709    5.0953    0.0000 H   0  0  0  0  0  0  0  0  0  0  0  0
   -2.8584    4.3808    0.0000 H   0  0  0  0  0  0  0  0  0  0  0  0
   -3.3934    3.4541    0.0000 H   0  0  0  0  0  0  0  0  0  0  0  0
   -5.0434    3.8785    0.0000 H   0  0  0  0  0  0  0  0  0  0  0  0
   -6.6484    2.9519    0.0000 H   0  0  0  0  0  0  0  0  0  0  0  0
   -6.1134    3.8786    0.0000 H   0  0  0  0  0  0  0  0  0  0  0  0
   -5.8234    0.0940    0.0000 H   0  0  0  0  0  0  0  0  0  0  0  0
   -4.2184   -0.8326    0.0000 H   0  0  0  0  0  0  0  0  0  0  0  0
   -5.2884   -0.8327    0.0000 H   0  0  0  0  0  0  0  0  0  0  0  0
   -5.0554    2.2910    0.0000 H   0  0  0  0  0  0  0  0  0  0  0  0
   -5.9820    0.6860    0.0000 H   0  0  0  0  0  0  0  0  0  0  0  0
   -5.9821    1.7560    0.0000 H   0  0  0  0  0  0  0  0  0  0  0  0
   -3.6265   -0.6740    0.0000 H   0  0  0  0  0  0  0  0  0  0  0  0
   -2.6998    0.9310    0.0000 H   0  0  0  0  0  0  0  0  0  0  0  0
   -2.6999   -0.1390    0.0000 H   0  0  0  0  0  0  0  0  0  0  0  0
  1  2  1  0  0  0  0
  1 39  1  0  0  0  0
  1 40  1  0  0  0  0
  1 41  1  0  0  0  0
  2  3  1  0  0  0  0
  2 42  1  0  0  0  0
  2 43  1  0  0  0  0
  3  4  1  0  0  0  0
  4  5  2  0  0  0  0
  4  9  1  0  0  0  0
  5  6  1  0  0  0  0
  5 44  1  0  0  0  0
  6  7  2  0  0  0  0
  6 17  1  0  0  0  0
  7  8  1  0  0  0  0
  7 14  1  0  0  0  0
  8  9  2  0  0  0  0
  8 13  1  0  0  0  0
  9 10  1  0  0  0  0
 10 11  1  0  0  0  0
 11 12  1  0  0  0  0
 11 45  1  0  0  0  0
 11 46  1  0  0  0  0
 12 47  1  0  0  0  0
 12 48  1  0  0  0  0
 12 49  1  0  0  0  0
 14 15  2  0  0  0  0
 14 16  1  0  0  0  0
 15 50  1  0  0  0  0
 16 17  1  0  0  0  0
 16 18  1  0  0  0  0
 17 51  1  0  0  0  0
 17 52  1  0  0  0  0
 18 19  1  0  0  0  0
 18 53  1  0  0  0  0
 18 54  1  0  0  0  0
 19 20  2  0  0  0  0
 19 21  1  0  0  0  0
 21 22  2  0  0  0  0
 21 26  1  0  0  0  0
 22 23  1  0  0  0  0
 22 55  1  0  0  0  0
 23 24  2  0  0  0  0
 23 35  1  0  0  0  0
 24 25  1  0  0  0  0
 24 33  1  0  0  0  0
 25 26  2  0  0  0  0
 25 27  1  0  0  0  0
 26 56  1  0  0  0  0
 27 28  1  0  0  0  0
 27 32  1  0  0  0  0
 28 29  1  0  0  0  0
 28 57  1  0  0  0  0
 28 58  1  0  0  0  0
 29 30  1  0  0  0  0
 29 59  1  0  0  0  0
 29 60  1  0  0  0  0
 30 31  1  0  0  0  0
 31 32  1  0  0  0  0
 31 61  1  0  0  0  0
 31 62  1  0  0  0  0
 32 63  1  0  0  0  0
 32 64  1  0  0  0  0
 33 34  1  0  0  0  0
 34 65  1  0  0  0  0
 34 66  1  0  0  0  0
 34 67  1  0  0  0  0
 35 36  1  0  0  0  0
 35 37  1  0  0  0  0
 35 38  1  0  0  0  0
 36 68  1  0  0  0  0
 36 69  1  0  0  0  0
 36 70  1  0  0  0  0
 37 71  1  0  0  0  0
 37 72  1  0  0  0  0
 37 73  1  0  0  0  0
 38 74  1  0  0  0  0
 38 75  1  0  0  0  0
 38 76  1  0  0  0  0
M  END
>  <DRUGBANK_ID>
DB12046

>  <COMMON_NAME>
Atopaxar

>  <CAS_NUMBER>
751475-53-3

>  <UNII>
HTI275SD2D

>  <SYNONYMS>
Atopaxar

$$$$
