PP1
 OpenBabel10282417072D

 40 42  0  0  0  0  0  0  0  0999 V2000
    0.1264   -1.1875    0.0000 N   0  0  0  0  0  0  0  0  0  0  0  0
    2.3400   -0.9326    0.0000 C   0  0  0  0  0  0  0  0  0  0  0  0
    1.6255   -1.3451    0.0000 N   0  0  0  0  0  0  0  0  0  0  0  0
    0.9111   -0.9326    0.0000 C   0  0  0  0  0  0  0  0  0  0  0  0
    0.9111   -0.1076    0.0000 C   0  0  0  0  0  0  0  0  0  0  0  0
    1.6255    0.3049    0.0000 C   0  0  0  0  0  0  0  0  0  0  0  0
    2.3400   -0.1076    0.0000 N   0  0  0  0  0  0  0  0  0  0  0  0
   -0.3585   -0.5201    0.0000 N   0  0  0  0  0  0  0  0  0  0  0  0
    0.1264    0.1474    0.0000 C   0  0  0  0  0  0  0  0  0  0  0  0
    1.6255    1.1299    0.0000 N   0  0  0  0  0  0  0  0  0  0  0  0
   -0.1285    0.9320    0.0000 C   0  0  0  0  0  0  0  0  0  0  0  0
   -0.9355    1.1035    0.0000 C   0  0  0  0  0  0  0  0  0  0  0  0
   -1.1904    1.8882    0.0000 C   0  0  0  0  0  0  0  0  0  0  0  0
   -0.6384    2.5013    0.0000 C   0  0  0  0  0  0  0  0  0  0  0  0
    0.1686    2.3297    0.0000 C   0  0  0  0  0  0  0  0  0  0  0  0
    0.4235    1.5451    0.0000 C   0  0  0  0  0  0  0  0  0  0  0  0
   -0.8933    3.2859    0.0000 C   0  0  0  0  0  0  0  0  0  0  0  0
   -0.1285   -1.9721    0.0000 C   0  0  0  0  0  0  0  0  0  0  0  0
   -0.3834   -2.7567    0.0000 C   0  0  0  0  0  0  0  0  0  0  0  0
   -0.9131   -1.7172    0.0000 C   0  0  0  0  0  0  0  0  0  0  0  0
    0.6561   -2.2271    0.0000 C   0  0  0  0  0  0  0  0  0  0  0  0
    3.2337   -1.4486    0.0000 H   0  0  0  0  0  0  0  0  0  0  0  0
    2.4781    1.6221    0.0000 H   0  0  0  0  0  0  0  0  0  0  0  0
    0.7729    1.6221    0.0000 H   0  0  0  0  0  0  0  0  0  0  0  0
   -1.6261    0.3366    0.0000 H   0  0  0  0  0  0  0  0  0  0  0  0
   -2.1998    2.1028    0.0000 H   0  0  0  0  0  0  0  0  0  0  0  0
    0.8592    3.0966    0.0000 H   0  0  0  0  0  0  0  0  0  0  0  0
    1.4329    1.3305    0.0000 H   0  0  0  0  0  0  0  0  0  0  0  0
   -0.1773    4.0810    0.0000 H   0  0  0  0  0  0  0  0  0  0  0  0
   -1.9399    3.5084    0.0000 H   0  0  0  0  0  0  0  0  0  0  0  0
   -1.2239    4.3035    0.0000 H   0  0  0  0  0  0  0  0  0  0  0  0
   -1.4300   -2.9792    0.0000 H   0  0  0  0  0  0  0  0  0  0  0  0
    0.3326   -3.5518    0.0000 H   0  0  0  0  0  0  0  0  0  0  0  0
   -0.7140   -3.7743    0.0000 H   0  0  0  0  0  0  0  0  0  0  0  0
   -1.1356   -0.6706    0.0000 H   0  0  0  0  0  0  0  0  0  0  0  0
   -1.7082   -2.4332    0.0000 H   0  0  0  0  0  0  0  0  0  0  0  0
   -1.9307   -1.3866    0.0000 H   0  0  0  0  0  0  0  0  0  0  0  0
    0.8785   -3.2737    0.0000 H   0  0  0  0  0  0  0  0  0  0  0  0
    1.4513   -1.5112    0.0000 H   0  0  0  0  0  0  0  0  0  0  0  0
    1.6737   -2.5578    0.0000 H   0  0  0  0  0  0  0  0  0  0  0  0
  1  4  1  0  0  0  0
  1  8  1  0  0  0  0
  1 18  1  0  0  0  0
  2  3  2  0  0  0  0
  2  7  1  0  0  0  0
  2 22  1  0  0  0  0
  3  4  1  0  0  0  0
  4  5  2  0  0  0  0
  5  6  1  0  0  0  0
  5  9  1  0  0  0  0
  6  7  2  0  0  0  0
  6 10  1  0  0  0  0
  8  9  2  0  0  0  0
  9 11  1  0  0  0  0
 10 23  1  0  0  0  0
 10 24  1  0  0  0  0
 11 12  2  0  0  0  0
 11 16  1  0  0  0  0
 12 13  1  0  0  0  0
 12 25  1  0  0  0  0
 13 14  2  0  0  0  0
 13 26  1  0  0  0  0
 14 15  1  0  0  0  0
 14 17  1  0  0  0  0
 15 16  2  0  0  0  0
 15 27  1  0  0  0  0
 16 28  1  0  0  0  0
 17 29  1  0  0  0  0
 17 30  1  0  0  0  0
 17 31  1  0  0  0  0
 18 19  1  0  0  0  0
 18 20  1  0  0  0  0
 18 21  1  0  0  0  0
 19 32  1  0  0  0  0
 19 33  1  0  0  0  0
 19 34  1  0  0  0  0
 20 35  1  0  0  0  0
 20 36  1  0  0  0  0
 20 37  1  0  0  0  0
 21 38  1  0  0  0  0
 21 39  1  0  0  0  0
 21 40  1  0  0  0  0
M  END
>  <DRUGBANK_ID>
DB01809

>  <SECONDARY_ACCESSION_NUMBERS>
EXPT02633

>  <COMMON_NAME>
1-Ter-Butyl-3-P-Tolyl-1h-Pyrazolo[3,4-D]Pyrimidin-4-Ylamine

>  <UNII>
SA2ND7EHY4

$$$$
