XX4
 OpenBabel10282417072D

 61 64  0  0  0  0  0  0  0  0999 V2000
   -2.0848   -0.9602    0.0000 C   0  0  0  0  0  0  0  0  0  0  0  0
   -2.0848   -0.1352    0.0000 N   0  0  0  0  0  0  0  0  0  0  0  0
   -1.3703    0.2773    0.0000 C   0  0  0  0  0  0  0  0  0  0  0  0
   -1.3703    1.1023    0.0000 O   0  0  0  0  0  0  0  0  0  0  0  0
   -0.6559   -0.1352    0.0000 C   0  0  0  0  0  0  0  0  0  0  0  0
    0.0586    0.2773    0.0000 C   0  0  0  0  0  0  0  0  0  0  0  0
    0.7731   -0.1352    0.0000 N   0  0  0  0  0  0  0  0  0  0  0  0
    1.4876    0.2773    0.0000 C   0  0  0  0  0  0  0  0  0  0  0  0
    2.2020   -0.1352    0.0000 C   0  0  0  0  0  0  0  0  0  0  0  0
    2.9165    0.2773    0.0000 C   0  0  0  0  0  0  0  0  0  0  0  0
    3.6310   -0.1352    0.0000 C   0  0  0  0  0  0  0  0  0  0  0  0
    4.3454    0.2773    0.0000 C   0  0  0  0  0  0  0  0  0  0  0  0
    4.3454    1.1023    0.0000 O   0  0  0  0  0  0  0  0  0  0  0  0
    5.0599   -0.1352    0.0000 C   0  0  0  0  0  0  0  0  0  0  0  0
    5.7744    0.2773    0.0000 C   0  0  0  0  0  0  0  0  0  0  0  0
    6.4889   -0.1352    0.0000 C   0  0  0  0  0  0  0  0  0  0  0  0
    6.4889   -0.9602    0.0000 C   0  0  0  0  0  0  0  0  0  0  0  0
    5.7744   -1.3727    0.0000 C   0  0  0  0  0  0  0  0  0  0  0  0
    5.0599   -0.9602    0.0000 C   0  0  0  0  0  0  0  0  0  0  0  0
    3.6310   -0.9602    0.0000 C   0  0  0  0  0  0  0  0  0  0  0  0
    2.9165   -1.3727    0.0000 C   0  0  0  0  0  0  0  0  0  0  0  0
    2.2020   -0.9602    0.0000 C   0  0  0  0  0  0  0  0  0  0  0  0
    1.4876   -1.3727    0.0000 N   0  0  0  0  0  0  0  0  0  0  0  0
    0.7731   -0.9602    0.0000 C   0  0  0  0  0  0  0  0  0  0  0  0
    0.0586   -1.3727    0.0000 N   0  0  0  0  0  0  0  0  0  0  0  0
   -2.7993    0.2773    0.0000 C   0  0  0  0  0  0  0  0  0  0  0  0
   -3.5137   -0.1352    0.0000 C   0  0  0  0  0  0  0  0  0  0  0  0
   -4.2282    0.2773    0.0000 C   0  0  0  0  0  0  0  0  0  0  0  0
   -4.2282    1.1023    0.0000 C   0  0  0  0  0  0  0  0  0  0  0  0
   -3.5137    1.5148    0.0000 C   0  0  0  0  0  0  0  0  0  0  0  0
   -2.7993    1.1023    0.0000 C   0  0  0  0  0  0  0  0  0  0  0  0
   -3.0114   -1.4952    0.0000 H   0  0  0  0  0  0  0  0  0  0  0  0
   -1.1582   -1.4952    0.0000 H   0  0  0  0  0  0  0  0  0  0  0  0
   -2.0848   -2.0302    0.0000 H   0  0  0  0  0  0  0  0  0  0  0  0
   -0.6559   -1.2052    0.0000 H   0  0  0  0  0  0  0  0  0  0  0  0
    0.2707   -0.6702    0.0000 H   0  0  0  0  0  0  0  0  0  0  0  0
    0.0586    1.3473    0.0000 H   0  0  0  0  0  0  0  0  0  0  0  0
    0.9852    0.8123    0.0000 H   0  0  0  0  0  0  0  0  0  0  0  0
    1.4876    1.3473    0.0000 H   0  0  0  0  0  0  0  0  0  0  0  0
    2.4143    0.8123    0.0000 H   0  0  0  0  0  0  0  0  0  0  0  0
    2.9165    1.3093    0.0000 H   0  0  0  0  0  0  0  0  0  0  0  0
    5.7744    1.3093    0.0000 H   0  0  0  0  0  0  0  0  0  0  0  0
    7.3826    0.3808    0.0000 H   0  0  0  0  0  0  0  0  0  0  0  0
    7.3826   -1.4762    0.0000 H   0  0  0  0  0  0  0  0  0  0  0  0
    5.7744   -2.4047    0.0000 H   0  0  0  0  0  0  0  0  0  0  0  0
    4.1662   -1.4762    0.0000 H   0  0  0  0  0  0  0  0  0  0  0  0
    4.5247   -1.4762    0.0000 H   0  0  0  0  0  0  0  0  0  0  0  0
    2.9165   -2.4047    0.0000 H   0  0  0  0  0  0  0  0  0  0  0  0
   -0.7940   -0.8804    0.0000 H   0  0  0  0  0  0  0  0  0  0  0  0
    0.0586   -2.3572    0.0000 H   0  0  0  0  0  0  0  0  0  0  0  0
   -3.7260    0.8123    0.0000 H   0  0  0  0  0  0  0  0  0  0  0  0
   -3.5137   -1.2052    0.0000 H   0  0  0  0  0  0  0  0  0  0  0  0
   -4.4403   -0.6702    0.0000 H   0  0  0  0  0  0  0  0  0  0  0  0
   -5.1548   -0.2577    0.0000 H   0  0  0  0  0  0  0  0  0  0  0  0
   -5.1548    0.8123    0.0000 H   0  0  0  0  0  0  0  0  0  0  0  0
   -5.1548    1.6373    0.0000 H   0  0  0  0  0  0  0  0  0  0  0  0
   -4.2282    2.1723    0.0000 H   0  0  0  0  0  0  0  0  0  0  0  0
   -3.5137    2.5848    0.0000 H   0  0  0  0  0  0  0  0  0  0  0  0
   -2.5870    2.0498    0.0000 H   0  0  0  0  0  0  0  0  0  0  0  0
   -1.8726    1.6373    0.0000 H   0  0  0  0  0  0  0  0  0  0  0  0
   -2.7993    2.1723    0.0000 H   0  0  0  0  0  0  0  0  0  0  0  0
  1  2  1  0  0  0  0
  1 32  1  0  0  0  0
  1 33  1  0  0  0  0
  1 34  1  0  0  0  0
  2 26  1  0  0  0  0
  2  3  1  0  0  0  0
  3  4  2  0  0  0  0
  3  5  1  0  0  0  0
  5  6  1  0  0  0  0
  5 35  1  0  0  0  0
  5 36  1  0  0  0  0
  6  7  1  0  0  0  0
  6 37  1  0  0  0  0
  6 38  1  0  0  0  0
  7 24  1  0  0  0  0
  7  8  1  0  0  0  0
  8  9  1  0  0  0  0
  8 39  1  0  0  0  0
  8 40  1  0  0  0  0
  9 10  2  0  0  0  0
  9 22  1  0  0  0  0
 10 11  1  0  0  0  0
 10 41  1  0  0  0  0
 11 12  1  0  0  0  0
 11 20  2  0  0  0  0
 12 14  1  0  0  0  0
 12 13  2  0  0  0  0
 14 15  2  0  0  0  0
 14 19  1  0  0  0  0
 15 16  1  0  0  0  0
 15 42  1  0  0  0  0
 16 17  2  0  0  0  0
 16 43  1  0  0  0  0
 17 18  1  0  0  0  0
 17 44  1  0  0  0  0
 18 19  2  0  0  0  0
 18 45  1  0  0  0  0
 19 46  1  0  0  0  0
 20 21  1  0  0  0  0
 20 47  1  0  0  0  0
 21 22  2  0  0  0  0
 21 48  1  0  0  0  0
 22 23  1  0  0  0  0
 23 24  2  0  0  0  0
 24 25  1  0  0  0  0
 25 49  1  0  0  0  0
 25 50  1  0  0  0  0
 26 27  1  0  0  0  0
 26 31  1  0  0  0  0
 26 51  1  0  0  0  0
 27 28  1  0  0  0  0
 27 52  1  0  0  0  0
 27 53  1  0  0  0  0
 28 29  1  0  0  0  0
 28 54  1  0  0  0  0
 28 55  1  0  0  0  0
 29 30  1  0  0  0  0
 29 56  1  0  0  0  0
 29 57  1  0  0  0  0
 30 31  1  0  0  0  0
 30 58  1  0  0  0  0
 30 59  1  0  0  0  0
 31 60  1  0  0  0  0
 31 61  1  0  0  0  0
M  END
>  <DRUGBANK_ID>
DB08749

>  <COMMON_NAME>
3-(2-AMINO-6-BENZOYLQUINAZOLIN-3(4H)-YL)-N-CYCLOHEXYL-N-METHYLPROPANAMIDE

$$$$
