
 OpenBabel10282417072D

 52 54  0  0  0  0  0  0  0  0999 V2000
   -2.4956   -1.4643    0.0000 C   0  0  0  0  0  0  0  0  0  0  0  0
   -2.4956   -2.2893    0.0000 C   0  0  0  0  0  0  0  0  0  0  0  0
   -1.7531   -2.7018    0.0000 C   0  0  0  0  0  0  0  0  0  0  0  0
   -1.0518   -2.2893    0.0000 C   0  0  0  0  0  0  0  0  0  0  0  0
   -1.0518   -1.4643    0.0000 C   0  0  0  0  0  0  0  0  0  0  0  0
   -1.7531   -1.0518    0.0000 C   0  0  0  0  0  0  0  0  0  0  0  0
    0.3918   -2.2893    0.0000 C   0  0  0  0  0  0  0  0  0  0  0  0
    0.3918   -1.4643    0.0000 C   0  0  0  0  0  0  0  0  0  0  0  0
   -0.3506   -1.0518    0.0000 C   0  0  1  0  0  0  0  0  0  0  0  0
    1.0931   -2.7018    0.0000 C   0  0  0  0  0  0  0  0  0  0  0  0
    1.7943   -2.2893    0.0000 C   0  0  0  0  0  0  0  0  0  0  0  0
    1.7943   -1.4643    0.0000 C   0  0  0  0  0  0  0  0  0  0  0  0
    1.0931   -1.0518    0.0000 C   0  0  0  0  0  0  0  0  0  0  0  0
   -0.3506   -0.2268    0.0000 N   0  0  0  0  0  0  0  0  0  0  0  0
    0.3918    0.1855    0.0000 C   0  0  0  0  0  0  0  0  0  0  0  0
    0.3918    1.0106    0.0000 C   0  0  0  0  0  0  0  0  0  0  0  0
   -0.3506    1.4643    0.0000 N   0  0  0  0  0  0  0  0  0  0  0  0
   -1.0518    1.0106    0.0000 C   0  0  0  0  0  0  0  0  0  0  0  0
   -1.0518    0.1855    0.0000 C   0  0  0  0  0  0  0  0  0  0  0  0
   -3.1968   -2.7018    0.0000 Cl  0  0  0  0  0  0  0  0  0  0  0  0
   -0.3506    2.2893    0.0000 C   0  0  0  0  0  0  0  0  0  0  0  0
    0.3918    2.7018    0.0000 C   0  0  0  0  0  0  0  0  0  0  0  0
    1.0931    2.2893    0.0000 O   0  0  0  0  0  0  0  0  0  0  0  0
    1.7943    2.6606    0.0000 C   0  0  0  0  0  0  0  0  0  0  0  0
    2.4956    2.2893    0.0000 C   0  0  0  0  0  0  0  0  0  0  0  0
    3.1968    2.6606    0.0000 O   0  0  0  0  0  0  0  0  0  0  0  0
    2.4956    1.4231    0.0000 O   0  0  0  0  0  0  0  0  0  0  0  0
   -3.3851   -0.9409    0.0000 H   0  0  0  0  0  0  0  0  0  0  0  0
   -1.7404   -3.7337    0.0000 H   0  0  0  0  0  0  0  0  0  0  0  0
   -0.1560   -2.8017    0.0000 H   0  0  0  0  0  0  0  0  0  0  0  0
   -1.7404   -0.0199    0.0000 H   0  0  0  0  0  0  0  0  0  0  0  0
   -0.5040   -2.8017    0.0000 H   0  0  0  0  0  0  0  0  0  0  0  0
   -0.3374   -2.1217    0.0000 H   0  0  0  0  0  0  0  0  0  0  0  0
    1.0931   -3.7338    0.0000 H   0  0  0  0  0  0  0  0  0  0  0  0
    2.6901   -2.8017    0.0000 H   0  0  0  0  0  0  0  0  0  0  0  0
    2.6901   -0.9519    0.0000 H   0  0  0  0  0  0  0  0  0  0  0  0
    1.0931   -0.0198    0.0000 H   0  0  0  0  0  0  0  0  0  0  0  0
    1.3140   -0.3572    0.0000 H   0  0  0  0  0  0  0  0  0  0  0  0
    1.3207    0.7166    0.0000 H   0  0  0  0  0  0  0  0  0  0  0  0
    1.3251    1.5340    0.0000 H   0  0  0  0  0  0  0  0  0  0  0  0
    0.4118    2.0804    0.0000 H   0  0  0  0  0  0  0  0  0  0  0  0
   -1.9917    1.5219    0.0000 H   0  0  0  0  0  0  0  0  0  0  0  0
   -1.9716    0.4639    0.0000 H   0  0  0  0  0  0  0  0  0  0  0  0
   -1.9806   -0.3458    0.0000 H   0  0  0  0  0  0  0  0  0  0  0  0
   -1.0582   -0.8845    0.0000 H   0  0  0  0  0  0  0  0  0  0  0  0
   -1.2728    2.8319    0.0000 H   0  0  0  0  0  0  0  0  0  0  0  0
   -0.3374    3.3592    0.0000 H   0  0  0  0  0  0  0  0  0  0  0  0
    0.4049    3.7717    0.0000 H   0  0  0  0  0  0  0  0  0  0  0  0
    1.3238    3.2273    0.0000 H   0  0  0  0  0  0  0  0  0  0  0  0
    1.7943    3.7306    0.0000 H   0  0  0  0  0  0  0  0  0  0  0  0
    2.7110    3.2125    0.0000 H   0  0  0  0  0  0  0  0  0  0  0  0
    3.9906    2.1627    0.0000 H   0  0  0  0  0  0  0  0  0  0  0  0
  1  2  2  0  0  0  0
  1  6  1  0  0  0  0
  1 28  1  0  0  0  0
  2  3  1  0  0  0  0
  2 20  1  0  0  0  0
  3  4  2  0  0  0  0
  3 29  1  0  0  0  0
  4  5  1  0  0  0  0
  4 30  1  0  0  0  0
  5  6  2  0  0  0  0
  5  9  1  0  0  0  0
  6 31  1  0  0  0  0
  7  8  1  0  0  0  0
  7 10  2  0  0  0  0
  7 32  1  0  0  0  0
  8 13  2  0  0  0  0
  9  8  1  0  0  0  0
  9 14  1  0  0  0  0
  9 33  1  1  0  0  0
 10 11  1  0  0  0  0
 10 34  1  0  0  0  0
 11 12  2  0  0  0  0
 11 35  1  0  0  0  0
 12 13  1  0  0  0  0
 12 36  1  0  0  0  0
 13 37  1  0  0  0  0
 14 15  1  0  0  0  0
 14 19  1  0  0  0  0
 15 16  1  0  0  0  0
 15 38  1  0  0  0  0
 15 39  1  0  0  0  0
 16 17  1  0  0  0  0
 16 40  1  0  0  0  0
 16 41  1  0  0  0  0
 17 18  1  0  0  0  0
 17 21  1  0  0  0  0
 18 19  1  0  0  0  0
 18 42  1  0  0  0  0
 18 43  1  0  0  0  0
 19 44  1  0  0  0  0
 19 45  1  0  0  0  0
 21 22  1  0  0  0  0
 21 46  1  0  0  0  0
 21 47  1  0  0  0  0
 22 23  1  0  0  0  0
 22 48  1  0  0  0  0
 22 49  1  0  0  0  0
 23 24  1  0  0  0  0
 24 25  1  0  0  0  0
 24 50  1  0  0  0  0
 24 51  1  0  0  0  0
 25 26  1  0  0  0  0
 25 27  2  0  0  0  0
 26 52  1  0  0  0  0
M  END
>  <DRUGBANK_ID>
DB06282

>  <COMMON_NAME>
Levocetirizine

>  <CAS_NUMBER>
130018-77-8

>  <UNII>
6U5EA9RT2O

>  <SYNONYMS>
2-(2-{4-[(R)-(4-chlorophenyl)(phenyl)methyl]piperazin-1-yl}ethoxy)acetic acid; Levocetirizina; Levocetirizine

$$$$
