
 OpenBabel10282417072D

 33 33  0  0  1  0  0  0  0  0999 V2000
   -1.4289   -1.6500    0.0000 C   0  0  0  0  0  0  0  0  0  0  0  0
    1.4289   -1.6500    0.0000 C   0  0  0  0  0  0  0  0  0  0  0  0
    2.1434    1.2375    0.0000 C   0  0  0  0  0  0  0  0  0  0  0  0
   -0.7145   -1.2375    0.0000 C   0  0  0  0  0  0  0  0  0  0  0  0
    1.4289    0.8250    0.0000 C   0  0  2  0  0  0  0  0  0  0  0  0
    0.0000    0.0000    0.0000 C   0  0  2  0  0  0  0  0  0  0  0  0
    0.7145    1.2375    0.0000 C   0  0  2  0  0  0  0  0  0  0  0  0
    0.0000    0.8250    0.0000 C   0  0  2  0  0  0  0  0  0  0  0  0
    0.7145   -0.4125    0.0000 C   0  0  2  0  0  0  0  0  0  0  0  0
   -0.7145   -0.4125    0.0000 N   0  0  0  0  0  0  0  0  0  0  0  0
    2.1434    2.0625    0.0000 O   0  0  0  0  0  0  0  0  0  0  0  0
   -0.0000   -1.6500    0.0000 O   0  0  0  0  0  0  0  0  0  0  0  0
    0.7145    2.0625    0.0000 O   0  0  0  0  0  0  0  0  0  0  0  0
   -0.7145    1.2375    0.0000 O   0  0  0  0  0  0  0  0  0  0  0  0
    0.7145   -1.2375    0.0000 O   0  0  0  0  0  0  0  0  0  0  0  0
    1.4289   -0.0000    0.0000 O   0  0  0  0  0  0  0  0  0  0  0  0
    1.1468    1.6002    0.0000 H   0  0  0  0  0  0  0  0  0  0  0  0
   -0.8125    0.1433    0.0000 H   0  0  0  0  0  0  0  0  0  0  0  0
    1.2448    1.8695    0.0000 H   0  0  0  0  0  0  0  0  0  0  0  0
   -0.8125    0.6817    0.0000 H   0  0  0  0  0  0  0  0  0  0  0  0
   -0.0000   -0.8250    0.0000 H   0  0  0  0  0  0  0  0  0  0  0  0
   -2.3556   -1.1150    0.0000 H   0  0  0  0  0  0  0  0  0  0  0  0
   -1.4289   -2.7200    0.0000 H   0  0  0  0  0  0  0  0  0  0  0  0
   -2.3555   -2.1850    0.0000 H   0  0  0  0  0  0  0  0  0  0  0  0
    1.4289   -2.7200    0.0000 H   0  0  0  0  0  0  0  0  0  0  0  0
    2.3556   -1.1150    0.0000 H   0  0  0  0  0  0  0  0  0  0  0  0
    2.3555   -2.1850    0.0000 H   0  0  0  0  0  0  0  0  0  0  0  0
    3.0700    0.7025    0.0000 H   0  0  0  0  0  0  0  0  0  0  0  0
    3.0700    1.7725    0.0000 H   0  0  0  0  0  0  0  0  0  0  0  0
   -1.5671    0.0798    0.0000 H   0  0  0  0  0  0  0  0  0  0  0  0
    2.9834    2.5475    0.0000 H   0  0  0  0  0  0  0  0  0  0  0  0
    1.5545    2.5475    0.0000 H   0  0  0  0  0  0  0  0  0  0  0  0
   -0.7145    2.2075    0.0000 H   0  0  0  0  0  0  0  0  0  0  0  0
  1 22  1  0  0  0  0
  1 23  1  0  0  0  0
  1 24  1  0  0  0  0
  2 25  1  0  0  0  0
  2 26  1  0  0  0  0
  2 27  1  0  0  0  0
  3 28  1  0  0  0  0
  3 29  1  0  0  0  0
  4  1  1  0  0  0  0
  5  3  1  0  0  0  0
  5 17  1  6  0  0  0
  6 10  1  0  0  0  0
  6 18  1  1  0  0  0
  7  5  1  0  0  0  0
  7 13  1  0  0  0  0
  7 19  1  1  0  0  0
  8  6  1  0  0  0  0
  8  7  1  0  0  0  0
  8 14  1  0  0  0  0
  8 20  1  6  0  0  0
  9  6  1  0  0  0  0
  9 15  1  0  0  0  0
  9 21  1  6  0  0  0
 10  4  1  0  0  0  0
 10 30  1  0  0  0  0
 11  3  1  0  0  0  0
 11 31  1  0  0  0  0
 12  4  2  0  0  0  0
 13 32  1  0  0  0  0
 14 33  1  0  0  0  0
 15  2  1  0  0  0  0
 16  5  1  0  0  0  0
 16  9  1  0  0  0  0
M  END
>  <DRUGBANK_ID>
DB04426

>  <SECONDARY_ACCESSION_NUMBERS>
EXPT02108; DB02612

>  <COMMON_NAME>
Alpha-Methyl-N-Acetyl-D-Glucosamine

$$$$
