
 OpenBabel10282417072D

 13 13  0  0  0  0  0  0  0  0999 V2000
    0.0000    0.0000    0.0000 O   0  0  0  0  0  0  0  0  0  0  0  0
    0.6674   -0.4849    0.0000 C   0  0  0  0  0  0  0  0  0  0  0  0
   -0.6674   -0.4849    0.0000 N   0  0  0  0  0  0  0  0  0  0  0  0
    0.4125   -1.2695    0.0000 C   0  0  1  0  0  0  0  0  0  0  0  0
    0.8974   -1.9370    0.0000 N   0  0  0  0  0  0  0  0  0  0  0  0
   -0.4125   -1.2695    0.0000 C   0  0  0  0  0  0  0  0  0  0  0  0
   -0.8974   -1.9370    0.0000 O   0  0  0  0  0  0  0  0  0  0  0  0
    1.6850   -0.1542    0.0000 H   0  0  0  0  0  0  0  0  0  0  0  0
    1.4240   -1.2415    0.0000 H   0  0  0  0  0  0  0  0  0  0  0  0
   -1.6037   -0.1807    0.0000 H   0  0  0  0  0  0  0  0  0  0  0  0
    1.4693   -1.1021    0.0000 H   0  0  0  0  0  0  0  0  0  0  0  0
    0.4825   -2.8688    0.0000 H   0  0  0  0  0  0  0  0  0  0  0  0
    1.9118   -1.8304    0.0000 H   0  0  0  0  0  0  0  0  0  0  0  0
  1  2  1  0  0  0  0
  1  3  1  0  0  0  0
  2  4  1  0  0  0  0
  2  8  1  0  0  0  0
  2  9  1  0  0  0  0
  3 10  1  0  0  0  0
  4  6  1  0  0  0  0
  4  5  1  0  0  0  0
  4 11  1  6  0  0  0
  5 12  1  0  0  0  0
  5 13  1  0  0  0  0
  6  3  1  0  0  0  0
  6  7  2  0  0  0  0
M  END
>  <DRUGBANK_ID>
DB00260

>  <SECONDARY_ACCESSION_NUMBERS>
APRD00894; DB03123

>  <COMMON_NAME>
Cycloserine

>  <CAS_NUMBER>
68-41-7

>  <UNII>
95IK5KI84Z

>  <SYNONYMS>
(+)-4-amino-3-isoxazolidinone; (+)-cycloserine; alpha-Cycloserine; Cicloserina; cyclo-D-Serine; Cyclosérine; Cycloserine; Cycloserinum; D-(+)-cycloserine; D-4-amino-3-isoxazolidinone; D-4-amino-3-isoxazolidone; D-Cycloserine; DCS; Orientomycin; α-Cycloserine

$$$$
