1029
 OpenBabel10282417072D

 60 64  0  0  0  0  0  0  0  0999 V2000
    2.6582   -2.3648    0.0000 O   0  0  0  0  0  0  0  0  0  0  0  0
    4.7777   -2.1099    0.0000 N   0  0  0  0  0  0  0  0  0  0  0  0
    3.6977   -1.3252    0.0000 N   0  0  0  0  0  0  0  0  0  0  0  0
    2.8371    2.2237    0.0000 N   0  0  0  0  0  0  0  0  0  0  0  0
    2.6976    3.5512    0.0000 N   0  0  0  0  0  0  0  0  0  0  0  0
    2.0301    2.3952    0.0000 N   0  0  0  0  0  0  0  0  0  0  0  0
    1.9439    3.2157    0.0000 N   0  0  0  0  0  0  0  0  0  0  0  0
    4.1102   -2.5947    0.0000 C   0  0  0  0  0  0  0  0  0  0  0  0
    4.7777   -3.0797    0.0000 C   0  0  0  0  0  0  0  0  0  0  0  0
    3.4427   -3.0797    0.0000 C   0  0  0  0  0  0  0  0  0  0  0  0
    4.5227   -3.8643    0.0000 C   0  0  0  0  0  0  0  0  0  0  0  0
    3.6977   -3.8643    0.0000 C   0  0  0  0  0  0  0  0  0  0  0  0
    3.4427   -2.1099    0.0000 C   0  0  0  0  0  0  0  0  0  0  0  0
    4.5227   -1.3252    0.0000 C   0  0  0  0  0  0  0  0  0  0  0  0
    5.0076   -0.6578    0.0000 C   0  0  0  0  0  0  0  0  0  0  0  0
    3.2128   -0.6578    0.0000 C   0  0  0  0  0  0  0  0  0  0  0  0
    5.8282   -0.7440    0.0000 C   0  0  0  0  0  0  0  0  0  0  0  0
    3.5483    0.0959    0.0000 C   0  0  0  0  0  0  0  0  0  0  0  0
    6.3130   -0.0766    0.0000 C   0  0  0  0  0  0  0  0  0  0  0  0
    4.3688    0.1822    0.0000 C   0  0  0  0  0  0  0  0  0  0  0  0
    3.0634    0.7634    0.0000 C   0  0  0  0  0  0  0  0  0  0  0  0
    7.1336   -0.1628    0.0000 C   0  0  0  0  0  0  0  0  0  0  0  0
    4.7044    0.9358    0.0000 C   0  0  0  0  0  0  0  0  0  0  0  0
    3.3989    1.5170    0.0000 C   0  0  0  0  0  0  0  0  0  0  0  0
    4.2195    1.6033    0.0000 C   0  0  0  0  0  0  0  0  0  0  0  0
    4.5550    2.3570    0.0000 C   0  0  0  0  0  0  0  0  0  0  0  0
    4.0701    3.0244    0.0000 C   0  0  0  0  0  0  0  0  0  0  0  0
    5.3755    2.4432    0.0000 C   0  0  0  0  0  0  0  0  0  0  0  0
    4.4057    3.7781    0.0000 C   0  0  0  0  0  0  0  0  0  0  0  0
    5.7111    3.1969    0.0000 C   0  0  0  0  0  0  0  0  0  0  0  0
    3.2496    2.9382    0.0000 C   0  0  0  0  0  0  0  0  0  0  0  0
    5.2262    3.8643    0.0000 C   0  0  0  0  0  0  0  0  0  0  0  0
    1.2985    1.7364    0.0000 H   0  0  0  0  0  0  0  0  0  0  0  0
    5.7953   -2.7491    0.0000 H   0  0  0  0  0  0  0  0  0  0  0  0
    5.5343   -3.8364    0.0000 H   0  0  0  0  0  0  0  0  0  0  0  0
    2.4251   -2.7491    0.0000 H   0  0  0  0  0  0  0  0  0  0  0  0
    2.6861   -3.8364    0.0000 H   0  0  0  0  0  0  0  0  0  0  0  0
    5.1516   -4.7300    0.0000 H   0  0  0  0  0  0  0  0  0  0  0  0
    4.0369   -4.8177    0.0000 H   0  0  0  0  0  0  0  0  0  0  0  0
    3.0688   -4.7300    0.0000 H   0  0  0  0  0  0  0  0  0  0  0  0
    4.1835   -4.8177    0.0000 H   0  0  0  0  0  0  0  0  0  0  0  0
    4.5724    0.3197    0.0000 H   0  0  0  0  0  0  0  0  0  0  0  0
    5.6365    0.2079    0.0000 H   0  0  0  0  0  0  0  0  0  0  0  0
    2.1487   -0.7697    0.0000 H   0  0  0  0  0  0  0  0  0  0  0  0
    2.5838    0.2078    0.0000 H   0  0  0  0  0  0  0  0  0  0  0  0
    6.2635   -1.7215    0.0000 H   0  0  0  0  0  0  0  0  0  0  0  0
    6.8923   -0.8558    0.0000 H   0  0  0  0  0  0  0  0  0  0  0  0
    5.8777    0.9009    0.0000 H   0  0  0  0  0  0  0  0  0  0  0  0
    6.9419    0.7891    0.0000 H   0  0  0  0  0  0  0  0  0  0  0  0
    4.9754   -0.6527    0.0000 H   0  0  0  0  0  0  0  0  0  0  0  0
    2.0371    0.6555    0.0000 H   0  0  0  0  0  0  0  0  0  0  0  0
    7.5689   -1.1403    0.0000 H   0  0  0  0  0  0  0  0  0  0  0  0
    7.7625    0.7029    0.0000 H   0  0  0  0  0  0  0  0  0  0  0  0
    8.1977   -0.2746    0.0000 H   0  0  0  0  0  0  0  0  0  0  0  0
    5.7308    1.0436    0.0000 H   0  0  0  0  0  0  0  0  0  0  0  0
    2.7923    2.3519    0.0000 H   0  0  0  0  0  0  0  0  0  0  0  0
    5.9821    1.6083    0.0000 H   0  0  0  0  0  0  0  0  0  0  0  0
    3.7991    4.6130    0.0000 H   0  0  0  0  0  0  0  0  0  0  0  0
    6.7374    3.3048    0.0000 H   0  0  0  0  0  0  0  0  0  0  0  0
    5.6460    4.8071    0.0000 H   0  0  0  0  0  0  0  0  0  0  0  0
  1 13  2  0  0  0  0
  2  8  1  0  0  0  0
  2 14  2  0  0  0  0
  3 13  1  0  0  0  0
  3 14  1  0  0  0  0
  3 16  1  0  0  0  0
  4  6  1  0  0  0  0
  4 31  2  0  0  0  0
  5  7  2  0  0  0  0
  5 31  1  0  0  0  0
  6  7  1  0  0  0  0
  6 33  1  0  0  0  0
  8  9  1  0  0  0  0
  8 10  1  0  0  0  0
  8 13  1  0  0  0  0
  9 11  1  0  0  0  0
  9 34  1  0  0  0  0
  9 35  1  0  0  0  0
 10 12  1  0  0  0  0
 10 36  1  0  0  0  0
 10 37  1  0  0  0  0
 11 12  1  0  0  0  0
 11 38  1  0  0  0  0
 11 39  1  0  0  0  0
 12 40  1  0  0  0  0
 12 41  1  0  0  0  0
 14 15  1  0  0  0  0
 15 17  1  0  0  0  0
 15 42  1  0  0  0  0
 15 43  1  0  0  0  0
 16 18  1  0  0  0  0
 16 44  1  0  0  0  0
 16 45  1  0  0  0  0
 17 19  1  0  0  0  0
 17 46  1  0  0  0  0
 17 47  1  0  0  0  0
 18 20  2  0  0  0  0
 18 21  1  0  0  0  0
 19 22  1  0  0  0  0
 19 48  1  0  0  0  0
 19 49  1  0  0  0  0
 20 23  1  0  0  0  0
 20 50  1  0  0  0  0
 21 24  2  0  0  0  0
 21 51  1  0  0  0  0
 22 52  1  0  0  0  0
 22 53  1  0  0  0  0
 22 54  1  0  0  0  0
 23 25  2  0  0  0  0
 23 55  1  0  0  0  0
 24 25  1  0  0  0  0
 24 56  1  0  0  0  0
 25 26  1  0  0  0  0
 26 27  1  0  0  0  0
 26 28  2  0  0  0  0
 27 29  2  0  0  0  0
 27 31  1  0  0  0  0
 28 30  1  0  0  0  0
 28 57  1  0  0  0  0
 29 32  1  0  0  0  0
 29 58  1  0  0  0  0
 30 32  2  0  0  0  0
 30 59  1  0  0  0  0
 32 60  1  0  0  0  0
M  END
>  <DRUGBANK_ID>
DB01029

>  <SECONDARY_ACCESSION_NUMBERS>
APRD00413

>  <COMMON_NAME>
Irbesartan

>  <CAS_NUMBER>
138402-11-6

>  <UNII>
J0E2756Z7N

>  <SYNONYMS>
2-butyl-3-{[2'-(1H-tetrazol-5-yl)biphenyl-4-yl]methyl}-1,3-diazaspiro[4.4]non-1-en-4-one; Irbesartan

$$$$
