
 OpenBabel10282417072D

141146  0  0  0  0  0  0  0  0999 V2000
    0.2726    1.4641    0.0000 O   0  0  0  0  0  0  0  0  0  0  0  0
    0.6545    2.1938    0.0000 C   0  0  0  0  0  0  0  0  0  0  0  0
    1.4169    2.5100    0.0000 N   0  0  0  0  0  0  0  0  0  0  0  0
    1.5222    3.3283    0.0000 C   0  0  0  0  0  0  0  0  0  0  0  0
    2.0690    2.0080    0.0000 C   0  0  2  0  0  0  0  0  0  0  0  0
    1.9585    1.1947    0.0000 C   0  0  0  0  0  0  0  0  0  0  0  0
    1.1961    0.8735    0.0000 O   0  0  0  0  0  0  0  0  0  0  0  0
    2.6105    0.6879    0.0000 O   0  0  0  0  0  0  0  0  0  0  0  0
    2.5002   -0.1255    0.0000 C   0  0  0  0  0  0  0  0  0  0  0  0
    3.1522   -0.6325    0.0000 C   0  0  1  0  0  0  0  0  0  0  0  0
    3.9196   -0.3162    0.0000 N   0  0  0  0  0  0  0  0  0  0  0  0
    4.5666   -0.8232    0.0000 C   0  0  0  0  0  0  0  0  0  0  0  0
    4.4613   -1.6363    0.0000 O   0  0  0  0  0  0  0  0  0  0  0  0
    5.3290   -0.5020    0.0000 C   0  0  0  0  0  0  0  0  0  0  0  0
    5.9811   -1.0089    0.0000 N   0  0  0  0  0  0  0  0  0  0  0  0
    6.7435   -0.6928    0.0000 C   0  0  0  0  0  0  0  0  0  0  0  0
    6.8538    0.1255    0.0000 C   0  0  0  0  0  0  0  0  0  0  0  0
    6.2018    0.6226    0.0000 N   0  0  0  0  0  0  0  0  0  0  0  0
    5.4393    0.3113    0.0000 C   0  0  0  0  0  0  0  0  0  0  0  0
    7.6161    0.4367    0.0000 C   0  0  0  0  0  0  0  0  0  0  0  0
    8.2680   -0.0651    0.0000 C   0  0  0  0  0  0  0  0  0  0  0  0
    8.1578   -0.8835    0.0000 C   0  0  0  0  0  0  0  0  0  0  0  0
    7.4003   -1.1947    0.0000 C   0  0  0  0  0  0  0  0  0  0  0  0
    3.0469   -1.4455    0.0000 C   0  0  0  0  0  0  0  0  0  0  0  0
    3.6940   -1.9478    0.0000 O   0  0  0  0  0  0  0  0  0  0  0  0
    2.2846   -1.7620    0.0000 N   0  0  0  0  0  0  0  0  0  0  0  0
    2.1742   -2.5801    0.0000 C   0  0  2  0  0  0  0  0  0  0  0  0
    1.4169   -2.8914    0.0000 C   0  0  0  0  0  0  0  0  0  0  0  0
    1.3065   -3.7046    0.0000 O   0  0  0  0  0  0  0  0  0  0  0  0
    0.7599   -2.3894    0.0000 N   0  0  0  0  0  0  0  0  0  0  0  0
    0.8425   -1.7757    0.0000 C   0  0  0  0  0  0  0  0  0  0  0  0
   -0.0025   -2.7056    0.0000 C   0  0  2  0  0  0  0  0  0  0  0  0
   -0.6543   -2.1986    0.0000 C   0  0  0  0  0  0  0  0  0  0  0  0
   -0.5441   -1.3854    0.0000 O   0  0  0  0  0  0  0  0  0  0  0  0
   -1.4168   -2.5148    0.0000 N   0  0  0  0  0  0  0  0  0  0  0  0
   -1.5222   -3.3331    0.0000 C   0  0  0  0  0  0  0  0  0  0  0  0
   -2.0638   -2.0129    0.0000 C   0  0  2  0  0  0  0  0  0  0  0  0
   -1.9585   -1.1947    0.0000 C   0  0  0  0  0  0  0  0  0  0  0  0
   -1.2010   -0.8835    0.0000 O   0  0  0  0  0  0  0  0  0  0  0  0
   -2.6104   -0.6928    0.0000 O   0  0  0  0  0  0  0  0  0  0  0  0
   -2.5052    0.1255    0.0000 C   0  0  0  0  0  0  0  0  0  0  0  0
   -3.1522    0.6226    0.0000 C   0  0  2  0  0  0  0  0  0  0  0  0
   -3.0469    1.4458    0.0000 C   0  0  0  0  0  0  0  0  0  0  0  0
   -3.6989    1.9427    0.0000 O   0  0  0  0  0  0  0  0  0  0  0  0
   -2.2846    1.7571    0.0000 N   0  0  0  0  0  0  0  0  0  0  0  0
   -2.1740    2.5752    0.0000 C   0  0  2  0  0  0  0  0  0  0  0  0
   -1.4168    2.8866    0.0000 C   0  0  0  0  0  0  0  0  0  0  0  0
   -1.3065    3.7046    0.0000 O   0  0  0  0  0  0  0  0  0  0  0  0
   -0.7599    2.3845    0.0000 N   0  0  0  0  0  0  0  0  0  0  0  0
   -0.8702    1.5712    0.0000 C   0  0  0  0  0  0  0  0  0  0  0  0
   -0.0025    2.7007    0.0000 C   0  0  1  0  0  0  0  0  0  0  0  0
   -1.2329    0.6530    0.0000 C   0  0  3  0  0  0  0  0  0  0  0  0
   -0.2104    0.6717    0.0000 S   0  0  0  0  0  0  0  0  0  0  0  0
    0.3721   -0.1715    0.0000 C   0  0  0  0  0  0  0  0  0  0  0  0
   -1.1346   -0.2190    0.0000 S   0  0  0  0  0  0  0  0  0  0  0  0
    0.5928   -1.4126    0.0000 C   0  0  0  0  0  0  0  0  0  0  0  0
   -2.8313    3.0773    0.0000 C   0  0  0  0  0  0  0  0  0  0  0  0
   -3.9195    0.3113    0.0000 N   0  0  0  0  0  0  0  0  0  0  0  0
   -4.5665    0.8133    0.0000 C   0  0  0  0  0  0  0  0  0  0  0  0
   -4.4613    1.6314    0.0000 O   0  0  0  0  0  0  0  0  0  0  0  0
   -5.3289    0.4969    0.0000 C   0  0  0  0  0  0  0  0  0  0  0  0
   -5.9860    1.0041    0.0000 N   0  0  0  0  0  0  0  0  0  0  0  0
   -6.7407    0.6879    0.0000 C   0  0  0  0  0  0  0  0  0  0  0  0
   -6.8496   -0.1255    0.0000 C   0  0  0  0  0  0  0  0  0  0  0  0
   -6.1965   -0.6325    0.0000 N   0  0  0  0  0  0  0  0  0  0  0  0
   -5.4392   -0.3162    0.0000 C   0  0  0  0  0  0  0  0  0  0  0  0
   -7.6159   -0.4416    0.0000 C   0  0  0  0  0  0  0  0  0  0  0  0
   -8.2680    0.0602    0.0000 C   0  0  0  0  0  0  0  0  0  0  0  0
   -8.1578    0.8735    0.0000 C   0  0  0  0  0  0  0  0  0  0  0  0
   -7.4004    1.1947    0.0000 C   0  0  0  0  0  0  0  0  0  0  0  0
   -2.8313   -2.3242    0.0000 C   0  0  0  0  0  0  0  0  0  0  0  0
   -2.9365   -3.1425    0.0000 C   0  0  0  0  0  0  0  0  0  0  0  0
   -3.4782   -1.8221    0.0000 C   0  0  0  0  0  0  0  0  0  0  0  0
    2.8314   -3.0822    0.0000 C   0  0  0  0  0  0  0  0  0  0  0  0
    2.8314    2.3192    0.0000 C   0  0  0  0  0  0  0  0  0  0  0  0
    2.9366    3.1376    0.0000 C   0  0  0  0  0  0  0  0  0  0  0  0
    3.4784    1.8173    0.0000 C   0  0  0  0  0  0  0  0  0  0  0  0
    2.5096    3.7407    0.0000 H   0  0  0  0  0  0  0  0  0  0  0  0
    0.6714    3.9772    0.0000 H   0  0  0  0  0  0  0  0  0  0  0  0
    1.6588    4.3895    0.0000 H   0  0  0  0  0  0  0  0  0  0  0  0
    2.2122    3.0684    0.0000 H   0  0  0  0  0  0  0  0  0  0  0  0
    1.5095   -0.5299    0.0000 H   0  0  0  0  0  0  0  0  0  0  0  0
    2.3544   -1.1855    0.0000 H   0  0  0  0  0  0  0  0  0  0  0  0
    3.2962    0.4278    0.0000 H   0  0  0  0  0  0  0  0  0  0  0  0
    4.0539    0.6591    0.0000 H   0  0  0  0  0  0  0  0  0  0  0  0
    4.6234    0.9432    0.0000 H   0  0  0  0  0  0  0  0  0  0  0  0
    7.7542    1.4594    0.0000 H   0  0  0  0  0  0  0  0  0  0  0  0
    9.2223    0.3277    0.0000 H   0  0  0  0  0  0  0  0  0  0  0  0
    8.9747   -1.5141    0.0000 H   0  0  0  0  0  0  0  0  0  0  0  0
    7.2651   -2.2178    0.0000 H   0  0  0  0  0  0  0  0  0  0  0  0
    1.5043   -1.1617    0.0000 H   0  0  0  0  0  0  0  0  0  0  0  0
    3.1630   -2.1712    0.0000 H   0  0  0  0  0  0  0  0  0  0  0  0
    1.8322   -1.3691    0.0000 H   0  0  0  0  0  0  0  0  0  0  0  0
   -0.0045   -1.1219    0.0000 H   0  0  0  0  0  0  0  0  0  0  0  0
    0.9852   -0.7153    0.0000 H   0  0  0  0  0  0  0  0  0  0  0  0
    0.7685   -1.9636    0.0000 H   0  0  0  0  0  0  0  0  0  0  0  0
   -2.5096   -3.7453    0.0000 H   0  0  0  0  0  0  0  0  0  0  0  0
   -0.6715   -3.9821    0.0000 H   0  0  0  0  0  0  0  0  0  0  0  0
   -1.6589   -4.3943    0.0000 H   0  0  0  0  0  0  0  0  0  0  0  0
   -2.2102   -3.0728    0.0000 H   0  0  0  0  0  0  0  0  0  0  0  0
   -1.5171    0.5362    0.0000 H   0  0  0  0  0  0  0  0  0  0  0  0
   -2.3658    1.1864    0.0000 H   0  0  0  0  0  0  0  0  0  0  0  0
   -3.2961   -0.4377    0.0000 H   0  0  0  0  0  0  0  0  0  0  0  0
   -1.5061    1.1545    0.0000 H   0  0  0  0  0  0  0  0  0  0  0  0
   -3.1628    2.1664    0.0000 H   0  0  0  0  0  0  0  0  0  0  0  0
   -1.8603    1.1656    0.0000 H   0  0  0  0  0  0  0  0  0  0  0  0
   -0.0239    0.9165    0.0000 H   0  0  0  0  0  0  0  0  0  0  0  0
   -1.0140    0.5109    0.0000 H   0  0  0  0  0  0  0  0  0  0  0  0
   -0.1421    1.6398    0.0000 H   0  0  0  0  0  0  0  0  0  0  0  0
   -0.3065    1.1884    0.0000 H   0  0  0  0  0  0  0  0  0  0  0  0
   -0.0862   -1.1384    0.0000 H   0  0  0  0  0  0  0  0  0  0  0  0
    1.4386   -0.0850    0.0000 H   0  0  0  0  0  0  0  0  0  0  0  0
    0.9803   -1.0519    0.0000 H   0  0  0  0  0  0  0  0  0  0  0  0
    1.6248   -1.1299    0.0000 H   0  0  0  0  0  0  0  0  0  0  0  0
    1.2848   -2.2287    0.0000 H   0  0  0  0  0  0  0  0  0  0  0  0
   -2.6939    4.1384    0.0000 H   0  0  0  0  0  0  0  0  0  0  0  0
   -3.8190    2.6657    0.0000 H   0  0  0  0  0  0  0  0  0  0  0  0
   -3.6816    3.7268    0.0000 H   0  0  0  0  0  0  0  0  0  0  0  0
   -4.0542   -0.6639    0.0000 H   0  0  0  0  0  0  0  0  0  0  0  0
   -4.6208   -0.9448    0.0000 H   0  0  0  0  0  0  0  0  0  0  0  0
   -7.7521   -1.4646    0.0000 H   0  0  0  0  0  0  0  0  0  0  0  0
   -9.2225   -0.3323    0.0000 H   0  0  0  0  0  0  0  0  0  0  0  0
   -8.9780    1.4999    0.0000 H   0  0  0  0  0  0  0  0  0  0  0  0
   -7.2697    2.2184    0.0000 H   0  0  0  0  0  0  0  0  0  0  0  0
   -3.8204   -2.7324    0.0000 H   0  0  0  0  0  0  0  0  0  0  0  0
   -3.9238   -3.5550    0.0000 H   0  0  0  0  0  0  0  0  0  0  0  0
   -2.0856   -3.7913    0.0000 H   0  0  0  0  0  0  0  0  0  0  0  0
   -3.0729   -4.2038    0.0000 H   0  0  0  0  0  0  0  0  0  0  0  0
   -3.3327   -0.7620    0.0000 H   0  0  0  0  0  0  0  0  0  0  0  0
   -4.4690   -2.2261    0.0000 H   0  0  0  0  0  0  0  0  0  0  0  0
   -4.3235   -1.1660    0.0000 H   0  0  0  0  0  0  0  0  0  0  0  0
    2.6940   -4.1433    0.0000 H   0  0  0  0  0  0  0  0  0  0  0  0
    3.8191   -2.6707    0.0000 H   0  0  0  0  0  0  0  0  0  0  0  0
    3.6817   -3.7318    0.0000 H   0  0  0  0  0  0  0  0  0  0  0  0
    3.8204    2.7276    0.0000 H   0  0  0  0  0  0  0  0  0  0  0  0
    3.9239    3.5501    0.0000 H   0  0  0  0  0  0  0  0  0  0  0  0
    2.0857    3.7864    0.0000 H   0  0  0  0  0  0  0  0  0  0  0  0
    3.0730    4.1989    0.0000 H   0  0  0  0  0  0  0  0  0  0  0  0
    3.3331    0.7572    0.0000 H   0  0  0  0  0  0  0  0  0  0  0  0
    4.4691    2.2216    0.0000 H   0  0  0  0  0  0  0  0  0  0  0  0
    4.3238    1.1615    0.0000 H   0  0  0  0  0  0  0  0  0  0  0  0
  1  2  2  0  0  0  0
  2  3  1  0  0  0  0
  3  4  1  0  0  0  0
  3  5  1  0  0  0  0
  4 78  1  0  0  0  0
  4 79  1  0  0  0  0
  4 80  1  0  0  0  0
  5  6  1  0  0  0  0
  5 75  1  0  0  0  0
  5 81  1  6  0  0  0
  6  7  2  0  0  0  0
  6  8  1  0  0  0  0
  8  9  1  0  0  0  0
  9 10  1  0  0  0  0
  9 82  1  0  0  0  0
  9 83  1  0  0  0  0
 10 11  1  0  0  0  0
 10 24  1  0  0  0  0
 10 84  1  6  0  0  0
 11 12  1  0  0  0  0
 11 85  1  0  0  0  0
 12 13  2  0  0  0  0
 12 14  1  0  0  0  0
 14 15  2  0  0  0  0
 14 19  1  0  0  0  0
 15 16  1  0  0  0  0
 16 17  2  0  0  0  0
 16 23  1  0  0  0  0
 17 18  1  0  0  0  0
 17 20  1  0  0  0  0
 18 19  2  0  0  0  0
 19 86  1  0  0  0  0
 20 21  2  0  0  0  0
 20 87  1  0  0  0  0
 21 22  1  0  0  0  0
 21 88  1  0  0  0  0
 22 23  2  0  0  0  0
 22 89  1  0  0  0  0
 23 90  1  0  0  0  0
 24 25  2  0  0  0  0
 24 26  1  0  0  0  0
 26 27  1  0  0  0  0
 26 91  1  0  0  0  0
 27 28  1  0  0  0  0
 27 74  1  0  0  0  0
 27 92  1  6  0  0  0
 28 29  2  0  0  0  0
 28 30  1  0  0  0  0
 30 31  1  0  0  0  0
 30 32  1  0  0  0  0
 31 93  1  0  0  0  0
 31 94  1  0  0  0  0
 31 95  1  0  0  0  0
 32 33  1  0  0  0  0
 32 56  1  0  0  0  0
 32 96  1  1  0  0  0
 33 34  2  0  0  0  0
 33 35  1  0  0  0  0
 35 36  1  0  0  0  0
 35 37  1  0  0  0  0
 36 97  1  0  0  0  0
 36 98  1  0  0  0  0
 36 99  1  0  0  0  0
 37 38  1  0  0  0  0
 37 71  1  0  0  0  0
 37100  1  6  0  0  0
 38 39  2  0  0  0  0
 38 40  1  0  0  0  0
 40 41  1  0  0  0  0
 41 42  1  0  0  0  0
 41101  1  0  0  0  0
 41102  1  0  0  0  0
 42 43  1  0  0  0  0
 42 58  1  0  0  0  0
 42103  1  6  0  0  0
 43 44  2  0  0  0  0
 43 45  1  0  0  0  0
 45 46  1  0  0  0  0
 45104  1  0  0  0  0
 46 47  1  0  0  0  0
 46 57  1  0  0  0  0
 46105  1  6  0  0  0
 47 48  2  0  0  0  0
 47 49  1  0  0  0  0
 49 50  1  0  0  0  0
 49 51  1  0  0  0  0
 50106  1  0  0  0  0
 50107  1  0  0  0  0
 50108  1  0  0  0  0
 51  2  1  0  0  0  0
 51 52  1  0  0  0  0
 51109  1  1  0  0  0
 52 53  1  0  0  0  0
 52 55  1  0  0  0  0
 52110  1  0  0  0  0
 53 54  1  0  0  0  0
 54111  1  0  0  0  0
 54112  1  0  0  0  0
 54113  1  0  0  0  0
 55 56  1  0  0  0  0
 56114  1  0  0  0  0
 56115  1  0  0  0  0
 57116  1  0  0  0  0
 57117  1  0  0  0  0
 57118  1  0  0  0  0
 58 59  1  0  0  0  0
 58119  1  0  0  0  0
 59 60  2  0  0  0  0
 59 61  1  0  0  0  0
 61 62  2  0  0  0  0
 61 66  1  0  0  0  0
 62 63  1  0  0  0  0
 63 64  2  0  0  0  0
 63 70  1  0  0  0  0
 64 65  1  0  0  0  0
 64 67  1  0  0  0  0
 65 66  2  0  0  0  0
 66120  1  0  0  0  0
 67 68  2  0  0  0  0
 67121  1  0  0  0  0
 68 69  1  0  0  0  0
 68122  1  0  0  0  0
 69 70  2  0  0  0  0
 69123  1  0  0  0  0
 70124  1  0  0  0  0
 71 72  1  0  0  0  0
 71 73  1  0  0  0  0
 71125  1  0  0  0  0
 72126  1  0  0  0  0
 72127  1  0  0  0  0
 72128  1  0  0  0  0
 73129  1  0  0  0  0
 73130  1  0  0  0  0
 73131  1  0  0  0  0
 74132  1  0  0  0  0
 74133  1  0  0  0  0
 74134  1  0  0  0  0
 75 76  1  0  0  0  0
 75 77  1  0  0  0  0
 75135  1  0  0  0  0
 76136  1  0  0  0  0
 76137  1  0  0  0  0
 76138  1  0  0  0  0
 77139  1  0  0  0  0
 77140  1  0  0  0  0
 77141  1  0  0  0  0
M  END
>  <DRUGBANK_ID>
DB15582

>  <COMMON_NAME>
Echinomycin

>  <CAS_NUMBER>
512-64-1

>  <UNII>
TG824J6RQT

>  <SYNONYMS>
Quinomycin A

$$$$
