Carotene-beta
 OpenBabel10282417072D

 51 51  0  0  0  0  0  0  0  0999 V2000
   -6.7893   -0.2309    0.0000 C   0  0  0  0  0  0  0  0  0  0  0  0
   -6.0748    0.1816    0.0000 C   0  0  0  0  0  0  0  0  0  0  0  0
   -7.5038   -1.4684    0.0000 C   0  0  0  0  0  0  0  0  0  0  0  0
   -8.2182   -0.2309    0.0000 C   0  0  0  0  0  0  0  0  0  0  0  0
   -5.3602   -0.2309    0.0000 C   0  0  0  0  0  0  0  0  0  0  0  0
   -8.2182   -1.0559    0.0000 C   0  0  0  0  0  0  0  0  0  0  0  0
   -4.6459    0.1816    0.0000 C   0  0  0  0  0  0  0  0  0  0  0  0
   -3.9314   -0.2309    0.0000 C   0  0  0  0  0  0  0  0  0  0  0  0
   -4.6459    1.0066    0.0000 C   0  0  0  0  0  0  0  0  0  0  0  0
   -3.2169    0.1816    0.0000 C   0  0  0  0  0  0  0  0  0  0  0  0
   -2.5025   -0.2309    0.0000 C   0  0  0  0  0  0  0  0  0  0  0  0
   -1.7880    0.1816    0.0000 C   0  0  0  0  0  0  0  0  0  0  0  0
   -1.0734   -0.2309    0.0000 C   0  0  0  0  0  0  0  0  0  0  0  0
   -1.7880    1.0066    0.0000 C   0  0  0  0  0  0  0  0  0  0  0  0
   -0.3590    0.1816    0.0000 C   0  0  0  0  0  0  0  0  0  0  0  0
   -6.7893   -1.0559    0.0000 C   0  0  0  0  0  0  0  0  0  0  0  0
   -6.0748   -1.4684    0.0000 C   0  0  0  0  0  0  0  0  0  0  0  0
   -7.9163    0.8961    0.0000 C   0  0  0  0  0  0  0  0  0  0  0  0
   -7.5038    0.1816    0.0000 C   0  0  0  0  0  0  0  0  0  0  0  0
   -7.0913    0.8961    0.0000 C   0  0  0  0  0  0  0  0  0  0  0  0
    0.3553   -0.2308    0.0000 O   0  0  0  0  0  0  0  0  0  0  0  0
   -6.0748    1.2136    0.0000 H   0  0  0  0  0  0  0  0  0  0  0  0
   -7.5038   -2.5384    0.0000 H   0  0  0  0  0  0  0  0  0  0  0  0
   -8.4305   -2.0034    0.0000 H   0  0  0  0  0  0  0  0  0  0  0  0
   -9.1449    0.3041    0.0000 H   0  0  0  0  0  0  0  0  0  0  0  0
   -9.1448   -0.7659    0.0000 H   0  0  0  0  0  0  0  0  0  0  0  0
   -5.3601   -1.2629    0.0000 H   0  0  0  0  0  0  0  0  0  0  0  0
   -9.1449   -1.5909    0.0000 H   0  0  0  0  0  0  0  0  0  0  0  0
   -9.1448   -0.5209    0.0000 H   0  0  0  0  0  0  0  0  0  0  0  0
   -3.9314   -1.2629    0.0000 H   0  0  0  0  0  0  0  0  0  0  0  0
   -3.7193    1.5416    0.0000 H   0  0  0  0  0  0  0  0  0  0  0  0
   -5.5725    1.5416    0.0000 H   0  0  0  0  0  0  0  0  0  0  0  0
   -4.6459    2.0766    0.0000 H   0  0  0  0  0  0  0  0  0  0  0  0
   -3.2169    1.2136    0.0000 H   0  0  0  0  0  0  0  0  0  0  0  0
   -2.5025   -1.2629    0.0000 H   0  0  0  0  0  0  0  0  0  0  0  0
   -1.0733   -1.2629    0.0000 H   0  0  0  0  0  0  0  0  0  0  0  0
   -0.8614    1.5416    0.0000 H   0  0  0  0  0  0  0  0  0  0  0  0
   -2.7146    1.5416    0.0000 H   0  0  0  0  0  0  0  0  0  0  0  0
   -1.7880    2.0766    0.0000 H   0  0  0  0  0  0  0  0  0  0  0  0
   -0.3590    1.2516    0.0000 H   0  0  0  0  0  0  0  0  0  0  0  0
    0.5676    0.7166    0.0000 H   0  0  0  0  0  0  0  0  0  0  0  0
   -6.0748   -2.5384    0.0000 H   0  0  0  0  0  0  0  0  0  0  0  0
   -5.1482   -0.9334    0.0000 H   0  0  0  0  0  0  0  0  0  0  0  0
   -5.1481   -2.0034    0.0000 H   0  0  0  0  0  0  0  0  0  0  0  0
   -7.3813    1.8227    0.0000 H   0  0  0  0  0  0  0  0  0  0  0  0
   -8.9863    0.8961    0.0000 H   0  0  0  0  0  0  0  0  0  0  0  0
   -8.4513    1.8228    0.0000 H   0  0  0  0  0  0  0  0  0  0  0  0
   -6.0213    0.8961    0.0000 H   0  0  0  0  0  0  0  0  0  0  0  0
   -7.6263    1.8227    0.0000 H   0  0  0  0  0  0  0  0  0  0  0  0
   -6.5563    1.8228    0.0000 H   0  0  0  0  0  0  0  0  0  0  0  0
    0.3553   -1.2008    0.0000 H   0  0  0  0  0  0  0  0  0  0  0  0
  1 16  2  0  0  0  0
  1 19  1  0  0  0  0
  1  2  1  0  0  0  0
  2  5  2  0  0  0  0
  2 22  1  0  0  0  0
  3  6  1  0  0  0  0
  3 23  1  0  0  0  0
  3 24  1  0  0  0  0
  4  6  1  0  0  0  0
  4 25  1  0  0  0  0
  4 26  1  0  0  0  0
  5  7  1  0  0  0  0
  5 27  1  0  0  0  0
  6 28  1  0  0  0  0
  6 29  1  0  0  0  0
  7  8  2  0  0  0  0
  7  9  1  0  0  0  0
  8 10  1  0  0  0  0
  8 30  1  0  0  0  0
  9 31  1  0  0  0  0
  9 32  1  0  0  0  0
  9 33  1  0  0  0  0
 10 11  2  0  0  0  0
 10 34  1  0  0  0  0
 11 12  1  0  0  0  0
 11 35  1  0  0  0  0
 12 13  2  0  0  0  0
 12 14  1  0  0  0  0
 13 15  1  0  0  0  0
 13 36  1  0  0  0  0
 14 37  1  0  0  0  0
 14 38  1  0  0  0  0
 14 39  1  0  0  0  0
 15 21  1  0  0  0  0
 15 40  1  0  0  0  0
 15 41  1  0  0  0  0
 16  3  1  0  0  0  0
 16 17  1  0  0  0  0
 17 42  1  0  0  0  0
 17 43  1  0  0  0  0
 17 44  1  0  0  0  0
 18 45  1  0  0  0  0
 18 46  1  0  0  0  0
 18 47  1  0  0  0  0
 19  4  1  0  0  0  0
 19 18  1  0  0  0  0
 19 20  1  0  0  0  0
 20 48  1  0  0  0  0
 20 49  1  0  0  0  0
 20 50  1  0  0  0  0
 21 51  1  0  0  0  0
M  END
>  <DRUGBANK_ID>
DB00162

>  <SECONDARY_ACCESSION_NUMBERS>
NUTR00007; APRD00486

>  <COMMON_NAME>
Vitamin A

>  <CAS_NUMBER>
68-26-8

>  <UNII>
G2SH0XKK91

>  <SYNONYMS>
(2E,4E,6E,8E)-3,7-dimethyl-9-(2,6,6-trimethylcyclohex-1-en-1-yl)nona-2,4,6,8-tetraen-1-ol; all-trans-retinol; all-trans-retinyl alcohol; all-trans-vitamin A alcohol; Retinol; Retinolum; Vitamin A1

$$$$
