
 OpenBabel10282417072D

 58 60  0  0  0  0  0  0  0  0999 V2000
   -1.8111   -0.1837    0.0000 C   0  0  0  0  0  0  0  0  0  0  0  0
   -2.5183    0.2286    0.0000 C   0  0  0  0  0  0  0  0  0  0  0  0
   -1.0658    0.2286    0.0000 C   0  0  0  0  0  0  0  0  0  0  0  0
   -1.8111   -1.0572    0.0000 C   0  0  0  0  0  0  0  0  0  0  0  0
   -2.5183    1.0536    0.0000 C   0  0  0  0  0  0  0  0  0  0  0  0
   -3.2461   -0.1837    0.0000 C   0  0  0  0  0  0  0  0  0  0  0  0
   -0.3621   -0.1837    0.0000 C   0  0  0  0  0  0  0  0  0  0  0  0
   -1.0658    1.0536    0.0000 C   0  0  0  0  0  0  0  0  0  0  0  0
   -1.1074   -1.4177    0.0000 C   0  0  0  0  0  0  0  0  0  0  0  0
   -2.5286   -1.4177    0.0000 C   0  0  0  0  0  0  0  0  0  0  0  0
   -1.8077    1.4592    0.0000 C   0  0  0  0  0  0  0  0  0  0  0  0
   -3.2289    1.4557    0.0000 C   0  0  0  0  0  0  0  0  0  0  0  0
   -3.9567    0.2356    0.0000 C   0  0  0  0  0  0  0  0  0  0  0  0
    0.3587    0.2286    0.0000 C   0  0  0  0  0  0  0  0  0  0  0  0
   -0.3621    1.4765    0.0000 C   0  0  0  0  0  0  0  0  0  0  0  0
   -1.1074   -2.2739    0.0000 C   0  0  0  0  0  0  0  0  0  0  0  0
   -2.5286   -2.2739    0.0000 C   0  0  0  0  0  0  0  0  0  0  0  0
   -1.8077    2.2773    0.0000 C   0  0  0  0  0  0  0  0  0  0  0  0
   -3.2322    2.2739    0.0000 C   0  0  0  0  0  0  0  0  0  0  0  0
    0.3587    1.0536    0.0000 C   0  0  0  0  0  0  0  0  0  0  0  0
   -1.8354   -2.6933    0.0000 C   0  0  0  0  0  0  0  0  0  0  0  0
   -0.3899   -2.6898    0.0000 O   0  0  0  0  0  0  0  0  0  0  0  0
   -2.5183    2.6933    0.0000 C   0  0  0  0  0  0  0  0  0  0  0  0
    1.0866    1.4973    0.0000 O   0  0  0  0  0  0  0  0  0  0  0  0
    1.8215    1.0814    0.0000 C   0  0  0  0  0  0  0  0  0  0  0  0
    2.5425    1.4973    0.0000 C   0  0  0  0  0  0  0  0  0  0  0  0
    3.2565    1.1022    0.0000 N   0  0  0  0  0  0  0  0  0  0  0  0
    3.9567    1.4973    0.0000 C   0  0  0  0  0  0  0  0  0  0  0  0
    3.2565    0.2286    0.0000 C   0  0  0  0  0  0  0  0  0  0  0  0
   -3.2555   -1.2537    0.0000 H   0  0  0  0  0  0  0  0  0  0  0  0
   -4.1776   -0.7102    0.0000 H   0  0  0  0  0  0  0  0  0  0  0  0
   -0.3675   -1.2157    0.0000 H   0  0  0  0  0  0  0  0  0  0  0  0
   -1.9640    1.5617    0.0000 H   0  0  0  0  0  0  0  0  0  0  0  0
   -0.2269   -0.8794    0.0000 H   0  0  0  0  0  0  0  0  0  0  0  0
   -3.4070   -0.8760    0.0000 H   0  0  0  0  0  0  0  0  0  0  0  0
   -0.9152    0.9410    0.0000 H   0  0  0  0  0  0  0  0  0  0  0  0
   -4.1193    0.9340    0.0000 H   0  0  0  0  0  0  0  0  0  0  0  0
   -3.9466    1.3056    0.0000 H   0  0  0  0  0  0  0  0  0  0  0  0
   -4.8884   -0.2906    0.0000 H   0  0  0  0  0  0  0  0  0  0  0  0
   -4.8782    0.7794    0.0000 H   0  0  0  0  0  0  0  0  0  0  0  0
    1.2514   -0.2892    0.0000 H   0  0  0  0  0  0  0  0  0  0  0  0
   -0.3675    2.5085    0.0000 H   0  0  0  0  0  0  0  0  0  0  0  0
   -3.4276   -2.7807    0.0000 H   0  0  0  0  0  0  0  0  0  0  0  0
   -0.9124    2.7906    0.0000 H   0  0  0  0  0  0  0  0  0  0  0  0
   -4.1289    2.7847    0.0000 H   0  0  0  0  0  0  0  0  0  0  0  0
   -1.8465   -3.7252    0.0000 H   0  0  0  0  0  0  0  0  0  0  0  0
   -0.3915   -3.6268    0.0000 H   0  0  0  0  0  0  0  0  0  0  0  0
   -2.5191    3.7253    0.0000 H   0  0  0  0  0  0  0  0  0  0  0  0
    1.8259    0.0114    0.0000 H   0  0  0  0  0  0  0  0  0  0  0  0
    2.7491    0.5481    0.0000 H   0  0  0  0  0  0  0  0  0  0  0  0
    2.5330    2.5673    0.0000 H   0  0  0  0  0  0  0  0  0  0  0  0
    3.4618    2.0448    0.0000 H   0  0  0  0  0  0  0  0  0  0  0  0
    4.8780    0.9532    0.0000 H   0  0  0  0  0  0  0  0  0  0  0  0
    3.9673    2.5672    0.0000 H   0  0  0  0  0  0  0  0  0  0  0  0
    4.8886    2.0231    0.0000 H   0  0  0  0  0  0  0  0  0  0  0  0
    2.3299   -0.3064    0.0000 H   0  0  0  0  0  0  0  0  0  0  0  0
    4.1831   -0.3064    0.0000 H   0  0  0  0  0  0  0  0  0  0  0  0
    3.2565   -0.8414    0.0000 H   0  0  0  0  0  0  0  0  0  0  0  0
  1  2  2  0  0  0  0
  1  3  1  0  0  0  0
  1  4  1  0  0  0  0
  2  5  1  0  0  0  0
  2  6  1  0  0  0  0
  3  7  1  0  0  0  0
  3  8  2  0  0  0  0
  4  9  1  0  0  0  0
  4 10  2  0  0  0  0
  5 11  2  0  0  0  0
  5 12  1  0  0  0  0
  6 13  1  0  0  0  0
  6 30  1  0  0  0  0
  6 31  1  0  0  0  0
  7 14  2  0  0  0  0
  7 32  1  0  0  0  0
  8 15  1  0  0  0  0
  8 33  1  0  0  0  0
  9 16  2  0  0  0  0
  9 34  1  0  0  0  0
 10 17  1  0  0  0  0
 10 35  1  0  0  0  0
 11 18  1  0  0  0  0
 11 36  1  0  0  0  0
 12 19  2  0  0  0  0
 12 37  1  0  0  0  0
 13 38  1  0  0  0  0
 13 39  1  0  0  0  0
 13 40  1  0  0  0  0
 14 20  1  0  0  0  0
 14 41  1  0  0  0  0
 15 20  2  0  0  0  0
 15 42  1  0  0  0  0
 16 21  1  0  0  0  0
 16 22  1  0  0  0  0
 17 21  2  0  0  0  0
 17 43  1  0  0  0  0
 18 23  2  0  0  0  0
 18 44  1  0  0  0  0
 19 23  1  0  0  0  0
 19 45  1  0  0  0  0
 20 24  1  0  0  0  0
 21 46  1  0  0  0  0
 22 47  1  0  0  0  0
 23 48  1  0  0  0  0
 24 25  1  0  0  0  0
 25 26  1  0  0  0  0
 25 49  1  0  0  0  0
 25 50  1  0  0  0  0
 26 27  1  0  0  0  0
 26 51  1  0  0  0  0
 26 52  1  0  0  0  0
 27 28  1  0  0  0  0
 27 29  1  0  0  0  0
 28 53  1  0  0  0  0
 28 54  1  0  0  0  0
 28 55  1  0  0  0  0
 29 56  1  0  0  0  0
 29 57  1  0  0  0  0
 29 58  1  0  0  0  0
M  END
>  <DRUGBANK_ID>
DB15641

>  <COMMON_NAME>
Droloxifene

>  <CAS_NUMBER>
82413-20-5

>  <UNII>
0M67U6Z98F

>  <SYNONYMS>
Droloxifene; Droloxifeno; Droloxifenum

$$$$
