
 OpenBabel10282417072D

195202  0  0  0  0  0  0  0  0999 V2000
   11.5662   10.7940    0.0000 O   0  0  0  0  0  0  0  0  0  0  0  0
  -12.0137   -9.4764    0.0000 O   0  0  0  0  0  0  0  0  0  0  0  0
   10.9850    9.4887    0.0000 O   0  0  0  0  0  0  0  0  0  0  0  0
   13.6547   11.4284    0.0000 O   0  0  0  0  0  0  0  0  0  0  0  0
   13.8272    9.7874    0.0000 O   0  0  0  0  0  0  0  0  0  0  0  0
  -11.1738  -10.6324    0.0000 O   0  0  0  0  0  0  0  0  0  0  0  0
  -14.1884   -9.2902    0.0000 O   0  0  0  0  0  0  0  0  0  0  0  0
  -14.0160  -10.9311    0.0000 O   0  0  0  0  0  0  0  0  0  0  0  0
   12.4923    8.8176    0.0000 O   0  0  0  0  0  0  0  0  0  0  0  0
  -12.5087  -11.6022    0.0000 O   0  0  0  0  0  0  0  0  0  0  0  0
   12.8148   12.5844    0.0000 O   0  0  0  0  0  0  0  0  0  0  0  0
  -13.6072   -7.9849    0.0000 O   0  0  0  0  0  0  0  0  0  0  0  0
    7.3891    9.5255    0.0000 O   0  0  0  0  0  0  0  0  0  0  0  0
  -10.7649   -7.6862    0.0000 O   0  0  0  0  0  0  0  0  0  0  0  0
    7.6245    0.2535    0.0000 O   0  0  0  0  0  0  0  0  0  0  0  0
   -5.3726    0.6217    0.0000 O   0  0  0  0  0  0  0  0  0  0  0  0
    6.3711   -1.2943    0.0000 O   0  0  0  0  0  0  0  0  0  0  0  0
   -3.4054    0.3102    0.0000 O   0  0  0  0  0  0  0  0  0  0  0  0
    8.5515   12.1363    0.0000 O   0  5  0  0  0  0  0  0  0  0  0  0
    9.9726   12.2857    0.0000 O   0  0  0  0  0  0  0  0  0  0  0  0
   -7.6641   -9.8488    0.0000 O   0  5  0  0  0  0  0  0  0  0  0  0
   -8.2453  -11.1542    0.0000 O   0  0  0  0  0  0  0  0  0  0  0  0
    2.1756   -2.4743    0.0000 O   0  0  0  0  0  0  0  0  0  0  0  0
   -0.2857   -2.7330    0.0000 O   0  0  0  0  0  0  0  0  0  0  0  0
    2.0261   -1.0533    0.0000 O   0  0  0  0  0  0  0  0  0  0  0  0
   -1.4417   -3.5729    0.0000 O   0  0  0  0  0  0  0  0  0  0  0  0
    7.2390    4.1177    0.0000 N   0  0  0  0  0  0  0  0  0  0  0  0
   -6.8466   -3.9561    0.0000 N   0  0  0  0  0  0  0  0  0  0  0  0
    7.0667    5.7585    0.0000 N   0  0  0  0  0  0  0  0  0  0  0  0
   -8.1815   -4.9259    0.0000 N   0  0  0  0  0  0  0  0  0  0  0  0
    6.0766    1.5069    0.0000 N   0  0  0  0  0  0  0  0  0  0  0  0
   -5.6842   -1.3453    0.0000 N   0  0  0  0  0  0  0  0  0  0  0  0
    8.2290    8.3694    0.0000 N   0  0  0  0  0  0  0  0  0  0  0  0
   -9.3439   -7.5367    0.0000 N   0  0  0  0  0  0  0  0  0  0  0  0
    4.8231   -0.0409    0.0000 N   0  0  0  0  0  0  0  0  0  0  0  0
   -3.7170   -1.6569    0.0000 N   0  0  0  0  0  0  0  0  0  0  0  0
    9.3051   11.8008    0.0000 N   0  3  0  0  0  0  0  0  0  0  0  0
   -8.3315  -10.3337    0.0000 N   0  3  0  0  0  0  0  0  0  0  0  0
    3.3316   -1.6344    0.0000 N   0  0  0  0  0  0  0  0  0  0  0  0
   -1.5911   -2.1518    0.0000 N   0  0  0  0  0  0  0  0  0  0  0  0
    1.5045   -3.9817    0.0000 N   0  0  0  0  0  0  0  0  0  0  0  0
    6.4853    4.4533    0.0000 C   0  0  0  0  0  0  0  0  0  0  0  0
    7.9065    4.6026    0.0000 C   0  0  0  0  0  0  0  0  0  0  0  0
   -7.6002   -3.6206    0.0000 C   0  0  0  0  0  0  0  0  0  0  0  0
   -6.7603   -4.7766    0.0000 C   0  0  0  0  0  0  0  0  0  0  0  0
    6.3992    5.2736    0.0000 C   0  0  0  0  0  0  0  0  0  0  0  0
    7.8202    5.4231    0.0000 C   0  0  0  0  0  0  0  0  0  0  0  0
   -8.2677   -4.1055    0.0000 C   0  0  0  0  0  0  0  0  0  0  0  0
   -7.4277   -5.2616    0.0000 C   0  0  0  0  0  0  0  0  0  0  0  0
    7.3252    3.2973    0.0000 C   0  0  0  0  0  0  0  0  0  0  0  0
   -6.1792   -3.4711    0.0000 C   0  0  0  0  0  0  0  0  0  0  0  0
    6.9803    6.5791    0.0000 C   0  0  0  0  0  0  0  0  0  0  0  0
   -8.8489   -5.4108    0.0000 C   0  0  0  0  0  0  0  0  0  0  0  0
   12.9873   10.9434    0.0000 C   0  0  3  0  0  0  0  0  0  0  0  0
   13.0736   10.1229    0.0000 C   0  0  3  0  0  0  0  0  0  0  0  0
  -13.4347   -9.6259    0.0000 C   0  0  2  0  0  0  0  0  0  0  0  0
  -13.3485  -10.4462    0.0000 C   0  0  1  0  0  0  0  0  0  0  0  0
   12.2337   11.2789    0.0000 C   0  0  3  0  0  0  0  0  0  0  0  0
   12.4062    9.6379    0.0000 C   0  0  3  0  0  0  0  0  0  0  0  0
  -12.7672   -9.1410    0.0000 C   0  0  1  0  0  0  0  0  0  0  0  0
  -12.5949  -10.7818    0.0000 C   0  0  2  0  0  0  0  0  0  0  0  0
   11.6524    9.9736    0.0000 C   0  0  3  0  0  0  0  0  0  0  0  0
  -11.9274  -10.2969    0.0000 C   0  0  2  0  0  0  0  0  0  0  0  0
    6.6578    2.8124    0.0000 C   0  0  0  0  0  0  0  0  0  0  0  0
   -6.2654   -2.6507    0.0000 C   0  0  0  0  0  0  0  0  0  0  0  0
    7.6478    7.0641    0.0000 C   0  0  0  0  0  0  0  0  0  0  0  0
   -8.7626   -6.2314    0.0000 C   0  0  0  0  0  0  0  0  0  0  0  0
   12.1474   12.0994    0.0000 C   0  0  0  0  0  0  0  0  0  0  0  0
    6.7440    1.9919    0.0000 C   0  0  0  0  0  0  0  0  0  0  0  0
   -5.5979   -2.1658    0.0000 C   0  0  0  0  0  0  0  0  0  0  0  0
  -12.8536   -8.3204    0.0000 C   0  0  0  0  0  0  0  0  0  0  0  0
    7.5616    7.8845    0.0000 C   0  0  0  0  0  0  0  0  0  0  0  0
   -9.4300   -6.7163    0.0000 C   0  0  0  0  0  0  0  0  0  0  0  0
   10.2313    9.8242    0.0000 C   0  0  0  0  0  0  0  0  0  0  0  0
  -10.5063  -10.1475    0.0000 C   0  0  0  0  0  0  0  0  0  0  0  0
    6.1629    0.6864    0.0000 C   0  0  0  0  0  0  0  0  0  0  0  0
   -5.0167   -0.8604    0.0000 C   0  0  0  0  0  0  0  0  0  0  0  0
    9.5639    9.3392    0.0000 C   0  0  0  0  0  0  0  0  0  0  0  0
  -10.5925   -9.3270    0.0000 C   0  0  0  0  0  0  0  0  0  0  0  0
    8.8102    9.6748    0.0000 C   0  0  0  0  0  0  0  0  0  0  0  0
   -9.9251   -8.8421    0.0000 C   0  0  0  0  0  0  0  0  0  0  0  0
    5.6436    0.0453    0.0000 C   0  0  0  0  0  0  0  0  0  0  0  0
   -4.2019   -0.9895    0.0000 C   0  0  0  0  0  0  0  0  0  0  0  0
    8.1428    9.1899    0.0000 C   0  0  0  0  0  0  0  0  0  0  0  0
  -10.0113   -8.0216    0.0000 C   0  0  0  0  0  0  0  0  0  0  0  0
   10.1451   10.6447    0.0000 C   0  0  0  0  0  0  0  0  0  0  0  0
   -9.7526  -10.4831    0.0000 C   0  0  0  0  0  0  0  0  0  0  0  0
    6.8040    0.1672    0.0000 C   0  0  0  0  0  0  0  0  0  0  0  0
   -4.8877   -0.0456    0.0000 C   0  0  0  0  0  0  0  0  0  0  0  0
    6.2849   -0.4738    0.0000 C   0  0  0  0  0  0  0  0  0  0  0  0
   -4.0729   -0.1746    0.0000 C   0  0  0  0  0  0  0  0  0  0  0  0
    9.3914   10.9803    0.0000 C   0  0  0  0  0  0  0  0  0  0  0  0
    8.7240   10.4953    0.0000 C   0  0  0  0  0  0  0  0  0  0  0  0
   -9.0852   -9.9982    0.0000 C   0  0  0  0  0  0  0  0  0  0  0  0
   -9.1715   -9.1776    0.0000 C   0  0  0  0  0  0  0  0  0  0  0  0
    4.4876   -0.7945    0.0000 C   0  0  0  0  0  0  0  0  0  0  0  0
   -2.8964   -1.5706    0.0000 C   0  0  0  0  0  0  0  0  0  0  0  0
    3.6671   -0.8807    0.0000 C   0  0  0  0  0  0  0  0  0  0  0  0
   -2.4115   -2.2380    0.0000 C   0  0  0  0  0  0  0  0  0  0  0  0
    2.5111   -1.7207    0.0000 C   0  0  0  0  0  0  0  0  0  0  0  0
   -1.1062   -2.8192    0.0000 C   0  0  0  0  0  0  0  0  0  0  0  0
    1.0196   -3.3142    0.0000 C   0  0  3  0  0  0  0  0  0  0  0  0
    1.3551   -2.5605    0.0000 C   0  0  0  0  0  0  0  0  0  0  0  0
    0.1991   -3.4004    0.0000 C   0  0  0  0  0  0  0  0  0  0  0  0
   14.5409   11.0340    0.0000 H   0  0  0  0  0  0  0  0  0  0  0  0
   13.9286    8.8227    0.0000 H   0  0  0  0  0  0  0  0  0  0  0  0
  -14.2897   -8.3255    0.0000 H   0  0  0  0  0  0  0  0  0  0  0  0
  -14.9021  -10.5365    0.0000 H   0  0  0  0  0  0  0  0  0  0  0  0
   11.7075    8.2476    0.0000 H   0  0  0  0  0  0  0  0  0  0  0  0
  -13.2935  -12.1723    0.0000 H   0  0  0  0  0  0  0  0  0  0  0  0
   13.7010   12.1900    0.0000 H   0  0  0  0  0  0  0  0  0  0  0  0
  -13.7086   -7.0202    0.0000 H   0  0  0  0  0  0  0  0  0  0  0  0
    7.2912   10.4574    0.0000 H   0  0  0  0  0  0  0  0  0  0  0  0
  -10.8630   -6.7543    0.0000 H   0  0  0  0  0  0  0  0  0  0  0  0
    2.4071   -0.1973    0.0000 H   0  0  0  0  0  0  0  0  0  0  0  0
   -2.3736   -3.6709    0.0000 H   0  0  0  0  0  0  0  0  0  0  0  0
    5.1772    1.9073    0.0000 H   0  0  0  0  0  0  0  0  0  0  0  0
   -6.5836   -0.9449    0.0000 H   0  0  0  0  0  0  0  0  0  0  0  0
    4.2444    0.7556    0.0000 H   0  0  0  0  0  0  0  0  0  0  0  0
   -4.1174   -2.5563    0.0000 H   0  0  0  0  0  0  0  0  0  0  0  0
    1.0896   -4.9135    0.0000 H   0  0  0  0  0  0  0  0  0  0  0  0
    2.5189   -3.8751    0.0000 H   0  0  0  0  0  0  0  0  0  0  0  0
    5.6196    3.8244    0.0000 H   0  0  0  0  0  0  0  0  0  0  0  0
    5.5079    4.8886    0.0000 H   0  0  0  0  0  0  0  0  0  0  0  0
    8.8840    4.1674    0.0000 H   0  0  0  0  0  0  0  0  0  0  0  0
    8.7721    5.2316    0.0000 H   0  0  0  0  0  0  0  0  0  0  0  0
   -7.7120   -2.5565    0.0000 H   0  0  0  0  0  0  0  0  0  0  0  0
   -8.5777   -3.1854    0.0000 H   0  0  0  0  0  0  0  0  0  0  0  0
   -5.7828   -5.2117    0.0000 H   0  0  0  0  0  0  0  0  0  0  0  0
   -6.6484   -5.8407    0.0000 H   0  0  0  0  0  0  0  0  0  0  0  0
    5.4218    5.7089    0.0000 H   0  0  0  0  0  0  0  0  0  0  0  0
    5.5335    4.6448    0.0000 H   0  0  0  0  0  0  0  0  0  0  0  0
    8.6858    6.0521    0.0000 H   0  0  0  0  0  0  0  0  0  0  0  0
    8.7977    4.9880    0.0000 H   0  0  0  0  0  0  0  0  0  0  0  0
   -9.2452   -3.6702    0.0000 H   0  0  0  0  0  0  0  0  0  0  0  0
   -8.3795   -3.0414    0.0000 H   0  0  0  0  0  0  0  0  0  0  0  0
   -7.3159   -6.3257    0.0000 H   0  0  0  0  0  0  0  0  0  0  0  0
   -6.4502   -5.6968    0.0000 H   0  0  0  0  0  0  0  0  0  0  0  0
    8.3027    2.8621    0.0000 H   0  0  0  0  0  0  0  0  0  0  0  0
    7.4370    2.2332    0.0000 H   0  0  0  0  0  0  0  0  0  0  0  0
   -5.2017   -3.9063    0.0000 H   0  0  0  0  0  0  0  0  0  0  0  0
   -5.3136   -2.8422    0.0000 H   0  0  0  0  0  0  0  0  0  0  0  0
    6.0028    7.0142    0.0000 H   0  0  0  0  0  0  0  0  0  0  0  0
    6.8684    7.6432    0.0000 H   0  0  0  0  0  0  0  0  0  0  0  0
   -9.8264   -4.9756    0.0000 H   0  0  0  0  0  0  0  0  0  0  0  0
   -9.7145   -6.0398    0.0000 H   0  0  0  0  0  0  0  0  0  0  0  0
   13.9648   10.5083    0.0000 H   0  0  0  0  0  0  0  0  0  0  0  0
   13.9392   10.7519    0.0000 H   0  0  0  0  0  0  0  0  0  0  0  0
  -14.3004  -10.2548    0.0000 H   0  0  0  0  0  0  0  0  0  0  0  0
  -14.3260  -10.0109    0.0000 H   0  0  0  0  0  0  0  0  0  0  0  0
   12.3455   10.2148    0.0000 H   0  0  0  0  0  0  0  0  0  0  0  0
   13.3837    9.2027    0.0000 H   0  0  0  0  0  0  0  0  0  0  0  0
  -11.9016   -8.5120    0.0000 H   0  0  0  0  0  0  0  0  0  0  0  0
  -13.4606  -11.4107    0.0000 H   0  0  0  0  0  0  0  0  0  0  0  0
   10.6749   10.4088    0.0000 H   0  0  0  0  0  0  0  0  0  0  0  0
  -11.0618   -9.6679    0.0000 H   0  0  0  0  0  0  0  0  0  0  0  0
    5.6803    3.2476    0.0000 H   0  0  0  0  0  0  0  0  0  0  0  0
    5.7921    2.1835    0.0000 H   0  0  0  0  0  0  0  0  0  0  0  0
   -7.2429   -2.2154    0.0000 H   0  0  0  0  0  0  0  0  0  0  0  0
   -6.3772   -1.5866    0.0000 H   0  0  0  0  0  0  0  0  0  0  0  0
    8.6253    6.6289    0.0000 H   0  0  0  0  0  0  0  0  0  0  0  0
    8.5135    7.6930    0.0000 H   0  0  0  0  0  0  0  0  0  0  0  0
   -7.7851   -6.6666    0.0000 H   0  0  0  0  0  0  0  0  0  0  0  0
   -8.6507   -7.2955    0.0000 H   0  0  0  0  0  0  0  0  0  0  0  0
   11.1699   12.5345    0.0000 H   0  0  0  0  0  0  0  0  0  0  0  0
   11.2818   11.4704    0.0000 H   0  0  0  0  0  0  0  0  0  0  0  0
    7.7215    1.5567    0.0000 H   0  0  0  0  0  0  0  0  0  0  0  0
    7.6097    2.6208    0.0000 H   0  0  0  0  0  0  0  0  0  0  0  0
   -4.6204   -2.6010    0.0000 H   0  0  0  0  0  0  0  0  0  0  0  0
   -5.4861   -3.2299    0.0000 H   0  0  0  0  0  0  0  0  0  0  0  0
  -11.9880   -7.6914    0.0000 H   0  0  0  0  0  0  0  0  0  0  0  0
  -11.8760   -8.7555    0.0000 H   0  0  0  0  0  0  0  0  0  0  0  0
    6.5841    8.3197    0.0000 H   0  0  0  0  0  0  0  0  0  0  0  0
    6.6959    7.2556    0.0000 H   0  0  0  0  0  0  0  0  0  0  0  0
  -10.4075   -6.2810    0.0000 H   0  0  0  0  0  0  0  0  0  0  0  0
   -9.5418   -5.6522    0.0000 H   0  0  0  0  0  0  0  0  0  0  0  0
    9.6718    8.3129    0.0000 H   0  0  0  0  0  0  0  0  0  0  0  0
  -11.5353   -8.9072    0.0000 H   0  0  0  0  0  0  0  0  0  0  0  0
   10.9800   11.2513    0.0000 H   0  0  0  0  0  0  0  0  0  0  0  0
   -9.6447  -11.5094    0.0000 H   0  0  0  0  0  0  0  0  0  0  0  0
    7.7812   10.9150    0.0000 H   0  0  0  0  0  0  0  0  0  0  0  0
   -8.3366   -8.5710    0.0000 H   0  0  0  0  0  0  0  0  0  0  0  0
    5.1165   -1.6602    0.0000 H   0  0  0  0  0  0  0  0  0  0  0  0
    4.0524   -1.7720    0.0000 H   0  0  0  0  0  0  0  0  0  0  0  0
   -2.4612   -0.5931    0.0000 H   0  0  0  0  0  0  0  0  0  0  0  0
   -1.8323   -1.4587    0.0000 H   0  0  0  0  0  0  0  0  0  0  0  0
    3.0382   -0.0151    0.0000 H   0  0  0  0  0  0  0  0  0  0  0  0
    4.1023    0.0968    0.0000 H   0  0  0  0  0  0  0  0  0  0  0  0
   -2.8467   -3.2155    0.0000 H   0  0  0  0  0  0  0  0  0  0  0  0
   -3.4756   -2.3498    0.0000 H   0  0  0  0  0  0  0  0  0  0  0  0
    2.0837   -3.2023    0.0000 H   0  0  0  0  0  0  0  0  0  0  0  0
    0.7262   -1.6949    0.0000 H   0  0  0  0  0  0  0  0  0  0  0  0
    0.2910   -2.6724    0.0000 H   0  0  0  0  0  0  0  0  0  0  0  0
   -0.2362   -4.3779    0.0000 H   0  0  0  0  0  0  0  0  0  0  0  0
    0.8280   -4.2661    0.0000 H   0  0  0  0  0  0  0  0  0  0  0  0
  1 58  1  0  0  0  0
  1 62  1  0  0  0  0
  2 60  1  0  0  0  0
  2 63  1  0  0  0  0
  3 62  1  0  0  0  0
  3 74  1  0  0  0  0
  4 54  1  0  0  0  0
  4105  1  0  0  0  0
  5 55  1  0  0  0  0
  5106  1  0  0  0  0
  6 75  1  0  0  0  0
  7107  1  0  0  0  0
  8108  1  0  0  0  0
  9 59  1  0  0  0  0
  9109  1  0  0  0  0
 10110  1  0  0  0  0
 11 68  1  0  0  0  0
 11111  1  0  0  0  0
 12 71  1  0  0  0  0
 12112  1  0  0  0  0
 13 84  1  0  0  0  0
 13113  1  0  0  0  0
 14 85  1  0  0  0  0
 14114  1  0  0  0  0
 15 88  2  0  0  0  0
 16 89  2  0  0  0  0
 17 90  2  0  0  0  0
 18 91  2  0  0  0  0
 19 37  1  0  0  0  0
 20 37  2  0  0  0  0
 21 38  1  0  0  0  0
 22 38  2  0  0  0  0
 23100  1  0  0  0  0
 23103  1  0  0  0  0
 24101  1  0  0  0  0
 24104  1  0  0  0  0
 25100  1  0  0  0  0
 25115  1  0  0  0  0
 26101  1  0  0  0  0
 26116  1  0  0  0  0
 27 42  1  0  0  0  0
 27 43  1  0  0  0  0
 27 50  1  0  0  0  0
 28 44  1  0  0  0  0
 28 45  1  0  0  0  0
 28 51  1  0  0  0  0
 29 46  1  0  0  0  0
 29 47  1  0  0  0  0
 29 52  1  0  0  0  0
 30 48  1  0  0  0  0
 30 49  1  0  0  0  0
 30 53  1  0  0  0  0
 31 69  1  0  0  0  0
 31 76  1  0  0  0  0
 31117  1  0  0  0  0
 32 70  1  0  0  0  0
 32 77  1  0  0  0  0
 32118  1  0  0  0  0
 33 72  1  0  0  0  0
 33 84  2  0  0  0  0
 34 73  1  0  0  0  0
 34 85  2  0  0  0  0
 35 82  1  0  0  0  0
 35 96  1  0  0  0  0
 35119  1  0  0  0  0
 36 83  1  0  0  0  0
 36 97  1  0  0  0  0
 36120  1  0  0  0  0
 37 92  1  0  0  0  0
 38 94  1  0  0  0  0
 39 98  1  0  0  0  0
 39100  2  0  0  0  0
 40 99  1  0  0  0  0
 40101  2  0  0  0  0
 41102  1  0  0  0  0
 41121  1  0  0  0  0
 41122  1  0  0  0  0
 42 46  1  0  0  0  0
 42123  1  0  0  0  0
 42124  1  0  0  0  0
 43 47  1  0  0  0  0
 43125  1  0  0  0  0
 43126  1  0  0  0  0
 44 48  1  0  0  0  0
 44127  1  0  0  0  0
 44128  1  0  0  0  0
 45 49  1  0  0  0  0
 45129  1  0  0  0  0
 45130  1  0  0  0  0
 46131  1  0  0  0  0
 46132  1  0  0  0  0
 47133  1  0  0  0  0
 47134  1  0  0  0  0
 48135  1  0  0  0  0
 48136  1  0  0  0  0
 49137  1  0  0  0  0
 49138  1  0  0  0  0
 50 64  1  0  0  0  0
 50139  1  0  0  0  0
 50140  1  0  0  0  0
 51 65  1  0  0  0  0
 51141  1  0  0  0  0
 51142  1  0  0  0  0
 52 66  1  0  0  0  0
 52143  1  0  0  0  0
 52144  1  0  0  0  0
 53 67  1  0  0  0  0
 53145  1  0  0  0  0
 53146  1  0  0  0  0
 54 55  1  0  0  0  0
 54 58  1  0  0  0  0
 54147  1  0  0  0  0
 55 59  1  0  0  0  0
 55148  1  0  0  0  0
 56  7  1  0  0  0  0
 56 57  1  0  0  0  0
 56 60  1  0  0  0  0
 56149  1  6  0  0  0
 57  8  1  0  0  0  0
 57 61  1  0  0  0  0
 57150  1  6  0  0  0
 58 68  1  0  0  0  0
 58151  1  0  0  0  0
 59 62  1  0  0  0  0
 59152  1  0  0  0  0
 60 71  1  0  0  0  0
 60153  1  6  0  0  0
 61 10  1  0  0  0  0
 61 63  1  0  0  0  0
 61154  1  1  0  0  0
 62155  1  0  0  0  0
 63  6  1  0  0  0  0
 63156  1  1  0  0  0
 64 69  1  0  0  0  0
 64157  1  0  0  0  0
 64158  1  0  0  0  0
 65 70  1  0  0  0  0
 65159  1  0  0  0  0
 65160  1  0  0  0  0
 66 72  1  0  0  0  0
 66161  1  0  0  0  0
 66162  1  0  0  0  0
 67 73  1  0  0  0  0
 67163  1  0  0  0  0
 67164  1  0  0  0  0
 68165  1  0  0  0  0
 68166  1  0  0  0  0
 69167  1  0  0  0  0
 69168  1  0  0  0  0
 70169  1  0  0  0  0
 70170  1  0  0  0  0
 71171  1  0  0  0  0
 71172  1  0  0  0  0
 72173  1  0  0  0  0
 72174  1  0  0  0  0
 73175  1  0  0  0  0
 73176  1  0  0  0  0
 74 78  2  0  0  0  0
 74 86  1  0  0  0  0
 75 79  2  0  0  0  0
 75 87  1  0  0  0  0
 76 82  2  0  0  0  0
 76 88  1  0  0  0  0
 77 83  2  0  0  0  0
 77 89  1  0  0  0  0
 78 80  1  0  0  0  0
 78177  1  0  0  0  0
 79 81  1  0  0  0  0
 79178  1  0  0  0  0
 80 84  1  0  0  0  0
 80 93  2  0  0  0  0
 81 85  1  0  0  0  0
 81 95  2  0  0  0  0
 82 90  1  0  0  0  0
 83 91  1  0  0  0  0
 86 92  2  0  0  0  0
 86179  1  0  0  0  0
 87 94  2  0  0  0  0
 87180  1  0  0  0  0
 88 90  1  0  0  0  0
 89 91  1  0  0  0  0
 92 93  1  0  0  0  0
 93181  1  0  0  0  0
 94 95  1  0  0  0  0
 95182  1  0  0  0  0
 96 98  1  0  0  0  0
 96183  1  0  0  0  0
 96184  1  0  0  0  0
 97 99  1  0  0  0  0
 97185  1  0  0  0  0
 97186  1  0  0  0  0
 98187  1  0  0  0  0
 98188  1  0  0  0  0
 99189  1  0  0  0  0
 99190  1  0  0  0  0
102103  1  0  0  0  0
102104  1  0  0  0  0
102191  1  0  0  0  0
103192  1  0  0  0  0
103193  1  0  0  0  0
104194  1  0  0  0  0
104195  1  0  0  0  0
M  CHG  4  19  -1  21  -1  37   1  38   1
M  END
>  <DRUGBANK_ID>
DB02903

>  <SECONDARY_ACCESSION_NUMBERS>
EXPT00781

>  <COMMON_NAME>
1,3-bis-([[3-(4-{3-[3-nitro-5-(galactopyranosyloxy)-benzoylamino]-propyl}-piperazin-1-yl)-propylamino-3,4-dioxo-cyclobutenyl]-amino-ethyl]-amino-carbonyloxy)-2-amino-propane

$$$$
