
 OpenBabel10282417072D

 33 34  0  0  0  0  0  0  0  0999 V2000
    2.7956   -0.1062    0.0000 C   0  0  0  0  0  0  0  0  0  0  0  0
    2.7094    0.7142    0.0000 N   0  0  0  0  0  0  0  0  0  0  0  0
    1.9024    0.8857    0.0000 C   0  0  2  0  0  0  0  0  0  0  0  0
    1.4899    0.1712    0.0000 C   0  0  2  0  0  0  0  0  0  0  0  0
    2.0419   -0.4417    0.0000 N   0  0  0  0  0  0  0  0  0  0  0  0
    1.3504    1.4988    0.0000 C   0  0  0  0  0  0  0  0  0  0  0  0
    0.6830    0.3428    0.0000 C   0  0  1  0  0  0  0  0  0  0  0  0
    0.5967    1.1633    0.0000 S   0  0  0  0  0  0  0  0  0  0  0  0
   -2.7253   -0.8033    0.0000 C   0  0  0  0  0  0  0  0  0  0  0  0
   -2.1123   -0.2513    0.0000 C   0  0  0  0  0  0  0  0  0  0  0  0
   -1.3277   -0.5063    0.0000 C   0  0  0  0  0  0  0  0  0  0  0  0
   -0.7146    0.0457    0.0000 C   0  0  0  0  0  0  0  0  0  0  0  0
    0.0699   -0.2091    0.0000 C   0  0  0  0  0  0  0  0  0  0  0  0
   -2.5118   -1.6002    0.0000 O   0  0  0  0  0  0  0  0  0  0  0  0
   -3.5100   -0.5484    0.0000 O   0  0  0  0  0  0  0  0  0  0  0  0
    3.5100   -0.5187    0.0000 N   0  0  0  0  0  0  0  0  0  0  0  0
    1.0774   -0.5431    0.0000 H   0  0  0  0  0  0  0  0  0  0  0  0
    2.3149    1.6002    0.0000 H   0  0  0  0  0  0  0  0  0  0  0  0
    3.4410    1.3730    0.0000 H   0  0  0  0  0  0  0  0  0  0  0  0
    1.5729    2.5454    0.0000 H   0  0  0  0  0  0  0  0  0  0  0  0
    2.3840    1.7757    0.0000 H   0  0  0  0  0  0  0  0  0  0  0  0
   -0.3159    0.7263    0.0000 H   0  0  0  0  0  0  0  0  0  0  0  0
   -2.3347    0.7953    0.0000 H   0  0  0  0  0  0  0  0  0  0  0  0
   -1.3171    0.4646    0.0000 H   0  0  0  0  0  0  0  0  0  0  0  0
   -1.1053   -1.5529    0.0000 H   0  0  0  0  0  0  0  0  0  0  0  0
   -0.3101   -0.8370    0.0000 H   0  0  0  0  0  0  0  0  0  0  0  0
   -0.9371    1.0923    0.0000 H   0  0  0  0  0  0  0  0  0  0  0  0
    0.0805    0.7617    0.0000 H   0  0  0  0  0  0  0  0  0  0  0  0
    0.2924   -1.2557    0.0000 H   0  0  0  0  0  0  0  0  0  0  0  0
    1.0875   -0.5398    0.0000 H   0  0  0  0  0  0  0  0  0  0  0  0
   -3.7049    0.3681    0.0000 H   0  0  0  0  0  0  0  0  0  0  0  0
    3.5100   -1.5032    0.0000 H   0  0  0  0  0  0  0  0  0  0  0  0
    4.3626   -0.0265    0.0000 H   0  0  0  0  0  0  0  0  0  0  0  0
  1  2  1  0  0  0  0
  1  5  2  0  0  0  0
  1 16  1  0  0  0  0
  2  3  1  0  0  0  0
  2 19  1  0  0  0  0
  3  4  1  0  0  0  0
  3  6  1  0  0  0  0
  3 18  1  1  0  0  0
  4  5  1  0  0  0  0
  4  7  1  0  0  0  0
  4 17  1  1  0  0  0
  6  8  1  0  0  0  0
  6 20  1  0  0  0  0
  6 21  1  0  0  0  0
  7  8  1  0  0  0  0
  7 13  1  0  0  0  0
  7 22  1  1  0  0  0
  9 10  1  0  0  0  0
  9 14  2  0  0  0  0
  9 15  1  0  0  0  0
 10 11  1  0  0  0  0
 10 23  1  0  0  0  0
 10 24  1  0  0  0  0
 11 12  1  0  0  0  0
 11 25  1  0  0  0  0
 11 26  1  0  0  0  0
 12 13  1  0  0  0  0
 12 27  1  0  0  0  0
 12 28  1  0  0  0  0
 13 29  1  0  0  0  0
 13 30  1  0  0  0  0
 15 31  1  0  0  0  0
 16 32  1  0  0  0  0
 16 33  1  0  0  0  0
M  END
>  <DRUGBANK_ID>
DB03353

>  <SECONDARY_ACCESSION_NUMBERS>
EXPT01870

>  <COMMON_NAME>
2-Iminobiotin

>  <CAS_NUMBER>
13395-35-2

>  <UNII>
HXH71NRQ5C

>  <SYNONYMS>
Guanidinobiotin; Hexahydro-2-imino-1h-thieno(3,4-d)imidazole-4-pentanoic acid

$$$$
