AZL
 OpenBabel10282417072D

 63 64  0  0  0  0  0  0  0  0999 V2000
   -5.7045   -0.9257    0.0000 N   0  0  0  0  0  0  0  0  0  0  0  0
   -4.9900   -0.5132    0.0000 C   0  0  0  0  0  0  0  0  0  0  0  0
   -4.2755   -0.9257    0.0000 C   0  0  0  0  0  0  0  0  0  0  0  0
   -3.5611   -0.5132    0.0000 C   0  0  0  0  0  0  0  0  0  0  0  0
   -2.8466   -0.9257    0.0000 C   0  0  0  0  0  0  0  0  0  0  0  0
   -2.1321   -0.5132    0.0000 N   0  0  0  0  0  0  0  0  0  0  0  0
   -1.4177   -0.9257    0.0000 N   0  0  0  0  0  0  0  0  0  0  0  0
   -0.7032   -0.5132    0.0000 C   0  0  0  0  0  0  0  0  0  0  0  0
   -0.7032    0.3118    0.0000 O   0  0  0  0  0  0  0  0  0  0  0  0
    0.0113   -0.9257    0.0000 C   0  0  1  0  0  0  0  0  0  0  0  0
    0.7650   -0.5901    0.0000 N   0  0  0  0  0  0  0  0  0  0  0  0
    0.0975   -1.7461    0.0000 C   0  0  0  0  0  0  0  0  0  0  0  0
    0.9045   -1.9177    0.0000 C   0  0  0  0  0  0  0  0  0  0  0  0
    1.3170   -1.2032    0.0000 C   0  0  0  0  0  0  0  0  0  0  0  0
    0.9365    0.2169    0.0000 C   0  0  0  0  0  0  0  0  0  0  0  0
    0.3234    0.7689    0.0000 O   0  0  0  0  0  0  0  0  0  0  0  0
    1.7211    0.4718    0.0000 C   0  0  2  0  0  0  0  0  0  0  0  0
    2.3342   -0.0802    0.0000 N   0  0  0  0  0  0  0  0  0  0  0  0
    1.8926    1.2788    0.0000 C   0  0  0  0  0  0  0  0  0  0  0  0
    1.2795    1.8308    0.0000 C   0  0  0  0  0  0  0  0  0  0  0  0
    0.4949    1.5759    0.0000 C   0  0  0  0  0  0  0  0  0  0  0  0
   -0.1182    2.1279    0.0000 C   0  0  0  0  0  0  0  0  0  0  0  0
    0.0534    2.9349    0.0000 C   0  0  0  0  0  0  0  0  0  0  0  0
    0.8380    3.1898    0.0000 C   0  0  0  0  0  0  0  0  0  0  0  0
    1.4511    2.6378    0.0000 C   0  0  0  0  0  0  0  0  0  0  0  0
    3.1188    0.1747    0.0000 C   0  0  0  0  0  0  0  0  0  0  0  0
    3.2904    0.9817    0.0000 O   0  0  0  0  0  0  0  0  0  0  0  0
    3.7319   -0.3773    0.0000 O   0  0  0  0  0  0  0  0  0  0  0  0
    4.5165   -0.1224    0.0000 C   0  0  0  0  0  0  0  0  0  0  0  0
    4.6881    0.6846    0.0000 C   0  0  0  0  0  0  0  0  0  0  0  0
    0.0418   -0.3425    0.0000 H   0  0  0  0  0  0  0  0  0  0  0  0
    1.5997   -0.0994    0.0000 H   0  0  0  0  0  0  0  0  0  0  0  0
   -6.5878   -0.4157    0.0000 H   0  0  0  0  0  0  0  0  0  0  0  0
   -5.7045   -1.9457    0.0000 H   0  0  0  0  0  0  0  0  0  0  0  0
   -4.9900    0.5568    0.0000 H   0  0  0  0  0  0  0  0  0  0  0  0
   -4.0634    0.0218    0.0000 H   0  0  0  0  0  0  0  0  0  0  0  0
   -4.2755   -1.9957    0.0000 H   0  0  0  0  0  0  0  0  0  0  0  0
   -3.3488   -1.4607    0.0000 H   0  0  0  0  0  0  0  0  0  0  0  0
   -3.5611    0.5568    0.0000 H   0  0  0  0  0  0  0  0  0  0  0  0
   -2.6345    0.0218    0.0000 H   0  0  0  0  0  0  0  0  0  0  0  0
   -2.8466   -1.9957    0.0000 H   0  0  0  0  0  0  0  0  0  0  0  0
   -1.9200   -1.4607    0.0000 H   0  0  0  0  0  0  0  0  0  0  0  0
   -2.1321    0.5068    0.0000 H   0  0  0  0  0  0  0  0  0  0  0  0
   -1.4177   -1.9102    0.0000 H   0  0  0  0  0  0  0  0  0  0  0  0
   -0.6977   -2.4620    0.0000 H   0  0  0  0  0  0  0  0  0  0  0  0
    0.3744   -2.7797    0.0000 H   0  0  0  0  0  0  0  0  0  0  0  0
    1.3397   -2.8952    0.0000 H   0  0  0  0  0  0  0  0  0  0  0  0
    1.9730   -1.9737    0.0000 H   0  0  0  0  0  0  0  0  0  0  0  0
    2.3811   -1.0914    0.0000 H   0  0  0  0  0  0  0  0  0  0  0  0
    1.8998   -2.1006    0.0000 H   0  0  0  0  0  0  0  0  0  0  0  0
    2.1295   -1.0432    0.0000 H   0  0  0  0  0  0  0  0  0  0  0  0
    2.9102    1.6095    0.0000 H   0  0  0  0  0  0  0  0  0  0  0  0
    2.1150    2.3254    0.0000 H   0  0  0  0  0  0  0  0  0  0  0  0
    0.2803    0.5665    0.0000 H   0  0  0  0  0  0  0  0  0  0  0  0
   -1.0997    1.8090    0.0000 H   0  0  0  0  0  0  0  0  0  0  0  0
   -0.7135    3.6255    0.0000 H   0  0  0  0  0  0  0  0  0  0  0  0
    1.0526    4.1992    0.0000 H   0  0  0  0  0  0  0  0  0  0  0  0
    2.4326    2.9567    0.0000 H   0  0  0  0  0  0  0  0  0  0  0  0
    5.3116   -0.8384    0.0000 H   0  0  0  0  0  0  0  0  0  0  0  0
    5.5342    0.2082    0.0000 H   0  0  0  0  0  0  0  0  0  0  0  0
    5.7058    1.0152    0.0000 H   0  0  0  0  0  0  0  0  0  0  0  0
    3.8930    1.4006    0.0000 H   0  0  0  0  0  0  0  0  0  0  0  0
    4.9106    1.7312    0.0000 H   0  0  0  0  0  0  0  0  0  0  0  0
  1  2  1  0  0  0  0
  1 33  1  0  0  0  0
  1 34  1  0  0  0  0
  2  3  1  0  0  0  0
  2 35  1  0  0  0  0
  2 36  1  0  0  0  0
  3  4  1  0  0  0  0
  3 37  1  0  0  0  0
  3 38  1  0  0  0  0
  4  5  1  0  0  0  0
  4 39  1  0  0  0  0
  4 40  1  0  0  0  0
  5  6  1  0  0  0  0
  5 41  1  0  0  0  0
  5 42  1  0  0  0  0
  6  7  1  0  0  0  0
  6 43  1  0  0  0  0
  7  8  1  0  0  0  0
  7 44  1  0  0  0  0
  8  9  2  0  0  0  0
 10  8  1  0  0  0  0
 10 11  1  0  0  0  0
 10 12  1  0  0  0  0
 10 31  1  6  0  0  0
 11 14  1  0  0  0  0
 11 15  1  0  0  0  0
 12 13  1  0  0  0  0
 12 45  1  0  0  0  0
 12 46  1  0  0  0  0
 13 14  1  0  0  0  0
 13 47  1  0  0  0  0
 13 48  1  0  0  0  0
 14 49  1  0  0  0  0
 14 50  1  0  0  0  0
 15 16  2  0  0  0  0
 15 17  1  0  0  0  0
 17 18  1  0  0  0  0
 17 19  1  0  0  0  0
 17 32  1  6  0  0  0
 18 26  1  0  0  0  0
 18 51  1  0  0  0  0
 19 20  1  0  0  0  0
 19 52  1  0  0  0  0
 19 53  1  0  0  0  0
 20 21  2  0  0  0  0
 20 25  1  0  0  0  0
 21 22  1  0  0  0  0
 21 54  1  0  0  0  0
 22 23  2  0  0  0  0
 22 55  1  0  0  0  0
 23 24  1  0  0  0  0
 23 56  1  0  0  0  0
 24 25  2  0  0  0  0
 24 57  1  0  0  0  0
 25 58  1  0  0  0  0
 26 27  2  0  0  0  0
 26 28  1  0  0  0  0
 28 29  1  0  0  0  0
 29 30  1  0  0  0  0
 29 59  1  0  0  0  0
 29 60  1  0  0  0  0
 30 61  1  0  0  0  0
 30 62  1  0  0  0  0
 30 63  1  0  0  0  0
M  END
>  <DRUGBANK_ID>
DB07400

>  <COMMON_NAME>
1-ETHOXYCARBONYL-D-PHE-PRO-2(4-AMINOBUTYL)HYDRAZINE

$$$$
