CK2
 OpenBabel10282417072D

 24 25  0  0  0  0  0  0  0  0999 V2000
   -0.4608    2.3813    0.0000 C   0  0  0  0  0  0  0  0  0  0  0  0
   -0.4608    1.5563    0.0000 C   0  0  0  0  0  0  0  0  0  0  0  0
    0.2067    1.0714    0.0000 S   0  0  0  0  0  0  0  0  0  0  0  0
   -1.1282    1.0714    0.0000 N   0  0  0  0  0  0  0  0  0  0  0  0
   -0.8733    0.2868    0.0000 C   0  0  0  0  0  0  0  0  0  0  0  0
   -1.3582   -0.3806    0.0000 C   0  0  0  0  0  0  0  0  0  0  0  0
   -0.0483    0.2868    0.0000 C   0  0  0  0  0  0  0  0  0  0  0  0
    0.4367   -0.3806    0.0000 C   0  0  0  0  0  0  0  0  0  0  0  0
    1.2571   -0.2944    0.0000 N   0  0  0  0  0  0  0  0  0  0  0  0
    0.1011   -1.1343    0.0000 C   0  0  0  0  0  0  0  0  0  0  0  0
    0.5860   -1.8018    0.0000 C   0  0  0  0  0  0  0  0  0  0  0  0
    1.4065   -1.7155    0.0000 N   0  0  0  0  0  0  0  0  0  0  0  0
    1.7421   -0.9618    0.0000 C   0  0  0  0  0  0  0  0  0  0  0  0
    2.5625   -0.8756    0.0000 N   0  0  0  0  0  0  0  0  0  0  0  0
    0.4658    2.9163    0.0000 H   0  0  0  0  0  0  0  0  0  0  0  0
   -1.3874    2.9163    0.0000 H   0  0  0  0  0  0  0  0  0  0  0  0
   -0.4608    3.4513    0.0000 H   0  0  0  0  0  0  0  0  0  0  0  0
   -2.4223   -0.2687    0.0000 H   0  0  0  0  0  0  0  0  0  0  0  0
   -0.9230   -1.3581    0.0000 H   0  0  0  0  0  0  0  0  0  0  0  0
   -1.9871   -1.2462    0.0000 H   0  0  0  0  0  0  0  0  0  0  0  0
   -0.9253   -1.2421    0.0000 H   0  0  0  0  0  0  0  0  0  0  0  0
    0.1663   -2.7446    0.0000 H   0  0  0  0  0  0  0  0  0  0  0  0
    3.1411   -1.6721    0.0000 H   0  0  0  0  0  0  0  0  0  0  0  0
    2.9630    0.0238    0.0000 H   0  0  0  0  0  0  0  0  0  0  0  0
  1  2  1  0  0  0  0
  1 15  1  0  0  0  0
  1 16  1  0  0  0  0
  1 17  1  0  0  0  0
  2  3  1  0  0  0  0
  2  4  2  0  0  0  0
  3  7  1  0  0  0  0
  4  5  1  0  0  0  0
  5  6  1  0  0  0  0
  5  7  2  0  0  0  0
  6 18  1  0  0  0  0
  6 19  1  0  0  0  0
  6 20  1  0  0  0  0
  7  8  1  0  0  0  0
  8  9  2  0  0  0  0
  8 10  1  0  0  0  0
  9 13  1  0  0  0  0
 10 11  2  0  0  0  0
 10 21  1  0  0  0  0
 11 12  1  0  0  0  0
 11 22  1  0  0  0  0
 12 13  2  0  0  0  0
 13 14  1  0  0  0  0
 14 23  1  0  0  0  0
 14 24  1  0  0  0  0
M  END
>  <DRUGBANK_ID>
DB02091

>  <SECONDARY_ACCESSION_NUMBERS>
EXPT00925

>  <COMMON_NAME>
4-(2,4-Dimethyl-Thiazol-5-Yl)-Pyrimidin-2-Ylamine

>  <UNII>
NTZ47MG2A4

$$$$
