AE4
 OpenBabel10282417072D

 44 43  0  0  0  0  0  0  0  0999 V2000
   -6.0308   -0.2063    0.0000 C   0  0  0  0  0  0  0  0  0  0  0  0
   -5.3163    0.2062    0.0000 C   0  0  0  0  0  0  0  0  0  0  0  0
   -4.6017   -0.2063    0.0000 O   0  0  0  0  0  0  0  0  0  0  0  0
   -3.8872    0.2062    0.0000 C   0  0  0  0  0  0  0  0  0  0  0  0
   -3.1727   -0.2063    0.0000 C   0  0  0  0  0  0  0  0  0  0  0  0
   -2.4582    0.2062    0.0000 O   0  0  0  0  0  0  0  0  0  0  0  0
   -1.7436   -0.2063    0.0000 C   0  0  0  0  0  0  0  0  0  0  0  0
   -1.0292    0.2062    0.0000 C   0  0  0  0  0  0  0  0  0  0  0  0
    0.3999    0.2062    0.0000 C   0  0  0  0  0  0  0  0  0  0  0  0
   -0.3146   -0.2063    0.0000 O   0  0  0  0  0  0  0  0  0  0  0  0
    1.1145   -0.2063    0.0000 C   0  0  0  0  0  0  0  0  0  0  0  0
    1.8289    0.2062    0.0000 O   0  0  0  0  0  0  0  0  0  0  0  0
    2.5435   -0.2063    0.0000 C   0  0  0  0  0  0  0  0  0  0  0  0
    3.2580    0.2062    0.0000 C   0  0  0  0  0  0  0  0  0  0  0  0
    3.9725   -0.2063    0.0000 O   0  0  0  0  0  0  0  0  0  0  0  0
    4.6870    0.2062    0.0000 C   0  0  0  0  0  0  0  0  0  0  0  0
    5.4016   -0.2063    0.0000 C   0  0  0  0  0  0  0  0  0  0  0  0
    6.1162    0.2062    0.0000 O   0  0  0  0  0  0  0  0  0  0  0  0
   -6.9574    0.3287    0.0000 H   0  0  0  0  0  0  0  0  0  0  0  0
   -6.0308   -1.2763    0.0000 H   0  0  0  0  0  0  0  0  0  0  0  0
   -6.9575   -0.7413    0.0000 H   0  0  0  0  0  0  0  0  0  0  0  0
   -5.3163    1.2762    0.0000 H   0  0  0  0  0  0  0  0  0  0  0  0
   -4.3897    0.7413    0.0000 H   0  0  0  0  0  0  0  0  0  0  0  0
   -3.8872    1.2762    0.0000 H   0  0  0  0  0  0  0  0  0  0  0  0
   -2.9606    0.7412    0.0000 H   0  0  0  0  0  0  0  0  0  0  0  0
   -3.1727   -1.2763    0.0000 H   0  0  0  0  0  0  0  0  0  0  0  0
   -2.2461   -0.7413    0.0000 H   0  0  0  0  0  0  0  0  0  0  0  0
   -1.7435   -1.2763    0.0000 H   0  0  0  0  0  0  0  0  0  0  0  0
   -0.8169   -0.7413    0.0000 H   0  0  0  0  0  0  0  0  0  0  0  0
   -1.0293    1.2762    0.0000 H   0  0  0  0  0  0  0  0  0  0  0  0
   -0.1026    0.7413    0.0000 H   0  0  0  0  0  0  0  0  0  0  0  0
    0.3999    1.2762    0.0000 H   0  0  0  0  0  0  0  0  0  0  0  0
    1.3265    0.7413    0.0000 H   0  0  0  0  0  0  0  0  0  0  0  0
    1.1146   -1.2763    0.0000 H   0  0  0  0  0  0  0  0  0  0  0  0
    2.0412   -0.7413    0.0000 H   0  0  0  0  0  0  0  0  0  0  0  0
    2.5435   -1.2763    0.0000 H   0  0  0  0  0  0  0  0  0  0  0  0
    3.4702   -0.7413    0.0000 H   0  0  0  0  0  0  0  0  0  0  0  0
    3.2580    1.2762    0.0000 H   0  0  0  0  0  0  0  0  0  0  0  0
    4.1846    0.7412    0.0000 H   0  0  0  0  0  0  0  0  0  0  0  0
    4.6870    1.2762    0.0000 H   0  0  0  0  0  0  0  0  0  0  0  0
    5.6136    0.7413    0.0000 H   0  0  0  0  0  0  0  0  0  0  0  0
    5.4016   -1.2763    0.0000 H   0  0  0  0  0  0  0  0  0  0  0  0
    6.3282   -0.7413    0.0000 H   0  0  0  0  0  0  0  0  0  0  0  0
    6.9562   -0.2789    0.0000 H   0  0  0  0  0  0  0  0  0  0  0  0
  1  2  1  0  0  0  0
  1 19  1  0  0  0  0
  1 20  1  0  0  0  0
  1 21  1  0  0  0  0
  2  3  1  0  0  0  0
  2 22  1  0  0  0  0
  2 23  1  0  0  0  0
  3  4  1  0  0  0  0
  4  5  1  0  0  0  0
  4 24  1  0  0  0  0
  4 25  1  0  0  0  0
  5  6  1  0  0  0  0
  5 26  1  0  0  0  0
  5 27  1  0  0  0  0
  6  7  1  0  0  0  0
  7  8  1  0  0  0  0
  7 28  1  0  0  0  0
  7 29  1  0  0  0  0
  8 10  1  0  0  0  0
  8 30  1  0  0  0  0
  8 31  1  0  0  0  0
  9 10  1  0  0  0  0
  9 11  1  0  0  0  0
  9 32  1  0  0  0  0
  9 33  1  0  0  0  0
 11 12  1  0  0  0  0
 11 34  1  0  0  0  0
 11 35  1  0  0  0  0
 12 13  1  0  0  0  0
 13 14  1  0  0  0  0
 13 36  1  0  0  0  0
 13 37  1  0  0  0  0
 14 15  1  0  0  0  0
 14 38  1  0  0  0  0
 14 39  1  0  0  0  0
 15 16  1  0  0  0  0
 16 17  1  0  0  0  0
 16 40  1  0  0  0  0
 16 41  1  0  0  0  0
 17 18  1  0  0  0  0
 17 42  1  0  0  0  0
 17 43  1  0  0  0  0
 18 44  1  0  0  0  0
M  END
>  <DRUGBANK_ID>
DB07344

>  <COMMON_NAME>
3,6,9,12,15-PENTAOXAHEPTADECAN-1-OL

>  <UNII>
AV4Y6WN88C

$$$$
