
 OpenBabel10282417072D

 80 85  0  0  0  0  0  0  0  0999 V2000
   -1.4288    1.3883    0.0000 C   0  0  0  0  0  0  0  0  0  0  0  0
   -2.8578    0.5633    0.0000 C   0  0  0  0  0  0  0  0  0  0  0  0
   -2.1433    0.1508    0.0000 C   0  0  0  0  0  0  0  0  0  0  0  0
   -1.4288    0.5633    0.0000 C   0  0  0  0  0  0  0  0  0  0  0  0
   -0.7144    0.1508    0.0000 C   0  0  0  0  0  0  0  0  0  0  0  0
    0.0000    0.5633    0.0000 C   0  0  0  0  0  0  0  0  0  0  0  0
    0.0000    1.3883    0.0000 C   0  0  0  0  0  0  0  0  0  0  0  0
   -0.7144    1.8008    0.0000 N   0  0  0  0  0  0  0  0  0  0  0  0
   -0.7144   -0.6741    0.0000 O   0  0  0  0  0  0  0  0  0  0  0  0
   -3.5723    0.1508    0.0000 O   0  0  0  0  0  0  0  0  0  0  0  0
   -3.5723   -0.6741    0.0000 C   0  0  0  0  0  0  0  0  0  0  0  0
   -7.1446    1.3884    0.0000 C   0  0  0  0  0  0  0  0  0  0  0  0
   -6.4302    1.8009    0.0000 N   0  0  0  0  0  0  0  0  0  0  0  0
   -5.7157    1.3884    0.0000 C   0  0  0  0  0  0  0  0  0  0  0  0
   -5.0012    1.8009    0.0000 C   0  0  0  0  0  0  0  0  0  0  0  0
   -4.2868    1.3883    0.0000 C   0  0  0  0  0  0  0  0  0  0  0  0
   -3.5723    1.8008    0.0000 O   0  0  0  0  0  0  0  0  0  0  0  0
   -2.8578    1.3883    0.0000 C   0  0  0  0  0  0  0  0  0  0  0  0
   -2.1433    1.8008    0.0000 C   0  0  0  0  0  0  0  0  0  0  0  0
   -7.1446    3.0385    0.0000 C   0  0  0  0  0  0  0  0  0  0  0  0
   -7.8590    2.6260    0.0000 O   0  0  0  0  0  0  0  0  0  0  0  0
   -7.8591    1.8010    0.0000 C   0  0  0  0  0  0  0  0  0  0  0  0
   -6.4301    2.6260    0.0000 C   0  0  0  0  0  0  0  0  0  0  0  0
    0.0000   -1.0866    0.0000 C   0  0  0  0  0  0  0  0  0  0  0  0
    0.7144   -0.6741    0.0000 C   0  0  0  0  0  0  0  0  0  0  0  0
    0.0000   -1.9116    0.0000 C   0  0  0  0  0  0  0  0  0  0  0  0
    0.7144   -2.3241    0.0000 C   0  0  0  0  0  0  0  0  0  0  0  0
    1.4289   -1.9116    0.0000 C   0  0  0  0  0  0  0  0  0  0  0  0
    1.4289   -1.0866    0.0000 C   0  0  0  0  0  0  0  0  0  0  0  0
   -0.7144   -2.3241    0.0000 F   0  0  0  0  0  0  0  0  0  0  0  0
    2.1434   -2.3241    0.0000 N   0  0  0  0  0  0  0  0  0  0  0  0
    2.8578   -1.9116    0.0000 C   0  0  0  0  0  0  0  0  0  0  0  0
    2.8578   -1.0866    0.0000 O   0  0  0  0  0  0  0  0  0  0  0  0
    3.5723   -2.3241    0.0000 C   0  0  0  0  0  0  0  0  0  0  0  0
    4.2868   -1.9116    0.0000 C   0  0  0  0  0  0  0  0  0  0  0  0
    4.2868   -1.0866    0.0000 O   0  0  0  0  0  0  0  0  0  0  0  0
    5.0012   -2.3241    0.0000 N   0  0  0  0  0  0  0  0  0  0  0  0
    5.7157   -1.9116    0.0000 C   0  0  0  0  0  0  0  0  0  0  0  0
    5.7157   -1.0866    0.0000 C   0  0  0  0  0  0  0  0  0  0  0  0
    6.4302   -0.6741    0.0000 C   0  0  0  0  0  0  0  0  0  0  0  0
    6.4302   -2.3241    0.0000 C   0  0  0  0  0  0  0  0  0  0  0  0
    7.1446   -1.9116    0.0000 C   0  0  0  0  0  0  0  0  0  0  0  0
    7.1446   -1.0866    0.0000 C   0  0  0  0  0  0  0  0  0  0  0  0
    7.8591   -0.6741    0.0000 F   0  0  0  0  0  0  0  0  0  0  0  0
    3.1598   -3.0385    0.0000 C   0  0  0  0  0  0  0  0  0  0  0  0
    3.9848   -3.0385    0.0000 C   0  0  0  0  0  0  0  0  0  0  0  0
   -2.1433   -0.8812    0.0000 H   0  0  0  0  0  0  0  0  0  0  0  0
    0.8937    0.0473    0.0000 H   0  0  0  0  0  0  0  0  0  0  0  0
    0.8937    1.9043    0.0000 H   0  0  0  0  0  0  0  0  0  0  0  0
   -4.4989   -1.2091    0.0000 H   0  0  0  0  0  0  0  0  0  0  0  0
   -2.6457   -1.2091    0.0000 H   0  0  0  0  0  0  0  0  0  0  0  0
   -3.5723   -1.7441    0.0000 H   0  0  0  0  0  0  0  0  0  0  0  0
   -7.1446    0.3184    0.0000 H   0  0  0  0  0  0  0  0  0  0  0  0
   -8.0713    0.8535    0.0000 H   0  0  0  0  0  0  0  0  0  0  0  0
   -5.7157    0.3184    0.0000 H   0  0  0  0  0  0  0  0  0  0  0  0
   -4.7891    0.8534    0.0000 H   0  0  0  0  0  0  0  0  0  0  0  0
   -5.0011    2.8709    0.0000 H   0  0  0  0  0  0  0  0  0  0  0  0
   -4.0745    2.3358    0.0000 H   0  0  0  0  0  0  0  0  0  0  0  0
   -4.2869    0.3183    0.0000 H   0  0  0  0  0  0  0  0  0  0  0  0
   -3.3602    0.8533    0.0000 H   0  0  0  0  0  0  0  0  0  0  0  0
   -2.1433    2.8328    0.0000 H   0  0  0  0  0  0  0  0  0  0  0  0
   -7.1446    4.1085    0.0000 H   0  0  0  0  0  0  0  0  0  0  0  0
   -6.2180    3.5735    0.0000 H   0  0  0  0  0  0  0  0  0  0  0  0
   -8.7858    1.2661    0.0000 H   0  0  0  0  0  0  0  0  0  0  0  0
   -8.7857    2.3361    0.0000 H   0  0  0  0  0  0  0  0  0  0  0  0
   -5.5034    3.1610    0.0000 H   0  0  0  0  0  0  0  0  0  0  0  0
   -6.4301    3.6960    0.0000 H   0  0  0  0  0  0  0  0  0  0  0  0
    0.7144    0.3579    0.0000 H   0  0  0  0  0  0  0  0  0  0  0  0
    0.7144   -3.3561    0.0000 H   0  0  0  0  0  0  0  0  0  0  0  0
    2.3226   -0.5706    0.0000 H   0  0  0  0  0  0  0  0  0  0  0  0
    2.1434   -3.3086    0.0000 H   0  0  0  0  0  0  0  0  0  0  0  0
    5.0012   -3.3086    0.0000 H   0  0  0  0  0  0  0  0  0  0  0  0
    4.8220   -0.5706    0.0000 H   0  0  0  0  0  0  0  0  0  0  0  0
    6.4302    0.3579    0.0000 H   0  0  0  0  0  0  0  0  0  0  0  0
    6.4302   -3.3561    0.0000 H   0  0  0  0  0  0  0  0  0  0  0  0
    8.0383   -2.4276    0.0000 H   0  0  0  0  0  0  0  0  0  0  0  0
    2.2331   -3.5735    0.0000 H   0  0  0  0  0  0  0  0  0  0  0  0
    3.4367   -4.0720    0.0000 H   0  0  0  0  0  0  0  0  0  0  0  0
    4.9115   -3.5735    0.0000 H   0  0  0  0  0  0  0  0  0  0  0  0
    3.7079   -4.0720    0.0000 H   0  0  0  0  0  0  0  0  0  0  0  0
  1 19  2  0  0  0  0
  1  4  1  0  0  0  0
  1  8  1  0  0  0  0
  2  3  1  0  0  0  0
  2 10  1  0  0  0  0
  3  4  2  0  0  0  0
  3 47  1  0  0  0  0
  4  5  1  0  0  0  0
  5  6  2  0  0  0  0
  6  7  1  0  0  0  0
  6 48  1  0  0  0  0
  7  8  2  0  0  0  0
  7 49  1  0  0  0  0
  9  5  1  0  0  0  0
  9 24  1  0  0  0  0
 10 11  1  0  0  0  0
 11 50  1  0  0  0  0
 11 51  1  0  0  0  0
 11 52  1  0  0  0  0
 12 13  1  0  0  0  0
 12 53  1  0  0  0  0
 12 54  1  0  0  0  0
 13 14  1  0  0  0  0
 13 23  1  0  0  0  0
 14 15  1  0  0  0  0
 14 55  1  0  0  0  0
 14 56  1  0  0  0  0
 15 16  1  0  0  0  0
 15 57  1  0  0  0  0
 15 58  1  0  0  0  0
 16 17  1  0  0  0  0
 16 59  1  0  0  0  0
 16 60  1  0  0  0  0
 17 18  1  0  0  0  0
 18  2  2  0  0  0  0
 19 18  1  0  0  0  0
 19 61  1  0  0  0  0
 20 21  1  0  0  0  0
 20 23  1  0  0  0  0
 20 62  1  0  0  0  0
 20 63  1  0  0  0  0
 21 22  1  0  0  0  0
 22 12  1  0  0  0  0
 22 64  1  0  0  0  0
 22 65  1  0  0  0  0
 23 66  1  0  0  0  0
 23 67  1  0  0  0  0
 24 26  1  0  0  0  0
 25 24  2  0  0  0  0
 25 29  1  0  0  0  0
 25 68  1  0  0  0  0
 26 27  2  0  0  0  0
 26 30  1  0  0  0  0
 27 28  1  0  0  0  0
 27 69  1  0  0  0  0
 28 29  2  0  0  0  0
 28 31  1  0  0  0  0
 29 70  1  0  0  0  0
 31 32  1  0  0  0  0
 31 71  1  0  0  0  0
 32 34  1  0  0  0  0
 33 32  2  0  0  0  0
 34 35  1  0  0  0  0
 34 45  1  0  0  0  0
 35 37  1  0  0  0  0
 36 35  2  0  0  0  0
 37 38  1  0  0  0  0
 37 72  1  0  0  0  0
 38 41  2  0  0  0  0
 39 38  1  0  0  0  0
 39 73  1  0  0  0  0
 40 39  2  0  0  0  0
 40 43  1  0  0  0  0
 40 74  1  0  0  0  0
 41 42  1  0  0  0  0
 41 75  1  0  0  0  0
 42 43  2  0  0  0  0
 42 76  1  0  0  0  0
 43 44  1  0  0  0  0
 45 46  1  0  0  0  0
 45 77  1  0  0  0  0
 45 78  1  0  0  0  0
 46 34  1  0  0  0  0
 46 79  1  0  0  0  0
 46 80  1  0  0  0  0
M  END
>  <DRUGBANK_ID>
DB12307

>  <SECONDARY_ACCESSION_NUMBERS>
DB05030

>  <COMMON_NAME>
Foretinib

>  <CAS_NUMBER>
849217-64-7

>  <UNII>
81FH7VK1C4

>  <SYNONYMS>
Foretinib

$$$$
