
 OpenBabel10282417072D

 67 69  0  0  0  0  0  0  0  0999 V2000
    2.1434   -4.5375    0.0000 C   0  0  0  0  0  0  0  0  0  0  0  0
    2.8579   -4.9500    0.0000 C   0  0  0  0  0  0  0  0  0  0  0  0
    2.8579   -5.7750    0.0000 C   0  0  0  0  0  0  0  0  0  0  0  0
    3.5724   -6.1875    0.0000 C   0  0  0  0  0  0  0  0  0  0  0  0
    3.5724   -7.0125    0.0000 C   0  0  0  0  0  0  0  0  0  0  0  0
    2.8579   -7.4250    0.0000 C   0  0  0  0  0  0  0  0  0  0  0  0
    2.1434   -7.0125    0.0000 C   0  0  0  0  0  0  0  0  0  0  0  0
    2.1434   -6.1875    0.0000 C   0  0  0  0  0  0  0  0  0  0  0  0
    2.8579   -8.2500    0.0000 N   0  0  0  0  0  0  0  0  0  0  0  0
    3.5724   -8.6625    0.0000 C   0  0  0  0  0  0  0  0  0  0  0  0
    3.5724   -9.4875    0.0000 C   0  0  0  0  0  0  0  0  0  0  0  0
    2.8579   -9.9000    0.0000 C   0  0  0  0  0  0  0  0  0  0  0  0
    4.2868   -9.9000    0.0000 C   0  0  0  0  0  0  0  0  0  0  0  0
    2.1434   -8.6625    0.0000 S   0  0  0  0  0  0  0  0  0  0  0  0
    1.7309   -7.9480    0.0000 O   0  0  0  0  0  0  0  0  0  0  0  0
    2.5559   -9.3770    0.0000 O   0  0  0  0  0  0  0  0  0  0  0  0
    1.4289   -9.0750    0.0000 C   0  0  0  0  0  0  0  0  0  0  0  0
    1.4289   -9.9000    0.0000 C   0  0  0  0  0  0  0  0  0  0  0  0
    0.7145  -10.3125    0.0000 C   0  0  0  0  0  0  0  0  0  0  0  0
    0.7145  -11.1375    0.0000 C   0  0  0  0  0  0  0  0  0  0  0  0
   -0.0000  -11.5500    0.0000 O   0  0  0  0  0  0  0  0  0  0  0  0
   -0.0000   -9.9000    0.0000 C   0  0  0  0  0  0  0  0  0  0  0  0
   -0.7145  -10.3125    0.0000 O   0  0  0  0  0  0  0  0  0  0  0  0
   -0.7145  -11.1375    0.0000 C   0  0  0  0  0  0  0  0  0  0  0  0
   -1.4289  -11.5500    0.0000 C   0  0  0  0  0  0  0  0  0  0  0  0
   -1.4289  -12.3750    0.0000 C   0  0  0  0  0  0  0  0  0  0  0  0
   -2.1434  -12.7875    0.0000 C   0  0  0  0  0  0  0  0  0  0  0  0
   -2.8579  -12.3750    0.0000 O   0  0  0  0  0  0  0  0  0  0  0  0
   -2.8579  -11.5500    0.0000 C   0  0  0  0  0  0  0  0  0  0  0  0
   -2.1434  -11.1375    0.0000 C   0  0  0  0  0  0  0  0  0  0  0  0
    0.0000   -9.0750    0.0000 C   0  0  0  0  0  0  0  0  0  0  0  0
    0.7145   -8.6625    0.0000 C   0  0  0  0  0  0  0  0  0  0  0  0
    2.1434   -3.4675    0.0000 H   0  0  0  0  0  0  0  0  0  0  0  0
    1.2168   -5.0725    0.0000 H   0  0  0  0  0  0  0  0  0  0  0  0
    1.2167   -4.0025    0.0000 H   0  0  0  0  0  0  0  0  0  0  0  0
    3.7845   -4.4150    0.0000 H   0  0  0  0  0  0  0  0  0  0  0  0
    3.7845   -5.4850    0.0000 H   0  0  0  0  0  0  0  0  0  0  0  0
    4.4661   -5.6715    0.0000 H   0  0  0  0  0  0  0  0  0  0  0  0
    4.4661   -7.5285    0.0000 H   0  0  0  0  0  0  0  0  0  0  0  0
    1.2497   -7.5285    0.0000 H   0  0  0  0  0  0  0  0  0  0  0  0
    1.2497   -5.6715    0.0000 H   0  0  0  0  0  0  0  0  0  0  0  0
    4.4990   -8.1275    0.0000 H   0  0  0  0  0  0  0  0  0  0  0  0
    4.4990   -9.1975    0.0000 H   0  0  0  0  0  0  0  0  0  0  0  0
    3.5724  -10.5575    0.0000 H   0  0  0  0  0  0  0  0  0  0  0  0
    1.9313   -9.3650    0.0000 H   0  0  0  0  0  0  0  0  0  0  0  0
    2.8579  -10.9700    0.0000 H   0  0  0  0  0  0  0  0  0  0  0  0
    1.9312  -10.4350    0.0000 H   0  0  0  0  0  0  0  0  0  0  0  0
    4.2868  -10.9700    0.0000 H   0  0  0  0  0  0  0  0  0  0  0  0
    5.2135   -9.3650    0.0000 H   0  0  0  0  0  0  0  0  0  0  0  0
    5.2134  -10.4350    0.0000 H   0  0  0  0  0  0  0  0  0  0  0  0
    2.3226  -10.4160    0.0000 H   0  0  0  0  0  0  0  0  0  0  0  0
    1.6411  -11.6725    0.0000 H   0  0  0  0  0  0  0  0  0  0  0  0
    0.7145  -12.2075    0.0000 H   0  0  0  0  0  0  0  0  0  0  0  0
   -0.8400  -11.0650    0.0000 H   0  0  0  0  0  0  0  0  0  0  0  0
    0.2122  -11.6725    0.0000 H   0  0  0  0  0  0  0  0  0  0  0  0
   -0.7145  -12.2075    0.0000 H   0  0  0  0  0  0  0  0  0  0  0  0
   -2.3555  -12.0850    0.0000 H   0  0  0  0  0  0  0  0  0  0  0  0
   -0.5023  -12.9100    0.0000 H   0  0  0  0  0  0  0  0  0  0  0  0
   -1.4289  -13.4450    0.0000 H   0  0  0  0  0  0  0  0  0  0  0  0
   -2.1434  -13.8575    0.0000 H   0  0  0  0  0  0  0  0  0  0  0  0
   -3.0700  -13.3225    0.0000 H   0  0  0  0  0  0  0  0  0  0  0  0
   -3.7845  -11.0150    0.0000 H   0  0  0  0  0  0  0  0  0  0  0  0
   -2.8579  -10.4800    0.0000 H   0  0  0  0  0  0  0  0  0  0  0  0
   -2.1434  -10.0675    0.0000 H   0  0  0  0  0  0  0  0  0  0  0  0
   -1.2168  -10.6025    0.0000 H   0  0  0  0  0  0  0  0  0  0  0  0
   -0.8937   -8.5590    0.0000 H   0  0  0  0  0  0  0  0  0  0  0  0
    0.7145   -7.6305    0.0000 H   0  0  0  0  0  0  0  0  0  0  0  0
  1  2  1  0  0  0  0
  1 33  1  0  0  0  0
  1 34  1  0  0  0  0
  1 35  1  0  0  0  0
  2  3  1  0  0  0  0
  2 36  1  0  0  0  0
  2 37  1  0  0  0  0
  3  4  2  0  0  0  0
  3  8  1  0  0  0  0
  4  5  1  0  0  0  0
  4 38  1  0  0  0  0
  5  6  2  0  0  0  0
  5 39  1  0  0  0  0
  6  7  1  0  0  0  0
  6  9  1  0  0  0  0
  7  8  2  0  0  0  0
  7 40  1  0  0  0  0
  8 41  1  0  0  0  0
  9 10  1  0  0  0  0
  9 14  1  0  0  0  0
 10 11  1  0  0  0  0
 10 42  1  0  0  0  0
 10 43  1  0  0  0  0
 11 12  1  0  0  0  0
 11 13  1  0  0  0  0
 11 44  1  0  0  0  0
 12 45  1  0  0  0  0
 12 46  1  0  0  0  0
 12 47  1  0  0  0  0
 13 48  1  0  0  0  0
 13 49  1  0  0  0  0
 13 50  1  0  0  0  0
 14 15  2  0  0  0  0
 14 16  2  0  0  0  0
 14 17  1  0  0  0  0
 17 18  2  0  0  0  0
 17 32  1  0  0  0  0
 18 19  1  0  0  0  0
 18 51  1  0  0  0  0
 19 20  1  0  0  0  0
 19 22  2  0  0  0  0
 20 21  1  0  0  0  0
 20 52  1  0  0  0  0
 20 53  1  0  0  0  0
 21 54  1  0  0  0  0
 22 23  1  0  0  0  0
 22 31  1  0  0  0  0
 23 24  1  0  0  0  0
 24 25  1  0  0  0  0
 24 55  1  0  0  0  0
 24 56  1  0  0  0  0
 25 26  1  0  0  0  0
 25 30  1  0  0  0  0
 25 57  1  0  0  0  0
 26 27  1  0  0  0  0
 26 58  1  0  0  0  0
 26 59  1  0  0  0  0
 27 28  1  0  0  0  0
 27 60  1  0  0  0  0
 27 61  1  0  0  0  0
 28 29  1  0  0  0  0
 29 30  1  0  0  0  0
 29 62  1  0  0  0  0
 29 63  1  0  0  0  0
 30 64  1  0  0  0  0
 30 65  1  0  0  0  0
 31 32  2  0  0  0  0
 31 66  1  0  0  0  0
 32 67  1  0  0  0  0
M  END
>  <DRUGBANK_ID>
DB16319

>  <COMMON_NAME>
GSK-2981278

>  <CAS_NUMBER>
1474110-21-8

>  <UNII>
L49V5G013I

>  <SYNONYMS>
Ror gama modulator 1

$$$$
