
 OpenBabel10282417072D

 59 61  0  0  0  0  0  0  0  0999 V2000
    1.1108   -1.7663    0.0000 C   0  0  0  0  0  0  0  0  0  0  0  0
   -3.8904    0.2961    0.0000 C   0  0  0  0  0  0  0  0  0  0  0  0
   -3.8904   -0.5288    0.0000 C   0  0  0  0  0  0  0  0  0  0  0  0
   -3.1759    0.7086    0.0000 C   0  0  0  0  0  0  0  0  0  0  0  0
    0.0538    2.0072    0.0000 C   0  0  0  0  0  0  0  0  0  0  0  0
   -0.2011    1.2226    0.0000 C   0  0  0  0  0  0  0  0  0  0  0  0
   -3.1759   -0.9413    0.0000 C   0  0  0  0  0  0  0  0  0  0  0  0
   -2.4615    0.2961    0.0000 C   0  0  0  0  0  0  0  0  0  0  0  0
    0.8607    2.1788    0.0000 C   0  0  0  0  0  0  0  0  0  0  0  0
    0.3508    0.6095    0.0000 C   0  0  0  0  0  0  0  0  0  0  0  0
   -1.7470   -0.9413    0.0000 C   0  0  0  0  0  0  0  0  0  0  0  0
   -1.0325   -0.5288    0.0000 C   0  0  0  0  0  0  0  0  0  0  0  0
    2.2378    1.5657    0.0000 C   0  0  0  0  0  0  0  0  0  0  0  0
    1.1108   -0.9413    0.0000 C   0  0  1  0  0  0  0  0  0  0  0  0
   -2.4615   -0.5288    0.0000 C   0  0  0  0  0  0  0  0  0  0  0  0
    1.4128    1.5657    0.0000 C   0  0  2  0  0  0  0  0  0  0  0  0
   -0.3181   -0.9413    0.0000 C   0  0  1  0  0  0  0  0  0  0  0  0
    1.1578    0.7811    0.0000 C   0  0  1  0  0  0  0  0  0  0  0  0
    2.4927    0.7811    0.0000 C   0  0  1  0  0  0  0  0  0  0  0  0
    1.8253   -0.5288    0.0000 C   0  0  0  0  0  0  0  0  0  0  0  0
   -0.3181   -1.7663    0.0000 C   0  0  0  0  0  0  0  0  0  0  0  0
    3.2773    0.5261    0.0000 C   0  0  0  0  0  0  0  0  0  0  0  0
    0.3963   -0.5288    0.0000 N   0  0  0  0  0  0  0  0  0  0  0  0
    1.8253    0.2961    0.0000 N   0  0  0  0  0  0  0  0  0  0  0  0
    2.5397   -0.9413    0.0000 O   0  0  0  0  0  0  0  0  0  0  0  0
    0.3963   -2.1788    0.0000 O   0  0  0  0  0  0  0  0  0  0  0  0
   -1.0325   -2.1788    0.0000 O   0  0  0  0  0  0  0  0  0  0  0  0
    3.8904    1.0781    0.0000 O   0  0  0  0  0  0  0  0  0  0  0  0
    3.4488   -0.2808    0.0000 O   0  0  0  0  0  0  0  0  0  0  0  0
    1.8253   -1.3538    0.0000 H   0  0  0  0  0  0  0  0  0  0  0  0
    0.6058    1.3941    0.0000 H   0  0  0  0  0  0  0  0  0  0  0  0
   -1.0325   -1.3538    0.0000 H   0  0  0  0  0  0  0  0  0  0  0  0
    0.9863   -0.0258    0.0000 H   0  0  0  0  0  0  0  0  0  0  0  0
    2.6218   -0.0337    0.0000 H   0  0  0  0  0  0  0  0  0  0  0  0
    0.1842   -2.3013    0.0000 H   0  0  0  0  0  0  0  0  0  0  0  0
    2.0374   -2.3013    0.0000 H   0  0  0  0  0  0  0  0  0  0  0  0
    1.1108   -2.8363    0.0000 H   0  0  0  0  0  0  0  0  0  0  0  0
   -4.7841    0.8121    0.0000 H   0  0  0  0  0  0  0  0  0  0  0  0
   -4.7841   -1.0448    0.0000 H   0  0  0  0  0  0  0  0  0  0  0  0
   -3.1759    1.7406    0.0000 H   0  0  0  0  0  0  0  0  0  0  0  0
   -0.6622    2.8023    0.0000 H   0  0  0  0  0  0  0  0  0  0  0  0
    0.3844    3.0249    0.0000 H   0  0  0  0  0  0  0  0  0  0  0  0
   -1.2477    1.0002    0.0000 H   0  0  0  0  0  0  0  0  0  0  0  0
   -0.5318    0.2050    0.0000 H   0  0  0  0  0  0  0  0  0  0  0  0
   -3.1759   -1.9733    0.0000 H   0  0  0  0  0  0  0  0  0  0  0  0
   -1.5678    0.8121    0.0000 H   0  0  0  0  0  0  0  0  0  0  0  0
    1.1913    3.1965    0.0000 H   0  0  0  0  0  0  0  0  0  0  0  0
    1.9073    2.4013    0.0000 H   0  0  0  0  0  0  0  0  0  0  0  0
    0.0201   -0.4081    0.0000 H   0  0  0  0  0  0  0  0  0  0  0  0
    1.0668   -0.1856    0.0000 H   0  0  0  0  0  0  0  0  0  0  0  0
   -1.7470   -2.0113    0.0000 H   0  0  0  0  0  0  0  0  0  0  0  0
   -2.6736   -1.4763    0.0000 H   0  0  0  0  0  0  0  0  0  0  0  0
   -1.0325    0.5412    0.0000 H   0  0  0  0  0  0  0  0  0  0  0  0
   -0.1058    0.0062    0.0000 H   0  0  0  0  0  0  0  0  0  0  0  0
    2.8667    2.4313    0.0000 H   0  0  0  0  0  0  0  0  0  0  0  0
    3.2946    1.3983    0.0000 H   0  0  0  0  0  0  0  0  0  0  0  0
    0.3963    0.4912    0.0000 H   0  0  0  0  0  0  0  0  0  0  0  0
   -1.8440   -1.7103    0.0000 H   0  0  0  0  0  0  0  0  0  0  0  0
    2.7525   -0.9078    0.0000 H   0  0  0  0  0  0  0  0  0  0  0  0
  1 35  1  0  0  0  0
  1 36  1  0  0  0  0
  1 37  1  0  0  0  0
  2 38  1  0  0  0  0
  3  2  2  0  0  0  0
  3 39  1  0  0  0  0
  4  2  1  0  0  0  0
  4 40  1  0  0  0  0
  5 41  1  0  0  0  0
  5 42  1  0  0  0  0
  6  5  1  0  0  0  0
  6 43  1  0  0  0  0
  6 44  1  0  0  0  0
  7  3  1  0  0  0  0
  7 45  1  0  0  0  0
  8  4  2  0  0  0  0
  8 46  1  0  0  0  0
  9  5  1  0  0  0  0
  9 47  1  0  0  0  0
  9 48  1  0  0  0  0
 10  6  1  0  0  0  0
 10 49  1  0  0  0  0
 10 50  1  0  0  0  0
 11 51  1  0  0  0  0
 11 52  1  0  0  0  0
 12 11  1  0  0  0  0
 12 53  1  0  0  0  0
 12 54  1  0  0  0  0
 13 55  1  0  0  0  0
 13 56  1  0  0  0  0
 14  1  1  0  0  0  0
 14 20  1  0  0  0  0
 14 23  1  0  0  0  0
 14 30  1  1  0  0  0
 15  7  2  0  0  0  0
 15  8  1  0  0  0  0
 15 11  1  0  0  0  0
 16  9  1  0  0  0  0
 16 13  1  0  0  0  0
 16 18  1  0  0  0  0
 16 31  1  1  0  0  0
 17 12  1  0  0  0  0
 17 21  1  0  0  0  0
 17 23  1  0  0  0  0
 17 32  1  1  0  0  0
 18 10  1  0  0  0  0
 18 24  1  0  0  0  0
 18 33  1  6  0  0  0
 19 13  1  0  0  0  0
 19 22  1  0  0  0  0
 19 24  1  0  0  0  0
 19 34  1  6  0  0  0
 23 57  1  0  0  0  0
 24 20  1  0  0  0  0
 25 20  2  0  0  0  0
 26 21  2  0  0  0  0
 27 21  1  0  0  0  0
 27 58  1  0  0  0  0
 28 22  2  0  0  0  0
 29 22  1  0  0  0  0
 29 59  1  0  0  0  0
M  END
>  <DRUGBANK_ID>
DB14209

>  <COMMON_NAME>
Trandolaprilat

>  <CAS_NUMBER>
87679-71-8

>  <UNII>
RR6866VL0O

>  <SYNONYMS>
Trandolapril diacid; Trandolaprilat; Trandolaprilate; Trandolaprilatum

$$$$
