
 OpenBabel10282417072D

 39 41  0  0  0  0  0  0  0  0999 V2000
    1.8641    1.1178    0.0000 O   0  0  0  0  0  0  0  0  0  0  0  0
    2.8592    2.1947    0.0000 O   0  0  0  0  0  0  0  0  0  0  0  0
    0.4534   -0.5384    0.0000 N   0  0  0  0  0  0  0  0  0  0  0  0
    3.1489    0.7462    0.0000 N   0  0  0  0  0  0  0  0  0  0  0  0
    1.8641    0.2928    0.0000 C   0  0  0  0  0  0  0  0  0  0  0  0
    2.6954    0.0850    0.0000 C   0  0  0  0  0  0  0  0  0  0  0  0
    1.8641   -0.5384    0.0000 C   0  0  0  0  0  0  0  0  0  0  0  0
    1.1588    0.7085    0.0000 C   0  0  0  0  0  0  0  0  0  0  0  0
    2.6513    1.4075    0.0000 C   0  0  0  0  0  0  0  0  0  0  0  0
    1.1588   -0.9541    0.0000 C   0  0  0  0  0  0  0  0  0  0  0  0
    0.4534    0.2928    0.0000 C   0  0  0  0  0  0  0  0  0  0  0  0
   -0.2456   -0.9541    0.0000 C   0  0  0  0  0  0  0  0  0  0  0  0
   -0.9509   -0.5384    0.0000 C   0  0  0  0  0  0  0  0  0  0  0  0
   -1.7004   -0.9541    0.0000 C   0  0  0  0  0  0  0  0  0  0  0  0
   -2.4057   -0.5384    0.0000 C   0  0  0  0  0  0  0  0  0  0  0  0
   -1.7004   -1.7791    0.0000 C   0  0  0  0  0  0  0  0  0  0  0  0
   -3.1489   -0.9541    0.0000 C   0  0  0  0  0  0  0  0  0  0  0  0
   -2.4057   -2.1947    0.0000 C   0  0  0  0  0  0  0  0  0  0  0  0
   -3.1489   -1.7791    0.0000 C   0  0  0  0  0  0  0  0  0  0  0  0
    4.1332    0.7678    0.0000 H   0  0  0  0  0  0  0  0  0  0  0  0
    3.0747   -0.9155    0.0000 H   0  0  0  0  0  0  0  0  0  0  0  0
    1.9845   -0.7147    0.0000 H   0  0  0  0  0  0  0  0  0  0  0  0
    2.7931   -1.0692    0.0000 H   0  0  0  0  0  0  0  0  0  0  0  0
    1.8713   -1.6084    0.0000 H   0  0  0  0  0  0  0  0  0  0  0  0
    1.1588    1.7785    0.0000 H   0  0  0  0  0  0  0  0  0  0  0  0
    0.2298    1.2394    0.0000 H   0  0  0  0  0  0  0  0  0  0  0  0
    1.1588   -2.0241    0.0000 H   0  0  0  0  0  0  0  0  0  0  0  0
    2.0878   -1.4849    0.0000 H   0  0  0  0  0  0  0  0  0  0  0  0
   -0.4756    0.8237    0.0000 H   0  0  0  0  0  0  0  0  0  0  0  0
    0.4462    1.3628    0.0000 H   0  0  0  0  0  0  0  0  0  0  0  0
   -0.2435   -2.0241    0.0000 H   0  0  0  0  0  0  0  0  0  0  0  0
   -1.1741   -1.4858    0.0000 H   0  0  0  0  0  0  0  0  0  0  0  0
   -0.9369    0.5315    0.0000 H   0  0  0  0  0  0  0  0  0  0  0  0
   -1.8693    0.0106    0.0000 H   0  0  0  0  0  0  0  0  0  0  0  0
   -2.3940    0.4935    0.0000 H   0  0  0  0  0  0  0  0  0  0  0  0
   -0.8044   -2.2911    0.0000 H   0  0  0  0  0  0  0  0  0  0  0  0
   -4.0391   -0.4320    0.0000 H   0  0  0  0  0  0  0  0  0  0  0  0
   -2.3940   -3.2266    0.0000 H   0  0  0  0  0  0  0  0  0  0  0  0
   -4.0391   -2.3012    0.0000 H   0  0  0  0  0  0  0  0  0  0  0  0
  1  5  1  0  0  0  0
  1  9  1  0  0  0  0
  2  9  2  0  0  0  0
  3 10  1  0  0  0  0
  3 11  1  0  0  0  0
  3 12  1  0  0  0  0
  4  6  1  0  0  0  0
  4  9  1  0  0  0  0
  4 20  1  0  0  0  0
  5  6  1  0  0  0  0
  5  7  1  0  0  0  0
  5  8  1  0  0  0  0
  6 21  1  0  0  0  0
  6 22  1  0  0  0  0
  7 10  1  0  0  0  0
  7 23  1  0  0  0  0
  7 24  1  0  0  0  0
  8 11  1  0  0  0  0
  8 25  1  0  0  0  0
  8 26  1  0  0  0  0
 10 27  1  0  0  0  0
 10 28  1  0  0  0  0
 11 29  1  0  0  0  0
 11 30  1  0  0  0  0
 12 13  1  0  0  0  0
 12 31  1  0  0  0  0
 12 32  1  0  0  0  0
 13 14  1  0  0  0  0
 13 33  1  0  0  0  0
 13 34  1  0  0  0  0
 14 15  2  0  0  0  0
 14 16  1  0  0  0  0
 15 17  1  0  0  0  0
 15 35  1  0  0  0  0
 16 18  2  0  0  0  0
 16 36  1  0  0  0  0
 17 19  2  0  0  0  0
 17 37  1  0  0  0  0
 18 19  1  0  0  0  0
 18 38  1  0  0  0  0
 19 39  1  0  0  0  0
M  END
>  <DRUGBANK_ID>
DB08979

>  <COMMON_NAME>
Fenspiride

>  <CAS_NUMBER>
5053-06-5

>  <UNII>
S983QC7HKM

>  <SYNONYMS>
Fenspirida; Fenspiride; Fenspiridum

$$$$
