
 OpenBabel10282417072D

 69 71  0  0  1  0  0  0  0  0999 V2000
    6.6001   -2.5484    0.0000 O   0  0  0  0  0  0  0  0  0  0  0  0
    7.0051   -1.0370    0.0000 O   0  0  0  0  0  0  0  0  0  0  0  0
    2.8876   -4.6919    0.0000 O   0  0  0  0  0  0  0  0  0  0  0  0
    2.8876   -3.2629    0.0000 O   0  0  0  0  0  0  0  0  0  0  0  0
    6.2906    5.1506    0.0000 O   0  0  0  0  0  0  0  0  0  0  0  0
    5.3626   -1.8339    0.0000 N   0  0  0  0  0  0  0  0  0  0  0  0
    4.5376   -3.2629    0.0000 N   0  0  0  0  0  0  0  0  0  0  0  0
    6.2906    0.2005    0.0000 N   0  0  0  0  0  0  0  0  0  0  0  0
    7.7196    4.3256    0.0000 N   0  0  0  0  0  0  0  0  0  0  0  0
    6.2906    4.3256    0.0000 N   0  0  0  0  0  0  0  0  0  0  0  0
    5.7751   -3.9774    0.0000 C   0  0  0  0  0  0  0  0  0  0  0  0
    5.3626   -3.2629    0.0000 C   0  0  2  0  0  0  0  0  0  0  0  0
    5.3626   -4.6919    0.0000 C   0  0  0  0  0  0  0  0  0  0  0  0
    6.6001   -3.9774    0.0000 C   0  0  0  0  0  0  0  0  0  0  0  0
    5.7751   -5.4063    0.0000 C   0  0  0  0  0  0  0  0  0  0  0  0
    7.0127   -4.6919    0.0000 C   0  0  0  0  0  0  0  0  0  0  0  0
    5.5761   -1.0370    0.0000 C   0  0  1  0  0  0  0  0  0  0  0  0
    6.6001   -5.4063    0.0000 C   0  0  0  0  0  0  0  0  0  0  0  0
    4.5657   -1.6204    0.0000 C   0  0  0  0  0  0  0  0  0  0  0  0
    4.7792   -0.8235    0.0000 C   0  0  0  0  0  0  0  0  0  0  0  0
    5.7751   -2.5484    0.0000 C   0  0  0  0  0  0  0  0  0  0  0  0
    6.2906   -0.6245    0.0000 C   0  0  0  0  0  0  0  0  0  0  0  0
    4.1251   -3.9774    0.0000 C   0  0  0  0  0  0  0  0  0  0  0  0
    3.3001   -3.9774    0.0000 C   0  0  0  0  0  0  0  0  0  0  0  0
    7.0051    0.6130    0.0000 C   0  0  0  0  0  0  0  0  0  0  0  0
    7.0051    1.4380    0.0000 C   0  0  0  0  0  0  0  0  0  0  0  0
    6.2906    1.8505    0.0000 C   0  0  0  0  0  0  0  0  0  0  0  0
    7.7196    1.8505    0.0000 C   0  0  0  0  0  0  0  0  0  0  0  0
    2.0625   -4.6919    0.0000 C   0  0  0  0  0  0  0  0  0  0  0  0
    6.2906    2.6755    0.0000 C   0  0  0  0  0  0  0  0  0  0  0  0
    7.7196    2.6755    0.0000 C   0  0  0  0  0  0  0  0  0  0  0  0
    7.0051    3.0880    0.0000 C   0  0  0  0  0  0  0  0  0  0  0  0
    1.6500   -5.4063    0.0000 C   0  0  0  0  0  0  0  0  0  0  0  0
    7.0051    3.9131    0.0000 C   0  0  0  0  0  0  0  0  0  0  0  0
    7.1021    5.6191    0.0000 H   0  0  0  0  0  0  0  0  0  0  0  0
    4.0276   -2.3796    0.0000 H   0  0  0  0  0  0  0  0  0  0  0  0
    5.4380    0.6928    0.0000 H   0  0  0  0  0  0  0  0  0  0  0  0
    8.5722    3.8333    0.0000 H   0  0  0  0  0  0  0  0  0  0  0  0
    7.7196    5.3101    0.0000 H   0  0  0  0  0  0  0  0  0  0  0  0
    6.3101   -4.9040    0.0000 H   0  0  0  0  0  0  0  0  0  0  0  0
    4.8276   -4.1895    0.0000 H   0  0  0  0  0  0  0  0  0  0  0  0
    4.2926   -4.6919    0.0000 H   0  0  0  0  0  0  0  0  0  0  0  0
    4.8276   -5.6186    0.0000 H   0  0  0  0  0  0  0  0  0  0  0  0
    7.1351   -3.0507    0.0000 H   0  0  0  0  0  0  0  0  0  0  0  0
    7.6701   -3.9773    0.0000 H   0  0  0  0  0  0  0  0  0  0  0  0
    5.2401   -6.3330    0.0000 H   0  0  0  0  0  0  0  0  0  0  0  0
    6.3101   -6.3329    0.0000 H   0  0  0  0  0  0  0  0  0  0  0  0
    8.0827   -4.6919    0.0000 H   0  0  0  0  0  0  0  0  0  0  0  0
    7.5476   -5.6186    0.0000 H   0  0  0  0  0  0  0  0  0  0  0  0
    6.4250   -1.6884    0.0000 H   0  0  0  0  0  0  0  0  0  0  0  0
    7.1350   -6.3330    0.0000 H   0  0  0  0  0  0  0  0  0  0  0  0
    7.6701   -5.4064    0.0000 H   0  0  0  0  0  0  0  0  0  0  0  0
    3.6391   -2.1554    0.0000 H   0  0  0  0  0  0  0  0  0  0  0  0
    3.7168   -0.9691    0.0000 H   0  0  0  0  0  0  0  0  0  0  0  0
    4.2442    0.1031    0.0000 H   0  0  0  0  0  0  0  0  0  0  0  0
    3.7184   -0.9632    0.0000 H   0  0  0  0  0  0  0  0  0  0  0  0
    4.6601   -4.9040    0.0000 H   0  0  0  0  0  0  0  0  0  0  0  0
    3.5901   -4.9040    0.0000 H   0  0  0  0  0  0  0  0  0  0  0  0
    7.9317    0.0780    0.0000 H   0  0  0  0  0  0  0  0  0  0  0  0
    7.9317    1.1480    0.0000 H   0  0  0  0  0  0  0  0  0  0  0  0
    5.3969    1.3345    0.0000 H   0  0  0  0  0  0  0  0  0  0  0  0
    8.6133    1.3345    0.0000 H   0  0  0  0  0  0  0  0  0  0  0  0
    1.5275   -3.7652    0.0000 H   0  0  0  0  0  0  0  0  0  0  0  0
    0.9925   -4.6919    0.0000 H   0  0  0  0  0  0  0  0  0  0  0  0
    5.3969    3.1915    0.0000 H   0  0  0  0  0  0  0  0  0  0  0  0
    8.6133    3.1915    0.0000 H   0  0  0  0  0  0  0  0  0  0  0  0
    0.5800   -5.4063    0.0000 H   0  0  0  0  0  0  0  0  0  0  0  0
    2.1850   -6.3330    0.0000 H   0  0  0  0  0  0  0  0  0  0  0  0
    1.1150   -6.3329    0.0000 H   0  0  0  0  0  0  0  0  0  0  0  0
  1 21  2  0  0  0  0
  2 22  2  0  0  0  0
  3 24  1  0  0  0  0
  3 29  1  0  0  0  0
  4 24  2  0  0  0  0
  5 10  1  0  0  0  0
  5 35  1  0  0  0  0
  6 17  1  0  0  0  0
  6 19  1  0  0  0  0
  6 21  1  0  0  0  0
  7 23  1  0  0  0  0
  7 36  1  0  0  0  0
  8 22  1  0  0  0  0
  8 25  1  0  0  0  0
  8 37  1  0  0  0  0
  9 34  1  0  0  0  0
  9 38  1  0  0  0  0
  9 39  1  0  0  0  0
 10 34  2  0  0  0  0
 11 12  1  0  0  0  0
 11 13  1  0  0  0  0
 11 14  1  0  0  0  0
 11 40  1  0  0  0  0
 12  7  1  0  0  0  0
 12 21  1  0  0  0  0
 12 41  1  6  0  0  0
 13 15  1  0  0  0  0
 13 42  1  0  0  0  0
 13 43  1  0  0  0  0
 14 16  1  0  0  0  0
 14 44  1  0  0  0  0
 14 45  1  0  0  0  0
 15 18  1  0  0  0  0
 15 46  1  0  0  0  0
 15 47  1  0  0  0  0
 16 18  1  0  0  0  0
 16 48  1  0  0  0  0
 16 49  1  0  0  0  0
 17 20  1  0  0  0  0
 17 22  1  0  0  0  0
 17 50  1  6  0  0  0
 18 51  1  0  0  0  0
 18 52  1  0  0  0  0
 19 20  1  0  0  0  0
 19 53  1  0  0  0  0
 19 54  1  0  0  0  0
 20 55  1  0  0  0  0
 20 56  1  0  0  0  0
 23 24  1  0  0  0  0
 23 57  1  0  0  0  0
 23 58  1  0  0  0  0
 25 26  1  0  0  0  0
 25 59  1  0  0  0  0
 25 60  1  0  0  0  0
 26 27  2  0  0  0  0
 26 28  1  0  0  0  0
 27 30  1  0  0  0  0
 27 61  1  0  0  0  0
 28 31  2  0  0  0  0
 28 62  1  0  0  0  0
 29 33  1  0  0  0  0
 29 63  1  0  0  0  0
 29 64  1  0  0  0  0
 30 32  2  0  0  0  0
 30 65  1  0  0  0  0
 31 32  1  0  0  0  0
 31 66  1  0  0  0  0
 32 34  1  0  0  0  0
 33 67  1  0  0  0  0
 33 68  1  0  0  0  0
 33 69  1  0  0  0  0
M  END
>  <DRUGBANK_ID>
DB04898

>  <COMMON_NAME>
Ximelagatran

>  <CAS_NUMBER>
192939-46-1

>  <UNII>
49HFB70472

>  <SYNONYMS>
ethyl 2-[[(1R)-1-cyclohexyl-2- [(2S)-2-[[4-(N'-hydroxycarbamimidoyl) phenyl]methylcarbamoyl]azetidin-1-yl]- 2-oxo-ethyl]amino]acetate; Ximelagatran; Ximélagatran; Ximelagatrán; Ximelagatranum

$$$$
