
 OpenBabel10282417072D

111113  0  0  0  0  0  0  0  0999 V2000
    0.4607    3.1144    0.0000 C   0  0  0  0  0  0  0  0  0  0  0  0
   -1.0018    0.8776    0.0000 C   0  0  0  0  0  0  0  0  0  0  0  0
   -2.6253   -3.1746    0.0000 C   0  0  0  0  0  0  0  0  0  0  0  0
    1.2372    2.8358    0.0000 C   0  0  3  0  0  0  0  0  0  0  0  0
   -0.3077    0.4316    0.0000 C   0  0  3  0  0  0  0  0  0  0  0  0
   -1.8920   -2.7966    0.0000 C   0  0  3  0  0  0  0  0  0  0  0  0
    0.4255    0.8097    0.0000 C   0  0  3  0  0  0  0  0  0  0  0  0
    1.9705    3.2139    0.0000 C   0  0  3  0  0  0  0  0  0  0  0  0
   -1.1980   -3.2426    0.0000 C   0  0  3  0  0  0  0  0  0  0  0  0
    1.1195    0.3636    0.0000 C   0  0  3  0  0  0  0  0  0  0  0  0
   -0.4647   -2.8646    0.0000 C   0  0  3  0  0  0  0  0  0  0  0  0
    2.6645    2.7679    0.0000 C   0  0  3  0  0  0  0  0  0  0  0  0
   -0.4255   -2.0405    0.0000 C   0  0  3  0  0  0  0  0  0  0  0  0
    1.0803   -0.4603    0.0000 C   0  0  3  0  0  0  0  0  0  0  0  0
    2.6253    1.9438    0.0000 C   0  0  3  0  0  0  0  0  0  0  0  0
    0.3470   -0.8384    0.0000 C   0  0  3  0  0  0  0  0  0  0  0  0
    1.8920    1.5658    0.0000 C   0  0  3  0  0  0  0  0  0  0  0  0
   -1.1195   -1.5945    0.0000 C   0  0  3  0  0  0  0  0  0  0  0  0
   -1.2394    4.4832    0.0000 O   0  0  0  0  0  0  0  0  0  0  0  0
   -0.7414    3.4281    0.0000 O   0  0  0  0  0  0  0  0  0  0  0  0
   -0.1843    4.9812    0.0000 O   0  0  0  0  0  0  0  0  0  0  0  0
   -2.1026    1.4537    0.0000 O   0  0  0  0  0  0  0  0  0  0  0  0
   -2.3506    2.5937    0.0000 O   0  0  0  0  0  0  0  0  0  0  0  0
   -1.2106    2.8417    0.0000 O   0  0  0  0  0  0  0  0  0  0  0  0
   -4.7859   -3.4847    0.0000 O   0  0  0  0  0  0  0  0  0  0  0  0
   -4.4307   -2.3734    0.0000 O   0  0  0  0  0  0  0  0  0  0  0  0
   -3.6746   -3.8400    0.0000 O   0  0  0  0  0  0  0  0  0  0  0  0
    1.5760    1.2785    0.0000 O   0  0  0  0  0  0  0  0  0  0  0  0
    0.8199    2.7451    0.0000 O   0  0  0  0  0  0  0  0  0  0  0  0
    1.9313    2.3898    0.0000 O   0  0  0  0  0  0  0  0  0  0  0  0
    1.7617    5.1780    0.0000 O   0  0  0  0  0  0  0  0  0  0  0  0
    0.8697    3.7899    0.0000 O   0  0  0  0  0  0  0  0  0  0  0  0
    0.6217    4.9300    0.0000 O   0  0  0  0  0  0  0  0  0  0  0  0
   -2.3486   -3.7114    0.0000 O   0  0  0  0  0  0  0  0  0  0  0  0
   -1.5925   -5.1780    0.0000 O   0  0  0  0  0  0  0  0  0  0  0  0
   -2.7038   -4.8228    0.0000 O   0  0  0  0  0  0  0  0  0  0  0  0
   -0.6340   -4.0954    0.0000 O   0  0  0  0  0  0  0  0  0  0  0  0
    1.0141   -4.1739    0.0000 O   0  0  0  0  0  0  0  0  0  0  0  0
    0.1508   -4.9587    0.0000 O   0  0  0  0  0  0  0  0  0  0  0  0
    4.2611    3.9307    0.0000 O   0  0  0  0  0  0  0  0  0  0  0  0
    2.6130    4.0092    0.0000 O   0  0  0  0  0  0  0  0  0  0  0  0
    3.4763    4.7940    0.0000 O   0  0  0  0  0  0  0  0  0  0  0  0
    2.1295    0.2049    0.0000 O   0  0  0  0  0  0  0  0  0  0  0  0
    3.2409   -0.1502    0.0000 O   0  0  0  0  0  0  0  0  0  0  0  0
    2.8856   -1.2616    0.0000 O   0  0  0  0  0  0  0  0  0  0  0  0
    3.6746    2.6091    0.0000 O   0  0  0  0  0  0  0  0  0  0  0  0
    4.7859    2.2539    0.0000 O   0  0  0  0  0  0  0  0  0  0  0  0
    4.4307    1.1425    0.0000 O   0  0  0  0  0  0  0  0  0  0  0  0
   -1.3283    0.3695    0.0000 O   0  0  0  0  0  0  0  0  0  0  0  0
   -2.2203   -1.0184    0.0000 O   0  0  0  0  0  0  0  0  0  0  0  0
   -2.4683    0.1215    0.0000 O   0  0  0  0  0  0  0  0  0  0  0  0
    0.3136    3.9262    0.0000 O   0  0  0  0  0  0  0  0  0  0  0  0
   -0.9625    1.7017    0.0000 O   0  0  0  0  0  0  0  0  0  0  0  0
   -3.3193   -2.7286    0.0000 O   0  0  0  0  0  0  0  0  0  0  0  0
    1.4334    1.7528    0.0000 O   0  0  0  0  0  0  0  0  0  0  0  0
   -0.3470   -0.3924    0.0000 O   0  0  0  0  0  0  0  0  0  0  0  0
   -1.8528   -1.9725    0.0000 O   0  0  0  0  0  0  0  0  0  0  0  0
    1.8528    0.7417    0.0000 O   0  0  0  0  0  0  0  0  0  0  0  0
    0.3077   -1.6624    0.0000 O   0  0  0  0  0  0  0  0  0  0  0  0
    0.4647    1.6337    0.0000 O   0  0  0  0  0  0  0  0  0  0  0  0
    2.0097    4.0379    0.0000 O   0  0  0  0  0  0  0  0  0  0  0  0
   -1.2372   -4.0667    0.0000 O   0  0  0  0  0  0  0  0  0  0  0  0
    0.2292   -3.3106    0.0000 O   0  0  0  0  0  0  0  0  0  0  0  0
    3.3978    3.1459    0.0000 O   0  0  0  0  0  0  0  0  0  0  0  0
    1.7743   -0.9063    0.0000 O   0  0  0  0  0  0  0  0  0  0  0  0
    3.3193    1.4978    0.0000 O   0  0  0  0  0  0  0  0  0  0  0  0
   -1.0803   -0.7704    0.0000 O   0  0  0  0  0  0  0  0  0  0  0  0
   -0.4629    4.2047    0.0000 P   0  0  0  0  0  0  0  0  0  0  0  0
   -1.6566    2.1477    0.0000 S   0  0  0  0  0  0  0  0  0  0  0  0
   -4.0526   -3.1067    0.0000 S   0  0  0  0  0  0  0  0  0  0  0  0
    1.1980    2.0118    0.0000 S   0  0  0  0  0  0  0  0  0  0  0  0
    1.3157    4.4840    0.0000 S   0  0  0  0  0  0  0  0  0  0  0  0
   -1.9705   -4.4447    0.0000 S   0  0  0  0  0  0  0  0  0  0  0  0
    0.1900   -4.1346    0.0000 S   0  0  0  0  0  0  0  0  0  0  0  0
    3.4371    3.9700    0.0000 S   0  0  0  0  0  0  0  0  0  0  0  0
    2.5076   -0.5283    0.0000 S   0  0  0  0  0  0  0  0  0  0  0  0
    4.0526    1.8758    0.0000 S   0  0  0  0  0  0  0  0  0  0  0  0
   -1.7743   -0.3244    0.0000 S   0  0  0  0  0  0  0  0  0  0  0  0
   -0.3558    2.4228    0.0000 H   0  0  0  0  0  0  0  0  0  0  0  0
   -0.5465    3.4756    0.0000 H   0  0  0  0  0  0  0  0  0  0  0  0
   -1.9528    0.3873    0.0000 H   0  0  0  0  0  0  0  0  0  0  0  0
   -1.9019    1.4561    0.0000 H   0  0  0  0  0  0  0  0  0  0  0  0
   -2.6762   -4.2434    0.0000 H   0  0  0  0  0  0  0  0  0  0  0  0
   -3.5764   -3.6649    0.0000 H   0  0  0  0  0  0  0  0  0  0  0  0
    1.1669    3.9035    0.0000 H   0  0  0  0  0  0  0  0  0  0  0  0
   -0.2569    1.5004    0.0000 H   0  0  0  0  0  0  0  0  0  0  0  0
   -1.9429   -3.8654    0.0000 H   0  0  0  0  0  0  0  0  0  0  0  0
    0.3746   -0.2591    0.0000 H   0  0  0  0  0  0  0  0  0  0  0  0
    1.9196    2.1451    0.0000 H   0  0  0  0  0  0  0  0  0  0  0  0
   -1.1471   -2.1738    0.0000 H   0  0  0  0  0  0  0  0  0  0  0  0
    0.1684   -0.1267    0.0000 H   0  0  0  0  0  0  0  0  0  0  0  0
   -1.3648   -2.2861    0.0000 H   0  0  0  0  0  0  0  0  0  0  0  0
    1.7135    2.2776    0.0000 H   0  0  0  0  0  0  0  0  0  0  0  0
   -1.3765   -2.5308    0.0000 H   0  0  0  0  0  0  0  0  0  0  0  0
    0.1801    0.1181    0.0000 H   0  0  0  0  0  0  0  0  0  0  0  0
    1.7252    2.5223    0.0000 H   0  0  0  0  0  0  0  0  0  0  0  0
    0.3979    0.2304    0.0000 H   0  0  0  0  0  0  0  0  0  0  0  0
    1.8445    2.6347    0.0000 H   0  0  0  0  0  0  0  0  0  0  0  0
   -1.1704   -2.6633    0.0000 H   0  0  0  0  0  0  0  0  0  0  0  0
   -1.4123    5.4377    0.0000 H   0  0  0  0  0  0  0  0  0  0  0  0
   -1.6959    3.2551    0.0000 H   0  0  0  0  0  0  0  0  0  0  0  0
   -3.0715    1.4998    0.0000 H   0  0  0  0  0  0  0  0  0  0  0  0
   -5.6019   -2.9602    0.0000 H   0  0  0  0  0  0  0  0  0  0  0  0
    1.0515    0.4625    0.0000 H   0  0  0  0  0  0  0  0  0  0  0  0
    2.7306    5.1319    0.0000 H   0  0  0  0  0  0  0  0  0  0  0  0
   -1.8242   -2.8954    0.0000 H   0  0  0  0  0  0  0  0  0  0  0  0
   -1.0785   -3.2333    0.0000 H   0  0  0  0  0  0  0  0  0  0  0  0
    4.7055    3.0685    0.0000 H   0  0  0  0  0  0  0  0  0  0  0  0
    2.6538    1.0210    0.0000 H   0  0  0  0  0  0  0  0  0  0  0  0
    4.1991    3.4251    0.0000 H   0  0  0  0  0  0  0  0  0  0  0  0
   -0.3594    0.3233    0.0000 H   0  0  0  0  0  0  0  0  0  0  0  0
  1 79  1  0  0  0  0
  1 80  1  0  0  0  0
  2 81  1  0  0  0  0
  2 82  1  0  0  0  0
  3 83  1  0  0  0  0
  3 84  1  0  0  0  0
  4  1  1  0  0  0  0
  4 85  1  0  0  0  0
  5  2  1  0  0  0  0
  5 86  1  0  0  0  0
  6  3  1  0  0  0  0
  6 87  1  0  0  0  0
  7  5  1  0  0  0  0
  7 88  1  0  0  0  0
  8  4  1  0  0  0  0
  8 89  1  0  0  0  0
  9  6  1  0  0  0  0
  9 90  1  0  0  0  0
 10  7  1  0  0  0  0
 10 91  1  0  0  0  0
 11  9  1  0  0  0  0
 11 92  1  0  0  0  0
 12  8  1  0  0  0  0
 12 93  1  0  0  0  0
 13 11  1  0  0  0  0
 13 94  1  0  0  0  0
 14 10  1  0  0  0  0
 14 95  1  0  0  0  0
 15 12  1  0  0  0  0
 15 96  1  0  0  0  0
 16 14  1  0  0  0  0
 16 97  1  0  0  0  0
 17 15  1  0  0  0  0
 17 98  1  0  0  0  0
 18 13  1  0  0  0  0
 18 99  1  0  0  0  0
 19100  1  0  0  0  0
 20101  1  0  0  0  0
 22102  1  0  0  0  0
 25103  1  0  0  0  0
 28104  1  0  0  0  0
 31105  1  0  0  0  0
 34106  1  0  0  0  0
 37107  1  0  0  0  0
 40108  1  0  0  0  0
 43109  1  0  0  0  0
 46110  1  0  0  0  0
 49111  1  0  0  0  0
 52  1  1  0  0  0  0
 53  2  1  0  0  0  0
 54  3  1  0  0  0  0
 55  4  1  0  0  0  0
 55 17  1  0  0  0  0
 56  5  1  0  0  0  0
 56 16  1  0  0  0  0
 57  6  1  0  0  0  0
 57 18  1  0  0  0  0
 58 10  1  0  0  0  0
 58 17  1  0  0  0  0
 59 13  1  0  0  0  0
 59 16  1  0  0  0  0
 60  7  1  0  0  0  0
 61  8  1  0  0  0  0
 62  9  1  0  0  0  0
 63 11  1  0  0  0  0
 64 12  1  0  0  0  0
 65 14  1  0  0  0  0
 66 15  1  0  0  0  0
 67 18  1  0  0  0  0
 68 19  1  0  0  0  0
 68 20  1  0  0  0  0
 68 21  2  0  0  0  0
 68 52  1  0  0  0  0
 69 22  1  0  0  0  0
 69 23  2  0  0  0  0
 69 24  2  0  0  0  0
 69 53  1  0  0  0  0
 70 25  1  0  0  0  0
 70 26  2  0  0  0  0
 70 27  2  0  0  0  0
 70 54  1  0  0  0  0
 71 28  1  0  0  0  0
 71 29  2  0  0  0  0
 71 30  2  0  0  0  0
 71 60  1  0  0  0  0
 72 31  1  0  0  0  0
 72 32  2  0  0  0  0
 72 33  2  0  0  0  0
 72 61  1  0  0  0  0
 73 34  1  0  0  0  0
 73 35  2  0  0  0  0
 73 36  2  0  0  0  0
 73 62  1  0  0  0  0
 74 37  1  0  0  0  0
 74 38  2  0  0  0  0
 74 39  2  0  0  0  0
 74 63  1  0  0  0  0
 75 40  1  0  0  0  0
 75 41  2  0  0  0  0
 75 42  2  0  0  0  0
 75 64  1  0  0  0  0
 76 43  1  0  0  0  0
 76 44  2  0  0  0  0
 76 45  2  0  0  0  0
 76 65  1  0  0  0  0
 77 46  1  0  0  0  0
 77 47  2  0  0  0  0
 77 48  2  0  0  0  0
 77 66  1  0  0  0  0
 78 49  1  0  0  0  0
 78 50  2  0  0  0  0
 78 51  2  0  0  0  0
 78 67  1  0  0  0  0
M  END
>  <DRUGBANK_ID>
DB05808

>  <COMMON_NAME>
Muparfostat

>  <CAS_NUMBER>
1020105-89-8

>  <UNII>
P2BKS6T40H

>  <SYNONYMS>
.ALPHA.-D-MANNAN, (1->3)-, 6-(DIHYDROGEN PHOSPHATE) TRIS(HYDROGEN SULFATE); Heparanase inhibitor PI-88; Mannopentaose phosphate sulfate; Phosphomannopentaose sulfate; Sulfated mannopentaose phosphate

$$$$
