
 OpenBabel10282417072D

 61 63  0  0  0  0  0  0  0  0999 V2000
    3.6510   -0.8572    0.0000 C   0  0  2  0  0  0  0  0  0  0  0  0
    2.9835   -0.3722    0.0000 O   0  0  0  0  0  0  0  0  0  0  0  0
    3.3962   -1.6417    0.0000 C   0  0  0  0  0  0  0  0  0  0  0  0
    2.5710   -1.6417    0.0000 C   0  0  2  0  0  0  0  0  0  0  0  0
    2.1585   -2.3562    0.0000 O   0  0  0  0  0  0  0  0  0  0  0  0
    2.3161   -0.8572    0.0000 C   0  0  1  0  0  0  0  0  0  0  0  0
    1.6017   -0.4447    0.0000 C   0  0  0  0  0  0  0  0  0  0  0  0
    0.7767   -0.4447    0.0000 O   0  0  0  0  0  0  0  0  0  0  0  0
   -0.8732   -0.4447    0.0000 O   0  0  0  0  0  0  0  0  0  0  0  0
   -2.5233   -0.4447    0.0000 O   0  0  0  0  0  0  0  0  0  0  0  0
   -3.2378   -0.8572    0.0000 C   0  0  1  0  0  0  0  0  0  0  0  0
   -3.9523   -0.4446    0.0000 O   0  0  0  0  0  0  0  0  0  0  0  0
   -4.6668   -0.8572    0.0000 C   0  0  2  0  0  0  0  0  0  0  0  0
   -3.9523   -2.0947    0.0000 C   0  0  1  0  0  0  0  0  0  0  0  0
   -3.9523   -2.9197    0.0000 O   0  0  0  0  0  0  0  0  0  0  0  0
   -3.2378   -1.6822    0.0000 C   0  0  1  0  0  0  0  0  0  0  0  0
   -4.6668   -1.6822    0.0000 C   0  0  1  0  0  0  0  0  0  0  0  0
   -5.3812   -2.0947    0.0000 O   0  0  0  0  0  0  0  0  0  0  0  0
   -1.6983    0.3803    0.0000 O   0  0  0  0  0  0  0  0  0  0  0  0
   -1.6983   -0.4447    0.0000 P   0  0  3  0  0  0  0  0  0  0  0  0
   -1.6983   -1.2697    0.0000 O   0  0  0  0  0  0  0  0  0  0  0  0
   -0.0482    0.3803    0.0000 O   0  0  0  0  0  0  0  0  0  0  0  0
   -0.0482   -0.4447    0.0000 P   0  0  3  0  0  0  0  0  0  0  0  0
   -0.0482   -1.2697    0.0000 O   0  0  0  0  0  0  0  0  0  0  0  0
   -2.5233   -2.0947    0.0000 O   0  0  0  0  0  0  0  0  0  0  0  0
   -5.3812   -0.4447    0.0000 C   0  0  0  0  0  0  0  0  0  0  0  0
    4.6668    0.8572    0.0000 C   0  0  0  0  0  0  0  0  0  0  0  0
    3.2378    1.6822    0.0000 N   0  0  0  0  0  0  0  0  0  0  0  0
    3.9523    0.4447    0.0000 N   0  0  0  0  0  0  0  0  0  0  0  0
    3.9523    2.0947    0.0000 C   0  0  0  0  0  0  0  0  0  0  0  0
    3.9523    2.9197    0.0000 O   0  0  0  0  0  0  0  0  0  0  0  0
    3.2378    0.8572    0.0000 C   0  0  0  0  0  0  0  0  0  0  0  0
    2.5234    0.4447    0.0000 O   0  0  0  0  0  0  0  0  0  0  0  0
    4.6668    1.6822    0.0000 C   0  0  0  0  0  0  0  0  0  0  0  0
    5.3812    2.0947    0.0000 C   0  0  0  0  0  0  0  0  0  0  0  0
    3.2766    0.1451    0.0000 H   0  0  0  0  0  0  0  0  0  0  0  0
    4.0252   -2.5073    0.0000 H   0  0  0  0  0  0  0  0  0  0  0  0
    2.9105   -2.5951    0.0000 H   0  0  0  0  0  0  0  0  0  0  0  0
    3.1060   -2.5683    0.0000 H   0  0  0  0  0  0  0  0  0  0  0  0
    1.1885   -2.3562    0.0000 H   0  0  0  0  0  0  0  0  0  0  0  0
    2.2601    0.2113    0.0000 H   0  0  0  0  0  0  0  0  0  0  0  0
    1.8787    0.5888    0.0000 H   0  0  0  0  0  0  0  0  0  0  0  0
    0.9503    0.4042    0.0000 H   0  0  0  0  0  0  0  0  0  0  0  0
   -2.3112   -1.3922    0.0000 H   0  0  0  0  0  0  0  0  0  0  0  0
   -4.6668    0.2128    0.0000 H   0  0  0  0  0  0  0  0  0  0  0  0
   -4.8789   -2.6297    0.0000 H   0  0  0  0  0  0  0  0  0  0  0  0
   -4.7923   -3.4047    0.0000 H   0  0  0  0  0  0  0  0  0  0  0  0
   -2.3112   -1.1472    0.0000 H   0  0  0  0  0  0  0  0  0  0  0  0
   -5.5935   -1.1472    0.0000 H   0  0  0  0  0  0  0  0  0  0  0  0
   -6.2213   -1.6097    0.0000 H   0  0  0  0  0  0  0  0  0  0  0  0
   -2.5383   -1.7547    0.0000 H   0  0  0  0  0  0  0  0  0  0  0  0
   -0.8882   -1.7547    0.0000 H   0  0  0  0  0  0  0  0  0  0  0  0
   -2.5233   -3.0647    0.0000 H   0  0  0  0  0  0  0  0  0  0  0  0
   -5.3812    0.6253    0.0000 H   0  0  0  0  0  0  0  0  0  0  0  0
   -6.3079   -0.9797    0.0000 H   0  0  0  0  0  0  0  0  0  0  0  0
   -6.3078    0.0903    0.0000 H   0  0  0  0  0  0  0  0  0  0  0  0
    5.5605    0.3412    0.0000 H   0  0  0  0  0  0  0  0  0  0  0  0
    2.3852    2.1745    0.0000 H   0  0  0  0  0  0  0  0  0  0  0  0
    6.3079    1.5597    0.0000 H   0  0  0  0  0  0  0  0  0  0  0  0
    5.3812    3.1647    0.0000 H   0  0  0  0  0  0  0  0  0  0  0  0
    6.3078    2.6297    0.0000 H   0  0  0  0  0  0  0  0  0  0  0  0
  1 29  1  0  0  0  0
  1 36  1  6  0  0  0
  2  1  1  0  0  0  0
  2  6  1  0  0  0  0
  3  1  1  0  0  0  0
  3 37  1  0  0  0  0
  3 38  1  0  0  0  0
  4  3  1  0  0  0  0
  4  5  1  0  0  0  0
  4 39  1  1  0  0  0
  5 40  1  0  0  0  0
  6  4  1  0  0  0  0
  6  7  1  0  0  0  0
  6 41  1  6  0  0  0
  7  8  1  0  0  0  0
  7 42  1  0  0  0  0
  7 43  1  0  0  0  0
  8 23  1  0  0  0  0
  9 20  1  0  0  0  0
 11 10  1  0  0  0  0
 11 44  1  1  0  0  0
 12 11  1  0  0  0  0
 12 13  1  0  0  0  0
 13 17  1  0  0  0  0
 13 26  1  0  0  0  0
 13 45  1  1  0  0  0
 14 16  1  0  0  0  0
 14 15  1  0  0  0  0
 14 46  1  1  0  0  0
 15 47  1  0  0  0  0
 16 11  1  0  0  0  0
 16 25  1  0  0  0  0
 16 48  1  1  0  0  0
 17 14  1  0  0  0  0
 17 18  1  0  0  0  0
 17 49  1  6  0  0  0
 18 50  1  0  0  0  0
 20 10  1  0  0  0  0
 20 19  2  0  0  0  0
 20 21  1  0  0  0  0
 21 51  1  0  0  0  0
 23  9  1  0  0  0  0
 23 22  2  0  0  0  0
 23 24  1  0  0  0  0
 24 52  1  0  0  0  0
 25 53  1  0  0  0  0
 26 54  1  0  0  0  0
 26 55  1  0  0  0  0
 26 56  1  0  0  0  0
 27 34  2  0  0  0  0
 27 57  1  0  0  0  0
 28 32  1  0  0  0  0
 28 58  1  0  0  0  0
 29 27  1  0  0  0  0
 30 28  1  0  0  0  0
 30 34  1  0  0  0  0
 30 31  2  0  0  0  0
 32 29  1  0  0  0  0
 32 33  2  0  0  0  0
 34 35  1  0  0  0  0
 35 59  1  0  0  0  0
 35 60  1  0  0  0  0
 35 61  1  0  0  0  0
M  END
>  <DRUGBANK_ID>
DB03723

>  <SECONDARY_ACCESSION_NUMBERS>
EXPT03108

>  <COMMON_NAME>
2'-Deoxy-thymidine-beta-L-rhamnose

>  <CAS_NUMBER>
2147-59-3

>  <SYNONYMS>
dTDP-6-deoxy-L-mannose; dTDP-6-deoxy-β-L-mannose; dTDP-L-rhamnose; dTDP-β-L-rhamnose; Thymidine diphosphate-L-rhamnose

$$$$
