1259
 OpenBabel10282417072D

 66 70  0  0  0  0  0  0  0  0999 V2000
   10.2164   -1.8725    0.0000 Cl  0  0  0  0  0  0  0  0  0  0  0  0
    2.4037   -1.9531    0.0000 S   0  0  0  0  0  0  0  0  0  0  0  0
   13.7743   -3.1512    0.0000 F   0  0  0  0  0  0  0  0  0  0  0  0
    5.8584    0.6520    0.0000 O   0  0  0  0  0  0  0  0  0  0  0  0
    3.1574   -2.2886    0.0000 O   0  0  0  0  0  0  0  0  0  0  0  0
    1.6500   -1.6174    0.0000 O   0  0  0  0  0  0  0  0  0  0  0  0
   11.6548   -1.0640    0.0000 O   0  0  0  0  0  0  0  0  0  0  0  0
    3.8953   -0.3594    0.0000 N   0  0  0  0  0  0  0  0  0  0  0  0
    8.8161    0.6190    0.0000 N   0  0  0  0  0  0  0  0  0  0  0  0
    8.8256    3.1512    0.0000 N   0  0  0  0  0  0  0  0  0  0  0  0
    9.5732    1.8679    0.0000 N   0  0  0  0  0  0  0  0  0  0  0  0
    3.5598   -1.1131    0.0000 C   0  0  0  0  0  0  0  0  0  0  0  0
    2.7393   -1.1993    0.0000 C   0  0  0  0  0  0  0  0  0  0  0  0
    4.7159   -0.2732    0.0000 C   0  0  0  0  0  0  0  0  0  0  0  0
    5.0514    0.4805    0.0000 C   0  0  0  0  0  0  0  0  0  0  0  0
    6.6591    1.8851    0.0000 C   0  0  0  0  0  0  0  0  0  0  0  0
    5.9447    1.4726    0.0000 C   0  0  0  0  0  0  0  0  0  0  0  0
    8.0881    1.8851    0.0000 C   0  0  0  0  0  0  0  0  0  0  0  0
    7.3736    1.4726    0.0000 C   0  0  0  0  0  0  0  0  0  0  0  0
    4.6389    1.1950    0.0000 C   0  0  0  0  0  0  0  0  0  0  0  0
    5.1909    1.8081    0.0000 C   0  0  0  0  0  0  0  0  0  0  0  0
    8.0881    2.7101    0.0000 C   0  0  0  0  0  0  0  0  0  0  0  0
    6.6591    2.7101    0.0000 C   0  0  0  0  0  0  0  0  0  0  0  0
    8.8256    1.4439    0.0000 C   0  0  0  0  0  0  0  0  0  0  0  0
    2.0682   -2.7067    0.0000 C   0  0  0  0  0  0  0  0  0  0  0  0
    7.3736    3.1226    0.0000 C   0  0  0  0  0  0  0  0  0  0  0  0
    9.5257    0.1983    0.0000 C   0  0  0  0  0  0  0  0  0  0  0  0
    9.5732    2.7273    0.0000 C   0  0  0  0  0  0  0  0  0  0  0  0
    9.5163   -0.6267    0.0000 C   0  0  0  0  0  0  0  0  0  0  0  0
   10.2450    0.6024    0.0000 C   0  0  0  0  0  0  0  0  0  0  0  0
   10.9451   -0.6433    0.0000 C   0  0  0  0  0  0  0  0  0  0  0  0
   10.2259   -1.0474    0.0000 C   0  0  0  0  0  0  0  0  0  0  0  0
   10.9547    0.1818    0.0000 C   0  0  0  0  0  0  0  0  0  0  0  0
   12.3740   -0.6598    0.0000 C   0  0  0  0  0  0  0  0  0  0  0  0
   13.0836   -1.0805    0.0000 C   0  0  0  0  0  0  0  0  0  0  0  0
   13.0741   -1.9055    0.0000 C   0  0  0  0  0  0  0  0  0  0  0  0
   13.8029   -0.6763    0.0000 C   0  0  0  0  0  0  0  0  0  0  0  0
   13.7837   -2.3262    0.0000 C   0  0  0  0  0  0  0  0  0  0  0  0
   14.5125   -1.0970    0.0000 C   0  0  0  0  0  0  0  0  0  0  0  0
   14.5030   -1.9220    0.0000 C   0  0  0  0  0  0  0  0  0  0  0  0
    3.2958    0.4658    0.0000 H   0  0  0  0  0  0  0  0  0  0  0  0
    7.9579    0.1366    0.0000 H   0  0  0  0  0  0  0  0  0  0  0  0
    4.1887   -1.9787    0.0000 H   0  0  0  0  0  0  0  0  0  0  0  0
    3.1246   -2.0906    0.0000 H   0  0  0  0  0  0  0  0  0  0  0  0
    2.1104   -0.3336    0.0000 H   0  0  0  0  0  0  0  0  0  0  0  0
    3.1745   -0.2218    0.0000 H   0  0  0  0  0  0  0  0  0  0  0  0
    5.3448   -1.1388    0.0000 H   0  0  0  0  0  0  0  0  0  0  0  0
    5.7800   -0.1613    0.0000 H   0  0  0  0  0  0  0  0  0  0  0  0
    7.3736    0.4406    0.0000 H   0  0  0  0  0  0  0  0  0  0  0  0
    3.6126    1.3029    0.0000 H   0  0  0  0  0  0  0  0  0  0  0  0
    4.9763    2.8175    0.0000 H   0  0  0  0  0  0  0  0  0  0  0  0
    5.7654    3.2261    0.0000 H   0  0  0  0  0  0  0  0  0  0  0  0
    1.0041   -2.8186    0.0000 H   0  0  0  0  0  0  0  0  0  0  0  0
    2.6972   -3.5723    0.0000 H   0  0  0  0  0  0  0  0  0  0  0  0
    1.6330   -3.6842    0.0000 H   0  0  0  0  0  0  0  0  0  0  0  0
    7.3736    4.1546    0.0000 H   0  0  0  0  0  0  0  0  0  0  0  0
   10.4649    3.2468    0.0000 H   0  0  0  0  0  0  0  0  0  0  0  0
    8.6167   -1.1324    0.0000 H   0  0  0  0  0  0  0  0  0  0  0  0
   10.2569    1.6343    0.0000 H   0  0  0  0  0  0  0  0  0  0  0  0
   11.8543    0.6875    0.0000 H   0  0  0  0  0  0  0  0  0  0  0  0
   12.3864    0.4101    0.0000 H   0  0  0  0  0  0  0  0  0  0  0  0
   13.3068   -0.1356    0.0000 H   0  0  0  0  0  0  0  0  0  0  0  0
   12.1745   -2.4112    0.0000 H   0  0  0  0  0  0  0  0  0  0  0  0
   13.8149    0.3556    0.0000 H   0  0  0  0  0  0  0  0  0  0  0  0
   15.4121   -0.5913    0.0000 H   0  0  0  0  0  0  0  0  0  0  0  0
   15.3907   -2.4483    0.0000 H   0  0  0  0  0  0  0  0  0  0  0  0
  1 32  1  0  0  0  0
  2  5  2  0  0  0  0
  2  6  2  0  0  0  0
  2 13  1  0  0  0  0
  2 25  1  0  0  0  0
  3 38  1  0  0  0  0
  4 15  1  0  0  0  0
  4 17  1  0  0  0  0
  7 31  1  0  0  0  0
  7 34  1  0  0  0  0
  8 12  1  0  0  0  0
  8 14  1  0  0  0  0
  8 41  1  0  0  0  0
  9 24  1  0  0  0  0
  9 27  1  0  0  0  0
  9 42  1  0  0  0  0
 10 22  1  0  0  0  0
 10 28  2  0  0  0  0
 11 24  2  0  0  0  0
 11 28  1  0  0  0  0
 12 13  1  0  0  0  0
 12 43  1  0  0  0  0
 12 44  1  0  0  0  0
 13 45  1  0  0  0  0
 13 46  1  0  0  0  0
 14 15  1  0  0  0  0
 14 47  1  0  0  0  0
 14 48  1  0  0  0  0
 15 20  2  0  0  0  0
 16 17  1  0  0  0  0
 16 19  2  0  0  0  0
 16 23  1  0  0  0  0
 17 21  2  0  0  0  0
 18 19  1  0  0  0  0
 18 22  2  0  0  0  0
 18 24  1  0  0  0  0
 19 49  1  0  0  0  0
 20 21  1  0  0  0  0
 20 50  1  0  0  0  0
 21 51  1  0  0  0  0
 22 26  1  0  0  0  0
 23 26  2  0  0  0  0
 23 52  1  0  0  0  0
 25 53  1  0  0  0  0
 25 54  1  0  0  0  0
 25 55  1  0  0  0  0
 26 56  1  0  0  0  0
 27 29  2  0  0  0  0
 27 30  1  0  0  0  0
 28 57  1  0  0  0  0
 29 32  1  0  0  0  0
 29 58  1  0  0  0  0
 30 33  2  0  0  0  0
 30 59  1  0  0  0  0
 31 32  2  0  0  0  0
 31 33  1  0  0  0  0
 33 60  1  0  0  0  0
 34 35  1  0  0  0  0
 34 61  1  0  0  0  0
 34 62  1  0  0  0  0
 35 36  2  0  0  0  0
 35 37  1  0  0  0  0
 36 38  1  0  0  0  0
 36 63  1  0  0  0  0
 37 39  2  0  0  0  0
 37 64  1  0  0  0  0
 38 40  2  0  0  0  0
 39 40  1  0  0  0  0
 39 65  1  0  0  0  0
 40 66  1  0  0  0  0
M  END
>  <DRUGBANK_ID>
DB01259

>  <SECONDARY_ACCESSION_NUMBERS>
DB02584

>  <COMMON_NAME>
Lapatinib

>  <CAS_NUMBER>
231277-92-2

>  <UNII>
0VUA21238F

>  <SYNONYMS>
Lapatinib; N-(3-chloro-4-((3-fluorophenyl)methoxy)phenyl)-6-(5-(((2-(methylsulfonyl)ethyl)amino)methyl)-2-furanyl)-4-quinazolinamine

$$$$
