
 OpenBabel10282417072D

 46 49  0  0  0  0  0  0  0  0999 V2000
   -0.8796   -0.9627    0.0000 C   0  0  0  0  0  0  0  0  0  0  0  0
   -0.8796   -0.1376    0.0000 C   0  0  0  0  0  0  0  0  0  0  0  0
   -0.1651    0.2748    0.0000 C   0  0  0  0  0  0  0  0  0  0  0  0
    0.5493   -0.1376    0.0000 C   0  0  0  0  0  0  0  0  0  0  0  0
    0.5493   -0.9627    0.0000 C   0  0  0  0  0  0  0  0  0  0  0  0
   -0.1651   -1.3752    0.0000 C   0  0  0  0  0  0  0  0  0  0  0  0
    1.3340    0.1172    0.0000 C   0  0  0  0  0  0  0  0  0  0  0  0
    1.8190   -0.5501    0.0000 N   0  0  0  0  0  0  0  0  0  0  0  0
    1.3340   -1.2177    0.0000 N   0  0  0  0  0  0  0  0  0  0  0  0
   -1.5940   -1.3752    0.0000 S   0  0  0  0  0  0  0  0  0  0  0  0
   -2.2986   -0.9684    0.0000 C   0  0  0  0  0  0  0  0  0  0  0  0
   -2.9985   -1.3724    0.0000 C   0  0  0  0  0  0  0  0  0  0  0  0
   -3.7129   -0.9598    0.0000 C   0  0  0  0  0  0  0  0  0  0  0  0
   -3.7127   -0.1348    0.0000 C   0  0  0  0  0  0  0  0  0  0  0  0
   -3.0132    0.2691    0.0000 C   0  0  0  0  0  0  0  0  0  0  0  0
   -2.2986   -0.1433    0.0000 C   0  0  0  0  0  0  0  0  0  0  0  0
   -2.9985   -2.2002    0.0000 C   0  0  0  0  0  0  0  0  0  0  0  0
   -3.7018   -2.6063    0.0000 N   0  0  0  0  0  0  0  0  0  0  0  0
   -2.2729   -2.6194    0.0000 O   0  0  0  0  0  0  0  0  0  0  0  0
    1.5890    0.9018    0.0000 C   0  0  0  0  0  0  0  0  0  0  0  0
    2.3960    1.0735    0.0000 C   0  0  0  0  0  0  0  0  0  0  0  0
    2.6510    1.8580    0.0000 C   0  0  0  0  0  0  0  0  0  0  0  0
    3.4580    2.0296    0.0000 N   0  0  0  0  0  0  0  0  0  0  0  0
    2.0987    2.4713    0.0000 C   0  0  0  0  0  0  0  0  0  0  0  0
    3.7129    2.8145    0.0000 C   0  0  0  0  0  0  0  0  0  0  0  0
    2.3538    3.2559    0.0000 C   0  0  0  0  0  0  0  0  0  0  0  0
    3.1607    3.4275    0.0000 C   0  0  0  0  0  0  0  0  0  0  0  0
   -3.7023   -3.4275    0.0000 C   0  0  0  0  0  0  0  0  0  0  0  0
   -1.7733    0.3785    0.0000 H   0  0  0  0  0  0  0  0  0  0  0  0
   -0.1651    1.3068    0.0000 H   0  0  0  0  0  0  0  0  0  0  0  0
   -0.1651   -2.4072    0.0000 H   0  0  0  0  0  0  0  0  0  0  0  0
    1.6382   -2.1540    0.0000 H   0  0  0  0  0  0  0  0  0  0  0  0
   -4.6067   -1.4756    0.0000 H   0  0  0  0  0  0  0  0  0  0  0  0
   -4.6064    0.3813    0.0000 H   0  0  0  0  0  0  0  0  0  0  0  0
   -3.0133    1.3011    0.0000 H   0  0  0  0  0  0  0  0  0  0  0  0
   -1.4049    0.3728    0.0000 H   0  0  0  0  0  0  0  0  0  0  0  0
   -4.5543   -2.1138    0.0000 H   0  0  0  0  0  0  0  0  0  0  0  0
    0.8984    1.6687    0.0000 H   0  0  0  0  0  0  0  0  0  0  0  0
    3.0866    0.3066    0.0000 H   0  0  0  0  0  0  0  0  0  0  0  0
    1.0892    2.2568    0.0000 H   0  0  0  0  0  0  0  0  0  0  0  0
    4.7223    3.0293    0.0000 H   0  0  0  0  0  0  0  0  0  0  0  0
    1.6633    4.0229    0.0000 H   0  0  0  0  0  0  0  0  0  0  0  0
    3.4794    4.4090    0.0000 H   0  0  0  0  0  0  0  0  0  0  0  0
   -4.6293   -3.9619    0.0000 H   0  0  0  0  0  0  0  0  0  0  0  0
   -2.7760   -3.9631    0.0000 H   0  0  0  0  0  0  0  0  0  0  0  0
   -3.7030   -4.4975    0.0000 H   0  0  0  0  0  0  0  0  0  0  0  0
  1  2  2  0  0  0  0
  1  6  1  0  0  0  0
  1 10  1  0  0  0  0
  2  3  1  0  0  0  0
  2 29  1  0  0  0  0
  3  4  2  0  0  0  0
  3 30  1  0  0  0  0
  4  5  1  0  0  0  0
  4  7  1  0  0  0  0
  5  6  2  0  0  0  0
  5  9  1  0  0  0  0
  6 31  1  0  0  0  0
  7  8  2  0  0  0  0
  7 20  1  0  0  0  0
  8  9  1  0  0  0  0
  9 32  1  0  0  0  0
 10 11  1  0  0  0  0
 11 12  2  0  0  0  0
 11 16  1  0  0  0  0
 12 13  1  0  0  0  0
 12 17  1  0  0  0  0
 13 14  2  0  0  0  0
 13 33  1  0  0  0  0
 14 15  1  0  0  0  0
 14 34  1  0  0  0  0
 15 16  2  0  0  0  0
 15 35  1  0  0  0  0
 16 36  1  0  0  0  0
 17 18  1  0  0  0  0
 17 19  2  0  0  0  0
 18 28  1  0  0  0  0
 18 37  1  0  0  0  0
 20 21  2  0  0  0  0
 20 38  1  0  0  0  0
 21 22  1  0  0  0  0
 21 39  1  0  0  0  0
 23 22  1  0  0  0  0
 24 22  2  0  0  0  0
 24 40  1  0  0  0  0
 25 23  2  0  0  0  0
 25 41  1  0  0  0  0
 26 24  1  0  0  0  0
 26 42  1  0  0  0  0
 27 25  1  0  0  0  0
 27 26  2  0  0  0  0
 27 43  1  0  0  0  0
 28 44  1  0  0  0  0
 28 45  1  0  0  0  0
 28 46  1  0  0  0  0
M  END
>  <DRUGBANK_ID>
DB06626

>  <COMMON_NAME>
Axitinib

>  <CAS_NUMBER>
319460-85-0

>  <UNII>
C9LVQ0YUXG

>  <SYNONYMS>
Axitinib; Axitinibum; N-methyl-2-[[3-[(E)-2-pyridin-2-ylethenyl]-1H-indazol-6-yl]sulfanyl]benzamide

$$$$
