CM6
 OpenBabel10282417072D

 44 47  0  0  0  0  0  0  0  0999 V2000
   -0.6144    1.8899    0.0000 O   0  0  0  0  0  0  0  0  0  0  0  0
   -0.6144    1.0649    0.0000 C   0  0  0  0  0  0  0  0  0  0  0  0
   -1.3289    0.6524    0.0000 N   0  0  0  0  0  0  0  0  0  0  0  0
   -2.0434    1.0649    0.0000 C   0  0  0  0  0  0  0  0  0  0  0  0
   -2.7578    0.6524    0.0000 C   0  0  0  0  0  0  0  0  0  0  0  0
   -3.4723    1.0649    0.0000 C   0  0  0  0  0  0  0  0  0  0  0  0
   -3.4723    1.8899    0.0000 N   0  0  0  0  0  0  0  0  0  0  0  0
   -2.7578    2.3024    0.0000 C   0  0  0  0  0  0  0  0  0  0  0  0
   -2.0434    1.8899    0.0000 C   0  0  0  0  0  0  0  0  0  0  0  0
    0.1000    0.6524    0.0000 C   0  0  1  0  0  0  0  0  0  0  0  0
    0.8145    1.0649    0.0000 N   0  0  0  0  0  0  0  0  0  0  0  0
    1.5290    0.6524    0.0000 S   0  0  0  0  0  0  0  0  0  0  0  0
    1.1165   -0.0621    0.0000 O   0  0  0  0  0  0  0  0  0  0  0  0
    1.9415    1.3669    0.0000 O   0  0  0  0  0  0  0  0  0  0  0  0
    2.2435    0.2399    0.0000 C   0  0  0  0  0  0  0  0  0  0  0  0
    2.9579    0.6524    0.0000 C   0  0  0  0  0  0  0  0  0  0  0  0
    3.6724    0.2399    0.0000 C   0  0  0  0  0  0  0  0  0  0  0  0
    3.6724   -0.5851    0.0000 C   0  0  0  0  0  0  0  0  0  0  0  0
    2.9579   -0.9976    0.0000 C   0  0  0  0  0  0  0  0  0  0  0  0
    2.7864   -1.8046    0.0000 N   0  0  0  0  0  0  0  0  0  0  0  0
    1.9659   -1.8908    0.0000 S   0  0  0  0  0  0  0  0  0  0  0  0
    1.6304   -1.1372    0.0000 N   0  0  0  0  0  0  0  0  0  0  0  0
    2.2435   -0.5851    0.0000 C   0  0  0  0  0  0  0  0  0  0  0  0
    0.1000   -0.1726    0.0000 C   0  0  0  0  0  0  0  0  0  0  0  0
    0.8145   -0.5851    0.0000 C   0  0  0  0  0  0  0  0  0  0  0  0
    0.8145   -1.4101    0.0000 C   0  0  0  0  0  0  0  0  0  0  0  0
    0.1000   -1.8226    0.0000 C   0  0  0  0  0  0  0  0  0  0  0  0
   -0.6144   -1.4101    0.0000 C   0  0  0  0  0  0  0  0  0  0  0  0
   -0.6144   -0.5851    0.0000 C   0  0  0  0  0  0  0  0  0  0  0  0
    0.1000    1.2363    0.0000 H   0  0  0  0  0  0  0  0  0  0  0  0
   -1.3289   -0.3321    0.0000 H   0  0  0  0  0  0  0  0  0  0  0  0
   -2.7578   -0.3796    0.0000 H   0  0  0  0  0  0  0  0  0  0  0  0
   -4.3660    0.5489    0.0000 H   0  0  0  0  0  0  0  0  0  0  0  0
   -2.7578    3.3344    0.0000 H   0  0  0  0  0  0  0  0  0  0  0  0
   -1.1497    2.4059    0.0000 H   0  0  0  0  0  0  0  0  0  0  0  0
    0.8145    2.0849    0.0000 H   0  0  0  0  0  0  0  0  0  0  0  0
    2.9579    1.6844    0.0000 H   0  0  0  0  0  0  0  0  0  0  0  0
    4.5661    0.7559    0.0000 H   0  0  0  0  0  0  0  0  0  0  0  0
    4.5661   -1.1011    0.0000 H   0  0  0  0  0  0  0  0  0  0  0  0
    1.7082   -0.0691    0.0000 H   0  0  0  0  0  0  0  0  0  0  0  0
    1.7082   -1.9261    0.0000 H   0  0  0  0  0  0  0  0  0  0  0  0
    0.1000   -2.8546    0.0000 H   0  0  0  0  0  0  0  0  0  0  0  0
   -1.5081   -1.9261    0.0000 H   0  0  0  0  0  0  0  0  0  0  0  0
   -1.5081   -0.0691    0.0000 H   0  0  0  0  0  0  0  0  0  0  0  0
  1  2  2  0  0  0  0
  2  3  1  0  0  0  0
  2 10  1  0  0  0  0
  3  4  1  0  0  0  0
  3 31  1  0  0  0  0
  4  5  2  0  0  0  0
  4  9  1  0  0  0  0
  5  6  1  0  0  0  0
  5 32  1  0  0  0  0
  6  7  2  0  0  0  0
  6 33  1  0  0  0  0
  7  8  1  0  0  0  0
  8  9  2  0  0  0  0
  8 34  1  0  0  0  0
  9 35  1  0  0  0  0
 10 11  1  0  0  0  0
 10 24  1  0  0  0  0
 10 30  1  6  0  0  0
 11 12  1  0  0  0  0
 11 36  1  0  0  0  0
 12 13  2  0  0  0  0
 12 14  2  0  0  0  0
 12 15  1  0  0  0  0
 15 16  2  0  0  0  0
 15 23  1  0  0  0  0
 16 17  1  0  0  0  0
 16 37  1  0  0  0  0
 17 18  2  0  0  0  0
 17 38  1  0  0  0  0
 18 19  1  0  0  0  0
 18 39  1  0  0  0  0
 19 20  2  0  0  0  0
 19 23  1  0  0  0  0
 20 21  1  0  0  0  0
 21 22  1  0  0  0  0
 22 23  2  0  0  0  0
 24 25  2  0  0  0  0
 24 29  1  0  0  0  0
 25 26  1  0  0  0  0
 25 40  1  0  0  0  0
 26 27  2  0  0  0  0
 26 41  1  0  0  0  0
 27 28  1  0  0  0  0
 27 42  1  0  0  0  0
 28 29  2  0  0  0  0
 28 43  1  0  0  0  0
 29 44  1  0  0  0  0
M  END
>  <DRUGBANK_ID>
DB07568

>  <COMMON_NAME>
(2S)-2-[(2,1,3-BENZOTHIADIAZOL-4-YLSULFONYL)AMINO]-2-PHENYL-N-PYRIDIN-4-YLACETAMIDE

$$$$
