
 OpenBabel10282417072D

 17 16  0  0  0  0  0  0  0  0999 V2000
    0.7145    0.9281    0.0000 O   0  0  0  0  0  0  0  0  0  0  0  0
    0.7145    0.1031    0.0000 C   0  0  0  0  0  0  0  0  0  0  0  0
    1.4289   -0.3094    0.0000 O   0  0  0  0  0  0  0  0  0  0  0  0
    0.0000   -0.3094    0.0000 C   0  0  1  0  0  0  0  0  0  0  0  0
    0.0000   -1.1344    0.0000 N   0  0  0  0  0  0  0  0  0  0  0  0
   -0.7145    0.1031    0.0000 C   0  0  2  0  0  0  0  0  0  0  0  0
   -0.7145    0.9281    0.0000 O   0  0  0  0  0  0  0  0  0  0  0  0
   -1.4289   -0.3094    0.0000 C   0  0  0  0  0  0  0  0  0  0  0  0
    1.4289   -1.2464    0.0000 H   0  0  0  0  0  0  0  0  0  0  0  0
    0.9266   -0.8444    0.0000 H   0  0  0  0  0  0  0  0  0  0  0  0
   -0.8833   -1.6444    0.0000 H   0  0  0  0  0  0  0  0  0  0  0  0
    0.8833   -1.6444    0.0000 H   0  0  0  0  0  0  0  0  0  0  0  0
    0.2121    0.6381    0.0000 H   0  0  0  0  0  0  0  0  0  0  0  0
    0.1255    1.4131    0.0000 H   0  0  0  0  0  0  0  0  0  0  0  0
   -2.3556    0.2256    0.0000 H   0  0  0  0  0  0  0  0  0  0  0  0
   -1.4289   -1.3794    0.0000 H   0  0  0  0  0  0  0  0  0  0  0  0
   -2.3555   -0.8444    0.0000 H   0  0  0  0  0  0  0  0  0  0  0  0
  2  1  2  0  0  0  0
  3  2  1  0  0  0  0
  3  9  1  0  0  0  0
  4  2  1  0  0  0  0
  4  5  1  0  0  0  0
  4 10  1  6  0  0  0
  5 11  1  0  0  0  0
  5 12  1  0  0  0  0
  6  4  1  0  0  0  0
  6  7  1  0  0  0  0
  6  8  1  0  0  0  0
  6 13  1  6  0  0  0
  7 14  1  0  0  0  0
  8 15  1  0  0  0  0
  8 16  1  0  0  0  0
  8 17  1  0  0  0  0
M  END
>  <DRUGBANK_ID>
DB00156

>  <SECONDARY_ACCESSION_NUMBERS>
NUTR00057

>  <COMMON_NAME>
Threonine

>  <CAS_NUMBER>
72-19-5

>  <UNII>
2ZD004190S

>  <SYNONYMS>
(2S,3R)-(-)-Threonine; (2S)-threonine; 2-Amino-3-hydroxybutyric acid; L-(-)-Threonine; L-2-Amino-3-hydroxybutyric acid; L-alpha-amino-beta-hydroxybutyric acid; L-Threonin; L-Threonine; L-α-amino-β-hydroxybutyric acid; Thr; Threonine; Threoninum; Treonina

$$$$
