796
 OpenBabel10282417072D

 47 49  0  0  0  0  0  0  0  0999 V2000
    0.1224    1.0199    0.0000 O   0  0  0  0  0  0  0  0  0  0  0  0
    0.1224    0.1950    0.0000 C   0  0  0  0  0  0  0  0  0  0  0  0
    0.8368   -0.2174    0.0000 C   0  0  0  0  0  0  0  0  0  0  0  0
    1.5905    0.1181    0.0000 S   0  0  0  0  0  0  0  0  0  0  0  0
    0.9231   -1.0380    0.0000 C   0  0  0  0  0  0  0  0  0  0  0  0
    1.7300   -1.2095    0.0000 C   0  0  0  0  0  0  0  0  0  0  0  0
    2.1426   -0.4949    0.0000 C   0  0  0  0  0  0  0  0  0  0  0  0
    2.9631   -0.4087    0.0000 C   0  0  0  0  0  0  0  0  0  0  0  0
    3.2987    0.3449    0.0000 C   0  0  0  0  0  0  0  0  0  0  0  0
    3.4479   -1.0761    0.0000 N   0  0  0  0  0  0  0  0  0  0  0  0
    4.2684   -0.9899    0.0000 C   0  0  0  0  0  0  0  0  0  0  0  0
    4.7534   -1.6574    0.0000 N   0  0  0  0  0  0  0  0  0  0  0  0
    5.5739   -1.5712    0.0000 C   0  0  0  0  0  0  0  0  0  0  0  0
    4.6041   -0.2362    0.0000 N   0  0  0  0  0  0  0  0  0  0  0  0
    4.1192    0.4311    0.0000 C   0  0  0  0  0  0  0  0  0  0  0  0
   -0.5920   -0.2174    0.0000 N   0  0  0  0  0  0  0  0  0  0  0  0
   -1.3065    0.1950    0.0000 C   0  0  2  0  0  0  0  0  0  0  0  0
   -1.3065    1.0199    0.0000 C   0  0  0  0  0  0  0  0  0  0  0  0
   -0.5920    1.4325    0.0000 N   0  0  0  0  0  0  0  0  0  0  0  0
   -2.0210   -0.2174    0.0000 C   0  0  0  0  0  0  0  0  0  0  0  0
   -2.7354    0.1950    0.0000 C   0  0  0  0  0  0  0  0  0  0  0  0
   -3.4498   -0.2174    0.0000 C   0  0  0  0  0  0  0  0  0  0  0  0
   -4.1644    0.1950    0.0000 C   0  0  0  0  0  0  0  0  0  0  0  0
   -4.1644    1.0199    0.0000 C   0  0  0  0  0  0  0  0  0  0  0  0
   -4.8788    1.4325    0.0000 Cl  0  0  0  0  0  0  0  0  0  0  0  0
   -3.4498    1.4325    0.0000 C   0  0  0  0  0  0  0  0  0  0  0  0
   -2.7354    1.0199    0.0000 C   0  0  0  0  0  0  0  0  0  0  0  0
   -2.0210    1.4325    0.0000 Cl  0  0  0  0  0  0  0  0  0  0  0  0
   -0.8008    0.4870    0.0000 H   0  0  0  0  0  0  0  0  0  0  0  0
    0.1562   -1.7286    0.0000 H   0  0  0  0  0  0  0  0  0  0  0  0
    2.1497   -2.1523    0.0000 H   0  0  0  0  0  0  0  0  0  0  0  0
    2.6922    1.1798    0.0000 H   0  0  0  0  0  0  0  0  0  0  0  0
    4.3530   -2.5568    0.0000 H   0  0  0  0  0  0  0  0  0  0  0  0
    6.2028   -2.4369    0.0000 H   0  0  0  0  0  0  0  0  0  0  0  0
    6.0092   -0.5937    0.0000 H   0  0  0  0  0  0  0  0  0  0  0  0
    6.6380   -1.4594    0.0000 H   0  0  0  0  0  0  0  0  0  0  0  0
    4.5389    1.3739    0.0000 H   0  0  0  0  0  0  0  0  0  0  0  0
   -0.5920   -1.2019    0.0000 H   0  0  0  0  0  0  0  0  0  0  0  0
   -2.2332    1.5549    0.0000 H   0  0  0  0  0  0  0  0  0  0  0  0
   -1.3066    2.0899    0.0000 H   0  0  0  0  0  0  0  0  0  0  0  0
    0.2914    0.9226    0.0000 H   0  0  0  0  0  0  0  0  0  0  0  0
   -0.5921    2.4525    0.0000 H   0  0  0  0  0  0  0  0  0  0  0  0
   -2.0210   -1.2874    0.0000 H   0  0  0  0  0  0  0  0  0  0  0  0
   -2.9476   -0.7524    0.0000 H   0  0  0  0  0  0  0  0  0  0  0  0
   -3.4497   -1.2494    0.0000 H   0  0  0  0  0  0  0  0  0  0  0  0
   -5.0581   -0.3211    0.0000 H   0  0  0  0  0  0  0  0  0  0  0  0
   -3.4497    2.4645    0.0000 H   0  0  0  0  0  0  0  0  0  0  0  0
  1  2  2  0  0  0  0
  2  3  1  0  0  0  0
  2 16  1  0  0  0  0
  3  4  1  0  0  0  0
  3  5  2  0  0  0  0
  4  7  1  0  0  0  0
  5  6  1  0  0  0  0
  5 30  1  0  0  0  0
  6  7  2  0  0  0  0
  6 31  1  0  0  0  0
  7  8  1  0  0  0  0
  8  9  2  0  0  0  0
  8 10  1  0  0  0  0
  9 15  1  0  0  0  0
  9 32  1  0  0  0  0
 10 11  2  0  0  0  0
 11 12  1  0  0  0  0
 11 14  1  0  0  0  0
 12 13  1  0  0  0  0
 12 33  1  0  0  0  0
 13 34  1  0  0  0  0
 13 35  1  0  0  0  0
 13 36  1  0  0  0  0
 14 15  2  0  0  0  0
 15 37  1  0  0  0  0
 16 38  1  0  0  0  0
 17 16  1  0  0  0  0
 17 18  1  0  0  0  0
 17 20  1  0  0  0  0
 17 29  1  6  0  0  0
 18 19  1  0  0  0  0
 18 39  1  0  0  0  0
 18 40  1  0  0  0  0
 19 41  1  0  0  0  0
 19 42  1  0  0  0  0
 20 21  1  0  0  0  0
 20 43  1  0  0  0  0
 20 44  1  0  0  0  0
 21 22  1  0  0  0  0
 21 27  2  0  0  0  0
 22 23  2  0  0  0  0
 22 45  1  0  0  0  0
 23 24  1  0  0  0  0
 23 46  1  0  0  0  0
 24 25  1  0  0  0  0
 24 26  2  0  0  0  0
 26 27  1  0  0  0  0
 26 47  1  0  0  0  0
 27 28  1  0  0  0  0
M  END
>  <DRUGBANK_ID>
DB07235

>  <COMMON_NAME>
N-[(1S)-2-AMINO-1-(2,4-DICHLOROBENZYL)ETHYL]-5-[2-(METHYLAMINO)PYRIMIDIN-4-YL]THIOPHENE-2-CARBOXAMIDE

$$$$
