C95
 OpenBabel10282417072D

 32 34  0  0  0  0  0  0  0  0999 V2000
   -1.3790    3.4526    0.0000 O   0  0  0  0  0  0  0  0  0  0  0  0
    0.0499    3.4526    0.0000 O   0  0  0  0  0  0  0  0  0  0  0  0
   -0.6645    2.2151    0.0000 C   0  0  0  0  0  0  0  0  0  0  0  0
    0.0499    1.8026    0.0000 C   0  0  0  0  0  0  0  0  0  0  0  0
    0.0499    0.9776    0.0000 C   0  0  0  0  0  0  0  0  0  0  0  0
   -0.6645    0.5651    0.0000 C   0  0  0  0  0  0  0  0  0  0  0  0
   -1.3790    0.9776    0.0000 C   0  0  0  0  0  0  0  0  0  0  0  0
   -1.3790    1.8026    0.0000 C   0  0  0  0  0  0  0  0  0  0  0  0
   -0.6645   -0.2599    0.0000 C   0  0  0  0  0  0  0  0  0  0  0  0
    0.0029   -0.7448    0.0000 O   0  0  0  0  0  0  0  0  0  0  0  0
   -1.3320   -0.7448    0.0000 C   0  0  0  0  0  0  0  0  0  0  0  0
   -1.0770   -1.5295    0.0000 C   0  0  0  0  0  0  0  0  0  0  0  0
   -0.2520   -1.5295    0.0000 C   0  0  0  0  0  0  0  0  0  0  0  0
    0.2329   -2.1969    0.0000 C   0  0  0  0  0  0  0  0  0  0  0  0
    1.0534   -2.1107    0.0000 C   0  0  0  0  0  0  0  0  0  0  0  0
    1.4659   -1.3962    0.0000 S   0  0  0  0  0  0  0  0  0  0  0  0
    2.2728   -1.5677    0.0000 C   0  0  0  0  0  0  0  0  0  0  0  0
    2.8859   -1.0157    0.0000 N   0  0  0  0  0  0  0  0  0  0  0  0
    2.3591   -2.3882    0.0000 N   0  0  0  0  0  0  0  0  0  0  0  0
   -0.6645    3.0401    0.0000 C   0  0  0  0  0  0  0  0  0  0  0  0
    1.6054   -2.7238    0.0000 C   0  0  0  0  0  0  0  0  0  0  0  0
    1.4339   -3.5307    0.0000 O   0  0  0  0  0  0  0  0  0  0  0  0
    0.8614    2.9841    0.0000 H   0  0  0  0  0  0  0  0  0  0  0  0
    0.9436    2.3186    0.0000 H   0  0  0  0  0  0  0  0  0  0  0  0
    0.9436    0.4616    0.0000 H   0  0  0  0  0  0  0  0  0  0  0  0
   -2.2727    0.4616    0.0000 H   0  0  0  0  0  0  0  0  0  0  0  0
   -2.2727    2.3186    0.0000 H   0  0  0  0  0  0  0  0  0  0  0  0
   -2.3135   -0.4259    0.0000 H   0  0  0  0  0  0  0  0  0  0  0  0
   -1.6836   -2.3644    0.0000 H   0  0  0  0  0  0  0  0  0  0  0  0
   -0.1869   -3.1397    0.0000 H   0  0  0  0  0  0  0  0  0  0  0  0
    3.8222   -1.3200    0.0000 H   0  0  0  0  0  0  0  0  0  0  0  0
    3.2117   -2.8804    0.0000 H   0  0  0  0  0  0  0  0  0  0  0  0
  1 20  2  0  0  0  0
  2 20  1  0  0  0  0
  2 23  1  0  0  0  0
  3  4  1  0  0  0  0
  3  8  2  0  0  0  0
  3 20  1  0  0  0  0
  4  5  2  0  0  0  0
  4 24  1  0  0  0  0
  5  6  1  0  0  0  0
  5 25  1  0  0  0  0
  6  7  2  0  0  0  0
  6  9  1  0  0  0  0
  7  8  1  0  0  0  0
  7 26  1  0  0  0  0
  8 27  1  0  0  0  0
  9 10  1  0  0  0  0
  9 11  2  0  0  0  0
 10 13  1  0  0  0  0
 11 12  1  0  0  0  0
 11 28  1  0  0  0  0
 12 13  2  0  0  0  0
 12 29  1  0  0  0  0
 13 14  1  0  0  0  0
 14 15  2  0  0  0  0
 14 30  1  0  0  0  0
 15 16  1  0  0  0  0
 15 21  1  0  0  0  0
 16 17  1  0  0  0  0
 17 18  2  0  0  0  0
 17 19  1  0  0  0  0
 18 31  1  0  0  0  0
 19 21  1  0  0  0  0
 19 32  1  0  0  0  0
 21 22  2  0  0  0  0
M  END
>  <DRUGBANK_ID>
DB07539

>  <COMMON_NAME>
4-{5-[(Z)-(2-IMINO-4-OXO-1,3-THIAZOLIDIN-5-YLIDENE)METHYL]FURAN-2-YL}BENZOIC ACID

$$$$
