
 OpenBabel10282417072D

 48 49  0  0  0  0  0  0  0  0999 V2000
    3.5724   -7.8375    0.0000 C   0  0  0  0  0  0  0  0  0  0  0  0
    4.2868   -7.4250    0.0000 N   0  0  0  0  0  0  0  0  0  0  0  0
    4.2868   -6.6000    0.0000 C   0  0  0  0  0  0  0  0  0  0  0  0
    5.0013   -7.8375    0.0000 C   0  0  0  0  0  0  0  0  0  0  0  0
    5.7158   -7.4250    0.0000 C   0  0  0  0  0  0  0  0  0  0  0  0
    6.4302   -7.8375    0.0000 C   0  0  0  0  0  0  0  0  0  0  0  0
    7.1447   -7.4250    0.0000 N   0  0  0  0  0  0  0  0  0  0  0  0
    7.8592   -7.8375    0.0000 C   0  0  0  0  0  0  0  0  0  0  0  0
    8.5737   -7.4250    0.0000 N   0  0  0  0  0  0  0  0  0  0  0  0
    9.2881   -7.8375    0.0000 C   0  0  0  0  0  0  0  0  0  0  0  0
   10.0026   -7.4250    0.0000 N   0  0  0  0  0  0  0  0  0  0  0  0
   10.7171   -7.8375    0.0000 C   0  0  0  0  0  0  0  0  0  0  0  0
   10.7171   -8.6625    0.0000 O   0  0  0  0  0  0  0  0  0  0  0  0
   11.4315   -7.4250    0.0000 N   0  0  0  0  0  0  0  0  0  0  0  0
   12.1460   -7.8375    0.0000 C   0  0  0  0  0  0  0  0  0  0  0  0
   12.8605   -7.4250    0.0000 C   0  0  0  0  0  0  0  0  0  0  0  0
   13.5749   -7.8375    0.0000 C   0  0  0  0  0  0  0  0  0  0  0  0
   13.5749   -8.6625    0.0000 C   0  0  0  0  0  0  0  0  0  0  0  0
   14.2894   -9.0750    0.0000 Cl  0  0  0  0  0  0  0  0  0  0  0  0
   12.8605   -9.0750    0.0000 C   0  0  0  0  0  0  0  0  0  0  0  0
   12.8605   -9.9000    0.0000 Cl  0  0  0  0  0  0  0  0  0  0  0  0
   12.1460   -8.6625    0.0000 C   0  0  0  0  0  0  0  0  0  0  0  0
    9.2881   -8.6625    0.0000 N   0  0  0  0  0  0  0  0  0  0  0  0
    8.5737   -9.0750    0.0000 C   0  0  0  0  0  0  0  0  0  0  0  0
    8.5737   -9.9000    0.0000 C   0  0  0  0  0  0  0  0  0  0  0  0
    7.8592   -8.6625    0.0000 C   0  0  0  0  0  0  0  0  0  0  0  0
    2.6457   -7.3025    0.0000 H   0  0  0  0  0  0  0  0  0  0  0  0
    3.5724   -8.9075    0.0000 H   0  0  0  0  0  0  0  0  0  0  0  0
    2.6458   -8.3725    0.0000 H   0  0  0  0  0  0  0  0  0  0  0  0
    5.2134   -6.0650    0.0000 H   0  0  0  0  0  0  0  0  0  0  0  0
    3.3602   -6.0650    0.0000 H   0  0  0  0  0  0  0  0  0  0  0  0
    4.2868   -5.5300    0.0000 H   0  0  0  0  0  0  0  0  0  0  0  0
    5.0013   -8.9075    0.0000 H   0  0  0  0  0  0  0  0  0  0  0  0
    5.9279   -8.3725    0.0000 H   0  0  0  0  0  0  0  0  0  0  0  0
    5.7158   -6.3550    0.0000 H   0  0  0  0  0  0  0  0  0  0  0  0
    6.6425   -6.8900    0.0000 H   0  0  0  0  0  0  0  0  0  0  0  0
    6.4302   -8.9075    0.0000 H   0  0  0  0  0  0  0  0  0  0  0  0
    7.3568   -8.3725    0.0000 H   0  0  0  0  0  0  0  0  0  0  0  0
    7.1447   -6.4405    0.0000 H   0  0  0  0  0  0  0  0  0  0  0  0
   10.0026   -6.4405    0.0000 H   0  0  0  0  0  0  0  0  0  0  0  0
   11.4315   -6.4405    0.0000 H   0  0  0  0  0  0  0  0  0  0  0  0
   12.8605   -6.3930    0.0000 H   0  0  0  0  0  0  0  0  0  0  0  0
   14.4686   -7.3215    0.0000 H   0  0  0  0  0  0  0  0  0  0  0  0
   11.2523   -9.1785    0.0000 H   0  0  0  0  0  0  0  0  0  0  0  0
    7.6471  -10.4350    0.0000 H   0  0  0  0  0  0  0  0  0  0  0  0
    9.5003  -10.4350    0.0000 H   0  0  0  0  0  0  0  0  0  0  0  0
    8.5737  -10.9700    0.0000 H   0  0  0  0  0  0  0  0  0  0  0  0
    6.9655   -9.1785    0.0000 H   0  0  0  0  0  0  0  0  0  0  0  0
  1  2  1  0  0  0  0
  1 27  1  0  0  0  0
  1 28  1  0  0  0  0
  1 29  1  0  0  0  0
  2  3  1  0  0  0  0
  2  4  1  0  0  0  0
  3 30  1  0  0  0  0
  3 31  1  0  0  0  0
  3 32  1  0  0  0  0
  4  5  1  0  0  0  0
  4 33  1  0  0  0  0
  4 34  1  0  0  0  0
  5  6  1  0  0  0  0
  5 35  1  0  0  0  0
  5 36  1  0  0  0  0
  6  7  1  0  0  0  0
  6 37  1  0  0  0  0
  6 38  1  0  0  0  0
  7  8  1  0  0  0  0
  7 39  1  0  0  0  0
  8  9  2  0  0  0  0
  8 26  1  0  0  0  0
  9 10  1  0  0  0  0
 10 11  1  0  0  0  0
 10 23  2  0  0  0  0
 11 12  1  0  0  0  0
 11 40  1  0  0  0  0
 12 13  2  0  0  0  0
 12 14  1  0  0  0  0
 14 15  1  0  0  0  0
 14 41  1  0  0  0  0
 15 16  2  0  0  0  0
 15 22  1  0  0  0  0
 16 17  1  0  0  0  0
 16 42  1  0  0  0  0
 17 18  2  0  0  0  0
 17 43  1  0  0  0  0
 18 19  1  0  0  0  0
 18 20  1  0  0  0  0
 20 21  1  0  0  0  0
 20 22  2  0  0  0  0
 22 44  1  0  0  0  0
 23 24  1  0  0  0  0
 24 25  1  0  0  0  0
 24 26  2  0  0  0  0
 25 45  1  0  0  0  0
 25 46  1  0  0  0  0
 25 47  1  0  0  0  0
 26 48  1  0  0  0  0
M  END
>  <DRUGBANK_ID>
DB17114

>  <COMMON_NAME>
CT-179

>  <CAS_NUMBER>
1996636-69-1

>  <UNII>
4Z0F3ZM8ZD

>  <SYNONYMS>
1-(2-(3-(3,4-dichlorophenyl)ureido)-6-methyl-pyrimidin-4-yl)-amino-3(dimethylamino)propane; CT 179; CT179; Urea, n-(3,4-dichlorophenyl)-n'-(4-((3-(dimethylamino)propyl)amino)-6-methyl-2-pyrimidinyl)-

$$$$
