
 OpenBabel10282417072D

 62 66  0  0  0  0  0  0  0  0999 V2000
   -2.8074   -0.8224    0.0000 C   0  0  0  0  0  0  0  0  0  0  0  0
   -2.0928   -0.4100    0.0000 C   0  0  0  0  0  0  0  0  0  0  0  0
   -1.3809   -0.8220    0.0000 C   0  0  0  0  0  0  0  0  0  0  0  0
   -1.3809   -1.6473    0.0000 C   0  0  0  0  0  0  0  0  0  0  0  0
   -2.0910   -2.0591    0.0000 C   0  0  0  0  0  0  0  0  0  0  0  0
   -2.8074   -1.6510    0.0000 C   0  0  0  0  0  0  0  0  0  0  0  0
   -0.6663   -2.0598    0.0000 N   0  0  0  0  0  0  0  0  0  0  0  0
    0.0480   -1.6473    0.0000 C   0  0  0  0  0  0  0  0  0  0  0  0
    0.0483   -0.8222    0.0000 N   0  0  0  0  0  0  0  0  0  0  0  0
    0.7611   -0.4115    0.0000 C   0  0  0  0  0  0  0  0  0  0  0  0
    1.4758   -0.8242    0.0000 C   0  0  0  0  0  0  0  0  0  0  0  0
    1.4773   -1.6452    0.0000 C   0  0  0  0  0  0  0  0  0  0  0  0
    0.7657   -2.0615    0.0000 N   0  0  0  0  0  0  0  0  0  0  0  0
    2.2512   -1.8973    0.0000 N   0  0  0  0  0  0  0  0  0  0  0  0
    2.7338   -1.2365    0.0000 C   0  0  0  0  0  0  0  0  0  0  0  0
    2.2581   -0.5761    0.0000 C   0  0  0  0  0  0  0  0  0  0  0  0
   -3.5220   -0.4098    0.0000 N   0  0  0  0  0  0  0  0  0  0  0  0
    0.7611    0.4133    0.0000 O   0  0  0  0  0  0  0  0  0  0  0  0
    1.4756    0.8259    0.0000 C   0  0  0  0  0  0  0  0  0  0  0  0
    1.4758    1.6510    0.0000 C   0  0  0  0  0  0  0  0  0  0  0  0
    2.1884    2.0615    0.0000 C   0  0  0  0  0  0  0  0  0  0  0  0
    2.9032    1.6490    0.0000 C   0  0  0  0  0  0  0  0  0  0  0  0
    2.9048    0.8280    0.0000 C   0  0  0  0  0  0  0  0  0  0  0  0
    2.1931    0.4115    0.0000 C   0  0  0  0  0  0  0  0  0  0  0  0
    3.7017    0.6145    0.0000 N   0  0  0  0  0  0  0  0  0  0  0  0
    4.2851    1.1978    0.0000 C   0  0  0  0  0  0  0  0  0  0  0  0
    5.0820    0.9843    0.0000 C   0  0  0  0  0  0  0  0  0  0  0  0
    5.6654    1.5677    0.0000 C   0  0  0  0  0  0  0  0  0  0  0  0
    4.0715    1.9948    0.0000 O   0  0  0  0  0  0  0  0  0  0  0  0
   -4.2365   -0.8224    0.0000 C   0  0  0  0  0  0  0  0  0  0  0  0
   -4.9509   -0.4098    0.0000 C   0  0  0  0  0  0  0  0  0  0  0  0
   -4.9509    0.4150    0.0000 N   0  0  0  0  0  0  0  0  0  0  0  0
   -4.2365    0.8276    0.0000 C   0  0  0  0  0  0  0  0  0  0  0  0
   -3.5220    0.4150    0.0000 C   0  0  0  0  0  0  0  0  0  0  0  0
   -5.6654    0.8276    0.0000 C   0  0  0  0  0  0  0  0  0  0  0  0
   -2.0928    0.4149    0.0000 F   0  0  0  0  0  0  0  0  0  0  0  0
   -0.4869   -0.3065    0.0000 H   0  0  0  0  0  0  0  0  0  0  0  0
   -2.0870   -3.0911    0.0000 H   0  0  0  0  0  0  0  0  0  0  0  0
   -3.6996   -2.1696    0.0000 H   0  0  0  0  0  0  0  0  0  0  0  0
   -0.6662   -3.0443    0.0000 H   0  0  0  0  0  0  0  0  0  0  0  0
    2.5539   -2.8341    0.0000 H   0  0  0  0  0  0  0  0  0  0  0  0
    3.7658   -1.2399    0.0000 H   0  0  0  0  0  0  0  0  0  0  0  0
    2.5825    0.4036    0.0000 H   0  0  0  0  0  0  0  0  0  0  0  0
    0.5824    2.1675    0.0000 H   0  0  0  0  0  0  0  0  0  0  0  0
    2.1888    3.0935    0.0000 H   0  0  0  0  0  0  0  0  0  0  0  0
    3.7964    2.1660    0.0000 H   0  0  0  0  0  0  0  0  0  0  0  0
    2.1961   -0.6205    0.0000 H   0  0  0  0  0  0  0  0  0  0  0  0
    3.9565   -0.3365    0.0000 H   0  0  0  0  0  0  0  0  0  0  0  0
    5.3491   -0.0125    0.0000 H   0  0  0  0  0  0  0  0  0  0  0  0
    6.6622    1.3006    0.0000 H   0  0  0  0  0  0  0  0  0  0  0  0
    5.3983    2.5645    0.0000 H   0  0  0  0  0  0  0  0  0  0  0  0
   -4.2365   -1.8924    0.0000 H   0  0  0  0  0  0  0  0  0  0  0  0
   -5.1632   -1.3573    0.0000 H   0  0  0  0  0  0  0  0  0  0  0  0
   -5.8776   -0.9447    0.0000 H   0  0  0  0  0  0  0  0  0  0  0  0
   -5.8775    0.1252    0.0000 H   0  0  0  0  0  0  0  0  0  0  0  0
   -4.2365    1.8976    0.0000 H   0  0  0  0  0  0  0  0  0  0  0  0
   -3.3098    1.3626    0.0000 H   0  0  0  0  0  0  0  0  0  0  0  0
   -2.5953    0.9500    0.0000 H   0  0  0  0  0  0  0  0  0  0  0  0
   -2.5954   -0.1200    0.0000 H   0  0  0  0  0  0  0  0  0  0  0  0
   -5.6653    1.8976    0.0000 H   0  0  0  0  0  0  0  0  0  0  0  0
   -6.5921    0.2927    0.0000 H   0  0  0  0  0  0  0  0  0  0  0  0
   -6.5920    1.3627    0.0000 H   0  0  0  0  0  0  0  0  0  0  0  0
  1  6  1  0  0  0  0
  1 17  1  0  0  0  0
  2  1  2  0  0  0  0
  2 36  1  0  0  0  0
  3  2  1  0  0  0  0
  3 37  1  0  0  0  0
  4  3  2  0  0  0  0
  4  7  1  0  0  0  0
  5  4  1  0  0  0  0
  5 38  1  0  0  0  0
  6  5  2  0  0  0  0
  6 39  1  0  0  0  0
  7  8  1  0  0  0  0
  7 40  1  0  0  0  0
  8 13  1  0  0  0  0
  9  8  2  0  0  0  0
 10  9  1  0  0  0  0
 10 18  1  0  0  0  0
 11 10  2  0  0  0  0
 11 16  1  0  0  0  0
 12 11  1  0  0  0  0
 12 14  1  0  0  0  0
 13 12  2  0  0  0  0
 14 15  1  0  0  0  0
 14 41  1  0  0  0  0
 15 16  2  0  0  0  0
 15 42  1  0  0  0  0
 16 43  1  0  0  0  0
 17 34  1  0  0  0  0
 18 19  1  0  0  0  0
 19 24  1  0  0  0  0
 20 19  2  0  0  0  0
 20 44  1  0  0  0  0
 21 20  1  0  0  0  0
 21 45  1  0  0  0  0
 22 21  2  0  0  0  0
 22 46  1  0  0  0  0
 23 22  1  0  0  0  0
 23 25  1  0  0  0  0
 24 23  2  0  0  0  0
 24 47  1  0  0  0  0
 25 26  1  0  0  0  0
 25 48  1  0  0  0  0
 26 27  1  0  0  0  0
 26 29  2  0  0  0  0
 27 28  2  0  0  0  0
 27 49  1  0  0  0  0
 28 50  1  0  0  0  0
 28 51  1  0  0  0  0
 30 17  1  0  0  0  0
 30 52  1  0  0  0  0
 30 53  1  0  0  0  0
 31 30  1  0  0  0  0
 31 54  1  0  0  0  0
 31 55  1  0  0  0  0
 32 31  1  0  0  0  0
 32 35  1  0  0  0  0
 33 32  1  0  0  0  0
 33 56  1  0  0  0  0
 33 57  1  0  0  0  0
 34 33  1  0  0  0  0
 34 58  1  0  0  0  0
 34 59  1  0  0  0  0
 35 60  1  0  0  0  0
 35 61  1  0  0  0  0
 35 62  1  0  0  0  0
M  END
>  <DRUGBANK_ID>
DB15327

>  <COMMON_NAME>
Abivertinib

>  <CAS_NUMBER>
1557267-42-1

>  <UNII>
CER0OPG92L

>  <SYNONYMS>
Abivertinib

$$$$
