
 OpenBabel10282417072D

 71 75  0  0  0  0  0  0  0  0999 V2000
   -4.1491  -10.3213    0.0000 C   0  0  0  0  0  0  0  0  0  0  0  0
   -4.1492   -9.4963    0.0000 N   0  0  0  0  0  0  0  0  0  0  0  0
   -4.8637   -9.0838    0.0000 C   0  0  0  0  0  0  0  0  0  0  0  0
   -3.4347   -9.0837    0.0000 C   0  0  0  0  0  0  0  0  0  0  0  0
   -2.7202   -9.4962    0.0000 C   0  0  0  0  0  0  0  0  0  0  0  0
   -2.0058   -9.0837    0.0000 C   0  0  0  0  0  0  0  0  0  0  0  0
   -2.0058   -8.2587    0.0000 C   0  0  0  0  0  0  0  0  0  0  0  0
   -2.7203   -7.8462    0.0000 C   0  0  0  0  0  0  0  0  0  0  0  0
   -3.4348   -8.2587    0.0000 C   0  0  0  0  0  0  0  0  0  0  0  0
   -4.1493   -7.8463    0.0000 C   0  0  0  0  0  0  0  0  0  0  0  0
   -4.1493   -7.0213    0.0000 C   0  0  0  0  0  0  0  0  0  0  0  0
   -3.4349   -6.6087    0.0000 C   0  0  0  0  0  0  0  0  0  0  0  0
   -2.7204   -7.0212    0.0000 C   0  0  0  0  0  0  0  0  0  0  0  0
   -2.0059   -6.6087    0.0000 S   0  0  0  0  0  0  0  0  0  0  0  0
   -1.5934   -7.3231    0.0000 O   0  0  0  0  0  0  0  0  0  0  0  0
   -2.4185   -5.8942    0.0000 O   0  0  0  0  0  0  0  0  0  0  0  0
   -1.2915   -6.1961    0.0000 N   0  0  0  0  0  0  0  0  0  0  0  0
   -1.2915   -5.3711    0.0000 C   0  0  0  0  0  0  0  0  0  0  0  0
   -0.5771   -4.9586    0.0000 C   0  0  0  0  0  0  0  0  0  0  0  0
   -0.5771   -4.1336    0.0000 C   0  0  0  0  0  0  0  0  0  0  0  0
    0.1373   -3.7210    0.0000 C   0  0  0  0  0  0  0  0  0  0  0  0
    0.1373   -2.8960    0.0000 N   0  0  0  0  0  0  0  0  0  0  0  0
    0.8517   -2.4835    0.0000 C   0  0  0  0  0  0  0  0  0  0  0  0
    1.5662   -2.8960    0.0000 O   0  0  0  0  0  0  0  0  0  0  0  0
    0.8517   -1.6585    0.0000 C   0  0  2  0  0  0  0  0  0  0  0  0
    0.1163   -2.0322    0.0000 C   0  0  0  0  0  0  0  0  0  0  0  0
    0.5657   -1.2419    0.0000 C   0  0  1  0  0  0  0  0  0  0  0  0
    1.3012   -1.6156    0.0000 C   0  0  0  0  0  0  0  0  0  0  0  0
    2.0368   -1.2419    0.0000 C   0  0  2  0  0  0  0  0  0  0  0  0
    2.0368   -0.4945    0.0000 C   0  0  0  0  0  0  0  0  0  0  0  0
    1.3012   -0.1208    0.0000 C   0  0  2  0  0  0  0  0  0  0  0  0
    0.5657   -0.4945    0.0000 C   0  0  0  0  0  0  0  0  0  0  0  0
    0.8517   -0.9111    0.0000 C   0  0  0  0  0  0  0  0  0  0  0  0
    1.5873   -2.0322    0.0000 C   0  0  0  0  0  0  0  0  0  0  0  0
   -5.0757  -10.8564    0.0000 H   0  0  0  0  0  0  0  0  0  0  0  0
   -3.2224  -10.8562    0.0000 H   0  0  0  0  0  0  0  0  0  0  0  0
   -4.1490  -11.3913    0.0000 H   0  0  0  0  0  0  0  0  0  0  0  0
   -4.8637   -8.0138    0.0000 H   0  0  0  0  0  0  0  0  0  0  0  0
   -5.7903   -9.6188    0.0000 H   0  0  0  0  0  0  0  0  0  0  0  0
   -5.7904   -8.5488    0.0000 H   0  0  0  0  0  0  0  0  0  0  0  0
   -2.7202  -10.5282    0.0000 H   0  0  0  0  0  0  0  0  0  0  0  0
   -1.1121   -9.5997    0.0000 H   0  0  0  0  0  0  0  0  0  0  0  0
   -1.1121   -7.7427    0.0000 H   0  0  0  0  0  0  0  0  0  0  0  0
   -5.0430   -8.3624    0.0000 H   0  0  0  0  0  0  0  0  0  0  0  0
   -5.0431   -6.5054    0.0000 H   0  0  0  0  0  0  0  0  0  0  0  0
   -3.4350   -5.5767    0.0000 H   0  0  0  0  0  0  0  0  0  0  0  0
   -0.4081   -6.7060    0.0000 H   0  0  0  0  0  0  0  0  0  0  0  0
   -2.2182   -4.8361    0.0000 H   0  0  0  0  0  0  0  0  0  0  0  0
   -1.2915   -4.3011    0.0000 H   0  0  0  0  0  0  0  0  0  0  0  0
    0.3496   -5.4936    0.0000 H   0  0  0  0  0  0  0  0  0  0  0  0
    0.3495   -4.4236    0.0000 H   0  0  0  0  0  0  0  0  0  0  0  0
   -1.5038   -3.5987    0.0000 H   0  0  0  0  0  0  0  0  0  0  0  0
   -0.5772   -3.0636    0.0000 H   0  0  0  0  0  0  0  0  0  0  0  0
    1.0640   -4.2559    0.0000 H   0  0  0  0  0  0  0  0  0  0  0  0
    1.0639   -3.1860    0.0000 H   0  0  0  0  0  0  0  0  0  0  0  0
   -0.7153   -2.4038    0.0000 H   0  0  0  0  0  0  0  0  0  0  0  0
   -0.6578   -2.7709    0.0000 H   0  0  0  0  0  0  0  0  0  0  0  0
   -0.7271   -1.3737    0.0000 H   0  0  0  0  0  0  0  0  0  0  0  0
    0.8735   -2.2667    0.0000 H   0  0  0  0  0  0  0  0  0  0  0  0
    1.3012   -2.6856    0.0000 H   0  0  0  0  0  0  0  0  0  0  0  0
    2.2132   -2.1752    0.0000 H   0  0  0  0  0  0  0  0  0  0  0  0
    1.2626   -1.9805    0.0000 H   0  0  0  0  0  0  0  0  0  0  0  0
    2.9488    0.0651    0.0000 H   0  0  0  0  0  0  0  0  0  0  0  0
    2.9705   -1.0170    0.0000 H   0  0  0  0  0  0  0  0  0  0  0  0
    1.3012   -1.1908    0.0000 H   0  0  0  0  0  0  0  0  0  0  0  0
   -0.3463    0.0651    0.0000 H   0  0  0  0  0  0  0  0  0  0  0  0
   -0.3680   -1.0171    0.0000 H   0  0  0  0  0  0  0  0  0  0  0  0
   -0.1827   -0.6375    0.0000 H   0  0  0  0  0  0  0  0  0  0  0  0
    0.0039   -1.5638    0.0000 H   0  0  0  0  0  0  0  0  0  0  0  0
    1.8951   -3.0570    0.0000 H   0  0  0  0  0  0  0  0  0  0  0  0
    2.6505   -2.1525    0.0000 H   0  0  0  0  0  0  0  0  0  0  0  0
  1  2  1  0  0  0  0
  1 35  1  0  0  0  0
  1 36  1  0  0  0  0
  1 37  1  0  0  0  0
  2  3  1  0  0  0  0
  2  4  1  0  0  0  0
  3 38  1  0  0  0  0
  3 39  1  0  0  0  0
  3 40  1  0  0  0  0
  4  5  2  0  0  0  0
  4  9  1  0  0  0  0
  5  6  1  0  0  0  0
  5 41  1  0  0  0  0
  6  7  2  0  0  0  0
  6 42  1  0  0  0  0
  7  8  1  0  0  0  0
  7 43  1  0  0  0  0
  8  9  2  0  0  0  0
  8 13  1  0  0  0  0
  9 10  1  0  0  0  0
 10 11  2  0  0  0  0
 10 44  1  0  0  0  0
 11 12  1  0  0  0  0
 11 45  1  0  0  0  0
 12 13  2  0  0  0  0
 12 46  1  0  0  0  0
 13 14  1  0  0  0  0
 14 15  2  0  0  0  0
 14 16  2  0  0  0  0
 14 17  1  0  0  0  0
 17 18  1  0  0  0  0
 17 47  1  0  0  0  0
 18 19  1  0  0  0  0
 18 48  1  0  0  0  0
 18 49  1  0  0  0  0
 19 20  1  0  0  0  0
 19 50  1  0  0  0  0
 19 51  1  0  0  0  0
 20 21  1  0  0  0  0
 20 52  1  0  0  0  0
 20 53  1  0  0  0  0
 21 22  1  0  0  0  0
 21 54  1  0  0  0  0
 21 55  1  0  0  0  0
 22 23  1  0  0  0  0
 22 56  1  0  0  0  0
 23 24  2  0  0  0  0
 25 23  1  6  0  0  0
 25 26  1  0  0  0  0
 25 34  1  0  0  0  0
 25 33  1  0  0  0  0
 26 57  1  0  0  0  0
 26 58  1  0  0  0  0
 27 26  1  0  0  0  0
 27 28  1  0  0  0  0
 27 32  1  0  0  0  0
 27 59  1  1  0  0  0
 28 60  1  0  0  0  0
 28 61  1  0  0  0  0
 29 28  1  0  0  0  0
 29 34  1  0  0  0  0
 29 30  1  0  0  0  0
 29 62  1  1  0  0  0
 30 63  1  0  0  0  0
 30 64  1  0  0  0  0
 31 30  1  0  0  0  0
 31 32  1  0  0  0  0
 31 33  1  0  0  0  0
 31 65  1  6  0  0  0
 32 66  1  0  0  0  0
 32 67  1  0  0  0  0
 33 68  1  0  0  0  0
 33 69  1  0  0  0  0
 34 70  1  0  0  0  0
 34 71  1  0  0  0  0
M  END
>  <DRUGBANK_ID>
DB04032

>  <SECONDARY_ACCESSION_NUMBERS>
EXPT01125

>  <COMMON_NAME>
Adamantane-1-Carboxylic Acid-5-Dimethylamino-Naphthalene-1-Sulfonylamino-Butyl-Amide

$$$$
