4AN
 OpenBabel10282417072D

 24 26  0  0  0  0  0  0  0  0999 V2000
   -0.9692    1.2841    0.0000 C   0  0  0  0  0  0  0  0  0  0  0  0
   -0.9692    2.1091    0.0000 O   0  0  0  0  0  0  0  0  0  0  0  0
   -0.2548    0.8716    0.0000 C   0  0  0  0  0  0  0  0  0  0  0  0
    0.4597    1.2841    0.0000 C   0  0  0  0  0  0  0  0  0  0  0  0
    1.1742    0.8716    0.0000 C   0  0  0  0  0  0  0  0  0  0  0  0
    1.1742    0.0466    0.0000 C   0  0  0  0  0  0  0  0  0  0  0  0
    1.8887   -0.3659    0.0000 N   0  0  0  0  0  0  0  0  0  0  0  0
    0.4597   -1.1909    0.0000 C   0  0  0  0  0  0  0  0  0  0  0  0
   -0.2548   -1.6034    0.0000 C   0  0  0  0  0  0  0  0  0  0  0  0
   -0.9692   -1.1909    0.0000 C   0  0  0  0  0  0  0  0  0  0  0  0
   -0.9692   -0.3659    0.0000 C   0  0  0  0  0  0  0  0  0  0  0  0
   -1.6837    0.0466    0.0000 C   0  0  0  0  0  0  0  0  0  0  0  0
   -2.3982   -0.3659    0.0000 O   0  0  0  0  0  0  0  0  0  0  0  0
   -1.6837    0.8716    0.0000 N   0  0  0  0  0  0  0  0  0  0  0  0
   -0.2548    0.0466    0.0000 C   0  0  0  0  0  0  0  0  0  0  0  0
    0.4597   -0.3659    0.0000 C   0  0  0  0  0  0  0  0  0  0  0  0
    0.4597    2.3161    0.0000 H   0  0  0  0  0  0  0  0  0  0  0  0
    2.0679    1.3876    0.0000 H   0  0  0  0  0  0  0  0  0  0  0  0
    1.8887   -1.3504    0.0000 H   0  0  0  0  0  0  0  0  0  0  0  0
    2.7413    0.1264    0.0000 H   0  0  0  0  0  0  0  0  0  0  0  0
    1.3534   -1.7069    0.0000 H   0  0  0  0  0  0  0  0  0  0  0  0
   -0.2548   -2.6354    0.0000 H   0  0  0  0  0  0  0  0  0  0  0  0
   -1.8629   -1.7069    0.0000 H   0  0  0  0  0  0  0  0  0  0  0  0
   -2.5363    1.3639    0.0000 H   0  0  0  0  0  0  0  0  0  0  0  0
  1  2  2  0  0  0  0
  1  3  1  0  0  0  0
  1 14  1  0  0  0  0
  3  4  2  0  0  0  0
  3 15  1  0  0  0  0
  4  5  1  0  0  0  0
  4 17  1  0  0  0  0
  5  6  2  0  0  0  0
  5 18  1  0  0  0  0
  6  7  1  0  0  0  0
  6 16  1  0  0  0  0
  7 19  1  0  0  0  0
  7 20  1  0  0  0  0
  8  9  2  0  0  0  0
  8 16  1  0  0  0  0
  8 21  1  0  0  0  0
  9 10  1  0  0  0  0
  9 22  1  0  0  0  0
 10 11  2  0  0  0  0
 10 23  1  0  0  0  0
 11 12  1  0  0  0  0
 11 15  1  0  0  0  0
 12 13  2  0  0  0  0
 12 14  1  0  0  0  0
 14 24  1  0  0  0  0
 15 16  2  0  0  0  0
M  END
>  <DRUGBANK_ID>
DB07096

>  <COMMON_NAME>
6-AMINO-BENZO[DE]ISOQUINOLINE-1,3-DIONE

>  <UNII>
S529AR2S8B

$$$$
