
 OpenBabel10282417072D

116121  0  0  1  0  0  0  0  0999 V2000
    5.6857    5.4636    0.0000 C   0  0  0  0  0  0  0  0  0  0  0  0
    5.0253    4.9690    0.0000 C   0  0  0  0  0  0  0  0  0  0  0  0
    5.1234    4.1499    0.0000 C   0  0  0  0  0  0  0  0  0  0  0  0
    5.8819    3.8253    0.0000 O   0  0  0  0  0  0  0  0  0  0  0  0
    4.4631    3.6554    0.0000 O   0  0  0  0  0  0  0  0  0  0  0  0
    4.5612    2.8362    0.0000 C   0  0  1  0  0  0  0  0  0  0  0  0
    5.3196    2.5116    0.0000 C   0  0  0  0  0  0  0  0  0  0  0  0
    5.4177    1.6924    0.0000 C   0  0  2  0  0  0  0  0  0  0  0  0
    4.7573    1.1979    0.0000 C   0  0  1  0  0  0  0  0  0  0  0  0
    5.2518    0.5376    0.0000 C   0  0  0  0  0  0  0  0  0  0  0  0
    5.9122    1.0321    0.0000 O   0  0  0  0  0  0  0  0  0  0  0  0
    3.9989    1.5226    0.0000 C   0  0  2  0  0  0  0  0  0  0  0  0
    3.9008    2.3417    0.0000 C   0  0  2  0  0  0  0  0  0  0  0  0
    3.2185    2.8529    0.0000 C   0  0  0  0  0  0  0  0  0  0  0  0
    3.4053    3.6565    0.0000 O   0  0  0  0  0  0  0  0  0  0  0  0
    2.3774    2.6946    0.0000 C   0  0  1  0  0  0  0  0  0  0  0  0
    1.8259    2.0178    0.0000 C   0  0  0  0  0  0  0  0  0  0  0  0
    1.0992    1.5462    0.0000 C   0  0  0  0  0  0  0  0  0  0  0  0
    1.0745    0.7012    0.0000 C   0  0  2  0  0  0  0  0  0  0  0  0
    1.8241    0.3104    0.0000 C   0  0  0  0  0  0  0  0  0  0  0  0
    2.5904    0.7145    0.0000 C   0  0  1  0  0  0  0  0  0  0  0  0
    3.4503    0.8657    0.0000 C   0  0  1  0  0  0  0  0  0  0  0  0
    3.8634    0.1516    0.0000 O   0  0  0  0  0  0  0  0  0  0  0  0
    3.4516   -0.5632    0.0000 C   0  0  0  0  0  0  0  0  0  0  0  0
    2.6266   -0.5640    0.0000 O   0  0  0  0  0  0  0  0  0  0  0  0
    3.8647   -1.2773    0.0000 C   0  0  0  0  0  0  0  0  0  0  0  0
    4.6897   -1.2766    0.0000 C   0  0  0  0  0  0  0  0  0  0  0  0
    5.1029   -1.9907    0.0000 C   0  0  0  0  0  0  0  0  0  0  0  0
    4.6910   -2.7055    0.0000 C   0  0  0  0  0  0  0  0  0  0  0  0
    3.8660   -2.7063    0.0000 C   0  0  0  0  0  0  0  0  0  0  0  0
    3.4529   -1.9922    0.0000 C   0  0  0  0  0  0  0  0  0  0  0  0
    2.2657    1.3999    0.0000 C   0  0  0  0  0  0  0  0  0  0  0  0
    3.0822    1.5179    0.0000 C   0  0  0  0  0  0  0  0  0  0  0  0
    2.7670    2.0551    0.0000 C   0  0  0  0  0  0  0  0  0  0  0  0
    2.8575   -0.0660    0.0000 O   0  0  0  0  0  0  0  0  0  0  0  0
    0.3629    0.2837    0.0000 O   0  0  0  0  0  0  0  0  0  0  0  0
    0.3686   -0.5412    0.0000 C   0  0  0  0  0  0  0  0  0  0  0  0
    1.0859   -0.9488    0.0000 O   0  0  0  0  0  0  0  0  0  0  0  0
   -0.3430   -0.9587    0.0000 C   0  0  1  0  0  0  0  0  0  0  0  0
   -0.3373   -1.7837    0.0000 C   0  0  2  0  0  0  0  0  0  0  0  0
    0.3800   -2.1912    0.0000 C   0  0  0  0  0  0  0  0  0  0  0  0
    1.1313   -1.8504    0.0000 C   0  0  0  0  0  0  0  0  0  0  0  0
    1.6876   -2.4597    0.0000 C   0  0  0  0  0  0  0  0  0  0  0  0
    1.2801   -3.1770    0.0000 C   0  0  0  0  0  0  0  0  0  0  0  0
    0.4719   -3.0111    0.0000 O   0  0  0  0  0  0  0  0  0  0  0  0
   -1.0489   -2.2011    0.0000 N   0  0  0  0  0  0  0  0  0  0  0  0
   -1.0432   -3.0261    0.0000 C   0  0  0  0  0  0  0  0  0  0  0  0
   -0.3259   -3.4336    0.0000 O   0  0  0  0  0  0  0  0  0  0  0  0
   -1.7548   -3.4435    0.0000 O   0  0  0  0  0  0  0  0  0  0  0  0
   -1.7491   -4.2685    0.0000 C   0  0  0  0  0  0  0  0  0  0  0  0
   -1.7434   -5.0935    0.0000 C   0  0  0  0  0  0  0  0  0  0  0  0
   -2.5741   -4.2742    0.0000 C   0  0  0  0  0  0  0  0  0  0  0  0
   -0.9241   -4.2628    0.0000 C   0  0  0  0  0  0  0  0  0  0  0  0
   -1.0603   -0.5511    0.0000 O   0  0  0  0  0  0  0  0  0  0  0  0
    0.3800    1.9504    0.0000 C   0  0  0  0  0  0  0  0  0  0  0  0
    1.9557    3.4037    0.0000 O   0  0  0  0  0  0  0  0  0  0  0  0
    3.9009    3.1667    0.0000 C   0  0  0  0  0  0  0  0  0  0  0  0
    4.2474    0.5493    0.0000 O   0  0  0  0  0  0  0  0  0  0  0  0
    4.5542   -0.2165    0.0000 C   0  0  0  0  0  0  0  0  0  0  0  0
    4.0443   -0.8651    0.0000 O   0  0  0  0  0  0  0  0  0  0  0  0
    5.3708   -0.3338    0.0000 C   0  0  0  0  0  0  0  0  0  0  0  0
    6.6694    5.0426    0.0000 H   0  0  0  0  0  0  0  0  0  0  0  0
    5.5584    6.5260    0.0000 H   0  0  0  0  0  0  0  0  0  0  0  0
    6.5421    6.1050    0.0000 H   0  0  0  0  0  0  0  0  0  0  0  0
    4.0416    5.3900    0.0000 H   0  0  0  0  0  0  0  0  0  0  0  0
    4.1689    4.3276    0.0000 H   0  0  0  0  0  0  0  0  0  0  0  0
    5.4177    3.4776    0.0000 H   0  0  0  0  0  0  0  0  0  0  0  0
    6.1761    3.1530    0.0000 H   0  0  0  0  0  0  0  0  0  0  0  0
    6.3033    2.0906    0.0000 H   0  0  0  0  0  0  0  0  0  0  0  0
    6.4110    2.0903    0.0000 H   0  0  0  0  0  0  0  0  0  0  0  0
    5.0997   -0.5215    0.0000 H   0  0  0  0  0  0  0  0  0  0  0  0
    6.1721   -0.0083    0.0000 H   0  0  0  0  0  0  0  0  0  0  0  0
    4.8554    2.1639    0.0000 H   0  0  0  0  0  0  0  0  0  0  0  0
    2.8177    3.6698    0.0000 H   0  0  0  0  0  0  0  0  0  0  0  0
    0.1539    1.2465    0.0000 H   0  0  0  0  0  0  0  0  0  0  0  0
    1.8266   -0.7596    0.0000 H   0  0  0  0  0  0  0  0  0  0  0  0
    2.7410   -0.2412    0.0000 H   0  0  0  0  0  0  0  0  0  0  0  0
    2.9983   -0.1041    0.0000 H   0  0  0  0  0  0  0  0  0  0  0  0
    5.2049   -0.3824    0.0000 H   0  0  0  0  0  0  0  0  0  0  0  0
    6.1349   -1.9898    0.0000 H   0  0  0  0  0  0  0  0  0  0  0  0
    5.2078   -3.5988    0.0000 H   0  0  0  0  0  0  0  0  0  0  0  0
    3.3508   -3.6005    0.0000 H   0  0  0  0  0  0  0  0  0  0  0  0
    2.4209   -1.9932    0.0000 H   0  0  0  0  0  0  0  0  0  0  0  0
    3.7442    0.6773    0.0000 H   0  0  0  0  0  0  0  0  0  0  0  0
    3.4792    2.5115    0.0000 H   0  0  0  0  0  0  0  0  0  0  0  0
    4.1412    1.6709    0.0000 H   0  0  0  0  0  0  0  0  0  0  0  0
    3.8280    1.9169    0.0000 H   0  0  0  0  0  0  0  0  0  0  0  0
    2.3561    3.0431    0.0000 H   0  0  0  0  0  0  0  0  0  0  0  0
    3.4172    2.9049    0.0000 H   0  0  0  0  0  0  0  0  0  0  0  0
    2.2197   -0.7969    0.0000 H   0  0  0  0  0  0  0  0  0  0  0  0
   -0.3504    0.1113    0.0000 H   0  0  0  0  0  0  0  0  0  0  0  0
   -1.2676   -1.2551    0.0000 H   0  0  0  0  0  0  0  0  0  0  0  0
    1.3388   -0.8395    0.0000 H   0  0  0  0  0  0  0  0  0  0  0  0
    2.7132   -2.3447    0.0000 H   0  0  0  0  0  0  0  0  0  0  0  0
    1.7064   -4.1168    0.0000 H   0  0  0  0  0  0  0  0  0  0  0  0
   -1.9049   -1.7147    0.0000 H   0  0  0  0  0  0  0  0  0  0  0  0
   -2.6663   -5.6349    0.0000 H   0  0  0  0  0  0  0  0  0  0  0  0
   -0.8131   -5.6221    0.0000 H   0  0  0  0  0  0  0  0  0  0  0  0
   -1.7360   -6.1635    0.0000 H   0  0  0  0  0  0  0  0  0  0  0  0
   -3.1155   -3.3513    0.0000 H   0  0  0  0  0  0  0  0  0  0  0  0
   -3.1027   -5.2045    0.0000 H   0  0  0  0  0  0  0  0  0  0  0  0
   -3.6441   -4.2816    0.0000 H   0  0  0  0  0  0  0  0  0  0  0  0
   -0.3827   -5.1857    0.0000 H   0  0  0  0  0  0  0  0  0  0  0  0
   -0.3955   -3.3325    0.0000 H   0  0  0  0  0  0  0  0  0  0  0  0
    0.1459   -4.2554    0.0000 H   0  0  0  0  0  0  0  0  0  0  0  0
   -1.0670    0.4189    0.0000 H   0  0  0  0  0  0  0  0  0  0  0  0
    0.3676    3.0203    0.0000 H   0  0  0  0  0  0  0  0  0  0  0  0
   -0.5404    1.4047    0.0000 H   0  0  0  0  0  0  0  0  0  0  0  0
   -0.5528    2.4746    0.0000 H   0  0  0  0  0  0  0  0  0  0  0  0
    2.4298    4.2499    0.0000 H   0  0  0  0  0  0  0  0  0  0  0  0
    4.8276    3.7016    0.0000 H   0  0  0  0  0  0  0  0  0  0  0  0
    2.9743    3.7018    0.0000 H   0  0  0  0  0  0  0  0  0  0  0  0
    3.9010    4.2367    0.0000 H   0  0  0  0  0  0  0  0  0  0  0  0
    5.7686   -1.3271    0.0000 H   0  0  0  0  0  0  0  0  0  0  0  0
    6.0321    0.5074    0.0000 H   0  0  0  0  0  0  0  0  0  0  0  0
    6.4299   -0.4859    0.0000 H   0  0  0  0  0  0  0  0  0  0  0  0
  1  2  1  0  0  0  0
  1 62  1  0  0  0  0
  1 63  1  0  0  0  0
  1 64  1  0  0  0  0
  2  3  1  0  0  0  0
  2 65  1  0  0  0  0
  2 66  1  0  0  0  0
  3  4  2  0  0  0  0
  3  5  1  0  0  0  0
  6  5  1  0  0  0  0
  6  7  1  0  0  0  0
  6 13  1  0  0  0  0
  6 67  1  6  0  0  0
  7  8  1  0  0  0  0
  7 68  1  0  0  0  0
  7 69  1  0  0  0  0
  8  9  1  0  0  0  0
  8 11  1  0  0  0  0
  8 70  1  6  0  0  0
  9 10  1  0  0  0  0
  9 58  1  6  0  0  0
 10 11  1  0  0  0  0
 10 71  1  0  0  0  0
 10 72  1  0  0  0  0
 12  9  1  0  0  0  0
 12 13  1  0  0  0  0
 12 22  1  0  0  0  0
 12 73  1  6  0  0  0
 13 14  1  0  0  0  0
 13 57  1  1  0  0  0
 14 15  2  0  0  0  0
 14 16  1  0  0  0  0
 16 17  1  0  0  0  0
 16 56  1  0  0  0  0
 16 74  1  6  0  0  0
 17 18  2  0  0  0  0
 17 32  1  0  0  0  0
 18 19  1  0  0  0  0
 18 55  1  0  0  0  0
 19 20  1  0  0  0  0
 19 36  1  0  0  0  0
 19 75  1  1  0  0  0
 20 21  1  0  0  0  0
 20 76  1  0  0  0  0
 20 77  1  0  0  0  0
 21 22  1  0  0  0  0
 21 32  1  0  0  0  0
 21 35  1  1  0  0  0
 22 23  1  0  0  0  0
 22 78  1  1  0  0  0
 23 24  1  0  0  0  0
 24 25  2  0  0  0  0
 24 26  1  0  0  0  0
 26 27  2  0  0  0  0
 26 31  1  0  0  0  0
 27 28  1  0  0  0  0
 27 79  1  0  0  0  0
 28 29  2  0  0  0  0
 28 80  1  0  0  0  0
 29 30  1  0  0  0  0
 29 81  1  0  0  0  0
 30 31  2  0  0  0  0
 30 82  1  0  0  0  0
 31 83  1  0  0  0  0
 32 33  1  0  0  0  0
 32 34  1  0  0  0  0
 33 84  1  0  0  0  0
 33 85  1  0  0  0  0
 33 86  1  0  0  0  0
 34 87  1  0  0  0  0
 34 88  1  0  0  0  0
 34 89  1  0  0  0  0
 35 90  1  0  0  0  0
 36 37  1  0  0  0  0
 37 38  2  0  0  0  0
 37 39  1  0  0  0  0
 39 40  1  0  0  0  0
 39 54  1  0  0  0  0
 39 91  1  6  0  0  0
 40 41  1  0  0  0  0
 40 46  1  0  0  0  0
 40 92  1  1  0  0  0
 41 42  2  0  0  0  0
 41 45  1  0  0  0  0
 42 43  1  0  0  0  0
 42 93  1  0  0  0  0
 43 44  2  0  0  0  0
 43 94  1  0  0  0  0
 44 45  1  0  0  0  0
 44 95  1  0  0  0  0
 46 47  1  0  0  0  0
 46 96  1  0  0  0  0
 47 48  2  0  0  0  0
 47 49  1  0  0  0  0
 49 50  1  0  0  0  0
 50 51  1  0  0  0  0
 50 52  1  0  0  0  0
 50 53  1  0  0  0  0
 51 97  1  0  0  0  0
 51 98  1  0  0  0  0
 51 99  1  0  0  0  0
 52100  1  0  0  0  0
 52101  1  0  0  0  0
 52102  1  0  0  0  0
 53103  1  0  0  0  0
 53104  1  0  0  0  0
 53105  1  0  0  0  0
 54106  1  0  0  0  0
 55107  1  0  0  0  0
 55108  1  0  0  0  0
 55109  1  0  0  0  0
 56110  1  0  0  0  0
 57111  1  0  0  0  0
 57112  1  0  0  0  0
 57113  1  0  0  0  0
 58 59  1  0  0  0  0
 59 60  2  0  0  0  0
 59 61  1  0  0  0  0
 61114  1  0  0  0  0
 61115  1  0  0  0  0
 61116  1  0  0  0  0
M  END
>  <DRUGBANK_ID>
DB12334

>  <SECONDARY_ACCESSION_NUMBERS>
DB05523

>  <COMMON_NAME>
Milataxel

>  <CAS_NUMBER>
352425-37-7

>  <UNII>
J41Q4S20GS

>  <SYNONYMS>
Milataxel

$$$$
