CIU
 OpenBabel10282417072D

 34 35  0  0  0  0  0  0  0  0999 V2000
   -0.8917    2.3077    0.0000 C   0  0  0  0  0  0  0  0  0  0  0  0
   -0.1773    1.8952    0.0000 C   0  0  0  0  0  0  0  0  0  0  0  0
   -0.1773    1.0702    0.0000 C   0  0  0  0  0  0  0  0  0  0  0  0
   -0.8917    0.6577    0.0000 C   0  0  0  0  0  0  0  0  0  0  0  0
   -1.6062    1.0702    0.0000 C   0  0  0  0  0  0  0  0  0  0  0  0
   -1.6062    1.8952    0.0000 C   0  0  0  0  0  0  0  0  0  0  0  0
    0.5372    0.6577    0.0000 N   0  0  0  0  0  0  0  0  0  0  0  0
    0.5372   -0.1673    0.0000 C   0  0  0  0  0  0  0  0  0  0  0  0
   -0.1773   -0.5798    0.0000 O   0  0  0  0  0  0  0  0  0  0  0  0
    1.2517   -0.5798    0.0000 N   0  0  0  0  0  0  0  0  0  0  0  0
    1.2517   -1.4048    0.0000 C   0  0  0  0  0  0  0  0  0  0  0  0
    1.2517   -3.8798    0.0000 I   0  0  0  0  0  0  0  0  0  0  0  0
    1.9662   -1.8173    0.0000 C   0  0  0  0  0  0  0  0  0  0  0  0
    1.9662   -2.6423    0.0000 C   0  0  0  0  0  0  0  0  0  0  0  0
    1.2517   -3.0548    0.0000 C   0  0  0  0  0  0  0  0  0  0  0  0
    0.5372   -2.6423    0.0000 C   0  0  0  0  0  0  0  0  0  0  0  0
    0.5372   -1.8173    0.0000 C   0  0  0  0  0  0  0  0  0  0  0  0
   -0.8917    3.3777    0.0000 H   0  0  0  0  0  0  0  0  0  0  0  0
   -1.8183    2.8427    0.0000 H   0  0  0  0  0  0  0  0  0  0  0  0
    0.7494    2.4302    0.0000 H   0  0  0  0  0  0  0  0  0  0  0  0
    0.7493    1.3602    0.0000 H   0  0  0  0  0  0  0  0  0  0  0  0
   -0.1773    0.0002    0.0000 H   0  0  0  0  0  0  0  0  0  0  0  0
   -0.8917   -0.4123    0.0000 H   0  0  0  0  0  0  0  0  0  0  0  0
   -1.8183    0.1227    0.0000 H   0  0  0  0  0  0  0  0  0  0  0  0
   -2.5328    0.5352    0.0000 H   0  0  0  0  0  0  0  0  0  0  0  0
   -2.5328    1.6052    0.0000 H   0  0  0  0  0  0  0  0  0  0  0  0
   -2.5328    2.4302    0.0000 H   0  0  0  0  0  0  0  0  0  0  0  0
   -2.5328    1.3602    0.0000 H   0  0  0  0  0  0  0  0  0  0  0  0
    1.3898    1.1500    0.0000 H   0  0  0  0  0  0  0  0  0  0  0  0
    2.1043   -0.0875    0.0000 H   0  0  0  0  0  0  0  0  0  0  0  0
    2.8599   -1.3013    0.0000 H   0  0  0  0  0  0  0  0  0  0  0  0
    2.8599   -3.1583    0.0000 H   0  0  0  0  0  0  0  0  0  0  0  0
   -0.3565   -3.1583    0.0000 H   0  0  0  0  0  0  0  0  0  0  0  0
   -0.3565   -1.3013    0.0000 H   0  0  0  0  0  0  0  0  0  0  0  0
  1  2  1  0  0  0  0
  1  6  1  0  0  0  0
  1 18  1  0  0  0  0
  1 19  1  0  0  0  0
  2  3  1  0  0  0  0
  2 20  1  0  0  0  0
  2 21  1  0  0  0  0
  3  4  1  0  0  0  0
  3  7  1  0  0  0  0
  3 22  1  0  0  0  0
  4  5  1  0  0  0  0
  4 23  1  0  0  0  0
  4 24  1  0  0  0  0
  5  6  1  0  0  0  0
  5 25  1  0  0  0  0
  5 26  1  0  0  0  0
  6 27  1  0  0  0  0
  6 28  1  0  0  0  0
  7  8  1  0  0  0  0
  7 29  1  0  0  0  0
  8  9  2  0  0  0  0
  8 10  1  0  0  0  0
 10 11  1  0  0  0  0
 10 30  1  0  0  0  0
 11 13  2  0  0  0  0
 11 17  1  0  0  0  0
 12 15  1  0  0  0  0
 13 14  1  0  0  0  0
 13 31  1  0  0  0  0
 14 15  2  0  0  0  0
 14 32  1  0  0  0  0
 15 16  1  0  0  0  0
 16 17  2  0  0  0  0
 16 33  1  0  0  0  0
 17 34  1  0  0  0  0
M  END
>  <DRUGBANK_ID>
DB02029

>  <SECONDARY_ACCESSION_NUMBERS>
EXPT00923

>  <COMMON_NAME>
N-Cyclohexyl-N'-(4-Iodophenyl)Urea

$$$$
