408
 OpenBabel10282417072D

 41 44  0  0  0  0  0  0  0  0999 V2000
    1.5841   -1.1304    0.0000 Cl  0  0  0  0  0  0  0  0  0  0  0  0
    4.6238   -2.1816    0.0000 O   0  0  0  0  0  0  0  0  0  0  0  0
    3.8841    0.2673    0.0000 N   0  0  0  0  0  0  0  0  0  0  0  0
    3.1967    1.6946    0.0000 N   0  0  0  0  0  0  0  0  0  0  0  0
    5.0198   -0.4464    0.0000 N   0  0  0  0  0  0  0  0  0  0  0  0
    4.3303    0.9217    0.0000 C   0  0  0  0  0  0  0  0  0  0  0  0
    3.0943    0.3265    0.0000 C   0  0  0  0  0  0  0  0  0  0  0  0
    3.9866    1.6354    0.0000 C   0  0  0  0  0  0  0  0  0  0  0  0
    2.7505    1.0402    0.0000 C   0  0  0  0  0  0  0  0  0  0  0  0
    4.2277   -0.4464    0.0000 C   0  0  0  0  0  0  0  0  0  0  0  0
    2.8531    2.4082    0.0000 C   0  0  0  0  0  0  0  0  0  0  0  0
    3.7338   -1.0656    0.0000 C   0  0  0  0  0  0  0  0  0  0  0  0
    3.9102   -1.8378    0.0000 C   0  0  0  0  0  0  0  0  0  0  0  0
    5.5136   -1.0656    0.0000 C   0  0  0  0  0  0  0  0  0  0  0  0
    2.9493   -0.8103    0.0000 C   0  0  0  0  0  0  0  0  0  0  0  0
    5.3375   -1.8378    0.0000 C   0  0  0  0  0  0  0  0  0  0  0  0
    3.3140   -2.4082    0.0000 C   0  0  0  0  0  0  0  0  0  0  0  0
    2.3402   -1.3668    0.0000 C   0  0  0  0  0  0  0  0  0  0  0  0
    2.5237   -2.1711    0.0000 C   0  0  0  0  0  0  0  0  0  0  0  0
    6.2983   -0.8103    0.0000 C   0  0  0  0  0  0  0  0  0  0  0  0
    5.9335   -2.4082    0.0000 C   0  0  0  0  0  0  0  0  0  0  0  0
    6.9074   -1.3669    0.0000 C   0  0  0  0  0  0  0  0  0  0  0  0
    6.7237   -2.1712    0.0000 C   0  0  0  0  0  0  0  0  0  0  0  0
    5.3973    0.8417    0.0000 H   0  0  0  0  0  0  0  0  0  0  0  0
    4.9331    1.8058    0.0000 H   0  0  0  0  0  0  0  0  0  0  0  0
    2.4916   -0.5576    0.0000 H   0  0  0  0  0  0  0  0  0  0  0  0
    2.0273    0.4064    0.0000 H   0  0  0  0  0  0  0  0  0  0  0  0
    4.5894    2.5195    0.0000 H   0  0  0  0  0  0  0  0  0  0  0  0
    5.0536    1.5554    0.0000 H   0  0  0  0  0  0  0  0  0  0  0  0
    1.6835    1.1201    0.0000 H   0  0  0  0  0  0  0  0  0  0  0  0
    2.1478    0.1561    0.0000 H   0  0  0  0  0  0  0  0  0  0  0  0
    3.4559    3.2922    0.0000 H   0  0  0  0  0  0  0  0  0  0  0  0
    1.7861    2.4882    0.0000 H   0  0  0  0  0  0  0  0  0  0  0  0
    2.3889    3.3723    0.0000 H   0  0  0  0  0  0  0  0  0  0  0  0
    2.7313    0.1984    0.0000 H   0  0  0  0  0  0  0  0  0  0  0  0
    3.5552   -3.4116    0.0000 H   0  0  0  0  0  0  0  0  0  0  0  0
    1.7699   -2.8759    0.0000 H   0  0  0  0  0  0  0  0  0  0  0  0
    6.5164    0.1984    0.0000 H   0  0  0  0  0  0  0  0  0  0  0  0
    5.6922   -3.4116    0.0000 H   0  0  0  0  0  0  0  0  0  0  0  0
    7.8924   -1.0590    0.0000 H   0  0  0  0  0  0  0  0  0  0  0  0
    7.4774   -2.8761    0.0000 H   0  0  0  0  0  0  0  0  0  0  0  0
  1 18  1  0  0  0  0
  2 13  1  0  0  0  0
  2 16  1  0  0  0  0
  3  6  1  0  0  0  0
  3  7  1  0  0  0  0
  3 10  1  0  0  0  0
  4  8  1  0  0  0  0
  4  9  1  0  0  0  0
  4 11  1  0  0  0  0
  5 10  2  0  0  0  0
  5 14  1  0  0  0  0
  6  8  1  0  0  0  0
  6 24  1  0  0  0  0
  6 25  1  0  0  0  0
  7  9  1  0  0  0  0
  7 26  1  0  0  0  0
  7 27  1  0  0  0  0
  8 28  1  0  0  0  0
  8 29  1  0  0  0  0
  9 30  1  0  0  0  0
  9 31  1  0  0  0  0
 10 12  1  0  0  0  0
 11 32  1  0  0  0  0
 11 33  1  0  0  0  0
 11 34  1  0  0  0  0
 12 13  2  0  0  0  0
 12 15  1  0  0  0  0
 13 17  1  0  0  0  0
 14 16  1  0  0  0  0
 14 20  2  0  0  0  0
 15 18  2  0  0  0  0
 15 35  1  0  0  0  0
 16 21  2  0  0  0  0
 17 19  2  0  0  0  0
 17 36  1  0  0  0  0
 18 19  1  0  0  0  0
 19 37  1  0  0  0  0
 20 22  1  0  0  0  0
 20 38  1  0  0  0  0
 21 23  1  0  0  0  0
 21 39  1  0  0  0  0
 22 23  2  0  0  0  0
 22 40  1  0  0  0  0
 23 41  1  0  0  0  0
M  END
>  <DRUGBANK_ID>
DB00408

>  <SECONDARY_ACCESSION_NUMBERS>
APRD00574

>  <COMMON_NAME>
Loxapine

>  <CAS_NUMBER>
1977-10-2

>  <UNII>
LER583670J

>  <SYNONYMS>
2-Chloro-11-(4-methyl-1-piperazinyl)dibenz[b,f][1,4]oxazepine; Loxapina; Loxapine; Loxapinum; Oxilapine

$$$$
