
 OpenBabel10282417072D

 23 23  0  0  1  0  0  0  0  0999 V2000
    0.0157    1.7274    0.0000 C   0  0  0  0  0  0  0  0  0  0  0  0
    0.5678    1.1143    0.0000 N   0  3  0  0  0  0  0  0  0  0  0  0
    1.2352    0.6294    0.0000 C   0  0  0  0  0  0  0  0  0  0  0  0
    0.9803   -0.1553    0.0000 C   0  0  0  0  0  0  0  0  0  0  0  0
    0.1553   -0.1553    0.0000 C   0  0  0  0  0  0  0  0  0  0  0  0
   -0.0997    0.6294    0.0000 C   0  0  1  0  0  0  0  0  0  0  0  0
   -0.8843    0.8843    0.0000 C   0  0  0  0  0  0  0  0  0  0  0  0
   -1.4974    0.3323    0.0000 O   0  0  0  0  0  0  0  0  0  0  0  0
   -1.0558    1.6913    0.0000 O   0  5  0  0  0  0  0  0  0  0  0  0
    1.1198    1.7274    0.0000 C   0  0  0  0  0  0  0  0  0  0  0  0
    0.3463    2.7450    0.0000 H   0  0  0  0  0  0  0  0  0  0  0  0
   -1.0309    1.5049    0.0000 H   0  0  0  0  0  0  0  0  0  0  0  0
   -0.7003    2.5225    0.0000 H   0  0  0  0  0  0  0  0  0  0  0  0
    2.2528    0.9601    0.0000 H   0  0  0  0  0  0  0  0  0  0  0  0
    1.9918   -0.1272    0.0000 H   0  0  0  0  0  0  0  0  0  0  0  0
    1.6093   -1.0209    0.0000 H   0  0  0  0  0  0  0  0  0  0  0  0
    0.4945   -1.1087    0.0000 H   0  0  0  0  0  0  0  0  0  0  0  0
   -0.4736   -1.0210    0.0000 H   0  0  0  0  0  0  0  0  0  0  0  0
   -0.9015    0.0121    0.0000 H   0  0  0  0  0  0  0  0  0  0  0  0
   -0.8563   -0.1272    0.0000 H   0  0  0  0  0  0  0  0  0  0  0  0
    2.1664    1.5050    0.0000 H   0  0  0  0  0  0  0  0  0  0  0  0
    0.7891    2.7450    0.0000 H   0  0  0  0  0  0  0  0  0  0  0  0
    1.8357    2.5226    0.0000 H   0  0  0  0  0  0  0  0  0  0  0  0
  1  2  1  0  0  0  0
  1 11  1  0  0  0  0
  1 12  1  0  0  0  0
  1 13  1  0  0  0  0
  2  3  1  0  0  0  0
  2  6  1  0  0  0  0
  2 10  1  0  0  0  0
  3  4  1  0  0  0  0
  3 14  1  0  0  0  0
  3 15  1  0  0  0  0
  4  5  1  0  0  0  0
  4 16  1  0  0  0  0
  4 17  1  0  0  0  0
  5  6  1  0  0  0  0
  5 18  1  0  0  0  0
  5 19  1  0  0  0  0
  6  7  1  0  0  0  0
  6 20  1  6  0  0  0
  7  8  2  0  0  0  0
  7  9  1  0  0  0  0
 10 21  1  0  0  0  0
 10 22  1  0  0  0  0
 10 23  1  0  0  0  0
M  CHG  2   2   1   9  -1
M  END
>  <DRUGBANK_ID>
DB04284

>  <SECONDARY_ACCESSION_NUMBERS>
EXPT02506

>  <COMMON_NAME>
L-proline betaine

>  <CAS_NUMBER>
471-87-4

>  <UNII>
S1L688345C

>  <SYNONYMS>
(S)-2-carboxylato-1,1-dimethylpyrrolidinium; L-stachydrine; Methyl hygrate betaine; Methyl hygrate Î²ine; N,N-dimethyl-L-proline; Proline betaine; Stachydrine

$$$$
