
 OpenBabel10282417072D

 89 94  0  0  1  0  0  0  0  0999 V2000
    9.3861    0.6167    0.0000 S   0  0  0  0  0  0  0  0  0  0  0  0
    1.6500   -3.3734    0.0000 S   0  0  0  0  0  0  0  0  0  0  0  0
    5.5118    4.3613    0.0000 O   0  0  0  0  0  0  0  0  0  0  0  0
    4.0220    4.8416    0.0000 O   0  0  0  0  0  0  0  0  0  0  0  0
    5.0993    2.2667    0.0000 O   0  0  0  0  0  0  0  0  0  0  0  0
    7.2427    1.8542    0.0000 O   0  0  0  0  0  0  0  0  0  0  0  0
    6.5282    2.2667    0.0000 O   0  0  0  0  0  0  0  0  0  0  0  0
    9.7987    1.3312    0.0000 O   0  0  0  0  0  0  0  0  0  0  0  0
    8.9736   -0.0978    0.0000 O   0  0  0  0  0  0  0  0  0  0  0  0
   12.3103    0.4556    0.0000 O   0  0  0  0  0  0  0  0  0  0  0  0
   12.3103   -0.8723    0.0000 O   0  0  0  0  0  0  0  0  0  0  0  0
    3.6703   -1.8584    0.0000 O   0  0  0  0  0  0  0  0  0  0  0  0
    5.8137    1.0292    0.0000 N   0  0  0  0  0  0  0  0  0  0  0  0
    8.6717    1.0292    0.0000 N   0  0  0  0  0  0  0  0  0  0  0  0
    2.8695   -3.9164    0.0000 N   0  0  0  0  0  0  0  0  0  0  0  0
    4.4317    3.5766    0.0000 C   0  0  2  0  0  0  0  0  0  0  0  0
    4.6868    4.3613    0.0000 C   0  0  1  0  0  0  0  0  0  0  0  0
    5.0993    3.0918    0.0000 C   0  0  2  0  0  0  0  0  0  0  0  0
    3.6117    3.5788    0.0000 C   0  0  0  0  0  0  0  0  0  0  0  0
    5.7667    3.5766    0.0000 C   0  0  0  0  0  0  0  0  0  0  0  0
    3.3589    4.3590    0.0000 C   0  0  0  0  0  0  0  0  0  0  0  0
    6.5282    0.6167    0.0000 C   0  0  2  0  0  0  0  0  0  0  0  0
    5.8137    1.8542    0.0000 C   0  0  0  0  0  0  0  0  0  0  0  0
    7.2427    1.0292    0.0000 C   0  0  1  0  0  0  0  0  0  0  0  0
    7.9572    0.6167    0.0000 C   0  0  0  0  0  0  0  0  0  0  0  0
    6.5282   -0.2083    0.0000 C   0  0  0  0  0  0  0  0  0  0  0  0
    8.6717    1.8542    0.0000 C   0  0  0  0  0  0  0  0  0  0  0  0
    9.3861    2.2667    0.0000 C   0  0  0  0  0  0  0  0  0  0  0  0
    5.8137   -0.6208    0.0000 C   0  0  0  0  0  0  0  0  0  0  0  0
   10.1006    0.2042    0.0000 C   0  0  0  0  0  0  0  0  0  0  0  0
   10.1006    1.8542    0.0000 C   0  0  0  0  0  0  0  0  0  0  0  0
    9.3861    3.0918    0.0000 C   0  0  0  0  0  0  0  0  0  0  0  0
    5.8137   -1.4458    0.0000 C   0  0  0  0  0  0  0  0  0  0  0  0
    5.0993   -0.2083    0.0000 C   0  0  0  0  0  0  0  0  0  0  0  0
   10.8152    0.6167    0.0000 C   0  0  0  0  0  0  0  0  0  0  0  0
   10.1006   -0.6208    0.0000 C   0  0  0  0  0  0  0  0  0  0  0  0
    5.0993   -1.8584    0.0000 C   0  0  0  0  0  0  0  0  0  0  0  0
    4.3847   -0.6208    0.0000 C   0  0  0  0  0  0  0  0  0  0  0  0
   11.5296    0.2042    0.0000 C   0  0  0  0  0  0  0  0  0  0  0  0
    4.3847   -1.4458    0.0000 C   0  0  0  0  0  0  0  0  0  0  0  0
   10.8152   -1.0333    0.0000 C   0  0  0  0  0  0  0  0  0  0  0  0
   11.5296   -0.6208    0.0000 C   0  0  0  0  0  0  0  0  0  0  0  0
   12.7917   -0.2083    0.0000 C   0  0  0  0  0  0  0  0  0  0  0  0
    3.6703   -2.6834    0.0000 C   0  0  0  0  0  0  0  0  0  0  0  0
    2.9558   -3.0959    0.0000 C   0  0  0  0  0  0  0  0  0  0  0  0
    2.2021   -2.7603    0.0000 C   0  0  0  0  0  0  0  0  0  0  0  0
    2.0625   -4.0880    0.0000 C   0  0  0  0  0  0  0  0  0  0  0  0
    1.7270   -4.8416    0.0000 C   0  0  0  0  0  0  0  0  0  0  0  0
    4.2270    2.9492    0.0000 H   0  0  0  0  0  0  0  0  0  0  0  0
    4.8899    4.9893    0.0000 H   0  0  0  0  0  0  0  0  0  0  0  0
    8.0827    2.3392    0.0000 H   0  0  0  0  0  0  0  0  0  0  0  0
    4.9611    0.5369    0.0000 H   0  0  0  0  0  0  0  0  0  0  0  0
    4.1460    2.6059    0.0000 H   0  0  0  0  0  0  0  0  0  0  0  0
    2.9813    2.7143    0.0000 H   0  0  0  0  0  0  0  0  0  0  0  0
    2.5551    3.7475    0.0000 H   0  0  0  0  0  0  0  0  0  0  0  0
    6.7843    3.2459    0.0000 H   0  0  0  0  0  0  0  0  0  0  0  0
    5.9340    2.5198    0.0000 H   0  0  0  0  0  0  0  0  0  0  0  0
    2.3413    4.6896    0.0000 H   0  0  0  0  0  0  0  0  0  0  0  0
    2.6020    3.6027    0.0000 H   0  0  0  0  0  0  0  0  0  0  0  0
    6.5282    1.6867    0.0000 H   0  0  0  0  0  0  0  0  0  0  0  0
    6.3161    1.5642    0.0000 H   0  0  0  0  0  0  0  0  0  0  0  0
    7.9572   -0.4533    0.0000 H   0  0  0  0  0  0  0  0  0  0  0  0
    7.0306    0.0817    0.0000 H   0  0  0  0  0  0  0  0  0  0  0  0
    7.4548   -0.7433    0.0000 H   0  0  0  0  0  0  0  0  0  0  0  0
    6.5282   -1.2783    0.0000 H   0  0  0  0  0  0  0  0  0  0  0  0
    7.7450    2.3892    0.0000 H   0  0  0  0  0  0  0  0  0  0  0  0
    8.6717    2.9242    0.0000 H   0  0  0  0  0  0  0  0  0  0  0  0
   10.3127    2.8017    0.0000 H   0  0  0  0  0  0  0  0  0  0  0  0
   10.1006    0.7842    0.0000 H   0  0  0  0  0  0  0  0  0  0  0  0
   11.0272    2.3892    0.0000 H   0  0  0  0  0  0  0  0  0  0  0  0
   11.0273    1.3192    0.0000 H   0  0  0  0  0  0  0  0  0  0  0  0
   10.3127    3.6268    0.0000 H   0  0  0  0  0  0  0  0  0  0  0  0
    8.4595    3.6268    0.0000 H   0  0  0  0  0  0  0  0  0  0  0  0
    9.3861    4.1618    0.0000 H   0  0  0  0  0  0  0  0  0  0  0  0
    6.7075   -1.9617    0.0000 H   0  0  0  0  0  0  0  0  0  0  0  0
    5.0994    0.8237    0.0000 H   0  0  0  0  0  0  0  0  0  0  0  0
   10.8153    1.6487    0.0000 H   0  0  0  0  0  0  0  0  0  0  0  0
    9.2069   -1.1368    0.0000 H   0  0  0  0  0  0  0  0  0  0  0  0
    5.0994   -2.8904    0.0000 H   0  0  0  0  0  0  0  0  0  0  0  0
    3.4910   -0.1048    0.0000 H   0  0  0  0  0  0  0  0  0  0  0  0
   10.8153   -2.0653    0.0000 H   0  0  0  0  0  0  0  0  0  0  0  0
   13.8617   -0.2083    0.0000 H   0  0  0  0  0  0  0  0  0  0  0  0
   13.2780   -1.1614    0.0000 H   0  0  0  0  0  0  0  0  0  0  0  0
    4.5969   -3.2184    0.0000 H   0  0  0  0  0  0  0  0  0  0  0  0
    3.6703   -3.7534    0.0000 H   0  0  0  0  0  0  0  0  0  0  0  0
    1.9876   -1.7508    0.0000 H   0  0  0  0  0  0  0  0  0  0  0  0
    0.6629   -4.9535    0.0000 H   0  0  0  0  0  0  0  0  0  0  0  0
    2.3560   -5.7072    0.0000 H   0  0  0  0  0  0  0  0  0  0  0  0
    1.2918   -5.8191    0.0000 H   0  0  0  0  0  0  0  0  0  0  0  0
  1  8  2  0  0  0  0
  1  9  2  0  0  0  0
  1 14  1  0  0  0  0
  1 30  1  0  0  0  0
  2 46  1  0  0  0  0
  2 47  1  0  0  0  0
  3 17  1  0  0  0  0
  3 20  1  0  0  0  0
  4 17  1  0  0  0  0
  4 21  1  0  0  0  0
  5 23  1  0  0  0  0
  6 51  1  0  0  0  0
  7 23  2  0  0  0  0
 10 39  1  0  0  0  0
 10 43  1  0  0  0  0
 11 42  1  0  0  0  0
 11 43  1  0  0  0  0
 12 40  1  0  0  0  0
 12 44  1  0  0  0  0
 13 23  1  0  0  0  0
 13 52  1  0  0  0  0
 14 25  1  0  0  0  0
 14 27  1  0  0  0  0
 15 45  1  0  0  0  0
 15 47  2  0  0  0  0
 16 17  1  0  0  0  0
 16 18  1  0  0  0  0
 16 19  1  0  0  0  0
 16 49  1  1  0  0  0
 17 50  1  1  0  0  0
 18  5  1  0  0  0  0
 18 20  1  0  0  0  0
 18 53  1  1  0  0  0
 19 21  1  0  0  0  0
 19 54  1  0  0  0  0
 19 55  1  0  0  0  0
 20 56  1  0  0  0  0
 20 57  1  0  0  0  0
 21 58  1  0  0  0  0
 21 59  1  0  0  0  0
 22 13  1  0  0  0  0
 22 24  1  0  0  0  0
 22 26  1  0  0  0  0
 22 60  1  1  0  0  0
 24  6  1  0  0  0  0
 24 25  1  0  0  0  0
 24 61  1  1  0  0  0
 25 62  1  0  0  0  0
 25 63  1  0  0  0  0
 26 29  1  0  0  0  0
 26 64  1  0  0  0  0
 26 65  1  0  0  0  0
 27 28  1  0  0  0  0
 27 66  1  0  0  0  0
 27 67  1  0  0  0  0
 28 31  1  0  0  0  0
 28 32  1  0  0  0  0
 28 68  1  0  0  0  0
 29 33  2  0  0  0  0
 29 34  1  0  0  0  0
 30 35  2  0  0  0  0
 30 36  1  0  0  0  0
 31 69  1  0  0  0  0
 31 70  1  0  0  0  0
 31 71  1  0  0  0  0
 32 72  1  0  0  0  0
 32 73  1  0  0  0  0
 32 74  1  0  0  0  0
 33 37  1  0  0  0  0
 33 75  1  0  0  0  0
 34 38  2  0  0  0  0
 34 76  1  0  0  0  0
 35 39  1  0  0  0  0
 35 77  1  0  0  0  0
 36 41  2  0  0  0  0
 36 78  1  0  0  0  0
 37 40  2  0  0  0  0
 37 79  1  0  0  0  0
 38 40  1  0  0  0  0
 38 80  1  0  0  0  0
 39 42  2  0  0  0  0
 41 42  1  0  0  0  0
 41 81  1  0  0  0  0
 43 82  1  0  0  0  0
 43 83  1  0  0  0  0
 44 45  1  0  0  0  0
 44 84  1  0  0  0  0
 44 85  1  0  0  0  0
 45 46  2  0  0  0  0
 46 86  1  0  0  0  0
 47 48  1  0  0  0  0
 48 87  1  0  0  0  0
 48 88  1  0  0  0  0
 48 89  1  0  0  0  0
M  END
>  <DRUGBANK_ID>
DB04887

>  <COMMON_NAME>
Brecanavir

>  <CAS_NUMBER>
313682-08-5

>  <UNII>
E367I8C7FI

>  <SYNONYMS>
Brecanavir

$$$$
