417
 OpenBabel10282417072D

 48 51  0  0  0  0  0  0  0  0999 V2000
    2.6459    0.4386    0.0000 C   0  0  0  0  0  0  0  0  0  0  0  0
    1.9314    0.0261    0.0000 C   0  0  0  0  0  0  0  0  0  0  0  0
    1.2170    0.4386    0.0000 C   0  0  0  0  0  0  0  0  0  0  0  0
    1.2170    1.2636    0.0000 C   0  0  0  0  0  0  0  0  0  0  0  0
    1.9314    1.6761    0.0000 C   0  0  0  0  0  0  0  0  0  0  0  0
    2.6459    1.2636    0.0000 C   0  0  0  0  0  0  0  0  0  0  0  0
    0.5025    0.0261    0.0000 C   0  0  1  0  0  0  0  0  0  0  0  0
   -0.2120    0.4386    0.0000 C   0  0  0  0  0  0  0  0  0  0  0  0
   -0.9264    0.0261    0.0000 C   0  0  0  0  0  0  0  0  0  0  0  0
   -0.9264   -0.7989    0.0000 C   0  0  1  0  0  0  0  0  0  0  0  0
   -0.2120   -1.2114    0.0000 C   0  0  0  0  0  0  0  0  0  0  0  0
    0.5025   -0.7989    0.0000 C   0  0  2  0  0  0  0  0  0  0  0  0
   -1.6409   -1.2114    0.0000 N   0  0  3  0  0  0  0  0  0  0  0  0
   -1.6409   -2.0364    0.0000 C   0  0  0  0  0  0  0  0  0  0  0  0
   -2.3554   -2.4489    0.0000 C   0  0  0  0  0  0  0  0  0  0  0  0
   -3.0699   -2.0364    0.0000 N   0  0  0  0  0  0  0  0  0  0  0  0
   -3.0699   -1.2114    0.0000 C   0  0  0  0  0  0  0  0  0  0  0  0
   -2.3554   -0.7989    0.0000 C   0  0  0  0  0  0  0  0  0  0  0  0
   -3.8545   -2.2913    0.0000 C   0  0  0  0  0  0  0  0  0  0  0  0
   -4.3394   -1.6239    0.0000 N   0  0  0  0  0  0  0  0  0  0  0  0
   -3.8545   -0.9565    0.0000 N   0  0  0  0  0  0  0  0  0  0  0  0
    1.9314    2.5011    0.0000 F   0  0  0  0  0  0  0  0  0  0  0  0
    1.9314   -0.7989    0.0000 F   0  0  0  0  0  0  0  0  0  0  0  0
    1.2170   -1.2114    0.0000 N   0  0  0  0  0  0  0  0  0  0  0  0
   -4.1094   -3.0760    0.0000 C   0  0  0  0  0  0  0  0  0  0  0  0
   -4.3644   -3.8606    0.0000 F   0  0  0  0  0  0  0  0  0  0  0  0
   -4.8940   -2.8210    0.0000 F   0  0  0  0  0  0  0  0  0  0  0  0
   -3.3248   -3.3309    0.0000 F   0  0  0  0  0  0  0  0  0  0  0  0
    3.3604    1.6761    0.0000 F   0  0  0  0  0  0  0  0  0  0  0  0
    1.0776   -0.0753    0.0000 H   0  0  0  0  0  0  0  0  0  0  0  0
   -1.4321   -0.5069    0.0000 H   0  0  0  0  0  0  0  0  0  0  0  0
    1.0776   -0.6975    0.0000 H   0  0  0  0  0  0  0  0  0  0  0  0
    3.5396   -0.0774    0.0000 H   0  0  0  0  0  0  0  0  0  0  0  0
    0.3233    1.7796    0.0000 H   0  0  0  0  0  0  0  0  0  0  0  0
   -0.2120    1.5086    0.0000 H   0  0  0  0  0  0  0  0  0  0  0  0
   -1.1387    0.9736    0.0000 H   0  0  0  0  0  0  0  0  0  0  0  0
   -1.8531    0.5611    0.0000 H   0  0  0  0  0  0  0  0  0  0  0  0
   -1.8530   -0.5089    0.0000 H   0  0  0  0  0  0  0  0  0  0  0  0
   -0.2120   -2.2814    0.0000 H   0  0  0  0  0  0  0  0  0  0  0  0
    0.7146   -1.7464    0.0000 H   0  0  0  0  0  0  0  0  0  0  0  0
   -0.7143   -2.5714    0.0000 H   0  0  0  0  0  0  0  0  0  0  0  0
   -1.6409   -3.1064    0.0000 H   0  0  0  0  0  0  0  0  0  0  0  0
   -2.3554   -3.5189    0.0000 H   0  0  0  0  0  0  0  0  0  0  0  0
   -3.2820   -2.9839    0.0000 H   0  0  0  0  0  0  0  0  0  0  0  0
   -2.3554    0.2711    0.0000 H   0  0  0  0  0  0  0  0  0  0  0  0
   -3.2820   -0.2639    0.0000 H   0  0  0  0  0  0  0  0  0  0  0  0
    1.2170   -2.2314    0.0000 H   0  0  0  0  0  0  0  0  0  0  0  0
    2.1003   -0.7014    0.0000 H   0  0  0  0  0  0  0  0  0  0  0  0
  1  2  1  0  0  0  0
  1  6  2  0  0  0  0
  1 33  1  0  0  0  0
  2 23  1  0  0  0  0
  2  3  2  0  0  0  0
  3  4  1  0  0  0  0
  4  5  2  0  0  0  0
  4 34  1  0  0  0  0
  5  6  1  0  0  0  0
  5 22  1  0  0  0  0
  6 29  1  0  0  0  0
  7  3  1  0  0  0  0
  7 12  1  0  0  0  0
  7  8  1  0  0  0  0
  7 30  1  1  0  0  0
  8  9  1  0  0  0  0
  8 35  1  0  0  0  0
  8 36  1  0  0  0  0
  9 10  1  0  0  0  0
  9 37  1  0  0  0  0
  9 38  1  0  0  0  0
 10 11  1  0  0  0  0
 10 13  1  0  0  0  0
 10 31  1  6  0  0  0
 11 12  1  0  0  0  0
 11 39  1  0  0  0  0
 11 40  1  0  0  0  0
 12 24  1  0  0  0  0
 12 32  1  6  0  0  0
 13 14  1  0  0  0  0
 13 18  1  0  0  0  0
 14 15  1  0  0  0  0
 14 41  1  0  0  0  0
 14 42  1  0  0  0  0
 15 16  1  0  0  0  0
 15 43  1  0  0  0  0
 15 44  1  0  0  0  0
 16 19  1  0  0  0  0
 16 17  1  0  0  0  0
 17 21  2  0  0  0  0
 17 18  1  0  0  0  0
 18 45  1  0  0  0  0
 18 46  1  0  0  0  0
 19 25  1  0  0  0  0
 19 20  2  0  0  0  0
 20 21  1  0  0  0  0
 24 47  1  0  0  0  0
 24 48  1  0  0  0  0
 25 27  1  0  0  0  0
 25 26  1  0  0  0  0
 25 28  1  0  0  0  0
M  END
>  <DRUGBANK_ID>
DB07072

>  <COMMON_NAME>
(1S,2R,5S)-5-[3-(TRIFLUOROMETHYL)-5,6-DIHYDRO[1,2,4]TRIAZOLO[4,3-A]PYRAZIN-7(8H)-YL]-2-(2,4,5-TRIFLUOROPHENYL)CYCLOHEXANAMINE

$$$$
