I40
 OpenBabel10282417072D

 42 45  0  0  0  0  0  0  0  0999 V2000
    0.9577    2.0686    0.0000 C   0  0  0  0  0  0  0  0  0  0  0  0
    1.6722    1.6561    0.0000 C   0  0  0  0  0  0  0  0  0  0  0  0
    1.6722    0.8311    0.0000 C   0  0  0  0  0  0  0  0  0  0  0  0
    0.9577    0.4186    0.0000 C   0  0  0  0  0  0  0  0  0  0  0  0
   -0.4712    0.4186    0.0000 C   0  0  0  0  0  0  0  0  0  0  0  0
   -1.9001    0.4186    0.0000 C   0  0  0  0  0  0  0  0  0  0  0  0
   -2.6146    0.8311    0.0000 C   0  0  0  0  0  0  0  0  0  0  0  0
   -2.6146    1.6561    0.0000 C   0  0  0  0  0  0  0  0  0  0  0  0
   -1.9001    2.0686    0.0000 C   0  0  0  0  0  0  0  0  0  0  0  0
   -0.4712    2.0686    0.0000 N   0  0  0  0  0  0  0  0  0  0  0  0
    0.2433    1.6561    0.0000 C   0  0  0  0  0  0  0  0  0  0  0  0
    0.2433    0.8311    0.0000 C   0  0  0  0  0  0  0  0  0  0  0  0
   -1.1857    0.8311    0.0000 C   0  0  0  0  0  0  0  0  0  0  0  0
   -1.1857    1.6561    0.0000 C   0  0  0  0  0  0  0  0  0  0  0  0
   -0.4712   -0.4064    0.0000 N   0  0  0  0  0  0  0  0  0  0  0  0
    1.6722   -3.2939    0.0000 I   0  0  0  0  0  0  0  0  0  0  0  0
    0.2433   -0.8189    0.0000 C   0  0  0  0  0  0  0  0  0  0  0  0
    0.2433   -1.6439    0.0000 C   0  0  0  0  0  0  0  0  0  0  0  0
    0.9577   -2.0564    0.0000 C   0  0  0  0  0  0  0  0  0  0  0  0
    0.9577   -2.8814    0.0000 C   0  0  0  0  0  0  0  0  0  0  0  0
    0.2433   -3.2939    0.0000 C   0  0  0  0  0  0  0  0  0  0  0  0
   -0.4712   -2.8814    0.0000 C   0  0  0  0  0  0  0  0  0  0  0  0
   -0.4712   -2.0564    0.0000 C   0  0  0  0  0  0  0  0  0  0  0  0
    0.9577    3.1386    0.0000 H   0  0  0  0  0  0  0  0  0  0  0  0
    0.0310    2.6036    0.0000 H   0  0  0  0  0  0  0  0  0  0  0  0
    2.5988    2.1911    0.0000 H   0  0  0  0  0  0  0  0  0  0  0  0
    2.5988    1.1211    0.0000 H   0  0  0  0  0  0  0  0  0  0  0  0
    2.5988    0.2961    0.0000 H   0  0  0  0  0  0  0  0  0  0  0  0
    1.6722   -0.2389    0.0000 H   0  0  0  0  0  0  0  0  0  0  0  0
    0.9577   -0.6514    0.0000 H   0  0  0  0  0  0  0  0  0  0  0  0
    0.0310   -0.1164    0.0000 H   0  0  0  0  0  0  0  0  0  0  0  0
   -1.9001   -0.6134    0.0000 H   0  0  0  0  0  0  0  0  0  0  0  0
   -3.5083    0.3151    0.0000 H   0  0  0  0  0  0  0  0  0  0  0  0
   -3.5083    2.1721    0.0000 H   0  0  0  0  0  0  0  0  0  0  0  0
   -1.9001    3.1006    0.0000 H   0  0  0  0  0  0  0  0  0  0  0  0
   -1.3238   -0.8987    0.0000 H   0  0  0  0  0  0  0  0  0  0  0  0
    1.1699   -0.2839    0.0000 H   0  0  0  0  0  0  0  0  0  0  0  0
    1.1699   -1.3539    0.0000 H   0  0  0  0  0  0  0  0  0  0  0  0
    1.8514   -1.5404    0.0000 H   0  0  0  0  0  0  0  0  0  0  0  0
    0.2433   -4.3259    0.0000 H   0  0  0  0  0  0  0  0  0  0  0  0
   -1.3649   -3.3974    0.0000 H   0  0  0  0  0  0  0  0  0  0  0  0
   -1.3649   -1.5404    0.0000 H   0  0  0  0  0  0  0  0  0  0  0  0
  1  2  1  0  0  0  0
  1 11  1  0  0  0  0
  1 24  1  0  0  0  0
  1 25  1  0  0  0  0
  2  3  1  0  0  0  0
  2 26  1  0  0  0  0
  2 27  1  0  0  0  0
  3  4  1  0  0  0  0
  3 28  1  0  0  0  0
  3 29  1  0  0  0  0
  4 12  1  0  0  0  0
  4 30  1  0  0  0  0
  4 31  1  0  0  0  0
  5 12  2  0  0  0  0
  5 13  1  0  0  0  0
  5 15  1  0  0  0  0
  6  7  2  0  0  0  0
  6 13  1  0  0  0  0
  6 32  1  0  0  0  0
  7  8  1  0  0  0  0
  7 33  1  0  0  0  0
  8  9  2  0  0  0  0
  8 34  1  0  0  0  0
  9 14  1  0  0  0  0
  9 35  1  0  0  0  0
 10 11  2  0  0  0  0
 10 14  1  0  0  0  0
 11 12  1  0  0  0  0
 13 14  2  0  0  0  0
 15 17  1  0  0  0  0
 15 36  1  0  0  0  0
 16 20  1  0  0  0  0
 17 18  1  0  0  0  0
 17 37  1  0  0  0  0
 17 38  1  0  0  0  0
 18 19  2  0  0  0  0
 18 23  1  0  0  0  0
 19 20  1  0  0  0  0
 19 39  1  0  0  0  0
 20 21  2  0  0  0  0
 21 22  1  0  0  0  0
 21 40  1  0  0  0  0
 22 23  2  0  0  0  0
 22 41  1  0  0  0  0
 23 42  1  0  0  0  0
M  END
>  <DRUGBANK_ID>
DB07940

>  <COMMON_NAME>
9-(3-IODOBENZYLAMINO)-1,2,3,4-TETRAHYDROACRIDINE

$$$$
