
 OpenBabel10282417072D

 51 53  0  0  0  0  0  0  0  0999 V2000
    0.3533   -2.0645    0.0000 C   0  0  0  0  0  0  0  0  0  0  0  0
    0.3525   -2.8912    0.0000 C   0  0  0  0  0  0  0  0  0  0  0  0
    1.0655   -3.3054    0.0000 C   0  0  0  0  0  0  0  0  0  0  0  0
    1.7825   -2.8909    0.0000 C   0  0  0  0  0  0  0  0  0  0  0  0
    1.7805   -2.0619    0.0000 C   0  0  0  0  0  0  0  0  0  0  0  0
    1.0642   -1.6533    0.0000 C   0  0  0  0  0  0  0  0  0  0  0  0
   -0.3627   -1.6506    0.0000 N   0  0  0  0  0  0  0  0  0  0  0  0
   -0.3627   -0.7089    0.0000 C   0  0  0  0  0  0  0  0  0  0  0  0
    0.3514   -0.2979    0.0000 O   0  0  0  0  0  0  0  0  0  0  0  0
   -1.1790   -0.2367    0.0000 C   0  0  0  0  0  0  0  0  0  0  0  0
   -1.2701    0.5863    0.0000 C   0  0  0  0  0  0  0  0  0  0  0  0
   -2.0802    0.7583    0.0000 C   0  0  0  0  0  0  0  0  0  0  0  0
   -2.4942    0.0411    0.0000 C   0  0  0  0  0  0  0  0  0  0  0  0
   -1.9400   -0.5739    0.0000 S   0  0  0  0  0  0  0  0  0  0  0  0
   -0.4589    1.0634    0.0000 S   0  0  0  0  0  0  0  0  0  0  0  0
   -0.4589    2.0051    0.0000 N   0  0  0  0  0  0  0  0  0  0  0  0
    0.2552    2.4161    0.0000 C   0  0  0  0  0  0  0  0  0  0  0  0
    1.0094    2.0841    0.0000 O   0  0  0  0  0  0  0  0  0  0  0  0
    1.5617    2.6957    0.0000 N   0  0  0  0  0  0  0  0  0  0  0  0
    1.1506    3.4100    0.0000 C   0  0  0  0  0  0  0  0  0  0  0  0
    0.3444    3.2397    0.0000 C   0  0  0  0  0  0  0  0  0  0  0  0
    1.0627   -0.8256    0.0000 C   0  0  0  0  0  0  0  0  0  0  0  0
    2.4942   -3.2977    0.0000 C   0  0  0  0  0  0  0  0  0  0  0  0
   -0.2674    3.7931    0.0000 C   0  0  0  0  0  0  0  0  0  0  0  0
    1.5554    4.1274    0.0000 C   0  0  0  0  0  0  0  0  0  0  0  0
   -0.0478    0.3492    0.0000 O   0  0  0  0  0  0  0  0  0  0  0  0
    0.3659    1.0634    0.0000 O   0  0  0  0  0  0  0  0  0  0  0  0
   -0.3626   -3.3024    0.0000 C   0  0  0  0  0  0  0  0  0  0  0  0
   -0.3641   -4.1274    0.0000 C   0  0  0  0  0  0  0  0  0  0  0  0
   -1.0764   -2.8886    0.0000 O   0  0  0  0  0  0  0  0  0  0  0  0
    1.0644   -4.3374    0.0000 H   0  0  0  0  0  0  0  0  0  0  0  0
    2.6723   -1.5425    0.0000 H   0  0  0  0  0  0  0  0  0  0  0  0
   -1.2154   -2.1426    0.0000 H   0  0  0  0  0  0  0  0  0  0  0  0
   -2.5001    1.7010    0.0000 H   0  0  0  0  0  0  0  0  0  0  0  0
   -3.5205   -0.0670    0.0000 H   0  0  0  0  0  0  0  0  0  0  0  0
   -1.3112    2.4979    0.0000 H   0  0  0  0  0  0  0  0  0  0  0  0
    1.9884   -0.2889    0.0000 H   0  0  0  0  0  0  0  0  0  0  0  0
    0.1351   -0.2923    0.0000 H   0  0  0  0  0  0  0  0  0  0  0  0
    1.0608    0.2444    0.0000 H   0  0  0  0  0  0  0  0  0  0  0  0
    2.4988   -4.3677    0.0000 H   0  0  0  0  0  0  0  0  0  0  0  0
    3.4185   -2.7587    0.0000 H   0  0  0  0  0  0  0  0  0  0  0  0
    3.4232   -3.8287    0.0000 H   0  0  0  0  0  0  0  0  0  0  0  0
   -0.0425    4.8392    0.0000 H   0  0  0  0  0  0  0  0  0  0  0  0
   -1.2858    3.4648    0.0000 H   0  0  0  0  0  0  0  0  0  0  0  0
   -1.0609    4.5109    0.0000 H   0  0  0  0  0  0  0  0  0  0  0  0
    2.6253    4.1380    0.0000 H   0  0  0  0  0  0  0  0  0  0  0  0
    1.0113    5.0487    0.0000 H   0  0  0  0  0  0  0  0  0  0  0  0
    2.0812    5.0593    0.0000 H   0  0  0  0  0  0  0  0  0  0  0  0
   -1.2917   -4.6607    0.0000 H   0  0  0  0  0  0  0  0  0  0  0  0
    0.5616   -4.6641    0.0000 H   0  0  0  0  0  0  0  0  0  0  0  0
   -0.3660   -5.1974    0.0000 H   0  0  0  0  0  0  0  0  0  0  0  0
  1  2  2  0  0  0  0
  1  7  1  0  0  0  0
  2  3  1  0  0  0  0
  2 28  1  0  0  0  0
  3  4  2  0  0  0  0
  3 31  1  0  0  0  0
  4  5  1  0  0  0  0
  4 23  1  0  0  0  0
  5  6  2  0  0  0  0
  5 32  1  0  0  0  0
  6  1  1  0  0  0  0
  6 22  1  0  0  0  0
  7  8  1  0  0  0  0
  7 33  1  0  0  0  0
  8  9  2  0  0  0  0
  8 10  1  0  0  0  0
 10 11  2  0  0  0  0
 11 12  1  0  0  0  0
 11 15  1  0  0  0  0
 12 13  2  0  0  0  0
 12 34  1  0  0  0  0
 13 14  1  0  0  0  0
 13 35  1  0  0  0  0
 14 10  1  0  0  0  0
 15 16  1  0  0  0  0
 15 26  2  0  0  0  0
 15 27  2  0  0  0  0
 16 17  1  0  0  0  0
 16 36  1  0  0  0  0
 17 18  1  0  0  0  0
 18 19  1  0  0  0  0
 19 20  2  0  0  0  0
 20 21  1  0  0  0  0
 20 25  1  0  0  0  0
 21 17  2  0  0  0  0
 21 24  1  0  0  0  0
 22 37  1  0  0  0  0
 22 38  1  0  0  0  0
 22 39  1  0  0  0  0
 23 40  1  0  0  0  0
 23 41  1  0  0  0  0
 23 42  1  0  0  0  0
 24 43  1  0  0  0  0
 24 44  1  0  0  0  0
 24 45  1  0  0  0  0
 25 46  1  0  0  0  0
 25 47  1  0  0  0  0
 25 48  1  0  0  0  0
 28 29  1  0  0  0  0
 28 30  2  0  0  0  0
 29 49  1  0  0  0  0
 29 50  1  0  0  0  0
 29 51  1  0  0  0  0
M  END
>  <DRUGBANK_ID>
DB05407

>  <COMMON_NAME>
TBC-3711

>  <CAS_NUMBER>
349453-49-2

>  <UNII>
BDP0YZR82B

$$$$
