
 OpenBabel10282417072D

137144  0  0  1  0  0  0  0  0999 V2000
    1.8257    0.7777    0.0000 C   0  0  0  0  0  0  0  0  0  0  0  0
    2.0661   -0.0115    0.0000 C   0  0  1  0  0  0  0  0  0  0  0  0
    2.6242    0.5960    0.0000 C   0  0  0  0  0  0  0  0  0  0  0  0
    3.4294    0.4164    0.0000 C   0  0  0  0  0  0  0  0  0  0  0  0
    3.6765   -0.3707    0.0000 C   0  0  0  0  0  0  0  0  0  0  0  0
    3.1184   -0.9782    0.0000 C   0  0  2  0  0  0  0  0  0  0  0  0
    2.8017   -1.7400    0.0000 C   0  0  0  0  0  0  0  0  0  0  0  0
    2.3132   -0.7987    0.0000 C   0  0  1  0  0  0  0  0  0  0  0  0
    1.7596   -1.4229    0.0000 C   0  0  0  0  0  0  0  0  0  0  0  0
    0.9506   -1.2543    0.0000 C   0  0  0  0  0  0  0  0  0  0  0  0
    0.6469   -0.4671    0.0000 C   0  0  1  0  0  0  0  0  0  0  0  0
   -0.1637   -0.8483    0.0000 C   0  0  0  0  0  0  0  0  0  0  0  0
   -0.7854   -0.2403    0.0000 C   0  0  0  0  0  0  0  0  0  0  0  0
   -1.5987   -0.3788    0.0000 C   0  0  0  0  0  0  0  0  0  0  0  0
   -0.4028    0.5335    0.0000 C   0  0  1  0  0  0  0  0  0  0  0  0
    0.1726    0.0666    0.0000 C   0  0  0  0  0  0  0  0  0  0  0  0
    0.1586    1.1914    0.0000 C   0  0  0  0  0  0  0  0  0  0  0  0
    1.0038    1.0309    0.0000 C   0  0  0  0  0  0  0  0  0  0  0  0
    1.2474    0.1857    0.0000 C   0  0  1  0  0  0  0  0  0  0  0  0
   -1.0916    0.9875    0.0000 O   0  0  0  0  0  0  0  0  0  0  0  0
   -1.0428    1.8111    0.0000 C   0  0  2  0  0  0  0  0  0  0  0  0
   -0.3051    2.1806    0.0000 O   0  0  0  0  0  0  0  0  0  0  0  0
   -0.2563    3.0041    0.0000 C   0  0  2  0  0  0  0  0  0  0  0  0
    0.4813    3.3736    0.0000 C   0  0  0  0  0  0  0  0  0  0  0  0
    0.5301    4.1972    0.0000 O   0  0  0  0  0  0  0  0  0  0  0  0
   -0.9451    3.4582    0.0000 C   0  0  1  0  0  0  0  0  0  0  0  0
   -0.8963    4.2817    0.0000 O   0  0  0  0  0  0  0  0  0  0  0  0
   -1.6828    3.0887    0.0000 C   0  0  2  0  0  0  0  0  0  0  0  0
   -2.3716    3.5427    0.0000 O   0  0  0  0  0  0  0  0  0  0  0  0
   -2.3228    4.3663    0.0000 C   0  0  2  0  0  0  0  0  0  0  0  0
   -1.5851    4.7358    0.0000 O   0  0  0  0  0  0  0  0  0  0  0  0
   -1.5363    5.5593    0.0000 C   0  0  2  0  0  0  0  0  0  0  0  0
   -0.7987    5.9288    0.0000 C   0  0  0  0  0  0  0  0  0  0  0  0
   -0.1099    5.4748    0.0000 O   0  0  0  0  0  0  0  0  0  0  0  0
   -2.2251    6.0134    0.0000 C   0  0  1  0  0  0  0  0  0  0  0  0
   -2.1763    6.8369    0.0000 O   0  0  0  0  0  0  0  0  0  0  0  0
   -2.9628    5.6439    0.0000 C   0  0  2  0  0  0  0  0  0  0  0  0
   -3.6516    6.0979    0.0000 O   0  0  0  0  0  0  0  0  0  0  0  0
   -3.0116    4.8203    0.0000 C   0  0  1  0  0  0  0  0  0  0  0  0
   -3.7492    4.4508    0.0000 O   0  0  0  0  0  0  0  0  0  0  0  0
   -1.7316    2.2651    0.0000 C   0  0  1  0  0  0  0  0  0  0  0  0
   -2.4692    1.8956    0.0000 O   0  0  0  0  0  0  0  0  0  0  0  0
   -3.1580    2.3497    0.0000 C   0  0  2  0  0  0  0  0  0  0  0  0
   -3.8956    1.9802    0.0000 O   0  0  0  0  0  0  0  0  0  0  0  0
   -4.5844    2.4342    0.0000 C   0  0  2  0  0  0  0  0  0  0  0  0
   -5.3221    2.0647    0.0000 C   0  0  0  0  0  0  0  0  0  0  0  0
   -5.3709    1.2411    0.0000 O   0  0  0  0  0  0  0  0  0  0  0  0
   -4.5356    3.2578    0.0000 C   0  0  1  0  0  0  0  0  0  0  0  0
   -5.2245    3.7118    0.0000 O   0  0  0  0  0  0  0  0  0  0  0  0
   -3.7980    3.6273    0.0000 C   0  0  2  0  0  0  0  0  0  0  0  0
   -4.2426    4.3222    0.0000 O   0  0  0  0  0  0  0  0  0  0  0  0
   -3.1092    3.1732    0.0000 C   0  0  1  0  0  0  0  0  0  0  0  0
   -2.7296    3.9057    0.0000 O   0  0  0  0  0  0  0  0  0  0  0  0
    3.8136   -1.4224    0.0000 C   0  0  0  0  0  0  0  0  0  0  0  0
    4.5459   -1.0424    0.0000 O   0  0  0  0  0  0  0  0  0  0  0  0
    3.7766   -2.2466    0.0000 O   0  0  0  0  0  0  0  0  0  0  0  0
    4.4718   -2.6907    0.0000 C   0  0  2  0  0  0  0  0  0  0  0  0
    5.2041   -2.3107    0.0000 O   0  0  0  0  0  0  0  0  0  0  0  0
    5.8993   -2.7549    0.0000 C   0  0  2  0  0  0  0  0  0  0  0  0
    6.6316   -2.3748    0.0000 C   0  0  0  0  0  0  0  0  0  0  0  0
    7.3268   -2.8190    0.0000 O   0  0  0  0  0  0  0  0  0  0  0  0
    5.8623   -3.5790    0.0000 C   0  0  1  0  0  0  0  0  0  0  0  0
    6.5575   -4.0232    0.0000 O   0  0  0  0  0  0  0  0  0  0  0  0
    5.1300   -3.9590    0.0000 C   0  0  2  0  0  0  0  0  0  0  0  0
    5.0930   -4.7832    0.0000 O   0  0  0  0  0  0  0  0  0  0  0  0
    4.4348   -3.5149    0.0000 C   0  0  1  0  0  0  0  0  0  0  0  0
    3.7025   -3.8949    0.0000 O   0  0  0  0  0  0  0  0  0  0  0  0
    2.5562    1.5595    0.0000 H   0  0  0  0  0  0  0  0  0  0  0  0
    0.7834    1.0195    0.0000 H   0  0  0  0  0  0  0  0  0  0  0  0
    1.5139    1.8013    0.0000 H   0  0  0  0  0  0  0  0  0  0  0  0
    2.3038    1.6169    0.0000 H   0  0  0  0  0  0  0  0  0  0  0  0
    3.3481    1.3840    0.0000 H   0  0  0  0  0  0  0  0  0  0  0  0
    4.1533    1.2044    0.0000 H   0  0  0  0  0  0  0  0  0  0  0  0
    4.4737    0.1835    0.0000 H   0  0  0  0  0  0  0  0  0  0  0  0
    4.7208   -0.6036    0.0000 H   0  0  0  0  0  0  0  0  0  0  0  0
    3.9970   -1.3916    0.0000 H   0  0  0  0  0  0  0  0  0  0  0  0
    1.7407   -1.8783    0.0000 H   0  0  0  0  0  0  0  0  0  0  0  0
    3.4520   -2.5897    0.0000 H   0  0  0  0  0  0  0  0  0  0  0  0
    2.3910   -2.7280    0.0000 H   0  0  0  0  0  0  0  0  0  0  0  0
    2.6426   -1.8167    0.0000 H   0  0  0  0  0  0  0  0  0  0  0  0
    2.0961   -2.4386    0.0000 H   0  0  0  0  0  0  0  0  0  0  0  0
    1.0475   -2.2215    0.0000 H   0  0  0  0  0  0  0  0  0  0  0  0
    0.2580   -2.0699    0.0000 H   0  0  0  0  0  0  0  0  0  0  0  0
   -0.1044   -1.0755    0.0000 H   0  0  0  0  0  0  0  0  0  0  0  0
   -0.3419   -1.9034    0.0000 H   0  0  0  0  0  0  0  0  0  0  0  0
   -1.1812   -1.1794    0.0000 H   0  0  0  0  0  0  0  0  0  0  0  0
   -2.2574    0.4156    0.0000 H   0  0  0  0  0  0  0  0  0  0  0  0
   -1.9573   -1.3465    0.0000 H   0  0  0  0  0  0  0  0  0  0  0  0
    0.9120    0.8400    0.0000 H   0  0  0  0  0  0  0  0  0  0  0  0
    1.2424    0.0471    0.0000 H   0  0  0  0  0  0  0  0  0  0  0  0
   -0.1966    2.2007    0.0000 H   0  0  0  0  0  0  0  0  0  0  0  0
    0.8561    2.0028    0.0000 H   0  0  0  0  0  0  0  0  0  0  0  0
    1.7244    1.8218    0.0000 H   0  0  0  0  0  0  0  0  0  0  0  0
    2.0458    0.7878    0.0000 H   0  0  0  0  0  0  0  0  0  0  0  0
    1.9871    0.9589    0.0000 H   0  0  0  0  0  0  0  0  0  0  0  0
   -0.1494    1.2222    0.0000 H   0  0  0  0  0  0  0  0  0  0  0  0
    0.6371    2.4152    0.0000 H   0  0  0  0  0  0  0  0  0  0  0  0
    1.3747    2.7847    0.0000 H   0  0  0  0  0  0  0  0  0  0  0  0
    1.4380    3.8529    0.0000 H   0  0  0  0  0  0  0  0  0  0  0  0
    1.3974    4.6317    0.0000 H   0  0  0  0  0  0  0  0  0  0  0  0
    0.0116    3.9374    0.0000 H   0  0  0  0  0  0  0  0  0  0  0  0
   -0.0290    4.7162    0.0000 H   0  0  0  0  0  0  0  0  0  0  0  0
   -1.6195    4.1568    0.0000 H   0  0  0  0  0  0  0  0  0  0  0  0
   -1.4294    3.7774    0.0000 H   0  0  0  0  0  0  0  0  0  0  0  0
   -0.6429    4.9704    0.0000 H   0  0  0  0  0  0  0  0  0  0  0  0
   -0.7354    6.9969    0.0000 H   0  0  0  0  0  0  0  0  0  0  0  0
    0.1580    6.4081    0.0000 H   0  0  0  0  0  0  0  0  0  0  0  0
   -0.1673    4.5065    0.0000 H   0  0  0  0  0  0  0  0  0  0  0  0
   -1.2684    6.4926    0.0000 H   0  0  0  0  0  0  0  0  0  0  0  0
   -1.3090    7.2714    0.0000 H   0  0  0  0  0  0  0  0  0  0  0  0
   -2.8995    6.7120    0.0000 H   0  0  0  0  0  0  0  0  0  0  0  0
   -3.5942    7.0662    0.0000 H   0  0  0  0  0  0  0  0  0  0  0  0
   -3.9050    5.4092    0.0000 H   0  0  0  0  0  0  0  0  0  0  0  0
   -4.5591    4.9846    0.0000 H   0  0  0  0  0  0  0  0  0  0  0  0
   -2.6250    2.8540    0.0000 H   0  0  0  0  0  0  0  0  0  0  0  0
   -3.2213    1.2816    0.0000 H   0  0  0  0  0  0  0  0  0  0  0  0
   -4.6477    1.3661    0.0000 H   0  0  0  0  0  0  0  0  0  0  0  0
   -6.2155    2.6536    0.0000 H   0  0  0  0  0  0  0  0  0  0  0  0
   -6.2788    1.5855    0.0000 H   0  0  0  0  0  0  0  0  0  0  0  0
   -6.2382    0.8066    0.0000 H   0  0  0  0  0  0  0  0  0  0  0  0
   -5.4922    2.7785    0.0000 H   0  0  0  0  0  0  0  0  0  0  0  0
   -5.1672    4.6801    0.0000 H   0  0  0  0  0  0  0  0  0  0  0  0
   -4.8296    3.9113    0.0000 H   0  0  0  0  0  0  0  0  0  0  0  0
   -3.7964    5.1835    0.0000 H   0  0  0  0  0  0  0  0  0  0  0  0
   -3.3790    4.2086    0.0000 H   0  0  0  0  0  0  0  0  0  0  0  0
   -1.7606    3.9498    0.0000 H   0  0  0  0  0  0  0  0  0  0  0  0
    4.5198   -1.6218    0.0000 H   0  0  0  0  0  0  0  0  0  0  0  0
    5.9473   -1.6860    0.0000 H   0  0  0  0  0  0  0  0  0  0  0  0
    6.6796   -1.3059    0.0000 H   0  0  0  0  0  0  0  0  0  0  0  0
    7.5813   -1.8820    0.0000 H   0  0  0  0  0  0  0  0  0  0  0  0
    7.2832   -3.7880    0.0000 H   0  0  0  0  0  0  0  0  0  0  0  0
    6.8120   -3.0861    0.0000 H   0  0  0  0  0  0  0  0  0  0  0  0
    6.5139   -4.9922    0.0000 H   0  0  0  0  0  0  0  0  0  0  0  0
    6.0317   -4.5351    0.0000 H   0  0  0  0  0  0  0  0  0  0  0  0
    4.2320   -5.2300    0.0000 H   0  0  0  0  0  0  0  0  0  0  0  0
    4.3868   -4.5838    0.0000 H   0  0  0  0  0  0  0  0  0  0  0  0
    2.8851   -3.3727    0.0000 H   0  0  0  0  0  0  0  0  0  0  0  0
  1 68  1  0  0  0  0
  1 69  1  0  0  0  0
  1 70  1  0  0  0  0
  2  1  1  1  0  0  0
  2  3  1  0  0  0  0
  2  8  1  0  0  0  0
  2 19  1  0  0  0  0
  3  4  1  0  0  0  0
  3 71  1  0  0  0  0
  3 72  1  0  0  0  0
  4  5  1  0  0  0  0
  4 73  1  0  0  0  0
  4 74  1  0  0  0  0
  5 75  1  0  0  0  0
  5 76  1  0  0  0  0
  6  5  1  0  0  0  0
  6  7  1  0  0  0  0
  6 54  1  1  0  0  0
  7 77  1  0  0  0  0
  7 78  1  0  0  0  0
  7 79  1  0  0  0  0
  8  6  1  0  0  0  0
  8  9  1  0  0  0  0
  8 80  1  6  0  0  0
  9 10  1  0  0  0  0
  9 81  1  0  0  0  0
  9 82  1  0  0  0  0
 10 83  1  0  0  0  0
 10 84  1  0  0  0  0
 11 10  1  1  0  0  0
 11 12  1  0  0  0  0
 11 16  1  0  0  0  0
 12 13  1  0  0  0  0
 12 85  1  0  0  0  0
 12 86  1  0  0  0  0
 13 14  2  0  0  0  0
 14 87  1  0  0  0  0
 14 88  1  0  0  0  0
 15 13  1  0  0  0  0
 15 16  1  0  0  0  0
 15 17  1  0  0  0  0
 15 20  1  1  0  0  0
 16 89  1  0  0  0  0
 16 90  1  0  0  0  0
 17 18  1  0  0  0  0
 17 91  1  0  0  0  0
 17 92  1  0  0  0  0
 18 93  1  0  0  0  0
 18 94  1  0  0  0  0
 19 18  1  0  0  0  0
 19 11  1  0  0  0  0
 19 95  1  6  0  0  0
 21 20  1  0  0  0  0
 21 22  1  0  0  0  0
 21 96  1  6  0  0  0
 23 22  1  0  0  0  0
 23 24  1  0  0  0  0
 23 97  1  6  0  0  0
 24 25  1  0  0  0  0
 24 98  1  0  0  0  0
 24 99  1  0  0  0  0
 25100  1  0  0  0  0
 26 23  1  0  0  0  0
 26 27  1  0  0  0  0
 26 28  1  0  0  0  0
 26101  1  1  0  0  0
 27102  1  0  0  0  0
 28 29  1  0  0  0  0
 28 41  1  0  0  0  0
 28103  1  6  0  0  0
 30 29  1  0  0  0  0
 30 31  1  0  0  0  0
 30104  1  6  0  0  0
 32 31  1  0  0  0  0
 32 33  1  0  0  0  0
 32105  1  6  0  0  0
 33 34  1  0  0  0  0
 33106  1  0  0  0  0
 33107  1  0  0  0  0
 34108  1  0  0  0  0
 35 32  1  0  0  0  0
 35 36  1  0  0  0  0
 35 37  1  0  0  0  0
 35109  1  1  0  0  0
 36110  1  0  0  0  0
 37 38  1  0  0  0  0
 37 39  1  0  0  0  0
 37111  1  6  0  0  0
 38112  1  0  0  0  0
 39 30  1  0  0  0  0
 39 40  1  0  0  0  0
 39113  1  1  0  0  0
 40114  1  0  0  0  0
 41 21  1  0  0  0  0
 41 42  1  0  0  0  0
 41115  1  1  0  0  0
 43 42  1  0  0  0  0
 43 44  1  0  0  0  0
 43116  1  1  0  0  0
 45 44  1  0  0  0  0
 45 46  1  0  0  0  0
 45117  1  1  0  0  0
 46 47  1  0  0  0  0
 46118  1  0  0  0  0
 46119  1  0  0  0  0
 47120  1  0  0  0  0
 48 45  1  0  0  0  0
 48 49  1  0  0  0  0
 48 50  1  0  0  0  0
 48121  1  6  0  0  0
 49122  1  0  0  0  0
 50 51  1  0  0  0  0
 50 52  1  0  0  0  0
 50123  1  1  0  0  0
 51124  1  0  0  0  0
 52 43  1  0  0  0  0
 52 53  1  0  0  0  0
 52125  1  6  0  0  0
 53126  1  0  0  0  0
 54 55  2  0  0  0  0
 54 56  1  0  0  0  0
 57 56  1  0  0  0  0
 57 58  1  0  0  0  0
 57127  1  1  0  0  0
 59 58  1  0  0  0  0
 59 60  1  0  0  0  0
 59128  1  1  0  0  0
 60 61  1  0  0  0  0
 60129  1  0  0  0  0
 60130  1  0  0  0  0
 61131  1  0  0  0  0
 62 59  1  0  0  0  0
 62 63  1  0  0  0  0
 62 64  1  0  0  0  0
 62132  1  6  0  0  0
 63133  1  0  0  0  0
 64 65  1  0  0  0  0
 64 66  1  0  0  0  0
 64134  1  1  0  0  0
 65135  1  0  0  0  0
 66 57  1  0  0  0  0
 66 67  1  0  0  0  0
 66136  1  6  0  0  0
 67137  1  0  0  0  0
M  END
>  <DRUGBANK_ID>
DB15136

>  <COMMON_NAME>
Rebaudioside A

>  <CAS_NUMBER>
58543-16-1

>  <UNII>
B3FUD0528F

$$$$
