
 OpenBabel10282417072D

 32 34  0  0  0  0  0  0  0  0999 V2000
   -2.5017   -0.2104    0.0000 C   0  0  0  0  0  0  0  0  0  0  0  0
   -2.5030   -1.0371    0.0000 C   0  0  0  0  0  0  0  0  0  0  0  0
   -1.7909   -1.4495    0.0000 C   0  0  0  0  0  0  0  0  0  0  0  0
   -1.7928    0.2017    0.0000 C   0  0  0  0  0  0  0  0  0  0  0  0
   -1.0755   -0.2065    0.0000 C   0  0  0  0  0  0  0  0  0  0  0  0
   -1.0719   -1.0392    0.0000 C   0  0  0  0  0  0  0  0  0  0  0  0
   -0.3529   -1.4500    0.0000 C   0  0  0  0  0  0  0  0  0  0  0  0
    0.3668   -1.0327    0.0000 C   0  0  0  0  0  0  0  0  0  0  0  0
    0.3631   -0.2000    0.0000 C   0  0  0  0  0  0  0  0  0  0  0  0
   -0.3602    0.2152    0.0000 O   0  0  0  0  0  0  0  0  0  0  0  0
   -3.2157    0.2008    0.0000 O   0  0  0  0  0  0  0  0  0  0  0  0
   -1.7935   -2.2736    0.0000 O   0  0  0  0  0  0  0  0  0  0  0  0
   -0.3504   -2.2740    0.0000 O   0  0  0  0  0  0  0  0  0  0  0  0
    1.0739    0.2133    0.0000 C   0  0  0  0  0  0  0  0  0  0  0  0
    1.7892   -0.1978    0.0000 C   0  0  0  0  0  0  0  0  0  0  0  0
    2.5008    0.2158    0.0000 C   0  0  0  0  0  0  0  0  0  0  0  0
    2.4985    1.0407    0.0000 C   0  0  0  0  0  0  0  0  0  0  0  0
    1.7785    1.4501    0.0000 C   0  0  0  0  0  0  0  0  0  0  0  0
    1.0696    1.0338    0.0000 C   0  0  0  0  0  0  0  0  0  0  0  0
    1.7726    2.2740    0.0000 O   0  0  0  0  0  0  0  0  0  0  0  0
    3.2103    1.4559    0.0000 O   0  0  0  0  0  0  0  0  0  0  0  0
    3.2157   -0.1941    0.0000 O   0  0  0  0  0  0  0  0  0  0  0  0
   -3.3975   -1.5518    0.0000 H   0  0  0  0  0  0  0  0  0  0  0  0
   -1.7975    1.2337    0.0000 H   0  0  0  0  0  0  0  0  0  0  0  0
    1.2622   -1.5459    0.0000 H   0  0  0  0  0  0  0  0  0  0  0  0
   -3.2167    1.1378    0.0000 H   0  0  0  0  0  0  0  0  0  0  0  0
   -2.6064   -2.7395    0.0000 H   0  0  0  0  0  0  0  0  0  0  0  0
    1.7917   -1.2298    0.0000 H   0  0  0  0  0  0  0  0  0  0  0  0
    0.1726    1.5441    0.0000 H   0  0  0  0  0  0  0  0  0  0  0  0
    2.5807    2.7483    0.0000 H   0  0  0  0  0  0  0  0  0  0  0  0
    4.0238    0.9910    0.0000 H   0  0  0  0  0  0  0  0  0  0  0  0
    3.2185   -1.1311    0.0000 H   0  0  0  0  0  0  0  0  0  0  0  0
  1 11  1  0  0  0  0
  1  2  2  0  0  0  0
  2  3  1  0  0  0  0
  2 23  1  0  0  0  0
  3 12  1  0  0  0  0
  3  6  2  0  0  0  0
  4  1  1  0  0  0  0
  4 24  1  0  0  0  0
  5  6  1  0  0  0  0
  5  4  2  0  0  0  0
  5 10  1  0  0  0  0
  6  7  1  0  0  0  0
  7 13  2  0  0  0  0
  7  8  1  0  0  0  0
  8  9  2  0  0  0  0
  8 25  1  0  0  0  0
  9 14  1  0  0  0  0
  9 10  1  0  0  0  0
 11 26  1  0  0  0  0
 12 27  1  0  0  0  0
 14 15  2  0  0  0  0
 15 16  1  0  0  0  0
 15 28  1  0  0  0  0
 16 17  2  0  0  0  0
 16 22  1  0  0  0  0
 17 18  1  0  0  0  0
 17 21  1  0  0  0  0
 18 19  2  0  0  0  0
 18 20  1  0  0  0  0
 19 14  1  0  0  0  0
 19 29  1  0  0  0  0
 20 30  1  0  0  0  0
 21 31  1  0  0  0  0
 22 32  1  0  0  0  0
M  END
>  <DRUGBANK_ID>
DB08230

>  <COMMON_NAME>
Tricetin

>  <CAS_NUMBER>
520-31-0

>  <UNII>
5627PY99ZO

>  <SYNONYMS>
3',4',5,5',7-pentahydroxyflavone; 5,7,3',4',5'-Pentahydroxyflavone; Tricetin; Tricetinidin

$$$$
