
 OpenBabel10282417072D

172179  0  0  0  0  0  0  0  0999 V2000
   -3.5822    5.3624    0.0000 C   0  0  0  0  0  0  0  0  0  0  0  0
   -4.2965    5.7749    0.0000 N   0  0  0  0  0  0  0  0  0  0  0  0
   -5.0110    5.3624    0.0000 C   0  0  0  0  0  0  0  0  0  0  0  0
   -5.0110    4.5375    0.0000 C   0  0  0  0  0  0  0  0  0  0  0  0
   -4.2965    4.1249    0.0000 C   0  0  0  0  0  0  0  0  0  0  0  0
   -3.5822    4.5375    0.0000 N   0  0  0  0  0  0  0  0  0  0  0  0
   -2.8677    5.7749    0.0000 O   0  0  0  0  0  0  0  0  0  0  0  0
   -5.7256    5.7749    0.0000 O   0  0  0  0  0  0  0  0  0  0  0  0
   -4.2965    3.2999    0.0000 C   0  0  0  0  0  0  0  0  0  0  0  0
   -3.5822    2.8874    0.0000 O   0  0  0  0  0  0  0  0  0  0  0  0
   -5.0110    2.8874    0.0000 N   0  0  0  0  0  0  0  0  0  0  0  0
   -5.0110    2.0624    0.0000 C   0  0  1  0  0  0  0  0  0  0  0  0
   -4.2965    1.6499    0.0000 C   0  0  0  0  0  0  0  0  0  0  0  0
   -5.7256    1.6499    0.0000 C   0  0  2  0  0  0  0  0  0  0  0  0
   -5.7256    0.8249    0.0000 C   0  0  1  0  0  0  0  0  0  0  0  0
   -5.0110    0.4124    0.0000 C   0  0  0  0  0  0  0  0  0  0  0  0
   -4.2965    0.8249    0.0000 C   0  0  2  0  0  0  0  0  0  0  0  0
   -6.4400    2.0624    0.0000 O   0  0  0  0  0  0  0  0  0  0  0  0
   -3.5822    0.4124    0.0000 C   0  0  0  0  0  0  0  0  0  0  0  0
   -6.4400    0.4124    0.0000 O   0  0  0  0  0  0  0  0  0  0  0  0
   -7.1545    1.6499    0.0000 C   0  0  2  0  0  0  0  0  0  0  0  0
   -7.1545    0.8249    0.0000 O   0  0  0  0  0  0  0  0  0  0  0  0
   -7.8690    0.4124    0.0000 C   0  0  2  0  0  0  0  0  0  0  0  0
   -8.5835    0.8249    0.0000 C   0  0  2  0  0  0  0  0  0  0  0  0
   -8.5835    1.6499    0.0000 C   0  0  2  0  0  0  0  0  0  0  0  0
   -7.8690    2.0624    0.0000 C   0  0  2  0  0  0  0  0  0  0  0  0
   -6.4400   -0.4125    0.0000 C   0  0  2  0  0  0  0  0  0  0  0  0
   -5.7256   -0.8250    0.0000 O   0  0  0  0  0  0  0  0  0  0  0  0
   -5.7256   -1.6500    0.0000 C   0  0  1  0  0  0  0  0  0  0  0  0
   -6.4400   -2.0625    0.0000 C   0  0  1  0  0  0  0  0  0  0  0  0
   -7.1545   -1.6500    0.0000 C   0  0  1  0  0  0  0  0  0  0  0  0
   -7.1545   -0.8250    0.0000 C   0  0  1  0  0  0  0  0  0  0  0  0
   -7.8690   -0.4125    0.0000 O   0  0  0  0  0  0  0  0  0  0  0  0
   -7.8690   -2.0625    0.0000 O   0  0  0  0  0  0  0  0  0  0  0  0
   -6.4400   -2.8875    0.0000 O   0  0  0  0  0  0  0  0  0  0  0  0
   -9.2978    0.4124    0.0000 O   0  0  0  0  0  0  0  0  0  0  0  0
   -9.2978    2.0624    0.0000 O   0  0  0  0  0  0  0  0  0  0  0  0
   -7.8690    2.8874    0.0000 O   0  0  0  0  0  0  0  0  0  0  0  0
   -5.0110   -2.0625    0.0000 C   0  0  0  0  0  0  0  0  0  0  0  0
   -5.0110   -2.8875    0.0000 O   0  0  0  0  0  0  0  0  0  0  0  0
   -8.6760   -0.5840    0.0000 C   0  0  0  0  0  0  0  0  0  0  0  0
   -8.9308   -1.3686    0.0000 C   0  0  0  0  0  0  0  0  0  0  0  0
   -9.2280    0.0290    0.0000 O   0  0  0  0  0  0  0  0  0  0  0  0
   -9.7379   -1.5402    0.0000 C   0  0  0  0  0  0  0  0  0  0  0  0
   -8.3789   -1.9817    0.0000 C   0  0  0  0  0  0  0  0  0  0  0  0
   -8.6337   -2.7663    0.0000 C   0  0  0  0  0  0  0  0  0  0  0  0
   -9.4408   -2.9379    0.0000 C   0  0  0  0  0  0  0  0  0  0  0  0
   -9.9927   -2.3248    0.0000 C   0  0  0  0  0  0  0  0  0  0  0  0
   -7.8690   -2.8875    0.0000 C   0  0  1  0  0  0  0  0  0  0  0  0
   -8.5835   -3.3000    0.0000 C   0  0  0  0  0  0  0  0  0  0  0  0
   -7.1545   -3.3000    0.0000 C   0  0  0  0  0  0  0  0  0  0  0  0
   -7.1545   -4.1250    0.0000 O   0  0  0  0  0  0  0  0  0  0  0  0
   -6.3339   -3.3862    0.0000 O   0  0  0  0  0  0  0  0  0  0  0  0
   -8.5835   -4.1250    0.0000 C   0  0  0  0  0  0  0  0  0  0  0  0
   -7.8690   -4.5375    0.0000 C   0  0  0  0  0  0  0  0  0  0  0  0
   -7.8690   -5.3625    0.0000 C   0  0  0  0  0  0  0  0  0  0  0  0
   -8.5835   -5.7750    0.0000 C   0  0  0  0  0  0  0  0  0  0  0  0
   -9.2978   -5.3625    0.0000 C   0  0  0  0  0  0  0  0  0  0  0  0
   -9.2978   -4.5375    0.0000 C   0  0  0  0  0  0  0  0  0  0  0  0
   -3.5822   -0.4125    0.0000 O   0  0  0  0  0  0  0  0  0  0  0  0
   -2.8677    0.8249    0.0000 N   0  0  0  0  0  0  0  0  0  0  0  0
   -2.1531    0.4124    0.0000 C   0  0  0  0  0  0  0  0  0  0  0  0
   -1.4387    0.8249    0.0000 C   0  0  0  0  0  0  0  0  0  0  0  0
   -0.7242    0.4124    0.0000 N   0  0  0  0  0  0  0  0  0  0  0  0
   -0.0097    0.8249    0.0000 C   0  0  0  0  0  0  0  0  0  0  0  0
    0.7047    0.4124    0.0000 C   0  0  0  0  0  0  0  0  0  0  0  0
   -0.0097    1.6499    0.0000 O   0  0  0  0  0  0  0  0  0  0  0  0
    1.4191    0.8249    0.0000 O   0  0  0  0  0  0  0  0  0  0  0  0
    2.1336    0.4124    0.0000 C   0  0  0  0  0  0  0  0  0  0  0  0
    2.8481    0.8249    0.0000 C   0  0  0  0  0  0  0  0  0  0  0  0
    3.5624    0.4124    0.0000 O   0  0  0  0  0  0  0  0  0  0  0  0
    4.2770    0.8249    0.0000 C   0  0  0  0  0  0  0  0  0  0  0  0
    4.9915    0.4124    0.0000 C   0  0  0  0  0  0  0  0  0  0  0  0
    4.9915   -0.4125    0.0000 O   0  0  0  0  0  0  0  0  0  0  0  0
    5.7059    0.8249    0.0000 N   0  0  0  0  0  0  0  0  0  0  0  0
    6.4203    0.4124    0.0000 C   0  0  0  0  0  0  0  0  0  0  0  0
    7.1349    0.8249    0.0000 C   0  0  0  0  0  0  0  0  0  0  0  0
    7.8494    0.4124    0.0000 C   0  0  0  0  0  0  0  0  0  0  0  0
    7.8494   -0.4125    0.0000 C   0  0  0  0  0  0  0  0  0  0  0  0
    7.1349   -0.8250    0.0000 C   0  0  0  0  0  0  0  0  0  0  0  0
    6.4203   -0.4125    0.0000 C   0  0  0  0  0  0  0  0  0  0  0  0
    8.5637    0.8249    0.0000 C   0  0  0  0  0  0  0  0  0  0  0  0
    8.5637    1.6499    0.0000 C   0  0  0  0  0  0  0  0  0  0  0  0
    7.8494    2.0624    0.0000 C   0  0  0  0  0  0  0  0  0  0  0  0
    7.1349    1.6499    0.0000 C   0  0  0  0  0  0  0  0  0  0  0  0
    6.4203    2.0624    0.0000 S   0  0  0  0  0  0  0  0  0  0  0  0
    5.7059    2.4749    0.0000 O   0  0  0  0  0  0  0  0  0  0  0  0
    6.8328    2.7769    0.0000 O   0  0  0  0  0  0  0  0  0  0  0  0
    6.0079    1.3479    0.0000 O   0  0  0  0  0  0  0  0  0  0  0  0
    9.2783    2.0624    0.0000 S   0  0  0  0  0  0  0  0  0  0  0  0
    9.9928    2.4749    0.0000 O   0  0  0  0  0  0  0  0  0  0  0  0
    9.6908    1.3479    0.0000 O   0  0  0  0  0  0  0  0  0  0  0  0
    8.8658    2.7769    0.0000 O   0  0  0  0  0  0  0  0  0  0  0  0
    7.1349   -1.6500    0.0000 S   0  0  0  0  0  0  0  0  0  0  0  0
    7.1349   -2.4750    0.0000 O   0  0  0  0  0  0  0  0  0  0  0  0
    6.3099   -1.6500    0.0000 O   0  0  0  0  0  0  0  0  0  0  0  0
    7.9599   -1.6500    0.0000 O   0  0  0  0  0  0  0  0  0  0  0  0
   -8.3539   -0.2549    0.0000 C   0  0  0  0  0  0  0  0  0  0  0  0
   -7.8690   -3.7125    0.0000 H   0  0  0  0  0  0  0  0  0  0  0  0
   -4.2964    6.7594    0.0000 H   0  0  0  0  0  0  0  0  0  0  0  0
   -5.9048    4.0215    0.0000 H   0  0  0  0  0  0  0  0  0  0  0  0
   -2.7295    4.0453    0.0000 H   0  0  0  0  0  0  0  0  0  0  0  0
   -5.8636    3.3797    0.0000 H   0  0  0  0  0  0  0  0  0  0  0  0
   -4.0844    2.5974    0.0000 H   0  0  0  0  0  0  0  0  0  0  0  0
   -3.3699    2.1849    0.0000 H   0  0  0  0  0  0  0  0  0  0  0  0
   -3.3699    1.1149    0.0000 H   0  0  0  0  0  0  0  0  0  0  0  0
   -5.7255    2.7199    0.0000 H   0  0  0  0  0  0  0  0  0  0  0  0
   -6.6523    1.3599    0.0000 H   0  0  0  0  0  0  0  0  0  0  0  0
   -5.0110   -0.6576    0.0000 H   0  0  0  0  0  0  0  0  0  0  0  0
   -4.0843   -0.1226    0.0000 H   0  0  0  0  0  0  0  0  0  0  0  0
   -4.2966   -0.2451    0.0000 H   0  0  0  0  0  0  0  0  0  0  0  0
   -7.1545    2.7199    0.0000 H   0  0  0  0  0  0  0  0  0  0  0  0
   -7.1531   -0.3828    0.0000 H   0  0  0  0  0  0  0  0  0  0  0  0
   -8.5834   -0.2451    0.0000 H   0  0  0  0  0  0  0  0  0  0  0  0
   -9.5102    1.1149    0.0000 H   0  0  0  0  0  0  0  0  0  0  0  0
   -6.9424    2.5974    0.0000 H   0  0  0  0  0  0  0  0  0  0  0  0
   -7.3666    0.1225    0.0000 H   0  0  0  0  0  0  0  0  0  0  0  0
   -4.7990   -1.1150    0.0000 H   0  0  0  0  0  0  0  0  0  0  0  0
   -5.5133   -2.5975    0.0000 H   0  0  0  0  0  0  0  0  0  0  0  0
   -7.1545   -2.7200    0.0000 H   0  0  0  0  0  0  0  0  0  0  0  0
   -7.1545    0.2450    0.0000 H   0  0  0  0  0  0  0  0  0  0  0  0
   -7.2800   -3.3725    0.0000 H   0  0  0  0  0  0  0  0  0  0  0  0
  -10.1379    0.8973    0.0000 H   0  0  0  0  0  0  0  0  0  0  0  0
   -9.2977    3.0324    0.0000 H   0  0  0  0  0  0  0  0  0  0  0  0
   -7.0290    3.3724    0.0000 H   0  0  0  0  0  0  0  0  0  0  0  0
   -4.0844   -1.5275    0.0000 H   0  0  0  0  0  0  0  0  0  0  0  0
   -5.0111   -0.9925    0.0000 H   0  0  0  0  0  0  0  0  0  0  0  0
   -5.8510   -3.3725    0.0000 H   0  0  0  0  0  0  0  0  0  0  0  0
  -10.4285   -0.7733    0.0000 H   0  0  0  0  0  0  0  0  0  0  0  0
   -7.3695   -1.7671    0.0000 H   0  0  0  0  0  0  0  0  0  0  0  0
   -7.9431   -3.5332    0.0000 H   0  0  0  0  0  0  0  0  0  0  0  0
   -9.7597   -3.9194    0.0000 H   0  0  0  0  0  0  0  0  0  0  0  0
  -11.0021   -2.5394    0.0000 H   0  0  0  0  0  0  0  0  0  0  0  0
   -9.5101   -2.7650    0.0000 H   0  0  0  0  0  0  0  0  0  0  0  0
   -9.5101   -3.8350    0.0000 H   0  0  0  0  0  0  0  0  0  0  0  0
   -7.9660   -4.5935    0.0000 H   0  0  0  0  0  0  0  0  0  0  0  0
   -8.5834   -5.1950    0.0000 H   0  0  0  0  0  0  0  0  0  0  0  0
   -6.9424   -4.0025    0.0000 H   0  0  0  0  0  0  0  0  0  0  0  0
   -6.9424   -5.0725    0.0000 H   0  0  0  0  0  0  0  0  0  0  0  0
   -6.9424   -5.8975    0.0000 H   0  0  0  0  0  0  0  0  0  0  0  0
   -7.8690   -6.4325    0.0000 H   0  0  0  0  0  0  0  0  0  0  0  0
   -8.5836   -6.8450    0.0000 H   0  0  0  0  0  0  0  0  0  0  0  0
   -9.5102   -6.3099    0.0000 H   0  0  0  0  0  0  0  0  0  0  0  0
  -10.2245   -5.8975    0.0000 H   0  0  0  0  0  0  0  0  0  0  0  0
  -10.2244   -4.8275    0.0000 H   0  0  0  0  0  0  0  0  0  0  0  0
  -10.2245   -4.0025    0.0000 H   0  0  0  0  0  0  0  0  0  0  0  0
  -10.2244   -5.0725    0.0000 H   0  0  0  0  0  0  0  0  0  0  0  0
   -2.8677    1.8094    0.0000 H   0  0  0  0  0  0  0  0  0  0  0  0
   -2.1530   -0.6576    0.0000 H   0  0  0  0  0  0  0  0  0  0  0  0
   -1.2264   -0.1226    0.0000 H   0  0  0  0  0  0  0  0  0  0  0  0
   -1.4387    1.8949    0.0000 H   0  0  0  0  0  0  0  0  0  0  0  0
   -0.5121    1.3599    0.0000 H   0  0  0  0  0  0  0  0  0  0  0  0
   -0.7242   -0.5721    0.0000 H   0  0  0  0  0  0  0  0  0  0  0  0
    0.7047   -0.6576    0.0000 H   0  0  0  0  0  0  0  0  0  0  0  0
    1.6314   -0.1226    0.0000 H   0  0  0  0  0  0  0  0  0  0  0  0
    2.1336   -0.6576    0.0000 H   0  0  0  0  0  0  0  0  0  0  0  0
    3.0602   -0.1226    0.0000 H   0  0  0  0  0  0  0  0  0  0  0  0
    2.8482    1.8949    0.0000 H   0  0  0  0  0  0  0  0  0  0  0  0
    3.7748    1.3598    0.0000 H   0  0  0  0  0  0  0  0  0  0  0  0
    4.2770    1.8949    0.0000 H   0  0  0  0  0  0  0  0  0  0  0  0
    5.2037    1.3599    0.0000 H   0  0  0  0  0  0  0  0  0  0  0  0
    5.7059    1.8094    0.0000 H   0  0  0  0  0  0  0  0  0  0  0  0
    8.7431   -0.9285    0.0000 H   0  0  0  0  0  0  0  0  0  0  0  0
    5.5266   -0.9285    0.0000 H   0  0  0  0  0  0  0  0  0  0  0  0
    9.4575    0.3089    0.0000 H   0  0  0  0  0  0  0  0  0  0  0  0
    7.8495    3.0944    0.0000 H   0  0  0  0  0  0  0  0  0  0  0  0
    5.0379    1.3478    0.0000 H   0  0  0  0  0  0  0  0  0  0  0  0
    9.3508    3.6169    0.0000 H   0  0  0  0  0  0  0  0  0  0  0  0
    8.4449   -2.4900    0.0000 H   0  0  0  0  0  0  0  0  0  0  0  0
   -9.4180   -0.1430    0.0000 H   0  0  0  0  0  0  0  0  0  0  0  0
   -7.9188   -1.2324    0.0000 H   0  0  0  0  0  0  0  0  0  0  0  0
   -8.9829   -1.1205    0.0000 H   0  0  0  0  0  0  0  0  0  0  0  0
  1  2  1  0  0  0  0
  1  6  1  0  0  0  0
  1  7  2  0  0  0  0
  2  3  1  0  0  0  0
  2100  1  0  0  0  0
  3  4  1  0  0  0  0
  3  8  2  0  0  0  0
  4  5  2  0  0  0  0
  4101  1  0  0  0  0
  5  6  1  0  0  0  0
  5  9  1  0  0  0  0
  6102  1  0  0  0  0
  9 10  2  0  0  0  0
  9 11  1  0  0  0  0
 11103  1  0  0  0  0
 12 11  1  0  0  0  0
 12 14  1  0  0  0  0
 12104  1  6  0  0  0
 13 12  1  0  0  0  0
 13 17  1  0  0  0  0
 13105  1  0  0  0  0
 13106  1  0  0  0  0
 14 15  1  0  0  0  0
 14 18  1  0  0  0  0
 14107  1  1  0  0  0
 15 16  1  0  0  0  0
 15 20  1  0  0  0  0
 15108  1  6  0  0  0
 16 17  1  0  0  0  0
 16109  1  0  0  0  0
 16110  1  0  0  0  0
 17 19  1  0  0  0  0
 17111  1  6  0  0  0
 19 60  2  0  0  0  0
 19 61  1  0  0  0  0
 21 18  1  0  0  0  0
 21112  1  1  0  0  0
 22 21  1  0  0  0  0
 22 23  1  0  0  0  0
 23 24  1  0  0  0  0
 23 98  1  0  0  0  0
 23113  1  6  0  0  0
 24 25  1  0  0  0  0
 24 36  1  0  0  0  0
 24114  1  6  0  0  0
 25 26  1  0  0  0  0
 25 37  1  0  0  0  0
 25115  1  6  0  0  0
 26 21  1  0  0  0  0
 26 38  1  0  0  0  0
 26116  1  1  0  0  0
 27 20  1  0  0  0  0
 27117  1  1  0  0  0
 28 27  1  0  0  0  0
 28 29  1  0  0  0  0
 29 30  1  0  0  0  0
 29 39  1  0  0  0  0
 29118  1  1  0  0  0
 30 31  1  0  0  0  0
 30 35  1  0  0  0  0
 30119  1  1  0  0  0
 31 32  1  0  0  0  0
 31 34  1  0  0  0  0
 31120  1  1  0  0  0
 32 27  1  0  0  0  0
 32 33  1  0  0  0  0
 32121  1  6  0  0  0
 33 41  1  0  0  0  0
 34 49  1  0  0  0  0
 35122  1  0  0  0  0
 36123  1  0  0  0  0
 37124  1  0  0  0  0
 38125  1  0  0  0  0
 39 40  1  0  0  0  0
 39126  1  0  0  0  0
 39127  1  0  0  0  0
 40128  1  0  0  0  0
 41 42  1  0  0  0  0
 41 43  2  0  0  0  0
 42 45  1  0  0  0  0
 44 42  2  0  0  0  0
 44 48  1  0  0  0  0
 44129  1  0  0  0  0
 45 46  2  0  0  0  0
 45130  1  0  0  0  0
 46 47  1  0  0  0  0
 46131  1  0  0  0  0
 47 48  2  0  0  0  0
 47132  1  0  0  0  0
 48133  1  0  0  0  0
 49 50  1  0  0  0  0
 49 51  1  0  0  0  0
 49 99  1  1  0  0  0
 50 54  1  0  0  0  0
 50134  1  0  0  0  0
 50135  1  0  0  0  0
 51 52  1  0  0  0  0
 51 53  2  0  0  0  0
 52136  1  0  0  0  0
 54137  1  0  0  0  0
 55 54  1  0  0  0  0
 55 56  1  0  0  0  0
 55138  1  0  0  0  0
 55139  1  0  0  0  0
 56 57  1  0  0  0  0
 56140  1  0  0  0  0
 56141  1  0  0  0  0
 57 58  1  0  0  0  0
 57142  1  0  0  0  0
 57143  1  0  0  0  0
 58 59  1  0  0  0  0
 58144  1  0  0  0  0
 58145  1  0  0  0  0
 59 54  1  0  0  0  0
 59146  1  0  0  0  0
 59147  1  0  0  0  0
 61 62  1  0  0  0  0
 61148  1  0  0  0  0
 62 63  1  0  0  0  0
 62149  1  0  0  0  0
 62150  1  0  0  0  0
 63 64  1  0  0  0  0
 63151  1  0  0  0  0
 63152  1  0  0  0  0
 64 65  1  0  0  0  0
 64153  1  0  0  0  0
 65 66  1  0  0  0  0
 65 67  2  0  0  0  0
 66 68  1  0  0  0  0
 66154  1  0  0  0  0
 66155  1  0  0  0  0
 68 69  1  0  0  0  0
 69 70  1  0  0  0  0
 69156  1  0  0  0  0
 69157  1  0  0  0  0
 70 71  1  0  0  0  0
 70158  1  0  0  0  0
 70159  1  0  0  0  0
 71 72  1  0  0  0  0
 72 73  1  0  0  0  0
 72160  1  0  0  0  0
 72161  1  0  0  0  0
 73 74  2  0  0  0  0
 73 75  1  0  0  0  0
 75 76  1  0  0  0  0
 75162  1  0  0  0  0
 76 77  2  0  0  0  0
 76 81  1  0  0  0  0
 77 85  1  0  0  0  0
 77 78  1  0  0  0  0
 78 79  2  0  0  0  0
 78 82  1  0  0  0  0
 79 80  1  0  0  0  0
 79163  1  0  0  0  0
 80 81  2  0  0  0  0
 80 94  1  0  0  0  0
 81164  1  0  0  0  0
 82 83  2  0  0  0  0
 82165  1  0  0  0  0
 83 84  1  0  0  0  0
 83 90  1  0  0  0  0
 84 85  2  0  0  0  0
 84166  1  0  0  0  0
 85 86  1  0  0  0  0
 86 87  2  0  0  0  0
 86 88  2  0  0  0  0
 86 89  1  0  0  0  0
 89167  1  0  0  0  0
 90 91  2  0  0  0  0
 90 92  2  0  0  0  0
 90 93  1  0  0  0  0
 93168  1  0  0  0  0
 94 95  2  0  0  0  0
 94 96  2  0  0  0  0
 94 97  1  0  0  0  0
 97169  1  0  0  0  0
 98170  1  0  0  0  0
 98171  1  0  0  0  0
 98172  1  0  0  0  0
M  END
>  <DRUGBANK_ID>
DB12778

>  <SECONDARY_ACCESSION_NUMBERS>
DB12544

>  <COMMON_NAME>
Rivipansel

>  <CAS_NUMBER>
927881-99-0

>  <UNII>
4B115V09LB

>  <SYNONYMS>
GMI-1070

$$$$
