
 OpenBabel10282417072D

201210  0  0  1  0  0  0  0  0999 V2000
    2.7512   -0.0616    0.0000 C   0  0  0  0  0  0  0  0  0  0  0  0
    3.4656   -0.4741    0.0000 C   0  0  2  0  0  0  0  0  0  0  0  0
    3.4656   -1.2991    0.0000 N   0  0  0  0  0  0  0  0  0  0  0  0
    2.7512   -1.7116    0.0000 C   0  0  0  0  0  0  0  0  0  0  0  0
    2.0367   -1.2991    0.0000 O   0  0  0  0  0  0  0  0  0  0  0  0
    2.7512   -2.5366    0.0000 C   0  0  2  0  0  0  0  0  0  0  0  0
    3.4186   -3.0215    0.0000 C   0  0  0  0  0  0  0  0  0  0  0  0
    3.1637   -3.8062    0.0000 C   0  0  1  0  0  0  0  0  0  0  0  0
    3.6486   -4.4736    0.0000 O   0  0  0  0  0  0  0  0  0  0  0  0
    2.3387   -3.8062    0.0000 C   0  0  0  0  0  0  0  0  0  0  0  0
    2.0837   -3.0215    0.0000 N   0  0  0  0  0  0  0  0  0  0  0  0
    1.2991   -2.7666    0.0000 C   0  0  0  0  0  0  0  0  0  0  0  0
    1.1276   -1.9596    0.0000 O   0  0  0  0  0  0  0  0  0  0  0  0
    0.6860   -3.3186    0.0000 C   0  0  1  0  0  0  0  0  0  0  0  0
   -0.0986   -3.0637    0.0000 N   0  0  0  0  0  0  0  0  0  0  0  0
   -0.7117   -3.6157    0.0000 C   0  0  0  0  0  0  0  0  0  0  0  0
   -0.5402   -4.4227    0.0000 O   0  0  0  0  0  0  0  0  0  0  0  0
   -1.4963   -3.3608    0.0000 C   0  0  0  0  0  0  0  0  0  0  0  0
   -2.1094   -3.9128    0.0000 C   0  0  0  0  0  0  0  0  0  0  0  0
   -2.8940   -3.6579    0.0000 C   0  0  0  0  0  0  0  0  0  0  0  0
   -3.5071   -4.2099    0.0000 C   0  0  0  0  0  0  0  0  0  0  0  0
   -4.2917   -3.9550    0.0000 C   0  0  0  0  0  0  0  0  0  0  0  0
   -4.9048   -4.5070    0.0000 C   0  0  0  0  0  0  0  0  0  0  0  0
   -4.7333   -5.3140    0.0000 O   0  0  0  0  0  0  0  0  0  0  0  0
   -5.6895   -4.2521    0.0000 N   0  0  0  0  0  0  0  0  0  0  0  0
   -6.3026   -4.8041    0.0000 C   0  0  0  0  0  0  0  0  0  0  0  0
   -7.0872   -4.5492    0.0000 C   0  0  0  0  0  0  0  0  0  0  0  0
   -7.2587   -3.7422    0.0000 N   0  0  0  0  0  0  0  0  0  0  0  0
   -8.0433   -3.4872    0.0000 C   0  0  0  0  0  0  0  0  0  0  0  0
   -8.2149   -2.6803    0.0000 C   0  0  0  0  0  0  0  0  0  0  0  0
   -8.9995   -2.4253    0.0000 C   0  0  2  0  0  0  0  0  0  0  0  0
   -9.6126   -2.9774    0.0000 C   0  0  0  0  0  0  0  0  0  0  0  0
   -9.4410   -3.7843    0.0000 S   0  0  0  0  0  0  0  0  0  0  0  0
  -10.0541   -4.3364    0.0000 C   0  0  0  0  0  0  0  0  0  0  0  0
   -9.8826   -5.1433    0.0000 C   0  0  0  0  0  0  0  0  0  0  0  0
  -10.4957   -5.6954    0.0000 C   0  0  0  0  0  0  0  0  0  0  0  0
  -11.2803   -5.4404    0.0000 C   0  0  0  0  0  0  0  0  0  0  0  0
  -11.4519   -4.6335    0.0000 C   0  0  0  0  0  0  0  0  0  0  0  0
  -10.8388   -4.0814    0.0000 C   0  0  0  0  0  0  0  0  0  0  0  0
   -9.1710   -1.6184    0.0000 N   0  0  0  0  0  0  0  0  0  0  0  0
   -9.9556   -1.3634    0.0000 C   0  0  0  0  0  0  0  0  0  0  0  0
  -10.5687   -1.9155    0.0000 C   0  0  0  0  0  0  0  0  0  0  0  0
  -11.3533   -1.6605    0.0000 C   0  0  0  0  0  0  0  0  0  0  0  0
  -11.5249   -0.8535    0.0000 C   0  0  0  0  0  0  0  0  0  0  0  0
  -10.9118   -0.3015    0.0000 C   0  0  0  0  0  0  0  0  0  0  0  0
  -10.1272   -0.5564    0.0000 C   0  0  0  0  0  0  0  0  0  0  0  0
   -9.5141   -0.0044    0.0000 S   0  0  0  0  0  0  0  0  0  0  0  0
   -8.9620   -0.6175    0.0000 O   0  0  0  0  0  0  0  0  0  0  0  0
  -10.0661    0.6087    0.0000 O   0  0  0  0  0  0  0  0  0  0  0  0
   -8.9010    0.5476    0.0000 C   0  0  0  0  0  0  0  0  0  0  0  0
   -8.3489   -0.0655    0.0000 F   0  0  0  0  0  0  0  0  0  0  0  0
   -9.4530    1.1607    0.0000 F   0  0  0  0  0  0  0  0  0  0  0  0
   -8.2879    1.0996    0.0000 F   0  0  0  0  0  0  0  0  0  0  0  0
  -12.3095   -0.5986    0.0000 S   0  0  0  0  0  0  0  0  0  0  0  0
  -12.5644   -1.3832    0.0000 O   0  0  0  0  0  0  0  0  0  0  0  0
  -12.0546    0.1860    0.0000 O   0  0  0  0  0  0  0  0  0  0  0  0
  -13.0941   -0.3437    0.0000 N   0  0  0  0  0  0  0  0  0  0  0  0
  -13.2656    0.4633    0.0000 C   0  0  0  0  0  0  0  0  0  0  0  0
  -12.6525    1.0153    0.0000 O   0  0  0  0  0  0  0  0  0  0  0  0
  -14.0503    0.7182    0.0000 C   0  0  0  0  0  0  0  0  0  0  0  0
  -14.6634    0.1662    0.0000 C   0  0  0  0  0  0  0  0  0  0  0  0
  -15.4480    0.4212    0.0000 C   0  0  0  0  0  0  0  0  0  0  0  0
  -15.6195    1.2281    0.0000 C   0  0  0  0  0  0  0  0  0  0  0  0
  -15.0064    1.7802    0.0000 C   0  0  0  0  0  0  0  0  0  0  0  0
  -14.2218    1.5252    0.0000 C   0  0  0  0  0  0  0  0  0  0  0  0
  -16.4041    1.4831    0.0000 N   0  0  0  0  0  0  0  0  0  0  0  0
  -17.0172    0.9310    0.0000 C   0  0  0  0  0  0  0  0  0  0  0  0
  -17.8018    1.1860    0.0000 C   0  0  0  0  0  0  0  0  0  0  0  0
  -17.9734    1.9929    0.0000 N   0  0  0  0  0  0  0  0  0  0  0  0
  -18.7580    2.2479    0.0000 C   0  0  0  0  0  0  0  0  0  0  0  0
  -18.9295    3.0549    0.0000 C   0  0  0  0  0  0  0  0  0  0  0  0
  -19.7141    3.3098    0.0000 C   0  0  0  0  0  0  0  0  0  0  0  0
  -19.8857    4.1168    0.0000 C   0  0  0  0  0  0  0  0  0  0  0  0
  -19.2726    4.6688    0.0000 C   0  0  0  0  0  0  0  0  0  0  0  0
  -18.4880    4.4139    0.0000 C   0  0  0  0  0  0  0  0  0  0  0  0
  -18.3731    5.2308    0.0000 C   0  0  0  0  0  0  0  0  0  0  0  0
  -17.6635    4.4426    0.0000 C   0  0  0  0  0  0  0  0  0  0  0  0
  -18.3164    3.6069    0.0000 C   0  0  0  0  0  0  0  0  0  0  0  0
  -20.3272    2.7578    0.0000 C   0  0  0  0  0  0  0  0  0  0  0  0
  -20.1557    1.9508    0.0000 C   0  0  0  0  0  0  0  0  0  0  0  0
  -20.7688    1.3988    0.0000 C   0  0  0  0  0  0  0  0  0  0  0  0
  -21.5534    1.6537    0.0000 C   0  0  0  0  0  0  0  0  0  0  0  0
  -22.1665    1.1017    0.0000 Cl  0  0  0  0  0  0  0  0  0  0  0  0
  -21.7249    2.4607    0.0000 C   0  0  0  0  0  0  0  0  0  0  0  0
  -21.1119    3.0127    0.0000 C   0  0  0  0  0  0  0  0  0  0  0  0
  -17.3603    2.5450    0.0000 C   0  0  0  0  0  0  0  0  0  0  0  0
  -16.5757    2.2900    0.0000 C   0  0  0  0  0  0  0  0  0  0  0  0
   -6.6456   -3.1901    0.0000 C   0  0  0  0  0  0  0  0  0  0  0  0
   -5.8610   -3.4451    0.0000 C   0  0  0  0  0  0  0  0  0  0  0  0
    0.8576   -4.1256    0.0000 C   0  0  0  0  0  0  0  0  0  0  0  0
    1.0291   -4.9326    0.0000 C   0  0  0  0  0  0  0  0  0  0  0  0
    0.0506   -4.2971    0.0000 C   0  0  0  0  0  0  0  0  0  0  0  0
    1.6645   -3.9541    0.0000 C   0  0  0  0  0  0  0  0  0  0  0  0
    4.1801   -0.0616    0.0000 C   0  0  0  0  0  0  0  0  0  0  0  0
    4.1801    0.7634    0.0000 C   0  0  0  0  0  0  0  0  0  0  0  0
    4.8946    1.1759    0.0000 C   0  0  0  0  0  0  0  0  0  0  0  0
    5.6091    0.7634    0.0000 C   0  0  0  0  0  0  0  0  0  0  0  0
    5.6091   -0.0616    0.0000 C   0  0  0  0  0  0  0  0  0  0  0  0
    4.8946   -0.4741    0.0000 C   0  0  0  0  0  0  0  0  0  0  0  0
    6.3235    1.1759    0.0000 C   0  0  0  0  0  0  0  0  0  0  0  0
    6.4098    1.9964    0.0000 S   0  0  0  0  0  0  0  0  0  0  0  0
    7.2167    2.1679    0.0000 C   0  0  0  0  0  0  0  0  0  0  0  0
    7.6292    1.4534    0.0000 N   0  0  0  0  0  0  0  0  0  0  0  0
    7.0772    0.8403    0.0000 C   0  0  0  0  0  0  0  0  0  0  0  0
    7.2487    0.0334    0.0000 C   0  0  0  0  0  0  0  0  0  0  0  0
    2.7512    1.0084    0.0000 H   0  0  0  0  0  0  0  0  0  0  0  0
    1.8245   -0.5966    0.0000 H   0  0  0  0  0  0  0  0  0  0  0  0
    1.8246    0.4734    0.0000 H   0  0  0  0  0  0  0  0  0  0  0  0
    2.5389   -1.0091    0.0000 H   0  0  0  0  0  0  0  0  0  0  0  0
    4.3182   -1.7913    0.0000 H   0  0  0  0  0  0  0  0  0  0  0  0
    3.7046   -2.0508    0.0000 H   0  0  0  0  0  0  0  0  0  0  0  0
    4.4362   -2.6908    0.0000 H   0  0  0  0  0  0  0  0  0  0  0  0
    4.1752   -3.7781    0.0000 H   0  0  0  0  0  0  0  0  0  0  0  0
    4.2205   -3.6388    0.0000 H   0  0  0  0  0  0  0  0  0  0  0  0
    3.2541   -5.3597    0.0000 H   0  0  0  0  0  0  0  0  0  0  0  0
    1.7098   -4.6719    0.0000 H   0  0  0  0  0  0  0  0  0  0  0  0
    1.2819   -3.6388    0.0000 H   0  0  0  0  0  0  0  0  0  0  0  0
    0.4635   -2.2720    0.0000 H   0  0  0  0  0  0  0  0  0  0  0  0
   -0.3033   -2.1007    0.0000 H   0  0  0  0  0  0  0  0  0  0  0  0
   -1.7188   -2.3142    0.0000 H   0  0  0  0  0  0  0  0  0  0  0  0
   -2.5139   -3.0301    0.0000 H   0  0  0  0  0  0  0  0  0  0  0  0
   -1.8869   -4.9594    0.0000 H   0  0  0  0  0  0  0  0  0  0  0  0
   -2.9046   -4.6288    0.0000 H   0  0  0  0  0  0  0  0  0  0  0  0
   -3.1165   -2.6113    0.0000 H   0  0  0  0  0  0  0  0  0  0  0  0
   -3.9116   -3.3272    0.0000 H   0  0  0  0  0  0  0  0  0  0  0  0
   -3.2846   -5.2565    0.0000 H   0  0  0  0  0  0  0  0  0  0  0  0
   -4.3023   -4.9259    0.0000 H   0  0  0  0  0  0  0  0  0  0  0  0
   -4.5142   -2.9084    0.0000 H   0  0  0  0  0  0  0  0  0  0  0  0
   -5.3093   -3.6243    0.0000 H   0  0  0  0  0  0  0  0  0  0  0  0
   -6.0801   -5.8507    0.0000 H   0  0  0  0  0  0  0  0  0  0  0  0
   -7.0978   -5.5201    0.0000 H   0  0  0  0  0  0  0  0  0  0  0  0
   -7.8824   -5.2652    0.0000 H   0  0  0  0  0  0  0  0  0  0  0  0
   -8.1048   -4.2185    0.0000 H   0  0  0  0  0  0  0  0  0  0  0  0
   -8.8385   -4.2032    0.0000 H   0  0  0  0  0  0  0  0  0  0  0  0
   -9.0609   -3.1566    0.0000 H   0  0  0  0  0  0  0  0  0  0  0  0
   -7.4197   -1.9643    0.0000 H   0  0  0  0  0  0  0  0  0  0  0  0
   -8.4373   -1.6337    0.0000 H   0  0  0  0  0  0  0  0  0  0  0  0
   -8.2043   -1.7094    0.0000 H   0  0  0  0  0  0  0  0  0  0  0  0
  -10.6303   -2.6468    0.0000 H   0  0  0  0  0  0  0  0  0  0  0  0
  -10.4077   -3.6934    0.0000 H   0  0  0  0  0  0  0  0  0  0  0  0
   -8.9011   -5.4622    0.0000 H   0  0  0  0  0  0  0  0  0  0  0  0
  -10.2811   -6.7049    0.0000 H   0  0  0  0  0  0  0  0  0  0  0  0
  -12.0472   -6.1310    0.0000 H   0  0  0  0  0  0  0  0  0  0  0  0
  -12.4334   -4.3147    0.0000 H   0  0  0  0  0  0  0  0  0  0  0  0
  -11.0534   -3.0720    0.0000 H   0  0  0  0  0  0  0  0  0  0  0  0
   -8.4393   -0.9597    0.0000 H   0  0  0  0  0  0  0  0  0  0  0  0
  -10.3541   -2.9250    0.0000 H   0  0  0  0  0  0  0  0  0  0  0  0
  -12.1202   -2.3510    0.0000 H   0  0  0  0  0  0  0  0  0  0  0  0
  -11.1264    0.7079    0.0000 H   0  0  0  0  0  0  0  0  0  0  0  0
  -13.8257   -1.0025    0.0000 H   0  0  0  0  0  0  0  0  0  0  0  0
  -14.4489   -0.8433    0.0000 H   0  0  0  0  0  0  0  0  0  0  0  0
  -16.2150   -0.2693    0.0000 H   0  0  0  0  0  0  0  0  0  0  0  0
  -15.2210    2.7897    0.0000 H   0  0  0  0  0  0  0  0  0  0  0  0
  -13.4548    2.2157    0.0000 H   0  0  0  0  0  0  0  0  0  0  0  0
  -16.7947   -0.1156    0.0000 H   0  0  0  0  0  0  0  0  0  0  0  0
  -17.8124    0.2151    0.0000 H   0  0  0  0  0  0  0  0  0  0  0  0
  -18.5970    0.4700    0.0000 H   0  0  0  0  0  0  0  0  0  0  0  0
  -18.8194    1.5166    0.0000 H   0  0  0  0  0  0  0  0  0  0  0  0
  -19.5532    1.5320    0.0000 H   0  0  0  0  0  0  0  0  0  0  0  0
  -19.7756    2.5786    0.0000 H   0  0  0  0  0  0  0  0  0  0  0  0
  -20.9033    4.4474    0.0000 H   0  0  0  0  0  0  0  0  0  0  0  0
  -20.1082    5.1634    0.0000 H   0  0  0  0  0  0  0  0  0  0  0  0
  -19.4951    5.7154    0.0000 H   0  0  0  0  0  0  0  0  0  0  0  0
  -18.4774    5.3848    0.0000 H   0  0  0  0  0  0  0  0  0  0  0  0
  -17.3810    5.6315    0.0000 H   0  0  0  0  0  0  0  0  0  0  0  0
  -19.2162    5.8897    0.0000 H   0  0  0  0  0  0  0  0  0  0  0  0
  -18.2241    6.2904    0.0000 H   0  0  0  0  0  0  0  0  0  0  0  0
  -17.0966    3.5351    0.0000 H   0  0  0  0  0  0  0  0  0  0  0  0
  -17.1611    5.3873    0.0000 H   0  0  0  0  0  0  0  0  0  0  0  0
  -16.5941    4.4798    0.0000 H   0  0  0  0  0  0  0  0  0  0  0  0
  -17.2988    3.2763    0.0000 H   0  0  0  0  0  0  0  0  0  0  0  0
  -18.0939    2.5603    0.0000 H   0  0  0  0  0  0  0  0  0  0  0  0
  -19.1742    1.6319    0.0000 H   0  0  0  0  0  0  0  0  0  0  0  0
  -20.5542    0.3894    0.0000 H   0  0  0  0  0  0  0  0  0  0  0  0
  -22.7064    2.7796    0.0000 H   0  0  0  0  0  0  0  0  0  0  0  0
  -21.3265    4.0221    0.0000 H   0  0  0  0  0  0  0  0  0  0  0  0
  -17.5828    3.5916    0.0000 H   0  0  0  0  0  0  0  0  0  0  0  0
  -16.5651    3.2609    0.0000 H   0  0  0  0  0  0  0  0  0  0  0  0
  -15.7805    3.0060    0.0000 H   0  0  0  0  0  0  0  0  0  0  0  0
  -15.5581    1.9594    0.0000 H   0  0  0  0  0  0  0  0  0  0  0  0
   -6.8681   -2.1435    0.0000 H   0  0  0  0  0  0  0  0  0  0  0  0
   -5.8504   -2.4742    0.0000 H   0  0  0  0  0  0  0  0  0  0  0  0
   -5.0658   -2.7292    0.0000 H   0  0  0  0  0  0  0  0  0  0  0  0
   -4.8434   -3.7758    0.0000 H   0  0  0  0  0  0  0  0  0  0  0  0
    0.2339   -5.6485    0.0000 H   0  0  0  0  0  0  0  0  0  0  0  0
    2.0467   -5.2633    0.0000 H   0  0  0  0  0  0  0  0  0  0  0  0
    1.2515   -5.9792    0.0000 H   0  0  0  0  0  0  0  0  0  0  0  0
   -0.6653   -3.5019    0.0000 H   0  0  0  0  0  0  0  0  0  0  0  0
   -0.2801   -5.3147    0.0000 H   0  0  0  0  0  0  0  0  0  0  0  0
   -0.9960   -4.5195    0.0000 H   0  0  0  0  0  0  0  0  0  0  0  0
    2.3805   -4.7493    0.0000 H   0  0  0  0  0  0  0  0  0  0  0  0
    1.9952   -2.9365    0.0000 H   0  0  0  0  0  0  0  0  0  0  0  0
    2.7111   -3.7316    0.0000 H   0  0  0  0  0  0  0  0  0  0  0  0
    3.2864    1.2794    0.0000 H   0  0  0  0  0  0  0  0  0  0  0  0
    4.8946    2.2079    0.0000 H   0  0  0  0  0  0  0  0  0  0  0  0
    6.5028   -0.5776    0.0000 H   0  0  0  0  0  0  0  0  0  0  0  0
    4.8946   -1.5061    0.0000 H   0  0  0  0  0  0  0  0  0  0  0  0
    7.6365    3.1107    0.0000 H   0  0  0  0  0  0  0  0  0  0  0  0
    6.4535   -0.6826    0.0000 H   0  0  0  0  0  0  0  0  0  0  0  0
    8.2663   -0.2973    0.0000 H   0  0  0  0  0  0  0  0  0  0  0  0
    7.4712   -1.0132    0.0000 H   0  0  0  0  0  0  0  0  0  0  0  0
  1106  1  0  0  0  0
  1107  1  0  0  0  0
  1108  1  0  0  0  0
  2  1  1  0  0  0  0
  2  3  1  0  0  0  0
  2 94  1  0  0  0  0
  2109  1  6  0  0  0
  3  4  1  0  0  0  0
  3110  1  0  0  0  0
  4  5  2  0  0  0  0
  6  4  1  0  0  0  0
  6  7  1  0  0  0  0
  6 11  1  0  0  0  0
  6111  1  1  0  0  0
  7112  1  0  0  0  0
  7113  1  0  0  0  0
  8  7  1  0  0  0  0
  8  9  1  0  0  0  0
  8 10  1  0  0  0  0
  8114  1  6  0  0  0
  9115  1  0  0  0  0
 10 11  1  0  0  0  0
 10116  1  0  0  0  0
 10117  1  0  0  0  0
 11 12  1  0  0  0  0
 12 13  2  0  0  0  0
 14 12  1  0  0  0  0
 14 15  1  0  0  0  0
 14 90  1  0  0  0  0
 14118  1  1  0  0  0
 15 16  1  0  0  0  0
 15119  1  0  0  0  0
 16 17  2  0  0  0  0
 16 18  1  0  0  0  0
 18 19  1  0  0  0  0
 18120  1  0  0  0  0
 18121  1  0  0  0  0
 19 20  1  0  0  0  0
 19122  1  0  0  0  0
 19123  1  0  0  0  0
 20 21  1  0  0  0  0
 20124  1  0  0  0  0
 20125  1  0  0  0  0
 21 22  1  0  0  0  0
 21126  1  0  0  0  0
 21127  1  0  0  0  0
 22 23  1  0  0  0  0
 22128  1  0  0  0  0
 22129  1  0  0  0  0
 23 24  2  0  0  0  0
 23 25  1  0  0  0  0
 25 26  1  0  0  0  0
 25 89  1  0  0  0  0
 26 27  1  0  0  0  0
 26130  1  0  0  0  0
 26131  1  0  0  0  0
 27 28  1  0  0  0  0
 27132  1  0  0  0  0
 27133  1  0  0  0  0
 28 29  1  0  0  0  0
 28 88  1  0  0  0  0
 29 30  1  0  0  0  0
 29134  1  0  0  0  0
 29135  1  0  0  0  0
 30136  1  0  0  0  0
 30137  1  0  0  0  0
 31 30  1  0  0  0  0
 31 32  1  0  0  0  0
 31 40  1  0  0  0  0
 31138  1  1  0  0  0
 32 33  1  0  0  0  0
 32139  1  0  0  0  0
 32140  1  0  0  0  0
 33 34  1  0  0  0  0
 34 35  2  0  0  0  0
 34 39  1  0  0  0  0
 35 36  1  0  0  0  0
 35141  1  0  0  0  0
 36 37  2  0  0  0  0
 36142  1  0  0  0  0
 37 38  1  0  0  0  0
 37143  1  0  0  0  0
 38 39  2  0  0  0  0
 38144  1  0  0  0  0
 39145  1  0  0  0  0
 40 41  1  0  0  0  0
 40146  1  0  0  0  0
 41 42  2  0  0  0  0
 41 46  1  0  0  0  0
 42 43  1  0  0  0  0
 42147  1  0  0  0  0
 43 44  2  0  0  0  0
 43148  1  0  0  0  0
 44 45  1  0  0  0  0
 44 54  1  0  0  0  0
 45 46  2  0  0  0  0
 45149  1  0  0  0  0
 46 47  1  0  0  0  0
 47 48  2  0  0  0  0
 47 49  2  0  0  0  0
 47 50  1  0  0  0  0
 50 51  1  0  0  0  0
 50 52  1  0  0  0  0
 50 53  1  0  0  0  0
 54 55  2  0  0  0  0
 54 56  2  0  0  0  0
 54 57  1  0  0  0  0
 57 58  1  0  0  0  0
 57150  1  0  0  0  0
 58 59  2  0  0  0  0
 58 60  1  0  0  0  0
 60 61  2  0  0  0  0
 60 65  1  0  0  0  0
 61 62  1  0  0  0  0
 61151  1  0  0  0  0
 62 63  2  0  0  0  0
 62152  1  0  0  0  0
 63 64  1  0  0  0  0
 63 66  1  0  0  0  0
 64 65  2  0  0  0  0
 64153  1  0  0  0  0
 65154  1  0  0  0  0
 66 67  1  0  0  0  0
 66 87  1  0  0  0  0
 67 68  1  0  0  0  0
 67155  1  0  0  0  0
 67156  1  0  0  0  0
 68 69  1  0  0  0  0
 68157  1  0  0  0  0
 68158  1  0  0  0  0
 69 70  1  0  0  0  0
 69 86  1  0  0  0  0
 70 71  1  0  0  0  0
 70159  1  0  0  0  0
 70160  1  0  0  0  0
 71 72  2  0  0  0  0
 71 78  1  0  0  0  0
 72 73  1  0  0  0  0
 72 79  1  0  0  0  0
 73 74  1  0  0  0  0
 73161  1  0  0  0  0
 73162  1  0  0  0  0
 74 75  1  0  0  0  0
 74163  1  0  0  0  0
 74164  1  0  0  0  0
 75 76  1  0  0  0  0
 75 77  1  0  0  0  0
 75 78  1  0  0  0  0
 76165  1  0  0  0  0
 76166  1  0  0  0  0
 76167  1  0  0  0  0
 77168  1  0  0  0  0
 77169  1  0  0  0  0
 77170  1  0  0  0  0
 78171  1  0  0  0  0
 78172  1  0  0  0  0
 79 80  2  0  0  0  0
 79 85  1  0  0  0  0
 80 81  1  0  0  0  0
 80173  1  0  0  0  0
 81 82  2  0  0  0  0
 81174  1  0  0  0  0
 82 83  1  0  0  0  0
 82 84  1  0  0  0  0
 84 85  2  0  0  0  0
 84175  1  0  0  0  0
 85176  1  0  0  0  0
 86 87  1  0  0  0  0
 86177  1  0  0  0  0
 86178  1  0  0  0  0
 87179  1  0  0  0  0
 87180  1  0  0  0  0
 88 89  1  0  0  0  0
 88181  1  0  0  0  0
 88182  1  0  0  0  0
 89183  1  0  0  0  0
 89184  1  0  0  0  0
 90 91  1  0  0  0  0
 90 92  1  0  0  0  0
 90 93  1  0  0  0  0
 91185  1  0  0  0  0
 91186  1  0  0  0  0
 91187  1  0  0  0  0
 92188  1  0  0  0  0
 92189  1  0  0  0  0
 92190  1  0  0  0  0
 93191  1  0  0  0  0
 93192  1  0  0  0  0
 93193  1  0  0  0  0
 94 95  2  0  0  0  0
 94 99  1  0  0  0  0
 95 96  1  0  0  0  0
 95194  1  0  0  0  0
 96 97  2  0  0  0  0
 96195  1  0  0  0  0
 97 98  1  0  0  0  0
 97100  1  0  0  0  0
 98 99  2  0  0  0  0
 98196  1  0  0  0  0
 99197  1  0  0  0  0
100101  1  0  0  0  0
100104  2  0  0  0  0
101102  1  0  0  0  0
102103  2  0  0  0  0
102198  1  0  0  0  0
103104  1  0  0  0  0
104105  1  0  0  0  0
105199  1  0  0  0  0
105200  1  0  0  0  0
105201  1  0  0  0  0
M  END
>  <DRUGBANK_ID>
DB18020

>  <COMMON_NAME>
DT2216

>  <CAS_NUMBER>
2365172-42-3

>  <UNII>
Y8JQ9V7JAJ

>  <SYNONYMS>
DT-2216

$$$$
