
 OpenBabel10282417072D

 51 52  0  0  0  0  0  0  0  0999 V2000
   -2.4201   -2.9197    0.0000 F   0  0  0  0  0  0  0  0  0  0  0  0
   -1.5951   -4.3486    0.0000 F   0  0  0  0  0  0  0  0  0  0  0  0
   -1.2932   -0.7466    0.0000 F   0  0  0  0  0  0  0  0  0  0  0  0
    1.5647    0.0783    0.0000 O   0  0  0  0  0  0  0  0  0  0  0  0
    2.2791    2.9659    0.0000 O   0  0  0  0  0  0  0  0  0  0  0  0
   -1.2932   -2.3966    0.0000 N   0  0  0  0  0  0  0  0  0  0  0  0
    0.8502    1.3159    0.0000 N   0  0  0  0  0  0  0  0  0  0  0  0
   -2.7221   -4.8717    0.0000 N   0  0  0  0  0  0  0  0  0  0  0  0
    2.2791   -0.3341    0.0000 N   0  0  0  0  0  0  0  0  0  0  0  0
    2.2791    3.7909    0.0000 N   0  0  0  0  0  0  0  0  0  0  0  0
    3.7082    3.7909    0.0000 N   0  0  0  0  0  0  0  0  0  0  0  0
    2.9937    5.0284    0.0000 N   0  0  0  0  0  0  0  0  0  0  0  0
    0.1357   -0.7466    0.0000 C   0  0  0  0  0  0  0  0  0  0  0  0
   -1.2932   -3.2216    0.0000 C   0  0  0  0  0  0  0  0  0  0  0  0
   -0.5787   -1.9841    0.0000 C   0  0  0  0  0  0  0  0  0  0  0  0
   -2.0076   -3.6342    0.0000 C   0  0  0  0  0  0  0  0  0  0  0  0
    0.1357    0.0783    0.0000 C   0  0  0  0  0  0  0  0  0  0  0  0
   -0.5787   -1.1591    0.0000 C   0  0  0  0  0  0  0  0  0  0  0  0
    0.8502   -1.1591    0.0000 C   0  0  0  0  0  0  0  0  0  0  0  0
    0.1357   -2.3966    0.0000 C   0  0  0  0  0  0  0  0  0  0  0  0
    0.8502   -1.9841    0.0000 C   0  0  0  0  0  0  0  0  0  0  0  0
   -2.7221   -4.0467    0.0000 C   0  0  0  0  0  0  0  0  0  0  0  0
    0.8502    0.4908    0.0000 C   0  0  0  0  0  0  0  0  0  0  0  0
    1.5647    1.7284    0.0000 C   0  0  0  0  0  0  0  0  0  0  0  0
   -3.4366   -3.6342    0.0000 C   0  0  0  0  0  0  0  0  0  0  0  0
    1.5647    2.5534    0.0000 C   0  0  0  0  0  0  0  0  0  0  0  0
    1.5647   -0.7466    0.0000 C   0  0  0  0  0  0  0  0  0  0  0  0
   -4.1511   -4.0467    0.0000 C   0  0  0  0  0  0  0  0  0  0  0  0
   -3.4366   -5.2842    0.0000 C   0  0  0  0  0  0  0  0  0  0  0  0
   -4.1511   -4.8717    0.0000 C   0  0  0  0  0  0  0  0  0  0  0  0
    2.9937    4.2034    0.0000 C   0  0  0  0  0  0  0  0  0  0  0  0
   -1.7361   -2.1409    0.0000 H   0  0  0  0  0  0  0  0  0  0  0  0
    0.4072    1.5716    0.0000 H   0  0  0  0  0  0  0  0  0  0  0  0
    3.7082    3.2794    0.0000 H   0  0  0  0  0  0  0  0  0  0  0  0
    4.1511    4.0467    0.0000 H   0  0  0  0  0  0  0  0  0  0  0  0
    2.5507    5.2842    0.0000 H   0  0  0  0  0  0  0  0  0  0  0  0
    3.4366    5.2842    0.0000 H   0  0  0  0  0  0  0  0  0  0  0  0
   -0.3665   -3.7565    0.0000 H   0  0  0  0  0  0  0  0  0  0  0  0
   -1.2931   -4.2916    0.0000 H   0  0  0  0  0  0  0  0  0  0  0  0
   -0.7909    0.6133    0.0000 H   0  0  0  0  0  0  0  0  0  0  0  0
    0.1357    1.1483    0.0000 H   0  0  0  0  0  0  0  0  0  0  0  0
    0.1357   -3.4286    0.0000 H   0  0  0  0  0  0  0  0  0  0  0  0
    1.7439   -2.5001    0.0000 H   0  0  0  0  0  0  0  0  0  0  0  0
    2.4913    1.1934    0.0000 H   0  0  0  0  0  0  0  0  0  0  0  0
    2.4913    2.2634    0.0000 H   0  0  0  0  0  0  0  0  0  0  0  0
   -3.4366   -2.6022    0.0000 H   0  0  0  0  0  0  0  0  0  0  0  0
    0.6380    3.0884    0.0000 H   0  0  0  0  0  0  0  0  0  0  0  0
    0.6381    2.0184    0.0000 H   0  0  0  0  0  0  0  0  0  0  0  0
   -5.0448   -3.5307    0.0000 H   0  0  0  0  0  0  0  0  0  0  0  0
   -3.4366   -6.3162    0.0000 H   0  0  0  0  0  0  0  0  0  0  0  0
   -5.0448   -5.3877    0.0000 H   0  0  0  0  0  0  0  0  0  0  0  0
  1 16  1  0  0  0  0
  2 16  1  0  0  0  0
  3 18  1  0  0  0  0
  4 23  2  0  0  0  0
  5 10  1  0  0  0  0
  5 26  1  0  0  0  0
  6 14  1  0  0  0  0
  6 15  1  0  0  0  0
  6 32  1  0  0  0  0
  7 23  1  0  0  0  0
  7 24  1  0  0  0  0
  7 33  1  0  0  0  0
  8 22  1  0  0  0  0
  8 29  2  0  0  0  0
  9 27  3  0  0  0  0
 10 31  2  0  0  0  0
 11 31  1  0  0  0  0
 11 34  1  0  0  0  0
 11 35  1  0  0  0  0
 12 31  1  0  0  0  0
 12 36  1  0  0  0  0
 12 37  1  0  0  0  0
 13 17  1  0  0  0  0
 13 18  1  0  0  0  0
 13 19  2  0  0  0  0
 14 16  1  0  0  0  0
 14 38  1  0  0  0  0
 14 39  1  0  0  0  0
 15 18  2  0  0  0  0
 15 20  1  0  0  0  0
 16 22  1  0  0  0  0
 17 23  1  0  0  0  0
 17 40  1  0  0  0  0
 17 41  1  0  0  0  0
 19 21  1  0  0  0  0
 19 27  1  0  0  0  0
 20 21  2  0  0  0  0
 20 42  1  0  0  0  0
 21 43  1  0  0  0  0
 22 25  2  0  0  0  0
 24 26  1  0  0  0  0
 24 44  1  0  0  0  0
 24 45  1  0  0  0  0
 25 28  1  0  0  0  0
 25 46  1  0  0  0  0
 26 47  1  0  0  0  0
 26 48  1  0  0  0  0
 28 30  2  0  0  0  0
 28 49  1  0  0  0  0
 29 30  1  0  0  0  0
 29 50  1  0  0  0  0
 30 51  1  0  0  0  0
M  END
>  <DRUGBANK_ID>
DB07665

>  <COMMON_NAME>
N-[2-(carbamimidamidooxy)ethyl]-2-{6-cyano-3-[(2,2-difluoro-2-pyridin-2-ylethyl)amino]-2-fluorophenyl}acetamide

$$$$
