
 OpenBabel10282417072D

 63 67  0  0  0  0  0  0  0  0999 V2000
   -4.0530   -1.7778    0.0000 C   0  0  0  0  0  0  0  0  0  0  0  0
   -3.2684   -1.5229    0.0000 C   0  0  0  0  0  0  0  0  0  0  0  0
   -3.0968   -0.7159    0.0000 C   0  0  0  0  0  0  0  0  0  0  0  0
   -2.3122   -0.4610    0.0000 N   0  0  0  0  0  0  0  0  0  0  0  0
   -2.0573    0.3236    0.0000 C   0  0  0  0  0  0  0  0  0  0  0  0
   -1.2323    0.3236    0.0000 N   0  0  0  0  0  0  0  0  0  0  0  0
   -0.9773   -0.4610    0.0000 C   0  0  0  0  0  0  0  0  0  0  0  0
   -0.1927   -0.7159    0.0000 C   0  0  0  0  0  0  0  0  0  0  0  0
    0.4204   -0.1639    0.0000 C   0  0  0  0  0  0  0  0  0  0  0  0
    1.2050   -0.4188    0.0000 C   0  0  0  0  0  0  0  0  0  0  0  0
    1.3765   -1.2258    0.0000 C   0  0  0  0  0  0  0  0  0  0  0  0
    2.1611   -1.4808    0.0000 Cl  0  0  0  0  0  0  0  0  0  0  0  0
    0.7634   -1.7778    0.0000 C   0  0  0  0  0  0  0  0  0  0  0  0
    0.9349   -2.5848    0.0000 Cl  0  0  0  0  0  0  0  0  0  0  0  0
   -0.0212   -1.5229    0.0000 C   0  0  0  0  0  0  0  0  0  0  0  0
   -1.6448   -0.9459    0.0000 C   0  0  0  0  0  0  0  0  0  0  0  0
   -1.6448   -1.7709    0.0000 C   0  0  0  0  0  0  0  0  0  0  0  0
   -0.9303   -2.1834    0.0000 C   0  0  0  0  0  0  0  0  0  0  0  0
   -0.9303   -3.0084    0.0000 C   0  0  0  0  0  0  0  0  0  0  0  0
   -1.6448   -3.4209    0.0000 N   0  0  0  0  0  0  0  0  0  0  0  0
   -2.3593   -3.0084    0.0000 C   0  0  0  0  0  0  0  0  0  0  0  0
   -3.0737   -3.4209    0.0000 N   0  0  0  0  0  0  0  0  0  0  0  0
   -3.0737   -4.2459    0.0000 C   0  0  0  0  0  0  0  0  0  0  0  0
   -2.6612   -4.9604    0.0000 C   0  0  0  0  0  0  0  0  0  0  0  0
   -3.4862   -4.9604    0.0000 C   0  0  0  0  0  0  0  0  0  0  0  0
   -2.3593   -2.1834    0.0000 N   0  0  0  0  0  0  0  0  0  0  0  0
   -2.5422    0.9911    0.0000 C   0  0  0  0  0  0  0  0  0  0  0  0
   -3.3627    0.9048    0.0000 C   0  0  0  0  0  0  0  0  0  0  0  0
   -3.8476    1.5723    0.0000 C   0  0  0  0  0  0  0  0  0  0  0  0
   -3.5121    2.3259    0.0000 N   0  0  0  0  0  0  0  0  0  0  0  0
   -3.9970    2.9934    0.0000 C   0  0  0  0  0  0  0  0  0  0  0  0
   -2.6916    2.4122    0.0000 C   0  0  0  0  0  0  0  0  0  0  0  0
   -2.2067    1.7447    0.0000 C   0  0  0  0  0  0  0  0  0  0  0  0
   -4.8481   -1.0618    0.0000 H   0  0  0  0  0  0  0  0  0  0  0  0
   -4.2755   -2.8244    0.0000 H   0  0  0  0  0  0  0  0  0  0  0  0
   -5.0706   -2.1084    0.0000 H   0  0  0  0  0  0  0  0  0  0  0  0
   -2.4733   -2.2389    0.0000 H   0  0  0  0  0  0  0  0  0  0  0  0
   -2.2507   -1.1923    0.0000 H   0  0  0  0  0  0  0  0  0  0  0  0
   -3.8919    0.0001    0.0000 H   0  0  0  0  0  0  0  0  0  0  0  0
   -2.8743    0.3307    0.0000 H   0  0  0  0  0  0  0  0  0  0  0  0
    0.2058    0.8455    0.0000 H   0  0  0  0  0  0  0  0  0  0  0  0
    1.9719    0.2717    0.0000 H   0  0  0  0  0  0  0  0  0  0  0  0
   -0.7881   -2.2134    0.0000 H   0  0  0  0  0  0  0  0  0  0  0  0
   -0.0366   -1.6674    0.0000 H   0  0  0  0  0  0  0  0  0  0  0  0
   -0.0366   -3.5244    0.0000 H   0  0  0  0  0  0  0  0  0  0  0  0
   -3.9263   -2.9287    0.0000 H   0  0  0  0  0  0  0  0  0  0  0  0
   -3.0737   -5.3159    0.0000 H   0  0  0  0  0  0  0  0  0  0  0  0
   -1.7346   -5.4954    0.0000 H   0  0  0  0  0  0  0  0  0  0  0  0
   -2.9381   -5.9939    0.0000 H   0  0  0  0  0  0  0  0  0  0  0  0
   -4.4128   -5.4954    0.0000 H   0  0  0  0  0  0  0  0  0  0  0  0
   -4.2428   -4.2038    0.0000 H   0  0  0  0  0  0  0  0  0  0  0  0
   -3.1712    1.8567    0.0000 H   0  0  0  0  0  0  0  0  0  0  0  0
   -3.7979   -0.0727    0.0000 H   0  0  0  0  0  0  0  0  0  0  0  0
   -4.4268    0.7930    0.0000 H   0  0  0  0  0  0  0  0  0  0  0  0
   -4.9117    1.4605    0.0000 H   0  0  0  0  0  0  0  0  0  0  0  0
   -4.4765    2.4379    0.0000 H   0  0  0  0  0  0  0  0  0  0  0  0
   -3.5617    3.9709    0.0000 H   0  0  0  0  0  0  0  0  0  0  0  0
   -5.0611    2.8816    0.0000 H   0  0  0  0  0  0  0  0  0  0  0  0
   -4.6259    3.8591    0.0000 H   0  0  0  0  0  0  0  0  0  0  0  0
   -2.2564    3.3897    0.0000 H   0  0  0  0  0  0  0  0  0  0  0  0
   -1.6275    2.5240    0.0000 H   0  0  0  0  0  0  0  0  0  0  0  0
   -1.1426    1.8565    0.0000 H   0  0  0  0  0  0  0  0  0  0  0  0
   -1.5778    0.8791    0.0000 H   0  0  0  0  0  0  0  0  0  0  0  0
  1  2  1  0  0  0  0
  1 34  1  0  0  0  0
  1 35  1  0  0  0  0
  1 36  1  0  0  0  0
  2  3  1  0  0  0  0
  2 37  1  0  0  0  0
  2 38  1  0  0  0  0
  3  4  1  0  0  0  0
  3 39  1  0  0  0  0
  3 40  1  0  0  0  0
  4  5  1  0  0  0  0
  4 16  1  0  0  0  0
  5  6  2  0  0  0  0
  5 27  1  0  0  0  0
  6  7  1  0  0  0  0
  7  8  1  0  0  0  0
  7 16  2  0  0  0  0
  8  9  2  0  0  0  0
  8 15  1  0  0  0  0
  9 10  1  0  0  0  0
  9 41  1  0  0  0  0
 10 11  2  0  0  0  0
 10 42  1  0  0  0  0
 11 12  1  0  0  0  0
 11 13  1  0  0  0  0
 13 14  1  0  0  0  0
 13 15  2  0  0  0  0
 15 43  1  0  0  0  0
 16 17  1  0  0  0  0
 17 18  2  0  0  0  0
 17 26  1  0  0  0  0
 18 19  1  0  0  0  0
 18 44  1  0  0  0  0
 19 20  2  0  0  0  0
 19 45  1  0  0  0  0
 20 21  1  0  0  0  0
 21 22  1  0  0  0  0
 21 26  2  0  0  0  0
 22 23  1  0  0  0  0
 22 46  1  0  0  0  0
 23 24  1  0  0  0  0
 23 25  1  0  0  0  0
 23 47  1  0  0  0  0
 24 25  1  0  0  0  0
 24 48  1  0  0  0  0
 24 49  1  0  0  0  0
 25 50  1  0  0  0  0
 25 51  1  0  0  0  0
 27 28  1  0  0  0  0
 27 33  1  0  0  0  0
 27 52  1  0  0  0  0
 28 29  1  0  0  0  0
 28 53  1  0  0  0  0
 28 54  1  0  0  0  0
 29 30  1  0  0  0  0
 29 55  1  0  0  0  0
 29 56  1  0  0  0  0
 30 31  1  0  0  0  0
 30 32  1  0  0  0  0
 31 57  1  0  0  0  0
 31 58  1  0  0  0  0
 31 59  1  0  0  0  0
 32 33  1  0  0  0  0
 32 60  1  0  0  0  0
 32 61  1  0  0  0  0
 33 62  1  0  0  0  0
 33 63  1  0  0  0  0
M  END
>  <DRUGBANK_ID>
DB03084

>  <SECONDARY_ACCESSION_NUMBERS>
EXPT00348

>  <COMMON_NAME>
Cyclopropyl-{4-[5-(3,4-Dichlorophenyl)-2-[(1-Methyl)-Piperidin]-4-Yl-3-Propyl-3h-Imidazol-4-Yl]-Pyrimidin-2-Yl}Amine

$$$$
