
 OpenBabel10282417072D

198201  0  0  1  0  0  0  0  0999 V2000
   31.8358    6.4558    0.0000 C   0  0  0  0  0  0  0  0  0  0  0  0
   31.8358    7.2808    0.0000 C   0  0  1  0  0  0  0  0  0  0  0  0
   31.1214    7.6933    0.0000 C   0  0  0  0  0  0  0  0  0  0  0  0
   31.1214    8.5183    0.0000 O   0  0  0  0  0  0  0  0  0  0  0  0
   30.4069    7.2808    0.0000 N   0  0  0  0  0  0  0  0  0  0  0  0
   29.6924    7.6933    0.0000 C   0  0  1  0  0  0  0  0  0  0  0  0
   29.6924    8.5183    0.0000 C   0  0  0  0  0  0  0  0  0  0  0  0
   28.9780    8.9308    0.0000 C   0  0  0  0  0  0  0  0  0  0  0  0
   28.2635    8.5183    0.0000 O   0  0  0  0  0  0  0  0  0  0  0  0
   28.9780    9.7558    0.0000 O   0  0  0  0  0  0  0  0  0  0  0  0
   28.9780    7.2808    0.0000 C   0  0  0  0  0  0  0  0  0  0  0  0
   28.9780    6.4558    0.0000 O   0  0  0  0  0  0  0  0  0  0  0  0
   28.2635    7.6933    0.0000 N   0  0  0  0  0  0  0  0  0  0  0  0
   27.5490    7.2808    0.0000 C   0  0  1  0  0  0  0  0  0  0  0  0
   27.5490    6.4558    0.0000 C   0  0  0  0  0  0  0  0  0  0  0  0
   26.8345    6.0433    0.0000 C   0  0  0  0  0  0  0  0  0  0  0  0
   26.1201    6.4558    0.0000 O   0  0  0  0  0  0  0  0  0  0  0  0
   26.8345    5.2183    0.0000 O   0  0  0  0  0  0  0  0  0  0  0  0
   26.8345    7.6933    0.0000 C   0  0  0  0  0  0  0  0  0  0  0  0
   26.8345    8.5183    0.0000 O   0  0  0  0  0  0  0  0  0  0  0  0
   26.1201    7.2808    0.0000 N   0  0  0  0  0  0  0  0  0  0  0  0
   25.4056    7.6933    0.0000 C   0  0  1  0  0  0  0  0  0  0  0  0
   25.4056    8.5183    0.0000 C   0  0  0  0  0  0  0  0  0  0  0  0
   24.6911    7.2808    0.0000 C   0  0  0  0  0  0  0  0  0  0  0  0
   24.6911    6.4558    0.0000 O   0  0  0  0  0  0  0  0  0  0  0  0
   23.9767    7.6933    0.0000 N   0  0  0  0  0  0  0  0  0  0  0  0
   23.2622    7.2808    0.0000 C   0  0  0  0  0  0  0  0  0  0  0  0
   22.5477    7.6933    0.0000 C   0  0  0  0  0  0  0  0  0  0  0  0
   22.5477    8.5183    0.0000 O   0  0  0  0  0  0  0  0  0  0  0  0
   21.8332    7.2808    0.0000 N   0  0  0  0  0  0  0  0  0  0  0  0
   21.1188    7.6933    0.0000 C   0  0  1  0  0  0  0  0  0  0  0  0
   21.1188    8.5183    0.0000 C   0  0  0  0  0  0  0  0  0  0  0  0
   20.4043    8.9308    0.0000 C   0  0  0  0  0  0  0  0  0  0  0  0
   19.6898    8.5183    0.0000 C   0  0  0  0  0  0  0  0  0  0  0  0
   20.4043    9.7558    0.0000 C   0  0  0  0  0  0  0  0  0  0  0  0
   20.4043    7.2808    0.0000 C   0  0  0  0  0  0  0  0  0  0  0  0
   20.4043    6.4558    0.0000 O   0  0  0  0  0  0  0  0  0  0  0  0
   19.6898    7.6933    0.0000 N   0  0  0  0  0  0  0  0  0  0  0  0
   18.9754    7.2808    0.0000 C   0  0  1  0  0  0  0  0  0  0  0  0
   18.2609    7.6933    0.0000 C   0  0  0  0  0  0  0  0  0  0  0  0
   17.5464    7.2808    0.0000 C   0  0  0  0  0  0  0  0  0  0  0  0
   18.2609    8.5183    0.0000 C   0  0  0  0  0  0  0  0  0  0  0  0
   18.9754    6.4558    0.0000 C   0  0  0  0  0  0  0  0  0  0  0  0
   19.6898    6.0433    0.0000 O   0  0  0  0  0  0  0  0  0  0  0  0
   18.2609    6.0433    0.0000 O   0  0  0  0  0  0  0  0  0  0  0  0
   32.5503    7.6933    0.0000 N   0  0  0  0  0  0  0  0  0  0  0  0
   33.2648    7.2808    0.0000 C   0  0  0  0  0  0  0  0  0  0  0  0
   33.2648    6.4558    0.0000 O   0  0  0  0  0  0  0  0  0  0  0  0
   33.9792    7.6933    0.0000 C   0  0  2  0  0  0  0  0  0  0  0  0
   34.0655    8.5138    0.0000 C   0  0  0  0  0  0  0  0  0  0  0  0
   34.8725    8.6853    0.0000 C   0  0  0  0  0  0  0  0  0  0  0  0
   35.2850    7.9709    0.0000 C   0  0  0  0  0  0  0  0  0  0  0  0
   34.7329    7.3578    0.0000 N   0  0  0  0  0  0  0  0  0  0  0  0
   34.9045    6.5508    0.0000 C   0  0  0  0  0  0  0  0  0  0  0  0
   34.2914    5.9988    0.0000 O   0  0  0  0  0  0  0  0  0  0  0  0
   35.6891    6.2959    0.0000 C   0  0  2  0  0  0  0  0  0  0  0  0
   36.3022    6.8479    0.0000 C   0  0  0  0  0  0  0  0  0  0  0  0
   36.1306    7.6549    0.0000 C   0  0  0  0  0  0  0  0  0  0  0  0
   36.7437    8.2069    0.0000 C   0  0  0  0  0  0  0  0  0  0  0  0
   36.5722    9.0139    0.0000 C   0  0  0  0  0  0  0  0  0  0  0  0
   37.1853    9.5659    0.0000 N   0  0  0  0  0  0  0  0  0  0  0  0
   35.8606    5.4889    0.0000 N   0  0  0  0  0  0  0  0  0  0  0  0
   36.6452    5.2339    0.0000 C   0  0  0  0  0  0  0  0  0  0  0  0
   37.2583    5.7860    0.0000 O   0  0  0  0  0  0  0  0  0  0  0  0
   36.8167    4.4270    0.0000 C   0  0  0  0  0  0  0  0  0  0  0  0
   37.6014    4.1720    0.0000 N   0  0  0  0  0  0  0  0  0  0  0  0
   38.2145    4.7241    0.0000 C   0  0  0  0  0  0  0  0  0  0  0  0
   38.0429    5.5310    0.0000 O   0  0  0  0  0  0  0  0  0  0  0  0
   38.9991    4.4691    0.0000 C   0  0  2  0  0  0  0  0  0  0  0  0
   39.6665    4.9541    0.0000 C   0  0  0  0  0  0  0  0  0  0  0  0
   40.3340    4.4691    0.0000 C   0  0  0  0  0  0  0  0  0  0  0  0
   40.0790    3.6845    0.0000 C   0  0  0  0  0  0  0  0  0  0  0  0
   39.2540    3.6845    0.0000 N   0  0  0  0  0  0  0  0  0  0  0  0
   38.7691    3.0171    0.0000 C   0  0  0  0  0  0  0  0  0  0  0  0
   37.9486    3.1033    0.0000 O   0  0  0  0  0  0  0  0  0  0  0  0
   39.1047    2.2634    0.0000 C   0  0  2  0  0  0  0  0  0  0  0  0
   39.9116    2.0919    0.0000 C   0  0  0  0  0  0  0  0  0  0  0  0
   39.9979    1.2714    0.0000 C   0  0  0  0  0  0  0  0  0  0  0  0
   39.2442    0.9358    0.0000 C   0  0  0  0  0  0  0  0  0  0  0  0
   38.6922    1.5489    0.0000 N   0  0  0  0  0  0  0  0  0  0  0  0
   37.8717    1.4627    0.0000 C   0  0  0  0  0  0  0  0  0  0  0  0
   37.3868    2.1301    0.0000 O   0  0  0  0  0  0  0  0  0  0  0  0
   37.5361    0.7090    0.0000 C   0  0  2  0  0  0  0  0  0  0  0  0
   37.9486   -0.0055    0.0000 C   0  0  0  0  0  0  0  0  0  0  0  0
   37.3966   -0.6186    0.0000 C   0  0  0  0  0  0  0  0  0  0  0  0
   36.6429   -0.2830    0.0000 C   0  0  0  0  0  0  0  0  0  0  0  0
   36.7291    0.5375    0.0000 N   0  0  0  0  0  0  0  0  0  0  0  0
   36.1161    1.0895    0.0000 C   0  0  0  0  0  0  0  0  0  0  0  0
   36.2876    1.8965    0.0000 O   0  0  0  0  0  0  0  0  0  0  0  0
   35.3314    0.8346    0.0000 C   0  0  2  0  0  0  0  0  0  0  0  0
   34.7183    1.3866    0.0000 C   0  0  0  0  0  0  0  0  0  0  0  0
   33.9337    1.1317    0.0000 C   0  0  0  0  0  0  0  0  0  0  0  0
   33.3206    1.6837    0.0000 C   0  0  0  0  0  0  0  0  0  0  0  0
   32.5360    1.4288    0.0000 O   0  0  0  0  0  0  0  0  0  0  0  0
   33.4922    2.4907    0.0000 O   0  0  0  0  0  0  0  0  0  0  0  0
   35.1599    0.0276    0.0000 N   0  0  0  0  0  0  0  0  0  0  0  0
   34.3753   -0.2273    0.0000 C   0  0  0  0  0  0  0  0  0  0  0  0
   33.7622    0.3247    0.0000 O   0  0  0  0  0  0  0  0  0  0  0  0
   34.2038   -1.0343    0.0000 C   0  0  0  0  0  0  0  0  0  0  0  0
   33.4191   -1.2892    0.0000 N   0  0  0  0  0  0  0  0  0  0  0  0
   30.9092    5.9208    0.0000 H   0  0  0  0  0  0  0  0  0  0  0  0
   32.7624    5.9208    0.0000 H   0  0  0  0  0  0  0  0  0  0  0  0
   31.8358    5.3858    0.0000 H   0  0  0  0  0  0  0  0  0  0  0  0
   30.9091    6.7458    0.0000 H   0  0  0  0  0  0  0  0  0  0  0  0
   30.4069    6.2963    0.0000 H   0  0  0  0  0  0  0  0  0  0  0  0
   30.6190    8.2283    0.0000 H   0  0  0  0  0  0  0  0  0  0  0  0
   30.6191    9.0533    0.0000 H   0  0  0  0  0  0  0  0  0  0  0  0
   29.6924    9.5883    0.0000 H   0  0  0  0  0  0  0  0  0  0  0  0
   29.7895   10.2243    0.0000 H   0  0  0  0  0  0  0  0  0  0  0  0
   28.2635    8.6778    0.0000 H   0  0  0  0  0  0  0  0  0  0  0  0
   28.4756    6.7458    0.0000 H   0  0  0  0  0  0  0  0  0  0  0  0
   28.4756    5.9208    0.0000 H   0  0  0  0  0  0  0  0  0  0  0  0
   27.5490    5.3858    0.0000 H   0  0  0  0  0  0  0  0  0  0  0  0
   26.0230    4.7498    0.0000 H   0  0  0  0  0  0  0  0  0  0  0  0
   26.1201    6.2963    0.0000 H   0  0  0  0  0  0  0  0  0  0  0  0
   26.3322    8.2283    0.0000 H   0  0  0  0  0  0  0  0  0  0  0  0
   26.3322    9.0533    0.0000 H   0  0  0  0  0  0  0  0  0  0  0  0
   24.4790    9.0533    0.0000 H   0  0  0  0  0  0  0  0  0  0  0  0
   25.4056    9.5883    0.0000 H   0  0  0  0  0  0  0  0  0  0  0  0
   23.9767    8.6778    0.0000 H   0  0  0  0  0  0  0  0  0  0  0  0
   23.2622    6.2108    0.0000 H   0  0  0  0  0  0  0  0  0  0  0  0
   22.3356    6.7458    0.0000 H   0  0  0  0  0  0  0  0  0  0  0  0
   21.8332    6.2963    0.0000 H   0  0  0  0  0  0  0  0  0  0  0  0
   22.0455    8.2283    0.0000 H   0  0  0  0  0  0  0  0  0  0  0  0
   22.0454    9.0533    0.0000 H   0  0  0  0  0  0  0  0  0  0  0  0
   21.1188    9.5883    0.0000 H   0  0  0  0  0  0  0  0  0  0  0  0
   19.4777    9.4658    0.0000 H   0  0  0  0  0  0  0  0  0  0  0  0
   18.7632    9.0533    0.0000 H   0  0  0  0  0  0  0  0  0  0  0  0
   19.6898    7.4483    0.0000 H   0  0  0  0  0  0  0  0  0  0  0  0
   18.7631    7.9833    0.0000 H   0  0  0  0  0  0  0  0  0  0  0  0
   21.3309   10.2908    0.0000 H   0  0  0  0  0  0  0  0  0  0  0  0
   19.4777   10.2908    0.0000 H   0  0  0  0  0  0  0  0  0  0  0  0
   20.4043   10.8258    0.0000 H   0  0  0  0  0  0  0  0  0  0  0  0
   19.6898    8.6778    0.0000 H   0  0  0  0  0  0  0  0  0  0  0  0
   18.9754    8.3508    0.0000 H   0  0  0  0  0  0  0  0  0  0  0  0
   17.3343    8.2283    0.0000 H   0  0  0  0  0  0  0  0  0  0  0  0
   16.6198    7.8158    0.0000 H   0  0  0  0  0  0  0  0  0  0  0  0
   17.5464    6.2108    0.0000 H   0  0  0  0  0  0  0  0  0  0  0  0
   16.6197    6.7458    0.0000 H   0  0  0  0  0  0  0  0  0  0  0  0
   19.1875    9.0533    0.0000 H   0  0  0  0  0  0  0  0  0  0  0  0
   17.3343    9.0533    0.0000 H   0  0  0  0  0  0  0  0  0  0  0  0
   18.2609    9.5883    0.0000 H   0  0  0  0  0  0  0  0  0  0  0  0
   17.4494    6.5118    0.0000 H   0  0  0  0  0  0  0  0  0  0  0  0
   32.5503    8.6778    0.0000 H   0  0  0  0  0  0  0  0  0  0  0  0
   33.0818    8.2761    0.0000 H   0  0  0  0  0  0  0  0  0  0  0  0
   33.2704    9.2298    0.0000 H   0  0  0  0  0  0  0  0  0  0  0  0
   34.3425    9.5473    0.0000 H   0  0  0  0  0  0  0  0  0  0  0  0
   35.3077    9.6628    0.0000 H   0  0  0  0  0  0  0  0  0  0  0  0
   35.9410    8.7413    0.0000 H   0  0  0  0  0  0  0  0  0  0  0  0
   36.3491    7.8590    0.0000 H   0  0  0  0  0  0  0  0  0  0  0  0
   35.6684    6.9720    0.0000 H   0  0  0  0  0  0  0  0  0  0  0  0
   34.8939    5.5799    0.0000 H   0  0  0  0  0  0  0  0  0  0  0  0
   37.3198    6.5173    0.0000 H   0  0  0  0  0  0  0  0  0  0  0  0
   37.0973    7.5639    0.0000 H   0  0  0  0  0  0  0  0  0  0  0  0
   35.1130    7.9855    0.0000 H   0  0  0  0  0  0  0  0  0  0  0  0
   35.9081    8.7015    0.0000 H   0  0  0  0  0  0  0  0  0  0  0  0
   37.7613    7.8762    0.0000 H   0  0  0  0  0  0  0  0  0  0  0  0
   37.5389    8.9228    0.0000 H   0  0  0  0  0  0  0  0  0  0  0  0
   35.5546    9.3446    0.0000 H   0  0  0  0  0  0  0  0  0  0  0  0
   36.3498   10.0605    0.0000 H   0  0  0  0  0  0  0  0  0  0  0  0
   38.1554    9.2507    0.0000 H   0  0  0  0  0  0  0  0  0  0  0  0
   36.9733   10.5636    0.0000 H   0  0  0  0  0  0  0  0  0  0  0  0
   35.1289    4.8302    0.0000 H   0  0  0  0  0  0  0  0  0  0  0  0
   36.0215    3.7111    0.0000 H   0  0  0  0  0  0  0  0  0  0  0  0
   37.0391    3.3804    0.0000 H   0  0  0  0  0  0  0  0  0  0  0  0
   37.8061    3.2090    0.0000 H   0  0  0  0  0  0  0  0  0  0  0  0
   38.8317    5.5259    0.0000 H   0  0  0  0  0  0  0  0  0  0  0  0
   39.6665    6.0241    0.0000 H   0  0  0  0  0  0  0  0  0  0  0  0
   40.6199    5.4399    0.0000 H   0  0  0  0  0  0  0  0  0  0  0  0
   41.3516    4.7997    0.0000 H   0  0  0  0  0  0  0  0  0  0  0  0
   41.0906    3.7124    0.0000 H   0  0  0  0  0  0  0  0  0  0  0  0
   40.7079    2.8188    0.0000 H   0  0  0  0  0  0  0  0  0  0  0  0
   39.5932    2.7311    0.0000 H   0  0  0  0  0  0  0  0  0  0  0  0
   39.7781    3.0950    0.0000 H   0  0  0  0  0  0  0  0  0  0  0  0
   40.7067    2.8079    0.0000 H   0  0  0  0  0  0  0  0  0  0  0  0
   40.9106    1.7085    0.0000 H   0  0  0  0  0  0  0  0  0  0  0  0
   40.9246    0.7365    0.0000 H   0  0  0  0  0  0  0  0  0  0  0  0
   39.9419    0.2029    0.0000 H   0  0  0  0  0  0  0  0  0  0  0  0
   39.0217   -0.1108    0.0000 H   0  0  0  0  0  0  0  0  0  0  0  0
   38.2107    0.6589    0.0000 H   0  0  0  0  0  0  0  0  0  0  0  0
   38.6046    0.7650    0.0000 H   0  0  0  0  0  0  0  0  0  0  0  0
   39.0127   -0.1173    0.0000 H   0  0  0  0  0  0  0  0  0  0  0  0
   38.3321   -1.0044    0.0000 H   0  0  0  0  0  0  0  0  0  0  0  0
   37.6191   -1.6652    0.0000 H   0  0  0  0  0  0  0  0  0  0  0  0
   36.5650   -1.2920    0.0000 H   0  0  0  0  0  0  0  0  0  0  0  0
   35.7163   -0.8180    0.0000 H   0  0  0  0  0  0  0  0  0  0  0  0
   35.7455    0.2997    0.0000 H   0  0  0  0  0  0  0  0  0  0  0  0
   36.1266    0.1186    0.0000 H   0  0  0  0  0  0  0  0  0  0  0  0
   34.9408    2.4332    0.0000 H   0  0  0  0  0  0  0  0  0  0  0  0
   33.9231    2.1026    0.0000 H   0  0  0  0  0  0  0  0  0  0  0  0
   33.7112    0.0851    0.0000 H   0  0  0  0  0  0  0  0  0  0  0  0
   32.9161    0.8010    0.0000 H   0  0  0  0  0  0  0  0  0  0  0  0
   34.3834    2.7802    0.0000 H   0  0  0  0  0  0  0  0  0  0  0  0
   35.8915   -0.6312    0.0000 H   0  0  0  0  0  0  0  0  0  0  0  0
   34.9990   -1.7503    0.0000 H   0  0  0  0  0  0  0  0  0  0  0  0
   33.9813   -2.0809    0.0000 H   0  0  0  0  0  0  0  0  0  0  0  0
   32.6611   -0.6066    0.0000 H   0  0  0  0  0  0  0  0  0  0  0  0
   33.2070   -2.2869    0.0000 H   0  0  0  0  0  0  0  0  0  0  0  0
  1101  1  0  0  0  0
  1102  1  0  0  0  0
  1103  1  0  0  0  0
  2  1  1  0  0  0  0
  2  3  1  0  0  0  0
  2 46  1  0  0  0  0
  2104  1  6  0  0  0
  3  4  2  0  0  0  0
  3  5  1  0  0  0  0
  5105  1  0  0  0  0
  6  5  1  0  0  0  0
  6  7  1  0  0  0  0
  6 11  1  0  0  0  0
  6106  1  1  0  0  0
  7  8  1  0  0  0  0
  7107  1  0  0  0  0
  7108  1  0  0  0  0
  8  9  2  0  0  0  0
  8 10  1  0  0  0  0
 10109  1  0  0  0  0
 11 12  2  0  0  0  0
 11 13  1  0  0  0  0
 13110  1  0  0  0  0
 14 13  1  0  0  0  0
 14 15  1  0  0  0  0
 14 19  1  0  0  0  0
 14111  1  6  0  0  0
 15 16  1  0  0  0  0
 15112  1  0  0  0  0
 15113  1  0  0  0  0
 16 17  2  0  0  0  0
 16 18  1  0  0  0  0
 18114  1  0  0  0  0
 19 20  2  0  0  0  0
 19 21  1  0  0  0  0
 21 22  1  0  0  0  0
 21115  1  0  0  0  0
 22 23  1  0  0  0  0
 22 24  1  0  0  0  0
 22116  1  1  0  0  0
 23117  1  0  0  0  0
 23118  1  0  0  0  0
 23119  1  0  0  0  0
 24 25  2  0  0  0  0
 24 26  1  0  0  0  0
 26 27  1  0  0  0  0
 26120  1  0  0  0  0
 27 28  1  0  0  0  0
 27121  1  0  0  0  0
 27122  1  0  0  0  0
 28 29  2  0  0  0  0
 28 30  1  0  0  0  0
 30123  1  0  0  0  0
 31 30  1  0  0  0  0
 31 32  1  0  0  0  0
 31 36  1  0  0  0  0
 31124  1  1  0  0  0
 32 33  1  0  0  0  0
 32125  1  0  0  0  0
 32126  1  0  0  0  0
 33 34  1  0  0  0  0
 33 35  1  0  0  0  0
 33127  1  0  0  0  0
 34128  1  0  0  0  0
 34129  1  0  0  0  0
 34130  1  0  0  0  0
 35131  1  0  0  0  0
 35132  1  0  0  0  0
 35133  1  0  0  0  0
 36 37  2  0  0  0  0
 36 38  1  0  0  0  0
 38134  1  0  0  0  0
 39 38  1  0  0  0  0
 39 40  1  0  0  0  0
 39 43  1  0  0  0  0
 39135  1  1  0  0  0
 40 41  1  0  0  0  0
 40 42  1  0  0  0  0
 40136  1  0  0  0  0
 41137  1  0  0  0  0
 41138  1  0  0  0  0
 41139  1  0  0  0  0
 42140  1  0  0  0  0
 42141  1  0  0  0  0
 42142  1  0  0  0  0
 43 44  2  0  0  0  0
 43 45  1  0  0  0  0
 45143  1  0  0  0  0
 46 47  1  0  0  0  0
 46144  1  0  0  0  0
 47 48  2  0  0  0  0
 49 47  1  0  0  0  0
 49 50  1  0  0  0  0
 49 53  1  0  0  0  0
 49145  1  1  0  0  0
 50 51  1  0  0  0  0
 50146  1  0  0  0  0
 50147  1  0  0  0  0
 51 52  1  0  0  0  0
 51148  1  0  0  0  0
 51149  1  0  0  0  0
 52 53  1  0  0  0  0
 52150  1  0  0  0  0
 52151  1  0  0  0  0
 53 54  1  0  0  0  0
 54 55  2  0  0  0  0
 54 56  1  0  0  0  0
 56 57  1  0  0  0  0
 56 62  1  0  0  0  0
 56152  1  1  0  0  0
 57 58  1  0  0  0  0
 57153  1  0  0  0  0
 57154  1  0  0  0  0
 58 59  1  0  0  0  0
 58155  1  0  0  0  0
 58156  1  0  0  0  0
 59 60  1  0  0  0  0
 59157  1  0  0  0  0
 59158  1  0  0  0  0
 60 61  1  0  0  0  0
 60159  1  0  0  0  0
 60160  1  0  0  0  0
 61161  1  0  0  0  0
 61162  1  0  0  0  0
 62 63  1  0  0  0  0
 62163  1  0  0  0  0
 63 64  2  0  0  0  0
 63 65  1  0  0  0  0
 65 66  1  0  0  0  0
 65164  1  0  0  0  0
 65165  1  0  0  0  0
 66 67  1  0  0  0  0
 66166  1  0  0  0  0
 67 68  2  0  0  0  0
 69 67  1  0  0  0  0
 69 70  1  0  0  0  0
 69 73  1  0  0  0  0
 69167  1  1  0  0  0
 70 71  1  0  0  0  0
 70168  1  0  0  0  0
 70169  1  0  0  0  0
 71 72  1  0  0  0  0
 71170  1  0  0  0  0
 71171  1  0  0  0  0
 72 73  1  0  0  0  0
 72172  1  0  0  0  0
 72173  1  0  0  0  0
 73 74  1  0  0  0  0
 74 75  2  0  0  0  0
 76 74  1  0  0  0  0
 76 77  1  0  0  0  0
 76 80  1  0  0  0  0
 76174  1  1  0  0  0
 77 78  1  0  0  0  0
 77175  1  0  0  0  0
 77176  1  0  0  0  0
 78 79  1  0  0  0  0
 78177  1  0  0  0  0
 78178  1  0  0  0  0
 79 80  1  0  0  0  0
 79179  1  0  0  0  0
 79180  1  0  0  0  0
 80 81  1  0  0  0  0
 81 82  2  0  0  0  0
 83 81  1  0  0  0  0
 83 84  1  0  0  0  0
 83 87  1  0  0  0  0
 83181  1  1  0  0  0
 84 85  1  0  0  0  0
 84182  1  0  0  0  0
 84183  1  0  0  0  0
 85 86  1  0  0  0  0
 85184  1  0  0  0  0
 85185  1  0  0  0  0
 86 87  1  0  0  0  0
 86186  1  0  0  0  0
 86187  1  0  0  0  0
 87 88  1  0  0  0  0
 88 89  2  0  0  0  0
 88 90  1  0  0  0  0
 90 91  1  0  0  0  0
 90 96  1  0  0  0  0
 90188  1  6  0  0  0
 91 92  1  0  0  0  0
 91189  1  0  0  0  0
 91190  1  0  0  0  0
 92 93  1  0  0  0  0
 92191  1  0  0  0  0
 92192  1  0  0  0  0
 93 94  2  0  0  0  0
 93 95  1  0  0  0  0
 95193  1  0  0  0  0
 96 97  1  0  0  0  0
 96194  1  0  0  0  0
 97 98  2  0  0  0  0
 97 99  1  0  0  0  0
 99100  1  0  0  0  0
 99195  1  0  0  0  0
 99196  1  0  0  0  0
100197  1  0  0  0  0
100198  1  0  0  0  0
M  END
>  <DRUGBANK_ID>
DB11882

>  <COMMON_NAME>
BPC-157

>  <CAS_NUMBER>
137525-51-0

>  <UNII>
8ED8NXK95P

>  <SYNONYMS>
Bepecin

$$$$
