
 OpenBabel10282417072D

 17 18  0  0  0  0  0  0  0  0999 V2000
   -1.7052   -1.2363    0.0000 N   0  0  0  0  0  0  0  0  0  0  0  0
   -0.9925   -0.8236    0.0000 C   0  0  0  0  0  0  0  0  0  0  0  0
   -0.2762   -1.2363    0.0000 N   0  0  0  0  0  0  0  0  0  0  0  0
    0.4366   -0.8236    0.0000 C   0  0  0  0  0  0  0  0  0  0  0  0
    1.2209   -1.0794    0.0000 C   0  0  0  0  0  0  0  0  0  0  0  0
    1.7052   -0.4109    0.0000 C   0  0  0  0  0  0  0  0  0  0  0  0
    1.2209    0.2541    0.0000 N   0  0  0  0  0  0  0  0  0  0  0  0
    0.4366    0.0017    0.0000 C   0  0  0  0  0  0  0  0  0  0  0  0
   -0.2762    0.4109    0.0000 C   0  0  0  0  0  0  0  0  0  0  0  0
   -0.2762    1.2363    0.0000 O   0  0  0  0  0  0  0  0  0  0  0  0
   -0.9925    0.0017    0.0000 N   0  0  0  0  0  0  0  0  0  0  0  0
   -2.5584   -0.7451    0.0000 H   0  0  0  0  0  0  0  0  0  0  0  0
   -1.7039   -2.2208    0.0000 H   0  0  0  0  0  0  0  0  0  0  0  0
    1.5399   -2.0609    0.0000 H   0  0  0  0  0  0  0  0  0  0  0  0
    2.7372   -0.4096    0.0000 H   0  0  0  0  0  0  0  0  0  0  0  0
    1.5259    1.1902    0.0000 H   0  0  0  0  0  0  0  0  0  0  0  0
   -1.8440    0.4959    0.0000 H   0  0  0  0  0  0  0  0  0  0  0  0
  1  2  1  0  0  0  0
  1 12  1  0  0  0  0
  1 13  1  0  0  0  0
  2  3  2  0  0  0  0
  2 11  1  0  0  0  0
  3  4  1  0  0  0  0
  4  5  1  0  0  0  0
  4  8  2  0  0  0  0
  5  6  2  0  0  0  0
  5 14  1  0  0  0  0
  6  7  1  0  0  0  0
  6 15  1  0  0  0  0
  7  8  1  0  0  0  0
  7 16  1  0  0  0  0
  8  9  1  0  0  0  0
  9 10  2  0  0  0  0
  9 11  1  0  0  0  0
 11 17  1  0  0  0  0
M  END
>  <DRUGBANK_ID>
DB04356

>  <SECONDARY_ACCESSION_NUMBERS>
EXPT00356

>  <COMMON_NAME>
9-Deazaguanine

>  <CAS_NUMBER>
65996-58-9

>  <UNII>
H2O1DD3CAN

$$$$
