
 OpenBabel10282417072D

 29 30  0  0  0  0  0  0  0  0999 V2000
    0.7147   -1.5518    0.0000 C   0  0  0  0  0  0  0  0  0  0  0  0
    2.1436   -1.5518    0.0000 C   0  0  0  0  0  0  0  0  0  0  0  0
    0.7147   -2.3768    0.0000 C   0  0  0  0  0  0  0  0  0  0  0  0
    2.1436   -2.3768    0.0000 C   0  0  0  0  0  0  0  0  0  0  0  0
    1.4292   -1.1393    0.0000 C   0  0  0  0  0  0  0  0  0  0  0  0
    1.4292   -2.7893    0.0000 C   0  0  0  0  0  0  0  0  0  0  0  0
    1.4292   -0.3143    0.0000 C   0  0  0  0  0  0  0  0  0  0  0  0
    1.4292   -3.6143    0.0000 O   0  0  0  0  0  0  0  0  0  0  0  0
    2.1436    0.0981    0.0000 O   0  0  0  0  0  0  0  0  0  0  0  0
    0.7147    0.0981    0.0000 O   0  0  0  0  0  0  0  0  0  0  0  0
    0.7147    0.9231    0.0000 C   0  0  0  0  0  0  0  0  0  0  0  0
    0.0002    1.3356    0.0000 C   0  0  0  0  0  0  0  0  0  0  0  0
    0.0002    2.1606    0.0000 C   0  0  0  0  0  0  0  0  0  0  0  0
   -0.7142    2.5731    0.0000 C   0  0  0  0  0  0  0  0  0  0  0  0
   -1.4286    2.1606    0.0000 C   0  0  0  0  0  0  0  0  0  0  0  0
   -1.4286    1.3356    0.0000 C   0  0  0  0  0  0  0  0  0  0  0  0
   -0.7142    0.9231    0.0000 C   0  0  0  0  0  0  0  0  0  0  0  0
   -0.1790   -1.0358    0.0000 H   0  0  0  0  0  0  0  0  0  0  0  0
    3.0373   -1.0358    0.0000 H   0  0  0  0  0  0  0  0  0  0  0  0
   -0.1790   -2.8928    0.0000 H   0  0  0  0  0  0  0  0  0  0  0  0
    3.0373   -2.8928    0.0000 H   0  0  0  0  0  0  0  0  0  0  0  0
    0.6177   -4.0828    0.0000 H   0  0  0  0  0  0  0  0  0  0  0  0
    1.6413    1.4581    0.0000 H   0  0  0  0  0  0  0  0  0  0  0  0
    0.7147    1.9931    0.0000 H   0  0  0  0  0  0  0  0  0  0  0  0
    0.8939    2.6766    0.0000 H   0  0  0  0  0  0  0  0  0  0  0  0
   -0.7142    3.6051    0.0000 H   0  0  0  0  0  0  0  0  0  0  0  0
   -2.3223    2.6766    0.0000 H   0  0  0  0  0  0  0  0  0  0  0  0
   -2.3223    0.8196    0.0000 H   0  0  0  0  0  0  0  0  0  0  0  0
   -0.7142   -0.1089    0.0000 H   0  0  0  0  0  0  0  0  0  0  0  0
  1  3  2  0  0  0  0
  1  5  1  0  0  0  0
  1 18  1  0  0  0  0
  2  4  1  0  0  0  0
  2  5  2  0  0  0  0
  2 19  1  0  0  0  0
  3  6  1  0  0  0  0
  3 20  1  0  0  0  0
  4  6  2  0  0  0  0
  4 21  1  0  0  0  0
  5  7  1  0  0  0  0
  6  8  1  0  0  0  0
  7  9  2  0  0  0  0
  7 10  1  0  0  0  0
  8 22  1  0  0  0  0
 10 11  1  0  0  0  0
 11 12  1  0  0  0  0
 11 23  1  0  0  0  0
 11 24  1  0  0  0  0
 12 13  2  0  0  0  0
 12 17  1  0  0  0  0
 13 14  1  0  0  0  0
 13 25  1  0  0  0  0
 14 15  2  0  0  0  0
 14 26  1  0  0  0  0
 15 16  1  0  0  0  0
 15 27  1  0  0  0  0
 16 17  2  0  0  0  0
 16 28  1  0  0  0  0
 17 29  1  0  0  0  0
M  END
>  <DRUGBANK_ID>
DB14176

>  <COMMON_NAME>
Benzylparaben

>  <CAS_NUMBER>
94-18-8

>  <UNII>
8Y41DYV4VG

>  <SYNONYMS>
Benzyl 4-hydroxybenzoate; Benzyl p-hydroxybenzoate; Benzyl parahydroxybenzoate; p-Hydroxybenzoic acid benzyl ester; Phenylmethyl 4-hydroxybenzoate

$$$$
