RS2
 OpenBabel10282417072D

 48 50  0  0  0  0  0  0  0  0999 V2000
    3.2193    0.0828    0.0000 C   0  0  0  0  0  0  0  0  0  0  0  0
    3.9338   -0.3297    0.0000 C   0  0  0  0  0  0  0  0  0  0  0  0
    3.9338   -1.1547    0.0000 C   0  0  0  0  0  0  0  0  0  0  0  0
    3.2193   -1.5672    0.0000 C   0  0  0  0  0  0  0  0  0  0  0  0
    2.5048   -1.1547    0.0000 C   0  0  0  0  0  0  0  0  0  0  0  0
    2.5048   -0.3297    0.0000 C   0  0  0  0  0  0  0  0  0  0  0  0
    1.7904   -1.5672    0.0000 O   0  0  0  0  0  0  0  0  0  0  0  0
    1.0759   -1.1547    0.0000 C   0  0  0  0  0  0  0  0  0  0  0  0
    0.3614   -1.5672    0.0000 C   0  0  0  0  0  0  0  0  0  0  0  0
   -0.3530   -1.1547    0.0000 C   0  0  0  0  0  0  0  0  0  0  0  0
   -0.3530   -0.3297    0.0000 C   0  0  0  0  0  0  0  0  0  0  0  0
    0.3614    0.0828    0.0000 C   0  0  0  0  0  0  0  0  0  0  0  0
    1.0759   -0.3297    0.0000 C   0  0  0  0  0  0  0  0  0  0  0  0
   -1.0675    0.0828    0.0000 S   0  0  0  0  0  0  0  0  0  0  0  0
   -1.7820    0.4953    0.0000 C   0  0  0  0  0  0  0  0  0  0  0  0
   -0.6550    0.7972    0.0000 O   0  0  0  0  0  0  0  0  0  0  0  0
   -1.4800   -0.6317    0.0000 O   0  0  0  0  0  0  0  0  0  0  0  0
   -1.2517    1.1272    0.0000 C   0  0  0  0  0  0  0  0  0  0  0  0
   -1.5338    1.9025    0.0000 C   0  0  0  0  0  0  0  0  0  0  0  0
   -2.3463    2.0458    0.0000 O   0  0  0  0  0  0  0  0  0  0  0  0
   -1.0035    2.5345    0.0000 N   0  0  0  0  0  0  0  0  0  0  0  0
   -1.2857    3.3097    0.0000 O   0  0  0  0  0  0  0  0  0  0  0  0
   -2.0641   -0.2800    0.0000 C   0  0  0  0  0  0  0  0  0  0  0  0
   -2.8766   -0.4232    0.0000 C   0  0  0  0  0  0  0  0  0  0  0  0
   -3.4069    0.2087    0.0000 O   0  0  0  0  0  0  0  0  0  0  0  0
   -3.1247    0.9840    0.0000 C   0  0  0  0  0  0  0  0  0  0  0  0
   -2.3123    1.1272    0.0000 C   0  0  0  0  0  0  0  0  0  0  0  0
    3.2193    1.1148    0.0000 H   0  0  0  0  0  0  0  0  0  0  0  0
    4.8275    0.1863    0.0000 H   0  0  0  0  0  0  0  0  0  0  0  0
    4.8275   -1.6707    0.0000 H   0  0  0  0  0  0  0  0  0  0  0  0
    3.2193   -2.5992    0.0000 H   0  0  0  0  0  0  0  0  0  0  0  0
    1.6111    0.1863    0.0000 H   0  0  0  0  0  0  0  0  0  0  0  0
    0.3614   -2.5992    0.0000 H   0  0  0  0  0  0  0  0  0  0  0  0
   -1.2467   -1.6707    0.0000 H   0  0  0  0  0  0  0  0  0  0  0  0
    0.3614    1.1148    0.0000 H   0  0  0  0  0  0  0  0  0  0  0  0
    1.9696    0.1863    0.0000 H   0  0  0  0  0  0  0  0  0  0  0  0
   -0.1980    0.9413    0.0000 H   0  0  0  0  0  0  0  0  0  0  0  0
   -0.5638    1.9468    0.0000 H   0  0  0  0  0  0  0  0  0  0  0  0
   -0.0340    2.3636    0.0000 H   0  0  0  0  0  0  0  0  0  0  0  0
   -0.6622    4.0528    0.0000 H   0  0  0  0  0  0  0  0  0  0  0  0
   -1.3763   -1.0997    0.0000 H   0  0  0  0  0  0  0  0  0  0  0  0
   -2.4301   -1.2855    0.0000 H   0  0  0  0  0  0  0  0  0  0  0  0
   -3.2426   -1.4287    0.0000 H   0  0  0  0  0  0  0  0  0  0  0  0
   -3.9303   -0.6090    0.0000 H   0  0  0  0  0  0  0  0  0  0  0  0
   -3.8125    1.8037    0.0000 H   0  0  0  0  0  0  0  0  0  0  0  0
   -2.7587    1.9895    0.0000 H   0  0  0  0  0  0  0  0  0  0  0  0
   -1.9463    2.1327    0.0000 H   0  0  0  0  0  0  0  0  0  0  0  0
   -3.0001    1.9469    0.0000 H   0  0  0  0  0  0  0  0  0  0  0  0
  1  2  2  0  0  0  0
  1  6  1  0  0  0  0
  1 28  1  0  0  0  0
  2  3  1  0  0  0  0
  2 29  1  0  0  0  0
  3  4  2  0  0  0  0
  3 30  1  0  0  0  0
  4  5  1  0  0  0  0
  4 31  1  0  0  0  0
  5  6  2  0  0  0  0
  5  7  1  0  0  0  0
  6 32  1  0  0  0  0
  7  8  1  0  0  0  0
  8  9  2  0  0  0  0
  8 13  1  0  0  0  0
  9 10  1  0  0  0  0
  9 33  1  0  0  0  0
 10 11  2  0  0  0  0
 10 34  1  0  0  0  0
 11 12  1  0  0  0  0
 11 14  1  0  0  0  0
 12 13  2  0  0  0  0
 12 35  1  0  0  0  0
 13 36  1  0  0  0  0
 14 15  1  0  0  0  0
 14 16  2  0  0  0  0
 14 17  2  0  0  0  0
 15 18  1  0  0  0  0
 15 23  1  0  0  0  0
 15 27  1  0  0  0  0
 18 19  1  0  0  0  0
 18 37  1  0  0  0  0
 18 38  1  0  0  0  0
 19 20  2  0  0  0  0
 19 21  1  0  0  0  0
 21 22  1  0  0  0  0
 21 39  1  0  0  0  0
 22 40  1  0  0  0  0
 23 24  1  0  0  0  0
 23 41  1  0  0  0  0
 23 42  1  0  0  0  0
 24 25  1  0  0  0  0
 24 43  1  0  0  0  0
 24 44  1  0  0  0  0
 25 26  1  0  0  0  0
 26 27  1  0  0  0  0
 26 45  1  0  0  0  0
 26 46  1  0  0  0  0
 27 47  1  0  0  0  0
 27 48  1  0  0  0  0
M  END
>  <DRUGBANK_ID>
DB08491

>  <COMMON_NAME>
N-HYDROXY-2-[4-(4-PHENOXY-BENZENESULFONYL)-TETRAHYDRO-PYRAN-4-YL]-ACETAMIDE

$$$$
