694
 OpenBabel10282417072D

 67 71  0  0  1  0  0  0  0  0999 V2000
    4.9342    0.4160    0.0000 O   0  0  0  0  0  0  0  0  0  0  0  0
    3.5054    0.4325    0.0000 O   0  0  0  0  0  0  0  0  0  0  0  0
    3.7675   -2.4080    0.0000 O   0  0  0  0  0  0  0  0  0  0  0  0
    2.0958    2.0988    0.0000 O   0  0  0  0  0  0  0  0  0  0  0  0
    6.3765    0.3875    0.0000 O   0  0  0  0  0  0  0  0  0  0  0  0
    6.3765   -2.9123    0.0000 O   0  0  0  0  0  0  0  0  0  0  0  0
    2.9370   -0.9824    0.0000 O   0  0  0  0  0  0  0  0  0  0  0  0
    7.8188    0.4160    0.0000 O   0  0  0  0  0  0  0  0  0  0  0  0
    7.8188   -2.9408    0.0000 O   0  0  0  0  0  0  0  0  0  0  0  0
    9.3345    0.4516    0.0000 O   0  0  0  0  0  0  0  0  0  0  0  0
    3.5341    2.9072    0.0000 N   0  0  0  0  0  0  0  0  0  0  0  0
    4.9247   -0.4089    0.0000 C   0  0  1  0  0  0  0  0  0  0  0  0
    4.1771   -1.6920    0.0000 C   0  0  2  0  0  0  0  0  0  0  0  0
    4.1771   -0.8327    0.0000 C   0  0  0  0  0  0  0  0  0  0  0  0
    4.9247   -2.1160    0.0000 C   0  0  0  0  0  0  0  0  0  0  0  0
    5.6620   -0.8499    0.0000 C   0  0  0  0  0  0  0  0  0  0  0  0
    5.6620   -1.6749    0.0000 C   0  0  0  0  0  0  0  0  0  0  0  0
    4.2245    0.8367    0.0000 C   0  0  2  0  0  0  0  0  0  0  0  0
    4.2341    1.6616    0.0000 C   0  0  0  0  0  0  0  0  0  0  0  0
    3.5245    2.0823    0.0000 C   0  0  1  0  0  0  0  0  0  0  0  0
    2.8054    1.6781    0.0000 C   0  0  1  0  0  0  0  0  0  0  0  0
    2.7958    0.8532    0.0000 C   0  0  2  0  0  0  0  0  0  0  0  0
    6.3765   -0.4375    0.0000 C   0  0  0  0  0  0  0  0  0  0  0  0
    3.3522   -1.6953    0.0000 C   0  0  0  0  0  0  0  0  0  0  0  0
    6.3765   -2.0874    0.0000 C   0  0  0  0  0  0  0  0  0  0  0  0
    7.0910   -0.8499    0.0000 C   0  0  0  0  0  0  0  0  0  0  0  0
    7.0910   -1.6749    0.0000 C   0  0  0  0  0  0  0  0  0  0  0  0
    2.0767    0.4490    0.0000 C   0  0  0  0  0  0  0  0  0  0  0  0
    2.9425   -2.4112    0.0000 C   0  0  0  0  0  0  0  0  0  0  0  0
    7.8284   -0.4089    0.0000 C   0  0  0  0  0  0  0  0  0  0  0  0
    7.8284   -2.1160    0.0000 C   0  0  0  0  0  0  0  0  0  0  0  0
    8.5759   -0.8327    0.0000 C   0  0  0  0  0  0  0  0  0  0  0  0
    8.5759   -1.6920    0.0000 C   0  0  0  0  0  0  0  0  0  0  0  0
    9.3439   -0.3734    0.0000 C   0  0  0  0  0  0  0  0  0  0  0  0
    9.3439   -2.1515    0.0000 C   0  0  0  0  0  0  0  0  0  0  0  0
   10.1226   -0.8148    0.0000 C   0  0  0  0  0  0  0  0  0  0  0  0
   10.1226   -1.7099    0.0000 C   0  0  0  0  0  0  0  0  0  0  0  0
   10.0440    0.8722    0.0000 C   0  0  0  0  0  0  0  0  0  0  0  0
    2.7975   -2.4119    0.0000 H   0  0  0  0  0  0  0  0  0  0  0  0
    2.1070    3.0687    0.0000 H   0  0  0  0  0  0  0  0  0  0  0  0
    7.1880    0.8560    0.0000 H   0  0  0  0  0  0  0  0  0  0  0  0
    5.5650   -3.3808    0.0000 H   0  0  0  0  0  0  0  0  0  0  0  0
    4.4233    3.4069    0.0000 H   0  0  0  0  0  0  0  0  0  0  0  0
    2.6567    3.4274    0.0000 H   0  0  0  0  0  0  0  0  0  0  0  0
    4.0033    0.1351    0.0000 H   0  0  0  0  0  0  0  0  0  0  0  0
    3.2526   -0.2940    0.0000 H   0  0  0  0  0  0  0  0  0  0  0  0
    3.2494   -1.3659    0.0000 H   0  0  0  0  0  0  0  0  0  0  0  0
    4.9371   -3.1859    0.0000 H   0  0  0  0  0  0  0  0  0  0  0  0
    5.8585   -2.6384    0.0000 H   0  0  0  0  0  0  0  0  0  0  0  0
    4.2122   -0.2332    0.0000 H   0  0  0  0  0  0  0  0  0  0  0  0
    5.1669    2.1858    0.0000 H   0  0  0  0  0  0  0  0  0  0  0  0
    4.2465    2.7315    0.0000 H   0  0  0  0  0  0  0  0  0  0  0  0
    4.4573    2.6065    0.0000 H   0  0  0  0  0  0  0  0  0  0  0  0
    2.8177    2.7480    0.0000 H   0  0  0  0  0  0  0  0  0  0  0  0
    2.7835   -0.2167    0.0000 H   0  0  0  0  0  0  0  0  0  0  0  0
    1.1563    0.9946    0.0000 H   0  0  0  0  0  0  0  0  0  0  0  0
    2.0644   -0.6209    0.0000 H   0  0  0  0  0  0  0  0  0  0  0  0
    1.1440   -0.0753    0.0000 H   0  0  0  0  0  0  0  0  0  0  0  0
    1.8725   -2.4153    0.0000 H   0  0  0  0  0  0  0  0  0  0  0  0
    3.4810   -3.3358    0.0000 H   0  0  0  0  0  0  0  0  0  0  0  0
    2.4110   -3.3399    0.0000 H   0  0  0  0  0  0  0  0  0  0  0  0
    9.3319   -3.1834    0.0000 H   0  0  0  0  0  0  0  0  0  0  0  0
   11.0143   -0.2953    0.0000 H   0  0  0  0  0  0  0  0  0  0  0  0
   11.0143   -2.2293    0.0000 H   0  0  0  0  0  0  0  0  0  0  0  0
   10.9767    0.3479    0.0000 H   0  0  0  0  0  0  0  0  0  0  0  0
   10.0317    1.9421    0.0000 H   0  0  0  0  0  0  0  0  0  0  0  0
   10.9644    1.4178    0.0000 H   0  0  0  0  0  0  0  0  0  0  0  0
  2 18  1  0  0  0  0
  2 22  1  0  0  0  0
  3 39  1  0  0  0  0
  4 40  1  0  0  0  0
  5 23  1  0  0  0  0
  5 41  1  0  0  0  0
  6 25  1  0  0  0  0
  6 42  1  0  0  0  0
  7 24  2  0  0  0  0
  8 30  2  0  0  0  0
  9 31  2  0  0  0  0
 10 34  1  0  0  0  0
 10 38  1  0  0  0  0
 11 43  1  0  0  0  0
 11 44  1  0  0  0  0
 12  1  1  0  0  0  0
 12 14  1  0  0  0  0
 12 16  1  0  0  0  0
 12 45  1  1  0  0  0
 13  3  1  6  0  0  0
 13 14  1  0  0  0  0
 13 15  1  0  0  0  0
 13 24  1  0  0  0  0
 14 46  1  0  0  0  0
 14 47  1  0  0  0  0
 15 17  1  0  0  0  0
 15 48  1  0  0  0  0
 15 49  1  0  0  0  0
 16 17  2  0  0  0  0
 16 23  1  0  0  0  0
 17 25  1  0  0  0  0
 18  1  1  0  0  0  0
 18 19  1  0  0  0  0
 18 50  1  1  0  0  0
 19 20  1  0  0  0  0
 19 51  1  0  0  0  0
 19 52  1  0  0  0  0
 20 11  1  0  0  0  0
 20 21  1  0  0  0  0
 20 53  1  6  0  0  0
 21  4  1  0  0  0  0
 21 22  1  0  0  0  0
 21 54  1  6  0  0  0
 22 28  1  0  0  0  0
 22 55  1  6  0  0  0
 23 26  2  0  0  0  0
 24 29  1  0  0  0  0
 25 27  2  0  0  0  0
 26 27  1  0  0  0  0
 26 30  1  0  0  0  0
 27 31  1  0  0  0  0
 28 56  1  0  0  0  0
 28 57  1  0  0  0  0
 28 58  1  0  0  0  0
 29 59  1  0  0  0  0
 29 60  1  0  0  0  0
 29 61  1  0  0  0  0
 30 32  1  0  0  0  0
 31 33  1  0  0  0  0
 32 33  2  0  0  0  0
 32 34  1  0  0  0  0
 33 35  1  0  0  0  0
 34 36  2  0  0  0  0
 35 37  2  0  0  0  0
 35 62  1  0  0  0  0
 36 37  1  0  0  0  0
 36 63  1  0  0  0  0
 37 64  1  0  0  0  0
 38 65  1  0  0  0  0
 38 66  1  0  0  0  0
 38 67  1  0  0  0  0
M  END
>  <DRUGBANK_ID>
DB00694

>  <SECONDARY_ACCESSION_NUMBERS>
APRD00521

>  <COMMON_NAME>
Daunorubicin

>  <CAS_NUMBER>
20830-81-3

>  <UNII>
ZS7284E0ZP

>  <SYNONYMS>
(+)-Daunomycin; (8S-cis)-8-acetyl-10-((3-amino-2,3,6-trideoxy-Î±-L-lyxo-hexopyrannosyl)oxy)-7,8,9,10-tetrahydro-6,8,11-trihydroxy-1-methoxy-5,12-napthacenedione; Acetyladriamycin; Daunomycin; Daunorubicin; Daunorubicin liposomal; Daunorubicina; Daunorubicine; Daunorubicinum; Leukaemomycin C; Rubidomycin

$$$$
