
 OpenBabel10282417072D

 52 54  0  0  0  0  0  0  0  0999 V2000
    3.7162    1.0145    0.0000 Cl  0  0  0  0  0  0  0  0  0  0  0  0
    3.3000    1.7355    0.0000 C   0  0  0  0  0  0  0  0  0  0  0  0
    3.7162    2.4490    0.0000 C   0  0  0  0  0  0  0  0  0  0  0  0
    3.3000    3.1625    0.0000 C   0  0  0  0  0  0  0  0  0  0  0  0
    2.4750    3.1625    0.0000 C   0  0  0  0  0  0  0  0  0  0  0  0
    2.0661    2.4490    0.0000 C   0  0  0  0  0  0  0  0  0  0  0  0
    2.4750    1.7355    0.0000 C   0  0  0  0  0  0  0  0  0  0  0  0
    1.2412    2.4490    0.0000 C   0  0  2  0  0  0  0  0  0  0  0  0
    1.2412    3.2740    0.0000 H   0  0  0  0  0  0  0  0  0  0  0  0
    0.4161    2.4490    0.0000 C   0  0  0  0  0  0  0  0  0  0  0  0
    0.0000    1.7355    0.0000 N   0  0  0  0  0  0  0  0  0  0  0  0
   -0.8249    1.7355    0.0000 C   0  0  0  0  0  0  0  0  0  0  0  0
   -1.2412    1.0145    0.0000 C   0  0  0  0  0  0  0  0  0  0  0  0
   -2.0661    1.0145    0.0000 N   0  0  0  0  0  0  0  0  0  0  0  0
   -2.4750    0.3010    0.0000 C   0  0  0  0  0  0  0  0  0  0  0  0
   -3.3000    0.3010    0.0000 C   0  0  0  0  0  0  0  0  0  0  0  0
   -3.7162   -0.4125    0.0000 C   0  0  0  0  0  0  0  0  0  0  0  0
   -3.3000   -1.1260    0.0000 C   0  0  0  0  0  0  0  0  0  0  0  0
   -2.4750   -1.1260    0.0000 C   0  0  0  0  0  0  0  0  0  0  0  0
   -2.0661   -0.4125    0.0000 C   0  0  0  0  0  0  0  0  0  0  0  0
   -2.0661   -1.8470    0.0000 C   0  0  0  0  0  0  0  0  0  0  0  0
   -2.4750   -2.5605    0.0000 C   0  0  0  0  0  0  0  0  0  0  0  0
   -2.0661   -3.2740    0.0000 C   0  0  0  0  0  0  0  0  0  0  0  0
   -1.2412   -3.2740    0.0000 C   0  0  0  0  0  0  0  0  0  0  0  0
   -0.8249   -2.5605    0.0000 C   0  0  0  0  0  0  0  0  0  0  0  0
   -1.2412   -1.8470    0.0000 C   0  0  0  0  0  0  0  0  0  0  0  0
    0.0000   -2.5605    0.0000 C   0  0  0  0  0  0  0  0  0  0  0  0
    0.4161   -3.2740    0.0000 O   0  0  0  0  0  0  0  0  0  0  0  0
    0.4161   -1.8470    0.0000 O   0  0  0  0  0  0  0  0  0  0  0  0
    1.2412    1.6240    0.0000 O   0  0  0  0  0  0  0  0  0  0  0  0
    4.7482    2.4490    0.0000 H   0  0  0  0  0  0  0  0  0  0  0  0
    3.8140    4.0574    0.0000 H   0  0  0  0  0  0  0  0  0  0  0  0
    1.9576    4.0554    0.0000 H   0  0  0  0  0  0  0  0  0  0  0  0
    1.9576    0.8426    0.0000 H   0  0  0  0  0  0  0  0  0  0  0  0
   -0.1169    3.3768    0.0000 H   0  0  0  0  0  0  0  0  0  0  0  0
   -0.6539    2.4525    0.0000 H   0  0  0  0  0  0  0  0  0  0  0  0
    0.5081    0.8510    0.0000 H   0  0  0  0  0  0  0  0  0  0  0  0
   -1.3599    2.6622    0.0000 H   0  0  0  0  0  0  0  0  0  0  0  0
   -1.8949    1.7355    0.0000 H   0  0  0  0  0  0  0  0  0  0  0  0
   -0.7062    0.0878    0.0000 H   0  0  0  0  0  0  0  0  0  0  0  0
   -1.7762    0.0879    0.0000 H   0  0  0  0  0  0  0  0  0  0  0  0
   -2.5597    1.8663    0.0000 H   0  0  0  0  0  0  0  0  0  0  0  0
   -3.8140    1.1959    0.0000 H   0  0  0  0  0  0  0  0  0  0  0  0
   -4.7482   -0.4125    0.0000 H   0  0  0  0  0  0  0  0  0  0  0  0
   -3.8140   -2.0209    0.0000 H   0  0  0  0  0  0  0  0  0  0  0  0
   -1.0341   -0.4125    0.0000 H   0  0  0  0  0  0  0  0  0  0  0  0
   -3.5070   -2.5605    0.0000 H   0  0  0  0  0  0  0  0  0  0  0  0
   -2.5835   -4.1669    0.0000 H   0  0  0  0  0  0  0  0  0  0  0  0
   -0.7272   -4.1689    0.0000 H   0  0  0  0  0  0  0  0  0  0  0  0
   -0.7272   -0.9521    0.0000 H   0  0  0  0  0  0  0  0  0  0  0  0
    1.3531   -1.8511    0.0000 H   0  0  0  0  0  0  0  0  0  0  0  0
    0.4012    1.1390    0.0000 H   0  0  0  0  0  0  0  0  0  0  0  0
  1  2  1  0  0  0  0
  2  3  1  0  0  0  0
  2  7  2  0  0  0  0
  3  4  2  0  0  0  0
  3 31  1  0  0  0  0
  4  5  1  0  0  0  0
  4 32  1  0  0  0  0
  5  6  2  0  0  0  0
  5 33  1  0  0  0  0
  6  7  1  0  0  0  0
  6  8  1  0  0  0  0
  7 34  1  0  0  0  0
  8  9  1  6  0  0  0
  8 10  1  0  0  0  0
  8 30  1  0  0  0  0
 10 11  1  0  0  0  0
 10 35  1  0  0  0  0
 10 36  1  0  0  0  0
 11 12  1  0  0  0  0
 11 37  1  0  0  0  0
 12 13  1  0  0  0  0
 12 38  1  0  0  0  0
 12 39  1  0  0  0  0
 13 14  1  0  0  0  0
 13 40  1  0  0  0  0
 13 41  1  0  0  0  0
 14 15  1  0  0  0  0
 14 42  1  0  0  0  0
 15 16  1  0  0  0  0
 15 20  2  0  0  0  0
 16 17  2  0  0  0  0
 16 43  1  0  0  0  0
 17 18  1  0  0  0  0
 17 44  1  0  0  0  0
 18 19  2  0  0  0  0
 18 45  1  0  0  0  0
 19 20  1  0  0  0  0
 19 21  1  0  0  0  0
 20 46  1  0  0  0  0
 21 22  1  0  0  0  0
 21 26  2  0  0  0  0
 22 23  2  0  0  0  0
 22 47  1  0  0  0  0
 23 24  1  0  0  0  0
 23 48  1  0  0  0  0
 24 25  2  0  0  0  0
 24 49  1  0  0  0  0
 25 26  1  0  0  0  0
 25 27  1  0  0  0  0
 26 50  1  0  0  0  0
 27 28  2  0  0  0  0
 27 29  1  0  0  0  0
 29 51  1  0  0  0  0
 30 52  1  0  0  0  0
M  END
>  <DRUGBANK_ID>
DB06190

>  <COMMON_NAME>
Solabegron

>  <CAS_NUMBER>
252920-94-8

>  <UNII>
55P6YH9O6N

>  <SYNONYMS>
Solabegron

$$$$
