
 OpenBabel10282417072D

 27 26  0  0  1  0  0  0  0  0999 V2000
   -0.3572   -1.2375    0.0000 C   0  0  0  0  0  0  0  0  0  0  0  0
   -1.7861    0.4125    0.0000 C   0  0  0  0  0  0  0  0  0  0  0  0
    1.7861    0.0000    0.0000 C   0  0  0  0  0  0  0  0  0  0  0  0
   -1.0717    0.0000    0.0000 C   0  0  2  0  0  0  0  0  0  0  0  0
    1.0717    0.4125    0.0000 C   0  0  1  0  0  0  0  0  0  0  0  0
   -0.3572    0.4125    0.0000 C   0  0  2  0  0  0  0  0  0  0  0  0
    0.3572    0.0000    0.0000 C   0  0  2  0  0  0  0  0  0  0  0  0
   -2.5006    0.0000    0.0000 O   0  0  0  0  0  0  0  0  0  0  0  0
    2.5006    0.4125    0.0000 O   0  0  0  0  0  0  0  0  0  0  0  0
   -1.0717   -0.8250    0.0000 O   0  0  0  0  0  0  0  0  0  0  0  0
    1.0717    1.2375    0.0000 O   0  0  0  0  0  0  0  0  0  0  0  0
   -0.3572    1.2375    0.0000 O   0  0  0  0  0  0  0  0  0  0  0  0
    0.3572   -0.8250    0.0000 O   0  0  0  0  0  0  0  0  0  0  0  0
   -1.0717    0.8250    0.0000 H   0  0  0  0  0  0  0  0  0  0  0  0
    1.0717   -0.4125    0.0000 H   0  0  0  0  0  0  0  0  0  0  0  0
   -0.3572   -0.4125    0.0000 H   0  0  0  0  0  0  0  0  0  0  0  0
    0.3572    0.8250    0.0000 H   0  0  0  0  0  0  0  0  0  0  0  0
   -1.2839   -0.7025    0.0000 H   0  0  0  0  0  0  0  0  0  0  0  0
   -0.3572   -2.3075    0.0000 H   0  0  0  0  0  0  0  0  0  0  0  0
   -1.2838   -1.7725    0.0000 H   0  0  0  0  0  0  0  0  0  0  0  0
   -1.7861    1.4825    0.0000 H   0  0  0  0  0  0  0  0  0  0  0  0
   -2.7127    0.9475    0.0000 H   0  0  0  0  0  0  0  0  0  0  0  0
    1.7861   -1.0320    0.0000 H   0  0  0  0  0  0  0  0  0  0  0  0
   -3.3406    0.4850    0.0000 H   0  0  0  0  0  0  0  0  0  0  0  0
   -1.9117   -1.3100    0.0000 H   0  0  0  0  0  0  0  0  0  0  0  0
    1.9117    1.7225    0.0000 H   0  0  0  0  0  0  0  0  0  0  0  0
    0.4828    1.7225    0.0000 H   0  0  0  0  0  0  0  0  0  0  0  0
  1 18  1  0  0  0  0
  1 19  1  0  0  0  0
  1 20  1  0  0  0  0
  2 21  1  0  0  0  0
  2 22  1  0  0  0  0
  3 23  1  0  0  0  0
  4  2  1  0  0  0  0
  4 10  1  0  0  0  0
  4 14  1  1  0  0  0
  5  3  1  0  0  0  0
  5 11  1  0  0  0  0
  5 15  1  6  0  0  0
  6  4  1  0  0  0  0
  6  7  1  0  0  0  0
  6 12  1  0  0  0  0
  6 16  1  6  0  0  0
  7  5  1  0  0  0  0
  7 13  1  0  0  0  0
  7 17  1  6  0  0  0
  8  2  1  0  0  0  0
  8 24  1  0  0  0  0
  9  3  2  0  0  0  0
 10 25  1  0  0  0  0
 11 26  1  0  0  0  0
 12 27  1  0  0  0  0
 13  1  1  0  0  0  0
M  END
>  <DRUGBANK_ID>
DB16765

>  <COMMON_NAME>
3-O-Methyl-d-glucose

>  <CAS_NUMBER>
146-72-5

>  <UNII>
48DU64I6O5

>  <SYNONYMS>
3-Methyl-D-glucose; 3-Methylglucose; 3-O-Methylglucose; Methylglucose; O(3)-methyl-D-glucose

$$$$
