
 OpenBabel10282417072D

126131  0  0  1  0  0  0  0  0999 V2000
    2.5208    6.7144    0.0000 C   0  0  0  0  0  0  0  0  0  0  0  0
    2.6850    5.8743    0.0000 C   0  0  0  0  0  0  0  0  0  0  0  0
    1.8480    5.6995    0.0000 C   0  0  0  0  0  0  0  0  0  0  0  0
    3.4437    5.4106    0.0000 C   0  0  0  0  0  0  0  0  0  0  0  0
    3.9429    4.6553    0.0000 C   0  0  1  0  0  0  0  0  0  0  0  0
    4.7468    4.8455    0.0000 C   0  0  0  0  0  0  0  0  0  0  0  0
    4.7795    5.6969    0.0000 O   0  0  0  0  0  0  0  0  0  0  0  0
    5.5567    4.7168    0.0000 N   0  0  0  0  0  0  0  0  0  0  0  0
    6.1905    4.1892    0.0000 C   0  0  2  0  0  0  0  0  0  0  0  0
    6.3354    3.3656    0.0000 C   0  0  0  0  0  0  0  0  0  0  0  0
    7.2020    3.3497    0.0000 O   0  0  0  0  0  0  0  0  0  0  0  0
    5.9527    2.6131    0.0000 N   0  0  0  0  0  0  0  0  0  0  0  0
    5.2187    2.1718    0.0000 C   0  0  1  0  0  0  0  0  0  0  0  0
    4.5633    1.5523    0.0000 C   0  0  0  0  0  0  0  0  0  0  0  0
    3.7706    1.1576    0.0000 C   0  0  0  0  0  0  0  0  0  0  0  0
    2.9860    0.4214    0.0000 O   0  0  0  0  0  0  0  0  0  0  0  0
    2.8437    1.3507    0.0000 N   0  0  0  0  0  0  0  0  0  0  0  0
    2.5766    2.1620    0.0000 C   0  0  0  0  0  0  0  0  0  0  0  0
    3.3754    2.4813    0.0000 C   0  0  1  0  0  0  0  0  0  0  0  0
    3.0850    3.3040    0.0000 C   0  0  0  0  0  0  0  0  0  0  0  0
    2.2276    3.4052    0.0000 O   0  0  0  0  0  0  0  0  0  0  0  0
    3.3046    4.1179    0.0000 N   0  0  0  0  0  0  0  0  0  0  0  0
    4.2193    1.9591    0.0000 N   0  0  0  0  0  0  0  0  0  0  0  0
    4.9527    1.2254    0.0000 C   0  0  0  0  0  0  0  0  0  0  0  0
    5.9369    1.6081    0.0000 O   0  0  0  0  0  0  0  0  0  0  0  0
    4.7763    0.3932    0.0000 C   0  0  1  0  0  0  0  0  0  0  0  0
    4.0407    0.2314    0.0000 N   0  0  0  0  0  0  0  0  0  0  0  0
    3.3184    0.7406    0.0000 C   0  0  0  0  0  0  0  0  0  0  0  0
    2.3604    0.6932    0.0000 O   0  0  0  0  0  0  0  0  0  0  0  0
    3.4997    1.7056    0.0000 C   0  0  1  0  0  0  0  0  0  0  0  0
    4.0030    2.5305    0.0000 N   0  0  0  0  0  0  0  0  0  0  0  0
    4.7787    2.8939    0.0000 C   0  0  0  0  0  0  0  0  0  0  0  0
    4.6911    3.7251    0.0000 O   0  0  0  0  0  0  0  0  0  0  0  0
    4.2042    1.2934    0.0000 C   0  0  0  0  0  0  0  0  0  0  0  0
    4.3987    0.5949    0.0000 C   0  0  0  0  0  0  0  0  0  0  0  0
    3.9138   -0.0726    0.0000 C   0  0  0  0  0  0  0  0  0  0  0  0
    4.3987   -0.7400    0.0000 N   0  0  0  0  0  0  0  0  0  0  0  0
    5.1833   -0.4851    0.0000 C   0  0  0  0  0  0  0  0  0  0  0  0
    5.1833    0.3399    0.0000 C   0  0  0  0  0  0  0  0  0  0  0  0
    5.8978    0.7524    0.0000 C   0  0  0  0  0  0  0  0  0  0  0  0
    6.6122    0.3399    0.0000 C   0  0  0  0  0  0  0  0  0  0  0  0
    6.6122   -0.4851    0.0000 C   0  0  0  0  0  0  0  0  0  0  0  0
    5.8978   -0.8976    0.0000 C   0  0  0  0  0  0  0  0  0  0  0  0
    5.4982   -0.1277    0.0000 C   0  0  0  0  0  0  0  0  0  0  0  0
    5.2011   -0.9711    0.0000 C   0  0  0  0  0  0  0  0  0  0  0  0
    5.7321   -1.6025    0.0000 C   0  0  0  0  0  0  0  0  0  0  0  0
    5.4508   -2.3781    0.0000 C   0  0  0  0  0  0  0  0  0  0  0  0
    4.6385   -2.5222    0.0000 C   0  0  0  0  0  0  0  0  0  0  0  0
    4.1075   -1.8908    0.0000 C   0  0  0  0  0  0  0  0  0  0  0  0
    4.3888   -1.1153    0.0000 C   0  0  0  0  0  0  0  0  0  0  0  0
    6.8979    4.7335    0.0000 C   0  0  0  0  0  0  0  0  0  0  0  0
    7.2902    5.5190    0.0000 C   0  0  0  0  0  0  0  0  0  0  0  0
    6.9734    6.3167    0.0000 O   0  0  0  0  0  0  0  0  0  0  0  0
    8.1474    5.6041    0.0000 N   0  0  0  0  0  0  0  0  0  0  0  0
    8.3257    6.4113    0.0000 C   0  0  1  0  0  0  0  0  0  0  0  0
    9.1124    6.6599    0.0000 C   0  0  1  0  0  0  0  0  0  0  0  0
    9.2904    7.4654    0.0000 C   0  0  2  0  0  0  0  0  0  0  0  0
    8.6817    8.0224    0.0000 C   0  0  1  0  0  0  0  0  0  0  0  0
    7.8951    7.7738    0.0000 C   0  0  2  0  0  0  0  0  0  0  0  0
    7.7171    6.9682    0.0000 O   0  0  0  0  0  0  0  0  0  0  0  0
    7.2865    8.3307    0.0000 C   0  0  0  0  0  0  0  0  0  0  0  0
    7.4645    9.1363    0.0000 O   0  0  0  0  0  0  0  0  0  0  0  0
    8.8598    8.8280    0.0000 O   0  0  0  0  0  0  0  0  0  0  0  0
   10.0770    7.7141    0.0000 O   0  0  0  0  0  0  0  0  0  0  0  0
    9.7210    6.1029    0.0000 N   0  0  0  0  0  0  0  0  0  0  0  0
    9.5430    5.2974    0.0000 C   0  0  0  0  0  0  0  0  0  0  0  0
    8.7563    5.0487    0.0000 O   0  0  0  0  0  0  0  0  0  0  0  0
   10.1516    4.7404    0.0000 C   0  0  0  0  0  0  0  0  0  0  0  0
    3.3276    7.4172    0.0000 H   0  0  0  0  0  0  0  0  0  0  0  0
    1.5087    7.0617    0.0000 H   0  0  0  0  0  0  0  0  0  0  0  0
    2.3155    7.7645    0.0000 H   0  0  0  0  0  0  0  0  0  0  0  0
    2.5025    4.8200    0.0000 H   0  0  0  0  0  0  0  0  0  0  0  0
    1.1349    6.4972    0.0000 H   0  0  0  0  0  0  0  0  0  0  0  0
    1.5137    4.6831    0.0000 H   0  0  0  0  0  0  0  0  0  0  0  0
    0.8006    5.4808    0.0000 H   0  0  0  0  0  0  0  0  0  0  0  0
    4.1868    6.1805    0.0000 H   0  0  0  0  0  0  0  0  0  0  0  0
    4.5092    5.3125    0.0000 H   0  0  0  0  0  0  0  0  0  0  0  0
    4.3370    5.6501    0.0000 H   0  0  0  0  0  0  0  0  0  0  0  0
    5.9634    5.6134    0.0000 H   0  0  0  0  0  0  0  0  0  0  0  0
    6.2110    5.2590    0.0000 H   0  0  0  0  0  0  0  0  0  0  0  0
    6.6731    1.9420    0.0000 H   0  0  0  0  0  0  0  0  0  0  0  0
    5.8656    1.3195    0.0000 H   0  0  0  0  0  0  0  0  0  0  0  0
    5.1759    0.6750    0.0000 H   0  0  0  0  0  0  0  0  0  0  0  0
    4.2990    0.5155    0.0000 H   0  0  0  0  0  0  0  0  0  0  0  0
    2.1878    0.6165    0.0000 H   0  0  0  0  0  0  0  0  0  0  0  0
    1.6068    2.6141    0.0000 H   0  0  0  0  0  0  0  0  0  0  0  0
    2.6065    3.2316    0.0000 H   0  0  0  0  0  0  0  0  0  0  0  0
    3.2825    1.4153    0.0000 H   0  0  0  0  0  0  0  0  0  0  0  0
    2.4743    4.6469    0.0000 H   0  0  0  0  0  0  0  0  0  0  0  0
    4.8306    2.7309    0.0000 H   0  0  0  0  0  0  0  0  0  0  0  0
    5.7745    0.7786    0.0000 H   0  0  0  0  0  0  0  0  0  0  0  0
    3.8463   -0.7337    0.0000 H   0  0  0  0  0  0  0  0  0  0  0  0
    3.9437    0.7320    0.0000 H   0  0  0  0  0  0  0  0  0  0  0  0
    3.3461    3.2638    0.0000 H   0  0  0  0  0  0  0  0  0  0  0  0
    5.0518    1.9465    0.0000 H   0  0  0  0  0  0  0  0  0  0  0  0
    5.2194    0.9554    0.0000 H   0  0  0  0  0  0  0  0  0  0  0  0
    2.8818   -0.0726    0.0000 H   0  0  0  0  0  0  0  0  0  0  0  0
    4.0945   -1.6763    0.0000 H   0  0  0  0  0  0  0  0  0  0  0  0
    5.8978    1.7844    0.0000 H   0  0  0  0  0  0  0  0  0  0  0  0
    7.5059    0.8559    0.0000 H   0  0  0  0  0  0  0  0  0  0  0  0
    7.5059   -1.0011    0.0000 H   0  0  0  0  0  0  0  0  0  0  0  0
    5.8978   -1.9296    0.0000 H   0  0  0  0  0  0  0  0  0  0  0  0
    6.5193    0.1921    0.0000 H   0  0  0  0  0  0  0  0  0  0  0  0
    6.2414   -0.8975    0.0000 H   0  0  0  0  0  0  0  0  0  0  0  0
    6.7482   -1.4222    0.0000 H   0  0  0  0  0  0  0  0  0  0  0  0
    6.1150   -3.1679    0.0000 H   0  0  0  0  0  0  0  0  0  0  0  0
    4.2866   -3.4923    0.0000 H   0  0  0  0  0  0  0  0  0  0  0  0
    3.0914   -2.0711    0.0000 H   0  0  0  0  0  0  0  0  0  0  0  0
    3.7246   -0.3255    0.0000 H   0  0  0  0  0  0  0  0  0  0  0  0
    7.7238    4.0532    0.0000 H   0  0  0  0  0  0  0  0  0  0  0  0
    7.9446    4.9558    0.0000 H   0  0  0  0  0  0  0  0  0  0  0  0
    8.8011    4.8680    0.0000 H   0  0  0  0  0  0  0  0  0  0  0  0
    9.1151    5.6890    0.0000 H   0  0  0  0  0  0  0  0  0  0  0  0
    8.8815    5.6151    0.0000 H   0  0  0  0  0  0  0  0  0  0  0  0
   10.0798    6.7431    0.0000 H   0  0  0  0  0  0  0  0  0  0  0  0
    9.7020    8.3448    0.0000 H   0  0  0  0  0  0  0  0  0  0  0  0
    8.1260    8.8186    0.0000 H   0  0  0  0  0  0  0  0  0  0  0  0
    6.2662    8.0082    0.0000 H   0  0  0  0  0  0  0  0  0  0  0  0
    6.4971    9.0530    0.0000 H   0  0  0  0  0  0  0  0  0  0  0  0
    8.3894    9.4286    0.0000 H   0  0  0  0  0  0  0  0  0  0  0  0
    9.7847    9.1202    0.0000 H   0  0  0  0  0  0  0  0  0  0  0  0
   10.7927    7.0593    0.0000 H   0  0  0  0  0  0  0  0  0  0  0  0
   10.6597    6.3995    0.0000 H   0  0  0  0  0  0  0  0  0  0  0  0
    9.9206    3.6956    0.0000 H   0  0  0  0  0  0  0  0  0  0  0  0
   11.1719    5.0628    0.0000 H   0  0  0  0  0  0  0  0  0  0  0  0
   10.9409    4.0180    0.0000 H   0  0  0  0  0  0  0  0  0  0  0  0
  1  2  1  0  0  0  0
  1 69  1  0  0  0  0
  1 70  1  0  0  0  0
  1 71  1  0  0  0  0
  2  3  1  0  0  0  0
  2  4  1  0  0  0  0
  2 72  1  0  0  0  0
  3 73  1  0  0  0  0
  3 74  1  0  0  0  0
  3 75  1  0  0  0  0
  4 76  1  0  0  0  0
  4 77  1  0  0  0  0
  5  4  1  0  0  0  0
  5  6  1  0  0  0  0
  5 22  1  0  0  0  0
  5 78  1  6  0  0  0
  6  7  2  0  0  0  0
  6  8  1  0  0  0  0
  8  9  1  0  0  0  0
  8 79  1  0  0  0  0
  9 10  1  0  0  0  0
  9 51  1  0  0  0  0
  9 80  1  6  0  0  0
 10 11  2  0  0  0  0
 10 12  1  0  0  0  0
 12 81  1  0  0  0  0
 13 12  1  0  0  0  0
 13 14  1  0  0  0  0
 13 32  1  0  0  0  0
 13 82  1  6  0  0  0
 14 15  1  0  0  0  0
 14 83  1  0  0  0  0
 14 84  1  0  0  0  0
 15 16  2  0  0  0  0
 15 17  1  0  0  0  0
 17 18  1  0  0  0  0
 17 85  1  0  0  0  0
 18 19  1  0  0  0  0
 18 86  1  0  0  0  0
 18 87  1  0  0  0  0
 19 20  1  0  0  0  0
 19 23  1  0  0  0  0
 19 88  1  6  0  0  0
 20 21  2  0  0  0  0
 20 22  1  0  0  0  0
 22 89  1  0  0  0  0
 23 24  1  0  0  0  0
 23 90  1  0  0  0  0
 24 25  2  0  0  0  0
 24 26  1  0  0  0  0
 26 27  1  0  0  0  0
 26 44  1  0  0  0  0
 26 91  1  1  0  0  0
 27 28  1  0  0  0  0
 27 92  1  0  0  0  0
 28 29  2  0  0  0  0
 28 30  1  0  0  0  0
 30 31  1  0  0  0  0
 30 34  1  0  0  0  0
 30 93  1  6  0  0  0
 31 32  1  0  0  0  0
 31 94  1  0  0  0  0
 32 33  2  0  0  0  0
 34 35  1  0  0  0  0
 34 95  1  0  0  0  0
 34 96  1  0  0  0  0
 35 36  2  0  0  0  0
 35 39  1  0  0  0  0
 36 37  1  0  0  0  0
 36 97  1  0  0  0  0
 37 38  1  0  0  0  0
 37 98  1  0  0  0  0
 38 39  1  0  0  0  0
 38 43  2  0  0  0  0
 39 40  2  0  0  0  0
 40 41  1  0  0  0  0
 40 99  1  0  0  0  0
 41 42  2  0  0  0  0
 41100  1  0  0  0  0
 42 43  1  0  0  0  0
 42101  1  0  0  0  0
 43102  1  0  0  0  0
 44 45  1  0  0  0  0
 44103  1  0  0  0  0
 44104  1  0  0  0  0
 45 46  2  0  0  0  0
 45 50  1  0  0  0  0
 46 47  1  0  0  0  0
 46105  1  0  0  0  0
 47 48  2  0  0  0  0
 47106  1  0  0  0  0
 48 49  1  0  0  0  0
 48107  1  0  0  0  0
 49 50  2  0  0  0  0
 49108  1  0  0  0  0
 50109  1  0  0  0  0
 51 52  1  0  0  0  0
 51110  1  0  0  0  0
 51111  1  0  0  0  0
 52 53  2  0  0  0  0
 52 54  1  0  0  0  0
 54112  1  0  0  0  0
 55 54  1  0  0  0  0
 55 56  1  0  0  0  0
 55 60  1  0  0  0  0
 55113  1  1  0  0  0
 56 57  1  0  0  0  0
 56 65  1  0  0  0  0
 56114  1  6  0  0  0
 57 58  1  0  0  0  0
 57 64  1  0  0  0  0
 57115  1  1  0  0  0
 58 59  1  0  0  0  0
 58 63  1  0  0  0  0
 58116  1  6  0  0  0
 59 60  1  0  0  0  0
 59 61  1  0  0  0  0
 59117  1  1  0  0  0
 61 62  1  0  0  0  0
 61118  1  0  0  0  0
 61119  1  0  0  0  0
 62120  1  0  0  0  0
 63121  1  0  0  0  0
 64122  1  0  0  0  0
 65 66  1  0  0  0  0
 65123  1  0  0  0  0
 66 67  2  0  0  0  0
 66 68  1  0  0  0  0
 68124  1  0  0  0  0
 68125  1  0  0  0  0
 68126  1  0  0  0  0
M  END
>  <DRUGBANK_ID>
DB12538

>  <COMMON_NAME>
Nepadutant

>  <CAS_NUMBER>
183747-35-5

>  <UNII>
XW59TYL1XH

>  <SYNONYMS>
Nepadutant

$$$$
