
 OpenBabel10282417072D

120120  0  0  1  0  0  0  0  0999 V2000
    3.5724  -11.1375    0.0000 C   0  0  0  0  0  0  0  0  0  0  0  0
    4.2868  -11.5500    0.0000 C   0  0  0  0  0  0  0  0  0  0  0  0
    5.0013  -11.1375    0.0000 C   0  0  0  0  0  0  0  0  0  0  0  0
    5.7158  -11.5500    0.0000 C   0  0  0  0  0  0  0  0  0  0  0  0
    6.4302  -11.1375    0.0000 C   0  0  0  0  0  0  0  0  0  0  0  0
    7.1447  -11.5500    0.0000 C   0  0  0  0  0  0  0  0  0  0  0  0
    7.8592  -11.1375    0.0000 C   0  0  0  0  0  0  0  0  0  0  0  0
    8.5737  -11.5500    0.0000 C   0  0  0  0  0  0  0  0  0  0  0  0
    9.2881  -11.1375    0.0000 C   0  0  0  0  0  0  0  0  0  0  0  0
   10.0026  -11.5500    0.0000 C   0  0  0  0  0  0  0  0  0  0  0  0
   10.7171  -11.1375    0.0000 C   0  0  0  0  0  0  0  0  0  0  0  0
   11.4315  -11.5500    0.0000 C   0  0  0  0  0  0  0  0  0  0  0  0
   12.1460  -11.1375    0.0000 C   0  0  0  0  0  0  0  0  0  0  0  0
   12.8605  -11.5500    0.0000 C   0  0  0  0  0  0  0  0  0  0  0  0
   13.5749  -11.1375    0.0000 C   0  0  0  0  0  0  0  0  0  0  0  0
   14.2894  -11.5500    0.0000 C   0  0  0  0  0  0  0  0  0  0  0  0
   14.2894  -12.3750    0.0000 O   0  0  0  0  0  0  0  0  0  0  0  0
   15.0039  -11.1375    0.0000 O   0  0  0  0  0  0  0  0  0  0  0  0
   15.7184  -11.5500    0.0000 C   0  0  1  0  0  0  0  0  0  0  0  0
   15.7184  -12.3750    0.0000 C   0  0  0  0  0  0  0  0  0  0  0  0
   16.4328  -12.7875    0.0000 O   0  0  0  0  0  0  0  0  0  0  0  0
   16.4328  -13.6125    0.0000 C   0  0  2  0  0  0  0  0  0  0  0  0
   17.1473  -14.0250    0.0000 O   0  0  0  0  0  0  0  0  0  0  0  0
   17.1473  -14.8500    0.0000 C   0  0  1  0  0  0  0  0  0  0  0  0
   17.8618  -15.2625    0.0000 C   0  0  0  0  0  0  0  0  0  0  0  0
   17.8618  -16.0875    0.0000 O   0  0  0  0  0  0  0  0  0  0  0  0
   16.4328  -15.2625    0.0000 C   0  0  2  0  0  0  0  0  0  0  0  0
   16.4328  -16.0875    0.0000 O   0  0  0  0  0  0  0  0  0  0  0  0
   15.7184  -14.8500    0.0000 C   0  0  2  0  0  0  0  0  0  0  0  0
   15.0039  -15.2625    0.0000 O   0  0  0  0  0  0  0  0  0  0  0  0
   15.7184  -14.0250    0.0000 C   0  0  2  0  0  0  0  0  0  0  0  0
   15.0039  -13.6125    0.0000 O   0  0  0  0  0  0  0  0  0  0  0  0
   16.4328  -11.1375    0.0000 C   0  0  0  0  0  0  0  0  0  0  0  0
   17.1473  -11.5500    0.0000 O   0  0  0  0  0  0  0  0  0  0  0  0
   17.8618  -11.1375    0.0000 C   0  0  0  0  0  0  0  0  0  0  0  0
   17.8618  -10.3125    0.0000 O   0  0  0  0  0  0  0  0  0  0  0  0
   18.5762  -11.5500    0.0000 C   0  0  0  0  0  0  0  0  0  0  0  0
   19.2907  -11.1375    0.0000 C   0  0  0  0  0  0  0  0  0  0  0  0
   20.0052  -11.5500    0.0000 C   0  0  0  0  0  0  0  0  0  0  0  0
   20.7197  -11.1375    0.0000 C   0  0  0  0  0  0  0  0  0  0  0  0
   21.4341  -11.5500    0.0000 C   0  0  0  0  0  0  0  0  0  0  0  0
   22.1486  -11.1375    0.0000 C   0  0  0  0  0  0  0  0  0  0  0  0
   22.8631  -11.5500    0.0000 C   0  0  0  0  0  0  0  0  0  0  0  0
   23.5775  -11.1375    0.0000 C   0  0  0  0  0  0  0  0  0  0  0  0
   24.2920  -11.5500    0.0000 C   0  0  0  0  0  0  0  0  0  0  0  0
   25.0065  -11.1375    0.0000 C   0  0  0  0  0  0  0  0  0  0  0  0
   25.7210  -11.5500    0.0000 C   0  0  0  0  0  0  0  0  0  0  0  0
   26.4354  -11.1375    0.0000 C   0  0  0  0  0  0  0  0  0  0  0  0
    3.5724  -10.0675    0.0000 H   0  0  0  0  0  0  0  0  0  0  0  0
    2.6457  -11.6725    0.0000 H   0  0  0  0  0  0  0  0  0  0  0  0
    2.6458  -10.6025    0.0000 H   0  0  0  0  0  0  0  0  0  0  0  0
    4.2868  -12.6200    0.0000 H   0  0  0  0  0  0  0  0  0  0  0  0
    5.2134  -12.0850    0.0000 H   0  0  0  0  0  0  0  0  0  0  0  0
    5.0013  -10.0675    0.0000 H   0  0  0  0  0  0  0  0  0  0  0  0
    5.9279  -10.6025    0.0000 H   0  0  0  0  0  0  0  0  0  0  0  0
    5.7158  -12.6200    0.0000 H   0  0  0  0  0  0  0  0  0  0  0  0
    6.6425  -12.0850    0.0000 H   0  0  0  0  0  0  0  0  0  0  0  0
    6.4302  -10.0675    0.0000 H   0  0  0  0  0  0  0  0  0  0  0  0
    7.3568  -10.6025    0.0000 H   0  0  0  0  0  0  0  0  0  0  0  0
    7.1447  -12.6200    0.0000 H   0  0  0  0  0  0  0  0  0  0  0  0
    8.0713  -12.0850    0.0000 H   0  0  0  0  0  0  0  0  0  0  0  0
    7.8592  -10.0675    0.0000 H   0  0  0  0  0  0  0  0  0  0  0  0
    8.7858  -10.6025    0.0000 H   0  0  0  0  0  0  0  0  0  0  0  0
    8.5737  -12.6200    0.0000 H   0  0  0  0  0  0  0  0  0  0  0  0
    9.5004  -12.0850    0.0000 H   0  0  0  0  0  0  0  0  0  0  0  0
    9.2881  -10.0675    0.0000 H   0  0  0  0  0  0  0  0  0  0  0  0
   10.2147  -10.6025    0.0000 H   0  0  0  0  0  0  0  0  0  0  0  0
   10.0026  -12.6200    0.0000 H   0  0  0  0  0  0  0  0  0  0  0  0
   10.9292  -12.0850    0.0000 H   0  0  0  0  0  0  0  0  0  0  0  0
   10.7171  -10.0675    0.0000 H   0  0  0  0  0  0  0  0  0  0  0  0
   11.6438  -10.6025    0.0000 H   0  0  0  0  0  0  0  0  0  0  0  0
   11.4315  -12.6200    0.0000 H   0  0  0  0  0  0  0  0  0  0  0  0
   12.3581  -12.0850    0.0000 H   0  0  0  0  0  0  0  0  0  0  0  0
   12.1460  -10.0675    0.0000 H   0  0  0  0  0  0  0  0  0  0  0  0
   13.0726  -10.6025    0.0000 H   0  0  0  0  0  0  0  0  0  0  0  0
   12.8605  -12.6200    0.0000 H   0  0  0  0  0  0  0  0  0  0  0  0
   13.7872  -12.0850    0.0000 H   0  0  0  0  0  0  0  0  0  0  0  0
   13.5749  -10.0675    0.0000 H   0  0  0  0  0  0  0  0  0  0  0  0
   14.5015  -10.6025    0.0000 H   0  0  0  0  0  0  0  0  0  0  0  0
   14.7918  -12.0850    0.0000 H   0  0  0  0  0  0  0  0  0  0  0  0
   14.7917  -12.9100    0.0000 H   0  0  0  0  0  0  0  0  0  0  0  0
   15.7184  -13.4450    0.0000 H   0  0  0  0  0  0  0  0  0  0  0  0
   17.3594  -13.0775    0.0000 H   0  0  0  0  0  0  0  0  0  0  0  0
   18.0739  -14.3150    0.0000 H   0  0  0  0  0  0  0  0  0  0  0  0
   18.7884  -14.7275    0.0000 H   0  0  0  0  0  0  0  0  0  0  0  0
   18.7884  -15.7975    0.0000 H   0  0  0  0  0  0  0  0  0  0  0  0
   17.0218  -16.5725    0.0000 H   0  0  0  0  0  0  0  0  0  0  0  0
   17.3594  -15.7975    0.0000 H   0  0  0  0  0  0  0  0  0  0  0  0
   15.5928  -16.5725    0.0000 H   0  0  0  0  0  0  0  0  0  0  0  0
   15.7184  -15.9200    0.0000 H   0  0  0  0  0  0  0  0  0  0  0  0
   14.1639  -14.7775    0.0000 H   0  0  0  0  0  0  0  0  0  0  0  0
   14.7918  -14.5600    0.0000 H   0  0  0  0  0  0  0  0  0  0  0  0
   15.0039  -12.6425    0.0000 H   0  0  0  0  0  0  0  0  0  0  0  0
   16.4328  -10.0675    0.0000 H   0  0  0  0  0  0  0  0  0  0  0  0
   17.3594  -10.6025    0.0000 H   0  0  0  0  0  0  0  0  0  0  0  0
   18.5762  -12.6200    0.0000 H   0  0  0  0  0  0  0  0  0  0  0  0
   19.5028  -12.0850    0.0000 H   0  0  0  0  0  0  0  0  0  0  0  0
   19.2907  -10.0675    0.0000 H   0  0  0  0  0  0  0  0  0  0  0  0
   20.2173  -10.6025    0.0000 H   0  0  0  0  0  0  0  0  0  0  0  0
   20.0052  -12.6200    0.0000 H   0  0  0  0  0  0  0  0  0  0  0  0
   20.9318  -12.0850    0.0000 H   0  0  0  0  0  0  0  0  0  0  0  0
   20.7197  -10.0675    0.0000 H   0  0  0  0  0  0  0  0  0  0  0  0
   21.6464  -10.6025    0.0000 H   0  0  0  0  0  0  0  0  0  0  0  0
   21.4341  -12.6200    0.0000 H   0  0  0  0  0  0  0  0  0  0  0  0
   22.3607  -12.0850    0.0000 H   0  0  0  0  0  0  0  0  0  0  0  0
   22.1486  -10.0675    0.0000 H   0  0  0  0  0  0  0  0  0  0  0  0
   23.0752  -10.6025    0.0000 H   0  0  0  0  0  0  0  0  0  0  0  0
   22.8631  -12.6200    0.0000 H   0  0  0  0  0  0  0  0  0  0  0  0
   23.7898  -12.0850    0.0000 H   0  0  0  0  0  0  0  0  0  0  0  0
   23.5775  -10.0675    0.0000 H   0  0  0  0  0  0  0  0  0  0  0  0
   24.5041  -10.6025    0.0000 H   0  0  0  0  0  0  0  0  0  0  0  0
   24.2920  -12.6200    0.0000 H   0  0  0  0  0  0  0  0  0  0  0  0
   25.2186  -12.0850    0.0000 H   0  0  0  0  0  0  0  0  0  0  0  0
   25.0065  -10.0675    0.0000 H   0  0  0  0  0  0  0  0  0  0  0  0
   25.9331  -10.6025    0.0000 H   0  0  0  0  0  0  0  0  0  0  0  0
   25.7210  -12.6200    0.0000 H   0  0  0  0  0  0  0  0  0  0  0  0
   26.6477  -12.0850    0.0000 H   0  0  0  0  0  0  0  0  0  0  0  0
   27.3621  -11.6725    0.0000 H   0  0  0  0  0  0  0  0  0  0  0  0
   26.4354  -10.0675    0.0000 H   0  0  0  0  0  0  0  0  0  0  0  0
   27.3620  -10.6025    0.0000 H   0  0  0  0  0  0  0  0  0  0  0  0
  1  2  1  0  0  0  0
  1 49  1  0  0  0  0
  1 50  1  0  0  0  0
  1 51  1  0  0  0  0
  2  3  1  0  0  0  0
  2 52  1  0  0  0  0
  2 53  1  0  0  0  0
  3  4  1  0  0  0  0
  3 54  1  0  0  0  0
  3 55  1  0  0  0  0
  4  5  1  0  0  0  0
  4 56  1  0  0  0  0
  4 57  1  0  0  0  0
  5  6  1  0  0  0  0
  5 58  1  0  0  0  0
  5 59  1  0  0  0  0
  6  7  1  0  0  0  0
  6 60  1  0  0  0  0
  6 61  1  0  0  0  0
  7  8  1  0  0  0  0
  7 62  1  0  0  0  0
  7 63  1  0  0  0  0
  8  9  1  0  0  0  0
  8 64  1  0  0  0  0
  8 65  1  0  0  0  0
  9 10  1  0  0  0  0
  9 66  1  0  0  0  0
  9 67  1  0  0  0  0
 10 11  1  0  0  0  0
 10 68  1  0  0  0  0
 10 69  1  0  0  0  0
 11 12  1  0  0  0  0
 11 70  1  0  0  0  0
 11 71  1  0  0  0  0
 12 13  1  0  0  0  0
 12 72  1  0  0  0  0
 12 73  1  0  0  0  0
 13 14  1  0  0  0  0
 13 74  1  0  0  0  0
 13 75  1  0  0  0  0
 14 15  1  0  0  0  0
 14 76  1  0  0  0  0
 14 77  1  0  0  0  0
 15 16  1  0  0  0  0
 15 78  1  0  0  0  0
 15 79  1  0  0  0  0
 16 17  2  0  0  0  0
 16 18  1  0  0  0  0
 19 18  1  0  0  0  0
 19 20  1  0  0  0  0
 19 33  1  0  0  0  0
 19 80  1  1  0  0  0
 20 21  1  0  0  0  0
 20 81  1  0  0  0  0
 20 82  1  0  0  0  0
 22 21  1  0  0  0  0
 22 23  1  0  0  0  0
 22 31  1  0  0  0  0
 22 83  1  1  0  0  0
 23 24  1  0  0  0  0
 24 25  1  0  0  0  0
 24 27  1  0  0  0  0
 24 84  1  6  0  0  0
 25 26  1  0  0  0  0
 25 85  1  0  0  0  0
 25 86  1  0  0  0  0
 26 87  1  0  0  0  0
 27 28  1  0  0  0  0
 27 29  1  0  0  0  0
 27 88  1  1  0  0  0
 28 89  1  0  0  0  0
 29 30  1  0  0  0  0
 29 31  1  0  0  0  0
 29 90  1  1  0  0  0
 30 91  1  0  0  0  0
 31 32  1  0  0  0  0
 31 92  1  1  0  0  0
 32 93  1  0  0  0  0
 33 34  1  0  0  0  0
 33 94  1  0  0  0  0
 33 95  1  0  0  0  0
 34 35  1  0  0  0  0
 35 36  2  0  0  0  0
 35 37  1  0  0  0  0
 37 38  1  0  0  0  0
 37 96  1  0  0  0  0
 37 97  1  0  0  0  0
 38 39  1  0  0  0  0
 38 98  1  0  0  0  0
 38 99  1  0  0  0  0
 39 40  1  0  0  0  0
 39100  1  0  0  0  0
 39101  1  0  0  0  0
 40 41  1  0  0  0  0
 40102  1  0  0  0  0
 40103  1  0  0  0  0
 41 42  1  0  0  0  0
 41104  1  0  0  0  0
 41105  1  0  0  0  0
 42 43  1  0  0  0  0
 42106  1  0  0  0  0
 42107  1  0  0  0  0
 43 44  1  0  0  0  0
 43108  1  0  0  0  0
 43109  1  0  0  0  0
 44 45  1  0  0  0  0
 44110  1  0  0  0  0
 44111  1  0  0  0  0
 45 46  1  0  0  0  0
 45112  1  0  0  0  0
 45113  1  0  0  0  0
 46 47  1  0  0  0  0
 46114  1  0  0  0  0
 46115  1  0  0  0  0
 47 48  1  0  0  0  0
 47116  1  0  0  0  0
 47117  1  0  0  0  0
 48118  1  0  0  0  0
 48119  1  0  0  0  0
 48120  1  0  0  0  0
M  END
>  <DRUGBANK_ID>
DB04735

>  <COMMON_NAME>
MONOGALACTOSYL-DIACYLGLYCEROL

$$$$
