
 OpenBabel10282417072D

 43 44  0  0  1  0  0  0  0  0999 V2000
   26.1507  -15.5430    0.0000 O   0  0  0  0  0  0  0  0  0  0  0  0
   27.1671  -13.1785    0.0000 O   0  0  0  0  0  0  0  0  0  0  0  0
   27.5796  -16.3680    0.0000 O   0  0  0  0  0  0  0  0  0  0  0  0
   29.0086  -15.5430    0.0000 O   0  0  0  0  0  0  0  0  0  0  0  0
   28.8171  -13.1785    0.0000 O   0  0  0  0  0  0  0  0  0  0  0  0
   21.1492  -15.1305    0.0000 O   0  0  0  0  0  0  0  0  0  0  0  0
   21.1492  -16.7805    0.0000 O   0  0  0  0  0  0  0  0  0  0  0  0
   27.5796  -12.4640    0.0000 O   0  0  0  0  0  0  0  0  0  0  0  0
   25.4362  -14.3054    0.0000 O   0  0  0  0  0  0  0  0  0  0  0  0
   27.5796  -13.8929    0.0000 C   0  0  2  0  0  0  0  0  0  0  0  0
   27.5796  -15.5430    0.0000 C   0  0  1  0  0  0  0  0  0  0  0  0
   26.8651  -15.1305    0.0000 C   0  0  1  0  0  0  0  0  0  0  0  0
   28.2941  -15.1305    0.0000 C   0  0  1  0  0  0  0  0  0  0  0  0
   26.8651  -14.3054    0.0000 C   0  0  0  0  0  0  0  0  0  0  0  0
   28.2941  -14.3054    0.0000 C   0  0  0  0  0  0  0  0  0  0  0  0
   27.9921  -13.1785    0.0000 C   0  0  0  0  0  0  0  0  0  0  0  0
   25.4362  -15.1305    0.0000 C   0  0  0  0  0  0  0  0  0  0  0  0
   24.7216  -15.5430    0.0000 C   0  0  0  0  0  0  0  0  0  0  0  0
   24.0072  -15.1305    0.0000 C   0  0  0  0  0  0  0  0  0  0  0  0
   21.8637  -15.5430    0.0000 C   0  0  0  0  0  0  0  0  0  0  0  0
   21.8637  -16.3680    0.0000 C   0  0  0  0  0  0  0  0  0  0  0  0
   23.2927  -15.5430    0.0000 C   0  0  0  0  0  0  0  0  0  0  0  0
   22.5783  -15.1305    0.0000 C   0  0  0  0  0  0  0  0  0  0  0  0
   22.5783  -16.7805    0.0000 C   0  0  0  0  0  0  0  0  0  0  0  0
   23.2927  -16.3680    0.0000 C   0  0  0  0  0  0  0  0  0  0  0  0
   27.6521  -12.3384    0.0000 H   0  0  0  0  0  0  0  0  0  0  0  0
   26.7396  -16.8530    0.0000 H   0  0  0  0  0  0  0  0  0  0  0  0
   29.0086  -16.5130    0.0000 H   0  0  0  0  0  0  0  0  0  0  0  0
   29.2856  -13.9900    0.0000 H   0  0  0  0  0  0  0  0  0  0  0  0
   21.1492  -14.1935    0.0000 H   0  0  0  0  0  0  0  0  0  0  0  0
   20.3377  -16.3120    0.0000 H   0  0  0  0  0  0  0  0  0  0  0  0
   26.6530  -16.0780    0.0000 H   0  0  0  0  0  0  0  0  0  0  0  0
   26.8651  -16.2005    0.0000 H   0  0  0  0  0  0  0  0  0  0  0  0
   28.2941  -16.2005    0.0000 H   0  0  0  0  0  0  0  0  0  0  0  0
   25.9385  -13.7704    0.0000 H   0  0  0  0  0  0  0  0  0  0  0  0
   25.9385  -14.8404    0.0000 H   0  0  0  0  0  0  0  0  0  0  0  0
   29.2207  -13.7704    0.0000 H   0  0  0  0  0  0  0  0  0  0  0  0
   29.2207  -14.8404    0.0000 H   0  0  0  0  0  0  0  0  0  0  0  0
   24.7215  -16.5750    0.0000 H   0  0  0  0  0  0  0  0  0  0  0  0
   24.0072  -14.0985    0.0000 H   0  0  0  0  0  0  0  0  0  0  0  0
   22.5784  -14.0985    0.0000 H   0  0  0  0  0  0  0  0  0  0  0  0
   22.5784  -17.8125    0.0000 H   0  0  0  0  0  0  0  0  0  0  0  0
   24.1864  -16.8840    0.0000 H   0  0  0  0  0  0  0  0  0  0  0  0
  1 17  1  0  0  0  0
  2 26  1  0  0  0  0
  3 27  1  0  0  0  0
  4 28  1  0  0  0  0
  5 16  1  0  0  0  0
  5 29  1  0  0  0  0
  6 20  1  0  0  0  0
  6 30  1  0  0  0  0
  7 21  1  0  0  0  0
  7 31  1  0  0  0  0
  8 16  2  0  0  0  0
  9 17  2  0  0  0  0
 10  2  1  1  0  0  0
 10 14  1  0  0  0  0
 10 15  1  0  0  0  0
 10 16  1  0  0  0  0
 11  3  1  0  0  0  0
 11 12  1  0  0  0  0
 11 13  1  0  0  0  0
 11 32  1  6  0  0  0
 12  1  1  0  0  0  0
 12 14  1  0  0  0  0
 12 33  1  1  0  0  0
 13  4  1  0  0  0  0
 13 15  1  0  0  0  0
 13 34  1  6  0  0  0
 14 35  1  0  0  0  0
 14 36  1  0  0  0  0
 15 37  1  0  0  0  0
 15 38  1  0  0  0  0
 17 18  1  0  0  0  0
 18 19  2  0  0  0  0
 18 39  1  0  0  0  0
 19 22  1  0  0  0  0
 19 40  1  0  0  0  0
 20 21  2  0  0  0  0
 20 23  1  0  0  0  0
 21 24  1  0  0  0  0
 22 23  2  0  0  0  0
 22 25  1  0  0  0  0
 23 41  1  0  0  0  0
 24 25  2  0  0  0  0
 24 42  1  0  0  0  0
 25 43  1  0  0  0  0
M  END
>  <DRUGBANK_ID>
DB12029

>  <COMMON_NAME>
Chlorogenic Acid

>  <CAS_NUMBER>
202650-88-2

>  <UNII>
318ADP12RI

$$$$
