JN5
 OpenBabel10282417072D

 43 46  0  0  0  0  0  0  0  0999 V2000
   -3.0567   -1.9425    0.0000 C   0  0  0  0  0  0  0  0  0  0  0  0
   -3.4692   -2.6570    0.0000 C   0  0  0  0  0  0  0  0  0  0  0  0
   -4.2942   -2.6570    0.0000 C   0  0  0  0  0  0  0  0  0  0  0  0
   -4.7067   -1.9425    0.0000 N   0  0  0  0  0  0  0  0  0  0  0  0
   -4.2942   -1.2280    0.0000 C   0  0  0  0  0  0  0  0  0  0  0  0
   -3.4692   -1.2280    0.0000 C   0  0  0  0  0  0  0  0  0  0  0  0
   -3.0567   -0.5135    0.0000 C   0  0  0  0  0  0  0  0  0  0  0  0
   -2.2317   -0.5135    0.0000 C   0  0  0  0  0  0  0  0  0  0  0  0
   -1.8192    0.2009    0.0000 N   0  0  0  0  0  0  0  0  0  0  0  0
   -0.9942    0.2009    0.0000 C   0  0  0  0  0  0  0  0  0  0  0  0
   -0.5817    0.9154    0.0000 N   0  0  0  0  0  0  0  0  0  0  0  0
   -0.5817   -0.5135    0.0000 N   0  0  0  0  0  0  0  0  0  0  0  0
    0.2433   -0.5135    0.0000 C   0  0  0  0  0  0  0  0  0  0  0  0
    0.6558    0.2009    0.0000 C   0  0  0  0  0  0  0  0  0  0  0  0
    0.2433    0.9154    0.0000 C   0  0  0  0  0  0  0  0  0  0  0  0
    0.6558    1.6299    0.0000 C   0  0  1  0  0  0  0  0  0  0  0  0
    0.2433    2.3443    0.0000 C   0  0  0  0  0  0  0  0  0  0  0  0
   -0.1692    3.0588    0.0000 N   0  0  0  0  0  0  0  0  0  0  0  0
    1.4808    1.6299    0.0000 C   0  0  0  0  0  0  0  0  0  0  0  0
    1.9657    2.2973    0.0000 N   0  0  0  0  0  0  0  0  0  0  0  0
    2.7503    2.0424    0.0000 C   0  0  0  0  0  0  0  0  0  0  0  0
    3.4648    2.4549    0.0000 C   0  0  0  0  0  0  0  0  0  0  0  0
    4.1793    2.0424    0.0000 C   0  0  0  0  0  0  0  0  0  0  0  0
    4.1793    1.2174    0.0000 C   0  0  0  0  0  0  0  0  0  0  0  0
    3.4648    0.8049    0.0000 C   0  0  0  0  0  0  0  0  0  0  0  0
    2.7503    1.2174    0.0000 C   0  0  0  0  0  0  0  0  0  0  0  0
    1.9657    0.9624    0.0000 S   0  0  0  0  0  0  0  0  0  0  0  0
    0.9477    1.1242    0.0000 H   0  0  0  0  0  0  0  0  0  0  0  0
   -2.0247   -1.9425    0.0000 H   0  0  0  0  0  0  0  0  0  0  0  0
   -2.9532   -3.5507    0.0000 H   0  0  0  0  0  0  0  0  0  0  0  0
   -4.8102   -3.5507    0.0000 H   0  0  0  0  0  0  0  0  0  0  0  0
   -4.8102   -0.3343    0.0000 H   0  0  0  0  0  0  0  0  0  0  0  0
   -3.5917    0.4131    0.0000 H   0  0  0  0  0  0  0  0  0  0  0  0
   -2.5217    0.4131    0.0000 H   0  0  0  0  0  0  0  0  0  0  0  0
   -1.6967   -1.4402    0.0000 H   0  0  0  0  0  0  0  0  0  0  0  0
   -1.1617   -0.5135    0.0000 H   0  0  0  0  0  0  0  0  0  0  0  0
   -2.3114    1.0535    0.0000 H   0  0  0  0  0  0  0  0  0  0  0  0
    0.7593   -1.4072    0.0000 H   0  0  0  0  0  0  0  0  0  0  0  0
    1.6878    0.2009    0.0000 H   0  0  0  0  0  0  0  0  0  0  0  0
    3.4648    3.4869    0.0000 H   0  0  0  0  0  0  0  0  0  0  0  0
    5.0730    2.5584    0.0000 H   0  0  0  0  0  0  0  0  0  0  0  0
    5.0730    0.7014    0.0000 H   0  0  0  0  0  0  0  0  0  0  0  0
    3.4648   -0.2271    0.0000 H   0  0  0  0  0  0  0  0  0  0  0  0
  1  2  1  0  0  0  0
  1 29  1  0  0  0  0
  2 30  1  0  0  0  0
  3  2  2  0  0  0  0
  3 31  1  0  0  0  0
  4  3  1  0  0  0  0
  5  4  2  0  0  0  0
  5  6  1  0  0  0  0
  5 32  1  0  0  0  0
  6  1  2  0  0  0  0
  7  6  1  0  0  0  0
  7  8  1  0  0  0  0
  7 33  1  0  0  0  0
  7 34  1  0  0  0  0
  8 35  1  0  0  0  0
  8 36  1  0  0  0  0
  9  8  1  0  0  0  0
  9 10  1  0  0  0  0
  9 37  1  0  0  0  0
 10 11  1  0  0  0  0
 11 15  2  0  0  0  0
 12 10  2  0  0  0  0
 12 13  1  0  0  0  0
 13 14  2  0  0  0  0
 13 38  1  0  0  0  0
 14 15  1  0  0  0  0
 14 39  1  0  0  0  0
 15 16  1  0  0  0  0
 16 19  1  0  0  0  0
 16 17  1  0  0  0  0
 16 28  1  6  0  0  0
 17 18  3  0  0  0  0
 19 20  2  0  0  0  0
 20 21  1  0  0  0  0
 21 22  1  0  0  0  0
 22 23  2  0  0  0  0
 22 40  1  0  0  0  0
 23 41  1  0  0  0  0
 24 23  1  0  0  0  0
 24 42  1  0  0  0  0
 25 24  2  0  0  0  0
 25 43  1  0  0  0  0
 26 21  2  0  0  0  0
 26 25  1  0  0  0  0
 27 19  1  0  0  0  0
 27 26  1  0  0  0  0
M  END
>  <DRUGBANK_ID>
DB08022

>  <COMMON_NAME>
(2S)-1,3-benzothiazol-2-yl{2-[(2-pyridin-3-ylethyl)amino]pyrimidin-4-yl}ethanenitrile

$$$$
