
 OpenBabel10282417072D

 35 36  0  0  0  0  0  0  0  0999 V2000
   -2.4919    4.2231    0.0000 N   0  0  0  0  0  0  0  0  0  0  0  0
   -1.7072    3.9682    0.0000 C   0  0  0  0  0  0  0  0  0  0  0  0
   -1.0942    4.5202    0.0000 N   0  0  0  0  0  0  0  0  0  0  0  0
   -0.3095    4.2652    0.0000 C   0  0  0  0  0  0  0  0  0  0  0  0
   -0.1380    3.4583    0.0000 C   0  0  0  0  0  0  0  0  0  0  0  0
    0.6825    3.3720    0.0000 N   0  0  0  0  0  0  0  0  0  0  0  0
    1.0950    2.6576    0.0000 C   0  0  0  0  0  0  0  0  0  0  0  0
    1.9200    2.6576    0.0000 C   0  0  0  0  0  0  0  0  0  0  0  0
    2.3325    1.9431    0.0000 N   0  0  0  0  0  0  0  0  0  0  0  0
    3.1575    1.9431    0.0000 C   0  0  0  0  0  0  0  0  0  0  0  0
    3.5700    1.2286    0.0000 C   0  0  0  0  0  0  0  0  0  0  0  0
    4.3950    1.2286    0.0000 O   0  0  0  0  0  0  0  0  0  0  0  0
    3.5700    2.6576    0.0000 C   0  0  0  0  0  0  0  0  0  0  0  0
    4.3950    2.6576    0.0000 O   0  0  0  0  0  0  0  0  0  0  0  0
    1.0180    4.1257    0.0000 C   0  0  0  0  0  0  0  0  0  0  0  0
    0.4049    4.6777    0.0000 N   0  0  0  0  0  0  0  0  0  0  0  0
   -0.7511    2.9062    0.0000 C   0  0  0  0  0  0  0  0  0  0  0  0
   -0.5796    2.0993    0.0000 O   0  0  0  0  0  0  0  0  0  0  0  0
   -1.5357    3.1612    0.0000 N   0  0  0  0  0  0  0  0  0  0  0  0
   -2.6967    5.1861    0.0000 H   0  0  0  0  0  0  0  0  0  0  0  0
   -3.2235    3.5643    0.0000 H   0  0  0  0  0  0  0  0  0  0  0  0
    0.5600    1.7309    0.0000 H   0  0  0  0  0  0  0  0  0  0  0  0
    1.6300    1.7310    0.0000 H   0  0  0  0  0  0  0  0  0  0  0  0
    2.4550    3.5842    0.0000 H   0  0  0  0  0  0  0  0  0  0  0  0
    2.9900    2.6576    0.0000 H   0  0  0  0  0  0  0  0  0  0  0  0
    1.8225    1.0598    0.0000 H   0  0  0  0  0  0  0  0  0  0  0  0
    4.2275    1.9431    0.0000 H   0  0  0  0  0  0  0  0  0  0  0  0
    3.0350    0.3020    0.0000 H   0  0  0  0  0  0  0  0  0  0  0  0
    4.1050    0.3020    0.0000 H   0  0  0  0  0  0  0  0  0  0  0  0
    4.8800    0.3886    0.0000 H   0  0  0  0  0  0  0  0  0  0  0  0
    3.0350    3.5842    0.0000 H   0  0  0  0  0  0  0  0  0  0  0  0
    4.1050    3.5842    0.0000 H   0  0  0  0  0  0  0  0  0  0  0  0
    4.8800    1.8176    0.0000 H   0  0  0  0  0  0  0  0  0  0  0  0
    2.0274    4.3403    0.0000 H   0  0  0  0  0  0  0  0  0  0  0  0
   -2.2674    2.5025    0.0000 H   0  0  0  0  0  0  0  0  0  0  0  0
  1  2  1  0  0  0  0
  1 20  1  0  0  0  0
  1 21  1  0  0  0  0
  2  3  2  0  0  0  0
  2 19  1  0  0  0  0
  3  4  1  0  0  0  0
  4  5  2  0  0  0  0
  4 16  1  0  0  0  0
  5  6  1  0  0  0  0
  5 17  1  0  0  0  0
  6  7  1  0  0  0  0
  6 15  1  0  0  0  0
  7  8  1  0  0  0  0
  7 22  1  0  0  0  0
  7 23  1  0  0  0  0
  8  9  1  0  0  0  0
  8 24  1  0  0  0  0
  8 25  1  0  0  0  0
  9 10  1  0  0  0  0
  9 26  1  0  0  0  0
 10 11  1  0  0  0  0
 10 13  1  0  0  0  0
 10 27  1  0  0  0  0
 11 12  1  0  0  0  0
 11 28  1  0  0  0  0
 11 29  1  0  0  0  0
 12 30  1  0  0  0  0
 13 14  1  0  0  0  0
 13 31  1  0  0  0  0
 13 32  1  0  0  0  0
 14 33  1  0  0  0  0
 15 16  2  0  0  0  0
 15 34  1  0  0  0  0
 17 18  2  0  0  0  0
 17 19  1  0  0  0  0
 19 35  1  0  0  0  0
M  END
>  <DRUGBANK_ID>
DB02391

>  <SECONDARY_ACCESSION_NUMBERS>
EXPT01667

>  <COMMON_NAME>
2-Amino-7-[2-(2-Hydroxy-1-Hydroxymethyl-Ethylamino)-Ethyl]-1,7-Dihydro-Purin-6-One

$$$$
