1587
 OpenBabel10282417072D

 43 46  0  0  1  0  0  0  0  0999 V2000
    1.6499   -0.7440    0.0000 Cl  0  0  0  0  0  0  0  0  0  0  0  0
    4.3623   -1.0472    0.0000 O   0  0  0  0  0  0  0  0  0  0  0  0
    6.6394    0.0601    0.0000 O   0  0  0  0  0  0  0  0  0  0  0  0
    5.2101    2.3592    0.0000 O   0  0  0  0  0  0  0  0  0  0  0  0
    5.1830    0.1666    0.0000 N   0  0  0  0  0  0  0  0  0  0  0  0
    4.0272    1.6159    0.0000 N   0  0  0  0  0  0  0  0  0  0  0  0
    4.4397   -0.1914    0.0000 C   0  0  3  0  0  0  0  0  0  0  0  0
    3.6964    0.1666    0.0000 C   0  0  0  0  0  0  0  0  0  0  0  0
    3.9750   -0.8730    0.0000 C   0  0  0  0  0  0  0  0  0  0  0  0
    5.3665    0.9709    0.0000 C   0  0  0  0  0  0  0  0  0  0  0  0
    3.5129    0.9709    0.0000 C   0  0  0  0  0  0  0  0  0  0  0  0
    5.9004   -0.3065    0.0000 C   0  0  0  0  0  0  0  0  0  0  0  0
    4.8521    1.6159    0.0000 C   0  0  0  0  0  0  0  0  0  0  0  0
    3.0756   -0.4276    0.0000 C   0  0  0  0  0  0  0  0  0  0  0  0
    5.0685   -1.5367    0.0000 C   0  0  0  0  0  0  0  0  0  0  0  0
    5.8428   -1.1639    0.0000 C   0  0  0  0  0  0  0  0  0  0  0  0
    2.6957    1.2368    0.0000 C   0  0  0  0  0  0  0  0  0  0  0  0
    4.3329   -1.6163    0.0000 C   0  0  0  0  0  0  0  0  0  0  0  0
    3.1523   -0.8114    0.0000 C   0  0  0  0  0  0  0  0  0  0  0  0
    3.6693    2.3592    0.0000 C   0  0  0  0  0  0  0  0  0  0  0  0
    2.2525   -0.1806    0.0000 C   0  0  0  0  0  0  0  0  0  0  0  0
    2.0613    0.6572    0.0000 C   0  0  0  0  0  0  0  0  0  0  0  0
    5.0037   -2.3592    0.0000 C   0  0  0  0  0  0  0  0  0  0  0  0
    3.8682   -2.2979    0.0000 C   0  0  0  0  0  0  0  0  0  0  0  0
    2.6875   -1.4929    0.0000 C   0  0  0  0  0  0  0  0  0  0  0  0
    3.0455   -2.2362    0.0000 C   0  0  0  0  0  0  0  0  0  0  0  0
    6.4097    1.2091    0.0000 H   0  0  0  0  0  0  0  0  0  0  0  0
    5.7199    1.9809    0.0000 H   0  0  0  0  0  0  0  0  0  0  0  0
    3.3169   -1.4310    0.0000 H   0  0  0  0  0  0  0  0  0  0  0  0
    6.6977   -1.7420    0.0000 H   0  0  0  0  0  0  0  0  0  0  0  0
    2.4777    2.2455    0.0000 H   0  0  0  0  0  0  0  0  0  0  0  0
    5.3620   -1.6934    0.0000 H   0  0  0  0  0  0  0  0  0  0  0  0
    2.7046    0.1184    0.0000 H   0  0  0  0  0  0  0  0  0  0  0  0
    4.2721    3.2432    0.0000 H   0  0  0  0  0  0  0  0  0  0  0  0
    2.6023    2.4392    0.0000 H   0  0  0  0  0  0  0  0  0  0  0  0
    3.2051    3.3233    0.0000 H   0  0  0  0  0  0  0  0  0  0  0  0
    1.0763    0.9652    0.0000 H   0  0  0  0  0  0  0  0  0  0  0  0
    4.0379   -2.8198    0.0000 H   0  0  0  0  0  0  0  0  0  0  0  0
    5.8855   -2.9653    0.0000 H   0  0  0  0  0  0  0  0  0  0  0  0
    4.9197   -3.4259    0.0000 H   0  0  0  0  0  0  0  0  0  0  0  0
    4.3159   -3.2277    0.0000 H   0  0  0  0  0  0  0  0  0  0  0  0
    1.6584   -1.4157    0.0000 H   0  0  0  0  0  0  0  0  0  0  0  0
    2.4642   -3.0889    0.0000 H   0  0  0  0  0  0  0  0  0  0  0  0
  1 21  1  0  0  0  0
  2  7  1  0  0  0  0
  2 15  1  0  0  0  0
  3 12  2  0  0  0  0
  4 13  2  0  0  0  0
  5  7  1  0  0  0  0
  5 10  1  0  0  0  0
  5 12  1  0  0  0  0
  6 11  1  0  0  0  0
  6 13  1  0  0  0  0
  6 20  1  0  0  0  0
  7  8  1  0  0  0  0
  7  9  1  0  0  0  0
  8 11  2  0  0  0  0
  8 14  1  0  0  0  0
  9 18  2  0  0  0  0
  9 19  1  0  0  0  0
 10 13  1  0  0  0  0
 10 27  1  0  0  0  0
 10 28  1  0  0  0  0
 11 17  1  0  0  0  0
 12 16  1  0  0  0  0
 14 21  2  0  0  0  0
 14 29  1  0  0  0  0
 15 16  2  0  0  0  0
 15 23  1  0  0  0  0
 16 30  1  0  0  0  0
 17 22  2  0  0  0  0
 17 31  1  0  0  0  0
 18 24  1  0  0  0  0
 18 32  1  0  0  0  0
 19 25  2  0  0  0  0
 19 33  1  0  0  0  0
 20 34  1  0  0  0  0
 20 35  1  0  0  0  0
 20 36  1  0  0  0  0
 21 22  1  0  0  0  0
 22 37  1  0  0  0  0
 23 38  1  0  0  0  0
 23 39  1  0  0  0  0
 23 40  1  0  0  0  0
 24 26  2  0  0  0  0
 24 41  1  0  0  0  0
 25 26  1  0  0  0  0
 25 42  1  0  0  0  0
 26 43  1  0  0  0  0
M  END
>  <DRUGBANK_ID>
DB01587

>  <COMMON_NAME>
Ketazolam

>  <CAS_NUMBER>
27223-35-4

>  <UNII>
92A214MD7Y

>  <SYNONYMS>
Ketazolam; Ketazolamum

$$$$
