Bergapten
 OpenBabel10282417072D

 24 26  0  0  0  0  0  0  0  0999 V2000
    2.6378    0.1271    0.0000 C   0  0  0  0  0  0  0  0  0  0  0  0
    3.3523   -0.2854    0.0000 O   0  0  0  0  0  0  0  0  0  0  0  0
    3.3523   -1.1104    0.0000 C   0  0  0  0  0  0  0  0  0  0  0  0
    4.0668   -1.5229    0.0000 C   0  0  0  0  0  0  0  0  0  0  0  0
    4.7812   -1.1104    0.0000 C   0  0  0  0  0  0  0  0  0  0  0  0
    5.4957   -1.5229    0.0000 C   0  0  0  0  0  0  0  0  0  0  0  0
    5.4957   -2.3479    0.0000 C   0  0  0  0  0  0  0  0  0  0  0  0
    6.2102   -2.7604    0.0000 O   0  0  0  0  0  0  0  0  0  0  0  0
    4.7812   -2.7604    0.0000 O   0  0  0  0  0  0  0  0  0  0  0  0
    4.0668   -2.3479    0.0000 C   0  0  0  0  0  0  0  0  0  0  0  0
    3.3523   -2.7604    0.0000 C   0  0  0  0  0  0  0  0  0  0  0  0
    2.6378   -2.3479    0.0000 C   0  0  0  0  0  0  0  0  0  0  0  0
    2.6378   -1.5229    0.0000 C   0  0  0  0  0  0  0  0  0  0  0  0
    1.8532   -1.2680    0.0000 C   0  0  0  0  0  0  0  0  0  0  0  0
    1.3683   -1.9354    0.0000 C   0  0  0  0  0  0  0  0  0  0  0  0
    1.8532   -2.6029    0.0000 O   0  0  0  0  0  0  0  0  0  0  0  0
    2.6378    1.1971    0.0000 H   0  0  0  0  0  0  0  0  0  0  0  0
    1.7112   -0.4079    0.0000 H   0  0  0  0  0  0  0  0  0  0  0  0
    1.7111    0.6621    0.0000 H   0  0  0  0  0  0  0  0  0  0  0  0
    4.7812   -0.0784    0.0000 H   0  0  0  0  0  0  0  0  0  0  0  0
    6.3894   -1.0069    0.0000 H   0  0  0  0  0  0  0  0  0  0  0  0
    3.3523   -3.7924    0.0000 H   0  0  0  0  0  0  0  0  0  0  0  0
    1.5343   -0.2865    0.0000 H   0  0  0  0  0  0  0  0  0  0  0  0
    0.3363   -1.9354    0.0000 H   0  0  0  0  0  0  0  0  0  0  0  0
  1  2  1  0  0  0  0
  1 17  1  0  0  0  0
  1 18  1  0  0  0  0
  1 19  1  0  0  0  0
  2  3  1  0  0  0  0
  3  4  2  0  0  0  0
  3 13  1  0  0  0  0
  4  5  1  0  0  0  0
  4 10  1  0  0  0  0
  5  6  2  0  0  0  0
  5 20  1  0  0  0  0
  6  7  1  0  0  0  0
  6 21  1  0  0  0  0
  7  8  2  0  0  0  0
  7  9  1  0  0  0  0
  9 10  1  0  0  0  0
 10 11  2  0  0  0  0
 11 12  1  0  0  0  0
 11 22  1  0  0  0  0
 12 13  2  0  0  0  0
 12 16  1  0  0  0  0
 13 14  1  0  0  0  0
 14 15  2  0  0  0  0
 14 23  1  0  0  0  0
 15 16  1  0  0  0  0
 15 24  1  0  0  0  0
M  END
>  <DRUGBANK_ID>
DB12216

>  <COMMON_NAME>
Bergapten

>  <CAS_NUMBER>
484-20-8

>  <UNII>
4FVK84C92X

>  <SYNONYMS>
5 methoxypsoralen; 5-methoxypsoralen

$$$$
