
 OpenBabel10282417072D

 51 51  0  0  0  0  0  0  0  0999 V2000
   -1.3974    0.2019    0.0000 C   0  0  2  0  0  0  0  0  0  0  0  0
   -0.7300    0.6869    0.0000 C   0  0  2  0  0  0  0  0  0  0  0  0
   -0.0625    0.2020    0.0000 C   0  0  2  0  0  0  0  0  0  0  0  0
   -0.3175   -0.5826    0.0000 C   0  0  1  0  0  0  0  0  0  0  0  0
   -1.1425   -0.5826    0.0000 C   0  0  0  0  0  0  0  0  0  0  0  0
   -2.1821    0.4568    0.0000 C   0  0  0  0  0  0  0  0  0  0  0  0
   -2.3536    1.2639    0.0000 O   0  0  0  0  0  0  0  0  0  0  0  0
   -2.7952   -0.0951    0.0000 O   0  0  0  0  0  0  0  0  0  0  0  0
   -0.7300    1.5120    0.0000 O   0  0  0  0  0  0  0  0  0  0  0  0
    0.1674   -1.2500    0.0000 N   0  0  0  0  0  0  0  0  0  0  0  0
   -0.2071   -1.9851    0.0000 C   0  0  0  0  0  0  0  0  0  0  0  0
    0.2422   -2.6770    0.0000 N   0  0  0  0  0  0  0  0  0  0  0  0
   -1.0309   -2.0283    0.0000 N   0  0  0  0  0  0  0  0  0  0  0  0
    1.3662    0.2020    0.0000 C   0  0  0  0  0  0  0  0  0  0  0  0
    1.3661   -0.6227    0.0000 C   0  0  0  0  0  0  0  0  0  0  0  0
    2.0807   -1.0354    0.0000 C   0  0  0  0  0  0  0  0  0  0  0  0
    2.0808    0.6145    0.0000 C   0  0  0  0  0  0  0  0  0  0  0  0
    2.7952    0.2021    0.0000 C   0  0  0  0  0  0  0  0  0  0  0  0
    0.6518    1.4397    0.0000 N   0  0  0  0  0  0  0  0  0  0  0  0
    1.3663    1.8520    0.0000 C   0  0  0  0  0  0  0  0  0  0  0  0
    1.3665    2.6770    0.0000 O   0  0  0  0  0  0  0  0  0  0  0  0
    2.0807    1.4395    0.0000 C   0  0  0  0  0  0  0  0  0  0  0  0
    0.5505   -0.3499    0.0000 H   0  0  0  0  0  0  0  0  0  0  0  0
    0.6518    0.6145    0.0000 C   0  0  2  0  0  0  0  0  0  0  0  0
   -1.5649    1.2587    0.0000 H   0  0  0  0  0  0  0  0  0  0  0  0
   -1.6834    1.1726    0.0000 H   0  0  0  0  0  0  0  0  0  0  0  0
    0.7393   -0.4153    0.0000 H   0  0  0  0  0  0  0  0  0  0  0  0
   -1.7714   -1.4482    0.0000 H   0  0  0  0  0  0  0  0  0  0  0  0
   -2.1993   -0.4152    0.0000 H   0  0  0  0  0  0  0  0  0  0  0  0
   -3.6863    0.1946    0.0000 H   0  0  0  0  0  0  0  0  0  0  0  0
    0.1100    1.9970    0.0000 H   0  0  0  0  0  0  0  0  0  0  0  0
    1.1489   -1.1727    0.0000 H   0  0  0  0  0  0  0  0  0  0  0  0
   -0.2048   -3.5542    0.0000 H   0  0  0  0  0  0  0  0  0  0  0  0
   -1.5671   -1.2026    0.0000 H   0  0  0  0  0  0  0  0  0  0  0  0
   -1.4778   -2.9055    0.0000 H   0  0  0  0  0  0  0  0  0  0  0  0
    1.3663    1.2720    0.0000 H   0  0  0  0  0  0  0  0  0  0  0  0
    0.4394   -1.1576    0.0000 H   0  0  0  0  0  0  0  0  0  0  0  0
    1.3660   -1.6927    0.0000 H   0  0  0  0  0  0  0  0  0  0  0  0
    2.0806   -2.1054    0.0000 H   0  0  0  0  0  0  0  0  0  0  0  0
    3.0074   -0.5005    0.0000 H   0  0  0  0  0  0  0  0  0  0  0  0
    3.0073   -1.5705    0.0000 H   0  0  0  0  0  0  0  0  0  0  0  0
    2.0808    1.6845    0.0000 H   0  0  0  0  0  0  0  0  0  0  0  0
    1.1542    1.1495    0.0000 H   0  0  0  0  0  0  0  0  0  0  0  0
    2.7953   -0.8679    0.0000 H   0  0  0  0  0  0  0  0  0  0  0  0
    3.7218    0.7372    0.0000 H   0  0  0  0  0  0  0  0  0  0  0  0
    3.7219   -0.3328    0.0000 H   0  0  0  0  0  0  0  0  0  0  0  0
   -0.2007    1.9320    0.0000 H   0  0  0  0  0  0  0  0  0  0  0  0
    2.0807    0.3695    0.0000 H   0  0  0  0  0  0  0  0  0  0  0  0
    3.0074    1.9745    0.0000 H   0  0  0  0  0  0  0  0  0  0  0  0
    3.0073    0.9045    0.0000 H   0  0  0  0  0  0  0  0  0  0  0  0
   -0.2749    1.1495    0.0000 H   0  0  0  0  0  0  0  0  0  0  0  0
  1  2  1  0  0  0  0
  1  5  1  0  0  0  0
  1  6  1  0  0  0  0
  1 25  1  1  0  0  0
  2  3  1  0  0  0  0
  2  9  1  0  0  0  0
  2 26  1  6  0  0  0
  3  4  1  0  0  0  0
  3 23  1  6  0  0  0
  3 24  1  0  0  0  0
  4  5  1  0  0  0  0
  4 10  1  0  0  0  0
  4 27  1  1  0  0  0
  5 28  1  0  0  0  0
  5 29  1  0  0  0  0
  6  7  2  0  0  0  0
  6  8  1  0  0  0  0
  8 30  1  0  0  0  0
  9 31  1  0  0  0  0
 10 11  1  0  0  0  0
 10 32  1  0  0  0  0
 11 12  2  0  0  0  0
 11 13  1  0  0  0  0
 12 33  1  0  0  0  0
 13 34  1  0  0  0  0
 13 35  1  0  0  0  0
 14 15  1  0  0  0  0
 14 17  1  0  0  0  0
 14 36  1  0  0  0  0
 15 16  1  0  0  0  0
 15 37  1  0  0  0  0
 15 38  1  0  0  0  0
 16 39  1  0  0  0  0
 16 40  1  0  0  0  0
 16 41  1  0  0  0  0
 17 18  1  0  0  0  0
 17 42  1  0  0  0  0
 17 43  1  0  0  0  0
 18 44  1  0  0  0  0
 18 45  1  0  0  0  0
 18 46  1  0  0  0  0
 19 20  1  0  0  0  0
 19 47  1  0  0  0  0
 20 21  2  0  0  0  0
 20 22  1  0  0  0  0
 22 48  1  0  0  0  0
 22 49  1  0  0  0  0
 22 50  1  0  0  0  0
 24 14  1  0  0  0  0
 24 19  1  0  0  0  0
 24 51  1  6  0  0  0
M  END
>  <DRUGBANK_ID>
DB06614

>  <SECONDARY_ACCESSION_NUMBERS>
EXPT00645; DB03655

>  <COMMON_NAME>
Peramivir

>  <CAS_NUMBER>
330600-85-6

>  <UNII>
9ZS94HQO3B

>  <SYNONYMS>
Peramivir; Peramivir anhydrous

$$$$
