950
 OpenBabel10282417072D

 44 46  0  0  0  0  0  0  0  0999 V2000
    3.6830   -0.4079    0.0000 C   0  0  0  0  0  0  0  0  0  0  0  0
    3.6830   -1.2329    0.0000 C   0  0  0  0  0  0  0  0  0  0  0  0
    4.3974   -1.6454    0.0000 F   0  0  0  0  0  0  0  0  0  0  0  0
    2.9685   -1.6454    0.0000 C   0  0  0  0  0  0  0  0  0  0  0  0
    2.2540   -1.2329    0.0000 C   0  0  0  0  0  0  0  0  0  0  0  0
    2.2540   -0.4079    0.0000 C   0  0  0  0  0  0  0  0  0  0  0  0
    2.9685    0.0046    0.0000 C   0  0  0  0  0  0  0  0  0  0  0  0
    4.3974    0.0046    0.0000 C   0  0  0  0  0  0  0  0  0  0  0  0
    5.1119   -0.4079    0.0000 N   0  0  0  0  0  0  0  0  0  0  0  0
    4.3974    0.8296    0.0000 N   0  3  0  0  0  0  0  0  0  0  0  0
    1.4694   -1.4878    0.0000 N   0  0  0  0  0  0  0  0  0  0  0  0
    1.4694   -0.1529    0.0000 N   0  0  0  0  0  0  0  0  0  0  0  0
    0.9845   -0.8204    0.0000 C   0  0  0  0  0  0  0  0  0  0  0  0
    0.1595   -0.8204    0.0000 C   0  0  0  0  0  0  0  0  0  0  0  0
   -0.2530   -1.5348    0.0000 C   0  0  0  0  0  0  0  0  0  0  0  0
   -1.0780   -1.5348    0.0000 C   0  0  0  0  0  0  0  0  0  0  0  0
   -1.4905   -0.8204    0.0000 C   0  0  0  0  0  0  0  0  0  0  0  0
   -1.0780   -0.1059    0.0000 C   0  0  0  0  0  0  0  0  0  0  0  0
   -0.2530   -0.1059    0.0000 C   0  0  0  0  0  0  0  0  0  0  0  0
    0.1595    0.6086    0.0000 O   0  5  0  0  0  0  0  0  0  0  0  0
   -1.4905    0.6086    0.0000 O   0  0  0  0  0  0  0  0  0  0  0  0
   -2.3155    0.6086    0.0000 C   0  0  0  0  0  0  0  0  0  0  0  0
   -2.7280    1.3230    0.0000 C   0  0  0  0  0  0  0  0  0  0  0  0
   -3.5530    1.3230    0.0000 C   0  0  0  0  0  0  0  0  0  0  0  0
   -2.3155    2.0375    0.0000 C   0  0  0  0  0  0  0  0  0  0  0  0
    2.9685   -2.6774    0.0000 H   0  0  0  0  0  0  0  0  0  0  0  0
    2.9685    1.0366    0.0000 H   0  0  0  0  0  0  0  0  0  0  0  0
    5.1119   -1.3924    0.0000 H   0  0  0  0  0  0  0  0  0  0  0  0
    5.9645    0.0844    0.0000 H   0  0  0  0  0  0  0  0  0  0  0  0
    5.2500    1.3219    0.0000 H   0  0  0  0  0  0  0  0  0  0  0  0
    3.5448    1.3218    0.0000 H   0  0  0  0  0  0  0  0  0  0  0  0
    1.1652   -2.4241    0.0000 H   0  0  0  0  0  0  0  0  0  0  0  0
    0.2630   -2.4285    0.0000 H   0  0  0  0  0  0  0  0  0  0  0  0
   -1.5940   -2.4285    0.0000 H   0  0  0  0  0  0  0  0  0  0  0  0
   -2.5225   -0.8204    0.0000 H   0  0  0  0  0  0  0  0  0  0  0  0
   -2.8505   -0.3181    0.0000 H   0  0  0  0  0  0  0  0  0  0  0  0
   -3.3855    0.6086    0.0000 H   0  0  0  0  0  0  0  0  0  0  0  0
   -3.2630    2.2496    0.0000 H   0  0  0  0  0  0  0  0  0  0  0  0
   -4.0880    2.2496    0.0000 H   0  0  0  0  0  0  0  0  0  0  0  0
   -4.0880    0.3964    0.0000 H   0  0  0  0  0  0  0  0  0  0  0  0
   -4.6230    1.3230    0.0000 H   0  0  0  0  0  0  0  0  0  0  0  0
   -1.2455    2.0375    0.0000 H   0  0  0  0  0  0  0  0  0  0  0  0
   -2.8505    2.9641    0.0000 H   0  0  0  0  0  0  0  0  0  0  0  0
   -1.7805    2.9642    0.0000 H   0  0  0  0  0  0  0  0  0  0  0  0
  1  2  2  0  0  0  0
  1  7  1  0  0  0  0
  1  8  1  0  0  0  0
  2  3  1  0  0  0  0
  2  4  1  0  0  0  0
  4  5  2  0  0  0  0
  4 26  1  0  0  0  0
  5  6  1  0  0  0  0
  5 11  1  0  0  0  0
  6  7  2  0  0  0  0
  6 12  1  0  0  0  0
  7 27  1  0  0  0  0
  8  9  1  0  0  0  0
  8 10  2  0  0  0  0
  9 28  1  0  0  0  0
  9 29  1  0  0  0  0
 10 30  1  0  0  0  0
 10 31  1  0  0  0  0
 11 13  1  0  0  0  0
 11 32  1  0  0  0  0
 12 13  2  0  0  0  0
 13 14  1  0  0  0  0
 14 15  2  0  0  0  0
 14 19  1  0  0  0  0
 15 16  1  0  0  0  0
 15 33  1  0  0  0  0
 16 17  2  0  0  0  0
 16 34  1  0  0  0  0
 17 18  1  0  0  0  0
 17 35  1  0  0  0  0
 18 19  2  0  0  0  0
 18 21  1  0  0  0  0
 19 20  1  0  0  0  0
 21 22  1  0  0  0  0
 22 23  1  0  0  0  0
 22 36  1  0  0  0  0
 22 37  1  0  0  0  0
 23 24  1  0  0  0  0
 23 25  1  0  0  0  0
 23 38  1  0  0  0  0
 24 39  1  0  0  0  0
 24 40  1  0  0  0  0
 24 41  1  0  0  0  0
 25 42  1  0  0  0  0
 25 43  1  0  0  0  0
 25 44  1  0  0  0  0
M  CHG  2  10   1  20  -1
M  END
>  <DRUGBANK_ID>
DB06855

>  <SECONDARY_ACCESSION_NUMBERS>
EXPT00343; DB03494

>  <COMMON_NAME>
6-fluoro-2-(2-hydroxy-3-isobutoxy-phenyl)-1H-benzoimidazole-5-carboxamidine

$$$$
