
 OpenBabel10282417072D

 62 63  0  0  0  0  0  0  0  0999 V2000
    5.3330    2.1409    0.0000 O   0  0  0  0  0  0  0  0  0  0  0  0
    6.7620    5.4410    0.0000 O   0  0  0  0  0  0  0  0  0  0  0  0
    6.7620    2.1409    0.0000 N   0  0  0  0  0  0  0  0  0  0  0  0
    2.4751   -4.4592    0.0000 C   0  0  0  0  0  0  0  0  0  0  0  0
    2.4751   -5.2842    0.0000 C   0  0  0  0  0  0  0  0  0  0  0  0
    3.1895   -5.6968    0.0000 C   0  0  0  0  0  0  0  0  0  0  0  0
    3.1895   -4.0467    0.0000 C   0  0  0  0  0  0  0  0  0  0  0  0
    3.9041   -5.2842    0.0000 C   0  0  0  0  0  0  0  0  0  0  0  0
    3.9041   -4.4592    0.0000 C   0  0  0  0  0  0  0  0  0  0  0  0
    1.6500   -4.4592    0.0000 C   0  0  0  0  0  0  0  0  0  0  0  0
    2.0625   -3.7448    0.0000 C   0  0  0  0  0  0  0  0  0  0  0  0
    3.1895   -3.2217    0.0000 C   0  0  0  0  0  0  0  0  0  0  0  0
    4.6185   -4.0467    0.0000 C   0  0  0  0  0  0  0  0  0  0  0  0
    3.9041   -2.8092    0.0000 C   0  0  0  0  0  0  0  0  0  0  0  0
    3.9041   -1.9842    0.0000 C   0  0  0  0  0  0  0  0  0  0  0  0
    3.1895   -1.5717    0.0000 C   0  0  0  0  0  0  0  0  0  0  0  0
    4.6185   -1.5717    0.0000 C   0  0  0  0  0  0  0  0  0  0  0  0
    4.6185   -0.7466    0.0000 C   0  0  0  0  0  0  0  0  0  0  0  0
    5.3330   -0.3341    0.0000 C   0  0  0  0  0  0  0  0  0  0  0  0
    5.3330    0.4909    0.0000 C   0  0  0  0  0  0  0  0  0  0  0  0
    6.0475    0.9034    0.0000 C   0  0  0  0  0  0  0  0  0  0  0  0
    4.6185    0.9034    0.0000 C   0  0  0  0  0  0  0  0  0  0  0  0
    6.0475    1.7284    0.0000 C   0  0  0  0  0  0  0  0  0  0  0  0
    6.7620    2.9659    0.0000 C   0  0  0  0  0  0  0  0  0  0  0  0
    6.0475    3.3784    0.0000 C   0  0  0  0  0  0  0  0  0  0  0  0
    7.4765    3.3784    0.0000 C   0  0  0  0  0  0  0  0  0  0  0  0
    6.0475    4.2035    0.0000 C   0  0  0  0  0  0  0  0  0  0  0  0
    7.4765    4.2035    0.0000 C   0  0  0  0  0  0  0  0  0  0  0  0
    6.7620    4.6160    0.0000 C   0  0  0  0  0  0  0  0  0  0  0  0
    7.5735    5.9095    0.0000 H   0  0  0  0  0  0  0  0  0  0  0  0
    7.6146    1.6486    0.0000 H   0  0  0  0  0  0  0  0  0  0  0  0
    1.5484   -5.8191    0.0000 H   0  0  0  0  0  0  0  0  0  0  0  0
    2.4750   -6.3542    0.0000 H   0  0  0  0  0  0  0  0  0  0  0  0
    3.1894   -6.7668    0.0000 H   0  0  0  0  0  0  0  0  0  0  0  0
    4.1161   -6.2318    0.0000 H   0  0  0  0  0  0  0  0  0  0  0  0
    4.8308   -5.8192    0.0000 H   0  0  0  0  0  0  0  0  0  0  0  0
    4.8307   -4.7492    0.0000 H   0  0  0  0  0  0  0  0  0  0  0  0
    1.1150   -3.5326    0.0000 H   0  0  0  0  0  0  0  0  0  0  0  0
    1.1150   -5.3858    0.0000 H   0  0  0  0  0  0  0  0  0  0  0  0
    0.5800   -4.4592    0.0000 H   0  0  0  0  0  0  0  0  0  0  0  0
    2.5974   -2.8181    0.0000 H   0  0  0  0  0  0  0  0  0  0  0  0
    0.9925   -3.7450    0.0000 H   0  0  0  0  0  0  0  0  0  0  0  0
    1.5274   -2.8182    0.0000 H   0  0  0  0  0  0  0  0  0  0  0  0
    2.2958   -2.7057    0.0000 H   0  0  0  0  0  0  0  0  0  0  0  0
    5.5452   -4.5817    0.0000 H   0  0  0  0  0  0  0  0  0  0  0  0
    4.6185   -2.9767    0.0000 H   0  0  0  0  0  0  0  0  0  0  0  0
    5.5451   -3.5117    0.0000 H   0  0  0  0  0  0  0  0  0  0  0  0
    4.7978   -3.3252    0.0000 H   0  0  0  0  0  0  0  0  0  0  0  0
    3.1894   -0.5017    0.0000 H   0  0  0  0  0  0  0  0  0  0  0  0
    2.2629   -2.1068    0.0000 H   0  0  0  0  0  0  0  0  0  0  0  0
    2.2628   -1.0368    0.0000 H   0  0  0  0  0  0  0  0  0  0  0  0
    5.5122   -2.0877    0.0000 H   0  0  0  0  0  0  0  0  0  0  0  0
    3.7248   -0.2306    0.0000 H   0  0  0  0  0  0  0  0  0  0  0  0
    6.2267   -0.8501    0.0000 H   0  0  0  0  0  0  0  0  0  0  0  0
    6.9412    0.3874    0.0000 H   0  0  0  0  0  0  0  0  0  0  0  0
    4.6185    1.9734    0.0000 H   0  0  0  0  0  0  0  0  0  0  0  0
    3.6919    0.3684    0.0000 H   0  0  0  0  0  0  0  0  0  0  0  0
    3.6918    1.4384    0.0000 H   0  0  0  0  0  0  0  0  0  0  0  0
    5.1538    2.8624    0.0000 H   0  0  0  0  0  0  0  0  0  0  0  0
    8.3702    2.8624    0.0000 H   0  0  0  0  0  0  0  0  0  0  0  0
    5.1538    4.7195    0.0000 H   0  0  0  0  0  0  0  0  0  0  0  0
    8.3702    4.7195    0.0000 H   0  0  0  0  0  0  0  0  0  0  0  0
  1 23  2  0  0  0  0
  2 29  1  0  0  0  0
  2 30  1  0  0  0  0
  3 23  1  0  0  0  0
  3 24  1  0  0  0  0
  3 31  1  0  0  0  0
  4  5  1  0  0  0  0
  4  7  1  0  0  0  0
  4 10  1  0  0  0  0
  4 11  1  0  0  0  0
  5  6  1  0  0  0  0
  5 32  1  0  0  0  0
  5 33  1  0  0  0  0
  6  8  1  0  0  0  0
  6 34  1  0  0  0  0
  6 35  1  0  0  0  0
  7  9  2  0  0  0  0
  7 12  1  0  0  0  0
  8  9  1  0  0  0  0
  8 36  1  0  0  0  0
  8 37  1  0  0  0  0
  9 13  1  0  0  0  0
 10 38  1  0  0  0  0
 10 39  1  0  0  0  0
 10 40  1  0  0  0  0
 11 41  1  0  0  0  0
 11 42  1  0  0  0  0
 11 43  1  0  0  0  0
 12 14  2  0  0  0  0
 12 44  1  0  0  0  0
 13 45  1  0  0  0  0
 13 46  1  0  0  0  0
 13 47  1  0  0  0  0
 14 15  1  0  0  0  0
 14 48  1  0  0  0  0
 15 16  1  0  0  0  0
 15 17  2  0  0  0  0
 16 49  1  0  0  0  0
 16 50  1  0  0  0  0
 16 51  1  0  0  0  0
 17 18  1  0  0  0  0
 17 52  1  0  0  0  0
 18 19  2  0  0  0  0
 18 53  1  0  0  0  0
 19 20  1  0  0  0  0
 19 54  1  0  0  0  0
 20 21  2  0  0  0  0
 20 22  1  0  0  0  0
 21 23  1  0  0  0  0
 21 55  1  0  0  0  0
 22 56  1  0  0  0  0
 22 57  1  0  0  0  0
 22 58  1  0  0  0  0
 24 25  2  0  0  0  0
 24 26  1  0  0  0  0
 25 27  1  0  0  0  0
 25 59  1  0  0  0  0
 26 28  2  0  0  0  0
 26 60  1  0  0  0  0
 27 29  2  0  0  0  0
 27 61  1  0  0  0  0
 28 29  1  0  0  0  0
 28 62  1  0  0  0  0
M  END
>  <DRUGBANK_ID>
DB05076

>  <SECONDARY_ACCESSION_NUMBERS>
DB03922

>  <COMMON_NAME>
Fenretinide

>  <CAS_NUMBER>
65646-68-6

>  <UNII>
187EJ7QEXL

>  <SYNONYMS>
4-HPR; 4-hydroxy(phenyl)retinamide; 4-hydroxyphenyl retinamide; Fenretinida; Fenretinide; Fenretinidum; N-(4-hydroxyphenyl)all-trans retinamide

$$$$
