
 OpenBabel10282417072D

 65 65  0  0  1  0  0  0  0  0999 V2000
   -0.3615    0.4659    0.0000 N   0  0  0  0  0  0  0  0  0  0  0  0
   -0.0337    1.2230    0.0000 C   0  0  0  0  0  0  0  0  0  0  0  0
   -0.5254    1.8854    0.0000 N   0  0  0  0  0  0  0  0  0  0  0  0
    0.7859    1.3176    0.0000 C   0  0  0  0  0  0  0  0  0  0  0  0
    1.1137    2.0747    0.0000 C   0  0  0  0  0  0  0  0  0  0  0  0
    1.9332    2.1693    0.0000 C   0  0  0  0  0  0  0  0  0  0  0  0
    2.4250    1.5069    0.0000 C   0  0  0  0  0  0  0  0  0  0  0  0
    3.2445    1.6015    0.0000 C   0  0  0  0  0  0  0  0  0  0  0  0
    3.7363    0.9391    0.0000 N   0  0  0  0  0  0  0  0  0  0  0  0
    4.5558    1.0337    0.0000 C   0  0  0  0  0  0  0  0  0  0  0  0
    4.8836    1.7908    0.0000 O   0  0  0  0  0  0  0  0  0  0  0  0
    5.0476    0.3713    0.0000 C   0  0  2  0  0  0  0  0  0  0  0  0
    4.7197   -0.3858    0.0000 C   0  0  0  0  0  0  0  0  0  0  0  0
    3.9002   -0.4804    0.0000 C   0  0  0  0  0  0  0  0  0  0  0  0
    3.5724   -1.2375    0.0000 S   0  0  0  0  0  0  0  0  0  0  0  0
    2.7528   -1.3321    0.0000 C   0  0  0  0  0  0  0  0  0  0  0  0
    5.8671    0.4659    0.0000 N   0  0  0  0  0  0  0  0  0  0  0  0
    6.3588   -0.1965    0.0000 C   0  0  0  0  0  0  0  0  0  0  0  0
    6.0310   -0.9536    0.0000 O   0  0  0  0  0  0  0  0  0  0  0  0
    7.1784   -0.1019    0.0000 C   0  0  2  0  0  0  0  0  0  0  0  0
    7.6701   -0.7643    0.0000 N   0  0  0  0  0  0  0  0  0  0  0  0
    8.4897   -0.6697    0.0000 S   0  0  0  0  0  0  0  0  0  0  0  0
    8.5843   -1.4893    0.0000 O   0  0  0  0  0  0  0  0  0  0  0  0
    8.3950    0.1499    0.0000 O   0  0  0  0  0  0  0  0  0  0  0  0
    9.3092   -0.5751    0.0000 C   0  0  0  0  0  0  0  0  0  0  0  0
    9.8010   -1.2375    0.0000 C   0  0  0  0  0  0  0  0  0  0  0  0
   10.6205   -1.1429    0.0000 C   0  0  0  0  0  0  0  0  0  0  0  0
    7.5062    0.6552    0.0000 C   0  0  2  0  0  0  0  0  0  0  0  0
    8.3258    0.7498    0.0000 C   0  0  0  0  0  0  0  0  0  0  0  0
    7.0145    1.3176    0.0000 O   0  0  0  0  0  0  0  0  0  0  0  0
    2.0972    0.7498    0.0000 C   0  0  0  0  0  0  0  0  0  0  0  0
    1.2776    0.6552    0.0000 C   0  0  0  0  0  0  0  0  0  0  0  0
   -1.3395    0.3529    0.0000 H   0  0  0  0  0  0  0  0  0  0  0  0
   -0.1342    2.7888    0.0000 H   0  0  0  0  0  0  0  0  0  0  0  0
   -1.5034    1.7725    0.0000 H   0  0  0  0  0  0  0  0  0  0  0  0
    0.4986    2.9033    0.0000 H   0  0  0  0  0  0  0  0  0  0  0  0
    2.3432    3.1163    0.0000 H   0  0  0  0  0  0  0  0  0  0  0  0
    3.6696    2.5834    0.0000 H   0  0  0  0  0  0  0  0  0  0  0  0
    4.3074    1.7243    0.0000 H   0  0  0  0  0  0  0  0  0  0  0  0
    3.3451    0.0356    0.0000 H   0  0  0  0  0  0  0  0  0  0  0  0
    5.4727    1.3532    0.0000 H   0  0  0  0  0  0  0  0  0  0  0  0
    5.3574   -1.2450    0.0000 H   0  0  0  0  0  0  0  0  0  0  0  0
    4.2945   -1.3677    0.0000 H   0  0  0  0  0  0  0  0  0  0  0  0
    3.2624    0.3788    0.0000 H   0  0  0  0  0  0  0  0  0  0  0  0
    2.8373   -0.6032    0.0000 H   0  0  0  0  0  0  0  0  0  0  0  0
    2.1151   -0.4729    0.0000 H   0  0  0  0  0  0  0  0  0  0  0  0
    2.3276   -2.3140    0.0000 H   0  0  0  0  0  0  0  0  0  0  0  0
    1.6899   -1.4548    0.0000 H   0  0  0  0  0  0  0  0  0  0  0  0
    6.2583    1.3693    0.0000 H   0  0  0  0  0  0  0  0  0  0  0  0
    6.7532   -1.0838    0.0000 H   0  0  0  0  0  0  0  0  0  0  0  0
    7.2648   -1.7003    0.0000 H   0  0  0  0  0  0  0  0  0  0  0  0
    9.7343    0.4068    0.0000 H   0  0  0  0  0  0  0  0  0  0  0  0
   10.3721   -0.4523    0.0000 H   0  0  0  0  0  0  0  0  0  0  0  0
    9.3759   -2.2194    0.0000 H   0  0  0  0  0  0  0  0  0  0  0  0
   10.4388   -2.0967    0.0000 H   0  0  0  0  0  0  0  0  0  0  0  0
   11.2582   -2.0021    0.0000 H   0  0  0  0  0  0  0  0  0  0  0  0
   11.0457   -0.1610    0.0000 H   0  0  0  0  0  0  0  0  0  0  0  0
   11.6834   -1.0202    0.0000 H   0  0  0  0  0  0  0  0  0  0  0  0
    6.4433    0.5324    0.0000 H   0  0  0  0  0  0  0  0  0  0  0  0
    8.9635   -0.1094    0.0000 H   0  0  0  0  0  0  0  0  0  0  0  0
    8.7510    1.7317    0.0000 H   0  0  0  0  0  0  0  0  0  0  0  0
    9.3887    0.8725    0.0000 H   0  0  0  0  0  0  0  0  0  0  0  0
    7.3999    2.2077    0.0000 H   0  0  0  0  0  0  0  0  0  0  0  0
    2.7123   -0.0789    0.0000 H   0  0  0  0  0  0  0  0  0  0  0  0
    0.8675   -0.2918    0.0000 H   0  0  0  0  0  0  0  0  0  0  0  0
  1  2  2  0  0  0  0
  1 33  1  0  0  0  0
  2  3  1  0  0  0  0
  2  4  1  0  0  0  0
  3 34  1  0  0  0  0
  3 35  1  0  0  0  0
  4  5  2  0  0  0  0
  4 32  1  0  0  0  0
  5  6  1  0  0  0  0
  5 36  1  0  0  0  0
  6  7  2  0  0  0  0
  6 37  1  0  0  0  0
  7  8  1  0  0  0  0
  7 31  1  0  0  0  0
  8  9  1  0  0  0  0
  8 38  1  0  0  0  0
  8 39  1  0  0  0  0
  9 10  1  0  0  0  0
  9 40  1  0  0  0  0
 10 11  2  0  0  0  0
 10 12  1  0  0  0  0
 12 13  1  0  0  0  0
 12 17  1  0  0  0  0
 12 41  1  6  0  0  0
 13 14  1  0  0  0  0
 13 42  1  0  0  0  0
 13 43  1  0  0  0  0
 14 15  1  0  0  0  0
 14 44  1  0  0  0  0
 14 45  1  0  0  0  0
 15 16  1  0  0  0  0
 16 46  1  0  0  0  0
 16 47  1  0  0  0  0
 16 48  1  0  0  0  0
 17 18  1  0  0  0  0
 17 49  1  0  0  0  0
 18 19  2  0  0  0  0
 18 20  1  0  0  0  0
 20 21  1  0  0  0  0
 20 28  1  0  0  0  0
 20 50  1  6  0  0  0
 21 22  1  0  0  0  0
 21 51  1  0  0  0  0
 22 23  2  0  0  0  0
 22 24  2  0  0  0  0
 22 25  1  0  0  0  0
 25 26  1  0  0  0  0
 25 52  1  0  0  0  0
 25 53  1  0  0  0  0
 26 27  1  0  0  0  0
 26 54  1  0  0  0  0
 26 55  1  0  0  0  0
 27 56  1  0  0  0  0
 27 57  1  0  0  0  0
 27 58  1  0  0  0  0
 28 29  1  0  0  0  0
 28 30  1  0  0  0  0
 28 59  1  6  0  0  0
 29 60  1  0  0  0  0
 29 61  1  0  0  0  0
 29 62  1  0  0  0  0
 30 63  1  0  0  0  0
 31 32  2  0  0  0  0
 31 64  1  0  0  0  0
 32 65  1  0  0  0  0
M  END
>  <DRUGBANK_ID>
DB04767

>  <COMMON_NAME>
N-[1-(4-CARBAMIMIDOYL-BENZYLCARBAMOYL)-3-METHYLSULFANYL-PROPYL]-3-HYDROXY-2-PROPOXYAMINO-BUTYRAMID

$$$$
