KSA
 OpenBabel10282417072D

 56 63  0  0  0  0  0  0  0  0999 V2000
    0.9430   -3.1948    0.0000 O   0  0  0  0  0  0  0  0  0  0  0  0
    0.2821   -2.7010    0.0000 C   0  0  0  0  0  0  0  0  0  0  0  0
   -0.4760   -3.0265    0.0000 O   0  0  0  0  0  0  0  0  0  0  0  0
   -1.1369   -2.5327    0.0000 C   0  0  0  0  0  0  0  0  0  0  0  0
    0.3792   -1.8817    0.0000 C   0  0  2  0  0  0  0  0  0  0  0  0
    1.1825   -2.0698    0.0000 O   0  0  0  0  0  0  0  0  0  0  0  0
    0.6740   -1.0533    0.0000 C   0  0  1  0  0  0  0  0  0  0  0  0
   -0.0554   -0.9714    0.0000 O   0  0  0  0  0  0  0  0  0  0  0  0
    1.4628   -1.2950    0.0000 C   0  0  0  0  0  0  0  0  0  0  0  0
    0.8964   -0.1921    0.0000 N   0  0  0  0  0  0  0  0  0  0  0  0
    0.3710    0.4894    0.0000 C   0  0  0  0  0  0  0  0  0  0  0  0
   -0.4792    0.4910    0.0000 C   0  0  0  0  0  0  0  0  0  0  0  0
   -1.0026   -0.1914    0.0000 N   0  0  0  0  0  0  0  0  0  0  0  0
   -0.7812   -1.0526    0.0000 C   0  0  1  0  0  0  0  0  0  0  0  0
   -0.4900   -1.8764    0.0000 C   0  0  0  0  0  0  0  0  0  0  0  0
   -1.7728    0.1596    0.0000 C   0  0  0  0  0  0  0  0  0  0  0  0
   -2.5165   -0.1975    0.0000 C   0  0  0  0  0  0  0  0  0  0  0  0
   -3.1977    0.2679    0.0000 C   0  0  0  0  0  0  0  0  0  0  0  0
   -3.1351    1.0905    0.0000 C   0  0  0  0  0  0  0  0  0  0  0  0
   -2.3915    1.4477    0.0000 C   0  0  0  0  0  0  0  0  0  0  0  0
   -1.7103    0.9822    0.0000 C   0  0  0  0  0  0  0  0  0  0  0  0
   -0.9009    1.2124    0.0000 C   0  0  0  0  0  0  0  0  0  0  0  0
   -0.4578    1.9282    0.0000 C   0  0  0  0  0  0  0  0  0  0  0  0
   -0.7093    2.7139    0.0000 C   0  0  0  0  0  0  0  0  0  0  0  0
   -1.4928    2.9723    0.0000 O   0  0  0  0  0  0  0  0  0  0  0  0
    0.3672    1.9247    0.0000 C   0  0  0  0  0  0  0  0  0  0  0  0
    0.6255    2.7082    0.0000 C   0  0  0  0  0  0  0  0  0  0  0  0
   -0.0398    3.1960    0.0000 N   0  0  0  0  0  0  0  0  0  0  0  0
    0.8025    1.2031    0.0000 C   0  0  0  0  0  0  0  0  0  0  0  0
    1.6133    0.9814    0.0000 C   0  0  0  0  0  0  0  0  0  0  0  0
    1.6767    0.1589    0.0000 C   0  0  0  0  0  0  0  0  0  0  0  0
    2.4207   -0.1975    0.0000 C   0  0  0  0  0  0  0  0  0  0  0  0
    2.2939    1.4476    0.0000 C   0  0  0  0  0  0  0  0  0  0  0  0
    3.0380    1.0913    0.0000 C   0  0  0  0  0  0  0  0  0  0  0  0
    3.1014    0.2687    0.0000 C   0  0  0  0  0  0  0  0  0  0  0  0
   -1.3397   -1.2227    0.0000 H   0  0  0  0  0  0  0  0  0  0  0  0
   -1.0108   -1.4702    0.0000 H   0  0  0  0  0  0  0  0  0  0  0  0
   -2.1201   -2.9548    0.0000 H   0  0  0  0  0  0  0  0  0  0  0  0
   -1.9941   -1.8923    0.0000 H   0  0  0  0  0  0  0  0  0  0  0  0
    1.4632   -2.9983    0.0000 H   0  0  0  0  0  0  0  0  0  0  0  0
    1.7028   -2.3377    0.0000 H   0  0  0  0  0  0  0  0  0  0  0  0
    2.2458   -0.5658    0.0000 H   0  0  0  0  0  0  0  0  0  0  0  0
    2.4859   -1.6085    0.0000 H   0  0  0  0  0  0  0  0  0  0  0  0
   -1.1105   -2.7481    0.0000 H   0  0  0  0  0  0  0  0  0  0  0  0
   -1.5496   -1.7277    0.0000 H   0  0  0  0  0  0  0  0  0  0  0  0
   -2.5947   -1.2265    0.0000 H   0  0  0  0  0  0  0  0  0  0  0  0
   -4.1280   -0.1789    0.0000 H   0  0  0  0  0  0  0  0  0  0  0  0
   -3.9872    1.6728    0.0000 H   0  0  0  0  0  0  0  0  0  0  0  0
   -2.3133    2.4767    0.0000 H   0  0  0  0  0  0  0  0  0  0  0  0
    1.6445    3.0344    0.0000 H   0  0  0  0  0  0  0  0  0  0  0  0
    0.7975    3.7643    0.0000 H   0  0  0  0  0  0  0  0  0  0  0  0
   -0.0356    4.1805    0.0000 H   0  0  0  0  0  0  0  0  0  0  0  0
    2.5000   -1.2265    0.0000 H   0  0  0  0  0  0  0  0  0  0  0  0
    2.2145    2.4765    0.0000 H   0  0  0  0  0  0  0  0  0  0  0  0
    3.8894    1.6745    0.0000 H   0  0  0  0  0  0  0  0  0  0  0  0
    4.0321   -0.1771    0.0000 H   0  0  0  0  0  0  0  0  0  0  0  0
  1  2  2  0  0  0  0
  2  3  1  0  0  0  0
  3  4  1  0  0  0  0
  4 37  1  0  0  0  0
  4 38  1  0  0  0  0
  4 39  1  0  0  0  0
  5  2  1  1  0  0  0
  5  6  1  0  0  0  0
  5  7  1  0  0  0  0
  5 15  1  0  0  0  0
  6 40  1  0  0  0  0
  7  8  1  0  0  0  0
  7  9  1  1  0  0  0
  7 10  1  0  0  0  0
  8 14  1  0  0  0  0
  9 41  1  0  0  0  0
  9 42  1  0  0  0  0
  9 43  1  0  0  0  0
 10 11  1  0  0  0  0
 10 31  1  0  0  0  0
 11 12  2  0  0  0  0
 11 29  1  0  0  0  0
 12 13  1  0  0  0  0
 12 22  1  0  0  0  0
 13 14  1  0  0  0  0
 13 16  1  0  0  0  0
 14 15  1  0  0  0  0
 14 36  1  1  0  0  0
 15 44  1  0  0  0  0
 15 45  1  0  0  0  0
 16 17  2  0  0  0  0
 16 21  1  0  0  0  0
 17 18  1  0  0  0  0
 17 46  1  0  0  0  0
 18 19  2  0  0  0  0
 18 47  1  0  0  0  0
 19 20  1  0  0  0  0
 19 48  1  0  0  0  0
 20 21  2  0  0  0  0
 20 49  1  0  0  0  0
 21 22  1  0  0  0  0
 22 23  2  0  0  0  0
 23 24  1  0  0  0  0
 23 26  1  0  0  0  0
 24 25  2  0  0  0  0
 24 28  1  0  0  0  0
 26 27  1  0  0  0  0
 26 29  2  0  0  0  0
 27 28  1  0  0  0  0
 27 50  1  0  0  0  0
 27 51  1  0  0  0  0
 28 52  1  0  0  0  0
 29 30  1  0  0  0  0
 30 31  2  0  0  0  0
 30 33  1  0  0  0  0
 31 32  1  0  0  0  0
 32 35  2  0  0  0  0
 32 53  1  0  0  0  0
 33 34  2  0  0  0  0
 33 54  1  0  0  0  0
 34 35  1  0  0  0  0
 34 55  1  0  0  0  0
 35 56  1  0  0  0  0
M  END
>  <DRUGBANK_ID>
DB02152

>  <SECONDARY_ACCESSION_NUMBERS>
EXPT01983

>  <COMMON_NAME>
K-252a

>  <CAS_NUMBER>
97161-97-2

>  <UNII>
IV7H45AM5B

$$$$
