
 OpenBabel10282417072D

126128  0  0  0  0  0  0  0  0999 V2000
   -4.9898   -1.0105    0.0000 N   0  0  0  0  0  0  0  0  0  0  0  0
   -4.2815   -1.4230    0.0000 C   0  0  0  0  0  0  0  0  0  0  0  0
   -2.8438    0.2187    0.0000 C   0  0  0  0  0  0  0  0  0  0  0  0
    0.0021    2.7022    0.0000 C   0  0  0  0  0  0  0  0  0  0  0  0
   -2.1354    1.4563    0.0000 N   0  0  0  0  0  0  0  0  0  0  0  0
    0.7229    1.4730    0.0000 N   0  0  0  0  0  0  0  0  0  0  0  0
   -3.5605   -1.0187    0.0000 C   0  0  1  0  0  0  0  0  0  0  0  0
   -1.4229    1.0521    0.0000 C   0  0  0  0  0  0  0  0  0  0  0  0
    1.3022    0.8896    0.0000 C   0  0  0  0  0  0  0  0  0  0  0  0
   -3.5564   -0.1937    0.0000 N   0  0  0  0  0  0  0  0  0  0  0  0
    2.6772   -0.7313    0.0000 C   0  0  0  0  0  0  0  0  0  0  0  0
   -5.6606   -1.4938    0.0000 C   0  0  2  0  0  0  0  0  0  0  0  0
   -0.7103    2.2896    0.0000 N   0  0  0  0  0  0  0  0  0  0  0  0
    0.7188    2.2981    0.0000 C   0  0  1  0  0  0  0  0  0  0  0  0
   -2.8479    1.0438    0.0000 C   0  0  1  0  0  0  0  0  0  0  0  0
    2.0981   -0.1479    0.0000 N   0  0  0  0  0  0  0  0  0  0  0  0
   -0.7103    1.4645    0.0000 C   0  0  1  0  0  0  0  0  0  0  0  0
    4.1898   -0.5229    0.0000 C   0  0  0  0  0  0  0  0  0  0  0  0
   -2.4604   -3.5397    0.0000 N   0  0  0  0  0  0  0  0  0  0  0  0
    5.6649    1.1021    0.0000 C   0  0  0  0  0  0  0  0  0  0  0  0
   -5.6648   -2.3188    0.0000 C   0  0  0  0  0  0  0  0  0  0  0  0
   -2.8522   -1.4354    0.0000 C   0  0  0  0  0  0  0  0  0  0  0  0
   -2.8604   -2.2605    0.0000 C   0  0  0  0  0  0  0  0  0  0  0  0
    3.4772   -0.9437    0.0000 C   0  0  2  0  0  0  0  0  0  0  0  0
   -3.5314   -2.7439    0.0000 N   0  0  0  0  0  0  0  0  0  0  0  0
    4.9023   -0.9355    0.0000 C   0  0  0  0  0  0  0  0  0  0  0  0
    2.1022    0.6770    0.0000 C   0  0  1  0  0  0  0  0  0  0  0  0
   -3.2855   -3.5314    0.0000 C   0  0  0  0  0  0  0  0  0  0  0  0
    5.6565    1.9272    0.0000 N   0  0  0  0  0  0  0  0  0  0  0  0
   -2.1979   -2.7564    0.0000 C   0  0  0  0  0  0  0  0  0  0  0  0
   -4.2855   -2.2480    0.0000 O   0  0  0  0  0  0  0  0  0  0  0  0
   -0.0062    3.5272    0.0000 O   0  0  0  0  0  0  0  0  0  0  0  0
   -2.1272   -0.1895    0.0000 O   0  0  0  0  0  0  0  0  0  0  0  0
   -1.4187    0.2270    0.0000 O   0  0  0  0  0  0  0  0  0  0  0  0
    1.3022    0.0645    0.0000 O   0  0  0  0  0  0  0  0  0  0  0  0
    2.6772   -1.5563    0.0000 O   0  0  0  0  0  0  0  0  0  0  0  0
    0.0021    1.0521    0.0000 C   0  0  0  0  0  0  0  0  0  0  0  0
   -6.3816   -2.7272    0.0000 O   0  0  0  0  0  0  0  0  0  0  0  0
    4.8982   -1.7605    0.0000 O   0  0  0  0  0  0  0  0  0  0  0  0
    4.9524    0.6895    0.0000 N   0  0  0  0  0  0  0  0  0  0  0  0
    6.3816    0.6937    0.0000 N   0  0  0  0  0  0  0  0  0  0  0  0
   -5.2440   -0.2230    0.0000 C   0  0  0  0  0  0  0  0  0  0  0  0
    1.4272    2.7147    0.0000 C   0  0  0  0  0  0  0  0  0  0  0  0
   -3.5605    1.4521    0.0000 C   0  0  2  0  0  0  0  0  0  0  0  0
   -0.0020    0.2312    0.0000 C   0  0  0  0  0  0  0  0  0  0  0  0
    3.4731   -1.7688    0.0000 N   0  0  0  0  0  0  0  0  0  0  0  0
   -4.9523   -2.7355    0.0000 O   0  0  0  0  0  0  0  0  0  0  0  0
   -0.0020   -1.4230    0.0000 C   0  0  0  0  0  0  0  0  0  0  0  0
    5.6149   -0.5270    0.0000 O   0  0  0  0  0  0  0  0  0  0  0  0
   -0.7146   -0.1812    0.0000 C   0  0  0  0  0  0  0  0  0  0  0  0
    0.7147   -0.1812    0.0000 C   0  0  0  0  0  0  0  0  0  0  0  0
    0.7147   -1.0105    0.0000 C   0  0  0  0  0  0  0  0  0  0  0  0
   -0.7146   -1.0105    0.0000 C   0  0  0  0  0  0  0  0  0  0  0  0
   -6.3273   -1.0020    0.0000 C   0  0  0  0  0  0  0  0  0  0  0  0
   -0.0020   -2.2480    0.0000 O   0  0  0  0  0  0  0  0  0  0  0  0
   -6.0690   -0.2187    0.0000 C   0  0  0  0  0  0  0  0  0  0  0  0
    2.8147    1.0937    0.0000 C   0  0  0  0  0  0  0  0  0  0  0  0
    4.2398    1.1021    0.0000 C   0  0  0  0  0  0  0  0  0  0  0  0
   -4.2730    1.0396    0.0000 C   0  0  0  0  0  0  0  0  0  0  0  0
    1.4230    3.5397    0.0000 C   0  0  0  0  0  0  0  0  0  0  0  0
    2.1480    2.3105    0.0000 C   0  0  0  0  0  0  0  0  0  0  0  0
   -3.5605    2.2771    0.0000 C   0  0  0  0  0  0  0  0  0  0  0  0
    3.5273    0.6812    0.0000 C   0  0  0  0  0  0  0  0  0  0  0  0
   -4.9856    1.4521    0.0000 C   0  0  0  0  0  0  0  0  0  0  0  0
   -3.5605    0.6396    0.0000 H   0  0  0  0  0  0  0  0  0  0  0  0
   -2.1397    2.4408    0.0000 H   0  0  0  0  0  0  0  0  0  0  0  0
   -0.1864    1.0956    0.0000 H   0  0  0  0  0  0  0  0  0  0  0  0
   -4.4824   -0.4756    0.0000 H   0  0  0  0  0  0  0  0  0  0  0  0
   -4.4080    0.3002    0.0000 H   0  0  0  0  0  0  0  0  0  0  0  0
   -4.7094   -1.9839    0.0000 H   0  0  0  0  0  0  0  0  0  0  0  0
   -1.5632    2.7813    0.0000 H   0  0  0  0  0  0  0  0  0  0  0  0
   -0.2038    1.7561    0.0000 H   0  0  0  0  0  0  0  0  0  0  0  0
    1.1869   -0.5207    0.0000 H   0  0  0  0  0  0  0  0  0  0  0  0
   -1.6372    1.9990    0.0000 H   0  0  0  0  0  0  0  0  0  0  0  0
    4.1852    0.5471    0.0000 H   0  0  0  0  0  0  0  0  0  0  0  0
    5.1157    0.0135    0.0000 H   0  0  0  0  0  0  0  0  0  0  0  0
   -1.9207   -0.9088    0.0000 H   0  0  0  0  0  0  0  0  0  0  0  0
   -1.9307   -1.9792    0.0000 H   0  0  0  0  0  0  0  0  0  0  0  0
    4.4051   -1.4765    0.0000 H   0  0  0  0  0  0  0  0  0  0  0  0
   -4.4653   -2.4324    0.0000 H   0  0  0  0  0  0  0  0  0  0  0  0
    1.2524    0.0269    0.0000 H   0  0  0  0  0  0  0  0  0  0  0  0
   -3.9011   -4.3597    0.0000 H   0  0  0  0  0  0  0  0  0  0  0  0
    6.5040    2.4281    0.0000 H   0  0  0  0  0  0  0  0  0  0  0  0
   -1.2127   -2.4490    0.0000 H   0  0  0  0  0  0  0  0  0  0  0  0
    0.9304    1.5842    0.0000 H   0  0  0  0  0  0  0  0  0  0  0  0
    0.9266    0.5134    0.0000 H   0  0  0  0  0  0  0  0  0  0  0  0
    4.9524   -0.2950    0.0000 H   0  0  0  0  0  0  0  0  0  0  0  0
    6.3872   -0.2908    0.0000 H   0  0  0  0  0  0  0  0  0  0  0  0
    7.2314    1.1908    0.0000 H   0  0  0  0  0  0  0  0  0  0  0  0
   -4.6120    0.6404    0.0000 H   0  0  0  0  0  0  0  0  0  0  0  0
   -5.7256    0.7325    0.0000 H   0  0  0  0  0  0  0  0  0  0  0  0
    2.3491    3.2578    0.0000 H   0  0  0  0  0  0  0  0  0  0  0  0
   -2.6347    1.9886    0.0000 H   0  0  0  0  0  0  0  0  0  0  0  0
    2.5872   -2.2744    0.0000 H   0  0  0  0  0  0  0  0  0  0  0  0
    4.3539   -2.2832    0.0000 H   0  0  0  0  0  0  0  0  0  0  0  0
   -4.9575   -3.6725    0.0000 H   0  0  0  0  0  0  0  0  0  0  0  0
    6.4249   -0.9980    0.0000 H   0  0  0  0  0  0  0  0  0  0  0  0
   -1.6086    0.3343    0.0000 H   0  0  0  0  0  0  0  0  0  0  0  0
    1.6081    0.3354    0.0000 H   0  0  0  0  0  0  0  0  0  0  0  0
    1.6081   -1.5271    0.0000 H   0  0  0  0  0  0  0  0  0  0  0  0
   -1.6086   -1.5260    0.0000 H   0  0  0  0  0  0  0  0  0  0  0  0
   -7.3468   -1.3267    0.0000 H   0  0  0  0  0  0  0  0  0  0  0  0
   -7.0800   -0.2416    0.0000 H   0  0  0  0  0  0  0  0  0  0  0  0
   -0.8135   -2.7165    0.0000 H   0  0  0  0  0  0  0  0  0  0  0  0
   -6.6938    0.6500    0.0000 H   0  0  0  0  0  0  0  0  0  0  0  0
   -7.1266   -0.3812    0.0000 H   0  0  0  0  0  0  0  0  0  0  0  0
    2.8123    2.1637    0.0000 H   0  0  0  0  0  0  0  0  0  0  0  0
    3.7411    1.6292    0.0000 H   0  0  0  0  0  0  0  0  0  0  0  0
    4.2351    2.1721    0.0000 H   0  0  0  0  0  0  0  0  0  0  0  0
    3.3093    1.6304    0.0000 H   0  0  0  0  0  0  0  0  0  0  0  0
   -4.2730   -0.0304    0.0000 H   0  0  0  0  0  0  0  0  0  0  0  0
   -5.1999    0.5051    0.0000 H   0  0  0  0  0  0  0  0  0  0  0  0
    2.3469    4.0794    0.0000 H   0  0  0  0  0  0  0  0  0  0  0  0
    0.4936    4.0700    0.0000 H   0  0  0  0  0  0  0  0  0  0  0  0
    1.4176    4.6097    0.0000 H   0  0  0  0  0  0  0  0  0  0  0  0
    2.1614    1.2406    0.0000 H   0  0  0  0  0  0  0  0  0  0  0  0
    3.0679    2.8571    0.0000 H   0  0  0  0  0  0  0  0  0  0  0  0
    3.0813    1.7872    0.0000 H   0  0  0  0  0  0  0  0  0  0  0  0
   -2.6339    2.8121    0.0000 H   0  0  0  0  0  0  0  0  0  0  0  0
   -4.4871    2.8121    0.0000 H   0  0  0  0  0  0  0  0  0  0  0  0
   -3.5605    3.3471    0.0000 H   0  0  0  0  0  0  0  0  0  0  0  0
    3.5320   -0.3888    0.0000 H   0  0  0  0  0  0  0  0  0  0  0  0
    2.6015    0.1447    0.0000 H   0  0  0  0  0  0  0  0  0  0  0  0
   -4.9844    2.5221    0.0000 H   0  0  0  0  0  0  0  0  0  0  0  0
   -5.9129    0.9182    0.0000 H   0  0  0  0  0  0  0  0  0  0  0  0
   -5.9116    1.9882    0.0000 H   0  0  0  0  0  0  0  0  0  0  0  0
  2  1  1  0  0  0  0
  3 10  1  0  0  0  0
  4 13  1  0  0  0  0
  5 15  1  0  0  0  0
  5 66  1  0  0  0  0
  6 67  1  0  0  0  0
  7  2  1  0  0  0  0
  7 10  1  0  0  0  0
  7 68  1  6  0  0  0
  8  5  1  0  0  0  0
  9  6  1  0  0  0  0
 10 69  1  0  0  0  0
 11 16  1  0  0  0  0
 12  1  1  0  0  0  0
 12 21  1  0  0  0  0
 12 70  1  1  0  0  0
 13 71  1  0  0  0  0
 14  6  1  0  0  0  0
 14  4  1  0  0  0  0
 14 72  1  1  0  0  0
 15  3  1  0  0  0  0
 15 65  1  1  0  0  0
 16 73  1  0  0  0  0
 17 13  1  0  0  0  0
 17  8  1  0  0  0  0
 17 74  1  6  0  0  0
 18 24  1  0  0  0  0
 18 75  1  0  0  0  0
 18 76  1  0  0  0  0
 19 30  1  0  0  0  0
 19 28  2  0  0  0  0
 20 40  1  0  0  0  0
 22  7  1  0  0  0  0
 22 77  1  0  0  0  0
 22 78  1  0  0  0  0
 23 22  1  0  0  0  0
 24 11  1  0  0  0  0
 24 46  1  0  0  0  0
 24 79  1  1  0  0  0
 25 23  1  0  0  0  0
 25 80  1  0  0  0  0
 26 18  1  0  0  0  0
 27 16  1  0  0  0  0
 27  9  1  0  0  0  0
 27 81  1  1  0  0  0
 28 25  1  0  0  0  0
 28 82  1  0  0  0  0
 29 20  2  0  0  0  0
 29 83  1  0  0  0  0
 30 23  2  0  0  0  0
 30 84  1  0  0  0  0
 31  2  2  0  0  0  0
 32  4  2  0  0  0  0
 33  3  2  0  0  0  0
 34  8  2  0  0  0  0
 35  9  2  0  0  0  0
 36 11  2  0  0  0  0
 37 17  1  0  0  0  0
 37 85  1  0  0  0  0
 37 86  1  0  0  0  0
 38 21  2  0  0  0  0
 39 26  2  0  0  0  0
 40 58  1  0  0  0  0
 40 87  1  0  0  0  0
 41 20  1  0  0  0  0
 41 88  1  0  0  0  0
 41 89  1  0  0  0  0
 42  1  1  0  0  0  0
 42 90  1  0  0  0  0
 42 91  1  0  0  0  0
 43 14  1  0  0  0  0
 43 92  1  0  0  0  0
 44 15  1  0  0  0  0
 44 62  1  0  0  0  0
 44 93  1  1  0  0  0
 45 37  1  0  0  0  0
 46 94  1  0  0  0  0
 46 95  1  0  0  0  0
 47 21  1  0  0  0  0
 47 96  1  0  0  0  0
 48 53  1  0  0  0  0
 49 26  1  0  0  0  0
 49 97  1  0  0  0  0
 50 45  1  0  0  0  0
 50 98  1  0  0  0  0
 51 45  2  0  0  0  0
 51 99  1  0  0  0  0
 52 51  1  0  0  0  0
 52 48  2  0  0  0  0
 52100  1  0  0  0  0
 53 50  2  0  0  0  0
 53101  1  0  0  0  0
 54 12  1  0  0  0  0
 54 56  1  0  0  0  0
 54102  1  0  0  0  0
 54103  1  0  0  0  0
 55 48  1  0  0  0  0
 55104  1  0  0  0  0
 56 42  1  0  0  0  0
 56105  1  0  0  0  0
 56106  1  0  0  0  0
 57 27  1  0  0  0  0
 57107  1  0  0  0  0
 57108  1  0  0  0  0
 58 63  1  0  0  0  0
 58109  1  0  0  0  0
 58110  1  0  0  0  0
 59 44  1  0  0  0  0
 59111  1  0  0  0  0
 59112  1  0  0  0  0
 60 43  1  0  0  0  0
 60113  1  0  0  0  0
 60114  1  0  0  0  0
 60115  1  0  0  0  0
 61 43  1  0  0  0  0
 61116  1  0  0  0  0
 61117  1  0  0  0  0
 61118  1  0  0  0  0
 62119  1  0  0  0  0
 62120  1  0  0  0  0
 62121  1  0  0  0  0
 63 57  1  0  0  0  0
 63122  1  0  0  0  0
 63123  1  0  0  0  0
 64 59  1  0  0  0  0
 64124  1  0  0  0  0
 64125  1  0  0  0  0
 64126  1  0  0  0  0
M  END
>  <DRUGBANK_ID>
DB11720

>  <COMMON_NAME>
Angiotensin 1-7

>  <CAS_NUMBER>
51833-78-4

>  <UNII>
IJ3FUK8MOF

>  <SYNONYMS>
Angiotensin (1-7); Angiotensin I (1-7); Angiotensin II (1-7) heptapeptide

$$$$
