
 OpenBabel10282417072D

 94 98  0  0  1  0  0  0  0  0999 V2000
   -0.6248  -12.1480    0.0000 N   0  0  0  0  0  0  0  0  0  0  0  0
   -0.1755  -11.4562    0.0000 C   0  0  0  0  0  0  0  0  0  0  0  0
    0.6484  -11.4994    0.0000 O   0  0  0  0  0  0  0  0  0  0  0  0
   -0.5569  -10.7074    0.0000 C   0  0  0  0  0  0  0  0  0  0  0  0
   -1.0189   -9.9719    0.0000 C   0  0  2  0  0  0  0  0  0  0  0  0
   -1.3048  -10.7458    0.0000 N   0  0  0  0  0  0  0  0  0  0  0  0
   -2.1292  -10.7130    0.0000 C   0  0  0  0  0  0  0  0  0  0  0  0
   -2.8698  -10.7785    0.0000 O   0  0  0  0  0  0  0  0  0  0  0  0
   -2.3527   -9.9188    0.0000 C   0  0  0  0  0  0  0  0  0  0  0  0
   -1.7904  -10.5225    0.0000 C   0  0  0  0  0  0  0  0  0  0  0  0
   -2.0320  -11.3113    0.0000 C   0  0  0  0  0  0  0  0  0  0  0  0
   -2.8360  -11.4964    0.0000 C   0  0  0  0  0  0  0  0  0  0  0  0
   -3.3983  -10.8928    0.0000 C   0  0  0  0  0  0  0  0  0  0  0  0
   -3.1566  -10.1039    0.0000 C   0  0  0  0  0  0  0  0  0  0  0  0
   -3.0943   -9.4040    0.0000 N   0  0  0  0  0  0  0  0  0  0  0  0
   -3.0615   -8.5796    0.0000 C   0  0  0  0  0  0  0  0  0  0  0  0
   -2.2109   -8.4816    0.0000 O   0  0  0  0  0  0  0  0  0  0  0  0
   -3.7590   -8.1390    0.0000 C   0  0  0  0  0  0  0  0  0  0  0  0
   -3.7262   -7.3147    0.0000 C   0  0  2  0  0  0  0  0  0  0  0  0
   -2.9958   -6.9309    0.0000 C   0  0  0  0  0  0  0  0  0  0  0  0
   -2.2983   -7.3715    0.0000 C   0  0  0  0  0  0  0  0  0  0  0  0
   -1.5680   -6.9878    0.0000 C   0  0  0  0  0  0  0  0  0  0  0  0
   -0.8705   -7.4284    0.0000 C   0  0  2  0  0  0  0  0  0  0  0  0
   -0.9034   -8.2527    0.0000 C   0  0  0  0  0  0  0  0  0  0  0  0
   -0.2059   -8.6933    0.0000 N   0  0  0  0  0  0  0  0  0  0  0  0
   -0.2387   -9.5177    0.0000 C   0  0  0  0  0  0  0  0  0  0  0  0
    0.5775   -9.7215    0.0000 O   0  0  0  0  0  0  0  0  0  0  0  0
   -0.1074   -7.0281    0.0000 C   0  0  0  0  0  0  0  0  0  0  0  0
   -0.1074   -6.2203    0.0000 C   0  0  0  0  0  0  0  0  0  0  0  0
   -0.8219   -5.8078    0.0000 C   0  0  0  0  0  0  0  0  0  0  0  0
   -0.8219   -4.9828    0.0000 C   0  0  0  0  0  0  0  0  0  0  0  0
   -0.1074   -4.5703    0.0000 C   0  0  0  0  0  0  0  0  0  0  0  0
    0.6071   -4.9828    0.0000 C   0  0  0  0  0  0  0  0  0  0  0  0
    1.3215   -4.5703    0.0000 C   0  0  0  0  0  0  0  0  0  0  0  0
    2.0360   -4.9828    0.0000 C   0  0  0  0  0  0  0  0  0  0  0  0
    2.0360   -5.8078    0.0000 C   0  0  0  0  0  0  0  0  0  0  0  0
    1.3215   -6.2203    0.0000 C   0  0  0  0  0  0  0  0  0  0  0  0
    0.6071   -5.8078    0.0000 C   0  0  0  0  0  0  0  0  0  0  0  0
   -4.4237   -6.8741    0.0000 C   0  0  0  0  0  0  0  0  0  0  0  0
   -5.1540   -7.2578    0.0000 C   0  0  0  0  0  0  0  0  0  0  0  0
   -5.8515   -6.8172    0.0000 C   0  0  0  0  0  0  0  0  0  0  0  0
   -5.8186   -5.9929    0.0000 C   0  0  0  0  0  0  0  0  0  0  0  0
   -6.5161   -5.5523    0.0000 C   0  0  0  0  0  0  0  0  0  0  0  0
   -7.2465   -5.9361    0.0000 P   0  0  0  0  0  0  0  0  0  0  0  0
   -7.9768   -6.3198    0.0000 O   0  0  0  0  0  0  0  0  0  0  0  0
   -7.6302   -5.2057    0.0000 O   0  0  0  0  0  0  0  0  0  0  0  0
   -6.8627   -6.6664    0.0000 O   0  0  0  0  0  0  0  0  0  0  0  0
   -5.0883   -5.6091    0.0000 C   0  0  0  0  0  0  0  0  0  0  0  0
   -4.3908   -6.0497    0.0000 C   0  0  0  0  0  0  0  0  0  0  0  0
   -1.6079  -12.0964    0.0000 H   0  0  0  0  0  0  0  0  0  0  0  0
   -0.1779  -13.0252    0.0000 H   0  0  0  0  0  0  0  0  0  0  0  0
    0.3738  -10.1795    0.0000 H   0  0  0  0  0  0  0  0  0  0  0  0
   -0.2953   -9.6699    0.0000 H   0  0  0  0  0  0  0  0  0  0  0  0
   -0.9084  -11.0362    0.0000 H   0  0  0  0  0  0  0  0  0  0  0  0
   -0.7582  -11.5646    0.0000 H   0  0  0  0  0  0  0  0  0  0  0  0
   -0.7477  -10.2824    0.0000 H   0  0  0  0  0  0  0  0  0  0  0  0
   -1.0611  -11.3054    0.0000 H   0  0  0  0  0  0  0  0  0  0  0  0
   -1.3027  -12.0943    0.0000 H   0  0  0  0  0  0  0  0  0  0  0  0
   -2.3454  -12.3344    0.0000 H   0  0  0  0  0  0  0  0  0  0  0  0
   -3.1494  -12.5195    0.0000 H   0  0  0  0  0  0  0  0  0  0  0  0
   -3.8787  -11.7365    0.0000 H   0  0  0  0  0  0  0  0  0  0  0  0
   -4.4410  -11.1329    0.0000 H   0  0  0  0  0  0  0  0  0  0  0  0
   -4.1276  -10.1098    0.0000 H   0  0  0  0  0  0  0  0  0  0  0  0
   -3.8859   -9.3209    0.0000 H   0  0  0  0  0  0  0  0  0  0  0  0
   -2.8432   -9.0808    0.0000 H   0  0  0  0  0  0  0  0  0  0  0  0
   -3.9755   -9.8429    0.0000 H   0  0  0  0  0  0  0  0  0  0  0  0
   -4.7062   -8.6367    0.0000 H   0  0  0  0  0  0  0  0  0  0  0  0
   -4.6636   -7.5676    0.0000 H   0  0  0  0  0  0  0  0  0  0  0  0
   -4.6734   -7.8124    0.0000 H   0  0  0  0  0  0  0  0  0  0  0  0
   -2.9547   -5.8997    0.0000 H   0  0  0  0  0  0  0  0  0  0  0  0
   -2.3394   -8.4027    0.0000 H   0  0  0  0  0  0  0  0  0  0  0  0
   -1.5254   -5.9186    0.0000 H   0  0  0  0  0  0  0  0  0  0  0  0
   -0.6208   -6.4901    0.0000 H   0  0  0  0  0  0  0  0  0  0  0  0
   -0.8276   -6.3593    0.0000 H   0  0  0  0  0  0  0  0  0  0  0  0
   -1.8506   -8.7504    0.0000 H   0  0  0  0  0  0  0  0  0  0  0  0
   -0.9460   -9.3219    0.0000 H   0  0  0  0  0  0  0  0  0  0  0  0
    0.6656   -8.2353    0.0000 H   0  0  0  0  0  0  0  0  0  0  0  0
    0.8082   -7.5817    0.0000 H   0  0  0  0  0  0  0  0  0  0  0  0
    0.8246   -6.5025    0.0000 H   0  0  0  0  0  0  0  0  0  0  0  0
   -1.7156   -6.3238    0.0000 H   0  0  0  0  0  0  0  0  0  0  0  0
   -1.7156   -4.4668    0.0000 H   0  0  0  0  0  0  0  0  0  0  0  0
   -0.1074   -3.5383    0.0000 H   0  0  0  0  0  0  0  0  0  0  0  0
    1.3215   -3.5383    0.0000 H   0  0  0  0  0  0  0  0  0  0  0  0
    2.9297   -4.4668    0.0000 H   0  0  0  0  0  0  0  0  0  0  0  0
    2.9297   -6.3238    0.0000 H   0  0  0  0  0  0  0  0  0  0  0  0
    1.3215   -7.2523    0.0000 H   0  0  0  0  0  0  0  0  0  0  0  0
   -5.1951   -8.2890    0.0000 H   0  0  0  0  0  0  0  0  0  0  0  0
   -6.7651   -7.2972    0.0000 H   0  0  0  0  0  0  0  0  0  0  0  0
   -6.4735   -4.4831    0.0000 H   0  0  0  0  0  0  0  0  0  0  0  0
   -7.4207   -4.9809    0.0000 H   0  0  0  0  0  0  0  0  0  0  0  0
   -8.7969   -5.8017    0.0000 H   0  0  0  0  0  0  0  0  0  0  0  0
   -7.1121   -4.3857    0.0000 H   0  0  0  0  0  0  0  0  0  0  0  0
   -5.0473   -4.5779    0.0000 H   0  0  0  0  0  0  0  0  0  0  0  0
   -3.4772   -5.5697    0.0000 H   0  0  0  0  0  0  0  0  0  0  0  0
  1  2  1  0  0  0  0
  1 50  1  0  0  0  0
  1 51  1  0  0  0  0
  2  3  2  0  0  0  0
  2  4  1  0  0  0  0
  4 52  1  0  0  0  0
  4 53  1  0  0  0  0
  5  4  1  0  0  0  0
  5  6  1  0  0  0  0
  5 26  1  0  0  0  0
  5 54  1  1  0  0  0
  6  7  1  0  0  0  0
  6 55  1  0  0  0  0
  7  8  2  0  0  0  0
  7  9  1  0  0  0  0
  9 10  1  0  0  0  0
  9 14  1  0  0  0  0
  9 15  1  0  0  0  0
 10 11  1  0  0  0  0
 10 56  1  0  0  0  0
 10 57  1  0  0  0  0
 11 12  1  0  0  0  0
 11 58  1  0  0  0  0
 11 59  1  0  0  0  0
 12 13  1  0  0  0  0
 12 60  1  0  0  0  0
 12 61  1  0  0  0  0
 13 14  1  0  0  0  0
 13 62  1  0  0  0  0
 13 63  1  0  0  0  0
 14 64  1  0  0  0  0
 14 65  1  0  0  0  0
 15 16  1  0  0  0  0
 15 66  1  0  0  0  0
 16 17  2  0  0  0  0
 16 18  1  0  0  0  0
 18 19  1  0  0  0  0
 18 67  1  0  0  0  0
 18 68  1  0  0  0  0
 19 20  1  0  0  0  0
 19 39  1  0  0  0  0
 19 69  1  6  0  0  0
 20 21  2  0  0  0  0
 20 70  1  0  0  0  0
 21 22  1  0  0  0  0
 21 71  1  0  0  0  0
 22 23  1  0  0  0  0
 22 72  1  0  0  0  0
 22 73  1  0  0  0  0
 23 24  1  0  0  0  0
 23 28  1  0  0  0  0
 23 74  1  6  0  0  0
 24 25  1  0  0  0  0
 24 75  1  0  0  0  0
 24 76  1  0  0  0  0
 25 26  1  0  0  0  0
 25 77  1  0  0  0  0
 26 27  2  0  0  0  0
 28 29  1  0  0  0  0
 28 78  1  0  0  0  0
 28 79  1  0  0  0  0
 29 30  2  0  0  0  0
 29 38  1  0  0  0  0
 30 31  1  0  0  0  0
 30 80  1  0  0  0  0
 31 32  2  0  0  0  0
 31 81  1  0  0  0  0
 32 33  1  0  0  0  0
 32 82  1  0  0  0  0
 33 34  2  0  0  0  0
 33 38  1  0  0  0  0
 34 35  1  0  0  0  0
 34 83  1  0  0  0  0
 35 36  2  0  0  0  0
 35 84  1  0  0  0  0
 36 37  1  0  0  0  0
 36 85  1  0  0  0  0
 37 38  2  0  0  0  0
 37 86  1  0  0  0  0
 39 40  2  0  0  0  0
 39 49  1  0  0  0  0
 40 41  1  0  0  0  0
 40 87  1  0  0  0  0
 41 42  2  0  0  0  0
 41 88  1  0  0  0  0
 42 43  1  0  0  0  0
 42 48  1  0  0  0  0
 43 44  1  0  0  0  0
 43 89  1  0  0  0  0
 43 90  1  0  0  0  0
 44 45  1  0  0  0  0
 44 46  1  0  0  0  0
 44 47  2  0  0  0  0
 45 91  1  0  0  0  0
 46 92  1  0  0  0  0
 48 49  2  0  0  0  0
 48 93  1  0  0  0  0
 49 94  1  0  0  0  0
M  END
>  <DRUGBANK_ID>
DB03276

>  <SECONDARY_ACCESSION_NUMBERS>
EXPT01283

>  <COMMON_NAME>
4-[(10s,14s,18s)-18-(2-Amino-2-Oxoethyl)-14-(1-Naphthylmethyl)-8,17,20-Trioxo-7,16,19-Triazaspiro[5.14]Icos-11-En-10-Yl]Benzylphosphonic Acid

$$$$
