
 OpenBabel10282417072D

 57 60  0  0  0  0  0  0  0  0999 V2000
    0.6948   -0.1983    0.0000 C   0  0  1  0  0  0  0  0  0  0  0  0
    0.7048    0.6038    0.0000 C   0  0  2  0  0  0  0  0  0  0  0  0
   -0.0398   -0.6034    0.0000 C   0  0  2  0  0  0  0  0  0  0  0  0
    1.4168   -0.6403    0.0000 C   0  0  1  0  0  0  0  0  0  0  0  0
   -0.0005    1.0216    0.0000 C   0  0  0  0  0  0  0  0  0  0  0  0
    1.4548    1.0458    0.0000 C   0  0  0  0  0  0  0  0  0  0  0  0
    0.7048    1.4289    0.0000 O   0  0  0  0  0  0  0  0  0  0  0  0
   -0.7495   -0.1971    0.0000 C   0  0  1  0  0  0  0  0  0  0  0  0
   -0.0398   -1.4283    0.0000 O   0  0  0  0  0  0  0  0  0  0  0  0
    2.1632   -0.2198    0.0000 C   0  0  0  0  0  0  0  0  0  0  0  0
    1.4168   -1.4652    0.0000 N   0  0  0  0  0  0  0  0  0  0  0  0
   -0.7425    0.6279    0.0000 C   0  0  0  0  0  0  0  0  0  0  0  0
   -0.0005    1.8465    0.0000 O   0  0  0  0  0  0  0  0  0  0  0  0
    2.1697    0.5922    0.0000 C   0  0  0  0  0  0  0  0  0  0  0  0
    1.4548    1.8708    0.0000 O   0  0  0  0  0  0  0  0  0  0  0  0
   -1.4708   -0.6022    0.0000 C   0  0  2  0  0  0  0  0  0  0  0  0
    2.8790   -0.6324    0.0000 O   0  0  0  0  0  0  0  0  0  0  0  0
    2.1245   -1.8729    0.0000 C   0  0  0  0  0  0  0  0  0  0  0  0
    0.6967   -1.8783    0.0000 C   0  0  0  0  0  0  0  0  0  0  0  0
   -1.4412    1.0533    0.0000 C   0  0  0  0  0  0  0  0  0  0  0  0
    2.8856    1.0048    0.0000 C   0  0  0  0  0  0  0  0  0  0  0  0
   -2.1746   -0.1843    0.0000 C   0  0  0  0  0  0  0  0  0  0  0  0
   -2.1066   -1.1256    0.0000 C   0  0  0  0  0  0  0  0  0  0  0  0
   -2.1746    0.6407    0.0000 C   0  0  0  0  0  0  0  0  0  0  0  0
   -1.4412    1.8783    0.0000 O   0  0  0  0  0  0  0  0  0  0  0  0
    3.6053    0.5878    0.0000 N   0  0  0  0  0  0  0  0  0  0  0  0
    2.8856    1.8250    0.0000 O   0  0  0  0  0  0  0  0  0  0  0  0
   -2.8910   -0.5852    0.0000 C   0  0  0  0  0  0  0  0  0  0  0  0
   -2.8594    1.0533    0.0000 C   0  0  0  0  0  0  0  0  0  0  0  0
   -3.6053   -0.1740    0.0000 C   0  0  0  0  0  0  0  0  0  0  0  0
   -3.6053    0.6523    0.0000 C   0  0  0  0  0  0  0  0  0  0  0  0
   -2.8594    1.8782    0.0000 O   0  0  0  0  0  0  0  0  0  0  0  0
    0.6948   -1.0228    0.0000 H   0  0  0  0  0  0  0  0  0  0  0  0
   -0.7495   -1.0221    0.0000 H   0  0  0  0  0  0  0  0  0  0  0  0
   -1.2603   -1.3979    0.0000 O   0  0  0  0  0  0  0  0  0  0  0  0
    0.8815   -1.1475    0.0000 H   0  0  0  0  0  0  0  0  0  0  0  0
    0.4833   -1.1633    0.0000 H   0  0  0  0  0  0  0  0  0  0  0  0
    1.5448    1.9139    0.0000 H   0  0  0  0  0  0  0  0  0  0  0  0
   -0.8798   -1.9133    0.0000 H   0  0  0  0  0  0  0  0  0  0  0  0
    0.8110    2.3150    0.0000 H   0  0  0  0  0  0  0  0  0  0  0  0
    2.8797   -1.5694    0.0000 H   0  0  0  0  0  0  0  0  0  0  0  0
    2.1255   -2.9429    0.0000 H   0  0  0  0  0  0  0  0  0  0  0  0
    3.0506   -1.3370    0.0000 H   0  0  0  0  0  0  0  0  0  0  0  0
    3.0517   -2.4070    0.0000 H   0  0  0  0  0  0  0  0  0  0  0  0
   -0.2285   -1.3407    0.0000 H   0  0  0  0  0  0  0  0  0  0  0  0
    0.6937   -2.9483    0.0000 H   0  0  0  0  0  0  0  0  0  0  0  0
   -0.2314   -2.4107    0.0000 H   0  0  0  0  0  0  0  0  0  0  0  0
   -3.1086   -0.7502    0.0000 H   0  0  0  0  0  0  0  0  0  0  0  0
   -1.9307   -2.1810    0.0000 H   0  0  0  0  0  0  0  0  0  0  0  0
   -2.9327   -1.8057    0.0000 H   0  0  0  0  0  0  0  0  0  0  0  0
    3.6038   -0.3967    0.0000 H   0  0  0  0  0  0  0  0  0  0  0  0
    4.4587    1.0787    0.0000 H   0  0  0  0  0  0  0  0  0  0  0  0
   -2.8973   -1.6172    0.0000 H   0  0  0  0  0  0  0  0  0  0  0  0
   -4.4987   -0.6906    0.0000 H   0  0  0  0  0  0  0  0  0  0  0  0
   -4.4911    1.1818    0.0000 H   0  0  0  0  0  0  0  0  0  0  0  0
   -2.0479    2.3467    0.0000 H   0  0  0  0  0  0  0  0  0  0  0  0
   -1.9484   -2.0816    0.0000 H   0  0  0  0  0  0  0  0  0  0  0  0
  1  2  1  0  0  0  0
  1  3  1  0  0  0  0
  1  4  1  0  0  0  0
  1 33  1  1  0  0  0
  2  5  1  0  0  0  0
  2  6  1  0  0  0  0
  2  7  1  1  0  0  0
  3  8  1  0  0  0  0
  3  9  1  0  0  0  0
  3 36  1  6  0  0  0
  4 10  1  0  0  0  0
  4 11  1  0  0  0  0
  4 37  1  6  0  0  0
  5 12  2  0  0  0  0
  5 13  1  0  0  0  0
  6 14  1  0  0  0  0
  6 15  2  0  0  0  0
  7 38  1  0  0  0  0
  8 16  1  0  0  0  0
  8 12  1  0  0  0  0
  8 34  1  1  0  0  0
  9 39  1  0  0  0  0
 10 17  1  0  0  0  0
 10 14  2  0  0  0  0
 11 18  1  0  0  0  0
 11 19  1  0  0  0  0
 12 20  1  0  0  0  0
 13 40  1  0  0  0  0
 14 21  1  0  0  0  0
 16 22  1  0  0  0  0
 16 23  1  0  0  0  0
 16 35  1  6  0  0  0
 17 41  1  0  0  0  0
 18 42  1  0  0  0  0
 18 43  1  0  0  0  0
 18 44  1  0  0  0  0
 19 45  1  0  0  0  0
 19 46  1  0  0  0  0
 19 47  1  0  0  0  0
 20 24  1  0  0  0  0
 20 25  2  0  0  0  0
 21 26  1  0  0  0  0
 21 27  2  0  0  0  0
 22 28  1  0  0  0  0
 22 24  2  0  0  0  0
 23 48  1  0  0  0  0
 23 49  1  0  0  0  0
 23 50  1  0  0  0  0
 24 29  1  0  0  0  0
 26 51  1  0  0  0  0
 26 52  1  0  0  0  0
 28 30  2  0  0  0  0
 28 53  1  0  0  0  0
 29 31  2  0  0  0  0
 29 32  1  0  0  0  0
 30 31  1  0  0  0  0
 30 54  1  0  0  0  0
 31 55  1  0  0  0  0
 32 56  1  0  0  0  0
 35 57  1  0  0  0  0
M  END
>  <DRUGBANK_ID>
DB00595

>  <SECONDARY_ACCESSION_NUMBERS>
APRD00019

>  <COMMON_NAME>
Oxytetracycline

>  <CAS_NUMBER>
79-57-2

>  <UNII>
SLF0D9077S

>  <SYNONYMS>
5-Hydroxytetracycline; Embryostat; Hydroxytetracyclinum; Mepatar; Ossitetraciclina; Oxitetraciclina; Oxyterracin; Oxyterracine; Oxytetracyclin; Oxyt√©tracycline; Oxytetracycline; Oxytetracycline (anhydrous); Oxytetracycline amphoteric; Oxytetracyclinum

$$$$
