
 OpenBabel10282417072D

 35 35  0  0  0  0  0  0  0  0999 V2000
   -0.3572   -1.8562    0.0000 O   0  0  0  0  0  0  0  0  0  0  0  0
   -1.7861   -0.2062    0.0000 O   0  0  0  0  0  0  0  0  0  0  0  0
   -2.5007   -1.4437    0.0000 O   0  0  0  0  0  0  0  0  0  0  0  0
   -2.5007   -3.0938    0.0000 O   0  0  0  0  0  0  0  0  0  0  0  0
    1.0717    3.0938    0.0000 O   0  0  0  0  0  0  0  0  0  0  0  0
    2.5007    0.6187    0.0000 O   0  0  0  0  0  0  0  0  0  0  0  0
   -0.3572    3.0938    0.0000 O   0  5  0  0  0  0  0  0  0  0  0  0
   -1.0716    1.8562    0.0000 O   0  0  0  0  0  0  0  0  0  0  0  0
   -0.3572    0.6187    0.0000 N   0  0  0  0  0  0  0  0  0  0  0  0
    1.0717    0.6187    0.0000 N   0  0  0  0  0  0  0  0  0  0  0  0
    1.7862    1.8562    0.0000 N   0  0  0  0  0  0  0  0  0  0  0  0
   -0.3572    2.2687    0.0000 N   0  3  0  0  0  0  0  0  0  0  0  0
   -1.0716   -1.4437    0.0000 C   0  0  1  0  0  0  0  0  0  0  0  0
   -1.0716   -0.6187    0.0000 C   0  0  2  0  0  0  0  0  0  0  0  0
   -1.7861   -1.8562    0.0000 C   0  0  1  0  0  0  0  0  0  0  0  0
   -0.3572   -0.2062    0.0000 C   0  0  0  0  0  0  0  0  0  0  0  0
   -1.7861   -2.6813    0.0000 C   0  0  0  0  0  0  0  0  0  0  0  0
    0.3572    1.0312    0.0000 C   0  0  0  0  0  0  0  0  0  0  0  0
    0.3572    1.8562    0.0000 C   0  0  0  0  0  0  0  0  0  0  0  0
    1.0717    2.2687    0.0000 C   0  0  0  0  0  0  0  0  0  0  0  0
    1.7862    1.0312    0.0000 C   0  0  0  0  0  0  0  0  0  0  0  0
   -0.8001    0.8745    0.0000 H   0  0  0  0  0  0  0  0  0  0  0  0
    1.0717    0.1072    0.0000 H   0  0  0  0  0  0  0  0  0  0  0  0
    2.2291    2.1120    0.0000 H   0  0  0  0  0  0  0  0  0  0  0  0
   -0.3572   -2.8262    0.0000 H   0  0  0  0  0  0  0  0  0  0  0  0
   -1.7861    0.7638    0.0000 H   0  0  0  0  0  0  0  0  0  0  0  0
   -2.5008   -0.4737    0.0000 H   0  0  0  0  0  0  0  0  0  0  0  0
   -3.3407   -2.6087    0.0000 H   0  0  0  0  0  0  0  0  0  0  0  0
   -0.1449   -0.9087    0.0000 H   0  0  0  0  0  0  0  0  0  0  0  0
   -1.9982   -1.1537    0.0000 H   0  0  0  0  0  0  0  0  0  0  0  0
   -1.7861   -0.7862    0.0000 H   0  0  0  0  0  0  0  0  0  0  0  0
    0.5695   -0.7412    0.0000 H   0  0  0  0  0  0  0  0  0  0  0  0
   -0.3572   -1.2762    0.0000 H   0  0  0  0  0  0  0  0  0  0  0  0
   -0.8595   -3.2163    0.0000 H   0  0  0  0  0  0  0  0  0  0  0  0
   -0.8594   -2.1463    0.0000 H   0  0  0  0  0  0  0  0  0  0  0  0
  1 25  1  0  0  0  0
  2 26  1  0  0  0  0
  3 27  1  0  0  0  0
  4 17  1  0  0  0  0
  4 28  1  0  0  0  0
  5 20  2  0  0  0  0
  6 21  2  0  0  0  0
  7 12  1  0  0  0  0
  8 12  2  0  0  0  0
  9 16  1  0  0  0  0
  9 18  1  0  0  0  0
  9 22  1  0  0  0  0
 10 18  1  0  0  0  0
 10 21  1  0  0  0  0
 10 23  1  0  0  0  0
 11 20  1  0  0  0  0
 11 21  1  0  0  0  0
 11 24  1  0  0  0  0
 12 19  1  0  0  0  0
 13  1  1  0  0  0  0
 13 14  1  0  0  0  0
 13 15  1  0  0  0  0
 13 29  1  1  0  0  0
 14  2  1  0  0  0  0
 14 16  1  0  0  0  0
 14 30  1  6  0  0  0
 15  3  1  0  0  0  0
 15 17  1  0  0  0  0
 15 31  1  6  0  0  0
 16 32  1  0  0  0  0
 16 33  1  0  0  0  0
 17 34  1  0  0  0  0
 17 35  1  0  0  0  0
 18 19  2  0  0  0  0
 19 20  1  0  0  0  0
M  CHG  2   7  -1  12   1
M  END
>  <DRUGBANK_ID>
DB04162

>  <SECONDARY_ACCESSION_NUMBERS>
EXPT01887

>  <COMMON_NAME>
5-Nitro-6-ribityl-amino-2,4(1H,3H)-pyrimidinedione

$$$$
