1010
 OpenBabel10282417072D

 28 28  0  0  0  0  0  0  0  0999 V2000
    1.6500   -1.6005    0.0000 O   0  0  0  0  0  0  0  0  0  0  0  0
    3.0791    0.8745    0.0000 N   0  3  0  0  0  0  0  0  0  0  0  0
    3.0791    1.6995    0.0000 C   0  0  0  0  0  0  0  0  0  0  0  0
    3.0791    0.0495    0.0000 C   0  0  0  0  0  0  0  0  0  0  0  0
    3.9041    0.8745    0.0000 C   0  0  0  0  0  0  0  0  0  0  0  0
    2.2540    0.8745    0.0000 C   0  0  0  0  0  0  0  0  0  0  0  0
    3.7935    2.1120    0.0000 C   0  0  0  0  0  0  0  0  0  0  0  0
    2.3645   -0.3630    0.0000 C   0  0  0  0  0  0  0  0  0  0  0  0
    3.7935   -0.3630    0.0000 C   0  0  0  0  0  0  0  0  0  0  0  0
    2.3645   -1.1880    0.0000 C   0  0  0  0  0  0  0  0  0  0  0  0
    3.7935   -1.1880    0.0000 C   0  0  0  0  0  0  0  0  0  0  0  0
    3.0791   -1.6005    0.0000 C   0  0  0  0  0  0  0  0  0  0  0  0
    0.8385   -1.1320    0.0000 H   0  0  0  0  0  0  0  0  0  0  0  0
    2.1524    2.2345    0.0000 H   0  0  0  0  0  0  0  0  0  0  0  0
    3.0791    2.7695    0.0000 H   0  0  0  0  0  0  0  0  0  0  0  0
    4.4391   -0.0521    0.0000 H   0  0  0  0  0  0  0  0  0  0  0  0
    4.4391    1.8011    0.0000 H   0  0  0  0  0  0  0  0  0  0  0  0
    4.9741    0.8745    0.0000 H   0  0  0  0  0  0  0  0  0  0  0  0
    1.7190    1.8011    0.0000 H   0  0  0  0  0  0  0  0  0  0  0  0
    1.7190   -0.0521    0.0000 H   0  0  0  0  0  0  0  0  0  0  0  0
    1.1840    0.8745    0.0000 H   0  0  0  0  0  0  0  0  0  0  0  0
    4.7202    1.5770    0.0000 H   0  0  0  0  0  0  0  0  0  0  0  0
    3.7935    3.1820    0.0000 H   0  0  0  0  0  0  0  0  0  0  0  0
    4.7201    2.6470    0.0000 H   0  0  0  0  0  0  0  0  0  0  0  0
    1.4708    0.1530    0.0000 H   0  0  0  0  0  0  0  0  0  0  0  0
    4.6872    0.1530    0.0000 H   0  0  0  0  0  0  0  0  0  0  0  0
    4.6872   -1.7040    0.0000 H   0  0  0  0  0  0  0  0  0  0  0  0
    3.0792   -2.6325    0.0000 H   0  0  0  0  0  0  0  0  0  0  0  0
  1 10  1  0  0  0  0
  1 13  1  0  0  0  0
  2  3  1  0  0  0  0
  2  4  1  0  0  0  0
  2  5  1  0  0  0  0
  2  6  1  0  0  0  0
  3  7  1  0  0  0  0
  3 14  1  0  0  0  0
  3 15  1  0  0  0  0
  4  8  2  0  0  0  0
  4  9  1  0  0  0  0
  5 16  1  0  0  0  0
  5 17  1  0  0  0  0
  5 18  1  0  0  0  0
  6 19  1  0  0  0  0
  6 20  1  0  0  0  0
  6 21  1  0  0  0  0
  7 22  1  0  0  0  0
  7 23  1  0  0  0  0
  7 24  1  0  0  0  0
  8 10  1  0  0  0  0
  8 25  1  0  0  0  0
  9 11  2  0  0  0  0
  9 26  1  0  0  0  0
 10 12  2  0  0  0  0
 11 12  1  0  0  0  0
 11 27  1  0  0  0  0
 12 28  1  0  0  0  0
M  CHG  1   2   1
M  END
>  <DRUGBANK_ID>
DB01010

>  <SECONDARY_ACCESSION_NUMBERS>
APRD00944

>  <COMMON_NAME>
Edrophonium

>  <CAS_NUMBER>
312-48-1

>  <UNII>
70FP3JLY7N

>  <SYNONYMS>
(3-hydroxyphenyl)dimethylethylammonium; 3-hydroxy-N,N-dimethyl-N-ethylanilinium; Edrophonium cation; Edrophonium ion; Ethyl-(3-hydroxy-phenyl)-dimethyl-ammonium; N-ethyl-3-hydroxy-N,N-dimethylanilinium; N-ethyl-3-hydroxy-N,N-dimethylbenzenaminium

$$$$
