
 OpenBabel10282417072D

 64 67  0  0  0  0  0  0  0  0999 V2000
    1.4842   -1.5947    0.0000 O   0  0  0  0  0  0  0  0  0  0  0  0
    2.1987   -2.0072    0.0000 C   0  0  0  0  0  0  0  0  0  0  0  0
    2.9131   -1.5947    0.0000 C   0  0  0  0  0  0  0  0  0  0  0  0
    3.6275   -2.0072    0.0000 N   0  0  0  0  0  0  0  0  0  0  0  0
    4.3421   -1.5947    0.0000 C   0  0  0  0  0  0  0  0  0  0  0  0
    5.0565   -2.0072    0.0000 C   0  0  0  0  0  0  0  0  0  0  0  0
    5.7710   -1.5947    0.0000 C   0  0  0  0  0  0  0  0  0  0  0  0
    4.3421   -0.7696    0.0000 O   0  0  0  0  0  0  0  0  0  0  0  0
    3.6275   -2.8322    0.0000 C   0  0  0  0  0  0  0  0  0  0  0  0
    1.4842   -0.7696    0.0000 C   0  0  0  0  0  0  0  0  0  0  0  0
    0.7697   -0.3572    0.0000 C   0  0  0  0  0  0  0  0  0  0  0  0
    0.7697    0.4677    0.0000 N   0  0  0  0  0  0  0  0  0  0  0  0
    1.4842    0.8802    0.0000 C   0  0  0  0  0  0  0  0  0  0  0  0
    2.1987    0.4677    0.0000 N   0  0  0  0  0  0  0  0  0  0  0  0
    2.1987   -0.3572    0.0000 C   0  0  0  0  0  0  0  0  0  0  0  0
    2.9131   -0.7696    0.0000 N   0  0  0  0  0  0  0  0  0  0  0  0
    0.0553   -0.7696    0.0000 C   0  0  0  0  0  0  0  0  0  0  0  0
   -0.6591   -0.3572    0.0000 C   0  0  0  0  0  0  0  0  0  0  0  0
   -0.6591    0.4677    0.0000 C   0  0  0  0  0  0  0  0  0  0  0  0
   -1.3736   -0.7696    0.0000 C   0  0  0  0  0  0  0  0  0  0  0  0
   -2.0881   -0.3572    0.0000 N   0  0  0  0  0  0  0  0  0  0  0  0
   -2.0881    0.4677    0.0000 C   0  0  0  0  0  0  0  0  0  0  0  0
   -1.3736    0.8802    0.0000 O   0  0  0  0  0  0  0  0  0  0  0  0
   -2.8026    0.8802    0.0000 C   0  0  0  0  0  0  0  0  0  0  0  0
   -2.8026    1.7052    0.0000 C   0  0  0  0  0  0  0  0  0  0  0  0
   -2.0882    2.1177    0.0000 F   0  0  0  0  0  0  0  0  0  0  0  0
   -3.5171    2.1176    0.0000 C   0  0  0  0  0  0  0  0  0  0  0  0
   -4.2314    1.7052    0.0000 C   0  0  0  0  0  0  0  0  0  0  0  0
   -4.2314    0.8802    0.0000 C   0  0  0  0  0  0  0  0  0  0  0  0
   -3.5171    0.4677    0.0000 C   0  0  0  0  0  0  0  0  0  0  0  0
   -4.9460    2.1176    0.0000 C   0  0  0  0  0  0  0  0  0  0  0  0
   -5.7710    2.1176    0.0000 C   0  0  0  0  0  0  0  0  0  0  0  0
   -5.3585    2.8321    0.0000 C   0  0  0  0  0  0  0  0  0  0  0  0
   -1.3736   -1.5947    0.0000 C   0  0  0  0  0  0  0  0  0  0  0  0
   -0.6591   -2.0072    0.0000 C   0  0  0  0  0  0  0  0  0  0  0  0
    0.0553   -1.5947    0.0000 C   0  0  0  0  0  0  0  0  0  0  0  0
   -0.6591   -2.8322    0.0000 F   0  0  0  0  0  0  0  0  0  0  0  0
    2.1987   -3.0772    0.0000 H   0  0  0  0  0  0  0  0  0  0  0  0
    3.1254   -2.5422    0.0000 H   0  0  0  0  0  0  0  0  0  0  0  0
    2.9131   -0.5247    0.0000 H   0  0  0  0  0  0  0  0  0  0  0  0
    3.8398   -1.0597    0.0000 H   0  0  0  0  0  0  0  0  0  0  0  0
    5.0565   -3.0392    0.0000 H   0  0  0  0  0  0  0  0  0  0  0  0
    6.6647   -2.1107    0.0000 H   0  0  0  0  0  0  0  0  0  0  0  0
    5.7710   -0.5627    0.0000 H   0  0  0  0  0  0  0  0  0  0  0  0
    2.7009   -3.3672    0.0000 H   0  0  0  0  0  0  0  0  0  0  0  0
    4.5541   -3.3672    0.0000 H   0  0  0  0  0  0  0  0  0  0  0  0
    3.6275   -3.9022    0.0000 H   0  0  0  0  0  0  0  0  0  0  0  0
    1.4842    1.9122    0.0000 H   0  0  0  0  0  0  0  0  0  0  0  0
    2.9132   -1.7541    0.0000 H   0  0  0  0  0  0  0  0  0  0  0  0
    3.7657   -0.2773    0.0000 H   0  0  0  0  0  0  0  0  0  0  0  0
    0.2675    1.0027    0.0000 H   0  0  0  0  0  0  0  0  0  0  0  0
   -1.5857    1.0027    0.0000 H   0  0  0  0  0  0  0  0  0  0  0  0
   -0.6591    1.5377    0.0000 H   0  0  0  0  0  0  0  0  0  0  0  0
   -2.9407   -0.8495    0.0000 H   0  0  0  0  0  0  0  0  0  0  0  0
   -3.5172    3.1496    0.0000 H   0  0  0  0  0  0  0  0  0  0  0  0
   -5.1252    0.3642    0.0000 H   0  0  0  0  0  0  0  0  0  0  0  0
   -3.5172   -0.5643    0.0000 H   0  0  0  0  0  0  0  0  0  0  0  0
   -5.8726    2.6526    0.0000 H   0  0  0  0  0  0  0  0  0  0  0  0
   -6.6976    1.5826    0.0000 H   0  0  0  0  0  0  0  0  0  0  0  0
   -6.5276    2.8742    0.0000 H   0  0  0  0  0  0  0  0  0  0  0  0
   -5.3585    3.9021    0.0000 H   0  0  0  0  0  0  0  0  0  0  0  0
   -4.3250    3.1090    0.0000 H   0  0  0  0  0  0  0  0  0  0  0  0
   -2.2673   -2.1107    0.0000 H   0  0  0  0  0  0  0  0  0  0  0  0
    0.9490   -2.1107    0.0000 H   0  0  0  0  0  0  0  0  0  0  0  0
  1  2  1  0  0  0  0
  1 10  1  0  0  0  0
  2  3  1  0  0  0  0
  2 38  1  0  0  0  0
  2 39  1  0  0  0  0
  3  4  1  0  0  0  0
  3 40  1  0  0  0  0
  3 41  1  0  0  0  0
  4  5  1  0  0  0  0
  4  9  1  0  0  0  0
  5  6  1  0  0  0  0
  5  8  2  0  0  0  0
  6  7  2  0  0  0  0
  6 42  1  0  0  0  0
  7 43  1  0  0  0  0
  7 44  1  0  0  0  0
  9 45  1  0  0  0  0
  9 46  1  0  0  0  0
  9 47  1  0  0  0  0
 10 11  1  0  0  0  0
 10 15  2  0  0  0  0
 11 12  2  0  0  0  0
 11 17  1  0  0  0  0
 12 13  1  0  0  0  0
 13 48  1  0  0  0  0
 14 13  2  0  0  0  0
 15 14  1  0  0  0  0
 15 16  1  0  0  0  0
 16 49  1  0  0  0  0
 16 50  1  0  0  0  0
 17 18  2  0  0  0  0
 17 36  1  0  0  0  0
 18 19  1  0  0  0  0
 18 20  1  0  0  0  0
 19 51  1  0  0  0  0
 19 52  1  0  0  0  0
 19 53  1  0  0  0  0
 20 21  1  0  0  0  0
 20 34  2  0  0  0  0
 21 22  1  0  0  0  0
 21 54  1  0  0  0  0
 22 23  2  0  0  0  0
 22 24  1  0  0  0  0
 24 25  2  0  0  0  0
 24 30  1  0  0  0  0
 25 26  1  0  0  0  0
 25 27  1  0  0  0  0
 27 28  2  0  0  0  0
 27 55  1  0  0  0  0
 28 31  1  0  0  0  0
 29 28  1  0  0  0  0
 29 56  1  0  0  0  0
 30 29  2  0  0  0  0
 30 57  1  0  0  0  0
 31 32  1  0  0  0  0
 31 33  1  0  0  0  0
 31 58  1  0  0  0  0
 32 33  1  0  0  0  0
 32 59  1  0  0  0  0
 32 60  1  0  0  0  0
 33 61  1  0  0  0  0
 33 62  1  0  0  0  0
 34 63  1  0  0  0  0
 35 34  1  0  0  0  0
 35 37  1  0  0  0  0
 36 35  2  0  0  0  0
 36 64  1  0  0  0  0
M  END
>  <DRUGBANK_ID>
DB16852

>  <COMMON_NAME>
Remibrutinib

>  <CAS_NUMBER>
1787294-07-8

>  <UNII>
I7MVZ8HDNU

>  <SYNONYMS>
Remibrutinib

$$$$
