387
 OpenBabel10282417072D

 50 52  0  0  1  0  0  0  0  0999 V2000
    1.9058    0.0000    0.0000 O   0  0  0  0  0  0  0  0  0  0  0  0
    4.7934   -0.7145    0.0000 N   0  0  0  0  0  0  0  0  0  0  0  0
    2.7308    0.8250    0.0000 C   0  0  0  0  0  0  0  0  0  0  0  0
    2.7308    0.0000    0.0000 C   0  0  3  0  0  0  0  0  0  0  0  0
    3.4453    1.2375    0.0000 C   0  0  0  0  0  0  0  0  0  0  0  0
    2.0163    1.2375    0.0000 C   0  0  0  0  0  0  0  0  0  0  0  0
    3.5558    0.0000    0.0000 C   0  0  0  0  0  0  0  0  0  0  0  0
    3.4453    2.0625    0.0000 C   0  0  0  0  0  0  0  0  0  0  0  0
    2.0163    2.0625    0.0000 C   0  0  0  0  0  0  0  0  0  0  0  0
    2.7308    2.4751    0.0000 C   0  0  0  0  0  0  0  0  0  0  0  0
    3.9683   -0.7145    0.0000 C   0  0  0  0  0  0  0  0  0  0  0  0
    2.7308   -0.8250    0.0000 C   0  0  0  0  0  0  0  0  0  0  0  0
    5.2783   -0.0470    0.0000 C   0  0  0  0  0  0  0  0  0  0  0  0
    5.2783   -1.3819    0.0000 C   0  0  0  0  0  0  0  0  0  0  0  0
    6.0629   -0.3020    0.0000 C   0  0  0  0  0  0  0  0  0  0  0  0
    6.0629   -1.1270    0.0000 C   0  0  0  0  0  0  0  0  0  0  0  0
    3.4453   -1.2375    0.0000 C   0  0  0  0  0  0  0  0  0  0  0  0
    2.0163   -1.2375    0.0000 C   0  0  0  0  0  0  0  0  0  0  0  0
    3.4453   -2.0625    0.0000 C   0  0  0  0  0  0  0  0  0  0  0  0
    2.0163   -2.0625    0.0000 C   0  0  0  0  0  0  0  0  0  0  0  0
    2.7308   -2.4751    0.0000 C   0  0  0  0  0  0  0  0  0  0  0  0
    1.4208    0.8400    0.0000 H   0  0  0  0  0  0  0  0  0  0  0  0
    2.7308    1.8950    0.0000 H   0  0  0  0  0  0  0  0  0  0  0  0
    4.3719    0.7025    0.0000 H   0  0  0  0  0  0  0  0  0  0  0  0
    4.3719    1.7725    0.0000 H   0  0  0  0  0  0  0  0  0  0  0  0
    1.0897    0.7025    0.0000 H   0  0  0  0  0  0  0  0  0  0  0  0
    1.0897    1.7725    0.0000 H   0  0  0  0  0  0  0  0  0  0  0  0
    4.0908    0.9266    0.0000 H   0  0  0  0  0  0  0  0  0  0  0  0
    4.6258   -0.0000    0.0000 H   0  0  0  0  0  0  0  0  0  0  0  0
    4.3720    2.5975    0.0000 H   0  0  0  0  0  0  0  0  0  0  0  0
    3.4454    3.1325    0.0000 H   0  0  0  0  0  0  0  0  0  0  0  0
    1.0896    2.5975    0.0000 H   0  0  0  0  0  0  0  0  0  0  0  0
    2.0162    3.1325    0.0000 H   0  0  0  0  0  0  0  0  0  0  0  0
    2.7308    3.5451    0.0000 H   0  0  0  0  0  0  0  0  0  0  0  0
    1.8041    3.0101    0.0000 H   0  0  0  0  0  0  0  0  0  0  0  0
    3.4333   -1.6411    0.0000 H   0  0  0  0  0  0  0  0  0  0  0  0
    2.8983   -0.7145    0.0000 H   0  0  0  0  0  0  0  0  0  0  0  0
    4.9477    0.9706    0.0000 H   0  0  0  0  0  0  0  0  0  0  0  0
    6.0349    0.7096    0.0000 H   0  0  0  0  0  0  0  0  0  0  0  0
    4.9476   -2.3995    0.0000 H   0  0  0  0  0  0  0  0  0  0  0  0
    6.0349   -2.1385    0.0000 H   0  0  0  0  0  0  0  0  0  0  0  0
    6.9286    0.3269    0.0000 H   0  0  0  0  0  0  0  0  0  0  0  0
    7.0163   -0.7878    0.0000 H   0  0  0  0  0  0  0  0  0  0  0  0
    6.9285   -1.7559    0.0000 H   0  0  0  0  0  0  0  0  0  0  0  0
    7.0163   -0.6412    0.0000 H   0  0  0  0  0  0  0  0  0  0  0  0
    4.3390   -0.7215    0.0000 H   0  0  0  0  0  0  0  0  0  0  0  0
    1.1226   -0.7215    0.0000 H   0  0  0  0  0  0  0  0  0  0  0  0
    4.3391   -2.5785    0.0000 H   0  0  0  0  0  0  0  0  0  0  0  0
    1.1225   -2.5785    0.0000 H   0  0  0  0  0  0  0  0  0  0  0  0
    2.7308   -3.5071    0.0000 H   0  0  0  0  0  0  0  0  0  0  0  0
  1  4  1  0  0  0  0
  1 22  1  0  0  0  0
  2 11  1  0  0  0  0
  2 13  1  0  0  0  0
  2 14  1  0  0  0  0
  3  4  1  0  0  0  0
  3  5  1  0  0  0  0
  3  6  1  0  0  0  0
  3 23  1  0  0  0  0
  4  7  1  0  0  0  0
  4 12  1  0  0  0  0
  5  8  1  0  0  0  0
  5 24  1  0  0  0  0
  5 25  1  0  0  0  0
  6  9  1  0  0  0  0
  6 26  1  0  0  0  0
  6 27  1  0  0  0  0
  7 11  1  0  0  0  0
  7 28  1  0  0  0  0
  7 29  1  0  0  0  0
  8 10  1  0  0  0  0
  8 30  1  0  0  0  0
  8 31  1  0  0  0  0
  9 10  1  0  0  0  0
  9 32  1  0  0  0  0
  9 33  1  0  0  0  0
 10 34  1  0  0  0  0
 10 35  1  0  0  0  0
 11 36  1  0  0  0  0
 11 37  1  0  0  0  0
 12 17  2  0  0  0  0
 12 18  1  0  0  0  0
 13 15  1  0  0  0  0
 13 38  1  0  0  0  0
 13 39  1  0  0  0  0
 14 16  1  0  0  0  0
 14 40  1  0  0  0  0
 14 41  1  0  0  0  0
 15 16  1  0  0  0  0
 15 42  1  0  0  0  0
 15 43  1  0  0  0  0
 16 44  1  0  0  0  0
 16 45  1  0  0  0  0
 17 19  1  0  0  0  0
 17 46  1  0  0  0  0
 18 20  2  0  0  0  0
 18 47  1  0  0  0  0
 19 21  2  0  0  0  0
 19 48  1  0  0  0  0
 20 21  1  0  0  0  0
 20 49  1  0  0  0  0
 21 50  1  0  0  0  0
M  END
>  <DRUGBANK_ID>
DB00387

>  <SECONDARY_ACCESSION_NUMBERS>
APRD00383

>  <COMMON_NAME>
Procyclidine

>  <CAS_NUMBER>
77-37-2

>  <UNII>
C6QE1Q1TKR

>  <SYNONYMS>
1-cyclohexyl-1-phenyl-3-pyrrolidin-1-yl-propan-1-ol hydrochloride; 1-Cyclohexyl-1-phenyl-3-pyrrolidino-1-propanol; Prociclidina; Procyclidin; Procyclidine; Procyclidinum; Tricyclamol

$$$$
