806
 OpenBabel10282417072D

 38 39  0  0  0  0  0  0  0  0999 V2000
    6.6515    1.6500    0.0000 O   0  0  0  0  0  0  0  0  0  0  0  0
    5.2224   -0.8250    0.0000 O   0  0  0  0  0  0  0  0  0  0  0  0
    2.3645    1.6500    0.0000 O   0  0  0  0  0  0  0  0  0  0  0  0
    5.9370    0.4125    0.0000 N   0  0  0  0  0  0  0  0  0  0  0  0
    6.6515   -0.8250    0.0000 N   0  0  0  0  0  0  0  0  0  0  0  0
    8.1466    0.6639    0.0000 N   0  0  0  0  0  0  0  0  0  0  0  0
    8.1466   -0.6639    0.0000 N   0  0  0  0  0  0  0  0  0  0  0  0
    5.2224    0.8250    0.0000 C   0  0  0  0  0  0  0  0  0  0  0  0
    4.5080    0.4125    0.0000 C   0  0  0  0  0  0  0  0  0  0  0  0
    3.7935    0.8250    0.0000 C   0  0  0  0  0  0  0  0  0  0  0  0
    7.3659    0.4125    0.0000 C   0  0  0  0  0  0  0  0  0  0  0  0
    6.6515    0.8250    0.0000 C   0  0  0  0  0  0  0  0  0  0  0  0
    7.3659   -0.4125    0.0000 C   0  0  0  0  0  0  0  0  0  0  0  0
    5.9370   -0.4125    0.0000 C   0  0  0  0  0  0  0  0  0  0  0  0
    3.0791    0.4125    0.0000 C   0  0  0  0  0  0  0  0  0  0  0  0
    8.6280    0.0000    0.0000 C   0  0  0  0  0  0  0  0  0  0  0  0
    6.6515   -1.6500    0.0000 C   0  0  0  0  0  0  0  0  0  0  0  0
    8.4029    1.4482    0.0000 C   0  0  0  0  0  0  0  0  0  0  0  0
    2.3645    0.8250    0.0000 C   0  0  0  0  0  0  0  0  0  0  0  0
    1.6500    0.4125    0.0000 C   0  0  0  0  0  0  0  0  0  0  0  0
    5.2223    1.8950    0.0000 H   0  0  0  0  0  0  0  0  0  0  0  0
    4.2957    1.3600    0.0000 H   0  0  0  0  0  0  0  0  0  0  0  0
    4.5080   -0.6575    0.0000 H   0  0  0  0  0  0  0  0  0  0  0  0
    3.5814   -0.1225    0.0000 H   0  0  0  0  0  0  0  0  0  0  0  0
    3.7935    1.8950    0.0000 H   0  0  0  0  0  0  0  0  0  0  0  0
    2.8668    1.3600    0.0000 H   0  0  0  0  0  0  0  0  0  0  0  0
    3.0792   -0.6575    0.0000 H   0  0  0  0  0  0  0  0  0  0  0  0
    2.1525   -0.1226    0.0000 H   0  0  0  0  0  0  0  0  0  0  0  0
    9.6600    0.0000    0.0000 H   0  0  0  0  0  0  0  0  0  0  0  0
    5.7249   -2.1850    0.0000 H   0  0  0  0  0  0  0  0  0  0  0  0
    7.5781   -2.1850    0.0000 H   0  0  0  0  0  0  0  0  0  0  0  0
    6.6515   -2.7200    0.0000 H   0  0  0  0  0  0  0  0  0  0  0  0
    9.4499    1.6689    0.0000 H   0  0  0  0  0  0  0  0  0  0  0  0
    7.6883    2.2446    0.0000 H   0  0  0  0  0  0  0  0  0  0  0  0
    8.7353    2.4653    0.0000 H   0  0  0  0  0  0  0  0  0  0  0  0
    0.7234    0.9475    0.0000 H   0  0  0  0  0  0  0  0  0  0  0  0
    1.6500   -0.6575    0.0000 H   0  0  0  0  0  0  0  0  0  0  0  0
    0.7233   -0.1225    0.0000 H   0  0  0  0  0  0  0  0  0  0  0  0
  1 12  2  0  0  0  0
  2 14  2  0  0  0  0
  3 19  2  0  0  0  0
  4  8  1  0  0  0  0
  4 12  1  0  0  0  0
  4 14  1  0  0  0  0
  5 13  1  0  0  0  0
  5 14  1  0  0  0  0
  5 17  1  0  0  0  0
  6 11  1  0  0  0  0
  6 16  1  0  0  0  0
  6 18  1  0  0  0  0
  7 13  1  0  0  0  0
  7 16  2  0  0  0  0
  8  9  1  0  0  0  0
  8 21  1  0  0  0  0
  8 22  1  0  0  0  0
  9 10  1  0  0  0  0
  9 23  1  0  0  0  0
  9 24  1  0  0  0  0
 10 15  1  0  0  0  0
 10 25  1  0  0  0  0
 10 26  1  0  0  0  0
 11 12  1  0  0  0  0
 11 13  2  0  0  0  0
 15 19  1  0  0  0  0
 15 27  1  0  0  0  0
 15 28  1  0  0  0  0
 16 29  1  0  0  0  0
 17 30  1  0  0  0  0
 17 31  1  0  0  0  0
 17 32  1  0  0  0  0
 18 33  1  0  0  0  0
 18 34  1  0  0  0  0
 18 35  1  0  0  0  0
 19 20  1  0  0  0  0
 20 36  1  0  0  0  0
 20 37  1  0  0  0  0
 20 38  1  0  0  0  0
M  END
>  <DRUGBANK_ID>
DB00806

>  <SECONDARY_ACCESSION_NUMBERS>
APRD00121

>  <COMMON_NAME>
Pentoxifylline

>  <CAS_NUMBER>
6493-05-6

>  <UNII>
SD6QCT3TSU

>  <SYNONYMS>
Oxpentifylline; Pentoxifilina; Pentoxifyllin; Pentoxifylline; Pentoxifyllinum

$$$$
