242
 OpenBabel10282417072D

 48 51  0  0  0  0  0  0  0  0999 V2000
   -2.3066   -0.6138    0.0000 C   0  0  0  0  0  0  0  0  0  0  0  0
   -1.5921   -1.0263    0.0000 C   0  0  0  0  0  0  0  0  0  0  0  0
   -1.5921   -1.8513    0.0000 C   0  0  0  0  0  0  0  0  0  0  0  0
   -2.3066   -2.2638    0.0000 N   0  0  0  0  0  0  0  0  0  0  0  0
   -3.0211   -1.8513    0.0000 C   0  0  0  0  0  0  0  0  0  0  0  0
   -3.0211   -1.0263    0.0000 N   0  0  0  0  0  0  0  0  0  0  0  0
   -0.8776   -0.6138    0.0000 C   0  0  0  0  0  0  0  0  0  0  0  0
   -0.1632   -1.0263    0.0000 C   0  0  0  0  0  0  0  0  0  0  0  0
   -0.1632   -1.8513    0.0000 C   0  0  0  0  0  0  0  0  0  0  0  0
   -0.8776   -2.2638    0.0000 C   0  0  0  0  0  0  0  0  0  0  0  0
   -3.7355   -2.2638    0.0000 N   0  0  0  0  0  0  0  0  0  0  0  0
    0.5513   -0.6138    0.0000 C   0  0  0  0  0  0  0  0  0  0  0  0
    1.2658   -1.0263    0.0000 C   0  0  0  0  0  0  0  0  0  0  0  0
    1.9802   -0.6138    0.0000 C   0  0  0  0  0  0  0  0  0  0  0  0
    1.9802    0.2112    0.0000 C   0  0  0  0  0  0  0  0  0  0  0  0
    1.2658    0.6237    0.0000 C   0  0  0  0  0  0  0  0  0  0  0  0
    0.5513    0.2112    0.0000 C   0  0  0  0  0  0  0  0  0  0  0  0
   -0.1632    0.6237    0.0000 C   0  0  0  0  0  0  0  0  0  0  0  0
    2.6947   -1.0263    0.0000 C   0  0  0  0  0  0  0  0  0  0  0  0
    3.4092   -0.6138    0.0000 O   0  0  0  0  0  0  0  0  0  0  0  0
    2.6947   -1.8513    0.0000 N   0  0  0  0  0  0  0  0  0  0  0  0
    3.4092   -2.2638    0.0000 C   0  0  0  0  0  0  0  0  0  0  0  0
    3.4092   -3.0888    0.0000 C   0  0  0  0  0  0  0  0  0  0  0  0
    4.1236   -3.5013    0.0000 C   0  0  0  0  0  0  0  0  0  0  0  0
    4.8381   -3.0888    0.0000 C   0  0  0  0  0  0  0  0  0  0  0  0
    4.8381   -2.2638    0.0000 C   0  0  0  0  0  0  0  0  0  0  0  0
    4.1236   -1.8513    0.0000 C   0  0  0  0  0  0  0  0  0  0  0  0
    4.1236   -4.3263    0.0000 C   0  0  0  0  0  0  0  0  0  0  0  0
    4.1236   -5.1513    0.0000 F   0  0  0  0  0  0  0  0  0  0  0  0
    3.2986   -4.3263    0.0000 F   0  0  0  0  0  0  0  0  0  0  0  0
    4.9486   -4.3263    0.0000 F   0  0  0  0  0  0  0  0  0  0  0  0
   -2.3066    0.4182    0.0000 H   0  0  0  0  0  0  0  0  0  0  0  0
   -0.8776    0.4182    0.0000 H   0  0  0  0  0  0  0  0  0  0  0  0
    0.7305   -2.3673    0.0000 H   0  0  0  0  0  0  0  0  0  0  0  0
   -0.8776   -3.2958    0.0000 H   0  0  0  0  0  0  0  0  0  0  0  0
   -4.5881   -1.7716    0.0000 H   0  0  0  0  0  0  0  0  0  0  0  0
   -3.7355   -3.2483    0.0000 H   0  0  0  0  0  0  0  0  0  0  0  0
    1.2658   -2.0583    0.0000 H   0  0  0  0  0  0  0  0  0  0  0  0
    2.8739    0.7272    0.0000 H   0  0  0  0  0  0  0  0  0  0  0  0
    1.2658    1.6557    0.0000 H   0  0  0  0  0  0  0  0  0  0  0  0
   -0.1632    1.6937    0.0000 H   0  0  0  0  0  0  0  0  0  0  0  0
   -1.0898    0.0887    0.0000 H   0  0  0  0  0  0  0  0  0  0  0  0
   -1.0899    1.1587    0.0000 H   0  0  0  0  0  0  0  0  0  0  0  0
    1.8421   -2.3436    0.0000 H   0  0  0  0  0  0  0  0  0  0  0  0
    2.5155   -3.6048    0.0000 H   0  0  0  0  0  0  0  0  0  0  0  0
    5.7318   -3.6048    0.0000 H   0  0  0  0  0  0  0  0  0  0  0  0
    5.7318   -1.7478    0.0000 H   0  0  0  0  0  0  0  0  0  0  0  0
    4.1236   -0.8193    0.0000 H   0  0  0  0  0  0  0  0  0  0  0  0
  1  6  2  0  0  0  0
  1  2  1  0  0  0  0
  1 32  1  0  0  0  0
  2  7  2  0  0  0  0
  2  3  1  0  0  0  0
  3  4  1  0  0  0  0
  3 10  2  0  0  0  0
  4  5  2  0  0  0  0
  5  6  1  0  0  0  0
  5 11  1  0  0  0  0
  7  8  1  0  0  0  0
  7 33  1  0  0  0  0
  8 12  1  0  0  0  0
  8  9  2  0  0  0  0
  9 10  1  0  0  0  0
  9 34  1  0  0  0  0
 10 35  1  0  0  0  0
 11 36  1  0  0  0  0
 11 37  1  0  0  0  0
 12 17  1  0  0  0  0
 12 13  2  0  0  0  0
 13 14  1  0  0  0  0
 13 38  1  0  0  0  0
 14 15  2  0  0  0  0
 14 19  1  0  0  0  0
 15 16  1  0  0  0  0
 15 39  1  0  0  0  0
 16 17  2  0  0  0  0
 16 40  1  0  0  0  0
 17 18  1  0  0  0  0
 18 41  1  0  0  0  0
 18 42  1  0  0  0  0
 18 43  1  0  0  0  0
 19 21  1  0  0  0  0
 19 20  2  0  0  0  0
 21 22  1  0  0  0  0
 21 44  1  0  0  0  0
 22 27  2  0  0  0  0
 22 23  1  0  0  0  0
 23 24  2  0  0  0  0
 23 45  1  0  0  0  0
 24 25  1  0  0  0  0
 24 28  1  0  0  0  0
 25 26  2  0  0  0  0
 25 46  1  0  0  0  0
 26 27  1  0  0  0  0
 26 47  1  0  0  0  0
 27 48  1  0  0  0  0
 28 30  1  0  0  0  0
 28 31  1  0  0  0  0
 28 29  1  0  0  0  0
M  END
>  <DRUGBANK_ID>
DB06925

>  <COMMON_NAME>
3-(2-AMINOQUINAZOLIN-6-YL)-4-METHYL-N-[3-(TRIFLUOROMETHYL)PHENYL]BENZAMIDE

>  <UNII>
T52FE17W1Y

$$$$
