
 OpenBabel10282417072D

 70 73  0  0  0  0  0  0  0  0999 V2000
    1.0669    1.6627    0.0000 C   0  0  0  0  0  0  0  0  0  0  0  0
    1.7814    2.0743    0.0000 C   0  0  0  0  0  0  0  0  0  0  0  0
    0.3502    2.0743    0.0000 O   0  0  0  0  0  0  0  0  0  0  0  0
    1.0669    0.8375    0.0000 C   0  0  2  0  0  0  0  0  0  0  0  0
    2.4961    1.6627    0.0000 O   0  0  0  0  0  0  0  0  0  0  0  0
    1.7814    1.2491    0.0000 O   0  0  0  0  0  0  0  0  0  0  0  0
    0.3522    0.4218    0.0000 C   0  0  2  0  0  0  0  0  0  0  0  0
    1.7794    0.4218    0.0000 C   0  0  0  0  0  0  0  0  0  0  0  0
    3.2107    2.0743    0.0000 C   0  0  0  0  0  0  0  0  0  0  0  0
    2.4961    0.8375    0.0000 C   0  0  0  0  0  0  0  0  0  0  0  0
    0.3522    1.2471    0.0000 C   0  0  0  0  0  0  0  0  0  0  0  0
    0.3522   -0.4115    0.0000 C   0  0  1  0  0  0  0  0  0  0  0  0
   -0.3603    0.8375    0.0000 C   0  0  0  0  0  0  0  0  0  0  0  0
    1.7794   -0.4115    0.0000 C   0  0  0  0  0  0  0  0  0  0  0  0
    3.9254    1.6627    0.0000 C   0  0  0  0  0  0  0  0  0  0  0  0
    3.2107    2.8995    0.0000 O   0  0  0  0  0  0  0  0  0  0  0  0
    3.2107    1.2491    0.0000 C   0  0  0  0  0  0  0  0  0  0  0  0
    2.4961    0.0123    0.0000 O   0  0  0  0  0  0  0  0  0  0  0  0
   -0.3603   -0.8272    0.0000 C   0  0  1  0  0  0  0  0  0  0  0  0
   -1.0729    0.4218    0.0000 C   0  0  1  0  0  0  0  0  0  0  0  0
    3.9254    0.8375    0.0000 C   0  0  0  0  0  0  0  0  0  0  0  0
   -1.0729   -0.4115    0.0000 C   0  0  2  0  0  0  0  0  0  0  0  0
   -0.3603   -1.6585    0.0000 C   0  0  0  0  0  0  0  0  0  0  0  0
   -1.7876    0.8334    0.0000 O   0  0  0  0  0  0  0  0  0  0  0  0
   -1.7855   -0.8272    0.0000 C   0  0  2  0  0  0  0  0  0  0  0  0
   -1.0729   -2.0742    0.0000 C   0  0  1  0  0  0  0  0  0  0  0  0
   -1.7855   -0.0020    0.0000 C   0  0  0  0  0  0  0  0  0  0  0  0
   -1.7855   -1.6585    0.0000 C   0  0  0  0  0  0  0  0  0  0  0  0
   -2.4981   -0.4115    0.0000 C   0  0  0  0  0  0  0  0  0  0  0  0
   -1.0729   -2.8995    0.0000 C   0  0  0  0  0  0  0  0  0  0  0  0
   -2.4981   -2.0742    0.0000 C   0  0  0  0  0  0  0  0  0  0  0  0
   -3.2107   -0.8272    0.0000 C   0  0  0  0  0  0  0  0  0  0  0  0
   -3.2107   -1.6585    0.0000 C   0  0  0  0  0  0  0  0  0  0  0  0
   -3.9254   -2.0701    0.0000 O   0  0  0  0  0  0  0  0  0  0  0  0
   -0.3603   -0.0020    0.0000 H   0  0  0  0  0  0  0  0  0  0  0  0
   -1.0729   -1.2368    0.0000 H   0  0  0  0  0  0  0  0  0  0  0  0
    0.3522   -1.2368    0.0000 H   0  0  0  0  0  0  0  0  0  0  0  0
    1.7813    3.1443    0.0000 H   0  0  0  0  0  0  0  0  0  0  0  0
    2.7077    2.6098    0.0000 H   0  0  0  0  0  0  0  0  0  0  0  0
    2.7073    0.9547    0.0000 H   0  0  0  0  0  0  0  0  0  0  0  0
    2.7054   -0.1143    0.0000 H   0  0  0  0  0  0  0  0  0  0  0  0
    1.2788    1.7821    0.0000 H   0  0  0  0  0  0  0  0  0  0  0  0
   -0.5744    1.7821    0.0000 H   0  0  0  0  0  0  0  0  0  0  0  0
    0.3522    2.3171    0.0000 H   0  0  0  0  0  0  0  0  0  0  0  0
   -0.3603    1.9075    0.0000 H   0  0  0  0  0  0  0  0  0  0  0  0
   -1.2881    1.3704    0.0000 H   0  0  0  0  0  0  0  0  0  0  0  0
    2.5360   -1.1681    0.0000 H   0  0  0  0  0  0  0  0  0  0  0  0
    1.3699   -1.4001    0.0000 H   0  0  0  0  0  0  0  0  0  0  0  0
    3.9266    0.5927    0.0000 H   0  0  0  0  0  0  0  0  0  0  0  0
    4.8515    2.1987    0.0000 H   0  0  0  0  0  0  0  0  0  0  0  0
    4.8526    1.1287    0.0000 H   0  0  0  0  0  0  0  0  0  0  0  0
    3.2107    2.3191    0.0000 H   0  0  0  0  0  0  0  0  0  0  0  0
    4.1370    1.7846    0.0000 H   0  0  0  0  0  0  0  0  0  0  0  0
   -1.0759    1.4918    0.0000 H   0  0  0  0  0  0  0  0  0  0  0  0
    3.9266   -0.2325    0.0000 H   0  0  0  0  0  0  0  0  0  0  0  0
    4.8515    1.3735    0.0000 H   0  0  0  0  0  0  0  0  0  0  0  0
    4.8526    0.3035    0.0000 H   0  0  0  0  0  0  0  0  0  0  0  0
    0.5675   -2.1914    0.0000 H   0  0  0  0  0  0  0  0  0  0  0  0
   -0.3567   -2.7285    0.0000 H   0  0  0  0  0  0  0  0  0  0  0  0
   -1.7887    1.8034    0.0000 H   0  0  0  0  0  0  0  0  0  0  0  0
   -0.1451   -2.6071    0.0000 H   0  0  0  0  0  0  0  0  0  0  0  0
   -0.8589    0.5330    0.0000 H   0  0  0  0  0  0  0  0  0  0  0  0
   -2.7121    0.5330    0.0000 H   0  0  0  0  0  0  0  0  0  0  0  0
   -1.7855    1.0680    0.0000 H   0  0  0  0  0  0  0  0  0  0  0  0
   -2.4981    0.6205    0.0000 H   0  0  0  0  0  0  0  0  0  0  0  0
   -1.9995   -3.4345    0.0000 H   0  0  0  0  0  0  0  0  0  0  0  0
   -0.1463   -3.4345    0.0000 H   0  0  0  0  0  0  0  0  0  0  0  0
   -1.0729   -3.9695    0.0000 H   0  0  0  0  0  0  0  0  0  0  0  0
   -2.4981   -3.1062    0.0000 H   0  0  0  0  0  0  0  0  0  0  0  0
   -4.1056   -0.3132    0.0000 H   0  0  0  0  0  0  0  0  0  0  0  0
  1  2  1  0  0  0  0
  1  3  2  0  0  0  0
  2  5  1  0  0  0  0
  2 38  1  0  0  0  0
  2 39  1  0  0  0  0
  4  1  1  1  0  0  0
  4  6  1  0  0  0  0
  4  8  1  0  0  0  0
  5  9  1  0  0  0  0
  6 10  1  0  0  0  0
  7  4  1  0  0  0  0
  7 11  1  1  0  0  0
  7 13  1  0  0  0  0
  8 14  1  0  0  0  0
  8 40  1  0  0  0  0
  8 41  1  0  0  0  0
  9 15  1  0  0  0  0
  9 16  2  0  0  0  0
 10 17  1  0  0  0  0
 10 18  2  0  0  0  0
 11 42  1  0  0  0  0
 11 43  1  0  0  0  0
 11 44  1  0  0  0  0
 12  7  1  0  0  0  0
 12 14  1  0  0  0  0
 12 19  1  0  0  0  0
 12 37  1  6  0  0  0
 13 45  1  0  0  0  0
 13 46  1  0  0  0  0
 14 47  1  0  0  0  0
 14 48  1  0  0  0  0
 15 49  1  0  0  0  0
 15 50  1  0  0  0  0
 15 51  1  0  0  0  0
 17 21  1  0  0  0  0
 17 52  1  0  0  0  0
 17 53  1  0  0  0  0
 19 22  1  0  0  0  0
 19 23  1  0  0  0  0
 19 35  1  1  0  0  0
 20 13  1  0  0  0  0
 20 24  1  0  0  0  0
 20 54  1  6  0  0  0
 21 55  1  0  0  0  0
 21 56  1  0  0  0  0
 21 57  1  0  0  0  0
 22 20  1  0  0  0  0
 22 25  1  0  0  0  0
 22 36  1  6  0  0  0
 23 58  1  0  0  0  0
 23 59  1  0  0  0  0
 24 60  1  0  0  0  0
 25 27  1  1  0  0  0
 25 28  1  0  0  0  0
 25 29  1  0  0  0  0
 26 23  1  0  0  0  0
 26 28  1  0  0  0  0
 26 30  1  0  0  0  0
 26 61  1  1  0  0  0
 27 62  1  0  0  0  0
 27 63  1  0  0  0  0
 27 64  1  0  0  0  0
 28 31  2  0  0  0  0
 29 32  2  0  0  0  0
 29 65  1  0  0  0  0
 30 66  1  0  0  0  0
 30 67  1  0  0  0  0
 30 68  1  0  0  0  0
 31 33  1  0  0  0  0
 31 69  1  0  0  0  0
 32 33  1  0  0  0  0
 32 70  1  0  0  0  0
 33 34  2  0  0  0  0
M  END
>  <DRUGBANK_ID>
DB14643

>  <SECONDARY_ACCESSION_NUMBERS>
DBSALT002468

>  <COMMON_NAME>
Methylprednisolone aceponate

>  <CAS_NUMBER>
86401-95-8

>  <UNII>
ET54W9J4U2

>  <SYNONYMS>
Aceponato de metilprednisolona; Methylprednisolone aceponate; Methylprednisoloni aceponas

$$$$
