BGU
 OpenBabel10282417072D

 24 26  0  0  0  0  0  0  0  0999 V2000
   -1.6448    0.6028    0.0000 N   0  0  0  0  0  0  0  0  0  0  0  0
   -0.8602    0.3479    0.0000 C   0  0  0  0  0  0  0  0  0  0  0  0
   -0.1457    0.7604    0.0000 C   0  0  0  0  0  0  0  0  0  0  0  0
    0.5688    0.3479    0.0000 C   0  0  0  0  0  0  0  0  0  0  0  0
    0.5688   -0.4771    0.0000 C   0  0  0  0  0  0  0  0  0  0  0  0
   -0.1457   -0.8896    0.0000 C   0  0  0  0  0  0  0  0  0  0  0  0
   -0.8602   -0.4771    0.0000 C   0  0  0  0  0  0  0  0  0  0  0  0
   -1.6448   -0.7321    0.0000 N   0  0  0  0  0  0  0  0  0  0  0  0
   -2.1297   -0.0646    0.0000 C   0  0  0  0  0  0  0  0  0  0  0  0
   -2.9547   -0.0646    0.0000 N   0  0  0  0  0  0  0  0  0  0  0  0
    1.2832   -0.8896    0.0000 N   0  0  0  0  0  0  0  0  0  0  0  0
    1.9977   -0.4771    0.0000 C   0  0  0  0  0  0  0  0  0  0  0  0
    2.7122   -0.8896    0.0000 N   0  0  0  0  0  0  0  0  0  0  0  0
    1.9977    0.3479    0.0000 N   0  0  0  0  0  0  0  0  0  0  0  0
    1.2832    0.7604    0.0000 C   0  0  0  0  0  0  0  0  0  0  0  0
    1.2832    1.5854    0.0000 O   0  0  0  0  0  0  0  0  0  0  0  0
   -1.9490    1.5391    0.0000 H   0  0  0  0  0  0  0  0  0  0  0  0
   -0.1457    1.7924    0.0000 H   0  0  0  0  0  0  0  0  0  0  0  0
   -0.1457   -1.9216    0.0000 H   0  0  0  0  0  0  0  0  0  0  0  0
   -3.4470    0.7880    0.0000 H   0  0  0  0  0  0  0  0  0  0  0  0
   -3.4469   -0.9172    0.0000 H   0  0  0  0  0  0  0  0  0  0  0  0
    2.7122   -1.8741    0.0000 H   0  0  0  0  0  0  0  0  0  0  0  0
    3.5648   -0.3973    0.0000 H   0  0  0  0  0  0  0  0  0  0  0  0
    2.8503    0.8402    0.0000 H   0  0  0  0  0  0  0  0  0  0  0  0
  1  2  1  0  0  0  0
  1 17  1  0  0  0  0
  2  3  1  0  0  0  0
  3  4  2  0  0  0  0
  3 18  1  0  0  0  0
  4 15  1  0  0  0  0
  5  4  1  0  0  0  0
  5 11  1  0  0  0  0
  6  5  2  0  0  0  0
  6 19  1  0  0  0  0
  7  2  2  0  0  0  0
  7  6  1  0  0  0  0
  8  7  1  0  0  0  0
  9  8  2  0  0  0  0
  9  1  1  0  0  0  0
 10  9  1  0  0  0  0
 10 20  1  0  0  0  0
 10 21  1  0  0  0  0
 11 12  2  0  0  0  0
 12 14  1  0  0  0  0
 12 13  1  0  0  0  0
 13 22  1  0  0  0  0
 13 23  1  0  0  0  0
 14 24  1  0  0  0  0
 15 16  2  0  0  0  0
 15 14  1  0  0  0  0
M  END
>  <DRUGBANK_ID>
DB07452

>  <COMMON_NAME>
2,6-diamino-1,7-dihydro-8H-imidazo[4,5-g]quinazolin-8-one

$$$$
