
 OpenBabel10282417072D

 57 61  0  0  1  0  0  0  0  0999 V2000
   -0.5174   -6.1088    0.0000 C   0  0  0  0  0  0  0  0  0  0  0  0
    0.0347   -5.4957    0.0000 C   0  0  0  0  0  0  0  0  0  0  0  0
    0.5867   -4.8826    0.0000 C   0  0  0  0  0  0  0  0  0  0  0  0
    1.1387   -4.2695    0.0000 C   0  0  0  0  0  0  0  0  0  0  0  0
    1.9457   -4.4410    0.0000 O   0  0  0  0  0  0  0  0  0  0  0  0
    0.8838   -3.4849    0.0000 N   0  0  0  0  0  0  0  0  0  0  0  0
    0.0992   -3.2299    0.0000 C   0  0  0  0  0  0  0  0  0  0  0  0
    0.0992   -2.4049    0.0000 C   0  0  0  0  0  0  0  0  0  0  0  0
    0.8838   -2.1500    0.0000 C   0  0  2  0  0  0  0  0  0  0  0  0
    1.3687   -2.8174    0.0000 C   0  0  0  0  0  0  0  0  0  0  0  0
    1.1387   -1.3654    0.0000 N   0  0  0  0  0  0  0  0  0  0  0  0
    0.6538   -0.6979    0.0000 C   0  0  0  0  0  0  0  0  0  0  0  0
    1.1387   -0.0305    0.0000 C   0  0  0  0  0  0  0  0  0  0  0  0
    0.8838    0.7541    0.0000 C   0  0  0  0  0  0  0  0  0  0  0  0
    0.0768    0.9256    0.0000 C   0  0  0  0  0  0  0  0  0  0  0  0
   -0.1781    1.7103    0.0000 C   0  0  0  0  0  0  0  0  0  0  0  0
    0.3739    2.3234    0.0000 C   0  0  0  0  0  0  0  0  0  0  0  0
    0.1190    3.1080    0.0000 O   0  0  0  0  0  0  0  0  0  0  0  0
    0.6710    3.7211    0.0000 C   0  0  0  0  0  0  0  0  0  0  0  0
    0.4161    4.5057    0.0000 C   0  0  0  0  0  0  0  0  0  0  0  0
   -0.3909    4.6772    0.0000 F   0  0  0  0  0  0  0  0  0  0  0  0
    0.9681    5.1188    0.0000 C   0  0  0  0  0  0  0  0  0  0  0  0
    1.7751    4.9473    0.0000 C   0  0  0  0  0  0  0  0  0  0  0  0
    2.0300    4.1626    0.0000 C   0  0  0  0  0  0  0  0  0  0  0  0
    1.4780    3.5496    0.0000 C   0  0  0  0  0  0  0  0  0  0  0  0
    1.7329    2.7649    0.0000 F   0  0  0  0  0  0  0  0  0  0  0  0
    1.1809    2.1518    0.0000 C   0  0  0  0  0  0  0  0  0  0  0  0
    1.4358    1.3672    0.0000 C   0  0  0  0  0  0  0  0  0  0  0  0
    1.9233   -0.2854    0.0000 C   0  0  0  0  0  0  0  0  0  0  0  0
    2.6378    0.1271    0.0000 C   0  0  0  0  0  0  0  0  0  0  0  0
    2.6378    0.9521    0.0000 N   0  0  0  0  0  0  0  0  0  0  0  0
    3.3523   -0.2854    0.0000 N   0  0  0  0  0  0  0  0  0  0  0  0
    3.3523   -1.1104    0.0000 N   0  0  0  0  0  0  0  0  0  0  0  0
    2.6378   -1.5229    0.0000 C   0  0  0  0  0  0  0  0  0  0  0  0
    2.6378   -2.3479    0.0000 O   0  0  0  0  0  0  0  0  0  0  0  0
    1.9233   -1.1104    0.0000 C   0  0  0  0  0  0  0  0  0  0  0  0
   -1.5640   -5.8863    0.0000 H   0  0  0  0  0  0  0  0  0  0  0  0
   -0.1868   -7.1264    0.0000 H   0  0  0  0  0  0  0  0  0  0  0  0
   -1.2334   -6.9039    0.0000 H   0  0  0  0  0  0  0  0  0  0  0  0
   -0.7665   -3.8588    0.0000 H   0  0  0  0  0  0  0  0  0  0  0  0
   -0.8542   -2.7441    0.0000 H   0  0  0  0  0  0  0  0  0  0  0  0
   -0.7664   -1.7760    0.0000 H   0  0  0  0  0  0  0  0  0  0  0  0
    0.2666   -1.3481    0.0000 H   0  0  0  0  0  0  0  0  0  0  0  0
    0.1272   -1.3934    0.0000 H   0  0  0  0  0  0  0  0  0  0  0  0
    2.4387   -2.8174    0.0000 H   0  0  0  0  0  0  0  0  0  0  0  0
    1.8545   -3.7708    0.0000 H   0  0  0  0  0  0  0  0  0  0  0  0
   -0.3782   -0.6979    0.0000 H   0  0  0  0  0  0  0  0  0  0  0  0
   -0.6138    0.1587    0.0000 H   0  0  0  0  0  0  0  0  0  0  0  0
   -1.1875    1.9249    0.0000 H   0  0  0  0  0  0  0  0  0  0  0  0
    0.6492    6.1003    0.0000 H   0  0  0  0  0  0  0  0  0  0  0  0
    2.4657    5.7142    0.0000 H   0  0  0  0  0  0  0  0  0  0  0  0
    3.0394    3.9480    0.0000 H   0  0  0  0  0  0  0  0  0  0  0  0
    1.8715    2.9187    0.0000 H   0  0  0  0  0  0  0  0  0  0  0  0
    2.4452    1.1526    0.0000 H   0  0  0  0  0  0  0  0  0  0  0  0
    3.4904    1.4444    0.0000 H   0  0  0  0  0  0  0  0  0  0  0  0
    1.7852    1.4444    0.0000 H   0  0  0  0  0  0  0  0  0  0  0  0
    4.2049   -1.6027    0.0000 H   0  0  0  0  0  0  0  0  0  0  0  0
  1  2  1  0  0  0  0
  1 37  1  0  0  0  0
  1 38  1  0  0  0  0
  1 39  1  0  0  0  0
  2  3  3  0  0  0  0
  3  4  1  0  0  0  0
  4  5  2  0  0  0  0
  4  6  1  0  0  0  0
  6  7  1  0  0  0  0
  6 10  1  0  0  0  0
  7  8  1  0  0  0  0
  7 40  1  0  0  0  0
  7 41  1  0  0  0  0
  8 42  1  0  0  0  0
  8 43  1  0  0  0  0
  9  8  1  0  0  0  0
  9 10  1  0  0  0  0
  9 11  1  0  0  0  0
  9 44  1  6  0  0  0
 10 45  1  0  0  0  0
 10 46  1  0  0  0  0
 11 12  1  0  0  0  0
 11 36  1  0  0  0  0
 12 13  2  0  0  0  0
 12 47  1  0  0  0  0
 13 14  1  0  0  0  0
 13 29  1  0  0  0  0
 14 15  2  0  0  0  0
 14 28  1  0  0  0  0
 15 16  1  0  0  0  0
 15 48  1  0  0  0  0
 16 17  2  0  0  0  0
 16 49  1  0  0  0  0
 17 18  1  0  0  0  0
 17 27  1  0  0  0  0
 18 19  1  0  0  0  0
 19 20  2  0  0  0  0
 19 25  1  0  0  0  0
 20 21  1  0  0  0  0
 20 22  1  0  0  0  0
 22 23  2  0  0  0  0
 22 50  1  0  0  0  0
 23 24  1  0  0  0  0
 23 51  1  0  0  0  0
 24 25  2  0  0  0  0
 24 52  1  0  0  0  0
 25 26  1  0  0  0  0
 27 28  2  0  0  0  0
 27 53  1  0  0  0  0
 28 54  1  0  0  0  0
 29 30  1  0  0  0  0
 29 36  2  0  0  0  0
 30 31  1  0  0  0  0
 30 32  2  0  0  0  0
 31 55  1  0  0  0  0
 31 56  1  0  0  0  0
 32 33  1  0  0  0  0
 33 34  1  0  0  0  0
 33 57  1  0  0  0  0
 34 35  2  0  0  0  0
 34 36  1  0  0  0  0
M  END
>  <DRUGBANK_ID>
DB18095

>  <COMMON_NAME>
Edralbrutinib

>  <CAS_NUMBER>
1858206-58-2

>  <UNII>
SG5I5QTR4E

>  <SYNONYMS>
4-amino-3-(4-(2,6-difluorophenoxy)phenyl)-1,6-dihydro-1-((3r)-1-(1-oxo-2-butyn-1-yl)-3-pyrrolidinyl)-7h-pyrrolo(2,3-d)pyridazin-7-one; 7h-pyrrolo(2,3-d)pyridazin-7-one, 4-amino-3-(4-(2,6-difluorophenoxy)phenyl)-1,6-dihydro-1-((3r)-1-(1-oxo-2-butyn-1-yl)-3-pyrrolidinyl)-; Edralbrutinib

$$$$
