
 OpenBabel10282417072D

 30 31  0  0  0  0  0  0  0  0999 V2000
    0.3572   -0.2061    0.0000 C   0  0  0  0  0  0  0  0  0  0  0  0
   -0.3572    0.2062    0.0000 C   0  0  0  0  0  0  0  0  0  0  0  0
   -2.5006   -0.2062    0.0000 C   0  0  0  0  0  0  0  0  0  0  0  0
   -1.7861    0.2062    0.0000 C   0  0  0  0  0  0  0  0  0  0  0  0
   -1.0716   -0.2062    0.0000 C   0  0  0  0  0  0  0  0  0  0  0  0
   -1.0716   -1.0312    0.0000 C   0  0  0  0  0  0  0  0  0  0  0  0
    1.0717    1.0313    0.0000 C   0  0  0  0  0  0  0  0  0  0  0  0
    2.5006    1.0313    0.0000 C   0  0  0  0  0  0  0  0  0  0  0  0
    1.7862   -0.2061    0.0000 C   0  0  0  0  0  0  0  0  0  0  0  0
    1.0717    0.2063    0.0000 C   0  0  0  0  0  0  0  0  0  0  0  0
    2.5006    0.2063    0.0000 C   0  0  0  0  0  0  0  0  0  0  0  0
    3.2151   -0.2061    0.0000 O   0  0  0  0  0  0  0  0  0  0  0  0
    1.7862    1.4438    0.0000 C   0  0  0  0  0  0  0  0  0  0  0  0
    1.7862    2.2688    0.0000 O   0  0  0  0  0  0  0  0  0  0  0  0
   -2.5006   -1.0312    0.0000 C   0  0  0  0  0  0  0  0  0  0  0  0
   -3.2151   -1.4438    0.0000 O   0  0  0  0  0  0  0  0  0  0  0  0
   -1.7861   -1.4438    0.0000 C   0  0  0  0  0  0  0  0  0  0  0  0
   -1.7861   -2.2687    0.0000 O   0  0  0  0  0  0  0  0  0  0  0  0
    0.3572   -1.2381    0.0000 H   0  0  0  0  0  0  0  0  0  0  0  0
   -0.3573    1.2382    0.0000 H   0  0  0  0  0  0  0  0  0  0  0  0
   -3.3943    0.3099    0.0000 H   0  0  0  0  0  0  0  0  0  0  0  0
   -1.7861    1.2382    0.0000 H   0  0  0  0  0  0  0  0  0  0  0  0
   -0.1778   -1.5472    0.0000 H   0  0  0  0  0  0  0  0  0  0  0  0
    0.1780    1.5473    0.0000 H   0  0  0  0  0  0  0  0  0  0  0  0
    3.3943    1.5473    0.0000 H   0  0  0  0  0  0  0  0  0  0  0  0
    1.7862   -1.2381    0.0000 H   0  0  0  0  0  0  0  0  0  0  0  0
    3.2152   -1.1431    0.0000 H   0  0  0  0  0  0  0  0  0  0  0  0
    2.5977    2.7373    0.0000 H   0  0  0  0  0  0  0  0  0  0  0  0
   -4.0266   -0.9754    0.0000 H   0  0  0  0  0  0  0  0  0  0  0  0
   -2.5976   -2.7372    0.0000 H   0  0  0  0  0  0  0  0  0  0  0  0
  1  2  2  0  0  0  0
  1 19  1  0  0  0  0
  2 20  1  0  0  0  0
  3  4  1  0  0  0  0
  3 15  2  0  0  0  0
  3 21  1  0  0  0  0
  4  5  2  0  0  0  0
  4 22  1  0  0  0  0
  5  6  1  0  0  0  0
  5  2  1  0  0  0  0
  6 17  2  0  0  0  0
  6 23  1  0  0  0  0
  7 13  1  0  0  0  0
  7 10  2  0  0  0  0
  7 24  1  0  0  0  0
  8 11  1  0  0  0  0
  8 25  1  0  0  0  0
  9 10  1  0  0  0  0
  9 26  1  0  0  0  0
 10  1  1  0  0  0  0
 11  9  2  0  0  0  0
 11 12  1  0  0  0  0
 12 27  1  0  0  0  0
 13  8  2  0  0  0  0
 13 14  1  0  0  0  0
 14 28  1  0  0  0  0
 15 16  1  0  0  0  0
 16 29  1  0  0  0  0
 17 15  1  0  0  0  0
 17 18  1  0  0  0  0
 18 30  1  0  0  0  0
M  END
>  <DRUGBANK_ID>
DB08399

>  <COMMON_NAME>
Piceatannol

>  <CAS_NUMBER>
10083-24-6

>  <UNII>
6KS3LS0D4F

>  <SYNONYMS>
3-hydroxyresveratol; 3,3',4,5'-Tetrahydroxystilbene; 3,3',4'5-Tetrahydroxystilbene; 3,5,3',4'-tetrahydroxystilbene; 4-[(E)-2-(3,5-dihydroxyphenyl)vinyl]benzene-1,2-diol; Piceatannol

$$$$
