
 OpenBabel10282417072D

 35 36  0  0  1  0  0  0  0  0999 V2000
   -0.5078   -0.4766    0.0000 C   0  0  0  0  0  0  0  0  0  0  0  0
    0.1596   -1.7865    0.0000 C   0  0  0  0  0  0  0  0  0  0  0  0
    2.3328    0.1272    0.0000 C   0  0  0  0  0  0  0  0  0  0  0  0
    0.9505    2.3491    0.0000 C   0  0  0  0  0  0  0  0  0  0  0  0
   -0.9203   -2.5711    0.0000 C   0  0  0  0  0  0  0  0  0  0  0  0
   -0.5078   -1.3016    0.0000 C   0  0  0  0  0  0  0  0  0  0  0  0
    1.4354    1.6816    0.0000 C   0  0  1  0  0  0  0  0  0  0  0  0
    0.2066   -0.0641    0.0000 C   0  0  0  0  0  0  0  0  0  0  0  0
    2.6684   -0.6264    0.0000 C   0  0  0  0  0  0  0  0  0  0  0  0
    1.0998    0.9279    0.0000 C   0  0  1  0  0  0  0  0  0  0  0  0
    0.9603   -0.3996    0.0000 C   0  0  0  0  0  0  0  0  0  0  0  0
    2.2559    1.7679    0.0000 N   0  0  0  0  0  0  0  0  0  0  0  0
   -0.0953   -2.5711    0.0000 N   0  0  0  0  0  0  0  0  0  0  0  0
   -1.1753   -1.7865    0.0000 N   0  0  0  0  0  0  0  0  0  0  0  0
    0.2929    0.7564    0.0000 N   0  0  0  0  0  0  0  0  0  0  0  0
    1.5123    0.2135    0.0000 N   0  0  0  0  0  0  0  0  0  0  0  0
    0.1300    2.2628    0.0000 O   0  0  0  0  0  0  0  0  0  0  0  0
    3.4889   -0.7127    0.0000 O   0  0  0  0  0  0  0  0  0  0  0  0
    2.1834   -1.2939    0.0000 O   0  0  0  0  0  0  0  0  0  0  0  0
    1.1318   -1.2066    0.0000 O   0  0  0  0  0  0  0  0  0  0  0  0
    0.6939    1.3200    0.0000 H   0  0  0  0  0  0  0  0  0  0  0  0
    0.3927    1.3529    0.0000 H   0  0  0  0  0  0  0  0  0  0  0  0
   -1.4345    0.0584    0.0000 H   0  0  0  0  0  0  0  0  0  0  0  0
   -0.5078    0.5934    0.0000 H   0  0  0  0  0  0  0  0  0  0  0  0
    1.1411   -1.4676    0.0000 H   0  0  0  0  0  0  0  0  0  0  0  0
    2.9617    0.9929    0.0000 H   0  0  0  0  0  0  0  0  0  0  0  0
    1.8976    1.1047    0.0000 H   0  0  0  0  0  0  0  0  0  0  0  0
    1.3857    3.3266    0.0000 H   0  0  0  0  0  0  0  0  0  0  0  0
    0.3215    3.2147    0.0000 H   0  0  0  0  0  0  0  0  0  0  0  0
   -1.5269   -3.4060    0.0000 H   0  0  0  0  0  0  0  0  0  0  0  0
    2.8555    0.9427    0.0000 H   0  0  0  0  0  0  0  0  0  0  0  0
    2.6707    2.6997    0.0000 H   0  0  0  0  0  0  0  0  0  0  0  0
   -2.1116   -1.4823    0.0000 H   0  0  0  0  0  0  0  0  0  0  0  0
   -0.4402    3.0475    0.0000 H   0  0  0  0  0  0  0  0  0  0  0  0
    1.2515   -1.1959    0.0000 H   0  0  0  0  0  0  0  0  0  0  0  0
  1 23  1  0  0  0  0
  1 24  1  0  0  0  0
  2 25  1  0  0  0  0
  3 26  1  0  0  0  0
  3 27  1  0  0  0  0
  4 28  1  0  0  0  0
  4 29  1  0  0  0  0
  5 30  1  0  0  0  0
  6  1  1  0  0  0  0
  6  2  2  0  0  0  0
  7  4  1  0  0  0  0
  7 12  1  0  0  0  0
  7 21  1  1  0  0  0
  8  1  1  0  0  0  0
  9  3  1  0  0  0  0
 10  7  1  0  0  0  0
 10 22  1  1  0  0  0
 11  8  1  0  0  0  0
 12 31  1  0  0  0  0
 12 32  1  0  0  0  0
 13  2  1  0  0  0  0
 13  5  2  0  0  0  0
 14  5  1  0  0  0  0
 14  6  1  0  0  0  0
 14 33  1  0  0  0  0
 15  8  2  0  0  0  0
 15 10  1  0  0  0  0
 16  3  1  0  0  0  0
 16 10  1  0  0  0  0
 16 11  1  0  0  0  0
 17  4  1  0  0  0  0
 17 34  1  0  0  0  0
 18  9  2  0  0  0  0
 19  9  1  0  0  0  0
 19 35  1  0  0  0  0
 20 11  2  0  0  0  0
M  END
>  <DRUGBANK_ID>
DB02356

>  <SECONDARY_ACCESSION_NUMBERS>
EXPT01855

>  <COMMON_NAME>
4-Imidazolmethylene-5-Imidazolone Chromophore

$$$$
