1238
 OpenBabel10282417072D

 57 60  0  0  0  0  0  0  0  0999 V2000
   12.4232   -0.7979    0.0000 Cl  0  0  0  0  0  0  0  0  0  0  0  0
   13.8554    0.0216    0.0000 Cl  0  0  0  0  0  0  0  0  0  0  0  0
    5.9914   -1.1855    0.0000 O   0  0  0  0  0  0  0  0  0  0  0  0
    1.6500   -1.1657    0.0000 O   0  0  0  0  0  0  0  0  0  0  0  0
    9.5653   -0.7868    0.0000 N   0  0  0  0  0  0  0  0  0  0  0  0
   10.9974    0.0327    0.0000 N   0  0  0  0  0  0  0  0  0  0  0  0
    3.0790   -1.1657    0.0000 N   0  0  0  0  0  0  0  0  0  0  0  0
   10.2782   -1.2021    0.0000 C   0  0  0  0  0  0  0  0  0  0  0  0
    9.5685    0.0382    0.0000 C   0  0  0  0  0  0  0  0  0  0  0  0
   10.9942   -0.7923    0.0000 C   0  0  0  0  0  0  0  0  0  0  0  0
   10.2846    0.4479    0.0000 C   0  0  0  0  0  0  0  0  0  0  0  0
    8.8493   -1.1966    0.0000 C   0  0  0  0  0  0  0  0  0  0  0  0
    8.1364   -0.7814    0.0000 C   0  0  0  0  0  0  0  0  0  0  0  0
   11.7135    0.4424    0.0000 C   0  0  0  0  0  0  0  0  0  0  0  0
    7.4203   -1.1911    0.0000 C   0  0  0  0  0  0  0  0  0  0  0  0
    6.7074   -0.7758    0.0000 C   0  0  0  0  0  0  0  0  0  0  0  0
   12.4264    0.0271    0.0000 C   0  0  0  0  0  0  0  0  0  0  0  0
   11.7167    1.2674    0.0000 C   0  0  0  0  0  0  0  0  0  0  0  0
    3.7935    0.0719    0.0000 C   0  0  0  0  0  0  0  0  0  0  0  0
    3.0790    0.4844    0.0000 C   0  0  0  0  0  0  0  0  0  0  0  0
    3.7935   -0.7532    0.0000 C   0  0  0  0  0  0  0  0  0  0  0  0
    5.2785   -0.7703    0.0000 C   0  0  0  0  0  0  0  0  0  0  0  0
   13.1425    0.4369    0.0000 C   0  0  0  0  0  0  0  0  0  0  0  0
   12.4327    1.6772    0.0000 C   0  0  0  0  0  0  0  0  0  0  0  0
    2.3645    0.0719    0.0000 C   0  0  0  0  0  0  0  0  0  0  0  0
    4.5309   -1.1943    0.0000 C   0  0  0  0  0  0  0  0  0  0  0  0
   13.1456    1.2619    0.0000 C   0  0  0  0  0  0  0  0  0  0  0  0
    4.5309    0.5130    0.0000 C   0  0  0  0  0  0  0  0  0  0  0  0
    5.2785    0.0890    0.0000 C   0  0  0  0  0  0  0  0  0  0  0  0
    2.3645   -0.7532    0.0000 C   0  0  0  0  0  0  0  0  0  0  0  0
    3.0790   -2.1502    0.0000 H   0  0  0  0  0  0  0  0  0  0  0  0
   10.2741   -2.2721    0.0000 H   0  0  0  0  0  0  0  0  0  0  0  0
   11.2028   -1.7406    0.0000 H   0  0  0  0  0  0  0  0  0  0  0  0
    8.6439    0.5768    0.0000 H   0  0  0  0  0  0  0  0  0  0  0  0
    9.5727    1.1082    0.0000 H   0  0  0  0  0  0  0  0  0  0  0  0
   11.9188   -1.3308    0.0000 H   0  0  0  0  0  0  0  0  0  0  0  0
   10.9901   -1.8623    0.0000 H   0  0  0  0  0  0  0  0  0  0  0  0
   10.2888    1.5179    0.0000 H   0  0  0  0  0  0  0  0  0  0  0  0
    9.3600    0.9865    0.0000 H   0  0  0  0  0  0  0  0  0  0  0  0
    8.8453   -2.2666    0.0000 H   0  0  0  0  0  0  0  0  0  0  0  0
    7.9206   -1.7281    0.0000 H   0  0  0  0  0  0  0  0  0  0  0  0
    8.1405    0.2886    0.0000 H   0  0  0  0  0  0  0  0  0  0  0  0
    7.2118   -0.2428    0.0000 H   0  0  0  0  0  0  0  0  0  0  0  0
    7.4161   -2.2611    0.0000 H   0  0  0  0  0  0  0  0  0  0  0  0
    6.4916   -1.7225    0.0000 H   0  0  0  0  0  0  0  0  0  0  0  0
    6.7116    0.2942    0.0000 H   0  0  0  0  0  0  0  0  0  0  0  0
    7.6361   -0.2444    0.0000 H   0  0  0  0  0  0  0  0  0  0  0  0
   10.8249    1.7868    0.0000 H   0  0  0  0  0  0  0  0  0  0  0  0
    3.0790    1.5544    0.0000 H   0  0  0  0  0  0  0  0  0  0  0  0
    2.1524    1.0194    0.0000 H   0  0  0  0  0  0  0  0  0  0  0  0
   12.4366    2.7092    0.0000 H   0  0  0  0  0  0  0  0  0  0  0  0
    1.4379    0.6069    0.0000 H   0  0  0  0  0  0  0  0  0  0  0  0
    1.4379   -0.4631    0.0000 H   0  0  0  0  0  0  0  0  0  0  0  0
    4.5189   -2.2262    0.0000 H   0  0  0  0  0  0  0  0  0  0  0  0
   14.0413    1.7745    0.0000 H   0  0  0  0  0  0  0  0  0  0  0  0
    4.5189    1.5449    0.0000 H   0  0  0  0  0  0  0  0  0  0  0  0
    6.1702    0.6084    0.0000 H   0  0  0  0  0  0  0  0  0  0  0  0
  1 17  1  0  0  0  0
  2 23  1  0  0  0  0
  3 16  1  0  0  0  0
  3 22  1  0  0  0  0
  4 30  2  0  0  0  0
  5  8  1  0  0  0  0
  5  9  1  0  0  0  0
  5 12  1  0  0  0  0
  6 10  1  0  0  0  0
  6 11  1  0  0  0  0
  6 14  1  0  0  0  0
  7 21  1  0  0  0  0
  7 30  1  0  0  0  0
  7 31  1  0  0  0  0
  8 10  1  0  0  0  0
  8 32  1  0  0  0  0
  8 33  1  0  0  0  0
  9 11  1  0  0  0  0
  9 34  1  0  0  0  0
  9 35  1  0  0  0  0
 10 36  1  0  0  0  0
 10 37  1  0  0  0  0
 11 38  1  0  0  0  0
 11 39  1  0  0  0  0
 12 13  1  0  0  0  0
 12 40  1  0  0  0  0
 12 41  1  0  0  0  0
 13 15  1  0  0  0  0
 13 42  1  0  0  0  0
 13 43  1  0  0  0  0
 14 17  2  0  0  0  0
 14 18  1  0  0  0  0
 15 16  1  0  0  0  0
 15 44  1  0  0  0  0
 15 45  1  0  0  0  0
 16 46  1  0  0  0  0
 16 47  1  0  0  0  0
 17 23  1  0  0  0  0
 18 24  2  0  0  0  0
 18 48  1  0  0  0  0
 19 20  1  0  0  0  0
 19 21  2  0  0  0  0
 19 28  1  0  0  0  0
 20 25  1  0  0  0  0
 20 49  1  0  0  0  0
 20 50  1  0  0  0  0
 21 26  1  0  0  0  0
 22 26  2  0  0  0  0
 22 29  1  0  0  0  0
 23 27  2  0  0  0  0
 24 27  1  0  0  0  0
 24 51  1  0  0  0  0
 25 30  1  0  0  0  0
 25 52  1  0  0  0  0
 25 53  1  0  0  0  0
 26 54  1  0  0  0  0
 27 55  1  0  0  0  0
 28 29  2  0  0  0  0
 28 56  1  0  0  0  0
 29 57  1  0  0  0  0
M  END
>  <DRUGBANK_ID>
DB01238

>  <SECONDARY_ACCESSION_NUMBERS>
APRD00638

>  <COMMON_NAME>
Aripiprazole

>  <CAS_NUMBER>
129722-12-9

>  <UNII>
82VFR53I78

>  <SYNONYMS>
Aripiprazol; Aripiprazole; Aripiprazolum

$$$$
