
 OpenBabel10282417072D

 34 35  0  0  0  0  0  0  0  0999 V2000
   -1.4498   -0.6891    0.0000 C   0  0  0  0  0  0  0  0  0  0  0  0
   -1.4509   -1.5124    0.0000 C   0  0  0  0  0  0  0  0  0  0  0  0
   -0.7403   -1.9253    0.0000 C   0  0  0  0  0  0  0  0  0  0  0  0
   -0.7421   -0.2804    0.0000 C   0  0  0  0  0  0  0  0  0  0  0  0
    0.7610   -1.7722    0.0000 N   0  0  0  0  0  0  0  0  0  0  0  0
   -0.0308   -0.6855    0.0000 C   0  0  0  0  0  0  0  0  0  0  0  0
   -0.0291   -1.5160    0.0000 C   0  0  0  0  0  0  0  0  0  0  0  0
    0.7583   -0.4300    0.0000 C   0  0  0  0  0  0  0  0  0  0  0  0
    1.2517   -1.1027    0.0000 C   0  0  0  0  0  0  0  0  0  0  0  0
   -2.1641   -0.2760    0.0000 O   0  0  0  0  0  0  0  0  0  0  0  0
   -2.8790   -0.6881    0.0000 C   0  0  0  0  0  0  0  0  0  0  0  0
    1.0118    0.3550    0.0000 C   0  0  0  0  0  0  0  0  0  0  0  0
    1.8186    0.5280    0.0000 C   0  0  0  0  0  0  0  0  0  0  0  0
    2.0722    1.3131    0.0000 N   0  0  0  0  0  0  0  0  0  0  0  0
    2.8790    1.4861    0.0000 C   0  0  0  0  0  0  0  0  0  0  0  0
    1.5191    1.9253    0.0000 C   0  0  0  0  0  0  0  0  0  0  0  0
   -2.3457   -2.0266    0.0000 H   0  0  0  0  0  0  0  0  0  0  0  0
   -0.7424   -2.9573    0.0000 H   0  0  0  0  0  0  0  0  0  0  0  0
   -0.7452    0.7516    0.0000 H   0  0  0  0  0  0  0  0  0  0  0  0
    1.0636   -2.7091    0.0000 H   0  0  0  0  0  0  0  0  0  0  0  0
    2.2837   -1.1025    0.0000 H   0  0  0  0  0  0  0  0  0  0  0  0
   -3.8053   -0.1525    0.0000 H   0  0  0  0  0  0  0  0  0  0  0  0
   -2.8797   -1.7581    0.0000 H   0  0  0  0  0  0  0  0  0  0  0  0
   -3.8060   -1.2225    0.0000 H   0  0  0  0  0  0  0  0  0  0  0  0
    0.2944    1.1489    0.0000 H   0  0  0  0  0  0  0  0  0  0  0  0
    1.3406    1.3732    0.0000 H   0  0  0  0  0  0  0  0  0  0  0  0
    2.5360   -0.2659    0.0000 H   0  0  0  0  0  0  0  0  0  0  0  0
    2.8648    0.7523    0.0000 H   0  0  0  0  0  0  0  0  0  0  0  0
    3.5964    0.6922    0.0000 H   0  0  0  0  0  0  0  0  0  0  0  0
    3.2078    2.5043    0.0000 H   0  0  0  0  0  0  0  0  0  0  0  0
    3.9252    1.7104    0.0000 H   0  0  0  0  0  0  0  0  0  0  0  0
    1.8480    2.9435    0.0000 H   0  0  0  0  0  0  0  0  0  0  0  0
    0.4729    1.7011    0.0000 H   0  0  0  0  0  0  0  0  0  0  0  0
    0.8018    2.7193    0.0000 H   0  0  0  0  0  0  0  0  0  0  0  0
  1 10  1  0  0  0  0
  1  2  2  0  0  0  0
  2  3  1  0  0  0  0
  2 17  1  0  0  0  0
  3  7  2  0  0  0  0
  3 18  1  0  0  0  0
  4  1  1  0  0  0  0
  4 19  1  0  0  0  0
  5  9  1  0  0  0  0
  5 20  1  0  0  0  0
  6  7  1  0  0  0  0
  6  4  2  0  0  0  0
  7  5  1  0  0  0  0
  8 12  1  0  0  0  0
  8  6  1  0  0  0  0
  8  9  2  0  0  0  0
  9 21  1  0  0  0  0
 10 11  1  0  0  0  0
 11 22  1  0  0  0  0
 11 23  1  0  0  0  0
 11 24  1  0  0  0  0
 12 13  1  0  0  0  0
 12 25  1  0  0  0  0
 12 26  1  0  0  0  0
 13 14  1  0  0  0  0
 13 27  1  0  0  0  0
 13 28  1  0  0  0  0
 14 15  1  0  0  0  0
 14 16  1  0  0  0  0
 15 29  1  0  0  0  0
 15 30  1  0  0  0  0
 15 31  1  0  0  0  0
 16 32  1  0  0  0  0
 16 33  1  0  0  0  0
 16 34  1  0  0  0  0
M  END
>  <DRUGBANK_ID>
DB14010

>  <COMMON_NAME>
5-methoxy-N,N-dimethyltryptamine

>  <CAS_NUMBER>
1019-45-0

>  <UNII>
X0MKX3GWU9

>  <SYNONYMS>
3-(2-dimethylaminoethyl)-5-methoxyindole; 3-[2-(N,N-Dimethylamino)ethyl]-5-methoxy-indole; 5-MeO-DMT; 5-methoxy-N,N-dimethyl-1H-indole-3-ethanamine; MeODMT; Methoxybufotenin; N,N-dimethyl-5-methoxytryptamine; O-methylbufotenine

$$$$
