
 OpenBabel10282417072D

 57 60  0  0  0  0  0  0  0  0999 V2000
    0.8807    2.0059    0.0000 O   0  0  0  0  0  0  0  0  0  0  0  0
    1.3933    3.5743    0.0000 O   0  0  0  0  0  0  0  0  0  0  0  0
   -0.3357   -4.1790    0.0000 N   0  0  0  0  0  0  0  0  0  0  0  0
    0.2913    4.8024    0.0000 N   0  0  0  0  0  0  0  0  0  0  0  0
    0.4448   -5.2554    0.0000 N   0  0  0  0  0  0  0  0  0  0  0  0
    0.1501   -2.5292    0.0000 N   0  0  0  0  0  0  0  0  0  0  0  0
   -0.1444   -1.1309    0.0000 N   0  0  0  0  0  0  0  0  0  0  0  0
    1.2138   -1.5748    0.0000 N   0  0  0  0  0  0  0  0  0  0  0  0
    0.5861    3.4042    0.0000 C   0  0  1  0  0  0  0  0  0  0  0  0
    0.0350    4.0183    0.0000 C   0  0  0  0  0  0  0  0  0  0  0  0
    0.4448   -3.9275    0.0000 C   0  0  0  0  0  0  0  0  0  0  0  0
    0.3296    2.6199    0.0000 C   0  0  0  0  0  0  0  0  0  0  0  0
   -0.3357   -5.0040    0.0000 C   0  0  0  0  0  0  0  0  0  0  0  0
    0.9264   -4.5915    0.0000 C   0  0  0  0  0  0  0  0  0  0  0  0
    0.7012   -3.1433    0.0000 C   0  0  0  0  0  0  0  0  0  0  0  0
   -1.0503   -3.7664    0.0000 C   0  0  0  0  0  0  0  0  0  0  0  0
   -0.2595    5.4165    0.0000 C   0  0  0  0  0  0  0  0  0  0  0  0
    1.0986    4.9725    0.0000 C   0  0  0  0  0  0  0  0  0  0  0  0
   -1.0503   -5.4165    0.0000 C   0  0  0  0  0  0  0  0  0  0  0  0
    1.7514   -4.5915    0.0000 C   0  0  0  0  0  0  0  0  0  0  0  0
    0.6244    1.2216    0.0000 C   0  0  0  0  0  0  0  0  0  0  0  0
   -1.7648   -4.1790    0.0000 C   0  0  0  0  0  0  0  0  0  0  0  0
   -1.7648   -5.0040    0.0000 C   0  0  0  0  0  0  0  0  0  0  0  0
    1.5084   -2.9732    0.0000 C   0  0  0  0  0  0  0  0  0  0  0  0
    0.1118   -0.3467    0.0000 C   0  0  0  0  0  0  0  0  0  0  0  0
    0.4065   -1.7450    0.0000 C   0  0  0  0  0  0  0  0  0  0  0  0
   -0.1828    1.0515    0.0000 C   0  0  0  0  0  0  0  0  0  0  0  0
    1.1753    0.6076    0.0000 C   0  0  0  0  0  0  0  0  0  0  0  0
   -0.4391    0.2672    0.0000 C   0  0  0  0  0  0  0  0  0  0  0  0
    0.9191   -0.1766    0.0000 C   0  0  0  0  0  0  0  0  0  0  0  0
    1.7648   -2.1890    0.0000 C   0  0  0  0  0  0  0  0  0  0  0  0
   -0.6451   -1.2364    0.0000 H   0  0  0  0  0  0  0  0  0  0  0  0
    2.0411    2.8523    0.0000 H   0  0  0  0  0  0  0  0  0  0  0  0
    0.9185    4.4213    0.0000 H   0  0  0  0  0  0  0  0  0  0  0  0
   -1.0120    3.7976    0.0000 H   0  0  0  0  0  0  0  0  0  0  0  0
   -0.2974    3.0012    0.0000 H   0  0  0  0  0  0  0  0  0  0  0  0
   -0.7174    2.3993    0.0000 H   0  0  0  0  0  0  0  0  0  0  0  0
   -0.3849    3.4164    0.0000 H   0  0  0  0  0  0  0  0  0  0  0  0
   -1.0503   -2.7344    0.0000 H   0  0  0  0  0  0  0  0  0  0  0  0
    0.0731    6.4335    0.0000 H   0  0  0  0  0  0  0  0  0  0  0  0
   -1.3065    5.1961    0.0000 H   0  0  0  0  0  0  0  0  0  0  0  0
   -0.9739    6.2130    0.0000 H   0  0  0  0  0  0  0  0  0  0  0  0
    1.8132    4.1761    0.0000 H   0  0  0  0  0  0  0  0  0  0  0  0
    1.4311    5.9895    0.0000 H   0  0  0  0  0  0  0  0  0  0  0  0
    2.1456    5.1931    0.0000 H   0  0  0  0  0  0  0  0  0  0  0  0
   -1.0503   -6.4485    0.0000 H   0  0  0  0  0  0  0  0  0  0  0  0
    2.2864   -5.5181    0.0000 H   0  0  0  0  0  0  0  0  0  0  0  0
    2.2864   -3.6649    0.0000 H   0  0  0  0  0  0  0  0  0  0  0  0
    2.8214   -4.5915    0.0000 H   0  0  0  0  0  0  0  0  0  0  0  0
   -2.6586   -3.6630    0.0000 H   0  0  0  0  0  0  0  0  0  0  0  0
   -2.6585   -5.5200    0.0000 H   0  0  0  0  0  0  0  0  0  0  0  0
    2.1976   -3.7414    0.0000 H   0  0  0  0  0  0  0  0  0  0  0  0
   -0.8720    1.8196    0.0000 H   0  0  0  0  0  0  0  0  0  0  0  0
    2.1851    0.8205    0.0000 H   0  0  0  0  0  0  0  0  0  0  0  0
   -1.4489    0.0543    0.0000 H   0  0  0  0  0  0  0  0  0  0  0  0
    1.6083   -0.9447    0.0000 H   0  0  0  0  0  0  0  0  0  0  0  0
    2.7746   -1.9763    0.0000 H   0  0  0  0  0  0  0  0  0  0  0  0
  1 12  1  0  0  0  0
  1 21  1  0  0  0  0
  2 33  1  0  0  0  0
  3 11  1  0  0  0  0
  3 13  1  0  0  0  0
  3 16  1  0  0  0  0
  4 10  1  0  0  0  0
  4 17  1  0  0  0  0
  4 18  1  0  0  0  0
  5 13  2  0  0  0  0
  5 14  1  0  0  0  0
  6 15  2  0  0  0  0
  6 26  1  0  0  0  0
  7 25  1  0  0  0  0
  7 26  1  0  0  0  0
  7 32  1  0  0  0  0
  8 26  2  0  0  0  0
  8 31  1  0  0  0  0
  9  2  1  0  0  0  0
  9 10  1  0  0  0  0
  9 12  1  0  0  0  0
  9 34  1  1  0  0  0
 10 35  1  0  0  0  0
 10 36  1  0  0  0  0
 11 14  2  0  0  0  0
 11 15  1  0  0  0  0
 12 37  1  0  0  0  0
 12 38  1  0  0  0  0
 13 19  1  0  0  0  0
 14 20  1  0  0  0  0
 15 24  1  0  0  0  0
 16 22  2  0  0  0  0
 16 39  1  0  0  0  0
 17 40  1  0  0  0  0
 17 41  1  0  0  0  0
 17 42  1  0  0  0  0
 18 43  1  0  0  0  0
 18 44  1  0  0  0  0
 18 45  1  0  0  0  0
 19 23  2  0  0  0  0
 19 46  1  0  0  0  0
 20 47  1  0  0  0  0
 20 48  1  0  0  0  0
 20 49  1  0  0  0  0
 21 27  2  0  0  0  0
 21 28  1  0  0  0  0
 22 23  1  0  0  0  0
 22 50  1  0  0  0  0
 23 51  1  0  0  0  0
 24 31  2  0  0  0  0
 24 52  1  0  0  0  0
 25 29  2  0  0  0  0
 25 30  1  0  0  0  0
 27 29  1  0  0  0  0
 27 53  1  0  0  0  0
 28 30  2  0  0  0  0
 28 54  1  0  0  0  0
 29 55  1  0  0  0  0
 30 56  1  0  0  0  0
 31 57  1  0  0  0  0
M  END
>  <DRUGBANK_ID>
DB07889

>  <COMMON_NAME>
(2S)-1-(Dimethylamino)-3-(4-{[4-(2-methylimidazo[1,2-a]pyridin-3-yl)-2-pyrimidinyl]amino}phenoxy)-2-propanol

$$$$
