HF1
 OpenBabel10282417072D

 29 29  0  0  0  0  0  0  0  0999 V2000
    2.9508   -0.0571    0.0000 P   0  0  0  0  0  0  0  0  0  0  0  0
    3.6652    0.3554    0.0000 O   0  0  0  0  0  0  0  0  0  0  0  0
    2.5383    0.6574    0.0000 O   0  0  0  0  0  0  0  0  0  0  0  0
    3.3633   -0.7716    0.0000 O   0  0  0  0  0  0  0  0  0  0  0  0
    1.5218   -0.0571    0.0000 C   0  0  0  0  0  0  0  0  0  0  0  0
    0.0929   -0.0571    0.0000 C   0  0  0  0  0  0  0  0  0  0  0  0
   -1.3361    0.7679    0.0000 C   0  0  0  0  0  0  0  0  0  0  0  0
   -1.3361   -0.0571    0.0000 C   0  0  0  0  0  0  0  0  0  0  0  0
   -2.0505   -0.4696    0.0000 C   0  0  0  0  0  0  0  0  0  0  0  0
   -2.0505   -1.2946    0.0000 O   0  0  0  0  0  0  0  0  0  0  0  0
   -2.7650   -0.0571    0.0000 C   0  0  0  0  0  0  0  0  0  0  0  0
   -2.7650    0.7679    0.0000 C   0  0  0  0  0  0  0  0  0  0  0  0
   -2.0505    1.1804    0.0000 C   0  0  0  0  0  0  0  0  0  0  0  0
   -2.0505    2.0054    0.0000 F   0  0  0  0  0  0  0  0  0  0  0  0
   -0.6216   -0.4696    0.0000 S   0  0  0  0  0  0  0  0  0  0  0  0
    0.8074   -0.4696    0.0000 C   0  0  0  0  0  0  0  0  0  0  0  0
    2.2363   -0.4696    0.0000 C   0  0  0  0  0  0  0  0  0  0  0  0
    3.0233    1.4974    0.0000 H   0  0  0  0  0  0  0  0  0  0  0  0
    2.8783   -1.6116    0.0000 H   0  0  0  0  0  0  0  0  0  0  0  0
    1.5218    0.9749    0.0000 H   0  0  0  0  0  0  0  0  0  0  0  0
    0.0929    1.0129    0.0000 H   0  0  0  0  0  0  0  0  0  0  0  0
    1.0195    0.4779    0.0000 H   0  0  0  0  0  0  0  0  0  0  0  0
   -0.4424    1.2839    0.0000 H   0  0  0  0  0  0  0  0  0  0  0  0
   -2.8620   -1.7631    0.0000 H   0  0  0  0  0  0  0  0  0  0  0  0
   -3.6587   -0.5731    0.0000 H   0  0  0  0  0  0  0  0  0  0  0  0
   -3.6587    1.2839    0.0000 H   0  0  0  0  0  0  0  0  0  0  0  0
    0.8074   -1.5396    0.0000 H   0  0  0  0  0  0  0  0  0  0  0  0
   -0.1192   -1.0046    0.0000 H   0  0  0  0  0  0  0  0  0  0  0  0
    2.2363   -1.5016    0.0000 H   0  0  0  0  0  0  0  0  0  0  0  0
  1  2  2  0  0  0  0
  1  3  1  0  0  0  0
  1  4  1  0  0  0  0
  1 17  1  0  0  0  0
  3 18  1  0  0  0  0
  4 19  1  0  0  0  0
  5 16  1  0  0  0  0
  5 17  2  0  0  0  0
  5 20  1  0  0  0  0
  6 15  1  0  0  0  0
  6 16  1  0  0  0  0
  6 21  1  0  0  0  0
  6 22  1  0  0  0  0
  7  8  2  0  0  0  0
  7 13  1  0  0  0  0
  7 23  1  0  0  0  0
  8  9  1  0  0  0  0
  8 15  1  0  0  0  0
  9 10  1  0  0  0  0
  9 11  2  0  0  0  0
 10 24  1  0  0  0  0
 11 12  1  0  0  0  0
 11 25  1  0  0  0  0
 12 13  2  0  0  0  0
 12 26  1  0  0  0  0
 13 14  1  0  0  0  0
 16 27  1  0  0  0  0
 16 28  1  0  0  0  0
 17 29  1  0  0  0  0
M  END
>  <DRUGBANK_ID>
DB07894

>  <COMMON_NAME>
4-(2-HYDROXY-4-FLUOROPHENYLTHIO)-BUTYLPHOSPHONIC ACID

$$$$
