NC7
 OpenBabel10282417072D

 45 45  0  0  0  0  0  0  0  0999 V2000
   -2.7264   -0.0770    0.0000 C   0  0  0  0  0  0  0  0  0  0  0  0
   -2.0118   -0.4895    0.0000 N   0  0  0  0  0  0  0  0  0  0  0  0
   -1.2973   -0.0770    0.0000 C   0  0  0  0  0  0  0  0  0  0  0  0
   -0.5828   -0.4895    0.0000 N   0  0  0  0  0  0  0  0  0  0  0  0
    0.1317   -0.0770    0.0000 C   0  0  0  0  0  0  0  0  0  0  0  0
    0.8463   -0.4895    0.0000 C   0  0  0  0  0  0  0  0  0  0  0  0
    1.5607   -0.0770    0.0000 C   0  0  0  0  0  0  0  0  0  0  0  0
    2.2753   -0.4895    0.0000 C   0  0  0  0  0  0  0  0  0  0  0  0
    2.9898   -0.0770    0.0000 C   0  0  0  0  0  0  0  0  0  0  0  0
   -1.2973    0.7481    0.0000 O   0  0  0  0  0  0  0  0  0  0  0  0
    3.7044   -0.4895    0.0000 C   0  0  0  0  0  0  0  0  0  0  0  0
    4.4188   -0.0770    0.0000 C   0  0  0  0  0  0  0  0  0  0  0  0
    5.1334   -0.4895    0.0000 O   0  0  0  0  0  0  0  0  0  0  0  0
    4.4188    0.7481    0.0000 O   0  0  0  0  0  0  0  0  0  0  0  0
   -3.4409   -0.4895    0.0000 C   0  0  0  0  0  0  0  0  0  0  0  0
   -4.1554   -0.0770    0.0000 C   0  0  0  0  0  0  0  0  0  0  0  0
   -4.1554    0.7481    0.0000 C   0  0  0  0  0  0  0  0  0  0  0  0
   -3.4409    1.1606    0.0000 C   0  0  0  0  0  0  0  0  0  0  0  0
   -2.7264    0.7481    0.0000 C   0  0  0  0  0  0  0  0  0  0  0  0
   -3.6530    0.4580    0.0000 H   0  0  0  0  0  0  0  0  0  0  0  0
   -2.0118   -1.4740    0.0000 H   0  0  0  0  0  0  0  0  0  0  0  0
   -0.5828   -1.4740    0.0000 H   0  0  0  0  0  0  0  0  0  0  0  0
    0.1317    0.9930    0.0000 H   0  0  0  0  0  0  0  0  0  0  0  0
    1.0583    0.4581    0.0000 H   0  0  0  0  0  0  0  0  0  0  0  0
    0.8464   -1.5595    0.0000 H   0  0  0  0  0  0  0  0  0  0  0  0
    1.7730   -1.0245    0.0000 H   0  0  0  0  0  0  0  0  0  0  0  0
    1.5606    0.9930    0.0000 H   0  0  0  0  0  0  0  0  0  0  0  0
    2.4873    0.4581    0.0000 H   0  0  0  0  0  0  0  0  0  0  0  0
    2.2753   -1.5595    0.0000 H   0  0  0  0  0  0  0  0  0  0  0  0
    3.2020   -1.0245    0.0000 H   0  0  0  0  0  0  0  0  0  0  0  0
    2.9898    0.9930    0.0000 H   0  0  0  0  0  0  0  0  0  0  0  0
    3.9164    0.4581    0.0000 H   0  0  0  0  0  0  0  0  0  0  0  0
    3.7045   -1.5595    0.0000 H   0  0  0  0  0  0  0  0  0  0  0  0
    4.6311   -1.0245    0.0000 H   0  0  0  0  0  0  0  0  0  0  0  0
    5.1335   -1.4265    0.0000 H   0  0  0  0  0  0  0  0  0  0  0  0
   -3.4409   -1.5595    0.0000 H   0  0  0  0  0  0  0  0  0  0  0  0
   -4.3675   -1.0245    0.0000 H   0  0  0  0  0  0  0  0  0  0  0  0
   -5.0820   -0.6120    0.0000 H   0  0  0  0  0  0  0  0  0  0  0  0
   -5.0820    0.4580    0.0000 H   0  0  0  0  0  0  0  0  0  0  0  0
   -5.0820    1.2831    0.0000 H   0  0  0  0  0  0  0  0  0  0  0  0
   -4.1554    1.8181    0.0000 H   0  0  0  0  0  0  0  0  0  0  0  0
   -3.4409    2.2306    0.0000 H   0  0  0  0  0  0  0  0  0  0  0  0
   -2.5143    1.6956    0.0000 H   0  0  0  0  0  0  0  0  0  0  0  0
   -1.7998    1.2831    0.0000 H   0  0  0  0  0  0  0  0  0  0  0  0
   -2.7264    1.8181    0.0000 H   0  0  0  0  0  0  0  0  0  0  0  0
  1  2  1  0  0  0  0
  1 15  1  0  0  0  0
  1 19  1  0  0  0  0
  1 20  1  0  0  0  0
  2  3  1  0  0  0  0
  2 21  1  0  0  0  0
  3  4  1  0  0  0  0
  3 10  2  0  0  0  0
  4  5  1  0  0  0  0
  4 22  1  0  0  0  0
  5  6  1  0  0  0  0
  5 23  1  0  0  0  0
  5 24  1  0  0  0  0
  6  7  1  0  0  0  0
  6 25  1  0  0  0  0
  6 26  1  0  0  0  0
  7  8  1  0  0  0  0
  7 27  1  0  0  0  0
  7 28  1  0  0  0  0
  8  9  1  0  0  0  0
  8 29  1  0  0  0  0
  8 30  1  0  0  0  0
  9 11  1  0  0  0  0
  9 31  1  0  0  0  0
  9 32  1  0  0  0  0
 11 12  1  0  0  0  0
 11 33  1  0  0  0  0
 11 34  1  0  0  0  0
 12 13  1  0  0  0  0
 12 14  2  0  0  0  0
 13 35  1  0  0  0  0
 15 16  1  0  0  0  0
 15 36  1  0  0  0  0
 15 37  1  0  0  0  0
 16 17  1  0  0  0  0
 16 38  1  0  0  0  0
 16 39  1  0  0  0  0
 17 18  1  0  0  0  0
 17 40  1  0  0  0  0
 17 41  1  0  0  0  0
 18 19  1  0  0  0  0
 18 42  1  0  0  0  0
 18 43  1  0  0  0  0
 19 44  1  0  0  0  0
 19 45  1  0  0  0  0
M  END
>  <DRUGBANK_ID>
DB08259

>  <COMMON_NAME>
7-{[(CYCLOHEXYLAMINO)CARBONYL]AMINO}HEPTANOIC ACID

$$$$
