
 OpenBabel10282417072D

 71 75  0  0  0  0  0  0  0  0999 V2000
    2.4390    1.3602    0.0000 O   0  0  0  0  0  0  0  0  0  0  0  0
    2.4390    0.5352    0.0000 C   0  0  2  0  0  0  0  0  0  0  0  0
    1.7246    0.9477    0.0000 C   0  0  0  0  0  0  0  0  0  0  0  0
    1.7246    1.7726    0.0000 O   0  0  0  0  0  0  0  0  0  0  0  0
    1.0101    0.5352    0.0000 C   0  0  0  0  0  0  0  0  0  0  0  0
    0.2956    0.9477    0.0000 C   0  0  0  0  0  0  0  0  0  0  0  0
   -0.4187    0.5352    0.0000 C   0  0  0  0  0  0  0  0  0  0  0  0
   -1.1332    0.9477    0.0000 C   0  0  0  0  0  0  0  0  0  0  0  0
   -1.1332    1.7726    0.0000 O   0  0  0  0  0  0  0  0  0  0  0  0
   -1.8477    0.5352    0.0000 C   0  0  0  0  0  0  0  0  0  0  0  0
   -2.5622    0.9477    0.0000 N   0  0  0  0  0  0  0  0  0  0  0  0
   -3.2767    0.5352    0.0000 C   0  0  0  0  0  0  0  0  0  0  0  0
   -3.9912    0.9477    0.0000 C   0  0  2  0  0  0  0  0  0  0  0  0
   -4.0774    1.7681    0.0000 C   0  0  0  0  0  0  0  0  0  0  0  0
   -4.8843    1.9396    0.0000 C   0  0  0  0  0  0  0  0  0  0  0  0
   -5.2969    1.2252    0.0000 C   0  0  0  0  0  0  0  0  0  0  0  0
   -4.7448    0.6121    0.0000 N   0  0  0  0  0  0  0  0  0  0  0  0
   -4.9163   -0.1948    0.0000 C   0  0  0  0  0  0  0  0  0  0  0  0
   -3.2767   -0.2896    0.0000 O   0  0  0  0  0  0  0  0  0  0  0  0
   -1.8477   -0.2896    0.0000 C   0  0  0  0  0  0  0  0  0  0  0  0
   -1.1332   -0.7023    0.0000 C   0  0  0  0  0  0  0  0  0  0  0  0
   -1.1332   -1.5273    0.0000 F   0  0  0  0  0  0  0  0  0  0  0  0
   -0.4187   -0.2896    0.0000 C   0  0  0  0  0  0  0  0  0  0  0  0
    0.2956   -0.7023    0.0000 C   0  0  0  0  0  0  0  0  0  0  0  0
    1.0101   -0.2896    0.0000 C   0  0  1  0  0  0  0  0  0  0  0  0
    1.0101   -1.1147    0.0000 H   0  0  0  0  0  0  0  0  0  0  0  0
    1.7246   -0.7023    0.0000 C   0  0  0  0  0  0  0  0  0  0  0  0
    2.4390   -0.2896    0.0000 C   0  0  1  0  0  0  0  0  0  0  0  0
    2.4390   -1.1147    0.0000 H   0  0  0  0  0  0  0  0  0  0  0  0
    3.1535   -0.7023    0.0000 C   0  0  1  0  0  0  0  0  0  0  0  0
    3.8679   -0.2896    0.0000 C   0  0  0  0  0  0  0  0  0  0  0  0
    4.5824   -0.7023    0.0000 O   0  0  0  0  0  0  0  0  0  0  0  0
    3.8679    0.5352    0.0000 C   0  0  0  0  0  0  0  0  0  0  0  0
    4.5824    0.9477    0.0000 C   0  0  0  0  0  0  0  0  0  0  0  0
    4.5824    1.7726    0.0000 O   0  0  0  0  0  0  0  0  0  0  0  0
    5.2969    0.5352    0.0000 N   0  0  0  0  0  0  0  0  0  0  0  0
    3.1535    0.9477    0.0000 C   0  0  0  0  0  0  0  0  0  0  0  0
    3.1535    1.7726    0.0000 O   0  0  0  0  0  0  0  0  0  0  0  0
    3.1535   -1.5273    0.0000 N   0  0  0  0  0  0  0  0  0  0  0  0
    2.4390   -1.9397    0.0000 C   0  0  0  0  0  0  0  0  0  0  0  0
    3.8679   -1.9397    0.0000 C   0  0  0  0  0  0  0  0  0  0  0  0
    0.2956    1.7726    0.0000 O   0  0  0  0  0  0  0  0  0  0  0  0
    3.2790    1.8452    0.0000 H   0  0  0  0  0  0  0  0  0  0  0  0
    2.5361    2.2411    0.0000 H   0  0  0  0  0  0  0  0  0  0  0  0
   -0.3217    2.2411    0.0000 H   0  0  0  0  0  0  0  0  0  0  0  0
   -2.5622    1.9322    0.0000 H   0  0  0  0  0  0  0  0  0  0  0  0
   -3.0938    1.5305    0.0000 H   0  0  0  0  0  0  0  0  0  0  0  0
   -3.2822    2.4841    0.0000 H   0  0  0  0  0  0  0  0  0  0  0  0
   -4.3543    2.8016    0.0000 H   0  0  0  0  0  0  0  0  0  0  0  0
   -5.3194    2.9171    0.0000 H   0  0  0  0  0  0  0  0  0  0  0  0
   -5.9528    1.9957    0.0000 H   0  0  0  0  0  0  0  0  0  0  0  0
   -6.3610    1.1134    0.0000 H   0  0  0  0  0  0  0  0  0  0  0  0
   -5.6803    0.2263    0.0000 H   0  0  0  0  0  0  0  0  0  0  0  0
   -5.9339   -0.5255    0.0000 H   0  0  0  0  0  0  0  0  0  0  0  0
   -4.1211   -0.9108    0.0000 H   0  0  0  0  0  0  0  0  0  0  0  0
   -5.1388   -1.2414    0.0000 H   0  0  0  0  0  0  0  0  0  0  0  0
   -2.7415   -0.8055    0.0000 H   0  0  0  0  0  0  0  0  0  0  0  0
    0.2955   -1.7723    0.0000 H   0  0  0  0  0  0  0  0  0  0  0  0
    1.2223   -1.2372    0.0000 H   0  0  0  0  0  0  0  0  0  0  0  0
    1.7246   -1.7723    0.0000 H   0  0  0  0  0  0  0  0  0  0  0  0
    2.6513   -1.2372    0.0000 H   0  0  0  0  0  0  0  0  0  0  0  0
    2.2268   -1.2372    0.0000 H   0  0  0  0  0  0  0  0  0  0  0  0
    4.5822   -1.6393    0.0000 H   0  0  0  0  0  0  0  0  0  0  0  0
    5.2969   -0.4493    0.0000 H   0  0  0  0  0  0  0  0  0  0  0  0
    6.1495    1.0275    0.0000 H   0  0  0  0  0  0  0  0  0  0  0  0
    1.5124   -1.4046    0.0000 H   0  0  0  0  0  0  0  0  0  0  0  0
    2.4389   -3.0097    0.0000 H   0  0  0  0  0  0  0  0  0  0  0  0
    1.5123   -2.4746    0.0000 H   0  0  0  0  0  0  0  0  0  0  0  0
    3.8680   -3.0097    0.0000 H   0  0  0  0  0  0  0  0  0  0  0  0
    4.7945   -1.4046    0.0000 H   0  0  0  0  0  0  0  0  0  0  0  0
    4.7946   -2.4746    0.0000 H   0  0  0  0  0  0  0  0  0  0  0  0
  1 43  1  0  0  0  0
  2  1  1  1  0  0  0
  2  3  1  0  0  0  0
  2 28  1  0  0  0  0
  2 37  1  0  0  0  0
  3  4  1  0  0  0  0
  3  5  2  0  0  0  0
  4 44  1  0  0  0  0
  5  6  1  0  0  0  0
  5 25  1  0  0  0  0
  6  7  1  0  0  0  0
  6 42  2  0  0  0  0
  7  8  2  0  0  0  0
  7 23  1  0  0  0  0
  8  9  1  0  0  0  0
  8 10  1  0  0  0  0
  9 45  1  0  0  0  0
 10 11  1  0  0  0  0
 10 20  2  0  0  0  0
 11 12  1  0  0  0  0
 11 46  1  0  0  0  0
 12 19  2  0  0  0  0
 13 12  1  0  0  0  0
 13 14  1  0  0  0  0
 13 17  1  0  0  0  0
 13 47  1  6  0  0  0
 14 15  1  0  0  0  0
 14 48  1  0  0  0  0
 14 49  1  0  0  0  0
 15 50  1  0  0  0  0
 15 51  1  0  0  0  0
 16 15  1  0  0  0  0
 16 52  1  0  0  0  0
 16 53  1  0  0  0  0
 17 16  1  0  0  0  0
 17 18  1  0  0  0  0
 18 54  1  0  0  0  0
 18 55  1  0  0  0  0
 18 56  1  0  0  0  0
 20 57  1  0  0  0  0
 21 20  1  0  0  0  0
 21 22  1  0  0  0  0
 23 21  2  0  0  0  0
 24 23  1  0  0  0  0
 24 58  1  0  0  0  0
 24 59  1  0  0  0  0
 25 24  1  0  0  0  0
 25 26  1  1  0  0  0
 27 25  1  0  0  0  0
 27 60  1  0  0  0  0
 27 61  1  0  0  0  0
 28 27  1  0  0  0  0
 28 29  1  1  0  0  0
 28 30  1  0  0  0  0
 30 31  1  0  0  0  0
 30 39  1  0  0  0  0
 30 62  1  6  0  0  0
 31 32  1  0  0  0  0
 32 63  1  0  0  0  0
 33 31  2  0  0  0  0
 33 34  1  0  0  0  0
 34 35  2  0  0  0  0
 34 36  1  0  0  0  0
 36 64  1  0  0  0  0
 36 65  1  0  0  0  0
 37 33  1  0  0  0  0
 37 38  2  0  0  0  0
 39 40  1  0  0  0  0
 39 41  1  0  0  0  0
 40 66  1  0  0  0  0
 40 67  1  0  0  0  0
 40 68  1  0  0  0  0
 41 69  1  0  0  0  0
 41 70  1  0  0  0  0
 41 71  1  0  0  0  0
M  END
>  <DRUGBANK_ID>
DB15040

>  <COMMON_NAME>
TP-271

>  <CAS_NUMBER>
1207284-17-0

>  <UNII>
Y6IUM7395Q

$$$$
