
 OpenBabel10282417072D

 20 21  0  0  0  0  0  0  0  0999 V2000
    1.0717   -1.2372    0.0000 C   0  0  0  0  0  0  0  0  0  0  0  0
    1.7862   -0.8248    0.0000 C   0  0  0  0  0  0  0  0  0  0  0  0
   -1.0718   -0.8248    0.0000 C   0  0  0  0  0  0  0  0  0  0  0  0
   -1.0718    0.0002    0.0000 C   0  0  0  0  0  0  0  0  0  0  0  0
   -0.3573    0.4127    0.0000 C   0  0  0  0  0  0  0  0  0  0  0  0
    0.3571    0.0002    0.0000 C   0  0  0  0  0  0  0  0  0  0  0  0
    1.0717    0.4127    0.0000 C   0  0  0  0  0  0  0  0  0  0  0  0
    1.7862    0.0002    0.0000 C   0  0  0  0  0  0  0  0  0  0  0  0
    0.3571   -0.8248    0.0000 C   0  0  0  0  0  0  0  0  0  0  0  0
   -0.3573   -1.2372    0.0000 C   0  0  0  0  0  0  0  0  0  0  0  0
   -1.7862   -1.2379    0.0000 O   0  0  0  0  0  0  0  0  0  0  0  0
    1.0714    1.2379    0.0000 O   0  0  0  0  0  0  0  0  0  0  0  0
    1.0717   -2.2692    0.0000 H   0  0  0  0  0  0  0  0  0  0  0  0
    2.6799   -1.3409    0.0000 H   0  0  0  0  0  0  0  0  0  0  0  0
   -1.9655    0.5162    0.0000 H   0  0  0  0  0  0  0  0  0  0  0  0
   -0.3573    1.4447    0.0000 H   0  0  0  0  0  0  0  0  0  0  0  0
    2.6799    0.5162    0.0000 H   0  0  0  0  0  0  0  0  0  0  0  0
   -0.3573   -2.2692    0.0000 H   0  0  0  0  0  0  0  0  0  0  0  0
   -2.5980   -0.7699    0.0000 H   0  0  0  0  0  0  0  0  0  0  0  0
    1.8827    1.7067    0.0000 H   0  0  0  0  0  0  0  0  0  0  0  0
  1  9  1  0  0  0  0
  1 13  1  0  0  0  0
  2  1  2  0  0  0  0
  2 14  1  0  0  0  0
  3  4  2  0  0  0  0
  3 10  1  0  0  0  0
  4  5  1  0  0  0  0
  4 15  1  0  0  0  0
  5  6  2  0  0  0  0
  5 16  1  0  0  0  0
  6  7  1  0  0  0  0
  6  9  1  0  0  0  0
  7 12  1  0  0  0  0
  7  8  2  0  0  0  0
  8  2  1  0  0  0  0
  8 17  1  0  0  0  0
  9 10  2  0  0  0  0
 10 18  1  0  0  0  0
 11  3  1  0  0  0  0
 11 19  1  0  0  0  0
 12 20  1  0  0  0  0
M  END
>  <DRUGBANK_ID>
DB07661

>  <COMMON_NAME>
1,6-Naphthalenediol

>  <CAS_NUMBER>
575-44-0

>  <UNII>
34C30KW024

>  <SYNONYMS>
1,6-dihydroxynaphthalene; 2,5-dihydroxynaphthalene; 2,5-naphthalenediol; 6-hydroxy-1-naphthol; Naphthalene-1,6-diol

$$$$
