
 OpenBabel10282417072D

 49 52  0  0  0  0  0  0  0  0999 V2000
    4.0668    2.3479    0.0000 C   0  0  0  0  0  0  0  0  0  0  0  0
    3.3523    1.9354    0.0000 C   0  0  0  0  0  0  0  0  0  0  0  0
    3.3523    1.1104    0.0000 C   0  0  0  0  0  0  0  0  0  0  0  0
    2.6378    0.6979    0.0000 C   0  0  0  0  0  0  0  0  0  0  0  0
    2.6378   -0.1271    0.0000 C   0  0  0  0  0  0  0  0  0  0  0  0
    1.9233    1.1104    0.0000 C   0  0  0  0  0  0  0  0  0  0  0  0
    1.1387    0.8555    0.0000 C   0  0  0  0  0  0  0  0  0  0  0  0
    0.6538    1.5229    0.0000 N   0  0  0  0  0  0  0  0  0  0  0  0
    1.1387    2.1904    0.0000 C   0  0  0  0  0  0  0  0  0  0  0  0
    1.9233    1.9354    0.0000 C   0  0  0  0  0  0  0  0  0  0  0  0
    2.6378    2.3479    0.0000 N   0  0  0  0  0  0  0  0  0  0  0  0
   -0.1712    1.5229    0.0000 C   0  0  0  0  0  0  0  0  0  0  0  0
   -0.5837    2.2374    0.0000 O   0  0  0  0  0  0  0  0  0  0  0  0
   -0.5837    0.8085    0.0000 C   0  0  0  0  0  0  0  0  0  0  0  0
   -1.4087    0.8085    0.0000 C   0  0  0  0  0  0  0  0  0  0  0  0
   -1.9921    0.2251    0.0000 C   0  0  0  0  0  0  0  0  0  0  0  0
   -2.5754    0.8085    0.0000 N   0  0  0  0  0  0  0  0  0  0  0  0
   -1.9921    1.3918    0.0000 C   0  0  0  0  0  0  0  0  0  0  0  0
   -3.4004    0.8085    0.0000 C   0  0  0  0  0  0  0  0  0  0  0  0
   -3.8129    0.0940    0.0000 C   0  0  0  0  0  0  0  0  0  0  0  0
   -4.6379    0.0940    0.0000 C   0  0  0  0  0  0  0  0  0  0  0  0
   -5.0504    0.8085    0.0000 N   0  0  0  0  0  0  0  0  0  0  0  0
   -4.6379    1.5229    0.0000 C   0  0  0  0  0  0  0  0  0  0  0  0
   -3.8129    1.5229    0.0000 C   0  0  0  0  0  0  0  0  0  0  0  0
   -5.0504    2.2374    0.0000 C   0  0  0  0  0  0  0  0  0  0  0  0
   -5.4629    2.9519    0.0000 F   0  0  0  0  0  0  0  0  0  0  0  0
   -4.3360    2.6499    0.0000 F   0  0  0  0  0  0  0  0  0  0  0  0
   -5.7649    1.8249    0.0000 F   0  0  0  0  0  0  0  0  0  0  0  0
    4.9934    1.8129    0.0000 H   0  0  0  0  0  0  0  0  0  0  0  0
    4.0668    3.4179    0.0000 H   0  0  0  0  0  0  0  0  0  0  0  0
    4.9935    2.8829    0.0000 H   0  0  0  0  0  0  0  0  0  0  0  0
    4.2460    0.5944    0.0000 H   0  0  0  0  0  0  0  0  0  0  0  0
    1.7112   -0.6621    0.0000 H   0  0  0  0  0  0  0  0  0  0  0  0
    3.5644   -0.6621    0.0000 H   0  0  0  0  0  0  0  0  0  0  0  0
    2.6378   -1.1971    0.0000 H   0  0  0  0  0  0  0  0  0  0  0  0
    0.8080   -0.1621    0.0000 H   0  0  0  0  0  0  0  0  0  0  0  0
    0.0819    0.6881    0.0000 H   0  0  0  0  0  0  0  0  0  0  0  0
    0.8081    3.2080    0.0000 H   0  0  0  0  0  0  0  0  0  0  0  0
    1.8953    2.9470    0.0000 H   0  0  0  0  0  0  0  0  0  0  0  0
   -0.0487   -0.1182    0.0000 H   0  0  0  0  0  0  0  0  0  0  0  0
   -1.1187   -0.1181    0.0000 H   0  0  0  0  0  0  0  0  0  0  0  0
   -2.4787    0.8085    0.0000 H   0  0  0  0  0  0  0  0  0  0  0  0
   -1.9921   -0.8449    0.0000 H   0  0  0  0  0  0  0  0  0  0  0  0
   -2.9807   -0.1843    0.0000 H   0  0  0  0  0  0  0  0  0  0  0  0
   -1.9921    2.4618    0.0000 H   0  0  0  0  0  0  0  0  0  0  0  0
   -1.0036    1.8013    0.0000 H   0  0  0  0  0  0  0  0  0  0  0  0
   -3.2969   -0.7997    0.0000 H   0  0  0  0  0  0  0  0  0  0  0  0
   -5.1539   -0.7997    0.0000 H   0  0  0  0  0  0  0  0  0  0  0  0
   -3.2969    2.4166    0.0000 H   0  0  0  0  0  0  0  0  0  0  0  0
  1  2  1  0  0  0  0
  1 29  1  0  0  0  0
  1 30  1  0  0  0  0
  1 31  1  0  0  0  0
  2  3  2  0  0  0  0
  2 11  1  0  0  0  0
  3  4  1  0  0  0  0
  3 32  1  0  0  0  0
  4  5  1  0  0  0  0
  4  6  2  0  0  0  0
  5 33  1  0  0  0  0
  5 34  1  0  0  0  0
  5 35  1  0  0  0  0
  6  7  1  0  0  0  0
  6 10  1  0  0  0  0
  7  8  1  0  0  0  0
  7 36  1  0  0  0  0
  7 37  1  0  0  0  0
  8  9  1  0  0  0  0
  8 12  1  0  0  0  0
  9 10  1  0  0  0  0
  9 38  1  0  0  0  0
  9 39  1  0  0  0  0
 10 11  2  0  0  0  0
 12 13  2  0  0  0  0
 12 14  1  0  0  0  0
 14 15  1  0  0  0  0
 14 40  1  0  0  0  0
 14 41  1  0  0  0  0
 15 16  1  0  0  0  0
 15 18  1  0  0  0  0
 15 42  1  0  0  0  0
 16 17  1  0  0  0  0
 16 43  1  0  0  0  0
 16 44  1  0  0  0  0
 17 18  1  0  0  0  0
 17 19  1  0  0  0  0
 18 45  1  0  0  0  0
 18 46  1  0  0  0  0
 19 20  2  0  0  0  0
 19 24  1  0  0  0  0
 20 21  1  0  0  0  0
 20 47  1  0  0  0  0
 21 22  2  0  0  0  0
 21 48  1  0  0  0  0
 22 23  1  0  0  0  0
 23 24  2  0  0  0  0
 23 25  1  0  0  0  0
 24 49  1  0  0  0  0
 25 26  1  0  0  0  0
 25 27  1  0  0  0  0
 25 28  1  0  0  0  0
M  END
>  <DRUGBANK_ID>
DB18706

>  <COMMON_NAME>
Emraclidine

>  <CAS_NUMBER>
2170722-84-4

>  <UNII>
J241Y80EEO

>  <SYNONYMS>
CVL-231; Emraclidine; Ethanone, 1-(5,7-dihydro-2,4-dimethyl-6h-pyrrolo(3,4-b)pyridin-6-yl)-2-(1-(2-(trifluoromethyl)-4-pyridinyl)-3-azetidinyl)-

$$$$
