1413
 OpenBabel10282417072D

 56 59  0  0  1  0  0  0  0  0999 V2000
    4.6868   -0.2673    0.0000 S   0  0  0  0  0  0  0  0  0  0  0  0
   10.3250   -0.6762    0.0000 S   0  0  0  0  0  0  0  0  0  0  0  0
    6.8152    1.5582    0.0000 O   0  0  0  0  0  0  0  0  0  0  0  0
    5.4012    2.6203    0.0000 O   0  5  0  0  0  0  0  0  0  0  0  0
    3.9722    2.6203    0.0000 O   0  0  0  0  0  0  0  0  0  0  0  0
    7.8278    0.5655    0.0000 O   0  0  0  0  0  0  0  0  0  0  0  0
    7.1823   -1.8238    0.0000 O   0  0  0  0  0  0  0  0  0  0  0  0
    2.5433    0.9702    0.0000 N   0  3  0  0  0  0  0  0  0  0  0  0
    5.4012    0.9702    0.0000 N   0  0  0  0  0  0  0  0  0  0  0  0
    6.8152   -0.4428    0.0000 N   0  0  0  0  0  0  0  0  0  0  0  0
    7.9796   -1.6119    0.0000 N   0  0  0  0  0  0  0  0  0  0  0  0
    9.2894    0.1661    0.0000 N   0  0  0  0  0  0  0  0  0  0  0  0
   10.6337    0.7612    0.0000 N   0  0  0  0  0  0  0  0  0  0  0  0
    2.9558    0.2558    0.0000 C   0  0  0  0  0  0  0  0  0  0  0  0
    1.7363    0.7987    0.0000 C   0  0  0  0  0  0  0  0  0  0  0  0
    3.2577    1.3827    0.0000 C   0  0  0  0  0  0  0  0  0  0  0  0
    2.4037   -0.3573    0.0000 C   0  0  0  0  0  0  0  0  0  0  0  0
    1.6500   -0.0218    0.0000 C   0  0  0  0  0  0  0  0  0  0  0  0
    2.3718    1.7773    0.0000 C   0  0  0  0  0  0  0  0  0  0  0  0
    3.9722    0.9702    0.0000 C   0  0  0  0  0  0  0  0  0  0  0  0
    5.4012    0.1452    0.0000 C   0  0  1  0  0  0  0  0  0  0  0  0
    6.2331    0.1418    0.0000 C   0  0  1  0  0  0  0  0  0  0  0  0
    4.6868    1.3827    0.0000 C   0  0  0  0  0  0  0  0  0  0  0  0
    3.9722    0.1452    0.0000 C   0  0  0  0  0  0  0  0  0  0  0  0
    6.2331    0.9737    0.0000 C   0  0  0  0  0  0  0  0  0  0  0  0
    4.6868    2.2077    0.0000 C   0  0  0  0  0  0  0  0  0  0  0  0
    7.6126   -0.2308    0.0000 C   0  0  0  0  0  0  0  0  0  0  0  0
    8.1947   -0.8154    0.0000 C   0  0  0  0  0  0  0  0  0  0  0  0
    8.9921   -0.6036    0.0000 C   0  0  0  0  0  0  0  0  0  0  0  0
    9.6322   -1.1241    0.0000 C   0  0  0  0  0  0  0  0  0  0  0  0
   10.1132    0.1212    0.0000 C   0  0  0  0  0  0  0  0  0  0  0  0
    6.9671   -2.6203    0.0000 C   0  0  0  0  0  0  0  0  0  0  0  0
    5.5707   -0.4926    0.0000 H   0  0  0  0  0  0  0  0  0  0  0  0
    6.5584   -1.3932    0.0000 H   0  0  0  0  0  0  0  0  0  0  0  0
   11.6058    0.6051    0.0000 H   0  0  0  0  0  0  0  0  0  0  0  0
   10.2828    1.6811    0.0000 H   0  0  0  0  0  0  0  0  0  0  0  0
    4.0199    0.1439    0.0000 H   0  0  0  0  0  0  0  0  0  0  0  0
    3.3392   -0.7431    0.0000 H   0  0  0  0  0  0  0  0  0  0  0  0
    0.9412    1.5147    0.0000 H   0  0  0  0  0  0  0  0  0  0  0  0
    0.7373    0.4153    0.0000 H   0  0  0  0  0  0  0  0  0  0  0  0
    3.2577    2.4527    0.0000 H   0  0  0  0  0  0  0  0  0  0  0  0
    4.1843    1.9177    0.0000 H   0  0  0  0  0  0  0  0  0  0  0  0
    2.6262   -1.4039    0.0000 H   0  0  0  0  0  0  0  0  0  0  0  0
    1.5722   -1.0307    0.0000 H   0  0  0  0  0  0  0  0  0  0  0  0
    0.7234   -0.5568    0.0000 H   0  0  0  0  0  0  0  0  0  0  0  0
    1.7060   -1.0903    0.0000 H   0  0  0  0  0  0  0  0  0  0  0  0
    3.1670    2.4932    0.0000 H   0  0  0  0  0  0  0  0  0  0  0  0
    1.3542    2.1080    0.0000 H   0  0  0  0  0  0  0  0  0  0  0  0
    2.1494    2.8239    0.0000 H   0  0  0  0  0  0  0  0  0  0  0  0
    5.8206   -0.8455    0.0000 H   0  0  0  0  0  0  0  0  0  0  0  0
    3.0456   -0.3898    0.0000 H   0  0  0  0  0  0  0  0  0  0  0  0
    3.0455    0.6802    0.0000 H   0  0  0  0  0  0  0  0  0  0  0  0
    9.5761   -2.1546    0.0000 H   0  0  0  0  0  0  0  0  0  0  0  0
    5.9330   -2.8951    0.0000 H   0  0  0  0  0  0  0  0  0  0  0  0
    7.7221   -3.3785    0.0000 H   0  0  0  0  0  0  0  0  0  0  0  0
    6.6880   -3.6533    0.0000 H   0  0  0  0  0  0  0  0  0  0  0  0
  1 21  1  0  0  0  0
  1 24  1  0  0  0  0
  2 30  1  0  0  0  0
  2 31  1  0  0  0  0
  3 25  2  0  0  0  0
  4 26  1  0  0  0  0
  5 26  2  0  0  0  0
  6 27  2  0  0  0  0
  7 11  1  0  0  0  0
  7 32  1  0  0  0  0
  8 14  1  0  0  0  0
  8 15  1  0  0  0  0
  8 16  1  0  0  0  0
  8 19  1  0  0  0  0
  9 21  1  0  0  0  0
  9 23  1  0  0  0  0
  9 25  1  0  0  0  0
 10 27  1  0  0  0  0
 10 34  1  0  0  0  0
 11 28  2  0  0  0  0
 12 29  1  0  0  0  0
 12 31  2  0  0  0  0
 13 31  1  0  0  0  0
 13 35  1  0  0  0  0
 13 36  1  0  0  0  0
 14 17  1  0  0  0  0
 14 37  1  0  0  0  0
 14 38  1  0  0  0  0
 15 18  1  0  0  0  0
 15 39  1  0  0  0  0
 15 40  1  0  0  0  0
 16 20  1  0  0  0  0
 16 41  1  0  0  0  0
 16 42  1  0  0  0  0
 17 18  1  0  0  0  0
 17 43  1  0  0  0  0
 17 44  1  0  0  0  0
 18 45  1  0  0  0  0
 18 46  1  0  0  0  0
 19 47  1  0  0  0  0
 19 48  1  0  0  0  0
 19 49  1  0  0  0  0
 20 23  2  0  0  0  0
 20 24  1  0  0  0  0
 21 22  1  0  0  0  0
 21 33  1  6  0  0  0
 22 10  1  0  0  0  0
 22 25  1  0  0  0  0
 22 50  1  6  0  0  0
 23 26  1  0  0  0  0
 24 51  1  0  0  0  0
 24 52  1  0  0  0  0
 27 28  1  0  0  0  0
 28 29  1  0  0  0  0
 29 30  2  0  0  0  0
 30 53  1  0  0  0  0
 32 54  1  0  0  0  0
 32 55  1  0  0  0  0
 32 56  1  0  0  0  0
M  CHG  2   4  -1   8   1
M  END
>  <DRUGBANK_ID>
DB01413

>  <COMMON_NAME>
Cefepime

>  <CAS_NUMBER>
88040-23-7

>  <UNII>
807PW4VQE3

>  <SYNONYMS>
(6R,7R)-7-{[(2Z)-2-(2-amino-1,3-thiazol-4-yl)-2-(methoxyimino)acetyl]amino}-3-[(1-methylpyrrolidinium-1-yl)methyl]-8-oxo-5-thia-1-azabicyclo[4.2.0]oct-2-ene-2-carboxylate; Cefepima; Cefepime; Cefepimum

$$$$
