
 OpenBabel10282417072D

 53 59  0  0  0  0  0  0  0  0999 V2000
    0.0090    0.2528    0.0000 Os  0  2  0  0  0  0  0  0  0  0  0  0
    0.7936    0.5077    0.0000 N   0  0  0  0  0  0  0  0  0  0  0  0
    1.1292    1.2614    0.0000 C   0  0  0  0  0  0  0  0  0  0  0  0
    1.9497    1.3476    0.0000 C   0  0  0  0  0  0  0  0  0  0  0  0
    2.4346    0.6802    0.0000 C   0  0  0  0  0  0  0  0  0  0  0  0
    2.0990   -0.0735    0.0000 C   0  0  0  0  0  0  0  0  0  0  0  0
    1.2786   -0.1597    0.0000 C   0  0  0  0  0  0  0  0  0  0  0  0
    0.7936   -0.8272    0.0000 C   0  0  0  0  0  0  0  0  0  0  0  0
    0.9652   -1.6341    0.0000 C   0  0  0  0  0  0  0  0  0  0  0  0
    0.6765    1.5627    0.0000 C   0  0  0  0  0  0  0  0  0  0  0  0
    0.2542   -2.2497    0.0000 C   0  0  0  0  0  0  0  0  0  0  0  0
   -0.4961   -1.8334    0.0000 C   0  0  0  0  0  0  0  0  0  0  0  0
   -0.6041   -1.1243    0.0000 C   0  0  0  0  0  0  0  0  0  0  0  0
   -0.1816   -0.2787    0.0000 N   0  0  0  0  0  0  0  0  0  0  0  0
    0.0090   -0.5722    0.0000 N   0  0  0  0  0  0  0  0  0  0  0  0
    0.6221   -1.1243    0.0000 C   0  0  0  0  0  0  0  0  0  0  0  0
    0.4506   -1.9312    0.0000 C   0  0  0  0  0  0  0  0  0  0  0  0
   -0.3340   -2.1862    0.0000 C   0  0  0  0  0  0  0  0  0  0  0  0
   -0.9471   -1.6341    0.0000 C   0  0  0  0  0  0  0  0  0  0  0  0
   -0.7756   -0.8272    0.0000 C   0  0  0  0  0  0  0  0  0  0  0  0
   -1.2605   -0.1597    0.0000 C   0  0  0  0  0  0  0  0  0  0  0  0
   -2.0810   -0.0735    0.0000 C   0  0  0  0  0  0  0  0  0  0  0  0
   -2.4166    0.6802    0.0000 C   0  0  0  0  0  0  0  0  0  0  0  0
   -1.9316    1.3476    0.0000 C   0  0  0  0  0  0  0  0  0  0  0  0
   -1.1112    1.2614    0.0000 C   0  0  0  0  0  0  0  0  0  0  0  0
   -0.7756    0.5077    0.0000 N   0  0  0  0  0  0  0  0  0  0  0  0
    0.0090    1.0778    0.0000 N   0  0  0  0  0  0  0  0  0  0  0  0
    0.4215    2.3473    0.0000 C   0  0  0  0  0  0  0  0  0  0  0  0
   -0.6584    1.5627    0.0000 C   0  0  0  0  0  0  0  0  0  0  0  0
   -0.4035    2.3473    0.0000 N   0  0  0  0  0  0  0  0  0  0  0  0
    1.7727    0.6106    0.0000 H   0  0  0  0  0  0  0  0  0  0  0  0
    0.5226    2.0963    0.0000 H   0  0  0  0  0  0  0  0  0  0  0  0
    2.3695    2.2904    0.0000 H   0  0  0  0  0  0  0  0  0  0  0  0
    3.4609    0.7881    0.0000 H   0  0  0  0  0  0  0  0  0  0  0  0
    2.7056   -0.9084    0.0000 H   0  0  0  0  0  0  0  0  0  0  0  0
    1.9436   -1.9625    0.0000 H   0  0  0  0  0  0  0  0  0  0  0  0
    1.6580    1.2438    0.0000 H   0  0  0  0  0  0  0  0  0  0  0  0
    0.3608   -3.2762    0.0000 H   0  0  0  0  0  0  0  0  0  0  0  0
   -1.3433   -2.4226    0.0000 H   0  0  0  0  0  0  0  0  0  0  0  0
   -1.6236   -0.9638    0.0000 H   0  0  0  0  0  0  0  0  0  0  0  0
    0.1070   -1.2199    0.0000 H   0  0  0  0  0  0  0  0  0  0  0  0
   -0.1957   -1.5352    0.0000 H   0  0  0  0  0  0  0  0  0  0  0  0
    1.6036   -0.8054    0.0000 H   0  0  0  0  0  0  0  0  0  0  0  0
    1.2176   -2.6217    0.0000 H   0  0  0  0  0  0  0  0  0  0  0  0
   -0.5486   -3.1957    0.0000 H   0  0  0  0  0  0  0  0  0  0  0  0
   -1.9286   -1.9530    0.0000 H   0  0  0  0  0  0  0  0  0  0  0  0
   -2.6876   -0.9084    0.0000 H   0  0  0  0  0  0  0  0  0  0  0  0
   -3.4429    0.7881    0.0000 H   0  0  0  0  0  0  0  0  0  0  0  0
   -2.3513    2.2904    0.0000 H   0  0  0  0  0  0  0  0  0  0  0  0
   -0.5046    2.0963    0.0000 H   0  0  0  0  0  0  0  0  0  0  0  0
   -0.4714   -0.4286    0.0000 H   0  0  0  0  0  0  0  0  0  0  0  0
    1.0281    3.1822    0.0000 H   0  0  0  0  0  0  0  0  0  0  0  0
   -1.6399    1.2438    0.0000 H   0  0  0  0  0  0  0  0  0  0  0  0
  2  1  1  0  0  0  0
  2 31  1  0  0  0  0
  3  2  2  0  0  0  0
  3  4  1  0  0  0  0
  3 32  1  0  0  0  0
  4  5  2  0  0  0  0
  4 33  1  0  0  0  0
  5  6  1  0  0  0  0
  5 34  1  0  0  0  0
  6  7  2  0  0  0  0
  6 35  1  0  0  0  0
  7  2  1  0  0  0  0
  7  8  1  0  0  0  0
  8  9  1  0  0  0  0
  8 14  2  0  0  0  0
  9 36  1  0  0  0  0
 10 27  1  0  0  0  0
 10 37  1  0  0  0  0
 11  9  2  0  0  0  0
 11 12  1  0  0  0  0
 11 38  1  0  0  0  0
 12 13  2  0  0  0  0
 12 39  1  0  0  0  0
 13 14  1  0  0  0  0
 13 40  1  0  0  0  0
 14  1  1  0  0  0  0
 14 41  1  0  0  0  0
 15  1  1  0  0  0  0
 15 42  1  0  0  0  0
 16 15  1  0  0  0  0
 16 17  2  0  0  0  0
 16 43  1  0  0  0  0
 17 18  1  0  0  0  0
 17 44  1  0  0  0  0
 18 19  2  0  0  0  0
 18 45  1  0  0  0  0
 19 20  1  0  0  0  0
 19 46  1  0  0  0  0
 20 15  2  0  0  0  0
 20 21  1  0  0  0  0
 21 22  2  0  0  0  0
 21 26  1  0  0  0  0
 22 23  1  0  0  0  0
 22 47  1  0  0  0  0
 23 24  2  0  0  0  0
 23 48  1  0  0  0  0
 24 25  1  0  0  0  0
 24 49  1  0  0  0  0
 25 26  2  0  0  0  0
 25 50  1  0  0  0  0
 26  1  1  0  0  0  0
 26 51  1  0  0  0  0
 27  1  1  0  0  0  0
 28 10  2  0  0  0  0
 28 30  1  0  0  0  0
 28 52  1  0  0  0  0
 29 27  1  0  0  0  0
 29 30  2  0  0  0  0
 29 53  1  0  0  0  0
M  CHG  1   1   2
M  END
>  <DRUGBANK_ID>
DB03492

>  <SECONDARY_ACCESSION_NUMBERS>
EXPT02053; EXPT01250; DB04550

>  <COMMON_NAME>
lambda-bis(2,2'-bipyridine)imidazole osmium (II)

>  <SYNONYMS>
delta-bis(2,2'-bipyridine)imidazole osmium (II)

$$$$
