
 OpenBabel10282417072D

 53 54  0  0  1  0  0  0  0  0999 V2000
   -4.7489    0.3601    0.0000 O   0  0  0  0  0  0  0  0  0  0  0  0
   -4.2640   -0.3073    0.0000 C   0  0  0  0  0  0  0  0  0  0  0  0
   -3.4435   -0.2211    0.0000 C   0  0  1  0  0  0  0  0  0  0  0  0
   -3.1080    0.5326    0.0000 O   0  0  0  0  0  0  0  0  0  0  0  0
   -2.9586   -0.8885    0.0000 C   0  0  2  0  0  0  0  0  0  0  0  0
   -3.2941   -1.6422    0.0000 O   0  0  0  0  0  0  0  0  0  0  0  0
   -2.1381   -0.8023    0.0000 C   0  0  1  0  0  0  0  0  0  0  0  0
   -1.8025   -0.0486    0.0000 O   0  0  0  0  0  0  0  0  0  0  0  0
   -1.6532   -1.4697    0.0000 C   0  0  0  0  0  0  0  0  0  0  0  0
   -0.8327   -1.3835    0.0000 N   0  0  0  0  0  0  0  0  0  0  0  0
   -0.2807   -1.9966    0.0000 C   0  0  0  0  0  0  0  0  0  0  0  0
   -0.4522   -2.8036    0.0000 O   0  0  0  0  0  0  0  0  0  0  0  0
    0.4730   -1.6610    0.0000 N   0  0  0  0  0  0  0  0  0  0  0  0
    1.1875   -2.0735    0.0000 C   0  0  0  0  0  0  0  0  0  0  0  0
    1.9019   -1.6610    0.0000 C   0  0  0  0  0  0  0  0  0  0  0  0
    2.6164   -2.0735    0.0000 C   0  0  0  0  0  0  0  0  0  0  0  0
    3.3309   -1.6610    0.0000 C   0  0  0  0  0  0  0  0  0  0  0  0
    4.0454   -2.0735    0.0000 O   0  0  0  0  0  0  0  0  0  0  0  0
    4.7598   -1.6610    0.0000 P   0  0  0  0  0  0  0  0  0  0  0  0
    5.4743   -1.2485    0.0000 O   0  0  0  0  0  0  0  0  0  0  0  0
    5.1723   -2.3755    0.0000 O   0  0  0  0  0  0  0  0  0  0  0  0
    4.3473   -0.9466    0.0000 O   0  0  0  0  0  0  0  0  0  0  0  0
    0.3868   -0.8406    0.0000 C   0  0  0  0  0  0  0  0  0  0  0  0
   -0.4202   -0.6690    0.0000 C   0  0  0  0  0  0  0  0  0  0  0  0
   -0.6751    0.1156    0.0000 N   0  0  0  0  0  0  0  0  0  0  0  0
   -0.1231    0.7287    0.0000 C   0  0  0  0  0  0  0  0  0  0  0  0
   -0.3780    1.5133    0.0000 O   0  0  0  0  0  0  0  0  0  0  0  0
    0.6839    0.5572    0.0000 N   0  0  0  0  0  0  0  0  0  0  0  0
    0.9388   -0.2275    0.0000 C   0  0  0  0  0  0  0  0  0  0  0  0
    1.7458   -0.3990    0.0000 O   0  0  0  0  0  0  0  0  0  0  0  0
   -4.3544    1.2462    0.0000 H   0  0  0  0  0  0  0  0  0  0  0  0
   -4.6992   -1.2848    0.0000 H   0  0  0  0  0  0  0  0  0  0  0  0
   -3.6351   -1.1730    0.0000 H   0  0  0  0  0  0  0  0  0  0  0  0
   -4.0724    0.6445    0.0000 H   0  0  0  0  0  0  0  0  0  0  0  0
   -2.1433    0.6341    0.0000 H   0  0  0  0  0  0  0  0  0  0  0  0
   -4.0227   -1.0004    0.0000 H   0  0  0  0  0  0  0  0  0  0  0  0
   -4.2588   -1.7437    0.0000 H   0  0  0  0  0  0  0  0  0  0  0  0
   -2.7670    0.0634    0.0000 H   0  0  0  0  0  0  0  0  0  0  0  0
   -0.8378    0.0528    0.0000 H   0  0  0  0  0  0  0  0  0  0  0  0
   -2.0884   -2.4472    0.0000 H   0  0  0  0  0  0  0  0  0  0  0  0
   -1.0243   -2.3354    0.0000 H   0  0  0  0  0  0  0  0  0  0  0  0
    1.1875   -3.1435    0.0000 H   0  0  0  0  0  0  0  0  0  0  0  0
    2.1142   -2.6085    0.0000 H   0  0  0  0  0  0  0  0  0  0  0  0
    1.9019   -0.5910    0.0000 H   0  0  0  0  0  0  0  0  0  0  0  0
    2.8285   -1.1260    0.0000 H   0  0  0  0  0  0  0  0  0  0  0  0
    2.6164   -3.1435    0.0000 H   0  0  0  0  0  0  0  0  0  0  0  0
    3.5430   -2.6085    0.0000 H   0  0  0  0  0  0  0  0  0  0  0  0
    3.3309   -0.5910    0.0000 H   0  0  0  0  0  0  0  0  0  0  0  0
    4.2575   -1.1260    0.0000 H   0  0  0  0  0  0  0  0  0  0  0  0
    6.3143   -1.7335    0.0000 H   0  0  0  0  0  0  0  0  0  0  0  0
    4.6873   -3.2155    0.0000 H   0  0  0  0  0  0  0  0  0  0  0  0
   -1.6381    0.3203    0.0000 H   0  0  0  0  0  0  0  0  0  0  0  0
    1.3427    1.2888    0.0000 H   0  0  0  0  0  0  0  0  0  0  0  0
  1  2  1  0  0  0  0
  1 31  1  0  0  0  0
  2  3  1  0  0  0  0
  2 32  1  0  0  0  0
  2 33  1  0  0  0  0
  3  4  1  0  0  0  0
  3  5  1  0  0  0  0
  3 34  1  6  0  0  0
  4 35  1  0  0  0  0
  5  6  1  0  0  0  0
  5  7  1  0  0  0  0
  5 36  1  6  0  0  0
  6 37  1  0  0  0  0
  7  8  1  0  0  0  0
  7  9  1  0  0  0  0
  7 38  1  6  0  0  0
  8 39  1  0  0  0  0
  9 10  1  0  0  0  0
  9 40  1  0  0  0  0
  9 41  1  0  0  0  0
 10 11  1  0  0  0  0
 10 24  1  0  0  0  0
 11 12  2  0  0  0  0
 11 13  1  0  0  0  0
 13 14  1  0  0  0  0
 13 23  1  0  0  0  0
 14 15  1  0  0  0  0
 14 42  1  0  0  0  0
 14 43  1  0  0  0  0
 15 16  1  0  0  0  0
 15 44  1  0  0  0  0
 15 45  1  0  0  0  0
 16 17  1  0  0  0  0
 16 46  1  0  0  0  0
 16 47  1  0  0  0  0
 17 18  1  0  0  0  0
 17 48  1  0  0  0  0
 17 49  1  0  0  0  0
 18 19  1  0  0  0  0
 19 20  1  0  0  0  0
 19 21  1  0  0  0  0
 19 22  2  0  0  0  0
 20 50  1  0  0  0  0
 21 51  1  0  0  0  0
 23 24  2  0  0  0  0
 23 29  1  0  0  0  0
 24 25  1  0  0  0  0
 25 26  1  0  0  0  0
 25 52  1  0  0  0  0
 26 27  2  0  0  0  0
 26 28  1  0  0  0  0
 28 29  1  0  0  0  0
 28 53  1  0  0  0  0
 29 30  2  0  0  0  0
M  END
>  <DRUGBANK_ID>
DB02711

>  <SECONDARY_ACCESSION_NUMBERS>
EXPT03117

>  <COMMON_NAME>
4-{2,6,8-Trioxo-9-[(2S,3R,4R)-2,3,4,5-Tetrahydroxypentyl]-1,2,3,6,8,9-Hexahydro-7h-Purin-7-Yl}Butyl Dihydrogen Phosphate

$$$$
