818
 OpenBabel10282417072D

 31 31  0  0  0  0  0  0  0  0999 V2000
    3.7935    1.1096    0.0000 O   0  0  0  0  0  0  0  0  0  0  0  0
    5.2224    0.2846    0.0000 C   0  0  0  0  0  0  0  0  0  0  0  0
    2.3645    0.2846    0.0000 C   0  0  0  0  0  0  0  0  0  0  0  0
    4.5080   -0.1279    0.0000 C   0  0  0  0  0  0  0  0  0  0  0  0
    3.0791   -0.1279    0.0000 C   0  0  0  0  0  0  0  0  0  0  0  0
    3.7935    0.2846    0.0000 C   0  0  0  0  0  0  0  0  0  0  0  0
    4.5080   -0.9529    0.0000 C   0  0  0  0  0  0  0  0  0  0  0  0
    3.0791   -0.9529    0.0000 C   0  0  0  0  0  0  0  0  0  0  0  0
    5.9370   -0.1279    0.0000 C   0  0  0  0  0  0  0  0  0  0  0  0
    5.2224    1.1096    0.0000 C   0  0  0  0  0  0  0  0  0  0  0  0
    1.6500   -0.1279    0.0000 C   0  0  0  0  0  0  0  0  0  0  0  0
    2.3645    1.1096    0.0000 C   0  0  0  0  0  0  0  0  0  0  0  0
    3.7935   -1.3654    0.0000 C   0  0  0  0  0  0  0  0  0  0  0  0
    4.6050    1.5781    0.0000 H   0  0  0  0  0  0  0  0  0  0  0  0
    6.1490    0.8196    0.0000 H   0  0  0  0  0  0  0  0  0  0  0  0
    1.4379    0.8196    0.0000 H   0  0  0  0  0  0  0  0  0  0  0  0
    5.4017   -1.4689    0.0000 H   0  0  0  0  0  0  0  0  0  0  0  0
    2.1854   -1.4689    0.0000 H   0  0  0  0  0  0  0  0  0  0  0  0
    5.9371   -1.1979    0.0000 H   0  0  0  0  0  0  0  0  0  0  0  0
    6.8636    0.4072    0.0000 H   0  0  0  0  0  0  0  0  0  0  0  0
    6.8637   -0.6628    0.0000 H   0  0  0  0  0  0  0  0  0  0  0  0
    6.1490    1.6446    0.0000 H   0  0  0  0  0  0  0  0  0  0  0  0
    4.2958    1.6446    0.0000 H   0  0  0  0  0  0  0  0  0  0  0  0
    5.2224    2.1796    0.0000 H   0  0  0  0  0  0  0  0  0  0  0  0
    0.7234    0.4071    0.0000 H   0  0  0  0  0  0  0  0  0  0  0  0
    1.6500   -1.1979    0.0000 H   0  0  0  0  0  0  0  0  0  0  0  0
    0.7233   -0.6629    0.0000 H   0  0  0  0  0  0  0  0  0  0  0  0
    3.2911    1.6446    0.0000 H   0  0  0  0  0  0  0  0  0  0  0  0
    1.4379    1.6446    0.0000 H   0  0  0  0  0  0  0  0  0  0  0  0
    2.3645    2.1796    0.0000 H   0  0  0  0  0  0  0  0  0  0  0  0
    3.7935   -2.3974    0.0000 H   0  0  0  0  0  0  0  0  0  0  0  0
  1  6  1  0  0  0  0
  1 14  1  0  0  0  0
  2  4  1  0  0  0  0
  2  9  1  0  0  0  0
  2 10  1  0  0  0  0
  2 15  1  0  0  0  0
  3  5  1  0  0  0  0
  3 11  1  0  0  0  0
  3 12  1  0  0  0  0
  3 16  1  0  0  0  0
  4  6  2  0  0  0  0
  4  7  1  0  0  0  0
  5  6  1  0  0  0  0
  5  8  2  0  0  0  0
  7 13  2  0  0  0  0
  7 17  1  0  0  0  0
  8 13  1  0  0  0  0
  8 18  1  0  0  0  0
  9 19  1  0  0  0  0
  9 20  1  0  0  0  0
  9 21  1  0  0  0  0
 10 22  1  0  0  0  0
 10 23  1  0  0  0  0
 10 24  1  0  0  0  0
 11 25  1  0  0  0  0
 11 26  1  0  0  0  0
 11 27  1  0  0  0  0
 12 28  1  0  0  0  0
 12 29  1  0  0  0  0
 12 30  1  0  0  0  0
 13 31  1  0  0  0  0
M  END
>  <DRUGBANK_ID>
DB00818

>  <SECONDARY_ACCESSION_NUMBERS>
APRD01201; EXPT02558; DB05893

>  <COMMON_NAME>
Propofol

>  <CAS_NUMBER>
2078-54-8

>  <UNII>
YI7VU623SF

>  <SYNONYMS>
2,6-bis(1-methylethyl)phenol; 2,6-Diisopropylphenol; Propofol; Propofolum

$$$$
