
 OpenBabel10282417072D

109113  0  0  0  0  0  0  0  0999 V2000
   -2.7918    0.6708    0.0000 C   0  0  2  0  0  0  0  0  0  0  0  0
   -1.9693    0.0216    0.0000 O   0  0  0  0  0  0  0  0  0  0  0  0
   -3.2245   -0.0649    0.0000 O   0  0  0  0  0  0  0  0  0  0  0  0
   -2.4021    1.4067    0.0000 C   0  0  0  0  0  0  0  0  0  0  0  0
   -3.2245    1.3633    0.0000 C   0  0  0  0  0  0  0  0  0  0  0  0
   -1.1469    0.6708    0.0000 C   0  0  1  0  0  0  0  0  0  0  0  0
   -4.0468   -0.0649    0.0000 C   0  0  2  0  0  0  0  0  0  0  0  0
   -1.5797    1.4067    0.0000 C   0  0  0  0  0  0  0  0  0  0  0  0
   -4.0468    1.3633    0.0000 C   0  0  1  0  0  0  0  0  0  0  0  0
   -0.3246    0.6708    0.0000 C   0  0  2  0  0  0  0  0  0  0  0  0
   -4.4797   -0.7574    0.0000 C   0  0  2  0  0  0  0  0  0  0  0  0
   -4.4797    0.6708    0.0000 C   0  0  1  0  0  0  0  0  0  0  0  0
   -4.4797    2.0991    0.0000 O   0  0  0  0  0  0  0  0  0  0  0  0
    0.5410    0.0216    0.0000 O   0  0  0  0  0  0  0  0  0  0  0  0
    0.1082    1.4067    0.0000 C   0  0  0  0  0  0  0  0  0  0  0  0
   -5.3020   -0.7574    0.0000 C   0  0  2  0  0  0  0  0  0  0  0  0
   -4.0902   -1.4932    0.0000 C   0  0  0  0  0  0  0  0  0  0  0  0
   -5.3020    0.6708    0.0000 C   0  0  0  0  0  0  0  0  0  0  0  0
    1.3633    0.6708    0.0000 C   0  0  1  0  0  0  0  0  0  0  0  0
    0.9306    1.4067    0.0000 C   0  0  0  0  0  0  0  0  0  0  0  0
   -5.7349   -1.4932    0.0000 C   0  0  1  0  0  0  0  0  0  0  0  0
   -5.7349   -0.0649    0.0000 O   0  0  0  0  0  0  0  0  0  0  0  0
    2.1857    0.6708    0.0000 C   0  0  2  0  0  0  0  0  0  0  0  0
    1.7530    1.4067    0.0000 C   0  0  0  0  0  0  0  0  0  0  0  0
   -6.5573   -1.4932    0.0000 C   0  0  0  0  0  0  0  0  0  0  0  0
   -5.3020   -2.2290    0.0000 C   0  0  0  0  0  0  0  0  0  0  0  0
   -6.5573   -0.0649    0.0000 C   0  0  0  0  0  0  0  0  0  0  0  0
    3.0081    0.0649    0.0000 O   0  0  0  0  0  0  0  0  0  0  0  0
   -6.9901   -2.2290    0.0000 O   0  0  0  0  0  0  0  0  0  0  0  0
   -7.1633   -0.8873    0.0000 O   0  0  0  0  0  0  0  0  0  0  0  0
    3.8304    0.6708    0.0000 C   0  0  2  0  0  0  0  0  0  0  0  0
    3.3977    1.4067    0.0000 C   0  0  0  0  0  0  0  0  0  0  0  0
    4.6529    0.6708    0.0000 C   0  0  1  0  0  0  0  0  0  0  0  0
    5.0857   -0.0216    0.0000 O   0  0  0  0  0  0  0  0  0  0  0  0
    5.0857    1.4067    0.0000 C   0  0  2  0  0  0  0  0  0  0  0  0
    5.9081   -0.0649    0.0000 C   0  0  1  0  0  0  0  0  0  0  0  0
    5.9081    1.4067    0.0000 C   0  0  0  0  0  0  0  0  0  0  0  0
    4.6529    2.0991    0.0000 C   0  0  0  0  0  0  0  0  0  0  0  0
    6.3409    0.6708    0.0000 C   0  0  1  0  0  0  0  0  0  0  0  0
    6.7107    0.1431    0.0000 O   0  0  0  0  0  0  0  0  0  0  0  0
    7.1633    0.6708    0.0000 C   0  0  0  0  0  0  0  0  0  0  0  0
    2.5754    2.2290    0.0000 C   0  0  0  0  0  0  0  0  0  0  0  0
   -3.6573   -0.7574    0.0000 H   0  0  0  0  0  0  0  0  0  0  0  0
    2.1857   -0.2813    0.0000 H   0  0  0  0  0  0  0  0  0  0  0  0
   -1.1469   -0.2813    0.0000 C   0  0  0  0  0  0  0  0  0  0  0  0
   -0.3246   -0.2813    0.0000 H   0  0  0  0  0  0  0  0  0  0  0  0
    3.9912    1.5239    0.0000 H   0  0  0  0  0  0  0  0  0  0  0  0
    4.6535    1.4968    0.0000 H   0  0  0  0  0  0  0  0  0  0  0  0
    2.6186    1.4067    0.0000 C   0  0  2  0  0  0  0  0  0  0  0  0
    1.3201    2.1425    0.0000 C   0  0  0  0  0  0  0  0  0  0  0  0
    6.3118   -0.7832    0.0000 C   0  0  0  0  0  0  0  0  0  0  0  0
    5.9056   -1.4965    0.0000 O   0  0  0  0  0  0  0  0  0  0  0  0
   -2.9540    2.3234    0.0000 H   0  0  0  0  0  0  0  0  0  0  0  0
   -1.8756    2.3382    0.0000 H   0  0  0  0  0  0  0  0  0  0  0  0
   -2.7057    2.2991    0.0000 H   0  0  0  0  0  0  0  0  0  0  0  0
   -3.7676    2.2852    0.0000 H   0  0  0  0  0  0  0  0  0  0  0  0
   -1.0484    2.3355    0.0000 H   0  0  0  0  0  0  0  0  0  0  0  0
   -2.1166    2.3323    0.0000 H   0  0  0  0  0  0  0  0  0  0  0  0
   -5.1167    1.3777    0.0000 H   0  0  0  0  0  0  0  0  0  0  0  0
   -5.0316   -1.6741    0.0000 H   0  0  0  0  0  0  0  0  0  0  0  0
   -4.9984    1.6067    0.0000 H   0  0  0  0  0  0  0  0  0  0  0  0
   -4.0016    2.9431    0.0000 H   0  0  0  0  0  0  0  0  0  0  0  0
   -0.4231    2.3355    0.0000 H   0  0  0  0  0  0  0  0  0  0  0  0
    0.6451    2.3323    0.0000 H   0  0  0  0  0  0  0  0  0  0  0  0
   -4.7833    0.1785    0.0000 H   0  0  0  0  0  0  0  0  0  0  0  0
   -4.6589   -2.3996    0.0000 H   0  0  0  0  0  0  0  0  0  0  0  0
   -3.0209   -1.5325    0.0000 H   0  0  0  0  0  0  0  0  0  0  0  0
   -3.5896   -2.4389    0.0000 H   0  0  0  0  0  0  0  0  0  0  0  0
   -5.8370    1.5974    0.0000 H   0  0  0  0  0  0  0  0  0  0  0  0
   -5.8370   -0.2558    0.0000 H   0  0  0  0  0  0  0  0  0  0  0  0
   -6.3720    0.6708    0.0000 H   0  0  0  0  0  0  0  0  0  0  0  0
    1.4619    2.3355    0.0000 H   0  0  0  0  0  0  0  0  0  0  0  0
    2.0006    1.4131    0.0000 H   0  0  0  0  0  0  0  0  0  0  0  0
   -4.6649   -1.4932    0.0000 H   0  0  0  0  0  0  0  0  0  0  0  0
    2.8227    1.4307    0.0000 H   0  0  0  0  0  0  0  0  0  0  0  0
    2.2738    2.3414    0.0000 H   0  0  0  0  0  0  0  0  0  0  0  0
   -5.8294   -3.1600    0.0000 H   0  0  0  0  0  0  0  0  0  0  0  0
   -4.2320   -2.2202    0.0000 H   0  0  0  0  0  0  0  0  0  0  0  0
   -4.7594   -3.1512    0.0000 H   0  0  0  0  0  0  0  0  0  0  0  0
   -7.0923    0.8617    0.0000 H   0  0  0  0  0  0  0  0  0  0  0  0
   -7.0923   -0.9915    0.0000 H   0  0  0  0  0  0  0  0  0  0  0  0
   -7.6273   -0.0649    0.0000 H   0  0  0  0  0  0  0  0  0  0  0  0
   -7.9271   -2.2214    0.0000 H   0  0  0  0  0  0  0  0  0  0  0  0
    3.9290    2.3355    0.0000 H   0  0  0  0  0  0  0  0  0  0  0  0
    4.4677    1.4131    0.0000 H   0  0  0  0  0  0  0  0  0  0  0  0
    4.0158    1.3922    0.0000 H   0  0  0  0  0  0  0  0  0  0  0  0
    6.4394    2.3355    0.0000 H   0  0  0  0  0  0  0  0  0  0  0  0
    6.9781    1.4132    0.0000 H   0  0  0  0  0  0  0  0  0  0  0  0
    5.1551    3.0439    0.0000 H   0  0  0  0  0  0  0  0  0  0  0  0
    3.5836    2.0616    0.0000 H   0  0  0  0  0  0  0  0  0  0  0  0
    4.0858    3.0064    0.0000 H   0  0  0  0  0  0  0  0  0  0  0  0
    6.8721   -0.2580    0.0000 H   0  0  0  0  0  0  0  0  0  0  0  0
    7.3909   -0.5484    0.0000 H   0  0  0  0  0  0  0  0  0  0  0  0
    7.6983   -0.2558    0.0000 H   0  0  0  0  0  0  0  0  0  0  0  0
    7.6983    1.5974    0.0000 H   0  0  0  0  0  0  0  0  0  0  0  0
    8.2333    0.6708    0.0000 H   0  0  0  0  0  0  0  0  0  0  0  0
    3.4727    2.8119    0.0000 H   0  0  0  0  0  0  0  0  0  0  0  0
    1.6220    2.7146    0.0000 H   0  0  0  0  0  0  0  0  0  0  0  0
    2.5193    3.2975    0.0000 H   0  0  0  0  0  0  0  0  0  0  0  0
   -2.0735   -0.8163    0.0000 H   0  0  0  0  0  0  0  0  0  0  0  0
   -0.2203   -0.8163    0.0000 H   0  0  0  0  0  0  0  0  0  0  0  0
   -1.1469   -1.3513    0.0000 H   0  0  0  0  0  0  0  0  0  0  0  0
    1.5792    1.6607    0.0000 H   0  0  0  0  0  0  0  0  0  0  0  0
    1.8475    3.0735    0.0000 H   0  0  0  0  0  0  0  0  0  0  0  0
    0.2501    2.1337    0.0000 H   0  0  0  0  0  0  0  0  0  0  0  0
    0.7775    3.0647    0.0000 H   0  0  0  0  0  0  0  0  0  0  0  0
    7.3818   -0.7862    0.0000 H   0  0  0  0  0  0  0  0  0  0  0  0
    6.8482   -1.7090    0.0000 H   0  0  0  0  0  0  0  0  0  0  0  0
    4.9356   -1.5023    0.0000 H   0  0  0  0  0  0  0  0  0  0  0  0
  1  2  1  1  0  0  0
  1  3  1  0  0  0  0
  1  4  1  0  0  0  0
  1  5  1  0  0  0  0
  4  8  1  0  0  0  0
  4 53  1  0  0  0  0
  4 54  1  0  0  0  0
  5  9  1  0  0  0  0
  5 55  1  0  0  0  0
  5 56  1  0  0  0  0
  6  8  1  0  0  0  0
  6  2  1  0  0  0  0
  6 45  1  6  0  0  0
  6 10  1  0  0  0  0
  7  3  1  0  0  0  0
  7 43  1  1  0  0  0
  7 11  1  0  0  0  0
  7 12  1  0  0  0  0
  8 57  1  0  0  0  0
  8 58  1  0  0  0  0
  9 12  1  0  0  0  0
  9 13  1  0  0  0  0
  9 59  1  6  0  0  0
 10 14  1  0  0  0  0
 10 15  1  0  0  0  0
 10 46  1  6  0  0  0
 11 16  1  0  0  0  0
 11 17  1  0  0  0  0
 11 60  1  6  0  0  0
 12 18  1  0  0  0  0
 12 61  1  1  0  0  0
 13 62  1  0  0  0  0
 15 20  1  0  0  0  0
 15 63  1  0  0  0  0
 15 64  1  0  0  0  0
 16 21  1  0  0  0  0
 16 22  1  0  0  0  0
 16 65  1  1  0  0  0
 17 66  1  0  0  0  0
 17 67  1  0  0  0  0
 17 68  1  0  0  0  0
 18 69  1  0  0  0  0
 18 70  1  0  0  0  0
 18 71  1  0  0  0  0
 19 14  1  0  0  0  0
 19 23  1  0  0  0  0
 19 24  1  6  0  0  0
 19 20  1  0  0  0  0
 20 72  1  0  0  0  0
 20 73  1  0  0  0  0
 21 25  1  0  0  0  0
 21 26  1  0  0  0  0
 21 74  1  1  0  0  0
 22 27  1  0  0  0  0
 23 28  1  0  0  0  0
 23 49  1  0  0  0  0
 23 44  1  6  0  0  0
 24 50  1  0  0  0  0
 24 75  1  0  0  0  0
 24 76  1  0  0  0  0
 25 29  1  0  0  0  0
 25 30  2  0  0  0  0
 26 77  1  0  0  0  0
 26 78  1  0  0  0  0
 26 79  1  0  0  0  0
 27 80  1  0  0  0  0
 27 81  1  0  0  0  0
 27 82  1  0  0  0  0
 28 31  1  0  0  0  0
 29 83  1  0  0  0  0
 31 33  1  0  0  0  0
 31 32  1  0  0  0  0
 31 47  1  1  0  0  0
 32 84  1  0  0  0  0
 32 85  1  0  0  0  0
 33 34  1  0  0  0  0
 33 35  1  0  0  0  0
 33 48  1  1  0  0  0
 34 36  1  0  0  0  0
 35 37  1  0  0  0  0
 35 38  1  0  0  0  0
 35 86  1  6  0  0  0
 36 39  1  0  0  0  0
 36 40  1  1  0  0  0
 36 51  1  0  0  0  0
 37 39  1  0  0  0  0
 37 87  1  0  0  0  0
 37 88  1  0  0  0  0
 38 89  1  0  0  0  0
 38 90  1  0  0  0  0
 38 91  1  0  0  0  0
 39 41  1  0  0  0  0
 39 92  1  6  0  0  0
 40 93  1  0  0  0  0
 41 94  1  0  0  0  0
 41 95  1  0  0  0  0
 41 96  1  0  0  0  0
 42 97  1  0  0  0  0
 42 98  1  0  0  0  0
 42 99  1  0  0  0  0
 45100  1  0  0  0  0
 45101  1  0  0  0  0
 45102  1  0  0  0  0
 49 32  1  0  0  0  0
 49 42  1  0  0  0  0
 49103  1  6  0  0  0
 50104  1  0  0  0  0
 50105  1  0  0  0  0
 50106  1  0  0  0  0
 51 52  1  0  0  0  0
 51107  1  0  0  0  0
 51108  1  0  0  0  0
 52109  1  0  0  0  0
M  END
>  <DRUGBANK_ID>
DB11430

>  <COMMON_NAME>
Monensin

>  <CAS_NUMBER>
17090-79-8

>  <UNII>
906O0YJ6ZP

>  <SYNONYMS>
Monensic acid; Monensin; Monensin A; Monensina; Monensinum

$$$$
