
 OpenBabel10282417072D

 20 19  0  0  0  0  0  0  0  0999 V2000
   13.9596   -9.6772    0.0000 C   0  0  3  0  0  0  0  0  0  0  0  0
   13.1269   -9.6772    0.0000 P   0  0  0  0  0  0  0  0  0  0  0  0
   14.3707  -10.3924    0.0000 C   0  0  0  0  0  0  0  0  0  0  0  0
   14.3707   -8.9619    0.0000 O   0  0  0  0  0  0  0  0  0  0  0  0
   12.2977   -9.6772    0.0000 O   0  0  0  0  0  0  0  0  0  0  0  0
   13.1269  -10.5099    0.0000 O   0  0  0  0  0  0  0  0  0  0  0  0
   13.1269   -8.8479    0.0000 O   0  0  0  0  0  0  0  0  0  0  0  0
   13.9596  -11.1077    0.0000 Cl  0  0  0  0  0  0  0  0  0  0  0  0
   15.1966  -10.3924    0.0000 Cl  0  0  0  0  0  0  0  0  0  0  0  0
   14.9547  -10.9763    0.0000 Cl  0  0  0  0  0  0  0  0  0  0  0  0
   11.8899   -8.9619    0.0000 C   0  0  0  0  0  0  0  0  0  0  0  0
   12.4117  -10.9210    0.0000 C   0  0  0  0  0  0  0  0  0  0  0  0
   13.4237  -10.6033    0.0000 H   0  0  0  0  0  0  0  0  0  0  0  0
   15.3407   -8.9600    0.0000 H   0  0  0  0  0  0  0  0  0  0  0  0
   12.4299   -8.0382    0.0000 H   0  0  0  0  0  0  0  0  0  0  0  0
   10.8199   -8.9561    0.0000 H   0  0  0  0  0  0  0  0  0  0  0  0
   11.3600   -8.0324    0.0000 H   0  0  0  0  0  0  0  0  0  0  0  0
   11.4861  -10.3842    0.0000 H   0  0  0  0  0  0  0  0  0  0  0  0
   12.4097  -11.9910    0.0000 H   0  0  0  0  0  0  0  0  0  0  0  0
   11.4840  -11.4542    0.0000 H   0  0  0  0  0  0  0  0  0  0  0  0
  1  2  1  0  0  0  0
  1  3  1  0  0  0  0
  1  4  1  0  0  0  0
  1 13  1  0  0  0  0
  2  5  1  0  0  0  0
  2  6  1  0  0  0  0
  2  7  2  0  0  0  0
  3  8  1  0  0  0  0
  3  9  1  0  0  0  0
  3 10  1  0  0  0  0
  4 14  1  0  0  0  0
  5 11  1  0  0  0  0
  6 12  1  0  0  0  0
 11 15  1  0  0  0  0
 11 16  1  0  0  0  0
 11 17  1  0  0  0  0
 12 18  1  0  0  0  0
 12 19  1  0  0  0  0
 12 20  1  0  0  0  0
M  END
>  <DRUGBANK_ID>
DB11473

>  <COMMON_NAME>
Metrifonate

>  <CAS_NUMBER>
52-68-6

>  <UNII>
DBF2DG4G2K

>  <SYNONYMS>
(±)-Trichlorfon; 1-Hydroxy-2,2,2-trichloroethylphosphonic acid dimethyl ester; Chlorophos; Methyl chlorophos; Metrifonate; Métrifonate; Metrifonato; Metrifonatum; Trichlorfon

$$$$
