
 OpenBabel10282417072D

 29 28  0  0  0  0  0  0  0  0999 V2000
    0.0006   -0.0112    0.0000 N   0  3  0  0  0  0  0  0  0  0  0  0
    0.4165   -0.6933    0.0000 C   0  0  0  0  0  0  0  0  0  0  0  0
   -0.6906   -0.4059    0.0000 C   0  0  0  0  0  0  0  0  0  0  0  0
   -0.4072    0.6747    0.0000 C   0  0  0  0  0  0  0  0  0  0  0  0
    0.6866    0.3768    0.0000 C   0  0  0  0  0  0  0  0  0  0  0  0
    1.2335   -0.6933    0.0000 C   0  0  0  0  0  0  0  0  0  0  0  0
   -0.6906   -1.2309    0.0000 C   0  0  0  0  0  0  0  0  0  0  0  0
   -1.2335    0.6642    0.0000 C   0  0  0  0  0  0  0  0  0  0  0  0
    0.6919    1.2309    0.0000 C   0  0  0  0  0  0  0  0  0  0  0  0
   -0.1074   -1.6263    0.0000 H   0  0  0  0  0  0  0  0  0  0  0  0
    0.9570   -1.6167    0.0000 H   0  0  0  0  0  0  0  0  0  0  0  0
   -1.6160    0.1313    0.0000 H   0  0  0  0  0  0  0  0  0  0  0  0
   -1.6179   -0.9398    0.0000 H   0  0  0  0  0  0  0  0  0  0  0  0
    0.1159    1.6081    0.0000 H   0  0  0  0  0  0  0  0  0  0  0  0
   -0.9540    1.5945    0.0000 H   0  0  0  0  0  0  0  0  0  0  0  0
    1.6092   -0.1652    0.0000 H   0  0  0  0  0  0  0  0  0  0  0  0
    1.6169    0.9054    0.0000 H   0  0  0  0  0  0  0  0  0  0  0  0
    1.7685   -1.6199    0.0000 H   0  0  0  0  0  0  0  0  0  0  0  0
    1.7685    0.2333    0.0000 H   0  0  0  0  0  0  0  0  0  0  0  0
    2.3035   -0.6933    0.0000 H   0  0  0  0  0  0  0  0  0  0  0  0
   -1.6172   -1.7659    0.0000 H   0  0  0  0  0  0  0  0  0  0  0  0
    0.2360   -1.7659    0.0000 H   0  0  0  0  0  0  0  0  0  0  0  0
   -0.6906   -2.3009    0.0000 H   0  0  0  0  0  0  0  0  0  0  0  0
   -1.7802    1.5840    0.0000 H   0  0  0  0  0  0  0  0  0  0  0  0
   -1.7567   -0.2692    0.0000 H   0  0  0  0  0  0  0  0  0  0  0  0
   -2.3034    0.6506    0.0000 H   0  0  0  0  0  0  0  0  0  0  0  0
    1.6218    1.7601    0.0000 H   0  0  0  0  0  0  0  0  0  0  0  0
   -0.2314    1.7716    0.0000 H   0  0  0  0  0  0  0  0  0  0  0  0
    0.6985    2.3009    0.0000 H   0  0  0  0  0  0  0  0  0  0  0  0
  1  2  1  0  0  0  0
  1  3  1  0  0  0  0
  1  4  1  0  0  0  0
  1  5  1  0  0  0  0
  2  6  1  0  0  0  0
  2 10  1  0  0  0  0
  2 11  1  0  0  0  0
  3  7  1  0  0  0  0
  3 12  1  0  0  0  0
  3 13  1  0  0  0  0
  4  8  1  0  0  0  0
  4 14  1  0  0  0  0
  4 15  1  0  0  0  0
  5  9  1  0  0  0  0
  5 16  1  0  0  0  0
  5 17  1  0  0  0  0
  6 18  1  0  0  0  0
  6 19  1  0  0  0  0
  6 20  1  0  0  0  0
  7 21  1  0  0  0  0
  7 22  1  0  0  0  0
  7 23  1  0  0  0  0
  8 24  1  0  0  0  0
  8 25  1  0  0  0  0
  8 26  1  0  0  0  0
  9 27  1  0  0  0  0
  9 28  1  0  0  0  0
  9 29  1  0  0  0  0
M  CHG  1   1   1
M  END
>  <DRUGBANK_ID>
DB08837

>  <COMMON_NAME>
Tetraethylammonium

>  <CAS_NUMBER>
66-40-0

>  <UNII>
5AV7G7EIEE

$$$$
