
 OpenBabel10282417072D

 59 61  0  0  1  0  0  0  0  0999 V2000
    2.9208   -5.5313    0.0000 C   0  0  0  0  0  0  0  0  0  0  0  0
    2.5083   -4.8168    0.0000 C   0  0  0  0  0  0  0  0  0  0  0  0
    1.6833   -4.8168    0.0000 C   0  0  0  0  0  0  0  0  0  0  0  0
    2.9208   -4.1023    0.0000 C   0  0  0  0  0  0  0  0  0  0  0  0
    3.7458   -4.1023    0.0000 C   0  0  2  0  0  0  0  0  0  0  0  0
    4.1583   -3.3879    0.0000 N   0  0  0  0  0  0  0  0  0  0  0  0
    3.8228   -2.6342    0.0000 C   0  0  0  0  0  0  0  0  0  0  0  0
    4.4359   -2.0821    0.0000 C   0  0  0  0  0  0  0  0  0  0  0  0
    4.3496   -1.2617    0.0000 O   0  0  0  0  0  0  0  0  0  0  0  0
    5.0171   -0.7767    0.0000 C   0  0  0  0  0  0  0  0  0  0  0  0
    4.9308    0.0437    0.0000 C   0  0  0  0  0  0  0  0  0  0  0  0
    4.1772    0.3793    0.0000 Cl  0  0  0  0  0  0  0  0  0  0  0  0
    5.5983    0.5287    0.0000 C   0  0  0  0  0  0  0  0  0  0  0  0
    6.3520    0.1931    0.0000 C   0  0  0  0  0  0  0  0  0  0  0  0
    6.4382   -0.6274    0.0000 C   0  0  0  0  0  0  0  0  0  0  0  0
    5.7708   -1.1123    0.0000 C   0  0  0  0  0  0  0  0  0  0  0  0
    5.1504   -2.4946    0.0000 C   0  0  0  0  0  0  0  0  0  0  0  0
    4.9788   -3.3016    0.0000 C   0  0  0  0  0  0  0  0  0  0  0  0
    5.5309   -3.9147    0.0000 O   0  0  0  0  0  0  0  0  0  0  0  0
    4.1583   -4.8168    0.0000 C   0  0  0  0  0  0  0  0  0  0  0  0
    3.7458   -5.5313    0.0000 O   0  0  0  0  0  0  0  0  0  0  0  0
    4.9833   -4.8168    0.0000 N   0  0  0  0  0  0  0  0  0  0  0  0
    5.3958   -5.5313    0.0000 C   0  0  0  0  0  0  0  0  0  0  0  0
    6.2163   -5.6175    0.0000 N   0  0  0  0  0  0  0  0  0  0  0  0
    6.3879   -6.4245    0.0000 N   0  0  0  0  0  0  0  0  0  0  0  0
    7.1415   -6.7600    0.0000 C   0  0  0  0  0  0  0  0  0  0  0  0
    7.8090   -6.2751    0.0000 C   0  0  1  0  0  0  0  0  0  0  0  0
    7.7227   -5.4546    0.0000 O   0  0  0  0  0  0  0  0  0  0  0  0
    8.5626   -6.6107    0.0000 C   0  0  0  0  0  0  0  0  0  0  0  0
    9.2301   -6.1257    0.0000 O   0  0  0  0  0  0  0  0  0  0  0  0
    5.6734   -6.8370    0.0000 C   0  0  0  0  0  0  0  0  0  0  0  0
    5.0603   -6.2849    0.0000 C   0  0  0  0  0  0  0  0  0  0  0  0
    2.3858   -6.4579    0.0000 H   0  0  0  0  0  0  0  0  0  0  0  0
    3.9908   -5.5313    0.0000 H   0  0  0  0  0  0  0  0  0  0  0  0
    3.4558   -6.4580    0.0000 H   0  0  0  0  0  0  0  0  0  0  0  0
    1.9733   -3.8902    0.0000 H   0  0  0  0  0  0  0  0  0  0  0  0
    1.1483   -3.8902    0.0000 H   0  0  0  0  0  0  0  0  0  0  0  0
    1.1483   -5.7434    0.0000 H   0  0  0  0  0  0  0  0  0  0  0  0
    0.6133   -4.8168    0.0000 H   0  0  0  0  0  0  0  0  0  0  0  0
    2.3858   -3.1757    0.0000 H   0  0  0  0  0  0  0  0  0  0  0  0
    3.4558   -3.1757    0.0000 H   0  0  0  0  0  0  0  0  0  0  0  0
    3.2108   -3.1756    0.0000 H   0  0  0  0  0  0  0  0  0  0  0  0
    2.7762   -2.4117    0.0000 H   0  0  0  0  0  0  0  0  0  0  0  0
    3.5458   -1.6007    0.0000 H   0  0  0  0  0  0  0  0  0  0  0  0
    5.4904    1.5550    0.0000 H   0  0  0  0  0  0  0  0  0  0  0  0
    7.1869    0.7997    0.0000 H   0  0  0  0  0  0  0  0  0  0  0  0
    7.3810   -1.0472    0.0000 H   0  0  0  0  0  0  0  0  0  0  0  0
    5.8787   -2.1386    0.0000 H   0  0  0  0  0  0  0  0  0  0  0  0
    6.0932   -2.0749    0.0000 H   0  0  0  0  0  0  0  0  0  0  0  0
    5.4756   -3.9642    0.0000 H   0  0  0  0  0  0  0  0  0  0  0  0
    7.2533   -7.8241    0.0000 H   0  0  0  0  0  0  0  0  0  0  0  0
    8.1190   -7.1952    0.0000 H   0  0  0  0  0  0  0  0  0  0  0  0
    6.8315   -5.8399    0.0000 H   0  0  0  0  0  0  0  0  0  0  0  0
    8.5074   -4.8844    0.0000 H   0  0  0  0  0  0  0  0  0  0  0  0
    8.6744   -7.6748    0.0000 H   0  0  0  0  0  0  0  0  0  0  0  0
    9.5401   -7.0459    0.0000 H   0  0  0  0  0  0  0  0  0  0  0  0
   10.1163   -6.5202    0.0000 H   0  0  0  0  0  0  0  0  0  0  0  0
    5.5655   -7.8633    0.0000 H   0  0  0  0  0  0  0  0  0  0  0  0
    4.0508   -6.4995    0.0000 H   0  0  0  0  0  0  0  0  0  0  0  0
  1  2  1  0  0  0  0
  1 33  1  0  0  0  0
  1 34  1  0  0  0  0
  1 35  1  0  0  0  0
  2  3  1  0  0  0  0
  2  4  1  0  0  0  0
  2 36  1  0  0  0  0
  3 37  1  0  0  0  0
  3 38  1  0  0  0  0
  3 39  1  0  0  0  0
  4 40  1  0  0  0  0
  4 41  1  0  0  0  0
  5  4  1  0  0  0  0
  5  6  1  0  0  0  0
  5 20  1  0  0  0  0
  5 42  1  1  0  0  0
  6  7  1  0  0  0  0
  6 18  1  0  0  0  0
  7  8  1  0  0  0  0
  7 43  1  0  0  0  0
  7 44  1  0  0  0  0
  8  9  1  0  0  0  0
  8 17  2  0  0  0  0
  9 10  1  0  0  0  0
 10 11  2  0  0  0  0
 10 16  1  0  0  0  0
 11 12  1  0  0  0  0
 11 13  1  0  0  0  0
 13 14  2  0  0  0  0
 13 45  1  0  0  0  0
 14 15  1  0  0  0  0
 14 46  1  0  0  0  0
 15 16  2  0  0  0  0
 15 47  1  0  0  0  0
 16 48  1  0  0  0  0
 17 18  1  0  0  0  0
 17 49  1  0  0  0  0
 18 19  2  0  0  0  0
 20 21  2  0  0  0  0
 20 22  1  0  0  0  0
 22 23  1  0  0  0  0
 22 50  1  0  0  0  0
 23 24  2  0  0  0  0
 23 32  1  0  0  0  0
 24 25  1  0  0  0  0
 25 26  1  0  0  0  0
 25 31  1  0  0  0  0
 26 51  1  0  0  0  0
 26 52  1  0  0  0  0
 27 26  1  0  0  0  0
 27 28  1  0  0  0  0
 27 29  1  0  0  0  0
 27 53  1  6  0  0  0
 28 54  1  0  0  0  0
 29 30  1  0  0  0  0
 29 55  1  0  0  0  0
 29 56  1  0  0  0  0
 30 57  1  0  0  0  0
 31 32  2  0  0  0  0
 31 58  1  0  0  0  0
 32 59  1  0  0  0  0
M  END
>  <DRUGBANK_ID>
DB15123

>  <COMMON_NAME>
Dorzagliatin

>  <CAS_NUMBER>
1191995-00-2

>  <UNII>
X59W6980E8

>  <SYNONYMS>
Dorzagliatin

$$$$
