
 OpenBabel10282417072D

 78 83  0  0  1  0  0  0  0  0999 V2000
   18.2594  -12.7029    0.0000 P   0  0  3  0  0  0  0  0  0  0  0  0
   18.8584   -9.9085    0.0000 P   0  0  3  0  0  0  0  0  0  0  0  0
   18.5588  -11.3056    0.0000 P   0  0  3  0  0  0  0  0  0  0  0  0
   17.7273  -15.5520    0.0000 O   0  0  0  0  0  0  0  0  0  0  0  0
   18.1201   -7.4699    0.0000 O   0  0  0  0  0  0  0  0  0  0  0  0
   19.6629  -16.4527    0.0000 O   0  0  0  0  0  0  0  0  0  0  0  0
   19.1629   -5.6071    0.0000 O   0  0  0  0  0  0  0  0  0  0  0  0
   19.6659  -14.6579    0.0000 O   0  0  0  0  0  0  0  0  0  0  0  0
   20.2155   -7.0609    0.0000 O   0  0  0  0  0  0  0  0  0  0  0  0
   18.5129  -13.4881    0.0000 O   0  0  0  0  0  0  0  0  0  0  0  0
   18.6049   -9.1234    0.0000 O   0  0  0  0  0  0  0  0  0  0  0  0
   18.0057  -11.9179    0.0000 O   0  0  0  0  0  0  0  0  0  0  0  0
   19.1120  -10.6935    0.0000 O   0  0  0  0  0  0  0  0  0  0  0  0
   19.0445  -12.4494    0.0000 O   0  0  0  0  0  0  0  0  0  0  0  0
   19.6434   -9.6549    0.0000 O   0  0  0  0  0  0  0  0  0  0  0  0
   17.4743  -12.9566    0.0000 O   0  0  0  0  0  0  0  0  0  0  0  0
   18.0733  -10.1621    0.0000 O   0  0  0  0  0  0  0  0  0  0  0  0
   16.4597  -19.3184    0.0000 O   0  0  0  0  0  0  0  0  0  0  0  0
   15.7163   -4.0218    0.0000 O   0  0  0  0  0  0  0  0  0  0  0  0
   17.9468  -10.7526    0.0000 O   0  0  0  0  0  0  0  0  0  0  0  0
   19.1710  -11.8588    0.0000 O   0  0  0  0  0  0  0  0  0  0  0  0
   17.9548  -17.0044    0.0000 N   0  0  0  0  0  0  0  0  0  0  0  0
   17.4549   -6.1588    0.0000 N   0  0  0  0  0  0  0  0  0  0  0  0
   16.4597  -16.8434    0.0000 N   0  0  0  0  0  0  0  0  0  0  0  0
   18.0702   -4.7866    0.0000 N   0  0  0  0  0  0  0  0  0  0  0  0
   17.9548  -18.3322    0.0000 N   0  0  0  0  0  0  0  0  0  0  0  0
   16.1921   -5.7483    0.0000 N   0  0  0  0  0  0  0  0  0  0  0  0
   15.7452  -18.0810    0.0000 N   0  0  0  0  0  0  0  0  0  0  0  0
   17.1140   -3.7247    0.0000 N   0  0  0  0  0  0  0  0  0  0  0  0
   15.0306  -16.8434    0.0000 N   0  0  0  0  0  0  0  0  0  0  0  0
   18.5118   -3.4275    0.0000 N   0  0  0  0  0  0  0  0  0  0  0  0
   18.9963  -15.9667    0.0000 C   0  0  2  0  0  0  0  0  0  0  0  0
   18.9067   -6.3914    0.0000 C   0  0  2  0  0  0  0  0  0  0  0  0
   18.9976  -15.1417    0.0000 C   0  0  1  0  0  0  0  0  0  0  0  0
   19.3904   -7.0595    0.0000 C   0  0  1  0  0  0  0  0  0  0  0  0
   18.2112  -16.2201    0.0000 C   0  0  1  0  0  0  0  0  0  0  0  0
   18.1215   -6.6448    0.0000 C   0  0  1  0  0  0  0  0  0  0  0  0
   18.2134  -14.8854    0.0000 C   0  0  1  0  0  0  0  0  0  0  0  0
   18.9044   -7.7261    0.0000 C   0  0  1  0  0  0  0  0  0  0  0  0
   17.9599  -14.1002    0.0000 C   0  0  0  0  0  0  0  0  0  0  0  0
   19.1579   -8.5113    0.0000 C   0  0  0  0  0  0  0  0  0  0  0  0
   17.1741  -17.2559    0.0000 C   0  0  0  0  0  0  0  0  0  0  0  0
   17.4570   -5.3386    0.0000 C   0  0  0  0  0  0  0  0  0  0  0  0
   18.4363  -17.6684    0.0000 C   0  0  0  0  0  0  0  0  0  0  0  0
   16.6747   -6.4115    0.0000 C   0  0  0  0  0  0  0  0  0  0  0  0
   17.1741  -18.0810    0.0000 C   0  0  0  0  0  0  0  0  0  0  0  0
   16.6724   -5.0837    0.0000 C   0  0  0  0  0  0  0  0  0  0  0  0
   16.4597  -18.4935    0.0000 C   0  0  0  0  0  0  0  0  0  0  0  0
   16.5009   -4.2767    0.0000 C   0  0  0  0  0  0  0  0  0  0  0  0
   15.7452  -17.2559    0.0000 C   0  0  0  0  0  0  0  0  0  0  0  0
   17.8986   -3.9796    0.0000 C   0  0  0  0  0  0  0  0  0  0  0  0
   19.5599  -17.4172    0.0000 H   0  0  0  0  0  0  0  0  0  0  0  0
   20.1120   -5.4069    0.0000 H   0  0  0  0  0  0  0  0  0  0  0  0
   20.5514  -15.0540    0.0000 H   0  0  0  0  0  0  0  0  0  0  0  0
   20.6991   -7.9018    0.0000 H   0  0  0  0  0  0  0  0  0  0  0  0
   19.7642  -13.0998    0.0000 H   0  0  0  0  0  0  0  0  0  0  0  0
   20.3632  -10.3052    0.0000 H   0  0  0  0  0  0  0  0  0  0  0  0
   18.1501   -9.8042    0.0000 H   0  0  0  0  0  0  0  0  0  0  0  0
   16.4597  -15.8589    0.0000 H   0  0  0  0  0  0  0  0  0  0  0  0
   19.0065   -5.0908    0.0000 H   0  0  0  0  0  0  0  0  0  0  0  0
   15.0305  -15.8589    0.0000 H   0  0  0  0  0  0  0  0  0  0  0  0
   14.1780  -17.3357    0.0000 H   0  0  0  0  0  0  0  0  0  0  0  0
   19.4481   -3.7318    0.0000 H   0  0  0  0  0  0  0  0  0  0  0  0
   18.3071   -2.4645    0.0000 H   0  0  0  0  0  0  0  0  0  0  0  0
   19.9505  -15.4825    0.0000 H   0  0  0  0  0  0  0  0  0  0  0  0
   19.9638   -6.2257    0.0000 H   0  0  0  0  0  0  0  0  0  0  0  0
   19.9502  -15.6290    0.0000 H   0  0  0  0  0  0  0  0  0  0  0  0
   19.8778   -6.1069    0.0000 H   0  0  0  0  0  0  0  0  0  0  0  0
   17.1541  -16.3858    0.0000 H   0  0  0  0  0  0  0  0  0  0  0  0
   17.1673   -7.1290    0.0000 H   0  0  0  0  0  0  0  0  0  0  0  0
   17.1569  -14.7161    0.0000 H   0  0  0  0  0  0  0  0  0  0  0  0
   18.1465   -8.4814    0.0000 H   0  0  0  0  0  0  0  0  0  0  0  0
   16.9137  -13.8759    0.0000 H   0  0  0  0  0  0  0  0  0  0  0  0
   17.2425  -14.8941    0.0000 H   0  0  0  0  0  0  0  0  0  0  0  0
   20.2041   -8.7356    0.0000 H   0  0  0  0  0  0  0  0  0  0  0  0
   19.8753   -7.7174    0.0000 H   0  0  0  0  0  0  0  0  0  0  0  0
   19.4683  -17.6685    0.0000 H   0  0  0  0  0  0  0  0  0  0  0  0
   16.3557   -7.3930    0.0000 H   0  0  0  0  0  0  0  0  0  0  0  0
  1 10  1  0  0  0  0
  1 12  1  0  0  0  0
  1 14  1  0  0  0  0
  1 16  2  0  0  0  0
  2 11  1  0  0  0  0
  2 13  1  0  0  0  0
  2 15  1  0  0  0  0
  2 17  2  0  0  0  0
  3 12  1  0  0  0  0
  3 13  1  0  0  0  0
  3 20  1  0  0  0  0
  3 21  2  0  0  0  0
  4 36  1  0  0  0  0
  4 38  1  0  0  0  0
  5 37  1  0  0  0  0
  5 39  1  0  0  0  0
  6 52  1  0  0  0  0
  7 53  1  0  0  0  0
  8 54  1  0  0  0  0
  9 55  1  0  0  0  0
 10 40  1  0  0  0  0
 11 41  1  0  0  0  0
 14 56  1  0  0  0  0
 15 57  1  0  0  0  0
 18 48  2  0  0  0  0
 19 49  2  0  0  0  0
 20 58  1  0  0  0  0
 22 42  1  0  0  0  0
 22 44  1  0  0  0  0
 23 43  1  0  0  0  0
 23 45  1  0  0  0  0
 24 42  1  0  0  0  0
 24 50  1  0  0  0  0
 24 59  1  0  0  0  0
 25 43  1  0  0  0  0
 25 51  1  0  0  0  0
 25 60  1  0  0  0  0
 26 44  2  0  0  0  0
 26 46  1  0  0  0  0
 27 45  2  0  0  0  0
 27 47  1  0  0  0  0
 28 48  1  0  0  0  0
 28 50  2  0  0  0  0
 29 49  1  0  0  0  0
 29 51  2  0  0  0  0
 30 50  1  0  0  0  0
 30 61  1  0  0  0  0
 30 62  1  0  0  0  0
 31 51  1  0  0  0  0
 31 63  1  0  0  0  0
 31 64  1  0  0  0  0
 32  6  1  0  0  0  0
 32 34  1  0  0  0  0
 32 36  1  0  0  0  0
 32 65  1  6  0  0  0
 33  7  1  0  0  0  0
 33 35  1  0  0  0  0
 33 37  1  0  0  0  0
 33 66  1  1  0  0  0
 34  8  1  0  0  0  0
 34 38  1  0  0  0  0
 34 67  1  6  0  0  0
 35  9  1  0  0  0  0
 35 39  1  0  0  0  0
 35 68  1  1  0  0  0
 36 22  1  0  0  0  0
 36 69  1  1  0  0  0
 37 23  1  0  0  0  0
 37 70  1  6  0  0  0
 38 40  1  0  0  0  0
 38 71  1  1  0  0  0
 39 41  1  0  0  0  0
 39 72  1  6  0  0  0
 40 73  1  0  0  0  0
 40 74  1  0  0  0  0
 41 75  1  0  0  0  0
 41 76  1  0  0  0  0
 42 46  2  0  0  0  0
 43 47  2  0  0  0  0
 44 77  1  0  0  0  0
 45 78  1  0  0  0  0
 46 48  1  0  0  0  0
 47 49  1  0  0  0  0
M  END
>  <DRUGBANK_ID>
DB03931

>  <SECONDARY_ACCESSION_NUMBERS>
EXPT01633

>  <COMMON_NAME>
Diguanosine-5'-Triphosphate

$$$$
