
 OpenBabel10282417072D

 54 56  0  0  0  0  0  0  0  0999 V2000
   -4.3730    1.6454    0.0000 O   0  0  0  0  0  0  0  0  0  0  0  0
   -5.1800    1.8170    0.0000 N   0  0  0  0  0  0  0  0  0  0  0  0
   -5.5925    1.1025    0.0000 C   0  0  0  0  0  0  0  0  0  0  0  0
   -6.4130    1.0163    0.0000 C   0  0  0  0  0  0  0  0  0  0  0  0
   -5.0404    0.4894    0.0000 C   0  0  0  0  0  0  0  0  0  0  0  0
   -4.2868    0.8250    0.0000 C   0  0  0  0  0  0  0  0  0  0  0  0
   -3.5723    0.4125    0.0000 C   0  0  0  0  0  0  0  0  0  0  0  0
   -2.8578    0.8250    0.0000 C   0  0  0  0  0  0  0  0  0  0  0  0
   -2.1433    0.4125    0.0000 C   0  0  0  0  0  0  0  0  0  0  0  0
   -1.4289    0.8250    0.0000 C   0  0  0  0  0  0  0  0  0  0  0  0
   -0.7144    0.4125    0.0000 C   0  0  0  0  0  0  0  0  0  0  0  0
    0.0000    0.8250    0.0000 C   0  0  0  0  0  0  0  0  0  0  0  0
    0.7144    0.4125    0.0000 C   0  0  0  0  0  0  0  0  0  0  0  0
    1.4289    0.8250    0.0000 O   0  0  0  0  0  0  0  0  0  0  0  0
    2.1434    0.4125    0.0000 C   0  0  0  0  0  0  0  0  0  0  0  0
    2.8578    0.8250    0.0000 C   0  0  0  0  0  0  0  0  0  0  0  0
    3.5723    0.4125    0.0000 C   0  0  0  0  0  0  0  0  0  0  0  0
    3.5723   -0.4124    0.0000 C   0  0  0  0  0  0  0  0  0  0  0  0
    2.8578   -0.8249    0.0000 C   0  0  0  0  0  0  0  0  0  0  0  0
    2.1434   -0.4124    0.0000 C   0  0  0  0  0  0  0  0  0  0  0  0
    4.2868   -0.8249    0.0000 C   0  0  0  0  0  0  0  0  0  0  0  0
    5.0405   -0.4894    0.0000 N   0  0  0  0  0  0  0  0  0  0  0  0
    5.5925   -1.1025    0.0000 C   0  0  2  0  0  0  0  0  0  0  0  0
    6.4130   -1.0162    0.0000 C   0  0  0  0  0  0  0  0  0  0  0  0
    5.1800   -1.8170    0.0000 C   0  0  0  0  0  0  0  0  0  0  0  0
    4.3730   -1.6454    0.0000 O   0  0  0  0  0  0  0  0  0  0  0  0
   -7.0419    1.8820    0.0000 H   0  0  0  0  0  0  0  0  0  0  0  0
   -6.8483    0.0388    0.0000 H   0  0  0  0  0  0  0  0  0  0  0  0
   -7.4771    0.9045    0.0000 H   0  0  0  0  0  0  0  0  0  0  0  0
   -5.2549   -0.5201    0.0000 H   0  0  0  0  0  0  0  0  0  0  0  0
   -3.5723   -0.6575    0.0000 H   0  0  0  0  0  0  0  0  0  0  0  0
   -2.6457   -0.1225    0.0000 H   0  0  0  0  0  0  0  0  0  0  0  0
   -2.8578    1.8950    0.0000 H   0  0  0  0  0  0  0  0  0  0  0  0
   -1.9312    1.3600    0.0000 H   0  0  0  0  0  0  0  0  0  0  0  0
   -2.1433   -0.6575    0.0000 H   0  0  0  0  0  0  0  0  0  0  0  0
   -1.2166   -0.1225    0.0000 H   0  0  0  0  0  0  0  0  0  0  0  0
   -1.4289    1.8950    0.0000 H   0  0  0  0  0  0  0  0  0  0  0  0
   -0.5023    1.3600    0.0000 H   0  0  0  0  0  0  0  0  0  0  0  0
   -0.7144   -0.6575    0.0000 H   0  0  0  0  0  0  0  0  0  0  0  0
    0.2123   -0.1225    0.0000 H   0  0  0  0  0  0  0  0  0  0  0  0
    0.0000    1.8950    0.0000 H   0  0  0  0  0  0  0  0  0  0  0  0
    0.9267    1.3600    0.0000 H   0  0  0  0  0  0  0  0  0  0  0  0
    0.7144   -0.6575    0.0000 H   0  0  0  0  0  0  0  0  0  0  0  0
    1.6410   -0.1225    0.0000 H   0  0  0  0  0  0  0  0  0  0  0  0
    2.8578    1.8570    0.0000 H   0  0  0  0  0  0  0  0  0  0  0  0
    4.4660    0.9285    0.0000 H   0  0  0  0  0  0  0  0  0  0  0  0
    2.8578   -1.8569    0.0000 H   0  0  0  0  0  0  0  0  0  0  0  0
    1.2497   -0.9284    0.0000 H   0  0  0  0  0  0  0  0  0  0  0  0
    5.9759   -0.1036    0.0000 H   0  0  0  0  0  0  0  0  0  0  0  0
    7.0420   -1.8818    0.0000 H   0  0  0  0  0  0  0  0  0  0  0  0
    6.8481   -0.0387    0.0000 H   0  0  0  0  0  0  0  0  0  0  0  0
    7.4771   -0.9043    0.0000 H   0  0  0  0  0  0  0  0  0  0  0  0
    5.6152   -2.7945    0.0000 H   0  0  0  0  0  0  0  0  0  0  0  0
    4.5066   -2.6485    0.0000 H   0  0  0  0  0  0  0  0  0  0  0  0
  2  1  1  0  0  0  0
  3  2  2  0  0  0  0
  3  4  1  0  0  0  0
  3  5  1  0  0  0  0
  4 27  1  0  0  0  0
  4 28  1  0  0  0  0
  4 29  1  0  0  0  0
  5  6  2  0  0  0  0
  5 30  1  0  0  0  0
  6  1  1  0  0  0  0
  7  6  1  0  0  0  0
  7  8  1  0  0  0  0
  7 31  1  0  0  0  0
  7 32  1  0  0  0  0
  8  9  1  0  0  0  0
  8 33  1  0  0  0  0
  8 34  1  0  0  0  0
  9 10  1  0  0  0  0
  9 35  1  0  0  0  0
  9 36  1  0  0  0  0
 10 11  1  0  0  0  0
 10 37  1  0  0  0  0
 10 38  1  0  0  0  0
 11 12  1  0  0  0  0
 11 39  1  0  0  0  0
 11 40  1  0  0  0  0
 12 13  1  0  0  0  0
 12 41  1  0  0  0  0
 12 42  1  0  0  0  0
 13 14  1  0  0  0  0
 13 43  1  0  0  0  0
 13 44  1  0  0  0  0
 15 14  1  0  0  0  0
 15 16  2  0  0  0  0
 15 20  1  0  0  0  0
 16 17  1  0  0  0  0
 16 45  1  0  0  0  0
 17 18  2  0  0  0  0
 17 46  1  0  0  0  0
 18 19  1  0  0  0  0
 19 20  2  0  0  0  0
 19 47  1  0  0  0  0
 20 48  1  0  0  0  0
 21 18  1  0  0  0  0
 21 22  2  0  0  0  0
 21 26  1  0  0  0  0
 23 22  1  0  0  0  0
 23 24  1  0  0  0  0
 23 25  1  0  0  0  0
 23 49  1  1  0  0  0
 24 50  1  0  0  0  0
 24 51  1  0  0  0  0
 24 52  1  0  0  0  0
 25 26  1  0  0  0  0
 25 53  1  0  0  0  0
 25 54  1  0  0  0  0
M  END
>  <DRUGBANK_ID>
DB08727

>  <COMMON_NAME>
3-Methyl-5-(7-{4-[(4R)-4-methyl-4,5-dihydro-1,3-oxazol-2-yl]phenoxy}heptyl)-1,2-oxazole

>  <CAS_NUMBER>
98524-87-9

$$$$
