
 OpenBabel10282417072D

 46 48  0  0  0  0  0  0  0  0999 V2000
   -1.7834    2.2665    0.0000 C   0  0  0  0  0  0  0  0  0  0  0  0
   -1.0725    1.8545    0.0000 C   0  0  0  0  0  0  0  0  0  0  0  0
   -0.3574    2.2665    0.0000 C   0  0  0  0  0  0  0  0  0  0  0  0
    0.3574    1.8545    0.0000 C   0  0  0  0  0  0  0  0  0  0  0  0
    0.3574    1.0295    0.0000 C   0  0  0  0  0  0  0  0  0  0  0  0
   -0.3574    0.6175    0.0000 C   0  0  0  0  0  0  0  0  0  0  0  0
   -1.0725    1.0295    0.0000 C   0  0  0  0  0  0  0  0  0  0  0  0
   -1.7834    3.0905    0.0000 O   0  0  0  0  0  0  0  0  0  0  0  0
   -2.4983    1.8545    0.0000 O   0  0  0  0  0  0  0  0  0  0  0  0
   -0.3574    3.0905    0.0000 O   0  0  0  0  0  0  0  0  0  0  0  0
   -0.3574   -0.2064    0.0000 N   0  0  0  0  0  0  0  0  0  0  0  0
    0.3574   -0.6185    0.0000 C   0  0  0  0  0  0  0  0  0  0  0  0
    1.0725   -0.2064    0.0000 C   0  0  0  0  0  0  0  0  0  0  0  0
    1.7834   -0.6185    0.0000 C   0  0  0  0  0  0  0  0  0  0  0  0
    2.4983   -0.2064    0.0000 C   0  0  0  0  0  0  0  0  0  0  0  0
    2.4983    0.6175    0.0000 C   0  0  0  0  0  0  0  0  0  0  0  0
    1.7834    1.0295    0.0000 C   0  0  0  0  0  0  0  0  0  0  0  0
    1.0725    0.6175    0.0000 C   0  0  0  0  0  0  0  0  0  0  0  0
    1.7834   -1.4425    0.0000 O   0  0  0  0  0  0  0  0  0  0  0  0
   -1.0725   -0.6185    0.0000 C   0  0  0  0  0  0  0  0  0  0  0  0
   -1.0725   -1.4425    0.0000 C   0  0  0  0  0  0  0  0  0  0  0  0
   -0.3574   -1.8545    0.0000 C   0  0  0  0  0  0  0  0  0  0  0  0
   -0.3574   -2.6785    0.0000 C   0  0  0  0  0  0  0  0  0  0  0  0
   -1.0725   -3.0905    0.0000 C   0  0  0  0  0  0  0  0  0  0  0  0
   -1.7834   -2.6785    0.0000 C   0  0  0  0  0  0  0  0  0  0  0  0
   -1.7834   -1.8545    0.0000 C   0  0  0  0  0  0  0  0  0  0  0  0
    0.3574   -1.4425    0.0000 O   0  0  0  0  0  0  0  0  0  0  0  0
    1.2510    2.3708    0.0000 H   0  0  0  0  0  0  0  0  0  0  0  0
    1.2510    0.5132    0.0000 H   0  0  0  0  0  0  0  0  0  0  0  0
   -1.9660    0.5131    0.0000 H   0  0  0  0  0  0  0  0  0  0  0  0
   -3.3094    2.3236    0.0000 H   0  0  0  0  0  0  0  0  0  0  0  0
    0.4541    3.5590    0.0000 H   0  0  0  0  0  0  0  0  0  0  0  0
    0.3573   -1.6885    0.0000 H   0  0  0  0  0  0  0  0  0  0  0  0
   -0.5691   -1.1537    0.0000 H   0  0  0  0  0  0  0  0  0  0  0  0
    3.3919   -0.7227    0.0000 H   0  0  0  0  0  0  0  0  0  0  0  0
    3.3918    1.1339    0.0000 H   0  0  0  0  0  0  0  0  0  0  0  0
    1.7821    2.0615    0.0000 H   0  0  0  0  0  0  0  0  0  0  0  0
    0.1783    1.1328    0.0000 H   0  0  0  0  0  0  0  0  0  0  0  0
    0.9719   -1.9110    0.0000 H   0  0  0  0  0  0  0  0  0  0  0  0
   -1.9989   -0.0831    0.0000 H   0  0  0  0  0  0  0  0  0  0  0  0
   -1.0719    0.4515    0.0000 H   0  0  0  0  0  0  0  0  0  0  0  0
    0.5361   -3.1949    0.0000 H   0  0  0  0  0  0  0  0  0  0  0  0
   -1.0738   -4.1225    0.0000 H   0  0  0  0  0  0  0  0  0  0  0  0
   -2.6776   -3.1938    0.0000 H   0  0  0  0  0  0  0  0  0  0  0  0
   -2.6776   -1.3392    0.0000 H   0  0  0  0  0  0  0  0  0  0  0  0
    1.1685   -1.9116    0.0000 H   0  0  0  0  0  0  0  0  0  0  0  0
  1  2  1  0  0  0  0
  1  8  2  0  0  0  0
  1  9  1  0  0  0  0
  2  3  1  0  0  0  0
  2  7  2  0  0  0  0
  3  4  2  0  0  0  0
  3 10  1  0  0  0  0
  4  5  1  0  0  0  0
  4 28  1  0  0  0  0
  5  6  2  0  0  0  0
  5 29  1  0  0  0  0
  6  7  1  0  0  0  0
  6 11  1  0  0  0  0
  7 30  1  0  0  0  0
  9 31  1  0  0  0  0
 10 32  1  0  0  0  0
 11 12  1  0  0  0  0
 11 20  1  0  0  0  0
 12 13  1  0  0  0  0
 12 33  1  0  0  0  0
 12 34  1  0  0  0  0
 13 14  1  0  0  0  0
 13 18  2  0  0  0  0
 14 15  2  0  0  0  0
 14 19  1  0  0  0  0
 15 16  1  0  0  0  0
 15 35  1  0  0  0  0
 16 17  2  0  0  0  0
 16 36  1  0  0  0  0
 17 18  1  0  0  0  0
 17 37  1  0  0  0  0
 18 38  1  0  0  0  0
 19 39  1  0  0  0  0
 20 21  1  0  0  0  0
 20 40  1  0  0  0  0
 20 41  1  0  0  0  0
 21 22  1  0  0  0  0
 21 26  2  0  0  0  0
 22 23  2  0  0  0  0
 22 27  1  0  0  0  0
 23 24  1  0  0  0  0
 23 42  1  0  0  0  0
 24 25  2  0  0  0  0
 24 43  1  0  0  0  0
 25 26  1  0  0  0  0
 25 44  1  0  0  0  0
 26 45  1  0  0  0  0
 27 46  1  0  0  0  0
M  END
>  <DRUGBANK_ID>
DB16760

>  <COMMON_NAME>
Lavendustin b

>  <CAS_NUMBER>
125697-91-8

>  <UNII>
7T53EGQ52Z

$$$$
