
 OpenBabel10282417072D

 56 59  0  0  1  0  0  0  0  0999 V2000
    4.7079    1.2375    0.0000 C   0  0  0  0  0  0  0  0  0  0  0  0
    4.7079    2.0625    0.0000 C   0  0  0  0  0  0  0  0  0  0  0  0
    3.9934    2.4750    0.0000 C   0  0  1  0  0  0  0  0  0  0  0  0
    3.9934    3.3000    0.0000 C   0  0  0  0  0  0  0  0  0  0  0  0
    3.3260    3.7849    0.0000 N   0  0  0  0  0  0  0  0  0  0  0  0
    3.5809    4.5695    0.0000 C   0  0  0  0  0  0  0  0  0  0  0  0
    4.4059    4.5695    0.0000 N   0  0  0  0  0  0  0  0  0  0  0  0
    4.6608    3.7849    0.0000 O   0  0  0  0  0  0  0  0  0  0  0  0
    3.0960    5.2370    0.0000 C   0  0  0  0  0  0  0  0  0  0  0  0
    3.2789    2.0625    0.0000 N   0  0  0  0  0  0  0  0  0  0  0  0
    3.2789    1.2375    0.0000 C   0  0  0  0  0  0  0  0  0  0  0  0
    3.9934    0.8250    0.0000 C   0  0  0  0  0  0  0  0  0  0  0  0
    3.9934    0.0000    0.0000 C   0  0  0  0  0  0  0  0  0  0  0  0
    3.2789   -0.4125    0.0000 N   0  0  0  0  0  0  0  0  0  0  0  0
    2.5645    0.0000    0.0000 C   0  0  0  0  0  0  0  0  0  0  0  0
    2.5645    0.8250    0.0000 N   0  0  0  0  0  0  0  0  0  0  0  0
    1.7798    1.0799    0.0000 N   0  0  0  0  0  0  0  0  0  0  0  0
    1.2949    0.4125    0.0000 C   0  0  0  0  0  0  0  0  0  0  0  0
    1.7798   -0.2549    0.0000 C   0  0  0  0  0  0  0  0  0  0  0  0
    1.5249   -1.0396    0.0000 C   0  0  0  0  0  0  0  0  0  0  0  0
    2.0769   -1.6527    0.0000 C   0  0  0  0  0  0  0  0  0  0  0  0
    1.8220   -2.4373    0.0000 C   0  0  0  0  0  0  0  0  0  0  0  0
    1.0150   -2.6088    0.0000 C   0  0  0  0  0  0  0  0  0  0  0  0
    0.4630   -1.9957    0.0000 C   0  0  0  0  0  0  0  0  0  0  0  0
    0.7179   -1.2111    0.0000 C   0  0  0  0  0  0  0  0  0  0  0  0
    0.1659   -0.5980    0.0000 C   0  0  0  0  0  0  0  0  0  0  0  0
    0.7601   -3.3934    0.0000 O   0  0  0  0  0  0  0  0  0  0  0  0
    1.3121   -4.0065    0.0000 C   0  0  0  0  0  0  0  0  0  0  0  0
    0.4699    0.4125    0.0000 C   0  0  0  0  0  0  0  0  0  0  0  0
    4.7079   -0.4125    0.0000 C   0  0  0  0  0  0  0  0  0  0  0  0
    3.7813    0.7025    0.0000 H   0  0  0  0  0  0  0  0  0  0  0  0
    5.6345    0.7025    0.0000 H   0  0  0  0  0  0  0  0  0  0  0  0
    4.7079    0.1675    0.0000 H   0  0  0  0  0  0  0  0  0  0  0  0
    5.6345    2.5975    0.0000 H   0  0  0  0  0  0  0  0  0  0  0  0
    4.7079    3.1325    0.0000 H   0  0  0  0  0  0  0  0  0  0  0  0
    3.9934    1.4050    0.0000 H   0  0  0  0  0  0  0  0  0  0  0  0
    3.5313    6.2145    0.0000 H   0  0  0  0  0  0  0  0  0  0  0  0
    2.0319    5.1252    0.0000 H   0  0  0  0  0  0  0  0  0  0  0  0
    2.4671    6.1027    0.0000 H   0  0  0  0  0  0  0  0  0  0  0  0
    2.4263    2.5548    0.0000 H   0  0  0  0  0  0  0  0  0  0  0  0
    4.8871    1.3410    0.0000 H   0  0  0  0  0  0  0  0  0  0  0  0
    3.0863   -1.4381    0.0000 H   0  0  0  0  0  0  0  0  0  0  0  0
    2.5125   -3.2042    0.0000 H   0  0  0  0  0  0  0  0  0  0  0  0
   -0.5464   -2.2103    0.0000 H   0  0  0  0  0  0  0  0  0  0  0  0
    0.4966    0.4196    0.0000 H   0  0  0  0  0  0  0  0  0  0  0  0
   -0.8807   -0.8204    0.0000 H   0  0  0  0  0  0  0  0  0  0  0  0
   -0.5500    0.1972    0.0000 H   0  0  0  0  0  0  0  0  0  0  0  0
    0.9814   -5.0241    0.0000 H   0  0  0  0  0  0  0  0  0  0  0  0
    2.3587   -3.7841    0.0000 H   0  0  0  0  0  0  0  0  0  0  0  0
    2.0280   -4.8017    0.0000 H   0  0  0  0  0  0  0  0  0  0  0  0
   -0.0651    1.3391    0.0000 H   0  0  0  0  0  0  0  0  0  0  0  0
   -0.0651   -0.5141    0.0000 H   0  0  0  0  0  0  0  0  0  0  0  0
   -0.6001    0.4125    0.0000 H   0  0  0  0  0  0  0  0  0  0  0  0
    4.7079   -1.4825    0.0000 H   0  0  0  0  0  0  0  0  0  0  0  0
    5.6345    0.1225    0.0000 H   0  0  0  0  0  0  0  0  0  0  0  0
    5.6346   -0.9475    0.0000 H   0  0  0  0  0  0  0  0  0  0  0  0
  1  2  1  0  0  0  0
  1 31  1  0  0  0  0
  1 32  1  0  0  0  0
  1 33  1  0  0  0  0
  2  3  1  0  0  0  0
  2 34  1  0  0  0  0
  2 35  1  0  0  0  0
  3  4  1  0  0  0  0
  3 10  1  0  0  0  0
  3 36  1  1  0  0  0
  4  5  2  0  0  0  0
  4  8  1  0  0  0  0
  5  6  1  0  0  0  0
  6  7  2  0  0  0  0
  6  9  1  0  0  0  0
  7  8  1  0  0  0  0
  9 37  1  0  0  0  0
  9 38  1  0  0  0  0
  9 39  1  0  0  0  0
 10 11  1  0  0  0  0
 10 40  1  0  0  0  0
 11 12  2  0  0  0  0
 11 16  1  0  0  0  0
 12 13  1  0  0  0  0
 12 41  1  0  0  0  0
 13 14  2  0  0  0  0
 13 30  1  0  0  0  0
 14 15  1  0  0  0  0
 15 16  1  0  0  0  0
 15 19  2  0  0  0  0
 16 17  1  0  0  0  0
 17 18  2  0  0  0  0
 18 19  1  0  0  0  0
 18 29  1  0  0  0  0
 19 20  1  0  0  0  0
 20 21  2  0  0  0  0
 20 25  1  0  0  0  0
 21 22  1  0  0  0  0
 21 42  1  0  0  0  0
 22 23  2  0  0  0  0
 22 43  1  0  0  0  0
 23 24  1  0  0  0  0
 23 27  1  0  0  0  0
 24 25  2  0  0  0  0
 24 44  1  0  0  0  0
 25 26  1  0  0  0  0
 26 45  1  0  0  0  0
 26 46  1  0  0  0  0
 26 47  1  0  0  0  0
 27 28  1  0  0  0  0
 28 48  1  0  0  0  0
 28 49  1  0  0  0  0
 28 50  1  0  0  0  0
 29 51  1  0  0  0  0
 29 52  1  0  0  0  0
 29 53  1  0  0  0  0
 30 54  1  0  0  0  0
 30 55  1  0  0  0  0
 30 56  1  0  0  0  0
M  END
>  <DRUGBANK_ID>
DB12512

>  <COMMON_NAME>
Verucerfont

>  <CAS_NUMBER>
885220-61-1

>  <UNII>
X60608B091

>  <SYNONYMS>
Verucerfont

$$$$
