1414
 OpenBabel10282417072D

 36 37  0  0  1  0  0  0  0  0999 V2000
    5.2224   -1.3649    0.0000 S   0  0  0  0  0  0  0  0  0  0  0  0
    7.3510    0.4606    0.0000 O   0  0  0  0  0  0  0  0  0  0  0  0
    3.0791   -0.1274    0.0000 O   0  0  0  0  0  0  0  0  0  0  0  0
    4.5080    1.5227    0.0000 O   0  0  0  0  0  0  0  0  0  0  0  0
    5.9370    1.5227    0.0000 O   0  0  0  0  0  0  0  0  0  0  0  0
    8.3635   -0.5321    0.0000 O   0  0  0  0  0  0  0  0  0  0  0  0
    2.3645    1.1101    0.0000 O   0  0  0  0  0  0  0  0  0  0  0  0
    5.9370   -0.1274    0.0000 N   0  0  0  0  0  0  0  0  0  0  0  0
    7.3510   -1.5404    0.0000 N   0  0  0  0  0  0  0  0  0  0  0  0
   10.3252   -1.4892    0.0000 N   0  0  0  0  0  0  0  0  0  0  0  0
    5.9370   -0.9524    0.0000 C   0  0  1  0  0  0  0  0  0  0  0  0
    6.7688   -0.9558    0.0000 C   0  0  1  0  0  0  0  0  0  0  0  0
    6.7688   -0.1239    0.0000 C   0  0  0  0  0  0  0  0  0  0  0  0
    5.2224    0.2851    0.0000 C   0  0  0  0  0  0  0  0  0  0  0  0
    4.5080   -0.1274    0.0000 C   0  0  0  0  0  0  0  0  0  0  0  0
    4.5080   -0.9524    0.0000 C   0  0  0  0  0  0  0  0  0  0  0  0
    3.7935    0.2851    0.0000 C   0  0  0  0  0  0  0  0  0  0  0  0
    5.2224    1.1101    0.0000 C   0  0  0  0  0  0  0  0  0  0  0  0
    8.1483   -1.3284    0.0000 C   0  0  0  0  0  0  0  0  0  0  0  0
    8.7305   -1.9131    0.0000 C   0  0  0  0  0  0  0  0  0  0  0  0
    2.3645    0.2851    0.0000 C   0  0  0  0  0  0  0  0  0  0  0  0
    9.5278   -1.7012    0.0000 C   0  0  0  0  0  0  0  0  0  0  0  0
    1.6500   -0.1274    0.0000 C   0  0  0  0  0  0  0  0  0  0  0  0
    6.1065   -1.5902    0.0000 H   0  0  0  0  0  0  0  0  0  0  0  0
    4.5081    2.4597    0.0000 H   0  0  0  0  0  0  0  0  0  0  0  0
    7.0943   -2.4908    0.0000 H   0  0  0  0  0  0  0  0  0  0  0  0
    6.3563   -1.9431    0.0000 H   0  0  0  0  0  0  0  0  0  0  0  0
    3.5813   -1.4874    0.0000 H   0  0  0  0  0  0  0  0  0  0  0  0
    3.5814   -0.4174    0.0000 H   0  0  0  0  0  0  0  0  0  0  0  0
    3.7935    1.3551    0.0000 H   0  0  0  0  0  0  0  0  0  0  0  0
    4.7201    0.8201    0.0000 H   0  0  0  0  0  0  0  0  0  0  0  0
    8.4514   -2.9461    0.0000 H   0  0  0  0  0  0  0  0  0  0  0  0
    9.4855   -2.6713    0.0000 H   0  0  0  0  0  0  0  0  0  0  0  0
    0.7234    0.4076    0.0000 H   0  0  0  0  0  0  0  0  0  0  0  0
    1.6500   -1.1974    0.0000 H   0  0  0  0  0  0  0  0  0  0  0  0
    0.7233   -0.6624    0.0000 H   0  0  0  0  0  0  0  0  0  0  0  0
  1 11  1  0  0  0  0
  1 16  1  0  0  0  0
  2 13  2  0  0  0  0
  3 17  1  0  0  0  0
  3 21  1  0  0  0  0
  4 18  1  0  0  0  0
  4 25  1  0  0  0  0
  5 18  2  0  0  0  0
  6 19  2  0  0  0  0
  7 21  2  0  0  0  0
  8 11  1  0  0  0  0
  8 13  1  0  0  0  0
  8 14  1  0  0  0  0
  9 19  1  0  0  0  0
  9 26  1  0  0  0  0
 10 22  3  0  0  0  0
 11 12  1  0  0  0  0
 11 24  1  6  0  0  0
 12  9  1  0  0  0  0
 12 13  1  0  0  0  0
 12 27  1  6  0  0  0
 14 15  2  0  0  0  0
 14 18  1  0  0  0  0
 15 16  1  0  0  0  0
 15 17  1  0  0  0  0
 16 28  1  0  0  0  0
 16 29  1  0  0  0  0
 17 30  1  0  0  0  0
 17 31  1  0  0  0  0
 19 20  1  0  0  0  0
 20 22  1  0  0  0  0
 20 32  1  0  0  0  0
 20 33  1  0  0  0  0
 21 23  1  0  0  0  0
 23 34  1  0  0  0  0
 23 35  1  0  0  0  0
 23 36  1  0  0  0  0
M  END
>  <DRUGBANK_ID>
DB01414

>  <COMMON_NAME>
Cefacetrile

>  <CAS_NUMBER>
10206-21-0

>  <UNII>
FDM21QQ344

>  <SYNONYMS>
Cefacetrile; Cefacetrilo; Cefacetrilum; Cephacetrile

$$$$
