
 OpenBabel10282417072D

 57 58  0  0  0  0  0  0  0  0999 V2000
   -0.7145   -0.4125    0.0000 O   0  0  0  0  0  0  0  0  0  0  0  0
   -1.4289    0.0000    0.0000 C   0  0  1  0  0  0  0  0  0  0  0  0
   -2.1434   -0.4125    0.0000 C   0  0  1  0  0  0  0  0  0  0  0  0
   -1.4289    0.8250    0.0000 O   0  0  0  0  0  0  0  0  0  0  0  0
   -2.8579    0.0000    0.0000 C   0  0  2  0  0  0  0  0  0  0  0  0
   -2.1434   -1.2374    0.0000 N   0  0  0  0  0  0  0  0  0  0  0  0
    0.0000    0.0000    0.0000 C   0  0  2  0  0  0  0  0  0  0  0  0
   -2.1434    1.2374    0.0000 C   0  0  1  0  0  0  0  0  0  0  0  0
   -2.8579    0.8250    0.0000 C   0  0  1  0  0  0  0  0  0  0  0  0
   -3.5723   -0.4125    0.0000 O   0  0  0  0  0  0  0  0  0  0  0  0
   -1.4289   -1.6500    0.0000 C   0  0  0  0  0  0  0  0  0  0  0  0
    0.0000    0.8250    0.0000 C   0  0  2  0  0  0  0  0  0  0  0  0
    0.7144   -0.4125    0.0000 C   0  0  1  0  0  0  0  0  0  0  0  0
   -2.1434    2.0625    0.0000 C   0  0  0  0  0  0  0  0  0  0  0  0
   -3.5723    1.2374    0.0000 O   0  0  0  0  0  0  0  0  0  0  0  0
   -0.7145   -1.2374    0.0000 C   0  0  0  0  0  0  0  0  0  0  0  0
   -1.4289   -2.4749    0.0000 O   0  0  0  0  0  0  0  0  0  0  0  0
    0.7144    1.2374    0.0000 O   0  0  0  0  0  0  0  0  0  0  0  0
   -0.7145    1.2374    0.0000 C   0  0  0  0  0  0  0  0  0  0  0  0
    1.4288    0.0000    0.0000 C   0  0  2  0  0  0  0  0  0  0  0  0
    0.7144   -1.2374    0.0000 O   0  0  0  0  0  0  0  0  0  0  0  0
   -2.8579    2.4750    0.0000 O   0  0  0  0  0  0  0  0  0  0  0  0
    1.4288    0.8250    0.0000 C   0  0  2  0  0  0  0  0  0  0  0  0
   -0.7145    2.0625    0.0000 O   0  0  0  0  0  0  0  0  0  0  0  0
    2.1433   -0.4125    0.0000 N   0  0  0  0  0  0  0  0  0  0  0  0
    2.1433    1.2374    0.0000 O   0  0  0  0  0  0  0  0  0  0  0  0
    2.8578    0.0000    0.0000 C   0  0  0  0  0  0  0  0  0  0  0  0
    2.8578    0.8250    0.0000 O   0  0  0  0  0  0  0  0  0  0  0  0
    3.5723   -0.4125    0.0000 C   0  0  0  0  0  0  0  0  0  0  0  0
   -1.4289   -1.0700    0.0000 H   0  0  0  0  0  0  0  0  0  0  0  0
   -1.2168   -0.9475    0.0000 H   0  0  0  0  0  0  0  0  0  0  0  0
   -2.8579   -1.0700    0.0000 H   0  0  0  0  0  0  0  0  0  0  0  0
   -2.9960   -1.7296    0.0000 H   0  0  0  0  0  0  0  0  0  0  0  0
   -0.9266    0.5350    0.0000 H   0  0  0  0  0  0  0  0  0  0  0  0
   -1.2168    1.7725    0.0000 H   0  0  0  0  0  0  0  0  0  0  0  0
   -3.7845    0.2900    0.0000 H   0  0  0  0  0  0  0  0  0  0  0  0
   -4.4124    0.0725    0.0000 H   0  0  0  0  0  0  0  0  0  0  0  0
   -0.9266    0.2899    0.0000 H   0  0  0  0  0  0  0  0  0  0  0  0
   -0.2123   -0.9475    0.0000 H   0  0  0  0  0  0  0  0  0  0  0  0
   -1.2168    2.5975    0.0000 H   0  0  0  0  0  0  0  0  0  0  0  0
   -2.1434    3.1325    0.0000 H   0  0  0  0  0  0  0  0  0  0  0  0
   -3.5724    2.2074    0.0000 H   0  0  0  0  0  0  0  0  0  0  0  0
    0.2122   -1.7723    0.0000 H   0  0  0  0  0  0  0  0  0  0  0  0
   -0.7147   -0.1674    0.0000 H   0  0  0  0  0  0  0  0  0  0  0  0
    0.2121   -0.7023    0.0000 H   0  0  0  0  0  0  0  0  0  0  0  0
   -1.6411    0.7023    0.0000 H   0  0  0  0  0  0  0  0  0  0  0  0
   -1.6412    1.7724    0.0000 H   0  0  0  0  0  0  0  0  0  0  0  0
    1.4288   -1.0700    0.0000 H   0  0  0  0  0  0  0  0  0  0  0  0
   -0.1256   -1.7224    0.0000 H   0  0  0  0  0  0  0  0  0  0  0  0
   -2.8579    3.4450    0.0000 H   0  0  0  0  0  0  0  0  0  0  0  0
    1.4288    1.8950    0.0000 H   0  0  0  0  0  0  0  0  0  0  0  0
    0.1255    2.5475    0.0000 H   0  0  0  0  0  0  0  0  0  0  0  0
    2.1433   -1.3970    0.0000 H   0  0  0  0  0  0  0  0  0  0  0  0
    2.9833    0.7523    0.0000 H   0  0  0  0  0  0  0  0  0  0  0  0
    3.5723   -1.4825    0.0000 H   0  0  0  0  0  0  0  0  0  0  0  0
    4.4989    0.1225    0.0000 H   0  0  0  0  0  0  0  0  0  0  0  0
    4.4990   -0.9475    0.0000 H   0  0  0  0  0  0  0  0  0  0  0  0
  2  1  1  0  0  0  0
  2  3  1  0  0  0  0
  2  4  1  0  0  0  0
  2 30  1  6  0  0  0
  3  5  1  0  0  0  0
  3  6  1  0  0  0  0
  3 31  1  1  0  0  0
  4  8  1  0  0  0  0
  5  9  1  0  0  0  0
  5 10  1  0  0  0  0
  5 32  1  6  0  0  0
  6 11  1  0  0  0  0
  6 33  1  0  0  0  0
  7  1  1  0  0  0  0
  7 12  1  0  0  0  0
  7 13  1  0  0  0  0
  7 34  1  1  0  0  0
  8 14  1  0  0  0  0
  8  9  1  0  0  0  0
  8 35  1  6  0  0  0
  9 15  1  0  0  0  0
  9 36  1  1  0  0  0
 10 37  1  0  0  0  0
 11 16  1  0  0  0  0
 11 17  2  0  0  0  0
 12 18  1  0  0  0  0
 12 19  1  0  0  0  0
 12 38  1  6  0  0  0
 13 20  1  0  0  0  0
 13 21  1  0  0  0  0
 13 39  1  6  0  0  0
 14 22  1  0  0  0  0
 14 40  1  0  0  0  0
 14 41  1  0  0  0  0
 15 42  1  0  0  0  0
 16 43  1  0  0  0  0
 16 44  1  0  0  0  0
 16 45  1  0  0  0  0
 18 23  1  0  0  0  0
 19 24  1  0  0  0  0
 19 46  1  0  0  0  0
 19 47  1  0  0  0  0
 20 25  1  0  0  0  0
 20 23  1  0  0  0  0
 20 48  1  1  0  0  0
 21 49  1  0  0  0  0
 22 50  1  0  0  0  0
 23 26  1  0  0  0  0
 23 51  1  6  0  0  0
 24 52  1  0  0  0  0
 25 27  1  0  0  0  0
 25 53  1  0  0  0  0
 26 54  1  0  0  0  0
 27 28  2  0  0  0  0
 27 29  1  0  0  0  0
 29 55  1  0  0  0  0
 29 56  1  0  0  0  0
 29 57  1  0  0  0  0
M  END
>  <DRUGBANK_ID>
DB03013

>  <SECONDARY_ACCESSION_NUMBERS>
EXPT00851

>  <COMMON_NAME>
N-acetyl-beta-D-glucosaminyl-(1->4)-N-acetyl-beta-D-glucosamine

>  <CAS_NUMBER>
35061-50-8

>  <SYNONYMS>
Chitodextrin; β-D-GlcNAc-(1→4)-β-D-GlcNAc; β-D-GlcpNAc-(1→4)-β-D-GlcpNAc; βGlcNAc(1→4)βGlcNAc

$$$$
