
 OpenBabel10282417072D

 98102  0  0  1  0  0  0  0  0999 V2000
    5.6617   -2.2185    0.0000 O   0  0  0  0  0  0  0  0  0  0  0  0
   13.0237    0.3274    0.0000 O   0  0  0  0  0  0  0  0  0  0  0  0
   12.3189   -0.9154    0.0000 O   0  0  0  0  0  0  0  0  0  0  0  0
    4.9522   -0.9785    0.0000 O   0  0  0  0  0  0  0  0  0  0  0  0
    2.0916   -1.7924    0.0000 O   0  0  0  0  0  0  0  0  0  0  0  0
    2.8107   -0.5577    0.0000 O   0  0  0  0  0  0  0  0  0  0  0  0
    9.3960   -0.9381    0.0000 C   0  0  1  0  0  0  0  0  0  0  0  0
   10.1103   -0.5256    0.0000 C   0  0  1  0  0  0  0  0  0  0  0  0
    8.6815   -0.5256    0.0000 C   0  0  1  0  0  0  0  0  0  0  0  0
   10.1103    0.2993    0.0000 C   0  0  1  0  0  0  0  0  0  0  0  0
    7.9309   -0.9438    0.0000 C   0  0  2  0  0  0  0  0  0  0  0  0
   10.8476    0.7402    0.0000 C   0  0  2  0  0  0  0  0  0  0  0  0
    7.9243   -1.8029    0.0000 C   0  0  1  0  0  0  0  0  0  0  0  0
   11.5950    0.3165    0.0000 C   0  0  1  0  0  0  0  0  0  0  0  0
    9.4092   -1.7972    0.0000 C   0  0  0  0  0  0  0  0  0  0  0  0
    8.6815    0.2993    0.0000 C   0  0  0  0  0  0  0  0  0  0  0  0
   10.8476   -0.9667    0.0000 C   0  0  0  0  0  0  0  0  0  0  0  0
    9.3960    0.7117    0.0000 C   0  0  0  0  0  0  0  0  0  0  0  0
    8.6684   -2.2325    0.0000 C   0  0  0  0  0  0  0  0  0  0  0  0
   11.5950   -0.5428    0.0000 C   0  0  0  0  0  0  0  0  0  0  0  0
    7.1527   -2.2563    0.0000 C   0  0  0  0  0  0  0  0  0  0  0  0
   11.0209    1.5766    0.0000 C   0  0  1  0  0  0  0  0  0  0  0  0
    7.1664   -0.4784    0.0000 C   0  0  0  0  0  0  0  0  0  0  0  0
    9.9262   -1.5700    0.0000 C   0  0  0  0  0  0  0  0  0  0  0  0
   10.3925   -1.3007    0.0000 C   0  0  0  0  0  0  0  0  0  0  0  0
   12.2238    0.8944    0.0000 C   0  0  0  0  0  0  0  0  0  0  0  0
   11.8698    1.6717    0.0000 C   0  0  0  0  0  0  0  0  0  0  0  0
    7.9373   -0.1189    0.0000 C   0  0  0  0  0  0  0  0  0  0  0  0
    6.3777   -1.8089    0.0000 C   0  0  2  0  0  0  0  0  0  0  0  0
    6.3845   -0.9140    0.0000 C   0  0  0  0  0  0  0  0  0  0  0  0
   12.3126   -0.0905    0.0000 C   0  0  0  0  0  0  0  0  0  0  0  0
    7.5680   -2.9691    0.0000 C   0  0  0  0  0  0  0  0  0  0  0  0
    6.7431   -2.9723    0.0000 C   0  0  0  0  0  0  0  0  0  0  0  0
   10.4654    2.1863    0.0000 C   0  0  0  0  0  0  0  0  0  0  0  0
   10.7155    2.9723    0.0000 C   0  0  0  0  0  0  0  0  0  0  0  0
    9.6596    2.0099    0.0000 C   0  0  0  0  0  0  0  0  0  0  0  0
    4.9490   -1.8034    0.0000 C   0  0  0  0  0  0  0  0  0  0  0  0
    4.2331   -2.2130    0.0000 C   0  0  0  0  0  0  0  0  0  0  0  0
    3.5203   -1.7979    0.0000 C   0  0  0  0  0  0  0  0  0  0  0  0
    3.9355   -1.0852    0.0000 C   0  0  0  0  0  0  0  0  0  0  0  0
    3.1051   -2.5107    0.0000 C   0  0  0  0  0  0  0  0  0  0  0  0
    2.8076   -1.3826    0.0000 C   0  0  0  0  0  0  0  0  0  0  0  0
    9.2531   -0.1957    0.0000 H   0  0  0  0  0  0  0  0  0  0  0  0
   10.1052    0.9591    0.0000 H   0  0  0  0  0  0  0  0  0  0  0  0
   10.3098    1.1226    0.0000 H   0  0  0  0  0  0  0  0  0  0  0  0
    7.9269   -2.4628    0.0000 H   0  0  0  0  0  0  0  0  0  0  0  0
   13.8388   -0.1348    0.0000 H   0  0  0  0  0  0  0  0  0  0  0  0
    1.2819   -1.3209    0.0000 H   0  0  0  0  0  0  0  0  0  0  0  0
   10.3419   -2.3215    0.0000 H   0  0  0  0  0  0  0  0  0  0  0  0
    9.4195   -2.8672    0.0000 H   0  0  0  0  0  0  0  0  0  0  0  0
    7.7549    0.8344    0.0000 H   0  0  0  0  0  0  0  0  0  0  0  0
    8.6816    1.3693    0.0000 H   0  0  0  0  0  0  0  0  0  0  0  0
   10.8352   -2.0366    0.0000 H   0  0  0  0  0  0  0  0  0  0  0  0
   11.7690   -1.5106    0.0000 H   0  0  0  0  0  0  0  0  0  0  0  0
    9.3961    1.7817    0.0000 H   0  0  0  0  0  0  0  0  0  0  0  0
    8.4694    1.2468    0.0000 H   0  0  0  0  0  0  0  0  0  0  0  0
    8.6725   -3.3025    0.0000 H   0  0  0  0  0  0  0  0  0  0  0  0
    9.5981   -2.7622    0.0000 H   0  0  0  0  0  0  0  0  0  0  0  0
   12.5196   -1.0814    0.0000 H   0  0  0  0  0  0  0  0  0  0  0  0
   11.5888   -1.6128    0.0000 H   0  0  0  0  0  0  0  0  0  0  0  0
    9.9889    1.2940    0.0000 H   0  0  0  0  0  0  0  0  0  0  0  0
    7.1870    0.5914    0.0000 H   0  0  0  0  0  0  0  0  0  0  0  0
    6.2491    0.0725    0.0000 H   0  0  0  0  0  0  0  0  0  0  0  0
    9.5602   -2.5755    0.0000 H   0  0  0  0  0  0  0  0  0  0  0  0
   10.9799   -1.3842    0.0000 H   0  0  0  0  0  0  0  0  0  0  0  0
   10.6140   -2.3897    0.0000 H   0  0  0  0  0  0  0  0  0  0  0  0
    9.7048   -2.1204    0.0000 H   0  0  0  0  0  0  0  0  0  0  0  0
   11.4463   -1.4864    0.0000 H   0  0  0  0  0  0  0  0  0  0  0  0
   10.7586   -2.3061    0.0000 H   0  0  0  0  0  0  0  0  0  0  0  0
   13.2724    0.6817    0.0000 H   0  0  0  0  0  0  0  0  0  0  0  0
   12.8897    1.7319    0.0000 H   0  0  0  0  0  0  0  0  0  0  0  0
   12.3977    2.6024    0.0000 H   0  0  0  0  0  0  0  0  0  0  0  0
   12.9388    1.6243    0.0000 H   0  0  0  0  0  0  0  0  0  0  0  0
    8.8681    0.4089    0.0000 H   0  0  0  0  0  0  0  0  0  0  0  0
    7.0148    0.4233    0.0000 H   0  0  0  0  0  0  0  0  0  0  0  0
    7.9456    0.9511    0.0000 H   0  0  0  0  0  0  0  0  0  0  0  0
    6.3756   -2.8789    0.0000 H   0  0  0  0  0  0  0  0  0  0  0  0
    5.4640   -0.3684    0.0000 H   0  0  0  0  0  0  0  0  0  0  0  0
    5.4528   -1.4401    0.0000 H   0  0  0  0  0  0  0  0  0  0  0  0
    7.0367   -3.8979    0.0000 H   0  0  0  0  0  0  0  0  0  0  0  0
    8.6380   -2.9649    0.0000 H   0  0  0  0  0  0  0  0  0  0  0  0
    8.1067   -3.8936    0.0000 H   0  0  0  0  0  0  0  0  0  0  0  0
    5.6731   -2.9765    0.0000 H   0  0  0  0  0  0  0  0  0  0  0  0
    7.2818   -3.8968    0.0000 H   0  0  0  0  0  0  0  0  0  0  0  0
    6.2118   -3.9011    0.0000 H   0  0  0  0  0  0  0  0  0  0  0  0
   11.7607    3.2011    0.0000 H   0  0  0  0  0  0  0  0  0  0  0  0
    9.9947    3.7631    0.0000 H   0  0  0  0  0  0  0  0  0  0  0  0
   11.0399    3.9919    0.0000 H   0  0  0  0  0  0  0  0  0  0  0  0
    8.9644    2.7726    0.0000 H   0  0  0  0  0  0  0  0  0  0  0  0
    9.3467    1.0265    0.0000 H   0  0  0  0  0  0  0  0  0  0  0  0
    4.2290   -3.2830    0.0000 H   0  0  0  0  0  0  0  0  0  0  0  0
    3.3044   -2.7445    0.0000 H   0  0  0  0  0  0  0  0  0  0  0  0
    5.0055   -1.0894    0.0000 H   0  0  0  0  0  0  0  0  0  0  0  0
    3.4041   -0.1565    0.0000 H   0  0  0  0  0  0  0  0  0  0  0  0
    4.4741   -0.1607    0.0000 H   0  0  0  0  0  0  0  0  0  0  0  0
    2.0351   -2.5066    0.0000 H   0  0  0  0  0  0  0  0  0  0  0  0
    3.6365   -3.4394    0.0000 H   0  0  0  0  0  0  0  0  0  0  0  0
    2.5665   -3.4353    0.0000 H   0  0  0  0  0  0  0  0  0  0  0  0
  1 37  1  0  0  0  0
  2 31  1  0  0  0  0
  2 47  1  0  0  0  0
  3 31  2  0  0  0  0
  4 37  2  0  0  0  0
  5 42  1  0  0  0  0
  5 48  1  0  0  0  0
  6 42  2  0  0  0  0
  7  8  1  0  0  0  0
  7  9  1  0  0  0  0
  7 15  1  0  0  0  0
  7 24  1  1  0  0  0
  8 10  1  0  0  0  0
  8 17  1  0  0  0  0
  8 25  1  6  0  0  0
  9 11  1  0  0  0  0
  9 16  1  0  0  0  0
  9 43  1  6  0  0  0
 10 12  1  0  0  0  0
 10 18  1  0  0  0  0
 10 44  1  1  0  0  0
 11 13  1  0  0  0  0
 11 23  1  0  0  0  0
 11 28  1  1  0  0  0
 12 14  1  0  0  0  0
 12 22  1  0  0  0  0
 12 45  1  6  0  0  0
 13 19  1  0  0  0  0
 13 21  1  0  0  0  0
 13 46  1  6  0  0  0
 14 20  1  0  0  0  0
 14 26  1  0  0  0  0
 14 31  1  1  0  0  0
 15 19  1  0  0  0  0
 15 49  1  0  0  0  0
 15 50  1  0  0  0  0
 16 18  1  0  0  0  0
 16 51  1  0  0  0  0
 16 52  1  0  0  0  0
 17 20  1  0  0  0  0
 17 53  1  0  0  0  0
 17 54  1  0  0  0  0
 18 55  1  0  0  0  0
 18 56  1  0  0  0  0
 19 57  1  0  0  0  0
 19 58  1  0  0  0  0
 20 59  1  0  0  0  0
 20 60  1  0  0  0  0
 21 29  1  0  0  0  0
 21 32  1  0  0  0  0
 21 33  1  0  0  0  0
 22 27  1  0  0  0  0
 22 34  1  0  0  0  0
 22 61  1  1  0  0  0
 23 30  1  0  0  0  0
 23 62  1  0  0  0  0
 23 63  1  0  0  0  0
 24 64  1  0  0  0  0
 24 65  1  0  0  0  0
 24 66  1  0  0  0  0
 25 67  1  0  0  0  0
 25 68  1  0  0  0  0
 25 69  1  0  0  0  0
 26 27  1  0  0  0  0
 26 70  1  0  0  0  0
 26 71  1  0  0  0  0
 27 72  1  0  0  0  0
 27 73  1  0  0  0  0
 28 74  1  0  0  0  0
 28 75  1  0  0  0  0
 28 76  1  0  0  0  0
 29  1  1  0  0  0  0
 29 30  1  0  0  0  0
 29 77  1  6  0  0  0
 30 78  1  0  0  0  0
 30 79  1  0  0  0  0
 32 80  1  0  0  0  0
 32 81  1  0  0  0  0
 32 82  1  0  0  0  0
 33 83  1  0  0  0  0
 33 84  1  0  0  0  0
 33 85  1  0  0  0  0
 34 35  1  0  0  0  0
 34 36  2  0  0  0  0
 35 86  1  0  0  0  0
 35 87  1  0  0  0  0
 35 88  1  0  0  0  0
 36 89  1  0  0  0  0
 36 90  1  0  0  0  0
 37 38  1  0  0  0  0
 38 39  1  0  0  0  0
 38 91  1  0  0  0  0
 38 92  1  0  0  0  0
 39 40  1  0  0  0  0
 39 41  1  0  0  0  0
 39 42  1  0  0  0  0
 40 93  1  0  0  0  0
 40 94  1  0  0  0  0
 40 95  1  0  0  0  0
 41 96  1  0  0  0  0
 41 97  1  0  0  0  0
 41 98  1  0  0  0  0
M  END
>  <DRUGBANK_ID>
DB06581

>  <COMMON_NAME>
Bevirimat

>  <CAS_NUMBER>
174022-42-5

>  <UNII>
S125DW66N8

>  <SYNONYMS>
Bevirimat

$$$$
