
 OpenBabel10282417072D

 11 10  0  0  0  0  0  0  0  0999 V2000
   -0.3675   -0.2063    0.0000 C   0  0  2  0  0  0  0  0  0  0  0  0
   -1.0687    0.2062    0.0000 C   0  0  0  0  0  0  0  0  0  0  0  0
    0.3440    1.0312    0.0000 O   0  0  0  0  0  0  0  0  0  0  0  0
   -0.3675   -1.0312    0.0000 O   0  0  0  0  0  0  0  0  0  0  0  0
    0.3542    0.2062    0.0000 C   0  0  0  0  0  0  0  0  0  0  0  0
    1.0687   -0.2063    0.0000 H   0  0  0  0  0  0  0  0  0  0  0  0
   -0.3608    0.8637    0.0000 H   0  0  0  0  0  0  0  0  0  0  0  0
   -1.0600    1.2762    0.0000 H   0  0  0  0  0  0  0  0  0  0  0  0
   -1.9997   -0.3212    0.0000 H   0  0  0  0  0  0  0  0  0  0  0  0
   -1.9910    0.7487    0.0000 H   0  0  0  0  0  0  0  0  0  0  0  0
   -1.2075   -1.5162    0.0000 H   0  0  0  0  0  0  0  0  0  0  0  0
  1  5  1  0  0  0  0
  1  2  1  0  0  0  0
  1  7  1  6  0  0  0
  2  8  1  0  0  0  0
  2  9  1  0  0  0  0
  2 10  1  0  0  0  0
  3  5  2  0  0  0  0
  4  1  1  0  0  0  0
  4 11  1  0  0  0  0
  5  6  1  0  0  0  0
M  END
>  <DRUGBANK_ID>
DB03776

>  <SECONDARY_ACCESSION_NUMBERS>
EXPT00138

>  <COMMON_NAME>
Lactaldehyde

>  <CAS_NUMBER>
598-35-6

>  <UNII>
BS76EN9C35

>  <SYNONYMS>
(2s)-2-Hydroxypropanal; (S)-lactaldehyde; L-2-Hydroxypropionaldehyde; L-lactaldehyde

$$$$
