
 OpenBabel10282417072D

 58 60  0  0  0  0  0  0  0  0999 V2000
    4.5156    2.4648    0.0000 C   0  0  0  0  0  0  0  0  0  0  0  0
    3.6951    2.3786    0.0000 C   0  0  0  0  0  0  0  0  0  0  0  0
    3.2102    3.0460    0.0000 C   0  0  0  0  0  0  0  0  0  0  0  0
   -1.6838    2.4810    0.0000 C   0  0  0  0  0  0  0  0  0  0  0  0
   -0.9074    6.1339    0.0000 C   0  0  0  0  0  0  0  0  0  0  0  0
   -1.0164    1.9961    0.0000 C   0  0  0  0  0  0  0  0  0  0  0  0
   -1.5976    3.3015    0.0000 C   0  0  0  0  0  0  0  0  0  0  0  0
   -1.1623    5.3493    0.0000 C   0  0  0  0  0  0  0  0  0  0  0  0
   -0.1004    6.3055    0.0000 C   0  0  0  0  0  0  0  0  0  0  0  0
   -0.2627    2.3317    0.0000 C   0  0  0  0  0  0  0  0  0  0  0  0
   -0.8439    3.6371    0.0000 C   0  0  0  0  0  0  0  0  0  0  0  0
   -0.6103    4.7362    0.0000 C   0  0  0  0  0  0  0  0  0  0  0  0
    0.4516    5.6924    0.0000 C   0  0  0  0  0  0  0  0  0  0  0  0
    5.4771    4.0397    0.0000 C   0  0  0  0  0  0  0  0  0  0  0  0
    4.7627    3.6272    0.0000 C   0  0  0  0  0  0  0  0  0  0  0  0
    2.3897    2.9598    0.0000 C   0  0  0  0  0  0  0  0  0  0  0  0
    2.6192    4.0397    0.0000 C   0  0  0  0  0  0  0  0  0  0  0  0
   -0.1765    3.1521    0.0000 C   0  0  0  0  0  0  0  0  0  0  0  0
    0.1967    4.9078    0.0000 C   0  0  0  0  0  0  0  0  0  0  0  0
    6.1916    3.6272    0.0000 C   0  0  0  0  0  0  0  0  0  0  0  0
    4.0482    4.0397    0.0000 C   0  0  0  0  0  0  0  0  0  0  0  0
    1.2917    3.0752    0.0000 C   0  0  0  0  0  0  0  0  0  0  0  0
    1.5692    4.3809    0.0000 C   0  0  0  0  0  0  0  0  0  0  0  0
    1.9048    3.6272    0.0000 C   0  0  0  0  0  0  0  0  0  0  0  0
    0.5772    3.4877    0.0000 N   0  0  0  0  0  0  0  0  0  0  0  0
    0.7487    4.2947    0.0000 N   0  0  0  0  0  0  0  0  0  0  0  0
    6.9061    4.0397    0.0000 O   0  0  0  0  0  0  0  0  0  0  0  0
    6.1916    2.8022    0.0000 O   0  0  0  0  0  0  0  0  0  0  0  0
    4.0482    4.8647    0.0000 O   0  0  0  0  0  0  0  0  0  0  0  0
    1.3779    2.2547    0.0000 O   0  0  0  0  0  0  0  0  0  0  0  0
    1.9817    5.0954    0.0000 O   0  0  0  0  0  0  0  0  0  0  0  0
    3.3337    3.6272    0.0000 O   0  0  0  0  0  0  0  0  0  0  0  0
    5.1445    1.5991    0.0000 H   0  0  0  0  0  0  0  0  0  0  0  0
    4.9509    3.4423    0.0000 H   0  0  0  0  0  0  0  0  0  0  0  0
    5.5797    2.5766    0.0000 H   0  0  0  0  0  0  0  0  0  0  0  0
    3.2599    1.4011    0.0000 H   0  0  0  0  0  0  0  0  0  0  0  0
    2.6310    2.2668    0.0000 H   0  0  0  0  0  0  0  0  0  0  0  0
    3.6454    4.0235    0.0000 H   0  0  0  0  0  0  0  0  0  0  0  0
    2.5813    3.9117    0.0000 H   0  0  0  0  0  0  0  0  0  0  0  0
   -2.6266    2.0612    0.0000 H   0  0  0  0  0  0  0  0  0  0  0  0
   -1.5980    6.9008    0.0000 H   0  0  0  0  0  0  0  0  0  0  0  0
   -1.1243    0.9698    0.0000 H   0  0  0  0  0  0  0  0  0  0  0  0
   -2.4325    3.9081    0.0000 H   0  0  0  0  0  0  0  0  0  0  0  0
   -2.1717    5.1347    0.0000 H   0  0  0  0  0  0  0  0  0  0  0  0
    0.2185    7.2870    0.0000 H   0  0  0  0  0  0  0  0  0  0  0  0
    0.5722    1.7251    0.0000 H   0  0  0  0  0  0  0  0  0  0  0  0
   -0.7360    4.6634    0.0000 H   0  0  0  0  0  0  0  0  0  0  0  0
   -0.9292    3.7547    0.0000 H   0  0  0  0  0  0  0  0  0  0  0  0
    1.4610    5.9070    0.0000 H   0  0  0  0  0  0  0  0  0  0  0  0
    5.4771    5.1097    0.0000 H   0  0  0  0  0  0  0  0  0  0  0  0
    6.4037    4.5747    0.0000 H   0  0  0  0  0  0  0  0  0  0  0  0
    4.7627    2.5572    0.0000 H   0  0  0  0  0  0  0  0  0  0  0  0
    3.8361    3.0922    0.0000 H   0  0  0  0  0  0  0  0  0  0  0  0
    1.9545    1.9823    0.0000 H   0  0  0  0  0  0  0  0  0  0  0  0
    1.3256    2.8480    0.0000 H   0  0  0  0  0  0  0  0  0  0  0  0
    2.6192    5.1097    0.0000 H   0  0  0  0  0  0  0  0  0  0  0  0
    3.5458    4.5747    0.0000 H   0  0  0  0  0  0  0  0  0  0  0  0
    5.3801    2.3337    0.0000 H   0  0  0  0  0  0  0  0  0  0  0  0
  1 33  1  0  0  0  0
  1 34  1  0  0  0  0
  1 35  1  0  0  0  0
  2  1  1  0  0  0  0
  2 36  1  0  0  0  0
  2 37  1  0  0  0  0
  3  2  1  0  0  0  0
  3 38  1  0  0  0  0
  3 39  1  0  0  0  0
  4 40  1  0  0  0  0
  5 41  1  0  0  0  0
  6  4  2  0  0  0  0
  6 42  1  0  0  0  0
  7  4  1  0  0  0  0
  7 43  1  0  0  0  0
  8  5  2  0  0  0  0
  8 44  1  0  0  0  0
  9  5  1  0  0  0  0
  9 45  1  0  0  0  0
 10  6  1  0  0  0  0
 10 46  1  0  0  0  0
 11  7  2  0  0  0  0
 11 47  1  0  0  0  0
 12  8  1  0  0  0  0
 12 48  1  0  0  0  0
 13  9  2  0  0  0  0
 13 49  1  0  0  0  0
 14 50  1  0  0  0  0
 14 51  1  0  0  0  0
 15 14  1  0  0  0  0
 15 52  1  0  0  0  0
 15 53  1  0  0  0  0
 16  3  1  0  0  0  0
 16 54  1  0  0  0  0
 16 55  1  0  0  0  0
 17 56  1  0  0  0  0
 17 57  1  0  0  0  0
 18 10  2  0  0  0  0
 18 11  1  0  0  0  0
 19 12  2  0  0  0  0
 19 13  1  0  0  0  0
 20 14  1  0  0  0  0
 21 15  1  0  0  0  0
 24 16  1  0  0  0  0
 24 17  1  0  0  0  0
 24 22  1  0  0  0  0
 24 23  1  0  0  0  0
 25 18  1  0  0  0  0
 25 22  1  0  0  0  0
 26 19  1  0  0  0  0
 26 23  1  0  0  0  0
 26 25  1  0  0  0  0
 27 20  2  0  0  0  0
 28 20  1  0  0  0  0
 28 58  1  0  0  0  0
 29 21  2  0  0  0  0
 30 22  2  0  0  0  0
 31 23  2  0  0  0  0
 32 17  1  0  0  0  0
 32 21  1  0  0  0  0
M  END
>  <DRUGBANK_ID>
DB13232

>  <COMMON_NAME>
Suxibuzone

>  <CAS_NUMBER>
27470-51-5

>  <UNII>
86TDZ5WP2B

>  <SYNONYMS>
suxibuzona; Suxibuzone

$$$$
