
 OpenBabel10282417072D

 71 73  0  0  1  0  0  0  0  0999 V2000
   -2.1434    3.7125    0.0000 C   0  0  0  0  0  0  0  0  0  0  0  0
   -6.4302    1.2375    0.0000 C   0  0  0  0  0  0  0  0  0  0  0  0
   -6.4302    6.1875    0.0000 C   0  0  0  0  0  0  0  0  0  0  0  0
   -2.8579    3.3000    0.0000 C   0  0  2  0  0  0  0  0  0  0  0  0
   -6.4302    2.0625    0.0000 C   0  0  2  0  0  0  0  0  0  0  0  0
   -7.1447    5.7750    0.0000 C   0  0  2  0  0  0  0  0  0  0  0  0
   -7.8592    6.1875    0.0000 C   0  0  2  0  0  0  0  0  0  0  0  0
   -3.5724    3.7125    0.0000 C   0  0  2  0  0  0  0  0  0  0  0  0
   -7.1447    2.4750    0.0000 C   0  0  2  0  0  0  0  0  0  0  0  0
   -8.5737    5.7750    0.0000 C   0  0  1  0  0  0  0  0  0  0  0  0
   -8.5737    4.9500    0.0000 C   0  0  1  0  0  0  0  0  0  0  0  0
   -4.2868    2.4750    0.0000 C   0  0  1  0  0  0  0  0  0  0  0  0
   -6.4302    3.7125    0.0000 C   0  0  1  0  0  0  0  0  0  0  0  0
   -4.2868    3.3000    0.0000 C   0  0  1  0  0  0  0  0  0  0  0  0
   -7.1447    3.3000    0.0000 C   0  0  1  0  0  0  0  0  0  0  0  0
   -3.5724    2.0625    0.0000 C   0  0  1  0  0  0  0  0  0  0  0  0
   -7.8592    4.5375    0.0000 C   0  0  2  0  0  0  0  0  0  0  0  0
   -5.7158    3.3000    0.0000 C   0  0  2  0  0  0  0  0  0  0  0  0
   -1.4289    3.3000    0.0000 O   0  0  0  0  0  0  0  0  0  0  0  0
   -5.7158    0.8250    0.0000 O   0  0  0  0  0  0  0  0  0  0  0  0
   -7.8592    7.0125    0.0000 O   0  0  0  0  0  0  0  0  0  0  0  0
   -3.5724    4.5375    0.0000 O   0  0  0  0  0  0  0  0  0  0  0  0
   -7.8592    2.0625    0.0000 O   0  0  0  0  0  0  0  0  0  0  0  0
   -9.2881    6.1875    0.0000 O   0  0  0  0  0  0  0  0  0  0  0  0
   -9.2881    4.5375    0.0000 O   0  0  0  0  0  0  0  0  0  0  0  0
   -5.0013    2.0625    0.0000 O   0  0  0  0  0  0  0  0  0  0  0  0
   -6.4302    4.5375    0.0000 O   0  0  0  0  0  0  0  0  0  0  0  0
   -3.5724    1.2375    0.0000 O   0  0  0  0  0  0  0  0  0  0  0  0
   -6.1283    8.1395    0.0000 O   0  0  0  0  0  0  0  0  0  0  0  0
   -5.0013    7.8375    0.0000 O   0  0  0  0  0  0  0  0  0  0  0  0
   -5.3033    6.7105    0.0000 O   0  0  0  0  0  0  0  0  0  0  0  0
   -6.4302    7.0125    0.0000 O   0  0  0  0  0  0  0  0  0  0  0  0
   -2.8579    2.4750    0.0000 O   0  0  0  0  0  0  0  0  0  0  0  0
   -5.7158    2.4750    0.0000 O   0  0  0  0  0  0  0  0  0  0  0  0
   -7.1447    4.9500    0.0000 O   0  0  0  0  0  0  0  0  0  0  0  0
   -5.0013    3.7125    0.0000 O   0  0  0  0  0  0  0  0  0  0  0  0
   -7.8592    3.7125    0.0000 O   0  0  0  0  0  0  0  0  0  0  0  0
   -5.7158    7.4250    0.0000 P   0  0  0  0  0  0  0  0  0  0  0  0
   -3.1401    4.0752    0.0000 H   0  0  0  0  0  0  0  0  0  0  0  0
   -6.9605    1.4305    0.0000 H   0  0  0  0  0  0  0  0  0  0  0  0
   -7.4269    6.5502    0.0000 H   0  0  0  0  0  0  0  0  0  0  0  0
   -7.3289    6.8195    0.0000 H   0  0  0  0  0  0  0  0  0  0  0  0
   -3.0421    4.3445    0.0000 H   0  0  0  0  0  0  0  0  0  0  0  0
   -7.4269    1.6998    0.0000 H   0  0  0  0  0  0  0  0  0  0  0  0
   -8.5737    6.6000    0.0000 H   0  0  0  0  0  0  0  0  0  0  0  0
   -9.2881    5.3625    0.0000 H   0  0  0  0  0  0  0  0  0  0  0  0
   -5.0013    2.8875    0.0000 H   0  0  0  0  0  0  0  0  0  0  0  0
   -7.1447    4.1250    0.0000 H   0  0  0  0  0  0  0  0  0  0  0  0
   -4.2868    4.1250    0.0000 H   0  0  0  0  0  0  0  0  0  0  0  0
   -7.8592    2.8875    0.0000 H   0  0  0  0  0  0  0  0  0  0  0  0
   -4.2868    1.6500    0.0000 H   0  0  0  0  0  0  0  0  0  0  0  0
   -8.5737    4.1250    0.0000 H   0  0  0  0  0  0  0  0  0  0  0  0
   -5.7158    4.1250    0.0000 H   0  0  0  0  0  0  0  0  0  0  0  0
   -2.1434    4.7825    0.0000 H   0  0  0  0  0  0  0  0  0  0  0  0
   -1.2168    4.2475    0.0000 H   0  0  0  0  0  0  0  0  0  0  0  0
   -7.3569    0.7025    0.0000 H   0  0  0  0  0  0  0  0  0  0  0  0
   -6.4302    0.1675    0.0000 H   0  0  0  0  0  0  0  0  0  0  0  0
   -5.5036    5.6525    0.0000 H   0  0  0  0  0  0  0  0  0  0  0  0
   -5.5036    6.7225    0.0000 H   0  0  0  0  0  0  0  0  0  0  0  0
   -1.4289    2.3300    0.0000 H   0  0  0  0  0  0  0  0  0  0  0  0
   -5.7158   -0.1450    0.0000 H   0  0  0  0  0  0  0  0  0  0  0  0
   -7.0192    7.4975    0.0000 H   0  0  0  0  0  0  0  0  0  0  0  0
   -2.7324    5.0225    0.0000 H   0  0  0  0  0  0  0  0  0  0  0  0
   -8.6992    2.5475    0.0000 H   0  0  0  0  0  0  0  0  0  0  0  0
   -9.2881    7.1575    0.0000 H   0  0  0  0  0  0  0  0  0  0  0  0
  -10.1282    5.0225    0.0000 H   0  0  0  0  0  0  0  0  0  0  0  0
   -5.8413    2.5475    0.0000 H   0  0  0  0  0  0  0  0  0  0  0  0
   -5.5902    5.0225    0.0000 H   0  0  0  0  0  0  0  0  0  0  0  0
   -4.4124    0.7525    0.0000 H   0  0  0  0  0  0  0  0  0  0  0  0
   -5.6433    8.9795    0.0000 H   0  0  0  0  0  0  0  0  0  0  0  0
   -4.1613    7.3525    0.0000 H   0  0  0  0  0  0  0  0  0  0  0  0
  1 54  1  0  0  0  0
  1 55  1  0  0  0  0
  2 56  1  0  0  0  0
  2 57  1  0  0  0  0
  3 58  1  0  0  0  0
  3 59  1  0  0  0  0
  4  1  1  0  0  0  0
  4 39  1  6  0  0  0
  5  2  1  0  0  0  0
  5 40  1  1  0  0  0
  6  3  1  0  0  0  0
  6 41  1  6  0  0  0
  7  6  1  0  0  0  0
  7 21  1  0  0  0  0
  7 42  1  1  0  0  0
  8  4  1  0  0  0  0
  8 22  1  0  0  0  0
  8 43  1  1  0  0  0
  9  5  1  0  0  0  0
  9 23  1  0  0  0  0
  9 44  1  6  0  0  0
 10  7  1  0  0  0  0
 10 24  1  0  0  0  0
 10 45  1  6  0  0  0
 11 10  1  0  0  0  0
 11 25  1  0  0  0  0
 11 46  1  6  0  0  0
 12 26  1  0  0  0  0
 12 47  1  6  0  0  0
 13 27  1  0  0  0  0
 13 48  1  1  0  0  0
 14  8  1  0  0  0  0
 14 12  1  0  0  0  0
 14 36  1  0  0  0  0
 14 49  1  6  0  0  0
 15  9  1  0  0  0  0
 15 13  1  0  0  0  0
 15 37  1  0  0  0  0
 15 50  1  1  0  0  0
 16 12  1  0  0  0  0
 16 28  1  0  0  0  0
 16 51  1  1  0  0  0
 17 11  1  0  0  0  0
 17 37  1  0  0  0  0
 17 52  1  1  0  0  0
 18 13  1  0  0  0  0
 18 36  1  0  0  0  0
 18 53  1  6  0  0  0
 19  1  1  0  0  0  0
 19 60  1  0  0  0  0
 20  2  1  0  0  0  0
 20 61  1  0  0  0  0
 21 62  1  0  0  0  0
 22 63  1  0  0  0  0
 23 64  1  0  0  0  0
 24 65  1  0  0  0  0
 25 66  1  0  0  0  0
 26 67  1  0  0  0  0
 27 68  1  0  0  0  0
 28 69  1  0  0  0  0
 29 70  1  0  0  0  0
 30 71  1  0  0  0  0
 32  3  1  0  0  0  0
 33  4  1  0  0  0  0
 33 16  1  0  0  0  0
 34  5  1  0  0  0  0
 34 18  1  0  0  0  0
 35  6  1  0  0  0  0
 35 17  1  0  0  0  0
 38 29  1  0  0  0  0
 38 30  1  0  0  0  0
 38 31  2  0  0  0  0
 38 32  1  0  0  0  0
M  END
>  <DRUGBANK_ID>
DB02755

>  <SECONDARY_ACCESSION_NUMBERS>
EXPT02479

>  <COMMON_NAME>
1-3 Sugar Ring of Pentamannosyl 6-Phosphate

$$$$
