
 OpenBabel10282417072D

529536  0  0  0  0  0  0  0  0999 V2000
    7.7443   18.1325    0.0000 C   0  0  0  0  0  0  0  0  0  0  0  0
    7.0381   17.7064    0.0000 C   0  0  2  0  0  0  0  0  0  0  0  0
    5.7217   18.4329    0.0000 N   0  0  0  0  0  0  0  0  0  0  0  0
    5.0153   18.0067    0.0000 C   0  0  0  0  0  0  0  0  0  0  0  0
    4.2930   18.4056    0.0000 C   0  0  2  0  0  0  0  0  0  0  0  0
    4.2930   19.2302    0.0000 C   0  0  0  0  0  0  0  0  0  0  0  0
    4.9835   19.6566    0.0000 C   0  0  0  0  0  0  0  0  0  0  0  0
    4.9835   20.4814    0.0000 C   0  0  0  0  0  0  0  0  0  0  0  0
    5.6741   20.9075    0.0000 C   0  0  0  0  0  0  0  0  0  0  0  0
    6.3962   20.5089    0.0000 C   0  0  0  0  0  0  0  0  0  0  0  0
    6.3962   19.6841    0.0000 C   0  0  0  0  0  0  0  0  0  0  0  0
    5.7057   19.2579    0.0000 C   0  0  0  0  0  0  0  0  0  0  0  0
    7.1028   20.9350    0.0000 O   0  0  0  0  0  0  0  0  0  0  0  0
    3.5866   17.9794    0.0000 N   0  0  0  0  0  0  0  0  0  0  0  0
    2.8642   18.3779    0.0000 C   0  0  0  0  0  0  0  0  0  0  0  0
    2.1737   17.9517    0.0000 C   0  0  1  0  0  0  0  0  0  0  0  0
    1.4357   18.3506    0.0000 N   0  0  0  0  0  0  0  0  0  0  0  0
    0.7291   17.9242    0.0000 C   0  0  0  0  0  0  0  0  0  0  0  0
    0.0069   18.3230    0.0000 C   0  0  1  0  0  0  0  0  0  0  0  0
   -0.6993   17.8968    0.0000 N   0  0  0  0  0  0  0  0  0  0  0  0
   -1.4218   18.2955    0.0000 C   0  0  0  0  0  0  0  0  0  0  0  0
   -1.4218   19.1204    0.0000 O   0  0  0  0  0  0  0  0  0  0  0  0
   -2.1281   17.8693    0.0000 C   0  0  1  0  0  0  0  0  0  0  0  0
   -2.8504   18.2681    0.0000 N   0  0  0  0  0  0  0  0  0  0  0  0
   -3.5568   17.8418    0.0000 C   0  0  0  0  0  0  0  0  0  0  0  0
   -3.5568   18.6668    0.0000 O   0  0  0  0  0  0  0  0  0  0  0  0
   -4.2792   18.2405    0.0000 C   0  0  2  0  0  0  0  0  0  0  0  0
   -4.2792   19.0653    0.0000 C   0  0  0  0  0  0  0  0  0  0  0  0
   -3.5886   19.4917    0.0000 C   0  0  0  0  0  0  0  0  0  0  0  0
   -2.8663   19.0929    0.0000 C   0  0  0  0  0  0  0  0  0  0  0  0
   -2.1599   19.5191    0.0000 C   0  0  0  0  0  0  0  0  0  0  0  0
   -2.1599   20.3440    0.0000 C   0  0  0  0  0  0  0  0  0  0  0  0
   -2.8983   20.7426    0.0000 C   0  0  0  0  0  0  0  0  0  0  0  0
   -3.5886   20.3165    0.0000 C   0  0  0  0  0  0  0  0  0  0  0  0
   -4.9855   17.8144    0.0000 N   0  0  0  0  0  0  0  0  0  0  0  0
   -5.7079   18.2130    0.0000 C   0  0  0  0  0  0  0  0  0  0  0  0
   -5.7079   19.0378    0.0000 O   0  0  0  0  0  0  0  0  0  0  0  0
   -6.4142   17.7867    0.0000 C   0  0  2  0  0  0  0  0  0  0  0  0
   -6.4142   18.6117    0.0000 C   0  0  0  0  0  0  0  0  0  0  0  0
   -7.1525   19.0101    0.0000 C   0  0  0  0  0  0  0  0  0  0  0  0
   -7.1525   19.8350    0.0000 C   0  0  0  0  0  0  0  0  0  0  0  0
   -6.4779   20.2613    0.0000 N   0  0  0  0  0  0  0  0  0  0  0  0
   -6.4779   21.0861    0.0000 C   0  0  0  0  0  0  0  0  0  0  0  0
   -5.7714   21.5123    0.0000 N   0  0  0  0  0  0  0  0  0  0  0  0
   -7.2002   21.4848    0.0000 N   0  0  0  0  0  0  0  0  0  0  0  0
   -7.1365   18.1853    0.0000 N   0  0  0  0  0  0  0  0  0  0  0  0
   -7.8428   17.7592    0.0000 C   0  0  0  0  0  0  0  0  0  0  0  0
   -7.7972   18.5829    0.0000 O   0  0  0  0  0  0  0  0  0  0  0  0
   -8.4977   18.2611    0.0000 C   0  0  2  0  0  0  0  0  0  0  0  0
   -8.3296   19.0687    0.0000 C   0  0  0  0  0  0  0  0  0  0  0  0
   -8.9452   19.6181    0.0000 C   0  0  0  0  0  0  0  0  0  0  0  0
   -9.7286   19.3598    0.0000 C   0  0  0  0  0  0  0  0  0  0  0  0
  -10.3442   19.9090    0.0000 O   0  0  0  0  0  0  0  0  0  0  0  0
   -9.8967   18.5521    0.0000 O   0  0  0  0  0  0  0  0  0  0  0  0
   -9.2983   18.0619    0.0000 N   0  0  0  0  0  0  0  0  0  0  0  0
   -9.6419   17.3118    0.0000 C   0  0  0  0  0  0  0  0  0  0  0  0
   -9.2695   16.5755    0.0000 C   0  0  1  0  0  0  0  0  0  0  0  0
   -8.4618   16.4076    0.0000 N   0  0  0  0  0  0  0  0  0  0  0  0
   -7.8270   16.9343    0.0000 C   0  0  0  0  0  0  0  0  0  0  0  0
   -7.1047   16.5357    0.0000 C   0  0  2  0  0  0  0  0  0  0  0  0
   -6.3982   16.9618    0.0000 C   0  0  0  0  0  0  0  0  0  0  0  0
   -5.6759   16.5632    0.0000 C   0  0  0  0  0  0  0  0  0  0  0  0
   -4.9695   16.9895    0.0000 C   0  0  0  0  0  0  0  0  0  0  0  0
   -4.2472   16.5909    0.0000 C   0  0  0  0  0  0  0  0  0  0  0  0
   -3.5409   17.0170    0.0000 N   0  0  0  0  0  0  0  0  0  0  0  0
   -2.8186   16.6184    0.0000 C   0  0  0  0  0  0  0  0  0  0  0  0
   -2.1281   17.0445    0.0000 C   0  0  0  0  0  0  0  0  0  0  0  0
   -2.8186   15.7935    0.0000 O   0  0  0  0  0  0  0  0  0  0  0  0
   -7.1047   15.7109    0.0000 N   0  0  0  0  0  0  0  0  0  0  0  0
   -7.7952   15.2845    0.0000 C   0  0  0  0  0  0  0  0  0  0  0  0
   -8.5175   15.6832    0.0000 C   0  0  0  0  0  0  0  0  0  0  0  0
   -7.7952   14.4597    0.0000 O   0  0  0  0  0  0  0  0  0  0  0  0
   -7.7495   16.1130    0.0000 O   0  0  0  0  0  0  0  0  0  0  0  0
   -9.7714   15.9209    0.0000 C   0  0  0  0  0  0  0  0  0  0  0  0
  -10.5895   16.0279    0.0000 C   0  0  0  0  0  0  0  0  0  0  0  0
   -9.4554   15.1588    0.0000 C   0  0  0  0  0  0  0  0  0  0  0  0
  -10.4667   17.3118    0.0000 O   0  0  0  0  0  0  0  0  0  0  0  0
   -0.6993   17.0719    0.0000 C   0  0  0  0  0  0  0  0  0  0  0  0
    0.0069   19.1479    0.0000 C   0  0  0  0  0  0  0  0  0  0  0  0
    0.6973   19.5740    0.0000 C   0  0  0  0  0  0  0  0  0  0  0  0
    1.4197   19.1753    0.0000 O   0  0  0  0  0  0  0  0  0  0  0  0
    0.6973   20.3989    0.0000 O   0  0  0  0  0  0  0  0  0  0  0  0
    0.7291   17.0994    0.0000 O   0  0  0  0  0  0  0  0  0  0  0  0
    2.1737   17.1269    0.0000 C   0  0  0  0  0  0  0  0  0  0  0  0
    1.4673   16.7008    0.0000 C   0  0  0  0  0  0  0  0  0  0  0  0
    2.1737   16.3021    0.0000 C   0  0  0  0  0  0  0  0  0  0  0  0
    2.8960   16.7283    0.0000 C   0  0  0  0  0  0  0  0  0  0  0  0
    2.8642   19.2027    0.0000 O   0  0  0  0  0  0  0  0  0  0  0  0
    5.0153   17.1819    0.0000 O   0  0  0  0  0  0  0  0  0  0  0  0
    7.0381   16.2032    0.0000 C   0  0  0  0  0  0  0  0  0  0  0  0
    6.3605   15.7769    0.0000 N   0  0  0  0  0  0  0  0  0  0  0  0
    5.6382   16.1755    0.0000 C   0  0  2  0  0  0  0  0  0  0  0  0
    4.9318   15.7494    0.0000 C   0  0  0  0  0  0  0  0  0  0  0  0
    4.9318   14.9246    0.0000 N   0  0  0  0  0  0  0  0  0  0  0  0
    4.2413   14.4984    0.0000 C   0  0  2  0  0  0  0  0  0  0  0  0
    3.5190   14.8971    0.0000 C   0  0  0  0  0  0  0  0  0  0  0  0
    3.5190   15.7219    0.0000 O   0  0  0  0  0  0  0  0  0  0  0  0
    2.8125   14.4709    0.0000 N   0  0  0  0  0  0  0  0  0  0  0  0
    2.7421   13.6489    0.0000 C   0  0  2  0  0  0  0  0  0  0  0  0
    3.3658   13.1086    0.0000 C   0  0  0  0  0  0  0  0  0  0  0  0
    3.2097   12.2986    0.0000 N   0  0  0  0  0  0  0  0  0  0  0  0
    2.5694   11.7784    0.0000 C   0  0  2  0  0  0  0  0  0  0  0  0
    1.7989   12.0726    0.0000 C   0  0  0  0  0  0  0  0  0  0  0  0
    1.1586   11.5522    0.0000 N   0  0  0  0  0  0  0  0  0  0  0  0
    0.3880   11.8465    0.0000 C   0  0  1  0  0  0  0  0  0  0  0  0
   -0.2523   11.3262    0.0000 C   0  0  0  0  0  0  0  0  0  0  0  0
   -0.1218   10.5116    0.0000 C   0  0  0  0  0  0  0  0  0  0  0  0
   -0.7620    9.9913    0.0000 C   0  0  0  0  0  0  0  0  0  0  0  0
   -0.6315    9.1766    0.0000 C   0  0  0  0  0  0  0  0  0  0  0  0
   -1.2717    8.6563    0.0000 N   0  0  0  0  0  0  0  0  0  0  0  0
   -1.1412    7.8417    0.0000 C   0  0  0  0  0  0  0  0  0  0  0  0
   -1.7814    7.3214    0.0000 C   0  0  0  0  0  0  0  0  0  0  0  0
   -1.6509    6.5068    0.0000 C   0  0  0  0  0  0  0  0  0  0  0  0
   -2.2911    5.9863    0.0000 O   0  0  0  0  0  0  0  0  0  0  0  0
   -2.1605    5.1717    0.0000 C   0  0  0  0  0  0  0  0  0  0  0  0
   -2.8007    4.6514    0.0000 C   0  0  0  0  0  0  0  0  0  0  0  0
   -2.5748    3.5918    0.0000 O   0  0  0  0  0  0  0  0  0  0  0  0
   -2.6267    2.7849    0.0000 C   0  0  0  0  0  0  0  0  0  0  0  0
   -3.2646    2.2617    0.0000 C   0  0  0  0  0  0  0  0  0  0  0  0
   -3.1304    1.4477    0.0000 O   0  0  0  0  0  0  0  0  0  0  0  0
   -3.7682    0.9244    0.0000 C   0  0  0  0  0  0  0  0  0  0  0  0
   -3.6340    0.1105    0.0000 C   0  0  0  0  0  0  0  0  0  0  0  0
   -4.2721   -0.4127    0.0000 O   0  0  0  0  0  0  0  0  0  0  0  0
   -4.1379   -1.2267    0.0000 C   0  0  0  0  0  0  0  0  0  0  0  0
   -4.7757   -1.7497    0.0000 C   0  0  0  0  0  0  0  0  0  0  0  0
   -4.6416   -2.5639    0.0000 O   0  0  0  0  0  0  0  0  0  0  0  0
   -5.2796   -3.0870    0.0000 C   0  0  0  0  0  0  0  0  0  0  0  0
   -5.1453   -3.9011    0.0000 C   0  0  0  0  0  0  0  0  0  0  0  0
   -5.7833   -4.4242    0.0000 O   0  0  0  0  0  0  0  0  0  0  0  0
   -5.6491   -5.2384    0.0000 C   0  0  0  0  0  0  0  0  0  0  0  0
   -6.2869   -5.7615    0.0000 C   0  0  0  0  0  0  0  0  0  0  0  0
   -6.1528   -6.5756    0.0000 O   0  0  0  0  0  0  0  0  0  0  0  0
   -6.7908   -7.0987    0.0000 C   0  0  0  0  0  0  0  0  0  0  0  0
   -6.6566   -7.9128    0.0000 C   0  0  0  0  0  0  0  0  0  0  0  0
   -7.2944   -8.4359    0.0000 O   0  0  0  0  0  0  0  0  0  0  0  0
   -7.1604   -9.2500    0.0000 C   0  0  0  0  0  0  0  0  0  0  0  0
   -7.7983   -9.7732    0.0000 C   0  0  0  0  0  0  0  0  0  0  0  0
   -7.6640  -10.5871    0.0000 O   0  0  0  0  0  0  0  0  0  0  0  0
   -8.3020  -11.1103    0.0000 C   0  0  0  0  0  0  0  0  0  0  0  0
   -8.1679  -11.9244    0.0000 C   0  0  0  0  0  0  0  0  0  0  0  0
   -8.8057  -12.4476    0.0000 O   0  0  0  0  0  0  0  0  0  0  0  0
   -8.6716  -13.2616    0.0000 C   0  0  0  0  0  0  0  0  0  0  0  0
   -9.3095  -13.7849    0.0000 C   0  0  0  0  0  0  0  0  0  0  0  0
   -9.1754  -14.5988    0.0000 O   0  0  0  0  0  0  0  0  0  0  0  0
   -9.8133  -15.1221    0.0000 C   0  0  0  0  0  0  0  0  0  0  0  0
   -9.6791  -15.9360    0.0000 C   0  0  0  0  0  0  0  0  0  0  0  0
  -10.3171  -16.4593    0.0000 O   0  0  0  0  0  0  0  0  0  0  0  0
  -10.1827  -17.2733    0.0000 C   0  0  0  0  0  0  0  0  0  0  0  0
  -10.8208  -17.7964    0.0000 C   0  0  0  0  0  0  0  0  0  0  0  0
  -10.6866  -18.6104    0.0000 O   0  0  0  0  0  0  0  0  0  0  0  0
   -9.9145  -18.9013    0.0000 C   0  0  0  0  0  0  0  0  0  0  0  0
   -9.2766  -18.3781    0.0000 C   0  0  0  0  0  0  0  0  0  0  0  0
   -9.4108  -17.5642    0.0000 O   0  0  0  0  0  0  0  0  0  0  0  0
   -8.7730  -17.0408    0.0000 C   0  0  0  0  0  0  0  0  0  0  0  0
   -8.9071  -16.2269    0.0000 C   0  0  0  0  0  0  0  0  0  0  0  0
   -8.2691  -15.7037    0.0000 O   0  0  0  0  0  0  0  0  0  0  0  0
   -8.4032  -14.8897    0.0000 C   0  0  0  0  0  0  0  0  0  0  0  0
   -7.7654  -14.3664    0.0000 C   0  0  0  0  0  0  0  0  0  0  0  0
   -7.8996  -13.5524    0.0000 O   0  0  0  0  0  0  0  0  0  0  0  0
   -7.2617  -13.0291    0.0000 C   0  0  0  0  0  0  0  0  0  0  0  0
   -7.3957  -12.2152    0.0000 C   0  0  0  0  0  0  0  0  0  0  0  0
   -6.7579  -11.6919    0.0000 O   0  0  0  0  0  0  0  0  0  0  0  0
   -6.8920  -10.8780    0.0000 C   0  0  0  0  0  0  0  0  0  0  0  0
   -6.2542  -10.3548    0.0000 C   0  0  0  0  0  0  0  0  0  0  0  0
   -6.3883   -9.5409    0.0000 O   0  0  0  0  0  0  0  0  0  0  0  0
   -5.7503   -9.0177    0.0000 C   0  0  0  0  0  0  0  0  0  0  0  0
   -5.8845   -8.2036    0.0000 C   0  0  0  0  0  0  0  0  0  0  0  0
   -5.2467   -7.6804    0.0000 O   0  0  0  0  0  0  0  0  0  0  0  0
   -5.3808   -6.8664    0.0000 C   0  0  0  0  0  0  0  0  0  0  0  0
   -4.7430   -6.3431    0.0000 C   0  0  0  0  0  0  0  0  0  0  0  0
   -4.8771   -5.5292    0.0000 O   0  0  0  0  0  0  0  0  0  0  0  0
   -4.2392   -5.0060    0.0000 C   0  0  0  0  0  0  0  0  0  0  0  0
   -4.3732   -4.1920    0.0000 C   0  0  0  0  0  0  0  0  0  0  0  0
   -3.5593   -4.0578    0.0000 O   0  0  0  0  0  0  0  0  0  0  0  0
   -3.0361   -4.6956    0.0000 C   0  0  0  0  0  0  0  0  0  0  0  0
   -2.2221   -4.5615    0.0000 C   0  0  0  0  0  0  0  0  0  0  0  0
   -1.6990   -5.1994    0.0000 O   0  0  0  0  0  0  0  0  0  0  0  0
   -0.8848   -5.0654    0.0000 C   0  0  0  0  0  0  0  0  0  0  0  0
   -0.3618   -5.7032    0.0000 C   0  0  0  0  0  0  0  0  0  0  0  0
    0.4523   -5.5690    0.0000 O   0  0  0  0  0  0  0  0  0  0  0  0
    0.9754   -6.2069    0.0000 C   0  0  0  0  0  0  0  0  0  0  0  0
    1.7895   -6.0728    0.0000 C   0  0  0  0  0  0  0  0  0  0  0  0
    2.3127   -6.7107    0.0000 O   0  0  0  0  0  0  0  0  0  0  0  0
    1.6725   -7.2310    0.0000 C   0  0  0  0  0  0  0  0  0  0  0  0
    1.8030   -8.0457    0.0000 C   0  0  0  0  0  0  0  0  0  0  0  0
    1.1627   -8.5659    0.0000 N   0  0  0  0  0  0  0  0  0  0  0  0
    1.2933   -9.3806    0.0000 C   0  0  0  0  0  0  0  0  0  0  0  0
    2.0641   -9.6749    0.0000 O   0  0  0  0  0  0  0  0  0  0  0  0
    0.6531   -9.9009    0.0000 C   0  0  0  0  0  0  0  0  0  0  0  0
    0.7836  -10.7155    0.0000 C   0  0  0  0  0  0  0  0  0  0  0  0
    0.1433  -11.2358    0.0000 C   0  0  1  0  0  0  0  0  0  0  0  0
    0.2739  -12.0504    0.0000 C   0  0  0  0  0  0  0  0  0  0  0  0
    1.0447  -12.3447    0.0000 O   0  0  0  0  0  0  0  0  0  0  0  0
   -0.3662  -12.5707    0.0000 O   0  0  0  0  0  0  0  0  0  0  0  0
   -0.6272  -10.9417    0.0000 N   0  0  0  0  0  0  0  0  0  0  0  0
   -1.2674  -11.4618    0.0000 C   0  0  0  0  0  0  0  0  0  0  0  0
   -1.1370  -12.2766    0.0000 C   0  0  0  0  0  0  0  0  0  0  0  0
   -1.7772  -12.7969    0.0000 C   0  0  0  0  0  0  0  0  0  0  0  0
   -1.6466  -13.6114    0.0000 C   0  0  0  0  0  0  0  0  0  0  0  0
   -2.2868  -14.1316    0.0000 C   0  0  0  0  0  0  0  0  0  0  0  0
   -2.1564  -14.9464    0.0000 C   0  0  0  0  0  0  0  0  0  0  0  0
   -2.7965  -15.4668    0.0000 C   0  0  0  0  0  0  0  0  0  0  0  0
   -2.6660  -16.2814    0.0000 C   0  0  0  0  0  0  0  0  0  0  0  0
   -3.3064  -16.8017    0.0000 C   0  0  0  0  0  0  0  0  0  0  0  0
   -3.1758  -17.6163    0.0000 C   0  0  0  0  0  0  0  0  0  0  0  0
   -3.8161  -18.1366    0.0000 C   0  0  0  0  0  0  0  0  0  0  0  0
   -3.6854  -18.9512    0.0000 C   0  0  0  0  0  0  0  0  0  0  0  0
   -4.3258  -19.4716    0.0000 C   0  0  0  0  0  0  0  0  0  0  0  0
   -4.1952  -20.2862    0.0000 C   0  0  0  0  0  0  0  0  0  0  0  0
   -4.9160  -20.6875    0.0000 C   0  0  0  0  0  0  0  0  0  0  0  0
   -4.9160  -21.5123    0.0000 C   0  0  0  0  0  0  0  0  0  0  0  0
   -2.0382  -11.1676    0.0000 O   0  0  0  0  0  0  0  0  0  0  0  0
   -0.3705    7.5474    0.0000 O   0  0  0  0  0  0  0  0  0  0  0  0
    0.2573   12.6611    0.0000 C   0  0  0  0  0  0  0  0  0  0  0  0
    0.8975   13.1814    0.0000 O   0  0  0  0  0  0  0  0  0  0  0  0
   -0.5133   12.9555    0.0000 O   0  0  0  0  0  0  0  0  0  0  0  0
    1.6682   12.8871    0.0000 O   0  0  0  0  0  0  0  0  0  0  0  0
    2.7001   10.9638    0.0000 C   0  0  0  0  0  0  0  0  0  0  0  0
    2.0598   10.4432    0.0000 C   0  0  0  0  0  0  0  0  0  0  0  0
    2.1903    9.6288    0.0000 C   0  0  0  0  0  0  0  0  0  0  0  0
    2.9610    9.3345    0.0000 C   0  0  0  0  0  0  0  0  0  0  0  0
    3.6013    9.8548    0.0000 C   0  0  0  0  0  0  0  0  0  0  0  0
    3.4707   10.6694    0.0000 C   0  0  0  0  0  0  0  0  0  0  0  0
    4.1453   13.3788    0.0000 O   0  0  0  0  0  0  0  0  0  0  0  0
    1.9386   13.4619    0.0000 C   0  0  0  0  0  0  0  0  0  0  0  0
    1.5124   14.1682    0.0000 C   0  0  0  0  0  0  0  0  0  0  0  0
    2.0526   14.7919    0.0000 C   0  0  0  0  0  0  0  0  0  0  0  0
    4.2413   13.6734    0.0000 C   0  0  0  0  0  0  0  0  0  0  0  0
    4.9795   13.2749    0.0000 C   0  0  0  0  0  0  0  0  0  0  0  0
    4.9795   12.4499    0.0000 C   0  0  0  0  0  0  0  0  0  0  0  0
    5.7174   12.0514    0.0000 C   0  0  0  0  0  0  0  0  0  0  0  0
    6.4239   12.4776    0.0000 C   0  0  0  0  0  0  0  0  0  0  0  0
    6.4239   13.3024    0.0000 C   0  0  0  0  0  0  0  0  0  0  0  0
    5.6856   13.7011    0.0000 C   0  0  0  0  0  0  0  0  0  0  0  0
    7.1462   12.0787    0.0000 O   0  0  0  0  0  0  0  0  0  0  0  0
    4.2095   16.1480    0.0000 O   0  0  0  0  0  0  0  0  0  0  0  0
    5.6382   17.0005    0.0000 C   0  0  0  0  0  0  0  0  0  0  0  0
    4.9160   16.5742    0.0000 C   0  0  0  0  0  0  0  0  0  0  0  0
    4.1936   16.9728    0.0000 C   0  0  0  0  0  0  0  0  0  0  0  0
    3.4872   16.5467    0.0000 O   0  0  0  0  0  0  0  0  0  0  0  0
    4.1936   17.7979    0.0000 O   0  0  0  0  0  0  0  0  0  0  0  0
    7.7891   15.8044    0.0000 O   0  0  0  0  0  0  0  0  0  0  0  0
    8.4666   17.7339    0.0000 C   0  0  0  0  0  0  0  0  0  0  0  0
    9.2137   18.0838    0.0000 C   0  0  0  0  0  0  0  0  0  0  0  0
    9.7775   17.4814    0.0000 C   0  0  0  0  0  0  0  0  0  0  0  0
    9.3788   16.7593    0.0000 N   0  0  0  0  0  0  0  0  0  0  0  0
    8.5687   16.9151    0.0000 C   0  0  0  0  0  0  0  0  0  0  0  0
   10.5811   17.6685    0.0000 N   0  0  0  0  0  0  0  0  0  0  0  0
   10.8208   18.4579    0.0000 C   0  0  0  0  0  0  0  0  0  0  0  0
   10.2571   19.0602    0.0000 C   0  0  0  0  0  0  0  0  0  0  0  0
    9.4536   18.8732    0.0000 C   0  0  0  0  0  0  0  0  0  0  0  0
    7.7236   19.2023    0.0000 H   0  0  0  0  0  0  0  0  0  0  0  0
    8.6604   18.6853    0.0000 H   0  0  0  0  0  0  0  0  0  0  0  0
    7.0174   18.7762    0.0000 H   0  0  0  0  0  0  0  0  0  0  0  0
    5.7027   19.4172    0.0000 H   0  0  0  0  0  0  0  0  0  0  0  0
    5.2145   18.9494    0.0000 H   0  0  0  0  0  0  0  0  0  0  0  0
    3.3585   19.7514    0.0000 H   0  0  0  0  0  0  0  0  0  0  0  0
    4.2692   20.2999    0.0000 H   0  0  0  0  0  0  0  0  0  0  0  0
    4.0823   20.9843    0.0000 H   0  0  0  0  0  0  0  0  0  0  0  0
    5.6491   21.9392    0.0000 H   0  0  0  0  0  0  0  0  0  0  0  0
    7.2974   19.1813    0.0000 H   0  0  0  0  0  0  0  0  0  0  0  0
    5.7308   18.2262    0.0000 H   0  0  0  0  0  0  0  0  0  0  0  0
    7.9230   20.4820    0.0000 H   0  0  0  0  0  0  0  0  0  0  0  0
    3.6057   16.9951    0.0000 H   0  0  0  0  0  0  0  0  0  0  0  0
    3.1081   17.4304    0.0000 H   0  0  0  0  0  0  0  0  0  0  0  0
    1.4124   19.3348    0.0000 H   0  0  0  0  0  0  0  0  0  0  0  0
    0.9284   18.8668    0.0000 H   0  0  0  0  0  0  0  0  0  0  0  0
   -2.1487   18.9391    0.0000 H   0  0  0  0  0  0  0  0  0  0  0  0
   -2.8694   19.2524    0.0000 H   0  0  0  0  0  0  0  0  0  0  0  0
   -3.3578   18.7844    0.0000 H   0  0  0  0  0  0  0  0  0  0  0  0
   -5.2136   19.5866    0.0000 H   0  0  0  0  0  0  0  0  0  0  0  0
   -4.3029   20.1350    0.0000 H   0  0  0  0  0  0  0  0  0  0  0  0
   -2.8465   18.0611    0.0000 H   0  0  0  0  0  0  0  0  0  0  0  0
   -1.2612   19.0117    0.0000 H   0  0  0  0  0  0  0  0  0  0  0  0
   -1.2736   20.8727    0.0000 H   0  0  0  0  0  0  0  0  0  0  0  0
   -2.9282   21.7742    0.0000 H   0  0  0  0  0  0  0  0  0  0  0  0
   -4.4898   20.8193    0.0000 H   0  0  0  0  0  0  0  0  0  0  0  0
   -4.9665   16.8301    0.0000 H   0  0  0  0  0  0  0  0  0  0  0  0
   -5.8882   18.7185    0.0000 H   0  0  0  0  0  0  0  0  0  0  0  0
   -5.4953   19.1600    0.0000 H   0  0  0  0  0  0  0  0  0  0  0  0
   -6.4373   19.6815    0.0000 H   0  0  0  0  0  0  0  0  0  0  0  0
   -8.0714   18.4618    0.0000 H   0  0  0  0  0  0  0  0  0  0  0  0
   -8.0830   19.5384    0.0000 H   0  0  0  0  0  0  0  0  0  0  0  0
   -8.0897   20.3514    0.0000 H   0  0  0  0  0  0  0  0  0  0  0  0
   -7.1846   20.9045    0.0000 H   0  0  0  0  0  0  0  0  0  0  0  0
   -5.6156   19.7862    0.0000 H   0  0  0  0  0  0  0  0  0  0  0  0
   -4.9095   21.0365    0.0000 H   0  0  0  0  0  0  0  0  0  0  0  0
   -7.2191   22.4691    0.0000 H   0  0  0  0  0  0  0  0  0  0  0  0
   -8.0432   20.9762    0.0000 H   0  0  0  0  0  0  0  0  0  0  0  0
   -7.1555   19.1696    0.0000 H   0  0  0  0  0  0  0  0  0  0  0  0
   -7.4947   18.6339    0.0000 H   0  0  0  0  0  0  0  0  0  0  0  0
   -7.3134   19.4037    0.0000 H   0  0  0  0  0  0  0  0  0  0  0  0
   -8.1117   20.1163    0.0000 H   0  0  0  0  0  0  0  0  0  0  0  0
   -8.7273   20.6657    0.0000 H   0  0  0  0  0  0  0  0  0  0  0  0
   -9.7435   20.3306    0.0000 H   0  0  0  0  0  0  0  0  0  0  0  0
  -10.1536   20.8264    0.0000 H   0  0  0  0  0  0  0  0  0  0  0  0
   -9.9269   18.8196    0.0000 H   0  0  0  0  0  0  0  0  0  0  0  0
  -10.3349   16.6748    0.0000 H   0  0  0  0  0  0  0  0  0  0  0  0
   -8.2241   15.4522    0.0000 H   0  0  0  0  0  0  0  0  0  0  0  0
   -8.0261   15.9918    0.0000 H   0  0  0  0  0  0  0  0  0  0  0  0
   -6.4188   18.0316    0.0000 H   0  0  0  0  0  0  0  0  0  0  0  0
   -5.4820   17.5146    0.0000 H   0  0  0  0  0  0  0  0  0  0  0  0
   -5.6552   15.4934    0.0000 H   0  0  0  0  0  0  0  0  0  0  0  0
   -4.7391   16.0462    0.0000 H   0  0  0  0  0  0  0  0  0  0  0  0
   -4.9902   18.0593    0.0000 H   0  0  0  0  0  0  0  0  0  0  0  0
   -4.0534   17.5423    0.0000 H   0  0  0  0  0  0  0  0  0  0  0  0
   -4.2266   15.5211    0.0000 H   0  0  0  0  0  0  0  0  0  0  0  0
   -3.3104   16.0738    0.0000 H   0  0  0  0  0  0  0  0  0  0  0  0
   -3.5599   18.0013    0.0000 H   0  0  0  0  0  0  0  0  0  0  0  0
   -1.1937   16.5231    0.0000 H   0  0  0  0  0  0  0  0  0  0  0  0
   -1.2054   17.5863    0.0000 H   0  0  0  0  0  0  0  0  0  0  0  0
   -6.2449   15.2313    0.0000 H   0  0  0  0  0  0  0  0  0  0  0  0
   -8.5381   16.7530    0.0000 H   0  0  0  0  0  0  0  0  0  0  0  0
   -9.4337   15.1305    0.0000 H   0  0  0  0  0  0  0  0  0  0  0  0
   -9.4543   16.2003    0.0000 H   0  0  0  0  0  0  0  0  0  0  0  0
  -10.4223   15.0716    0.0000 H   0  0  0  0  0  0  0  0  0  0  0  0
  -10.9998   17.0161    0.0000 H   0  0  0  0  0  0  0  0  0  0  0  0
  -11.2402   15.1785    0.0000 H   0  0  0  0  0  0  0  0  0  0  0  0
  -11.6505   16.1667    0.0000 H   0  0  0  0  0  0  0  0  0  0  0  0
  -10.1065   14.3097    0.0000 H   0  0  0  0  0  0  0  0  0  0  0  0
   -8.3945   15.0195    0.0000 H   0  0  0  0  0  0  0  0  0  0  0  0
   -9.0456   14.1704    0.0000 H   0  0  0  0  0  0  0  0  0  0  0  0
   -1.6259   16.5369    0.0000 H   0  0  0  0  0  0  0  0  0  0  0  0
    0.2273   16.5369    0.0000 H   0  0  0  0  0  0  0  0  0  0  0  0
   -0.6993   16.0019    0.0000 H   0  0  0  0  0  0  0  0  0  0  0  0
   -0.9275   19.6692    0.0000 H   0  0  0  0  0  0  0  0  0  0  0  0
   -0.0167   20.2176    0.0000 H   0  0  0  0  0  0  0  0  0  0  0  0
    1.4378   18.2385    0.0000 H   0  0  0  0  0  0  0  0  0  0  0  0
    0.5306   17.2179    0.0000 H   0  0  0  0  0  0  0  0  0  0  0  0
    1.4878   15.6310    0.0000 H   0  0  0  0  0  0  0  0  0  0  0  0
    0.5511   16.1481    0.0000 H   0  0  0  0  0  0  0  0  0  0  0  0
    1.2471   15.7671    0.0000 H   0  0  0  0  0  0  0  0  0  0  0  0
    3.1003   15.7671    0.0000 H   0  0  0  0  0  0  0  0  0  0  0  0
    2.1737   15.2321    0.0000 H   0  0  0  0  0  0  0  0  0  0  0  0
    2.9167   15.6585    0.0000 H   0  0  0  0  0  0  0  0  0  0  0  0
    3.8121   17.2811    0.0000 H   0  0  0  0  0  0  0  0  0  0  0  0
    3.8328   16.2113    0.0000 H   0  0  0  0  0  0  0  0  0  0  0  0
    6.3887   14.7928    0.0000 H   0  0  0  0  0  0  0  0  0  0  0  0
    6.5596   16.7194    0.0000 H   0  0  0  0  0  0  0  0  0  0  0  0
    5.7915   14.4449    0.0000 H   0  0  0  0  0  0  0  0  0  0  0  0
    5.1757   13.9771    0.0000 H   0  0  0  0  0  0  0  0  0  0  0  0
    3.7335   14.0515    0.0000 H   0  0  0  0  0  0  0  0  0  0  0  0
    4.0544   11.7929    0.0000 H   0  0  0  0  0  0  0  0  0  0  0  0
    3.5690   11.3967    0.0000 H   0  0  0  0  0  0  0  0  0  0  0  0
    1.3143   10.5801    0.0000 H   0  0  0  0  0  0  0  0  0  0  0  0
    0.5572   10.7900    0.0000 H   0  0  0  0  0  0  0  0  0  0  0  0
   -1.2519   11.7079    0.0000 H   0  0  0  0  0  0  0  0  0  0  0  0
   -1.0827   10.6514    0.0000 H   0  0  0  0  0  0  0  0  0  0  0  0
    0.8778   10.1299    0.0000 H   0  0  0  0  0  0  0  0  0  0  0  0
    0.0475    9.4551    0.0000 H   0  0  0  0  0  0  0  0  0  0  0  0
   -1.7616   10.3730    0.0000 H   0  0  0  0  0  0  0  0  0  0  0  0
   -1.5924    9.3165    0.0000 H   0  0  0  0  0  0  0  0  0  0  0  0
    0.3681    8.7949    0.0000 H   0  0  0  0  0  0  0  0  0  0  0  0
   -0.4623    8.1201    0.0000 H   0  0  0  0  0  0  0  0  0  0  0  0
   -2.1914    9.0075    0.0000 H   0  0  0  0  0  0  0  0  0  0  0  0
   -2.7810    7.7031    0.0000 H   0  0  0  0  0  0  0  0  0  0  0  0
   -2.6118    6.6466    0.0000 H   0  0  0  0  0  0  0  0  0  0  0  0
   -0.6513    6.1252    0.0000 H   0  0  0  0  0  0  0  0  0  0  0  0
   -1.4815    5.4503    0.0000 H   0  0  0  0  0  0  0  0  0  0  0  0
   -1.1609    4.7901    0.0000 H   0  0  0  0  0  0  0  0  0  0  0  0
   -1.9912    4.1152    0.0000 H   0  0  0  0  0  0  0  0  0  0  0  0
   -3.8098    5.0074    0.0000 H   0  0  0  0  0  0  0  0  0  0  0  0
   -3.6045    3.9452    0.0000 H   0  0  0  0  0  0  0  0  0  0  0  0
   -1.6747    2.2965    0.0000 H   0  0  0  0  0  0  0  0  0  0  0  0
   -2.5130    1.7210    0.0000 H   0  0  0  0  0  0  0  0  0  0  0  0
   -4.2659    2.6389    0.0000 H   0  0  0  0  0  0  0  0  0  0  0  0
   -4.0919    1.5831    0.0000 H   0  0  0  0  0  0  0  0  0  0  0  0
   -4.7696    1.3015    0.0000 H   0  0  0  0  0  0  0  0  0  0  0  0
   -4.5954    0.2458    0.0000 H   0  0  0  0  0  0  0  0  0  0  0  0
   -2.6327   -0.2667    0.0000 H   0  0  0  0  0  0  0  0  0  0  0  0
   -3.4601   -0.9453    0.0000 H   0  0  0  0  0  0  0  0  0  0  0  0
   -3.1366   -1.6039    0.0000 H   0  0  0  0  0  0  0  0  0  0  0  0
   -3.9640   -2.2825    0.0000 H   0  0  0  0  0  0  0  0  0  0  0  0
   -5.7770   -1.3724    0.0000 H   0  0  0  0  0  0  0  0  0  0  0  0
   -5.6031   -2.4282    0.0000 H   0  0  0  0  0  0  0  0  0  0  0  0
   -6.2809   -2.7098    0.0000 H   0  0  0  0  0  0  0  0  0  0  0  0
   -6.1069   -3.7656    0.0000 H   0  0  0  0  0  0  0  0  0  0  0  0
   -4.1440   -4.2783    0.0000 H   0  0  0  0  0  0  0  0  0  0  0  0
   -4.9714   -4.9569    0.0000 H   0  0  0  0  0  0  0  0  0  0  0  0
   -4.6478   -5.6156    0.0000 H   0  0  0  0  0  0  0  0  0  0  0  0
   -5.4751   -6.2942    0.0000 H   0  0  0  0  0  0  0  0  0  0  0  0
   -7.2882   -5.3843    0.0000 H   0  0  0  0  0  0  0  0  0  0  0  0
   -7.1143   -6.4400    0.0000 H   0  0  0  0  0  0  0  0  0  0  0  0
   -7.7921   -6.7214    0.0000 H   0  0  0  0  0  0  0  0  0  0  0  0
   -7.6181   -7.7773    0.0000 H   0  0  0  0  0  0  0  0  0  0  0  0
   -5.6553   -8.2900    0.0000 H   0  0  0  0  0  0  0  0  0  0  0  0
   -6.4826   -8.9686    0.0000 H   0  0  0  0  0  0  0  0  0  0  0  0
   -6.1591   -9.6273    0.0000 H   0  0  0  0  0  0  0  0  0  0  0  0
   -6.9865  -10.3058    0.0000 H   0  0  0  0  0  0  0  0  0  0  0  0
   -8.7996   -9.3961    0.0000 H   0  0  0  0  0  0  0  0  0  0  0  0
   -8.6255  -10.4519    0.0000 H   0  0  0  0  0  0  0  0  0  0  0  0
   -9.3033  -10.7330    0.0000 H   0  0  0  0  0  0  0  0  0  0  0  0
   -9.1294  -11.7888    0.0000 H   0  0  0  0  0  0  0  0  0  0  0  0
   -7.1666  -12.3016    0.0000 H   0  0  0  0  0  0  0  0  0  0  0  0
   -7.9939  -12.9802    0.0000 H   0  0  0  0  0  0  0  0  0  0  0  0
   -7.6703  -13.6388    0.0000 H   0  0  0  0  0  0  0  0  0  0  0  0
   -8.4976  -14.3173    0.0000 H   0  0  0  0  0  0  0  0  0  0  0  0
  -10.3108  -13.4077    0.0000 H   0  0  0  0  0  0  0  0  0  0  0  0
  -10.1368  -14.4635    0.0000 H   0  0  0  0  0  0  0  0  0  0  0  0
  -10.8146  -14.7450    0.0000 H   0  0  0  0  0  0  0  0  0  0  0  0
  -10.6406  -15.8007    0.0000 H   0  0  0  0  0  0  0  0  0  0  0  0
   -8.6778  -16.3132    0.0000 H   0  0  0  0  0  0  0  0  0  0  0  0
   -9.5051  -16.9918    0.0000 H   0  0  0  0  0  0  0  0  0  0  0  0
   -9.1814  -17.6505    0.0000 H   0  0  0  0  0  0  0  0  0  0  0  0
  -10.0088  -18.3291    0.0000 H   0  0  0  0  0  0  0  0  0  0  0  0
  -11.8221  -17.4191    0.0000 H   0  0  0  0  0  0  0  0  0  0  0  0
  -11.6481  -18.4749    0.0000 H   0  0  0  0  0  0  0  0  0  0  0  0
   -9.7405  -19.9571    0.0000 H   0  0  0  0  0  0  0  0  0  0  0  0
   -8.9132  -19.2785    0.0000 H   0  0  0  0  0  0  0  0  0  0  0  0
   -8.2753  -18.7553    0.0000 H   0  0  0  0  0  0  0  0  0  0  0  0
   -8.4493  -17.6995    0.0000 H   0  0  0  0  0  0  0  0  0  0  0  0
   -7.7716  -17.4179    0.0000 H   0  0  0  0  0  0  0  0  0  0  0  0
   -7.9457  -16.3622    0.0000 H   0  0  0  0  0  0  0  0  0  0  0  0
   -9.9084  -15.8496    0.0000 H   0  0  0  0  0  0  0  0  0  0  0  0
   -9.0810  -15.1711    0.0000 H   0  0  0  0  0  0  0  0  0  0  0  0
   -9.4045  -14.5126    0.0000 H   0  0  0  0  0  0  0  0  0  0  0  0
   -8.5773  -13.8340    0.0000 H   0  0  0  0  0  0  0  0  0  0  0  0
   -6.7640  -14.7435    0.0000 H   0  0  0  0  0  0  0  0  0  0  0  0
   -6.9381  -13.6878    0.0000 H   0  0  0  0  0  0  0  0  0  0  0  0
   -6.2604  -13.4063    0.0000 H   0  0  0  0  0  0  0  0  0  0  0  0
   -6.4343  -12.3506    0.0000 H   0  0  0  0  0  0  0  0  0  0  0  0
   -8.3970  -11.8380    0.0000 H   0  0  0  0  0  0  0  0  0  0  0  0
   -7.5698  -11.1595    0.0000 H   0  0  0  0  0  0  0  0  0  0  0  0
   -7.8933  -10.5008    0.0000 H   0  0  0  0  0  0  0  0  0  0  0  0
   -7.0660   -9.8222    0.0000 H   0  0  0  0  0  0  0  0  0  0  0  0
   -5.2529  -10.7320    0.0000 H   0  0  0  0  0  0  0  0  0  0  0  0
   -5.4269   -9.6762    0.0000 H   0  0  0  0  0  0  0  0  0  0  0  0
   -4.7490   -9.3949    0.0000 H   0  0  0  0  0  0  0  0  0  0  0  0
   -4.9230   -8.3391    0.0000 H   0  0  0  0  0  0  0  0  0  0  0  0
   -6.8858   -7.8265    0.0000 H   0  0  0  0  0  0  0  0  0  0  0  0
   -6.0586   -7.1479    0.0000 H   0  0  0  0  0  0  0  0  0  0  0  0
   -6.3821   -6.4893    0.0000 H   0  0  0  0  0  0  0  0  0  0  0  0
   -5.5549   -5.8107    0.0000 H   0  0  0  0  0  0  0  0  0  0  0  0
   -3.7417   -6.7202    0.0000 H   0  0  0  0  0  0  0  0  0  0  0  0
   -3.9157   -5.6645    0.0000 H   0  0  0  0  0  0  0  0  0  0  0  0
   -3.2379   -5.3833    0.0000 H   0  0  0  0  0  0  0  0  0  0  0  0
   -3.4118   -4.3276    0.0000 H   0  0  0  0  0  0  0  0  0  0  0  0
   -5.2427   -3.5685    0.0000 H   0  0  0  0  0  0  0  0  0  0  0  0
   -4.1299   -3.1500    0.0000 H   0  0  0  0  0  0  0  0  0  0  0  0
   -3.4133   -5.6969    0.0000 H   0  0  0  0  0  0  0  0  0  0  0  0
   -2.3576   -5.5229    0.0000 H   0  0  0  0  0  0  0  0  0  0  0  0
   -1.8448   -3.5602    0.0000 H   0  0  0  0  0  0  0  0  0  0  0  0
   -1.1663   -4.3876    0.0000 H   0  0  0  0  0  0  0  0  0  0  0  0
   -0.5074   -4.0642    0.0000 H   0  0  0  0  0  0  0  0  0  0  0  0
    0.1710   -4.8916    0.0000 H   0  0  0  0  0  0  0  0  0  0  0  0
   -0.7390   -6.7045    0.0000 H   0  0  0  0  0  0  0  0  0  0  0  0
    0.3168   -6.5305    0.0000 H   0  0  0  0  0  0  0  0  0  0  0  0
    0.5981   -7.2082    0.0000 H   0  0  0  0  0  0  0  0  0  0  0  0
    1.6539   -7.0343    0.0000 H   0  0  0  0  0  0  0  0  0  0  0  0
    2.1667   -5.0715    0.0000 H   0  0  0  0  0  0  0  0  0  0  0  0
    2.8453   -5.8988    0.0000 H   0  0  0  0  0  0  0  0  0  0  0  0
    0.6729   -6.8493    0.0000 H   0  0  0  0  0  0  0  0  0  0  0  0
    0.8421   -7.9058    0.0000 H   0  0  0  0  0  0  0  0  0  0  0  0
    2.8026   -8.4275    0.0000 H   0  0  0  0  0  0  0  0  0  0  0  0
    1.9721   -9.1023    0.0000 H   0  0  0  0  0  0  0  0  0  0  0  0
    0.2430   -8.2147    0.0000 H   0  0  0  0  0  0  0  0  0  0  0  0
   -0.3465   -9.5192    0.0000 H   0  0  0  0  0  0  0  0  0  0  0  0
   -0.1773  -10.5757    0.0000 H   0  0  0  0  0  0  0  0  0  0  0  0
    1.7832  -11.0972    0.0000 H   0  0  0  0  0  0  0  0  0  0  0  0
    0.9528  -11.7720    0.0000 H   0  0  0  0  0  0  0  0  0  0  0  0
   -0.0260  -10.1793    0.0000 H   0  0  0  0  0  0  0  0  0  0  0  0
   -1.2416  -12.2365    0.0000 H   0  0  0  0  0  0  0  0  0  0  0  0
   -0.7829   -9.9696    0.0000 H   0  0  0  0  0  0  0  0  0  0  0  0
   -0.1374  -12.6584    0.0000 H   0  0  0  0  0  0  0  0  0  0  0  0
   -0.9678  -13.3331    0.0000 H   0  0  0  0  0  0  0  0  0  0  0  0
   -2.7768  -12.4153    0.0000 H   0  0  0  0  0  0  0  0  0  0  0  0
   -2.6075  -13.4718    0.0000 H   0  0  0  0  0  0  0  0  0  0  0  0
   -0.6470  -13.9931    0.0000 H   0  0  0  0  0  0  0  0  0  0  0  0
   -1.4774  -14.6679    0.0000 H   0  0  0  0  0  0  0  0  0  0  0  0
   -3.2864  -13.7498    0.0000 H   0  0  0  0  0  0  0  0  0  0  0  0
   -3.1172  -14.8063    0.0000 H   0  0  0  0  0  0  0  0  0  0  0  0
   -1.1568  -15.3281    0.0000 H   0  0  0  0  0  0  0  0  0  0  0  0
   -1.9871  -16.0029    0.0000 H   0  0  0  0  0  0  0  0  0  0  0  0
   -3.7961  -15.0852    0.0000 H   0  0  0  0  0  0  0  0  0  0  0  0
   -3.6268  -16.1417    0.0000 H   0  0  0  0  0  0  0  0  0  0  0  0
   -1.6664  -16.6632    0.0000 H   0  0  0  0  0  0  0  0  0  0  0  0
   -2.4969  -17.3379    0.0000 H   0  0  0  0  0  0  0  0  0  0  0  0
   -4.3060  -16.4200    0.0000 H   0  0  0  0  0  0  0  0  0  0  0  0
   -4.1367  -17.4766    0.0000 H   0  0  0  0  0  0  0  0  0  0  0  0
   -2.1762  -17.9980    0.0000 H   0  0  0  0  0  0  0  0  0  0  0  0
   -3.0066  -18.6728    0.0000 H   0  0  0  0  0  0  0  0  0  0  0  0
   -4.8157  -17.7550    0.0000 H   0  0  0  0  0  0  0  0  0  0  0  0
   -4.6463  -18.8116    0.0000 H   0  0  0  0  0  0  0  0  0  0  0  0
   -2.6858  -19.3328    0.0000 H   0  0  0  0  0  0  0  0  0  0  0  0
   -3.5161  -20.0077    0.0000 H   0  0  0  0  0  0  0  0  0  0  0  0
   -5.3254  -19.0899    0.0000 H   0  0  0  0  0  0  0  0  0  0  0  0
   -5.1561  -20.1465    0.0000 H   0  0  0  0  0  0  0  0  0  0  0  0
   -3.2326  -20.7535    0.0000 H   0  0  0  0  0  0  0  0  0  0  0  0
   -4.1652  -21.3558    0.0000 H   0  0  0  0  0  0  0  0  0  0  0  0
   -5.8384  -20.1453    0.0000 H   0  0  0  0  0  0  0  0  0  0  0  0
   -5.8447  -21.2189    0.0000 H   0  0  0  0  0  0  0  0  0  0  0  0
   -5.8426  -22.0473    0.0000 H   0  0  0  0  0  0  0  0  0  0  0  0
   -3.9894  -22.0473    0.0000 H   0  0  0  0  0  0  0  0  0  0  0  0
   -4.9160  -22.5823    0.0000 H   0  0  0  0  0  0  0  0  0  0  0  0
    1.7729   12.8472    0.0000 H   0  0  0  0  0  0  0  0  0  0  0  0
    2.8694    9.9073    0.0000 H   0  0  0  0  0  0  0  0  0  0  0  0
    1.0601   10.8248    0.0000 H   0  0  0  0  0  0  0  0  0  0  0  0
    1.2295    9.7683    0.0000 H   0  0  0  0  0  0  0  0  0  0  0  0
    1.3600    8.9539    0.0000 H   0  0  0  0  0  0  0  0  0  0  0  0
    2.3595    8.5723    0.0000 H   0  0  0  0  0  0  0  0  0  0  0  0
    3.1302    8.2780    0.0000 H   0  0  0  0  0  0  0  0  0  0  0  0
    3.9606    8.9528    0.0000 H   0  0  0  0  0  0  0  0  0  0  0  0
    4.6009    9.4731    0.0000 H   0  0  0  0  0  0  0  0  0  0  0  0
    4.4316   10.5297    0.0000 H   0  0  0  0  0  0  0  0  0  0  0  0
    4.3011   11.3442    0.0000 H   0  0  0  0  0  0  0  0  0  0  0  0
    3.3016   11.7259    0.0000 H   0  0  0  0  0  0  0  0  0  0  0  0
    1.5223   12.4762    0.0000 H   0  0  0  0  0  0  0  0  0  0  0  0
    0.8713   13.3853    0.0000 H   0  0  0  0  0  0  0  0  0  0  0  0
    0.4463   14.2595    0.0000 H   0  0  0  0  0  0  0  0  0  0  0  0
    1.1098   15.1596    0.0000 H   0  0  0  0  0  0  0  0  0  0  0  0
    1.8101   15.8340    0.0000 H   0  0  0  0  0  0  0  0  0  0  0  0
    2.8711   15.4811    0.0000 H   0  0  0  0  0  0  0  0  0  0  0  0
    3.3224   13.1252    0.0000 H   0  0  0  0  0  0  0  0  0  0  0  0
    4.2642   12.6036    0.0000 H   0  0  0  0  0  0  0  0  0  0  0  0
    4.0932   11.9212    0.0000 H   0  0  0  0  0  0  0  0  0  0  0  0
    5.7420   11.0197    0.0000 H   0  0  0  0  0  0  0  0  0  0  0  0
    7.3102   13.8311    0.0000 H   0  0  0  0  0  0  0  0  0  0  0  0
    5.6609   14.7328    0.0000 H   0  0  0  0  0  0  0  0  0  0  0  0
    7.1640   11.1419    0.0000 H   0  0  0  0  0  0  0  0  0  0  0  0
    6.1687   17.9297    0.0000 H   0  0  0  0  0  0  0  0  0  0  0  0
    4.8761   17.7516    0.0000 H   0  0  0  0  0  0  0  0  0  0  0  0
    4.9315   15.5043    0.0000 H   0  0  0  0  0  0  0  0  0  0  0  0
    3.9986   16.0236    0.0000 H   0  0  0  0  0  0  0  0  0  0  0  0
    2.6669   16.9996    0.0000 H   0  0  0  0  0  0  0  0  0  0  0  0
    9.7965   15.8678    0.0000 H   0  0  0  0  0  0  0  0  0  0  0  0
    7.8153   16.2098    0.0000 H   0  0  0  0  0  0  0  0  0  0  0  0
   11.8259   18.6919    0.0000 H   0  0  0  0  0  0  0  0  0  0  0  0
   10.5571   20.0476    0.0000 H   0  0  0  0  0  0  0  0  0  0  0  0
    8.7485   19.6267    0.0000 H   0  0  0  0  0  0  0  0  0  0  0  0
  1243  1  0  0  0  0
  1252  1  0  0  0  0
  1253  1  0  0  0  0
  2  1  1  0  0  0  0
  2  3  1  0  0  0  0
  2 90  1  0  0  0  0
  2254  1  6  0  0  0
  3  4  1  0  0  0  0
  3255  1  0  0  0  0
  4  5  1  0  0  0  0
  4 89  2  0  0  0  0
  5  6  1  0  0  0  0
  5 14  1  0  0  0  0
  5256  1  6  0  0  0
  6  7  1  0  0  0  0
  6257  1  0  0  0  0
  6258  1  0  0  0  0
  7  8  2  0  0  0  0
  7 12  1  0  0  0  0
  8  9  1  0  0  0  0
  8259  1  0  0  0  0
  9 10  2  0  0  0  0
  9260  1  0  0  0  0
 10 13  1  0  0  0  0
 11 10  1  0  0  0  0
 11261  1  0  0  0  0
 12 11  2  0  0  0  0
 12262  1  0  0  0  0
 13263  1  0  0  0  0
 14 15  1  0  0  0  0
 14264  1  0  0  0  0
 15 16  1  0  0  0  0
 15 88  2  0  0  0  0
 16 17  1  0  0  0  0
 16 84  1  0  0  0  0
 16265  1  1  0  0  0
 17 18  1  0  0  0  0
 17266  1  0  0  0  0
 18 19  1  0  0  0  0
 18 83  2  0  0  0  0
 19 20  1  0  0  0  0
 19 79  1  0  0  0  0
 19267  1  6  0  0  0
 20 21  1  0  0  0  0
 20 78  1  0  0  0  0
 21 22  2  0  0  0  0
 23 21  1  0  0  0  0
 23 24  1  0  0  0  0
 23 67  1  0  0  0  0
 23268  1  1  0  0  0
 24 25  1  0  0  0  0
 24269  1  0  0  0  0
 25 26  2  0  0  0  0
 25 27  1  0  0  0  0
 27 28  1  0  0  0  0
 27 35  1  0  0  0  0
 27270  1  6  0  0  0
 28 29  1  0  0  0  0
 28271  1  0  0  0  0
 28272  1  0  0  0  0
 29 30  2  0  0  0  0
 29 34  1  0  0  0  0
 30 31  1  0  0  0  0
 30273  1  0  0  0  0
 31 32  2  0  0  0  0
 31274  1  0  0  0  0
 32275  1  0  0  0  0
 33 32  1  0  0  0  0
 33276  1  0  0  0  0
 34 33  2  0  0  0  0
 34277  1  0  0  0  0
 35 36  1  0  0  0  0
 35278  1  0  0  0  0
 36 37  2  0  0  0  0
 36 38  1  0  0  0  0
 38 39  1  0  0  0  0
 38 46  1  0  0  0  0
 38279  1  6  0  0  0
 39 40  1  0  0  0  0
 39280  1  0  0  0  0
 39281  1  0  0  0  0
 40 41  1  0  0  0  0
 40282  1  0  0  0  0
 40283  1  0  0  0  0
 41 42  1  0  0  0  0
 41284  1  0  0  0  0
 41285  1  0  0  0  0
 42 43  1  0  0  0  0
 42286  1  0  0  0  0
 43 44  2  0  0  0  0
 43 45  1  0  0  0  0
 44287  1  0  0  0  0
 45288  1  0  0  0  0
 45289  1  0  0  0  0
 46 47  1  0  0  0  0
 46290  1  0  0  0  0
 47 48  2  0  0  0  0
 47 49  1  0  0  0  0
 49 50  1  0  0  0  0
 49 55  1  0  0  0  0
 49291  1  6  0  0  0
 50 51  1  0  0  0  0
 50292  1  0  0  0  0
 50293  1  0  0  0  0
 51 52  1  0  0  0  0
 51294  1  0  0  0  0
 51295  1  0  0  0  0
 52 53  1  0  0  0  0
 52 54  2  0  0  0  0
 53296  1  0  0  0  0
 55 56  1  0  0  0  0
 55297  1  0  0  0  0
 56 57  1  0  0  0  0
 56 77  2  0  0  0  0
 57 74  1  0  0  0  0
 57298  1  6  0  0  0
 58 57  1  0  0  0  0
 58299  1  0  0  0  0
 59 58  1  0  0  0  0
 59 73  2  0  0  0  0
 60 59  1  0  0  0  0
 60 69  1  0  0  0  0
 60300  1  1  0  0  0
 61 60  1  0  0  0  0
 61301  1  0  0  0  0
 61302  1  0  0  0  0
 62 61  1  0  0  0  0
 62303  1  0  0  0  0
 62304  1  0  0  0  0
 63 62  1  0  0  0  0
 63305  1  0  0  0  0
 63306  1  0  0  0  0
 64 63  1  0  0  0  0
 64307  1  0  0  0  0
 64308  1  0  0  0  0
 65 64  1  0  0  0  0
 65309  1  0  0  0  0
 66 65  1  0  0  0  0
 66 68  2  0  0  0  0
 67 66  1  0  0  0  0
 67310  1  0  0  0  0
 67311  1  0  0  0  0
 69 70  1  0  0  0  0
 69312  1  0  0  0  0
 70 71  1  0  0  0  0
 70 72  2  0  0  0  0
 71313  1  0  0  0  0
 71314  1  0  0  0  0
 71315  1  0  0  0  0
 74 75  1  0  0  0  0
 74 76  1  0  0  0  0
 74316  1  0  0  0  0
 75317  1  0  0  0  0
 75318  1  0  0  0  0
 75319  1  0  0  0  0
 76320  1  0  0  0  0
 76321  1  0  0  0  0
 76322  1  0  0  0  0
 78323  1  0  0  0  0
 78324  1  0  0  0  0
 78325  1  0  0  0  0
 79 80  1  0  0  0  0
 79326  1  0  0  0  0
 79327  1  0  0  0  0
 80 81  1  0  0  0  0
 80 82  2  0  0  0  0
 81328  1  0  0  0  0
 84 85  1  0  0  0  0
 84 86  1  0  0  0  0
 84 87  1  0  0  0  0
 85329  1  0  0  0  0
 85330  1  0  0  0  0
 85331  1  0  0  0  0
 86332  1  0  0  0  0
 86333  1  0  0  0  0
 86334  1  0  0  0  0
 87335  1  0  0  0  0
 87336  1  0  0  0  0
 87337  1  0  0  0  0
 90 91  1  0  0  0  0
 90242  2  0  0  0  0
 91 92  1  0  0  0  0
 91338  1  0  0  0  0
 92 93  1  0  0  0  0
 92237  1  0  0  0  0
 92339  1  1  0  0  0
 93 94  1  0  0  0  0
 93236  2  0  0  0  0
 94 95  1  0  0  0  0
 94340  1  0  0  0  0
 95 96  1  0  0  0  0
 95228  1  0  0  0  0
 95341  1  6  0  0  0
 96 97  2  0  0  0  0
 96 98  1  0  0  0  0
 98 99  1  0  0  0  0
 98227  1  0  0  0  0
 99100  1  0  0  0  0
 99225  1  0  0  0  0
 99342  1  1  0  0  0
100101  1  0  0  0  0
100224  2  0  0  0  0
101102  1  0  0  0  0
101343  1  0  0  0  0
102103  1  0  0  0  0
102218  1  0  0  0  0
102344  1  6  0  0  0
103104  1  0  0  0  0
103217  2  0  0  0  0
104105  1  0  0  0  0
104345  1  0  0  0  0
105106  1  0  0  0  0
105214  1  0  0  0  0
105346  1  6  0  0  0
106107  1  0  0  0  0
106347  1  0  0  0  0
106348  1  0  0  0  0
107108  1  0  0  0  0
107349  1  0  0  0  0
107350  1  0  0  0  0
108109  1  0  0  0  0
108351  1  0  0  0  0
108352  1  0  0  0  0
109110  1  0  0  0  0
109353  1  0  0  0  0
109354  1  0  0  0  0
110111  1  0  0  0  0
110355  1  0  0  0  0
111112  1  0  0  0  0
111213  2  0  0  0  0
112113  1  0  0  0  0
112356  1  0  0  0  0
112357  1  0  0  0  0
113114  1  0  0  0  0
113358  1  0  0  0  0
113359  1  0  0  0  0
114115  1  0  0  0  0
115116  1  0  0  0  0
115360  1  0  0  0  0
115361  1  0  0  0  0
116117  1  0  0  0  0
116362  1  0  0  0  0
116363  1  0  0  0  0
118117  1  0  0  0  0
118364  1  0  0  0  0
118365  1  0  0  0  0
119118  1  0  0  0  0
119366  1  0  0  0  0
119367  1  0  0  0  0
120119  1  0  0  0  0
121120  1  0  0  0  0
121368  1  0  0  0  0
121369  1  0  0  0  0
122121  1  0  0  0  0
122370  1  0  0  0  0
122371  1  0  0  0  0
123122  1  0  0  0  0
124123  1  0  0  0  0
124372  1  0  0  0  0
124373  1  0  0  0  0
125124  1  0  0  0  0
125374  1  0  0  0  0
125375  1  0  0  0  0
126125  1  0  0  0  0
127126  1  0  0  0  0
127376  1  0  0  0  0
127377  1  0  0  0  0
128127  1  0  0  0  0
128378  1  0  0  0  0
128379  1  0  0  0  0
129128  1  0  0  0  0
130129  1  0  0  0  0
130380  1  0  0  0  0
130381  1  0  0  0  0
131130  1  0  0  0  0
131382  1  0  0  0  0
131383  1  0  0  0  0
132131  1  0  0  0  0
133132  1  0  0  0  0
133384  1  0  0  0  0
133385  1  0  0  0  0
134133  1  0  0  0  0
134386  1  0  0  0  0
134387  1  0  0  0  0
135134  1  0  0  0  0
136135  1  0  0  0  0
136388  1  0  0  0  0
136389  1  0  0  0  0
137136  1  0  0  0  0
137390  1  0  0  0  0
137391  1  0  0  0  0
138137  1  0  0  0  0
139138  1  0  0  0  0
139392  1  0  0  0  0
139393  1  0  0  0  0
140139  1  0  0  0  0
140394  1  0  0  0  0
140395  1  0  0  0  0
141140  1  0  0  0  0
142141  1  0  0  0  0
142396  1  0  0  0  0
142397  1  0  0  0  0
143142  1  0  0  0  0
143398  1  0  0  0  0
143399  1  0  0  0  0
144143  1  0  0  0  0
145144  1  0  0  0  0
145400  1  0  0  0  0
145401  1  0  0  0  0
146145  1  0  0  0  0
146402  1  0  0  0  0
146403  1  0  0  0  0
147146  1  0  0  0  0
148147  1  0  0  0  0
148404  1  0  0  0  0
148405  1  0  0  0  0
149148  1  0  0  0  0
149406  1  0  0  0  0
149407  1  0  0  0  0
150149  1  0  0  0  0
151150  1  0  0  0  0
151408  1  0  0  0  0
151409  1  0  0  0  0
152151  1  0  0  0  0
152410  1  0  0  0  0
152411  1  0  0  0  0
153152  1  0  0  0  0
154153  1  0  0  0  0
154412  1  0  0  0  0
154413  1  0  0  0  0
155154  1  0  0  0  0
155414  1  0  0  0  0
155415  1  0  0  0  0
156155  1  0  0  0  0
157156  1  0  0  0  0
157416  1  0  0  0  0
157417  1  0  0  0  0
158157  1  0  0  0  0
158418  1  0  0  0  0
158419  1  0  0  0  0
159158  1  0  0  0  0
160159  1  0  0  0  0
160420  1  0  0  0  0
160421  1  0  0  0  0
161160  1  0  0  0  0
161422  1  0  0  0  0
161423  1  0  0  0  0
162161  1  0  0  0  0
163162  1  0  0  0  0
163424  1  0  0  0  0
163425  1  0  0  0  0
164163  1  0  0  0  0
164426  1  0  0  0  0
164427  1  0  0  0  0
165164  1  0  0  0  0
166165  1  0  0  0  0
166428  1  0  0  0  0
166429  1  0  0  0  0
167166  1  0  0  0  0
167430  1  0  0  0  0
167431  1  0  0  0  0
168167  1  0  0  0  0
169168  1  0  0  0  0
169432  1  0  0  0  0
169433  1  0  0  0  0
170169  1  0  0  0  0
170434  1  0  0  0  0
170435  1  0  0  0  0
171170  1  0  0  0  0
172171  1  0  0  0  0
172436  1  0  0  0  0
172437  1  0  0  0  0
173172  1  0  0  0  0
173438  1  0  0  0  0
173439  1  0  0  0  0
174173  1  0  0  0  0
175174  1  0  0  0  0
175440  1  0  0  0  0
175441  1  0  0  0  0
176175  1  0  0  0  0
176442  1  0  0  0  0
176443  1  0  0  0  0
177176  1  0  0  0  0
178177  1  0  0  0  0
178444  1  0  0  0  0
178445  1  0  0  0  0
179178  1  0  0  0  0
179446  1  0  0  0  0
179447  1  0  0  0  0
180179  1  0  0  0  0
181180  1  0  0  0  0
181448  1  0  0  0  0
181449  1  0  0  0  0
182181  1  0  0  0  0
182450  1  0  0  0  0
182451  1  0  0  0  0
183182  1  0  0  0  0
183184  1  0  0  0  0
184185  1  0  0  0  0
184452  1  0  0  0  0
184453  1  0  0  0  0
185186  1  0  0  0  0
185454  1  0  0  0  0
185455  1  0  0  0  0
186187  1  0  0  0  0
186456  1  0  0  0  0
187188  2  0  0  0  0
187189  1  0  0  0  0
189190  1  0  0  0  0
189457  1  0  0  0  0
189458  1  0  0  0  0
190191  1  0  0  0  0
190459  1  0  0  0  0
190460  1  0  0  0  0
191192  1  0  0  0  0
191195  1  0  0  0  0
191461  1  6  0  0  0
192193  2  0  0  0  0
192194  1  0  0  0  0
194462  1  0  0  0  0
195196  1  0  0  0  0
195463  1  0  0  0  0
196197  1  0  0  0  0
196212  2  0  0  0  0
197198  1  0  0  0  0
197464  1  0  0  0  0
197465  1  0  0  0  0
198199  1  0  0  0  0
198466  1  0  0  0  0
198467  1  0  0  0  0
199200  1  0  0  0  0
199468  1  0  0  0  0
199469  1  0  0  0  0
200201  1  0  0  0  0
200470  1  0  0  0  0
200471  1  0  0  0  0
201202  1  0  0  0  0
201472  1  0  0  0  0
201473  1  0  0  0  0
202203  1  0  0  0  0
202474  1  0  0  0  0
202475  1  0  0  0  0
203204  1  0  0  0  0
203476  1  0  0  0  0
203477  1  0  0  0  0
204205  1  0  0  0  0
204478  1  0  0  0  0
204479  1  0  0  0  0
205206  1  0  0  0  0
205480  1  0  0  0  0
205481  1  0  0  0  0
206207  1  0  0  0  0
206482  1  0  0  0  0
206483  1  0  0  0  0
207208  1  0  0  0  0
207484  1  0  0  0  0
207485  1  0  0  0  0
208209  1  0  0  0  0
208486  1  0  0  0  0
208487  1  0  0  0  0
209210  1  0  0  0  0
209488  1  0  0  0  0
209489  1  0  0  0  0
210211  1  0  0  0  0
210490  1  0  0  0  0
210491  1  0  0  0  0
211492  1  0  0  0  0
211493  1  0  0  0  0
211494  1  0  0  0  0
214215  1  0  0  0  0
214216  2  0  0  0  0
215495  1  0  0  0  0
218219  1  0  0  0  0
218223  1  0  0  0  0
218496  1  0  0  0  0
219220  1  0  0  0  0
219497  1  0  0  0  0
219498  1  0  0  0  0
220221  1  0  0  0  0
220499  1  0  0  0  0
220500  1  0  0  0  0
221501  1  0  0  0  0
221502  1  0  0  0  0
222221  1  0  0  0  0
222503  1  0  0  0  0
222504  1  0  0  0  0
223222  1  0  0  0  0
223505  1  0  0  0  0
223506  1  0  0  0  0
225226  1  0  0  0  0
225507  1  0  0  0  0
225508  1  0  0  0  0
226509  1  0  0  0  0
226510  1  0  0  0  0
227226  1  0  0  0  0
227511  1  0  0  0  0
227512  1  0  0  0  0
228229  1  0  0  0  0
228513  1  0  0  0  0
228514  1  0  0  0  0
229230  2  0  0  0  0
229234  1  0  0  0  0
230231  1  0  0  0  0
230515  1  0  0  0  0
231232  2  0  0  0  0
231516  1  0  0  0  0
232235  1  0  0  0  0
233232  1  0  0  0  0
233517  1  0  0  0  0
234233  2  0  0  0  0
234518  1  0  0  0  0
235519  1  0  0  0  0
237238  1  0  0  0  0
237520  1  0  0  0  0
237521  1  0  0  0  0
238239  1  0  0  0  0
238522  1  0  0  0  0
238523  1  0  0  0  0
239240  1  0  0  0  0
239241  2  0  0  0  0
240524  1  0  0  0  0
243244  1  0  0  0  0
243247  2  0  0  0  0
244245  1  0  0  0  0
244251  2  0  0  0  0
245246  1  0  0  0  0
245248  2  0  0  0  0
246525  1  0  0  0  0
247246  1  0  0  0  0
247526  1  0  0  0  0
248249  1  0  0  0  0
249527  1  0  0  0  0
250249  2  0  0  0  0
250528  1  0  0  0  0
251250  1  0  0  0  0
251529  1  0  0  0  0
M  END
>  <DRUGBANK_ID>
DB15636

>  <COMMON_NAME>
Zilucoplan

>  <CAS_NUMBER>
1841136-73-9

>  <UNII>
YG391PK0CC

>  <SYNONYMS>
N2-ACETYL-L-LYSYL-L-VALYL-L-.ALPHA.-GLUTAMYL-L-ARGINYL-L-PHENYLALANYL-L-.ALPHA.-ASPARTYL-N-METHYL-L-.ALPHA.-ASPARTYL-3-METHYL-L-VALYL-L-TYROSYL-3-(1H-PYRROLO(2,3-B)PYRIDIN-3-YL)-L-ALANYL-L-.ALPHA.-GLUTAMYL-L-TYROSYL-L-PROLYL-(2S)-2-CYCLOHEXYLGLYCYL-N6-(3; POLY(OXY-1,2-ETHANEDIYL), .ALPHA.-(2-(((4S)-4-CARBOXY-1-OXO-4-(1-OXOHEXADECYL)BUTYL)AMINO)ETHYL)-.OMEGA.-HYDROXY-, 15-ETHER WITH N-ACETYL-L-LYSYL-L-VALYL-L-.ALPHA.-GLUTAMYL-L-ARGINYL-L-PHENYLALANYL-L-.ALPHA.-ASPARTYL-N-METHYL-L-.ALPHA.-ASPARTYL-3-METHYL-; Zilucoplan

$$$$
