
 OpenBabel10282417072D

 14 13  0  0  0  0  0  0  0  0999 V2000
   -0.1914   -0.7145    0.0000 O   0  0  0  0  0  0  0  0  0  0  0  0
    0.5230   -1.1270    0.0000 C   0  0  0  0  0  0  0  0  0  0  0  0
    0.5230   -1.9520    0.0000 O   0  0  0  0  0  0  0  0  0  0  0  0
    1.2375   -0.7145    0.0000 C   0  0  0  0  0  0  0  0  0  0  0  0
    1.9520   -1.1270    0.0000 O   0  0  0  0  0  0  0  0  0  0  0  0
    2.6664   -0.7145    0.0000 P   0  0  0  0  0  0  0  0  0  0  0  0
    3.3809   -0.3020    0.0000 O   0  0  0  0  0  0  0  0  0  0  0  0
    3.0789   -1.4289    0.0000 O   0  0  0  0  0  0  0  0  0  0  0  0
    2.2539    0.0000    0.0000 O   0  0  0  0  0  0  0  0  0  0  0  0
   -0.1914    0.2225    0.0000 H   0  0  0  0  0  0  0  0  0  0  0  0
    1.2375    0.3555    0.0000 H   0  0  0  0  0  0  0  0  0  0  0  0
    2.1641   -0.1795    0.0000 H   0  0  0  0  0  0  0  0  0  0  0  0
    4.2209   -0.7870    0.0000 H   0  0  0  0  0  0  0  0  0  0  0  0
    2.5939   -2.2690    0.0000 H   0  0  0  0  0  0  0  0  0  0  0  0
  1  2  1  0  0  0  0
  1 10  1  0  0  0  0
  2  3  2  0  0  0  0
  2  4  1  0  0  0  0
  4  5  1  0  0  0  0
  4 11  1  0  0  0  0
  4 12  1  0  0  0  0
  5  6  1  0  0  0  0
  6  7  1  0  0  0  0
  6  8  1  0  0  0  0
  6  9  2  0  0  0  0
  7 13  1  0  0  0  0
  8 14  1  0  0  0  0
M  END
>  <DRUGBANK_ID>
DB02726

>  <SECONDARY_ACCESSION_NUMBERS>
EXPT02567; DB02389

>  <COMMON_NAME>
2-Phosphoglycolic Acid

>  <CAS_NUMBER>
13147-57-4

>  <UNII>
H8593JOP13

$$$$
