
 OpenBabel10282417072D

 40 41  0  0  0  0  0  0  0  0999 V2000
    2.4535    3.2690    0.0000 C   0  0  0  0  0  0  0  0  0  0  0  0
    0.3101   -0.4434    0.0000 C   0  0  0  0  0  0  0  0  0  0  0  0
    1.7390    2.8565    0.0000 C   0  0  0  0  0  0  0  0  0  0  0  0
    0.3101    2.0315    0.0000 C   0  0  0  0  0  0  0  0  0  0  0  0
   -0.4043    1.6190    0.0000 C   0  0  0  0  0  0  0  0  0  0  0  0
    2.4535    1.6190    0.0000 C   0  0  0  0  0  0  0  0  0  0  0  0
    3.1680    2.0315    0.0000 C   0  0  0  0  0  0  0  0  0  0  0  0
    1.0246    0.7940    0.0000 C   0  0  0  0  0  0  0  0  0  0  0  0
   -3.1389   -1.1334    0.0000 C   0  0  0  0  0  0  0  0  0  0  0  0
    0.3101    0.3815    0.0000 C   0  0  0  0  0  0  0  0  0  0  0  0
    1.0246    1.6190    0.0000 C   0  0  0  0  0  0  0  0  0  0  0  0
   -0.4043    0.7940    0.0000 C   0  0  0  0  0  0  0  0  0  0  0  0
   -2.7264   -1.8479    0.0000 C   0  0  0  0  0  0  0  0  0  0  0  0
   -1.8332   -0.8559    0.0000 C   0  0  0  0  0  0  0  0  0  0  0  0
   -2.5869   -0.5203    0.0000 N   0  0  0  0  0  0  0  0  0  0  0  0
   -1.1187    0.3815    0.0000 N   0  0  0  0  0  0  0  0  0  0  0  0
   -1.1187   -0.4434    0.0000 N   0  0  0  0  0  0  0  0  0  0  0  0
    1.7390    2.0315    0.0000 N   0  0  0  0  0  0  0  0  0  0  0  0
   -3.0620   -2.6016    0.0000 N   0  0  0  0  0  0  0  0  0  0  0  0
    3.8825    1.6190    0.0000 O   0  0  0  0  0  0  0  0  0  0  0  0
   -2.5771   -3.2690    0.0000 O   0  0  0  0  0  0  0  0  0  0  0  0
   -3.8825   -2.6878    0.0000 O   0  0  0  0  0  0  0  0  0  0  0  0
   -1.9194   -1.6764    0.0000 S   0  0  0  0  0  0  0  0  0  0  0  0
    3.3801    2.7340    0.0000 H   0  0  0  0  0  0  0  0  0  0  0  0
    2.4535    4.3390    0.0000 H   0  0  0  0  0  0  0  0  0  0  0  0
    3.3802    3.8040    0.0000 H   0  0  0  0  0  0  0  0  0  0  0  0
   -0.6165   -0.9784    0.0000 H   0  0  0  0  0  0  0  0  0  0  0  0
    1.2367   -0.9784    0.0000 H   0  0  0  0  0  0  0  0  0  0  0  0
    0.3101   -1.5134    0.0000 H   0  0  0  0  0  0  0  0  0  0  0  0
    0.8124    3.3915    0.0000 H   0  0  0  0  0  0  0  0  0  0  0  0
    0.8124    2.3215    0.0000 H   0  0  0  0  0  0  0  0  0  0  0  0
    0.3101    3.0635    0.0000 H   0  0  0  0  0  0  0  0  0  0  0  0
   -1.2980    2.1350    0.0000 H   0  0  0  0  0  0  0  0  0  0  0  0
    2.4535    0.5490    0.0000 H   0  0  0  0  0  0  0  0  0  0  0  0
    1.5269    1.0840    0.0000 H   0  0  0  0  0  0  0  0  0  0  0  0
    3.1680    3.1015    0.0000 H   0  0  0  0  0  0  0  0  0  0  0  0
    4.0946    2.5665    0.0000 H   0  0  0  0  0  0  0  0  0  0  0  0
    1.9183    0.2780    0.0000 H   0  0  0  0  0  0  0  0  0  0  0  0
   -4.1652   -1.0255    0.0000 H   0  0  0  0  0  0  0  0  0  0  0  0
    3.8825    0.6490    0.0000 H   0  0  0  0  0  0  0  0  0  0  0  0
  1 24  1  0  0  0  0
  1 25  1  0  0  0  0
  1 26  1  0  0  0  0
  2 27  1  0  0  0  0
  2 28  1  0  0  0  0
  2 29  1  0  0  0  0
  3  1  1  0  0  0  0
  3 30  1  0  0  0  0
  3 31  1  0  0  0  0
  4 32  1  0  0  0  0
  5  4  1  0  0  0  0
  5 33  1  0  0  0  0
  6 34  1  0  0  0  0
  6 35  1  0  0  0  0
  7  6  1  0  0  0  0
  7 36  1  0  0  0  0
  7 37  1  0  0  0  0
  8 38  1  0  0  0  0
  9 39  1  0  0  0  0
 10  2  1  0  0  0  0
 10  8  2  0  0  0  0
 11  4  2  0  0  0  0
 11  8  1  0  0  0  0
 12  5  2  0  0  0  0
 12 10  1  0  0  0  0
 13  9  2  0  0  0  0
 15  9  1  0  0  0  0
 15 14  2  0  0  0  0
 16 12  1  0  0  0  0
 17 14  1  0  0  0  0
 17 16  2  0  0  0  0
 18  3  1  0  0  0  0
 18  6  1  0  0  0  0
 18 11  1  0  0  0  0
 19 13  1  0  0  0  0
 20  7  1  0  0  0  0
 20 40  1  0  0  0  0
 21 19  2  0  0  0  0
 22 19  2  0  0  0  0
 23 13  1  0  0  0  0
 23 14  1  0  0  0  0
M  END
>  <DRUGBANK_ID>
DB14203

>  <COMMON_NAME>
Disperse Blue 106

>  <CAS_NUMBER>
68516-81-4

>  <UNII>
C48O4QYD6N

>  <SYNONYMS>
5-Nitro-2-(2-methyl-4-(N-ethyl-N-(2-hydroxyethyl)amino)phenylazo)thiazole; C.I. Disperse Blue 106; C.I. Disperse Blue 357; Disperse Blue 357

$$$$
