804
 OpenBabel10282417072D

 57 58  0  0  0  0  0  0  0  0999 V2000
    4.5376   -0.2467    0.0000 O   0  0  0  0  0  0  0  0  0  0  0  0
    5.5058    0.5658    0.0000 O   0  0  0  0  0  0  0  0  0  0  0  0
    2.8876    1.1823    0.0000 N   0  0  0  0  0  0  0  0  0  0  0  0
    5.7751   -0.9612    0.0000 C   0  0  0  0  0  0  0  0  0  0  0  0
    6.4071   -0.4309    0.0000 C   0  0  0  0  0  0  0  0  0  0  0  0
    5.0607   -1.3737    0.0000 C   0  0  0  0  0  0  0  0  0  0  0  0
    6.4896   -1.3737    0.0000 C   0  0  0  0  0  0  0  0  0  0  0  0
    6.2639    0.3816    0.0000 C   0  0  0  0  0  0  0  0  0  0  0  0
    7.1824   -0.7131    0.0000 C   0  0  0  0  0  0  0  0  0  0  0  0
    5.0607   -2.1988    0.0000 C   0  0  0  0  0  0  0  0  0  0  0  0
    6.4896   -2.1988    0.0000 C   0  0  0  0  0  0  0  0  0  0  0  0
    6.8958    0.9119    0.0000 C   0  0  0  0  0  0  0  0  0  0  0  0
    7.8144   -0.1827    0.0000 C   0  0  0  0  0  0  0  0  0  0  0  0
    5.7751   -2.6113    0.0000 C   0  0  0  0  0  0  0  0  0  0  0  0
    7.6711    0.6297    0.0000 C   0  0  0  0  0  0  0  0  0  0  0  0
    5.3626   -0.2467    0.0000 C   0  0  0  0  0  0  0  0  0  0  0  0
    4.1251    0.4678    0.0000 C   0  0  0  0  0  0  0  0  0  0  0  0
    3.3001    0.4678    0.0000 C   0  0  0  0  0  0  0  0  0  0  0  0
    2.0625    1.1823    0.0000 C   0  0  0  0  0  0  0  0  0  0  0  0
    3.3001    1.8967    0.0000 C   0  0  0  0  0  0  0  0  0  0  0  0
    1.6500    1.8967    0.0000 C   0  0  0  0  0  0  0  0  0  0  0  0
    2.8876    2.6113    0.0000 C   0  0  0  0  0  0  0  0  0  0  0  0
    7.2268    0.2568    0.0000 H   0  0  0  0  0  0  0  0  0  0  0  0
    4.1340   -0.8387    0.0000 H   0  0  0  0  0  0  0  0  0  0  0  0
    4.1341   -1.9087    0.0000 H   0  0  0  0  0  0  0  0  0  0  0  0
    7.4162   -0.8387    0.0000 H   0  0  0  0  0  0  0  0  0  0  0  0
    7.4162   -1.9087    0.0000 H   0  0  0  0  0  0  0  0  0  0  0  0
    5.2584    0.7476    0.0000 H   0  0  0  0  0  0  0  0  0  0  0  0
    6.0781    1.4353    0.0000 H   0  0  0  0  0  0  0  0  0  0  0  0
    7.3682   -1.7668    0.0000 H   0  0  0  0  0  0  0  0  0  0  0  0
    8.1879   -1.0790    0.0000 H   0  0  0  0  0  0  0  0  0  0  0  0
    4.1340   -2.7338    0.0000 H   0  0  0  0  0  0  0  0  0  0  0  0
    5.0607   -3.2688    0.0000 H   0  0  0  0  0  0  0  0  0  0  0  0
    7.4162   -2.7338    0.0000 H   0  0  0  0  0  0  0  0  0  0  0  0
    6.4896   -3.2688    0.0000 H   0  0  0  0  0  0  0  0  0  0  0  0
    6.7100    1.9656    0.0000 H   0  0  0  0  0  0  0  0  0  0  0  0
    7.7155    1.5997    0.0000 H   0  0  0  0  0  0  0  0  0  0  0  0
    8.8199   -0.5486    0.0000 H   0  0  0  0  0  0  0  0  0  0  0  0
    8.6340    0.5051    0.0000 H   0  0  0  0  0  0  0  0  0  0  0  0
    5.7751   -3.6813    0.0000 H   0  0  0  0  0  0  0  0  0  0  0  0
    6.7017   -3.1463    0.0000 H   0  0  0  0  0  0  0  0  0  0  0  0
    8.4908    1.3175    0.0000 H   0  0  0  0  0  0  0  0  0  0  0  0
    8.6766    0.2638    0.0000 H   0  0  0  0  0  0  0  0  0  0  0  0
    4.6601    1.3944    0.0000 H   0  0  0  0  0  0  0  0  0  0  0  0
    3.5901    1.3944    0.0000 H   0  0  0  0  0  0  0  0  0  0  0  0
    2.7651   -0.4588    0.0000 H   0  0  0  0  0  0  0  0  0  0  0  0
    3.8351   -0.4588    0.0000 H   0  0  0  0  0  0  0  0  0  0  0  0
    1.5275    0.2556    0.0000 H   0  0  0  0  0  0  0  0  0  0  0  0
    0.9925    1.1823    0.0000 H   0  0  0  0  0  0  0  0  0  0  0  0
    4.3701    1.8966    0.0000 H   0  0  0  0  0  0  0  0  0  0  0  0
    3.8352    2.8233    0.0000 H   0  0  0  0  0  0  0  0  0  0  0  0
    2.1850    2.8234    0.0000 H   0  0  0  0  0  0  0  0  0  0  0  0
    0.5800    1.8967    0.0000 H   0  0  0  0  0  0  0  0  0  0  0  0
    1.1150    2.8233    0.0000 H   0  0  0  0  0  0  0  0  0  0  0  0
    3.4227    3.5379    0.0000 H   0  0  0  0  0  0  0  0  0  0  0  0
    1.8176    2.6114    0.0000 H   0  0  0  0  0  0  0  0  0  0  0  0
    2.3527    3.5380    0.0000 H   0  0  0  0  0  0  0  0  0  0  0  0
  1 16  1  0  0  0  0
  1 17  1  0  0  0  0
  2 16  2  0  0  0  0
  3 18  1  0  0  0  0
  3 19  1  0  0  0  0
  3 20  1  0  0  0  0
  4  5  1  0  0  0  0
  4  6  1  0  0  0  0
  4  7  1  0  0  0  0
  4 16  1  0  0  0  0
  5  8  1  0  0  0  0
  5  9  1  0  0  0  0
  5 23  1  0  0  0  0
  6 10  1  0  0  0  0
  6 24  1  0  0  0  0
  6 25  1  0  0  0  0
  7 11  1  0  0  0  0
  7 26  1  0  0  0  0
  7 27  1  0  0  0  0
  8 12  1  0  0  0  0
  8 28  1  0  0  0  0
  8 29  1  0  0  0  0
  9 13  1  0  0  0  0
  9 30  1  0  0  0  0
  9 31  1  0  0  0  0
 10 14  1  0  0  0  0
 10 32  1  0  0  0  0
 10 33  1  0  0  0  0
 11 14  1  0  0  0  0
 11 34  1  0  0  0  0
 11 35  1  0  0  0  0
 12 15  1  0  0  0  0
 12 36  1  0  0  0  0
 12 37  1  0  0  0  0
 13 15  1  0  0  0  0
 13 38  1  0  0  0  0
 13 39  1  0  0  0  0
 14 40  1  0  0  0  0
 14 41  1  0  0  0  0
 15 42  1  0  0  0  0
 15 43  1  0  0  0  0
 17 18  1  0  0  0  0
 17 44  1  0  0  0  0
 17 45  1  0  0  0  0
 18 46  1  0  0  0  0
 18 47  1  0  0  0  0
 19 21  1  0  0  0  0
 19 48  1  0  0  0  0
 19 49  1  0  0  0  0
 20 22  1  0  0  0  0
 20 50  1  0  0  0  0
 20 51  1  0  0  0  0
 21 52  1  0  0  0  0
 21 53  1  0  0  0  0
 21 54  1  0  0  0  0
 22 55  1  0  0  0  0
 22 56  1  0  0  0  0
 22 57  1  0  0  0  0
M  END
>  <DRUGBANK_ID>
DB00804

>  <SECONDARY_ACCESSION_NUMBERS>
APRD00113

>  <COMMON_NAME>
Dicyclomine

>  <CAS_NUMBER>
77-19-0

>  <UNII>
4KV4X8IF6V

>  <SYNONYMS>
2-(diethylamino)ethyl 1-cyclohexylcyclohexanecarboxylate; Bicyclohexyl-1-carboxylic acid 2-diethylamino-ethyl ester; Dicicloverina; Dicyclomine; Dicycloverin; Dicycloverine; Dicycloverinum

$$$$
