
 OpenBabel10282417072D

 28 29  0  0  0  0  0  0  0  0999 V2000
    0.5163    0.4125    0.0000 C   0  0  0  0  0  0  0  0  0  0  0  0
   -0.9126   -0.4125    0.0000 C   0  0  0  0  0  0  0  0  0  0  0  0
   -0.9126    0.4125    0.0000 C   0  0  0  0  0  0  0  0  0  0  0  0
    0.5164   -0.4125    0.0000 C   0  0  0  0  0  0  0  0  0  0  0  0
    0.0684    0.0000    0.0000 C   0  0  0  0  0  0  0  0  0  0  0  0
    0.9126    0.4147    0.0000 C   0  0  0  0  0  0  0  0  0  0  0  0
    0.9126   -0.4147    0.0000 C   0  0  0  0  0  0  0  0  0  0  0  0
   -0.1981    0.8250    0.0000 C   0  0  1  0  0  0  0  0  0  0  0  0
   -0.1981    1.6500    0.0000 C   0  0  0  0  0  0  0  0  0  0  0  0
   -0.1981   -0.8250    0.0000 C   0  0  1  0  0  0  0  0  0  0  0  0
   -0.1981   -1.6500    0.0000 H   0  0  0  0  0  0  0  0  0  0  0  0
    1.4429    0.9475    0.0000 H   0  0  0  0  0  0  0  0  0  0  0  0
    1.4430   -0.1224    0.0000 H   0  0  0  0  0  0  0  0  0  0  0  0
   -1.8392   -0.9475    0.0000 H   0  0  0  0  0  0  0  0  0  0  0  0
   -1.8392    0.1225    0.0000 H   0  0  0  0  0  0  0  0  0  0  0  0
   -1.8392    0.9475    0.0000 H   0  0  0  0  0  0  0  0  0  0  0  0
   -1.8392   -0.1225    0.0000 H   0  0  0  0  0  0  0  0  0  0  0  0
    1.4431   -0.9475    0.0000 H   0  0  0  0  0  0  0  0  0  0  0  0
    0.5164   -1.4825    0.0000 H   0  0  0  0  0  0  0  0  0  0  0  0
    1.8014   -0.1811    0.0000 H   0  0  0  0  0  0  0  0  0  0  0  0
    0.9842    1.4823    0.0000 H   0  0  0  0  0  0  0  0  0  0  0  0
    1.8730    0.8865    0.0000 H   0  0  0  0  0  0  0  0  0  0  0  0
    0.9842   -1.4823    0.0000 H   0  0  0  0  0  0  0  0  0  0  0  0
    1.8014    0.1811    0.0000 H   0  0  0  0  0  0  0  0  0  0  0  0
    1.8730   -0.8865    0.0000 H   0  0  0  0  0  0  0  0  0  0  0  0
    0.7285    2.1850    0.0000 H   0  0  0  0  0  0  0  0  0  0  0  0
   -1.1247    2.1850    0.0000 H   0  0  0  0  0  0  0  0  0  0  0  0
   -0.1981    2.7200    0.0000 H   0  0  0  0  0  0  0  0  0  0  0  0
  1  4  1  0  0  0  0
  1 12  1  0  0  0  0
  1 13  1  0  0  0  0
  2  3  1  0  0  0  0
  2 14  1  0  0  0  0
  2 15  1  0  0  0  0
  3 16  1  0  0  0  0
  3 17  1  0  0  0  0
  4 10  1  0  0  0  0
  4 18  1  0  0  0  0
  4 19  1  0  0  0  0
  5 10  1  0  0  0  0
  5  6  1  0  0  0  0
  5  7  1  0  0  0  0
  6 20  1  0  0  0  0
  6 21  1  0  0  0  0
  6 22  1  0  0  0  0
  7 23  1  0  0  0  0
  7 24  1  0  0  0  0
  7 25  1  0  0  0  0
  8  1  1  0  0  0  0
  8  3  1  0  0  0  0
  8  5  1  0  0  0  0
  8  9  1  1  0  0  0
  9 26  1  0  0  0  0
  9 27  1  0  0  0  0
  9 28  1  0  0  0  0
 10  2  1  0  0  0  0
 10 11  1  1  0  0  0
M  END
>  <DRUGBANK_ID>
DB04501

>  <SECONDARY_ACCESSION_NUMBERS>
EXPT00824

>  <COMMON_NAME>
Camphane

>  <CAS_NUMBER>
464-15-3

>  <SYNONYMS>
(1s,4s)-1,7,7-trimethylbicyclo[2.2.1]heptane; 1β,4β-bornane; Bornane; Bornylane

$$$$
