
 OpenBabel10282417072D

 25 24  0  0  1  0  0  0  0  0999 V2000
    5.8559    2.5559    0.0000 C   0  0  0  0  0  0  0  0  0  0  0  0
    5.1414    2.1434    0.0000 C   0  0  0  0  0  0  0  0  0  0  0  0
    4.4270    2.5559    0.0000 C   0  0  1  0  0  0  0  0  0  0  0  0
    3.7125    2.1434    0.0000 C   0  0  0  0  0  0  0  0  0  0  0  0
    2.9980    2.5559    0.0000 O   0  0  0  0  0  0  0  0  0  0  0  0
    3.7125    1.3184    0.0000 O   0  0  0  0  0  0  0  0  0  0  0  0
    4.4270    3.3809    0.0000 N   0  0  0  0  0  0  0  0  0  0  0  0
    6.5704    2.1434    0.0000 C   0  0  0  0  0  0  0  0  0  0  0  0
    7.2849    2.5559    0.0000 N   0  0  0  0  0  0  0  0  0  0  0  0
    7.9993    2.1434    0.0000 C   0  0  0  0  0  0  0  0  0  0  0  0
    8.7138    2.5559    0.0000 O   0  0  0  0  0  0  0  0  0  0  0  0
    7.9993    1.3184    0.0000 N   0  0  0  0  0  0  0  0  0  0  0  0
    5.8559    3.6259    0.0000 H   0  0  0  0  0  0  0  0  0  0  0  0
    6.7825    3.0909    0.0000 H   0  0  0  0  0  0  0  0  0  0  0  0
    5.1414    1.0734    0.0000 H   0  0  0  0  0  0  0  0  0  0  0  0
    4.2147    1.6084    0.0000 H   0  0  0  0  0  0  0  0  0  0  0  0
    5.3537    3.0909    0.0000 H   0  0  0  0  0  0  0  0  0  0  0  0
    2.9010    0.8499    0.0000 H   0  0  0  0  0  0  0  0  0  0  0  0
    5.3103    3.8909    0.0000 H   0  0  0  0  0  0  0  0  0  0  0  0
    3.5437    3.8909    0.0000 H   0  0  0  0  0  0  0  0  0  0  0  0
    6.5704    1.0734    0.0000 H   0  0  0  0  0  0  0  0  0  0  0  0
    7.4970    1.6084    0.0000 H   0  0  0  0  0  0  0  0  0  0  0  0
    7.2849    3.5404    0.0000 H   0  0  0  0  0  0  0  0  0  0  0  0
    7.1467    0.8261    0.0000 H   0  0  0  0  0  0  0  0  0  0  0  0
    8.8519    0.8262    0.0000 H   0  0  0  0  0  0  0  0  0  0  0  0
  1  2  1  0  0  0  0
  1  8  1  0  0  0  0
  1 13  1  0  0  0  0
  1 14  1  0  0  0  0
  2  3  1  0  0  0  0
  2 15  1  0  0  0  0
  2 16  1  0  0  0  0
  3  4  1  0  0  0  0
  3  7  1  0  0  0  0
  3 17  1  6  0  0  0
  4  5  2  0  0  0  0
  4  6  1  0  0  0  0
  6 18  1  0  0  0  0
  7 19  1  0  0  0  0
  7 20  1  0  0  0  0
  8  9  1  0  0  0  0
  8 21  1  0  0  0  0
  8 22  1  0  0  0  0
  9 10  1  0  0  0  0
  9 23  1  0  0  0  0
 10 11  2  0  0  0  0
 10 12  1  0  0  0  0
 12 24  1  0  0  0  0
 12 25  1  0  0  0  0
M  END
>  <DRUGBANK_ID>
DB00155

>  <SECONDARY_ACCESSION_NUMBERS>
NUTR00021

>  <COMMON_NAME>
Citrulline

>  <CAS_NUMBER>
372-75-8

>  <UNII>
29VT07BGDA

>  <SYNONYMS>
(S)-2-Amino-5-ureidopentanoic acid; 2-Amino-5-ureidovaleric acid; alpha-amino-delta-Ureidovaleric acid; Cit; Citrulina; Citrulline; delta-Ureidonorvaline; L-2-Amino-5-ureidovaleric acid; L-Citrulline; N(5)-(Aminocarbonyl)-L-ornithine; N(delta)-Carbamylornithine; N5-(Aminocarbonyl)ornithine; N5-Carbamoyl-L-ornithine; N5-carbamoylornithine; α-amino-δ-ureidovaleric acid; δ-ureidonorvaline

$$$$
