
 OpenBabel10282417072D

 45 52  0  0  0  0  0  0  0  0999 V2000
    7.2399    2.5082    0.0000 O   0  0  0  0  0  0  0  0  0  0  0  0
    6.4547    2.2551    0.0000 C   0  0  0  0  0  0  0  0  0  0  0  0
    5.7884    2.7416    0.0000 N   0  0  0  0  0  0  0  0  0  0  0  0
    5.1198    2.2582    0.0000 C   0  0  0  0  0  0  0  0  0  0  0  0
    4.3358    2.5150    0.0000 O   0  0  0  0  0  0  0  0  0  0  0  0
    5.3729    1.4730    0.0000 C   0  0  0  0  0  0  0  0  0  0  0  0
    6.1979    1.4710    0.0000 C   0  0  0  0  0  0  0  0  0  0  0  0
    6.6345    0.7503    0.0000 C   0  0  0  0  0  0  0  0  0  0  0  0
    6.2045    0.0357    0.0000 C   0  0  0  0  0  0  0  0  0  0  0  0
    6.7312   -0.6447    0.0000 N   0  0  0  0  0  0  0  0  0  0  0  0
    6.5105   -1.5063    0.0000 C   0  0  3  0  0  0  0  0  0  0  0  0
    6.2174   -2.3353    0.0000 C   0  0  0  0  0  0  0  0  0  0  0  0
    5.3481   -2.3317    0.0000 C   0  0  0  0  0  0  0  0  0  0  0  0
    5.0554   -1.5085    0.0000 C   0  0  3  0  0  0  0  0  0  0  0  0
    5.7810   -1.4258    0.0000 O   0  0  0  0  0  0  0  0  0  0  0  0
    4.8322   -0.6477    0.0000 N   0  0  0  0  0  0  0  0  0  0  0  0
    4.0613   -0.2982    0.0000 C   0  0  0  0  0  0  0  0  0  0  0  0
    4.1222    0.5245    0.0000 C   0  0  0  0  0  0  0  0  0  0  0  0
    3.4401    0.9887    0.0000 C   0  0  0  0  0  0  0  0  0  0  0  0
    2.6972    0.6300    0.0000 C   0  0  0  0  0  0  0  0  0  0  0  0
    2.6363   -0.1927    0.0000 C   0  0  0  0  0  0  0  0  0  0  0  0
    3.3183   -0.6568    0.0000 C   0  0  0  0  0  0  0  0  0  0  0  0
    4.9311    0.7563    0.0000 C   0  0  0  0  0  0  0  0  0  0  0  0
    5.3543    0.0357    0.0000 C   0  0  0  0  0  0  0  0  0  0  0  0
    7.5116   -0.3016    0.0000 C   0  0  0  0  0  0  0  0  0  0  0  0
    7.4465    0.5208    0.0000 C   0  0  0  0  0  0  0  0  0  0  0  0
    8.1263    0.9883    0.0000 C   0  0  0  0  0  0  0  0  0  0  0  0
    8.8710    0.6334    0.0000 C   0  0  0  0  0  0  0  0  0  0  0  0
    8.9360   -0.1890    0.0000 C   0  0  0  0  0  0  0  0  0  0  0  0
    8.2563   -0.6565    0.0000 C   0  0  0  0  0  0  0  0  0  0  0  0
    5.7907    3.7261    0.0000 H   0  0  0  0  0  0  0  0  0  0  0  0
    5.4868   -1.1949    0.0000 H   0  0  0  0  0  0  0  0  0  0  0  0
    6.8334   -3.2102    0.0000 H   0  0  0  0  0  0  0  0  0  0  0  0
    5.7226   -3.2840    0.0000 H   0  0  0  0  0  0  0  0  0  0  0  0
    4.7293   -3.2046    0.0000 H   0  0  0  0  0  0  0  0  0  0  0  0
    4.2882   -2.1850    0.0000 H   0  0  0  0  0  0  0  0  0  0  0  0
    5.9632   -2.0749    0.0000 H   0  0  0  0  0  0  0  0  0  0  0  0
    3.5163    2.0179    0.0000 H   0  0  0  0  0  0  0  0  0  0  0  0
    1.8440    1.2105    0.0000 H   0  0  0  0  0  0  0  0  0  0  0  0
    1.7069   -0.6413    0.0000 H   0  0  0  0  0  0  0  0  0  0  0  0
    3.2421   -1.6860    0.0000 H   0  0  0  0  0  0  0  0  0  0  0  0
    8.0450    2.0171    0.0000 H   0  0  0  0  0  0  0  0  0  0  0  0
    9.7213    1.2182    0.0000 H   0  0  0  0  0  0  0  0  0  0  0  0
    9.8676   -0.6330    0.0000 H   0  0  0  0  0  0  0  0  0  0  0  0
    8.3376   -1.6853    0.0000 H   0  0  0  0  0  0  0  0  0  0  0  0
  1  2  2  0  0  0  0
  2  3  1  0  0  0  0
  2  7  1  0  0  0  0
  3  4  1  0  0  0  0
  3 31  1  0  0  0  0
  4  5  2  0  0  0  0
  4  6  1  0  0  0  0
  6  7  2  0  0  0  0
  6 23  1  0  0  0  0
  7  8  1  0  0  0  0
  8  9  2  0  0  0  0
  8 26  1  0  0  0  0
  9 10  1  0  0  0  0
  9 24  1  0  0  0  0
 10 11  1  0  0  0  0
 10 25  1  0  0  0  0
 11 12  1  0  0  0  0
 11 15  1  0  0  0  0
 11 32  1  0  0  0  0
 12 13  1  0  0  0  0
 12 33  1  0  0  0  0
 12 34  1  0  0  0  0
 13 14  1  0  0  0  0
 13 35  1  0  0  0  0
 13 36  1  0  0  0  0
 14 15  1  0  0  0  0
 14 16  1  0  0  0  0
 14 37  1  0  0  0  0
 16 17  1  0  0  0  0
 16 24  1  0  0  0  0
 17 18  2  0  0  0  0
 17 22  1  0  0  0  0
 18 19  1  0  0  0  0
 18 23  1  0  0  0  0
 19 20  2  0  0  0  0
 19 38  1  0  0  0  0
 20 21  1  0  0  0  0
 20 39  1  0  0  0  0
 21 22  2  0  0  0  0
 21 40  1  0  0  0  0
 22 41  1  0  0  0  0
 23 24  2  0  0  0  0
 25 26  2  0  0  0  0
 25 30  1  0  0  0  0
 26 27  1  0  0  0  0
 27 28  2  0  0  0  0
 27 42  1  0  0  0  0
 28 29  1  0  0  0  0
 28 43  1  0  0  0  0
 29 30  2  0  0  0  0
 29 44  1  0  0  0  0
 30 45  1  0  0  0  0
M  END
>  <DRUGBANK_ID>
DB17051

>  <COMMON_NAME>
SB-218078

>  <CAS_NUMBER>
135897-06-2

>  <UNII>
S6U3J3UP11

>  <SYNONYMS>
9,10,11,12-tetrahydro-9,12-epoxy-1h-diindolo(1,2,3-fg:3',2',1'-kl)pyrrolo(3,4-i)(1,6)benzodiazocine-1,3(2h)-dione; 9,12-epoxy-1h-diindolo(1,2,3-fg:3',2',1'-kl)pyrrolo(3,4-i)(1,6)benzodiazocine-1,3(2h)-dione, 9,10,11,12-tetrahydro-

$$$$
