
 OpenBabel10282417072D

 25 26  0  0  0  0  0  0  0  0999 V2000
   -0.9805   -1.6723    0.0000 S   0  0  0  0  0  0  0  0  0  0  0  0
    1.6494   -0.2381    0.0000 O   0  0  0  0  0  0  0  0  0  0  0  0
   -1.1629    0.3800    0.0000 O   0  0  0  0  0  0  0  0  0  0  0  0
   -0.4788   -1.2212    0.0000 O   0  0  0  0  0  0  0  0  0  0  0  0
   -0.2457    2.1739    0.0000 O   0  0  0  0  0  0  0  0  0  0  0  0
   -1.8217   -0.6283    0.0000 O   0  0  0  0  0  0  0  0  0  0  0  0
   -1.4821   -2.1232    0.0000 O   0  0  0  0  0  0  0  0  0  0  0  0
   -1.4315   -1.1705    0.0000 O   0  0  0  0  0  0  0  0  0  0  0  0
   -0.5295   -2.1739    0.0000 O   0  0  0  0  0  0  0  0  0  0  0  0
    0.4129    0.2736    0.0000 C   0  0  1  0  0  0  0  0  0  0  0  0
    0.0937    1.5861    0.0000 C   0  0  2  0  0  0  0  0  0  0  0  0
    0.5903    0.9273    0.0000 C   0  0  1  0  0  0  0  0  0  0  0  0
   -0.6207   -0.5625    0.0000 C   0  0  2  0  0  0  0  0  0  0  0  0
    1.8217    0.4155    0.0000 C   0  0  0  0  0  0  0  0  0  0  0  0
   -1.2339   -0.2888    0.0000 C   0  0  2  0  0  0  0  0  0  0  0  0
    0.2761   -0.2482    0.0000 H   0  0  0  0  0  0  0  0  0  0  0  0
    0.7271    1.4442    0.0000 H   0  0  0  0  0  0  0  0  0  0  0  0
    0.2393    3.0140    0.0000 H   0  0  0  0  0  0  0  0  0  0  0  0
   -2.6618   -0.1434    0.0000 H   0  0  0  0  0  0  0  0  0  0  0  0
   -2.4044   -1.8227    0.0000 H   0  0  0  0  0  0  0  0  0  0  0  0
   -0.8995    1.1881    0.0000 H   0  0  0  0  0  0  0  0  0  0  0  0
    0.3883   -0.9186    0.0000 H   0  0  0  0  0  0  0  0  0  0  0  0
    2.7807    0.8901    0.0000 H   0  0  0  0  0  0  0  0  0  0  0  0
    1.7866    1.4849    0.0000 H   0  0  0  0  0  0  0  0  0  0  0  0
   -2.1310    0.2944    0.0000 H   0  0  0  0  0  0  0  0  0  0  0  0
  1  4  1  0  0  0  0
  1  7  1  0  0  0  0
  1  8  2  0  0  0  0
  1  9  2  0  0  0  0
  2 10  1  0  0  0  0
  2 14  1  0  0  0  0
  3 12  1  0  0  0  0
  3 15  1  0  0  0  0
  5 18  1  0  0  0  0
  6 19  1  0  0  0  0
  7 20  1  0  0  0  0
 10 11  1  0  0  0  0
 10 13  1  0  0  0  0
 10 16  1  1  0  0  0
 11  5  1  0  0  0  0
 11 12  1  0  0  0  0
 11 21  1  6  0  0  0
 12 14  1  0  0  0  0
 12 17  1  6  0  0  0
 13  4  1  0  0  0  0
 13 15  1  0  0  0  0
 13 22  1  6  0  0  0
 14 23  1  0  0  0  0
 14 24  1  0  0  0  0
 15  6  1  0  0  0  0
 15 25  1  6  0  0  0
M  END
>  <DRUGBANK_ID>
DB01981

>  <SECONDARY_ACCESSION_NUMBERS>
EXPT01183

>  <COMMON_NAME>
3,6-Anhydro-2-(hydrogen sulfate)-alpha-D-galactopyranose

>  <CAS_NUMBER>
96519-18-5

>  <UNII>
1EE1TT025N

$$$$
