
 OpenBabel10282417072D

 37 39  0  0  0  0  0  0  0  0999 V2000
    2.1433    1.4598    0.0000 N   0  0  0  0  0  0  0  0  0  0  0  0
    1.4289    1.8723    0.0000 C   0  0  0  0  0  0  0  0  0  0  0  0
    0.7145    1.4598    0.0000 C   0  0  1  0  0  0  0  0  0  0  0  0
    0.0000    1.8723    0.0000 C   0  0  0  0  0  0  0  0  0  0  0  0
   -0.7144    1.4598    0.0000 C   0  0  0  0  0  0  0  0  0  0  0  0
   -1.4288    1.8723    0.0000 C   0  0  0  0  0  0  0  0  0  0  0  0
   -1.4288    2.6972    0.0000 C   0  0  0  0  0  0  0  0  0  0  0  0
   -2.1433    3.1098    0.0000 Cl  0  0  0  0  0  0  0  0  0  0  0  0
   -0.7144    3.1098    0.0000 C   0  0  0  0  0  0  0  0  0  0  0  0
    0.0000    2.6972    0.0000 C   0  0  0  0  0  0  0  0  0  0  0  0
    0.7145    0.6347    0.0000 C   0  0  0  0  0  0  0  0  0  0  0  0
    1.4289    0.2222    0.0000 C   0  0  0  0  0  0  0  0  0  0  0  0
    1.4289   -0.6027    0.0000 C   0  0  0  0  0  0  0  0  0  0  0  0
    0.7145   -1.0152    0.0000 C   0  0  0  0  0  0  0  0  0  0  0  0
    0.0000   -0.6027    0.0000 C   0  0  0  0  0  0  0  0  0  0  0  0
    0.0000    0.2222    0.0000 C   0  0  0  0  0  0  0  0  0  0  0  0
    0.7145   -1.8402    0.0000 C   0  0  0  0  0  0  0  0  0  0  0  0
    1.3819   -2.3252    0.0000 C   0  0  0  0  0  0  0  0  0  0  0  0
    1.1270   -3.1098    0.0000 N   0  0  0  0  0  0  0  0  0  0  0  0
    0.3020   -3.1098    0.0000 N   0  0  0  0  0  0  0  0  0  0  0  0
    0.0470   -2.3252    0.0000 C   0  0  0  0  0  0  0  0  0  0  0  0
    2.1433    0.4398    0.0000 H   0  0  0  0  0  0  0  0  0  0  0  0
    3.0267    1.9698    0.0000 H   0  0  0  0  0  0  0  0  0  0  0  0
    1.4289    2.9423    0.0000 H   0  0  0  0  0  0  0  0  0  0  0  0
    0.5022    2.4073    0.0000 H   0  0  0  0  0  0  0  0  0  0  0  0
    1.6412    0.9248    0.0000 H   0  0  0  0  0  0  0  0  0  0  0  0
   -0.7144    0.4278    0.0000 H   0  0  0  0  0  0  0  0  0  0  0  0
   -2.3225    1.3563    0.0000 H   0  0  0  0  0  0  0  0  0  0  0  0
   -0.7144    4.1418    0.0000 H   0  0  0  0  0  0  0  0  0  0  0  0
    0.8938    3.2131    0.0000 H   0  0  0  0  0  0  0  0  0  0  0  0
    2.3226    0.7382    0.0000 H   0  0  0  0  0  0  0  0  0  0  0  0
    2.3226   -1.1187    0.0000 H   0  0  0  0  0  0  0  0  0  0  0  0
   -0.8937   -1.1187    0.0000 H   0  0  0  0  0  0  0  0  0  0  0  0
   -0.8937    0.7382    0.0000 H   0  0  0  0  0  0  0  0  0  0  0  0
    2.3634   -2.0063    0.0000 H   0  0  0  0  0  0  0  0  0  0  0  0
    1.7057   -3.9063    0.0000 H   0  0  0  0  0  0  0  0  0  0  0  0
   -0.9345   -2.0063    0.0000 H   0  0  0  0  0  0  0  0  0  0  0  0
  1 22  1  0  0  0  0
  1 23  1  0  0  0  0
  2  1  1  0  0  0  0
  2  3  1  0  0  0  0
  2 24  1  0  0  0  0
  2 25  1  0  0  0  0
  3  4  1  0  0  0  0
  3 11  1  0  0  0  0
  3 26  1  1  0  0  0
  4  5  1  0  0  0  0
  5  6  2  0  0  0  0
  5 27  1  0  0  0  0
  6  7  1  0  0  0  0
  6 28  1  0  0  0  0
  7  8  1  0  0  0  0
  7  9  2  0  0  0  0
  9 29  1  0  0  0  0
 10  4  2  0  0  0  0
 10  9  1  0  0  0  0
 10 30  1  0  0  0  0
 11 12  1  0  0  0  0
 11 16  2  0  0  0  0
 12 13  2  0  0  0  0
 12 31  1  0  0  0  0
 13 14  1  0  0  0  0
 13 32  1  0  0  0  0
 14 15  2  0  0  0  0
 14 17  1  0  0  0  0
 15 16  1  0  0  0  0
 15 33  1  0  0  0  0
 16 34  1  0  0  0  0
 17 18  2  0  0  0  0
 17 21  1  0  0  0  0
 18 19  1  0  0  0  0
 18 35  1  0  0  0  0
 19 20  1  0  0  0  0
 19 36  1  0  0  0  0
 21 20  2  0  0  0  0
 21 37  1  0  0  0  0
M  END
>  <DRUGBANK_ID>
DB07857

>  <COMMON_NAME>
(2R)-2-(4-chlorophenyl)-2-[4-(1H-pyrazol-4-yl)phenyl]ethanamine

$$$$
