
 OpenBabel10282417072D

 57 60  0  0  0  0  0  0  0  0999 V2000
   -1.8010   -0.3287    0.0000 C   0  0  0  0  0  0  0  0  0  0  0  0
   -2.5234   -0.7254    0.0000 C   0  0  0  0  0  0  0  0  0  0  0  0
   -2.5234   -1.5642    0.0000 C   0  0  0  0  0  0  0  0  0  0  0  0
   -1.8010   -1.9763    0.0000 C   0  0  0  0  0  0  0  0  0  0  0  0
   -1.1015   -1.5642    0.0000 C   0  0  0  0  0  0  0  0  0  0  0  0
   -0.3867   -1.9763    0.0000 C   0  0  0  0  0  0  0  0  0  0  0  0
   -1.1015   -0.7254    0.0000 C   0  0  2  0  0  0  0  0  0  0  0  0
    0.3437    0.8990    0.0000 C   0  0  0  0  0  0  0  0  0  0  0  0
    1.0433    0.4791    0.0000 C   0  0  1  0  0  0  0  0  0  0  0  0
    1.0433   -0.3287    0.0000 C   0  0  1  0  0  0  0  0  0  0  0  0
    1.8278   -0.5854    0.0000 C   0  0  0  0  0  0  0  0  0  0  0  0
    1.8278    0.7354    0.0000 C   0  0  1  0  0  0  0  0  0  0  0  0
    1.0433    1.3262    0.0000 C   0  0  0  0  0  0  0  0  0  0  0  0
   -1.1015    0.1005    0.0000 C   0  0  0  0  0  0  0  0  0  0  0  0
    1.0433   -1.1603    0.0000 H   0  0  0  0  0  0  0  0  0  0  0  0
   -3.2565   -1.9950    0.0000 O   0  0  0  0  0  0  0  0  0  0  0  0
   -0.3867   -0.3287    0.0000 C   0  0  1  0  0  0  0  0  0  0  0  0
    0.3437   -0.7254    0.0000 C   0  0  1  0  0  0  0  0  0  0  0  0
    0.3437    0.0996    0.0000 H   0  0  0  0  0  0  0  0  0  0  0  0
    0.3437   -1.5642    0.0000 C   0  0  0  0  0  0  0  0  0  0  0  0
    2.5421    1.9950    0.0000 C   0  0  0  0  0  0  0  0  0  0  0  0
    1.8278    1.5826    0.0000 C   0  0  0  0  0  0  0  0  0  0  0  0
   -0.3867   -1.1535    0.0000 F   0  0  0  0  0  0  0  0  0  0  0  0
   -0.3867    0.4791    0.0000 C   0  0  1  0  0  0  0  0  0  0  0  0
   -1.1011    0.8914    0.0000 O   0  0  0  0  0  0  0  0  0  0  0  0
    2.2940    0.0674    0.0000 C   0  0  1  0  0  0  0  0  0  0  0  0
    3.1188    0.0674    0.0000 C   0  0  0  0  0  0  0  0  0  0  0  0
    2.5476    1.1381    0.0000 O   0  0  0  0  0  0  0  0  0  0  0  0
    1.1134    1.9950    0.0000 O   0  0  0  0  0  0  0  0  0  0  0  0
    3.2565    1.5826    0.0000 O   0  0  0  0  0  0  0  0  0  0  0  0
   -1.7939    0.7033    0.0000 H   0  0  0  0  0  0  0  0  0  0  0  0
   -3.4116   -0.1999    0.0000 H   0  0  0  0  0  0  0  0  0  0  0  0
   -1.7938   -3.0083    0.0000 H   0  0  0  0  0  0  0  0  0  0  0  0
   -0.3917   -3.0463    0.0000 H   0  0  0  0  0  0  0  0  0  0  0  0
   -1.3144   -2.5094    0.0000 H   0  0  0  0  0  0  0  0  0  0  0  0
    0.3538    1.9690    0.0000 H   0  0  0  0  0  0  0  0  0  0  0  0
   -0.5799    1.4392    0.0000 H   0  0  0  0  0  0  0  0  0  0  0  0
    2.1615   -1.6020    0.0000 H   0  0  0  0  0  0  0  0  0  0  0  0
    2.8855   -0.7469    0.0000 H   0  0  0  0  0  0  0  0  0  0  0  0
    1.9699    1.8612    0.0000 H   0  0  0  0  0  0  0  0  0  0  0  0
    0.1167    1.8612    0.0000 H   0  0  0  0  0  0  0  0  0  0  0  0
    1.0433    2.3962    0.0000 H   0  0  0  0  0  0  0  0  0  0  0  0
   -0.1749    0.6355    0.0000 H   0  0  0  0  0  0  0  0  0  0  0  0
   -2.0281    0.6355    0.0000 H   0  0  0  0  0  0  0  0  0  0  0  0
   -1.1015    1.1705    0.0000 H   0  0  0  0  0  0  0  0  0  0  0  0
    1.2677   -2.1038    0.0000 H   0  0  0  0  0  0  0  0  0  0  0  0
    0.3357   -2.6342    0.0000 H   0  0  0  0  0  0  0  0  0  0  0  0
    2.5421    3.0650    0.0000 H   0  0  0  0  0  0  0  0  0  0  0  0
    1.6154    2.5300    0.0000 H   0  0  0  0  0  0  0  0  0  0  0  0
   -1.3133   -0.0560    0.0000 H   0  0  0  0  0  0  0  0  0  0  0  0
   -1.1013    1.8614    0.0000 H   0  0  0  0  0  0  0  0  0  0  0  0
    2.7888    1.0161    0.0000 H   0  0  0  0  0  0  0  0  0  0  0  0
    3.6538   -0.8592    0.0000 H   0  0  0  0  0  0  0  0  0  0  0  0
    3.6538    0.9940    0.0000 H   0  0  0  0  0  0  0  0  0  0  0  0
    4.1888    0.0674    0.0000 H   0  0  0  0  0  0  0  0  0  0  0  0
    3.3810    0.6418    0.0000 H   0  0  0  0  0  0  0  0  0  0  0  0
    3.2566    0.6126    0.0000 H   0  0  0  0  0  0  0  0  0  0  0  0
  1  7  1  0  0  0  0
  1 31  1  0  0  0  0
  2  1  2  0  0  0  0
  2 32  1  0  0  0  0
  3  4  1  0  0  0  0
  3  2  1  0  0  0  0
  3 16  2  0  0  0  0
  4  5  2  0  0  0  0
  4 33  1  0  0  0  0
  5  7  1  0  0  0  0
  6 20  1  0  0  0  0
  6  5  1  0  0  0  0
  6 34  1  0  0  0  0
  6 35  1  0  0  0  0
  7 17  1  0  0  0  0
  7 14  1  1  0  0  0
  8  9  1  0  0  0  0
  8 36  1  0  0  0  0
  8 37  1  0  0  0  0
  9 13  1  1  0  0  0
 10  9  1  0  0  0  0
 10 15  1  6  0  0  0
 11 10  1  0  0  0  0
 11 38  1  0  0  0  0
 11 39  1  0  0  0  0
 12  9  1  0  0  0  0
 12 22  1  1  0  0  0
 12 28  1  0  0  0  0
 13 40  1  0  0  0  0
 13 41  1  0  0  0  0
 13 42  1  0  0  0  0
 14 43  1  0  0  0  0
 14 44  1  0  0  0  0
 14 45  1  0  0  0  0
 17 23  1  6  0  0  0
 18 10  1  0  0  0  0
 18 17  1  0  0  0  0
 18 19  1  1  0  0  0
 20 18  1  0  0  0  0
 20 46  1  0  0  0  0
 20 47  1  0  0  0  0
 21 30  1  0  0  0  0
 21 22  1  0  0  0  0
 21 48  1  0  0  0  0
 21 49  1  0  0  0  0
 22 29  2  0  0  0  0
 24 17  1  0  0  0  0
 24  8  1  0  0  0  0
 24 25  1  0  0  0  0
 24 50  1  6  0  0  0
 25 51  1  0  0  0  0
 26 12  1  0  0  0  0
 26 11  1  0  0  0  0
 26 27  1  0  0  0  0
 26 52  1  6  0  0  0
 27 53  1  0  0  0  0
 27 54  1  0  0  0  0
 27 55  1  0  0  0  0
 28 56  1  0  0  0  0
 30 57  1  0  0  0  0
M  END
>  <DRUGBANK_ID>
DB00443

>  <SECONDARY_ACCESSION_NUMBERS>
APRD00513

>  <COMMON_NAME>
Betamethasone

>  <CAS_NUMBER>
378-44-9

>  <UNII>
9842X06Q6M

>  <SYNONYMS>
16β-Methyl-1,4-pregnadiene-9α-fluoro-11β,17α,21-triol-3,20-dione; 9-Fluoro-16β-methylprednisolone; 9α-Fluoro-16β-methylprednisolone; beta-Methasone alcohol; Betadexamethasone; Betametasona; Betamethasone; Bétaméthasone; Betamethasonum

$$$$
