
 OpenBabel10282417072D

107109  0  0  1  0  0  0  0  0999 V2000
   29.4432   -1.3291    0.0000 C   0  0  2  0  0  0  0  0  0  0  0  0
   28.7758   -0.8442    0.0000 O   0  0  0  0  0  0  0  0  0  0  0  0
   29.1883   -2.1137    0.0000 C   0  0  1  0  0  0  0  0  0  0  0  0
   28.1083   -1.3291    0.0000 C   0  0  1  0  0  0  0  0  0  0  0  0
   28.3633   -2.1137    0.0000 C   0  0  1  0  0  0  0  0  0  0  0  0
   29.6732   -2.7812    0.0000 O   0  0  0  0  0  0  0  0  0  0  0  0
   22.6975   -5.3701    0.0000 C   0  0  0  0  0  0  0  0  0  0  0  0
   23.4403   -5.7826    0.0000 C   0  0  0  0  0  0  0  0  0  0  0  0
   21.9830   -5.7826    0.0000 N   0  0  0  0  0  0  0  0  0  0  0  0
   21.2686   -5.3701    0.0000 C   0  0  0  0  0  0  0  0  0  0  0  0
   20.5541   -5.7826    0.0000 O   0  0  0  0  0  0  0  0  0  0  0  0
   22.0114   -4.1326    0.0000 C   0  0  0  0  0  0  0  0  0  0  0  0
   21.2686   -4.5451    0.0000 C   0  0  0  0  0  0  0  0  0  0  0  0
   22.0114   -3.3076    0.0000 N   0  0  0  0  0  0  0  0  0  0  0  0
   20.5825   -3.3076    0.0000 O   0  0  0  0  0  0  0  0  0  0  0  0
   21.2969   -2.8950    0.0000 C   0  0  0  0  0  0  0  0  0  0  0  0
   22.7259   -2.0700    0.0000 C   0  0  0  0  0  0  0  0  0  0  0  0
   21.5989   -0.9431    0.0000 C   0  0  0  0  0  0  0  0  0  0  0  0
   22.0114   -1.6575    0.0000 C   0  0  0  0  0  0  0  0  0  0  0  0
   22.4239   -0.9431    0.0000 C   0  0  0  0  0  0  0  0  0  0  0  0
   21.2969   -2.0700    0.0000 C   0  0  1  0  0  0  0  0  0  0  0  0
   20.5824   -1.6575    0.0000 O   0  0  0  0  0  0  0  0  0  0  0  0
   23.4403   -1.6575    0.0000 O   0  0  0  0  0  0  0  0  0  0  0  0
   25.0903   -1.6575    0.0000 O   0  0  0  0  0  0  0  0  0  0  0  0
   26.7403   -1.6575    0.0000 O   0  0  0  0  0  0  0  0  0  0  0  0
   24.2653   -0.8325    0.0000 O   0  0  0  0  0  0  0  0  0  0  0  0
   24.2653   -2.4825    0.0000 O   0  0  0  0  0  0  0  0  0  0  0  0
   25.9153   -0.8325    0.0000 O   0  0  0  0  0  0  0  0  0  0  0  0
   25.9153   -2.4825    0.0000 O   0  0  0  0  0  0  0  0  0  0  0  0
   24.2653   -1.6575    0.0000 P   0  0  3  0  0  0  0  0  0  0  0  0
   25.9153   -1.6575    0.0000 P   0  0  3  0  0  0  0  0  0  0  0  0
   27.3237   -1.0742    0.0000 C   0  0  0  0  0  0  0  0  0  0  0  0
   27.8783   -2.7812    0.0000 O   0  0  0  0  0  0  0  0  0  0  0  0
   27.0533   -3.6062    0.0000 O   0  0  0  0  0  0  0  0  0  0  0  0
   28.7033   -3.6062    0.0000 O   0  0  0  0  0  0  0  0  0  0  0  0
   27.8783   -3.6062    0.0000 P   0  0  0  0  0  0  0  0  0  0  0  0
   27.8783   -4.4312    0.0000 O   0  0  0  0  0  0  0  0  0  0  0  0
   30.2278   -1.0742    0.0000 N   0  0  0  0  0  0  0  0  0  0  0  0
   30.8410   -1.6262    0.0000 C   0  0  0  0  0  0  0  0  0  0  0  0
   30.5634   -0.3205    0.0000 C   0  0  0  0  0  0  0  0  0  0  0  0
   31.5554   -1.2137    0.0000 C   0  0  0  0  0  0  0  0  0  0  0  0
   30.8410   -2.4512    0.0000 N   0  0  0  0  0  0  0  0  0  0  0  0
   31.3839   -0.4067    0.0000 N   0  0  0  0  0  0  0  0  0  0  0  0
   32.2699   -1.6261    0.0000 C   0  0  0  0  0  0  0  0  0  0  0  0
   31.5555   -2.8636    0.0000 C   0  0  0  0  0  0  0  0  0  0  0  0
   32.2699   -2.4511    0.0000 N   0  0  0  0  0  0  0  0  0  0  0  0
   32.9843   -1.2136    0.0000 N   0  0  0  0  0  0  0  0  0  0  0  0
   24.1548   -5.3701    0.0000 S   0  0  0  0  0  0  0  0  0  0  0  0
   25.5837   -5.3701    0.0000 C   0  0  0  0  0  0  0  0  0  0  0  0
   26.2982   -5.7826    0.0000 C   0  0  0  0  0  0  0  0  0  0  0  0
   27.0127   -5.3701    0.0000 C   0  0  0  0  0  0  0  0  0  0  0  0
   27.7272   -5.7826    0.0000 C   0  0  0  0  0  0  0  0  0  0  0  0
   28.4416   -5.3701    0.0000 C   0  0  0  0  0  0  0  0  0  0  0  0
   29.1561   -5.7826    0.0000 C   0  0  0  0  0  0  0  0  0  0  0  0
   29.8706   -5.3701    0.0000 C   0  0  0  0  0  0  0  0  0  0  0  0
   24.8693   -5.7826    0.0000 C   0  0  0  0  0  0  0  0  0  0  0  0
   24.8693   -6.6076    0.0000 O   0  0  0  0  0  0  0  0  0  0  0  0
   29.6106   -0.2723    0.0000 H   0  0  0  0  0  0  0  0  0  0  0  0
   30.2451   -1.9463    0.0000 H   0  0  0  0  0  0  0  0  0  0  0  0
   27.9409   -0.2723    0.0000 H   0  0  0  0  0  0  0  0  0  0  0  0
   28.8491   -3.0671    0.0000 H   0  0  0  0  0  0  0  0  0  0  0  0
   29.2786   -3.6673    0.0000 H   0  0  0  0  0  0  0  0  0  0  0  0
   22.6886   -4.3001    0.0000 H   0  0  0  0  0  0  0  0  0  0  0  0
   23.6174   -4.8236    0.0000 H   0  0  0  0  0  0  0  0  0  0  0  0
   23.4492   -6.8526    0.0000 H   0  0  0  0  0  0  0  0  0  0  0  0
   24.3692   -6.3137    0.0000 H   0  0  0  0  0  0  0  0  0  0  0  0
   21.9830   -6.7671    0.0000 H   0  0  0  0  0  0  0  0  0  0  0  0
   22.9336   -4.6753    0.0000 H   0  0  0  0  0  0  0  0  0  0  0  0
   21.9980   -5.2025    0.0000 H   0  0  0  0  0  0  0  0  0  0  0  0
   20.3464   -4.0024    0.0000 H   0  0  0  0  0  0  0  0  0  0  0  0
   21.2820   -3.4752    0.0000 H   0  0  0  0  0  0  0  0  0  0  0  0
   22.8640   -2.8154    0.0000 H   0  0  0  0  0  0  0  0  0  0  0  0
   22.7259   -3.1400    0.0000 H   0  0  0  0  0  0  0  0  0  0  0  0
   23.6526   -2.6050    0.0000 H   0  0  0  0  0  0  0  0  0  0  0  0
   22.1339   -0.0164    0.0000 H   0  0  0  0  0  0  0  0  0  0  0  0
   20.5289   -0.9431    0.0000 H   0  0  0  0  0  0  0  0  0  0  0  0
   21.0639   -0.0165    0.0000 H   0  0  0  0  0  0  0  0  0  0  0  0
   23.4939   -0.9431    0.0000 H   0  0  0  0  0  0  0  0  0  0  0  0
   21.8889   -0.0164    0.0000 H   0  0  0  0  0  0  0  0  0  0  0  0
   22.9589   -0.0165    0.0000 H   0  0  0  0  0  0  0  0  0  0  0  0
   20.3703   -2.6050    0.0000 H   0  0  0  0  0  0  0  0  0  0  0  0
   20.5824   -0.6875    0.0000 H   0  0  0  0  0  0  0  0  0  0  0  0
   23.4253   -2.9675    0.0000 H   0  0  0  0  0  0  0  0  0  0  0  0
   25.0753   -2.9675    0.0000 H   0  0  0  0  0  0  0  0  0  0  0  0
   27.0739   -0.0338    0.0000 H   0  0  0  0  0  0  0  0  0  0  0  0
   26.2939   -0.7837    0.0000 H   0  0  0  0  0  0  0  0  0  0  0  0
   26.5683   -2.7662    0.0000 H   0  0  0  0  0  0  0  0  0  0  0  0
   29.1883   -4.4462    0.0000 H   0  0  0  0  0  0  0  0  0  0  0  0
   30.0474    0.5732    0.0000 H   0  0  0  0  0  0  0  0  0  0  0  0
   31.5556   -3.8956    0.0000 H   0  0  0  0  0  0  0  0  0  0  0  0
   33.8369   -1.7058    0.0000 H   0  0  0  0  0  0  0  0  0  0  0  0
   32.9843   -0.2291    0.0000 H   0  0  0  0  0  0  0  0  0  0  0  0
   25.5837   -4.3001    0.0000 H   0  0  0  0  0  0  0  0  0  0  0  0
   26.5103   -4.8351    0.0000 H   0  0  0  0  0  0  0  0  0  0  0  0
   26.2982   -6.8526    0.0000 H   0  0  0  0  0  0  0  0  0  0  0  0
   27.2248   -6.3176    0.0000 H   0  0  0  0  0  0  0  0  0  0  0  0
   27.0127   -4.3001    0.0000 H   0  0  0  0  0  0  0  0  0  0  0  0
   27.9393   -4.8351    0.0000 H   0  0  0  0  0  0  0  0  0  0  0  0
   27.7272   -6.8526    0.0000 H   0  0  0  0  0  0  0  0  0  0  0  0
   28.6539   -6.3176    0.0000 H   0  0  0  0  0  0  0  0  0  0  0  0
   28.4416   -4.3001    0.0000 H   0  0  0  0  0  0  0  0  0  0  0  0
   29.3682   -4.8351    0.0000 H   0  0  0  0  0  0  0  0  0  0  0  0
   29.1561   -6.8526    0.0000 H   0  0  0  0  0  0  0  0  0  0  0  0
   30.0827   -6.3176    0.0000 H   0  0  0  0  0  0  0  0  0  0  0  0
   30.7972   -5.9051    0.0000 H   0  0  0  0  0  0  0  0  0  0  0  0
   29.8706   -4.3001    0.0000 H   0  0  0  0  0  0  0  0  0  0  0  0
   30.7973   -4.8351    0.0000 H   0  0  0  0  0  0  0  0  0  0  0  0
  1 38  1  0  0  0  0
  1 58  1  6  0  0  0
  2  1  1  0  0  0  0
  3  1  1  0  0  0  0
  3  6  1  0  0  0  0
  3 59  1  1  0  0  0
  4  2  1  0  0  0  0
  4 32  1  0  0  0  0
  4 60  1  6  0  0  0
  5  3  1  0  0  0  0
  5  4  1  0  0  0  0
  5 33  1  0  0  0  0
  5 61  1  1  0  0  0
  6 62  1  0  0  0  0
  7  8  1  0  0  0  0
  7 63  1  0  0  0  0
  7 64  1  0  0  0  0
  8 48  1  0  0  0  0
  8 65  1  0  0  0  0
  8 66  1  0  0  0  0
  9  7  1  0  0  0  0
  9 67  1  0  0  0  0
 10  9  1  0  0  0  0
 10 11  2  0  0  0  0
 12 14  1  0  0  0  0
 12 68  1  0  0  0  0
 12 69  1  0  0  0  0
 13 10  1  0  0  0  0
 13 12  1  0  0  0  0
 13 70  1  0  0  0  0
 13 71  1  0  0  0  0
 14 72  1  0  0  0  0
 16 14  1  0  0  0  0
 16 15  2  0  0  0  0
 16 21  1  0  0  0  0
 17 23  1  0  0  0  0
 17 73  1  0  0  0  0
 17 74  1  0  0  0  0
 18 75  1  0  0  0  0
 18 76  1  0  0  0  0
 18 77  1  0  0  0  0
 19 17  1  0  0  0  0
 19 18  1  0  0  0  0
 19 20  1  0  0  0  0
 20 78  1  0  0  0  0
 20 79  1  0  0  0  0
 20 80  1  0  0  0  0
 21 19  1  0  0  0  0
 21 22  1  0  0  0  0
 21 81  1  1  0  0  0
 22 82  1  0  0  0  0
 23 30  1  0  0  0  0
 24 31  1  0  0  0  0
 27 83  1  0  0  0  0
 29 84  1  0  0  0  0
 30 24  1  0  0  0  0
 30 26  2  0  0  0  0
 30 27  1  0  0  0  0
 31 25  1  0  0  0  0
 31 28  2  0  0  0  0
 31 29  1  0  0  0  0
 32 25  1  0  0  0  0
 32 85  1  0  0  0  0
 32 86  1  0  0  0  0
 33 36  1  0  0  0  0
 34 87  1  0  0  0  0
 35 88  1  0  0  0  0
 36 34  1  0  0  0  0
 36 35  1  0  0  0  0
 36 37  2  0  0  0  0
 39 38  1  0  0  0  0
 40 38  1  0  0  0  0
 40 89  1  0  0  0  0
 41 39  2  0  0  0  0
 42 39  1  0  0  0  0
 43 40  2  0  0  0  0
 43 41  1  0  0  0  0
 44 41  1  0  0  0  0
 45 42  2  0  0  0  0
 45 90  1  0  0  0  0
 46 44  2  0  0  0  0
 46 45  1  0  0  0  0
 47 44  1  0  0  0  0
 47 91  1  0  0  0  0
 47 92  1  0  0  0  0
 48 56  1  0  0  0  0
 49 50  1  0  0  0  0
 49 93  1  0  0  0  0
 49 94  1  0  0  0  0
 50 51  1  0  0  0  0
 50 95  1  0  0  0  0
 50 96  1  0  0  0  0
 51 52  1  0  0  0  0
 51 97  1  0  0  0  0
 51 98  1  0  0  0  0
 52 53  1  0  0  0  0
 52 99  1  0  0  0  0
 52100  1  0  0  0  0
 53 54  1  0  0  0  0
 53101  1  0  0  0  0
 53102  1  0  0  0  0
 54 55  1  0  0  0  0
 54103  1  0  0  0  0
 54104  1  0  0  0  0
 55105  1  0  0  0  0
 55106  1  0  0  0  0
 55107  1  0  0  0  0
 56 49  1  0  0  0  0
 56 57  2  0  0  0  0
M  END
>  <DRUGBANK_ID>
DB02910

>  <SECONDARY_ACCESSION_NUMBERS>
EXPT00977

>  <COMMON_NAME>
Octanoyl-Coenzyme A

$$$$
