
 OpenBabel10282417072D

 20 19  0  0  0  0  0  0  0  0999 V2000
    1.9520    1.9520    0.0000 C   0  0  0  0  0  0  0  0  0  0  0  0
    1.9520    1.1270    0.0000 N   0  0  0  0  0  0  0  0  0  0  0  0
    1.2375    0.7145    0.0000 C   0  0  0  0  0  0  0  0  0  0  0  0
    0.5230    1.1270    0.0000 C   0  0  0  0  0  0  0  0  0  0  0  0
   -0.1914    0.7145    0.0000 O   0  0  0  0  0  0  0  0  0  0  0  0
    0.5230    1.9520    0.0000 O   0  0  0  0  0  0  0  0  0  0  0  0
    2.6664    0.7145    0.0000 C   0  0  0  0  0  0  0  0  0  0  0  0
    3.3809    1.1270    0.0000 N   0  0  0  0  0  0  0  0  0  0  0  0
    2.6664   -0.1105    0.0000 N   0  0  0  0  0  0  0  0  0  0  0  0
    2.8786    2.4870    0.0000 H   0  0  0  0  0  0  0  0  0  0  0  0
    1.0254    2.4870    0.0000 H   0  0  0  0  0  0  0  0  0  0  0  0
    1.9520    3.0220    0.0000 H   0  0  0  0  0  0  0  0  0  0  0  0
    1.2375   -0.3555    0.0000 H   0  0  0  0  0  0  0  0  0  0  0  0
    0.3109    0.1795    0.0000 H   0  0  0  0  0  0  0  0  0  0  0  0
   -1.0029    1.1830    0.0000 H   0  0  0  0  0  0  0  0  0  0  0  0
    3.5930    0.1795    0.0000 H   0  0  0  0  0  0  0  0  0  0  0  0
    4.2642    0.6170    0.0000 H   0  0  0  0  0  0  0  0  0  0  0  0
    3.3809    2.1470    0.0000 H   0  0  0  0  0  0  0  0  0  0  0  0
    1.7831   -0.6205    0.0000 H   0  0  0  0  0  0  0  0  0  0  0  0
    3.5497   -0.6205    0.0000 H   0  0  0  0  0  0  0  0  0  0  0  0
  1  2  1  0  0  0  0
  1 10  1  0  0  0  0
  1 11  1  0  0  0  0
  1 12  1  0  0  0  0
  2  3  1  0  0  0  0
  2  7  1  0  0  0  0
  3  4  1  0  0  0  0
  3 13  1  0  0  0  0
  3 14  1  0  0  0  0
  4  5  1  0  0  0  0
  4  6  2  0  0  0  0
  5 15  1  0  0  0  0
  7  8  1  0  0  0  0
  7  9  1  0  0  0  0
  7 16  1  0  0  0  0
  8 17  1  0  0  0  0
  8 18  1  0  0  0  0
  9 19  1  0  0  0  0
  9 20  1  0  0  0  0
M  END
>  <DRUGBANK_ID>
DB02490

>  <SECONDARY_ACCESSION_NUMBERS>
EXPT01907

>  <COMMON_NAME>
(Diaminomethyl-Methyl-Amino)-Acetic Acid

$$$$
