
 OpenBabel10282417072D

 45 46  0  0  0  0  0  0  0  0999 V2000
    2.2786   -0.2048    0.0000 N   0  0  0  0  0  0  0  0  0  0  0  0
    3.0631   -0.4598    0.0000 C   0  0  1  0  0  0  0  0  0  0  0  0
    1.4534    0.6201    0.0000 C   0  0  2  0  0  0  0  0  0  0  0  0
    3.0631    0.8751    0.0000 S   0  0  0  0  0  0  0  0  0  0  0  0
    3.3181   -1.2445    0.0000 C   0  0  0  0  0  0  0  0  0  0  0  0
    0.7389    1.0327    0.0000 N   0  0  0  0  0  0  0  0  0  0  0  0
    4.1252   -1.4160    0.0000 O   0  0  0  0  0  0  0  0  0  0  0  0
    2.7661   -1.8577    0.0000 O   0  0  0  0  0  0  0  0  0  0  0  0
    0.0243    0.6201    0.0000 C   0  0  0  0  0  0  0  0  0  0  0  0
   -0.6901    1.0327    0.0000 C   0  0  0  0  0  0  0  0  0  0  0  0
   -2.1191    1.0327    0.0000 C   0  0  0  0  0  0  0  0  0  0  0  0
   -2.8335    0.6201    0.0000 C   0  0  1  0  0  0  0  0  0  0  0  0
   -3.5482    1.0327    0.0000 C   0  0  0  0  0  0  0  0  0  0  0  0
   -4.2626    0.6201    0.0000 O   0  0  0  0  0  0  0  0  0  0  0  0
   -3.5482    1.8577    0.0000 O   0  0  0  0  0  0  0  0  0  0  0  0
   -1.4046    0.6201    0.0000 C   0  0  0  0  0  0  0  0  0  0  0  0
    0.0243   -0.2048    0.0000 O   0  0  0  0  0  0  0  0  0  0  0  0
   -2.8335   -0.2048    0.0000 N   0  0  0  0  0  0  0  0  0  0  0  0
    1.4534   -0.2048    0.0000 C   0  0  0  0  0  0  0  0  0  0  0  0
    0.8700   -0.7884    0.0000 O   0  0  0  0  0  0  0  0  0  0  0  0
    4.2626    0.6201    0.0000 C   0  0  0  0  0  0  0  0  0  0  0  0
    3.5482    0.2076    0.0000 C   0  0  0  0  0  0  0  0  0  0  0  0
    4.2626   -0.2048    0.0000 C   0  0  0  0  0  0  0  0  0  0  0  0
    2.2786    0.6201    0.0000 C   0  0  1  0  0  0  0  0  0  0  0  0
    2.2786    1.4452    0.0000 H   0  0  0  0  0  0  0  0  0  0  0  0
    2.3065   -1.2164    0.0000 H   0  0  0  0  0  0  0  0  0  0  0  0
    1.7304    1.6536    0.0000 H   0  0  0  0  0  0  0  0  0  0  0  0
    0.7389    2.0172    0.0000 H   0  0  0  0  0  0  0  0  0  0  0  0
    4.4148   -2.3071    0.0000 H   0  0  0  0  0  0  0  0  0  0  0  0
   -0.6901    2.1027    0.0000 H   0  0  0  0  0  0  0  0  0  0  0  0
   -1.6168    1.5677    0.0000 H   0  0  0  0  0  0  0  0  0  0  0  0
   -2.1191    2.1027    0.0000 H   0  0  0  0  0  0  0  0  0  0  0  0
   -3.0458    1.5676    0.0000 H   0  0  0  0  0  0  0  0  0  0  0  0
   -1.9068    0.0852    0.0000 H   0  0  0  0  0  0  0  0  0  0  0  0
   -5.0741    1.0885    0.0000 H   0  0  0  0  0  0  0  0  0  0  0  0
   -1.4046   -0.4499    0.0000 H   0  0  0  0  0  0  0  0  0  0  0  0
   -2.3313    0.0851    0.0000 H   0  0  0  0  0  0  0  0  0  0  0  0
   -3.7168   -0.7148    0.0000 H   0  0  0  0  0  0  0  0  0  0  0  0
   -1.9502   -0.7148    0.0000 H   0  0  0  0  0  0  0  0  0  0  0  0
    5.1893    0.0851    0.0000 H   0  0  0  0  0  0  0  0  0  0  0  0
    4.2626    1.6901    0.0000 H   0  0  0  0  0  0  0  0  0  0  0  0
    5.1892    1.1551    0.0000 H   0  0  0  0  0  0  0  0  0  0  0  0
    4.2627   -1.2748    0.0000 H   0  0  0  0  0  0  0  0  0  0  0  0
    5.1892    0.3303    0.0000 H   0  0  0  0  0  0  0  0  0  0  0  0
    5.1893   -0.7397    0.0000 H   0  0  0  0  0  0  0  0  0  0  0  0
  1  2  1  0  0  0  0
  1 19  1  0  0  0  0
  2 22  1  0  0  0  0
  2  5  1  0  0  0  0
  2 26  1  1  0  0  0
  3  6  1  0  0  0  0
  3 19  1  0  0  0  0
  3 27  1  6  0  0  0
  4 22  1  0  0  0  0
  5  7  1  0  0  0  0
  5  8  2  0  0  0  0
  6  9  1  0  0  0  0
  6 28  1  0  0  0  0
  7 29  1  0  0  0  0
  9 10  1  0  0  0  0
  9 17  2  0  0  0  0
 10 16  1  0  0  0  0
 10 30  1  0  0  0  0
 10 31  1  0  0  0  0
 11 12  1  0  0  0  0
 11 32  1  0  0  0  0
 11 33  1  0  0  0  0
 12 13  1  0  0  0  0
 12 18  1  0  0  0  0
 12 34  1  1  0  0  0
 13 14  1  0  0  0  0
 13 15  2  0  0  0  0
 14 35  1  0  0  0  0
 16 11  1  0  0  0  0
 16 36  1  0  0  0  0
 16 37  1  0  0  0  0
 18 38  1  0  0  0  0
 18 39  1  0  0  0  0
 19 20  2  0  0  0  0
 21 40  1  0  0  0  0
 21 41  1  0  0  0  0
 21 42  1  0  0  0  0
 22 21  1  0  0  0  0
 22 23  1  0  0  0  0
 23 43  1  0  0  0  0
 23 44  1  0  0  0  0
 23 45  1  0  0  0  0
 24  1  1  0  0  0  0
 24  3  1  0  0  0  0
 24  4  1  0  0  0  0
 24 25  1  6  0  0  0
M  END
>  <DRUGBANK_ID>
DB03550

>  <SECONDARY_ACCESSION_NUMBERS>
EXPT01909

>  <COMMON_NAME>
Isopenicillin N

>  <CAS_NUMBER>
58678-43-6

$$$$
