589
 OpenBabel10282417072D

 51 54  0  0  1  0  0  0  0  0999 V2000
    4.5073    2.1324    0.0000 O   0  0  0  0  0  0  0  0  0  0  0  0
    5.9985    0.4769    0.0000 N   0  0  0  0  0  0  0  0  0  0  0  0
    3.7976    0.8924    0.0000 N   0  0  0  0  0  0  0  0  0  0  0  0
    6.9735   -2.9186    0.0000 N   0  0  0  0  0  0  0  0  0  0  0  0
    3.0785    2.1270    0.0000 N   0  0  0  0  0  0  0  0  0  0  0  0
    5.9852   -0.3821    0.0000 C   0  0  1  0  0  0  0  0  0  0  0  0
    5.2709   -0.7946    0.0000 C   0  0  0  0  0  0  0  0  0  0  0  0
    6.6997   -0.7946    0.0000 C   0  0  0  0  0  0  0  0  0  0  0  0
    4.5136    0.4826    0.0000 C   0  0  2  0  0  0  0  0  0  0  0  0
    5.2578    0.9124    0.0000 C   0  0  0  0  0  0  0  0  0  0  0  0
    6.6997   -1.6195    0.0000 C   0  0  0  0  0  0  0  0  0  0  0  0
    5.2709   -1.6195    0.0000 C   0  0  0  0  0  0  0  0  0  0  0  0
    5.9852   -2.0319    0.0000 C   0  0  0  0  0  0  0  0  0  0  0  0
    4.5202   -0.3765    0.0000 C   0  0  0  0  0  0  0  0  0  0  0  0
    5.9985   -2.8911    0.0000 C   0  0  0  0  0  0  0  0  0  0  0  0
    6.7177    0.8812    0.0000 C   0  0  0  0  0  0  0  0  0  0  0  0
    7.3076   -2.1698    0.0000 C   0  0  0  0  0  0  0  0  0  0  0  0
    4.5202   -2.0375    0.0000 C   0  0  0  0  0  0  0  0  0  0  0  0
    5.2578   -3.3264    0.0000 C   0  0  0  0  0  0  0  0  0  0  0  0
    4.5136   -2.8968    0.0000 C   0  0  0  0  0  0  0  0  0  0  0  0
    3.7945    1.7173    0.0000 C   0  0  0  0  0  0  0  0  0  0  0  0
    2.3657    1.7118    0.0000 C   0  0  0  0  0  0  0  0  0  0  0  0
    3.0754    2.9518    0.0000 C   0  0  0  0  0  0  0  0  0  0  0  0
    1.6498    2.1214    0.0000 C   0  0  0  0  0  0  0  0  0  0  0  0
    2.3594    3.3615    0.0000 C   0  0  0  0  0  0  0  0  0  0  0  0
    6.5593   -0.0567    0.0000 H   0  0  0  0  0  0  0  0  0  0  0  0
    2.9469    0.3969    0.0000 H   0  0  0  0  0  0  0  0  0  0  0  0
    7.4977   -3.7520    0.0000 H   0  0  0  0  0  0  0  0  0  0  0  0
    7.6263   -0.2596    0.0000 H   0  0  0  0  0  0  0  0  0  0  0  0
    7.6263   -1.3296    0.0000 H   0  0  0  0  0  0  0  0  0  0  0  0
    4.5115    1.5526    0.0000 H   0  0  0  0  0  0  0  0  0  0  0  0
    5.2620    1.9824    0.0000 H   0  0  0  0  0  0  0  0  0  0  0  0
    4.3322    1.4491    0.0000 H   0  0  0  0  0  0  0  0  0  0  0  0
    3.6325   -0.9028    0.0000 H   0  0  0  0  0  0  0  0  0  0  0  0
    7.6381    0.3356    0.0000 H   0  0  0  0  0  0  0  0  0  0  0  0
    6.7300    1.9511    0.0000 H   0  0  0  0  0  0  0  0  0  0  0  0
    7.6504    1.4055    0.0000 H   0  0  0  0  0  0  0  0  0  0  0  0
    8.3174   -1.9570    0.0000 H   0  0  0  0  0  0  0  0  0  0  0  0
    3.6325   -1.5112    0.0000 H   0  0  0  0  0  0  0  0  0  0  0  0
    5.2618   -4.3584    0.0000 H   0  0  0  0  0  0  0  0  0  0  0  0
    3.6179   -3.4094    0.0000 H   0  0  0  0  0  0  0  0  0  0  0  0
    2.3699    0.6418    0.0000 H   0  0  0  0  0  0  0  0  0  0  0  0
    1.4411    1.1732    0.0000 H   0  0  0  0  0  0  0  0  0  0  0  0
    4.0000    3.4903    0.0000 H   0  0  0  0  0  0  0  0  0  0  0  0
    3.0713    4.0218    0.0000 H   0  0  0  0  0  0  0  0  0  0  0  0
    1.6456    3.1914    0.0000 H   0  0  0  0  0  0  0  0  0  0  0  0
    0.7253    1.5828    0.0000 H   0  0  0  0  0  0  0  0  0  0  0  0
    0.7211    2.6528    0.0000 H   0  0  0  0  0  0  0  0  0  0  0  0
    2.3553    4.4315    0.0000 H   0  0  0  0  0  0  0  0  0  0  0  0
    1.4348    2.8229    0.0000 H   0  0  0  0  0  0  0  0  0  0  0  0
    1.4307    3.8929    0.0000 H   0  0  0  0  0  0  0  0  0  0  0  0
  1 21  2  0  0  0  0
  2  6  1  0  0  0  0
  2 10  1  0  0  0  0
  2 16  1  0  0  0  0
  3 21  1  0  0  0  0
  3 27  1  0  0  0  0
  4 15  1  0  0  0  0
  4 17  1  0  0  0  0
  4 28  1  0  0  0  0
  5 21  1  0  0  0  0
  5 22  1  0  0  0  0
  5 23  1  0  0  0  0
  6  7  1  0  0  0  0
  6  8  1  0  0  0  0
  6 26  1  1  0  0  0
  7 12  1  0  0  0  0
  7 14  2  0  0  0  0
  8 11  1  0  0  0  0
  8 29  1  0  0  0  0
  8 30  1  0  0  0  0
  9  3  1  0  0  0  0
  9 10  1  0  0  0  0
  9 14  1  0  0  0  0
  9 31  1  1  0  0  0
 10 32  1  0  0  0  0
 10 33  1  0  0  0  0
 11 13  1  0  0  0  0
 11 17  2  0  0  0  0
 12 13  2  0  0  0  0
 12 18  1  0  0  0  0
 13 15  1  0  0  0  0
 14 34  1  0  0  0  0
 15 19  2  0  0  0  0
 16 35  1  0  0  0  0
 16 36  1  0  0  0  0
 16 37  1  0  0  0  0
 17 38  1  0  0  0  0
 18 20  2  0  0  0  0
 18 39  1  0  0  0  0
 19 20  1  0  0  0  0
 19 40  1  0  0  0  0
 20 41  1  0  0  0  0
 22 24  1  0  0  0  0
 22 42  1  0  0  0  0
 22 43  1  0  0  0  0
 23 25  1  0  0  0  0
 23 44  1  0  0  0  0
 23 45  1  0  0  0  0
 24 46  1  0  0  0  0
 24 47  1  0  0  0  0
 24 48  1  0  0  0  0
 25 49  1  0  0  0  0
 25 50  1  0  0  0  0
 25 51  1  0  0  0  0
M  END
>  <DRUGBANK_ID>
DB00589

>  <SECONDARY_ACCESSION_NUMBERS>
APRD00636

>  <COMMON_NAME>
Lisuride

>  <CAS_NUMBER>
18016-80-3

>  <UNII>
E0QN3D755O

>  <SYNONYMS>
Lisurid; Lisurida; Lisuride; Lisuridum; N'-((8alpha)-9,10-Didehydro-6-methylergolin-8-yl)-N,N-diethylurea

$$$$
