
 OpenBabel10282417072D

 60 60  0  0  1  0  0  0  0  0999 V2000
    1.6500   -3.5063    0.0000 Cl  0  0  0  0  0  0  0  0  0  0  0  0
    3.0791   -4.3313    0.0000 Cl  0  0  0  0  0  0  0  0  0  0  0  0
    5.2224    0.2063    0.0000 O   0  0  0  0  0  0  0  0  0  0  0  0
    3.0791    3.9188    0.0000 O   0  0  0  0  0  0  0  0  0  0  0  0
    2.3645   -0.6188    0.0000 O   0  0  0  0  0  0  0  0  0  0  0  0
    2.3645    2.6813    0.0000 O   0  0  0  0  0  0  0  0  0  0  0  0
    1.6500    1.4438    0.0000 O   0  0  0  0  0  0  0  0  0  0  0  0
    4.5080    1.4438    0.0000 N   0  0  0  0  0  0  0  0  0  0  0  0
    3.7935   -0.6188    0.0000 N   0  0  0  0  0  0  0  0  0  0  0  0
    5.2224    1.8563    0.0000 C   0  0  0  0  0  0  0  0  0  0  0  0
    3.7935    0.2063    0.0000 C   0  0  1  0  0  0  0  0  0  0  0  0
    5.2224    2.6813    0.0000 C   0  0  0  0  0  0  0  0  0  0  0  0
    3.7935    1.8563    0.0000 C   0  0  0  0  0  0  0  0  0  0  0  0
    4.5080    0.6188    0.0000 C   0  0  0  0  0  0  0  0  0  0  0  0
    3.0791    0.6188    0.0000 C   0  0  0  0  0  0  0  0  0  0  0  0
    5.9370    3.0938    0.0000 C   0  0  0  0  0  0  0  0  0  0  0  0
    3.7935    2.6813    0.0000 C   0  0  0  0  0  0  0  0  0  0  0  0
    5.9370    3.9188    0.0000 C   0  0  0  0  0  0  0  0  0  0  0  0
    3.0791    1.4438    0.0000 C   0  0  0  0  0  0  0  0  0  0  0  0
    3.0791    3.0938    0.0000 C   0  0  0  0  0  0  0  0  0  0  0  0
    6.6515    4.3313    0.0000 C   0  0  0  0  0  0  0  0  0  0  0  0
    3.0791   -1.0313    0.0000 C   0  0  0  0  0  0  0  0  0  0  0  0
    2.3645    1.8563    0.0000 C   0  0  0  0  0  0  0  0  0  0  0  0
    3.0791   -1.8563    0.0000 C   0  0  0  0  0  0  0  0  0  0  0  0
    2.3645   -2.2688    0.0000 C   0  0  0  0  0  0  0  0  0  0  0  0
    3.7935   -2.2688    0.0000 C   0  0  0  0  0  0  0  0  0  0  0  0
    2.3645    4.3313    0.0000 C   0  0  0  0  0  0  0  0  0  0  0  0
    2.3645   -3.0938    0.0000 C   0  0  0  0  0  0  0  0  0  0  0  0
    3.7935   -3.0938    0.0000 C   0  0  0  0  0  0  0  0  0  0  0  0
    3.0791   -3.5063    0.0000 C   0  0  0  0  0  0  0  0  0  0  0  0
    3.1760    3.1498    0.0000 H   0  0  0  0  0  0  0  0  0  0  0  0
    4.6461   -1.1110    0.0000 H   0  0  0  0  0  0  0  0  0  0  0  0
    6.1491    1.3213    0.0000 H   0  0  0  0  0  0  0  0  0  0  0  0
    6.1490    2.3913    0.0000 H   0  0  0  0  0  0  0  0  0  0  0  0
    4.7201   -0.3287    0.0000 H   0  0  0  0  0  0  0  0  0  0  0  0
    4.2958    3.2163    0.0000 H   0  0  0  0  0  0  0  0  0  0  0  0
    5.2225    3.7513    0.0000 H   0  0  0  0  0  0  0  0  0  0  0  0
    2.8669    1.3213    0.0000 H   0  0  0  0  0  0  0  0  0  0  0  0
    2.8669    2.3913    0.0000 H   0  0  0  0  0  0  0  0  0  0  0  0
    2.1524    0.0838    0.0000 H   0  0  0  0  0  0  0  0  0  0  0  0
    2.1525    1.1538    0.0000 H   0  0  0  0  0  0  0  0  0  0  0  0
    6.8636    2.5588    0.0000 H   0  0  0  0  0  0  0  0  0  0  0  0
    6.8637    3.6288    0.0000 H   0  0  0  0  0  0  0  0  0  0  0  0
    4.7202    3.2163    0.0000 H   0  0  0  0  0  0  0  0  0  0  0  0
    3.7935    3.7513    0.0000 H   0  0  0  0  0  0  0  0  0  0  0  0
    5.0104    4.4538    0.0000 H   0  0  0  0  0  0  0  0  0  0  0  0
    5.9370    4.9888    0.0000 H   0  0  0  0  0  0  0  0  0  0  0  0
    4.0057    1.9788    0.0000 H   0  0  0  0  0  0  0  0  0  0  0  0
    3.0790    2.5138    0.0000 H   0  0  0  0  0  0  0  0  0  0  0  0
    2.1524    2.5588    0.0000 H   0  0  0  0  0  0  0  0  0  0  0  0
    3.0791    2.0238    0.0000 H   0  0  0  0  0  0  0  0  0  0  0  0
    7.5781    3.7963    0.0000 H   0  0  0  0  0  0  0  0  0  0  0  0
    6.6515    5.4013    0.0000 H   0  0  0  0  0  0  0  0  0  0  0  0
    7.5782    4.8663    0.0000 H   0  0  0  0  0  0  0  0  0  0  0  0
    1.4708   -1.7528    0.0000 H   0  0  0  0  0  0  0  0  0  0  0  0
    4.6872   -1.7528    0.0000 H   0  0  0  0  0  0  0  0  0  0  0  0
    2.3644    5.4013    0.0000 H   0  0  0  0  0  0  0  0  0  0  0  0
    1.4379    3.7962    0.0000 H   0  0  0  0  0  0  0  0  0  0  0  0
    1.4378    4.8662    0.0000 H   0  0  0  0  0  0  0  0  0  0  0  0
    4.6872   -3.6098    0.0000 H   0  0  0  0  0  0  0  0  0  0  0  0
  1 28  1  0  0  0  0
  2 30  1  0  0  0  0
  3 14  2  0  0  0  0
  4 20  1  0  0  0  0
  4 27  1  0  0  0  0
  5 22  2  0  0  0  0
  6 23  1  0  0  0  0
  6 31  1  0  0  0  0
  7 23  2  0  0  0  0
  8 10  1  0  0  0  0
  8 13  1  0  0  0  0
  8 14  1  0  0  0  0
  9 22  1  0  0  0  0
  9 32  1  0  0  0  0
 10 12  1  0  0  0  0
 10 33  1  0  0  0  0
 10 34  1  0  0  0  0
 11  9  1  0  0  0  0
 11 14  1  0  0  0  0
 11 15  1  0  0  0  0
 11 35  1  1  0  0  0
 12 16  1  0  0  0  0
 12 36  1  0  0  0  0
 12 37  1  0  0  0  0
 13 17  1  0  0  0  0
 13 38  1  0  0  0  0
 13 39  1  0  0  0  0
 15 19  1  0  0  0  0
 15 40  1  0  0  0  0
 15 41  1  0  0  0  0
 16 18  1  0  0  0  0
 16 42  1  0  0  0  0
 16 43  1  0  0  0  0
 17 20  1  0  0  0  0
 17 44  1  0  0  0  0
 17 45  1  0  0  0  0
 18 21  1  0  0  0  0
 18 46  1  0  0  0  0
 18 47  1  0  0  0  0
 19 23  1  0  0  0  0
 19 48  1  0  0  0  0
 19 49  1  0  0  0  0
 20 50  1  0  0  0  0
 20 51  1  0  0  0  0
 21 52  1  0  0  0  0
 21 53  1  0  0  0  0
 21 54  1  0  0  0  0
 22 24  1  0  0  0  0
 24 25  2  0  0  0  0
 24 26  1  0  0  0  0
 25 28  1  0  0  0  0
 25 55  1  0  0  0  0
 26 29  2  0  0  0  0
 26 56  1  0  0  0  0
 27 57  1  0  0  0  0
 27 58  1  0  0  0  0
 27 59  1  0  0  0  0
 28 30  2  0  0  0  0
 29 30  1  0  0  0  0
 29 60  1  0  0  0  0
M  END
>  <DRUGBANK_ID>
DB04856

>  <COMMON_NAME>
Dexloxiglumide

>  <CAS_NUMBER>
119817-90-2

>  <UNII>
69DY40RH9B

>  <SYNONYMS>
Dexloxiglumida; Dexloxiglumide; Dexloxiglumidum

$$$$
