598
 OpenBabel10282417072D

 48 49  0  0  1  0  0  0  0  0999 V2000
    5.6655    1.1880    0.0000 O   0  0  0  0  0  0  0  0  0  0  0  0
    2.0930    2.4256    0.0000 O   0  0  0  0  0  0  0  0  0  0  0  0
    2.8075    3.6631    0.0000 O   0  0  0  0  0  0  0  0  0  0  0  0
    5.6655   -0.4620    0.0000 N   0  0  0  0  0  0  0  0  0  0  0  0
    4.2365    3.6631    0.0000 N   0  0  0  0  0  0  0  0  0  0  0  0
    5.6655   -1.2870    0.0000 C   0  0  3  0  0  0  0  0  0  0  0  0
    6.3799   -1.6995    0.0000 C   0  0  0  0  0  0  0  0  0  0  0  0
    4.9509   -0.0495    0.0000 C   0  0  0  0  0  0  0  0  0  0  0  0
    6.3799   -2.5246    0.0000 C   0  0  0  0  0  0  0  0  0  0  0  0
    4.9509    0.7755    0.0000 C   0  0  3  0  0  0  0  0  0  0  0  0
    4.9509   -1.6995    0.0000 C   0  0  0  0  0  0  0  0  0  0  0  0
    4.2365    1.1880    0.0000 C   0  0  0  0  0  0  0  0  0  0  0  0
    7.0944   -2.9371    0.0000 C   0  0  0  0  0  0  0  0  0  0  0  0
    4.2365    2.0130    0.0000 C   0  0  0  0  0  0  0  0  0  0  0  0
    3.5220    0.7755    0.0000 C   0  0  0  0  0  0  0  0  0  0  0  0
    7.0944   -3.7621    0.0000 C   0  0  0  0  0  0  0  0  0  0  0  0
    7.8089   -2.5246    0.0000 C   0  0  0  0  0  0  0  0  0  0  0  0
    3.5220    2.4256    0.0000 C   0  0  0  0  0  0  0  0  0  0  0  0
    2.8075    1.1880    0.0000 C   0  0  0  0  0  0  0  0  0  0  0  0
    2.8075    2.0130    0.0000 C   0  0  0  0  0  0  0  0  0  0  0  0
    7.8089   -4.1746    0.0000 C   0  0  0  0  0  0  0  0  0  0  0  0
    8.5234   -2.9371    0.0000 C   0  0  0  0  0  0  0  0  0  0  0  0
    8.5234   -3.7621    0.0000 C   0  0  0  0  0  0  0  0  0  0  0  0
    3.5220    3.2506    0.0000 C   0  0  0  0  0  0  0  0  0  0  0  0
    6.5055    0.7029    0.0000 H   0  0  0  0  0  0  0  0  0  0  0  0
    2.0931    3.3626    0.0000 H   0  0  0  0  0  0  0  0  0  0  0  0
    6.5488    0.0480    0.0000 H   0  0  0  0  0  0  0  0  0  0  0  0
    5.0891    3.1708    0.0000 H   0  0  0  0  0  0  0  0  0  0  0  0
    4.2365    4.6476    0.0000 H   0  0  0  0  0  0  0  0  0  0  0  0
    6.5922   -0.7520    0.0000 H   0  0  0  0  0  0  0  0  0  0  0  0
    7.3066   -1.1645    0.0000 H   0  0  0  0  0  0  0  0  0  0  0  0
    7.3065   -2.2345    0.0000 H   0  0  0  0  0  0  0  0  0  0  0  0
    4.0243   -0.5845    0.0000 H   0  0  0  0  0  0  0  0  0  0  0  0
    4.0242    0.4855    0.0000 H   0  0  0  0  0  0  0  0  0  0  0  0
    5.4533   -3.0596    0.0000 H   0  0  0  0  0  0  0  0  0  0  0  0
    6.3799   -3.5946    0.0000 H   0  0  0  0  0  0  0  0  0  0  0  0
    5.8775    0.2405    0.0000 H   0  0  0  0  0  0  0  0  0  0  0  0
    4.0243   -1.1644    0.0000 H   0  0  0  0  0  0  0  0  0  0  0  0
    4.9508   -2.7695    0.0000 H   0  0  0  0  0  0  0  0  0  0  0  0
    4.0242   -2.2344    0.0000 H   0  0  0  0  0  0  0  0  0  0  0  0
    5.1303    2.5290    0.0000 H   0  0  0  0  0  0  0  0  0  0  0  0
    3.5220   -0.2565    0.0000 H   0  0  0  0  0  0  0  0  0  0  0  0
    6.2007   -4.2781    0.0000 H   0  0  0  0  0  0  0  0  0  0  0  0
    7.8089   -1.4926    0.0000 H   0  0  0  0  0  0  0  0  0  0  0  0
    1.9138    0.6720    0.0000 H   0  0  0  0  0  0  0  0  0  0  0  0
    7.8089   -5.2066    0.0000 H   0  0  0  0  0  0  0  0  0  0  0  0
    9.4171   -2.4211    0.0000 H   0  0  0  0  0  0  0  0  0  0  0  0
    9.4171   -4.2781    0.0000 H   0  0  0  0  0  0  0  0  0  0  0  0
  1 10  1  0  0  0  0
  1 25  1  0  0  0  0
  2 20  1  0  0  0  0
  2 26  1  0  0  0  0
  3 24  2  0  0  0  0
  4  6  1  0  0  0  0
  4  8  1  0  0  0  0
  4 27  1  0  0  0  0
  5 24  1  0  0  0  0
  5 28  1  0  0  0  0
  5 29  1  0  0  0  0
  6  7  1  0  0  0  0
  6 11  1  0  0  0  0
  6 30  1  0  0  0  0
  7  9  1  0  0  0  0
  7 31  1  0  0  0  0
  7 32  1  0  0  0  0
  8 10  1  0  0  0  0
  8 33  1  0  0  0  0
  8 34  1  0  0  0  0
  9 13  1  0  0  0  0
  9 35  1  0  0  0  0
  9 36  1  0  0  0  0
 10 12  1  0  0  0  0
 10 37  1  0  0  0  0
 11 38  1  0  0  0  0
 11 39  1  0  0  0  0
 11 40  1  0  0  0  0
 12 14  2  0  0  0  0
 12 15  1  0  0  0  0
 13 16  2  0  0  0  0
 13 17  1  0  0  0  0
 14 18  1  0  0  0  0
 14 41  1  0  0  0  0
 15 19  2  0  0  0  0
 15 42  1  0  0  0  0
 16 21  1  0  0  0  0
 16 43  1  0  0  0  0
 17 22  2  0  0  0  0
 17 44  1  0  0  0  0
 18 20  2  0  0  0  0
 18 24  1  0  0  0  0
 19 20  1  0  0  0  0
 19 45  1  0  0  0  0
 21 23  2  0  0  0  0
 21 46  1  0  0  0  0
 22 23  1  0  0  0  0
 22 47  1  0  0  0  0
 23 48  1  0  0  0  0
M  END
>  <DRUGBANK_ID>
DB00598

>  <SECONDARY_ACCESSION_NUMBERS>
APRD01062

>  <COMMON_NAME>
Labetalol

>  <CAS_NUMBER>
36894-69-6

>  <UNII>
R5H8897N95

>  <SYNONYMS>
3-Carboxamido-4-hydroxy-alpha-((1-methyl-3-phenylpropylamino)methyl)benzyl alcohol; 5-(1-Hydroxy-2-(1-methyl-3-phenylpropylamino)ethyl)salicylamide; Lab√©talol; Labetalol; Labetalolum; Labetolol

$$$$
