
 OpenBabel10282417072D

 38 41  0  0  0  0  0  0  0  0999 V2000
    0.1310    1.6088    0.0000 O   0  0  0  0  0  0  0  0  0  0  0  0
    1.5006   -0.8028    0.0000 N   0  0  0  0  0  0  0  0  0  0  0  0
   -2.7916    0.6257    0.0000 N   0  0  0  0  0  0  0  0  0  0  0  0
   -2.7916   -0.6979    0.0000 N   0  0  0  0  0  0  0  0  0  0  0  0
    0.8256    0.3506    0.0000 C   0  0  0  0  0  0  0  0  0  0  0  0
    1.6251    0.5143    0.0000 C   0  0  0  0  0  0  0  0  0  0  0  0
    2.0446   -0.1867    0.0000 C   0  0  0  0  0  0  0  0  0  0  0  0
    0.1310    0.7831    0.0000 C   0  0  0  0  0  0  0  0  0  0  0  0
   -0.5832    0.3767    0.0000 C   0  0  1  0  0  0  0  0  0  0  0  0
    0.7470   -0.4686    0.0000 C   0  0  0  0  0  0  0  0  0  0  0  0
   -2.0184    0.3767    0.0000 C   0  0  0  0  0  0  0  0  0  0  0  0
   -2.0184   -0.4489    0.0000 C   0  0  0  0  0  0  0  0  0  0  0  0
   -1.2975    0.7831    0.0000 C   0  0  0  0  0  0  0  0  0  0  0  0
    2.0446    1.2418    0.0000 C   0  0  0  0  0  0  0  0  0  0  0  0
   -0.5832   -0.4489    0.0000 C   0  0  0  0  0  0  0  0  0  0  0  0
    2.8703   -0.1867    0.0000 C   0  0  0  0  0  0  0  0  0  0  0  0
   -1.2975   -0.8616    0.0000 C   0  0  0  0  0  0  0  0  0  0  0  0
    2.8703    1.2418    0.0000 C   0  0  0  0  0  0  0  0  0  0  0  0
    3.2766    0.5143    0.0000 C   0  0  0  0  0  0  0  0  0  0  0  0
   -3.2766   -0.0425    0.0000 C   0  0  0  0  0  0  0  0  0  0  0  0
    1.6711   -1.6088    0.0000 C   0  0  0  0  0  0  0  0  0  0  0  0
   -3.0929   -1.6351    0.0000 H   0  0  0  0  0  0  0  0  0  0  0  0
   -0.5832    1.4467    0.0000 H   0  0  0  0  0  0  0  0  0  0  0  0
   -0.1440   -0.9893    0.0000 H   0  0  0  0  0  0  0  0  0  0  0  0
   -1.2954    1.8531    0.0000 H   0  0  0  0  0  0  0  0  0  0  0  0
   -2.2209    1.3238    0.0000 H   0  0  0  0  0  0  0  0  0  0  0  0
    1.5284    2.1354    0.0000 H   0  0  0  0  0  0  0  0  0  0  0  0
    0.3435   -0.9838    0.0000 H   0  0  0  0  0  0  0  0  0  0  0  0
   -0.5829   -1.5189    0.0000 H   0  0  0  0  0  0  0  0  0  0  0  0
    3.3855   -1.0809    0.0000 H   0  0  0  0  0  0  0  0  0  0  0  0
   -1.2954   -1.9316    0.0000 H   0  0  0  0  0  0  0  0  0  0  0  0
   -0.3702   -1.3955    0.0000 H   0  0  0  0  0  0  0  0  0  0  0  0
    3.3927    2.1318    0.0000 H   0  0  0  0  0  0  0  0  0  0  0  0
    4.3086    0.5061    0.0000 H   0  0  0  0  0  0  0  0  0  0  0  0
   -4.3086   -0.0473    0.0000 H   0  0  0  0  0  0  0  0  0  0  0  0
    0.8752   -2.3240    0.0000 H   0  0  0  0  0  0  0  0  0  0  0  0
    2.6884   -1.9404    0.0000 H   0  0  0  0  0  0  0  0  0  0  0  0
    1.8925   -2.6556    0.0000 H   0  0  0  0  0  0  0  0  0  0  0  0
  1  8  2  0  0  0  0
  2  7  1  0  0  0  0
  2 10  1  0  0  0  0
  2 21  1  0  0  0  0
  3 11  1  0  0  0  0
  3 20  2  0  0  0  0
  4 12  1  0  0  0  0
  4 20  1  0  0  0  0
  4 22  1  0  0  0  0
  5  6  1  0  0  0  0
  5  8  1  0  0  0  0
  5 10  2  0  0  0  0
  6  7  2  0  0  0  0
  6 14  1  0  0  0  0
  7 16  1  0  0  0  0
  9  8  1  0  0  0  0
  9 13  1  0  0  0  0
  9 15  1  0  0  0  0
  9 23  1  1  0  0  0
 10 24  1  0  0  0  0
 11 12  2  0  0  0  0
 11 13  1  0  0  0  0
 12 17  1  0  0  0  0
 13 25  1  0  0  0  0
 13 26  1  0  0  0  0
 14 18  2  0  0  0  0
 14 27  1  0  0  0  0
 15 17  1  0  0  0  0
 15 28  1  0  0  0  0
 15 29  1  0  0  0  0
 16 19  2  0  0  0  0
 16 30  1  0  0  0  0
 17 31  1  0  0  0  0
 17 32  1  0  0  0  0
 18 19  1  0  0  0  0
 18 33  1  0  0  0  0
 19 34  1  0  0  0  0
 20 35  1  0  0  0  0
 21 36  1  0  0  0  0
 21 37  1  0  0  0  0
 21 38  1  0  0  0  0
M  END
>  <DRUGBANK_ID>
DB09290

>  <COMMON_NAME>
Ramosetron

>  <CAS_NUMBER>
132036-88-5

>  <UNII>
7ZRO0SC54Y

>  <SYNONYMS>
Ramosetron

$$$$
