UIN
 OpenBabel10282417072D

 47 49  0  0  0  0  0  0  0  0999 V2000
   -0.6994   -0.3025    0.0000 C   0  0  0  0  0  0  0  0  0  0  0  0
   -0.6994   -1.1275    0.0000 C   0  0  0  0  0  0  0  0  0  0  0  0
   -1.4139   -1.5400    0.0000 O   0  0  0  0  0  0  0  0  0  0  0  0
    0.0150   -1.5400    0.0000 O   0  0  0  0  0  0  0  0  0  0  0  0
    0.7295   -1.1275    0.0000 C   0  0  0  0  0  0  0  0  0  0  0  0
    0.7295   -0.3025    0.0000 C   0  0  0  0  0  0  0  0  0  0  0  0
    0.0150    0.1100    0.0000 C   0  0  0  0  0  0  0  0  0  0  0  0
    0.0150    0.9350    0.0000 O   0  0  0  0  0  0  0  0  0  0  0  0
   -1.4139    0.9350    0.0000 C   0  0  0  0  0  0  0  0  0  0  0  0
   -2.1284    1.3475    0.0000 C   0  0  0  0  0  0  0  0  0  0  0  0
   -2.1284    2.1725    0.0000 C   0  0  0  0  0  0  0  0  0  0  0  0
   -1.4139    2.5850    0.0000 C   0  0  0  0  0  0  0  0  0  0  0  0
   -0.6994    2.1725    0.0000 C   0  0  0  0  0  0  0  0  0  0  0  0
   -0.6994    1.3475    0.0000 C   0  0  0  0  0  0  0  0  0  0  0  0
   -1.4139    0.1100    0.0000 C   0  0  2  0  0  0  0  0  0  0  0  0
   -2.1284   -0.3025    0.0000 C   0  0  0  0  0  0  0  0  0  0  0  0
   -2.8429    0.1100    0.0000 C   0  0  0  0  0  0  0  0  0  0  0  0
    1.3129   -1.7109    0.0000 C   0  0  0  0  0  0  0  0  0  0  0  0
    2.1379   -1.7109    0.0000 C   0  0  0  0  0  0  0  0  0  0  0  0
    2.7212   -1.1275    0.0000 C   0  0  0  0  0  0  0  0  0  0  0  0
    2.7212   -0.3025    0.0000 C   0  0  0  0  0  0  0  0  0  0  0  0
    2.1379    0.2808    0.0000 C   0  0  0  0  0  0  0  0  0  0  0  0
    1.3129    0.2808    0.0000 C   0  0  0  0  0  0  0  0  0  0  0  0
   -0.9082    0.4019    0.0000 H   0  0  0  0  0  0  0  0  0  0  0  0
    0.8265    1.4035    0.0000 H   0  0  0  0  0  0  0  0  0  0  0  0
   -3.0221    0.8315    0.0000 H   0  0  0  0  0  0  0  0  0  0  0  0
   -3.0221    2.6885    0.0000 H   0  0  0  0  0  0  0  0  0  0  0  0
   -1.4139    3.6170    0.0000 H   0  0  0  0  0  0  0  0  0  0  0  0
    0.1943    2.6885    0.0000 H   0  0  0  0  0  0  0  0  0  0  0  0
    0.1943    0.8315    0.0000 H   0  0  0  0  0  0  0  0  0  0  0  0
   -2.1284   -1.3725    0.0000 H   0  0  0  0  0  0  0  0  0  0  0  0
   -3.0550   -0.8375    0.0000 H   0  0  0  0  0  0  0  0  0  0  0  0
   -2.8429    1.1800    0.0000 H   0  0  0  0  0  0  0  0  0  0  0  0
   -3.7695   -0.4250    0.0000 H   0  0  0  0  0  0  0  0  0  0  0  0
   -3.7696    0.6450    0.0000 H   0  0  0  0  0  0  0  0  0  0  0  0
    0.9034   -2.6995    0.0000 H   0  0  0  0  0  0  0  0  0  0  0  0
    1.9074   -2.6006    0.0000 H   0  0  0  0  0  0  0  0  0  0  0  0
    2.5474   -2.6994    0.0000 H   0  0  0  0  0  0  0  0  0  0  0  0
    3.1874   -1.9196    0.0000 H   0  0  0  0  0  0  0  0  0  0  0  0
    3.7098   -1.5369    0.0000 H   0  0  0  0  0  0  0  0  0  0  0  0
    3.6109   -0.5330    0.0000 H   0  0  0  0  0  0  0  0  0  0  0  0
    3.7098    0.1070    0.0000 H   0  0  0  0  0  0  0  0  0  0  0  0
    2.9299    0.7469    0.0000 H   0  0  0  0  0  0  0  0  0  0  0  0
    2.5474    1.2694    0.0000 H   0  0  0  0  0  0  0  0  0  0  0  0
    1.5434    1.1705    0.0000 H   0  0  0  0  0  0  0  0  0  0  0  0
    0.9035    1.2694    0.0000 H   0  0  0  0  0  0  0  0  0  0  0  0
    1.9074    1.1705    0.0000 H   0  0  0  0  0  0  0  0  0  0  0  0
  1  2  1  0  0  0  0
  1  7  2  0  0  0  0
  1 15  1  0  0  0  0
  2  3  2  0  0  0  0
  2  4  1  0  0  0  0
  4  5  1  0  0  0  0
  5  6  2  0  0  0  0
  5 18  1  0  0  0  0
  6  7  1  0  0  0  0
  6 23  1  0  0  0  0
  7  8  1  0  0  0  0
  8 25  1  0  0  0  0
  9 10  2  0  0  0  0
  9 14  1  0  0  0  0
  9 15  1  0  0  0  0
 10 11  1  0  0  0  0
 10 26  1  0  0  0  0
 11 12  2  0  0  0  0
 11 27  1  0  0  0  0
 12 13  1  0  0  0  0
 12 28  1  0  0  0  0
 13 14  2  0  0  0  0
 13 29  1  0  0  0  0
 14 30  1  0  0  0  0
 15 16  1  0  0  0  0
 15 24  1  6  0  0  0
 16 17  1  0  0  0  0
 16 31  1  0  0  0  0
 16 32  1  0  0  0  0
 17 33  1  0  0  0  0
 17 34  1  0  0  0  0
 17 35  1  0  0  0  0
 18 19  1  0  0  0  0
 18 36  1  0  0  0  0
 18 37  1  0  0  0  0
 19 20  1  0  0  0  0
 19 38  1  0  0  0  0
 19 39  1  0  0  0  0
 20 21  1  0  0  0  0
 20 40  1  0  0  0  0
 20 41  1  0  0  0  0
 21 22  1  0  0  0  0
 21 42  1  0  0  0  0
 21 43  1  0  0  0  0
 22 23  1  0  0  0  0
 22 44  1  0  0  0  0
 22 45  1  0  0  0  0
 23 46  1  0  0  0  0
 23 47  1  0  0  0  0
M  END
>  <DRUGBANK_ID>
DB08686

>  <COMMON_NAME>
5,6,7,8,9,10-HEXAHYDRO-4-HYDROXY-3-(1-PHENYLPROPYL)CYCLOOCTA[B]PYRAN-2-ONE

$$$$
