
 OpenBabel10282417072D

 33 35  0  0  0  0  0  0  0  0999 V2000
    1.9476    0.0533    0.0000 N   0  0  0  0  0  0  0  0  0  0  0  0
    1.9476   -0.7591    0.0000 C   0  0  0  0  0  0  0  0  0  0  0  0
    1.2570   -1.1654    0.0000 N   0  0  0  0  0  0  0  0  0  0  0  0
    0.5257   -0.7591    0.0000 C   0  0  0  0  0  0  0  0  0  0  0  0
    0.5257    0.0533    0.0000 C   0  0  0  0  0  0  0  0  0  0  0  0
    1.2570    0.4595    0.0000 C   0  0  0  0  0  0  0  0  0  0  0  0
   -0.2460   -1.0029    0.0000 N   0  0  0  0  0  0  0  0  0  0  0  0
   -0.6929   -0.3529    0.0000 C   0  0  0  0  0  0  0  0  0  0  0  0
   -0.2460    0.2970    0.0000 N   0  0  0  0  0  0  0  0  0  0  0  0
    1.2570    1.2719    0.0000 O   0  0  0  0  0  0  0  0  0  0  0  0
    2.6382   -1.1654    0.0000 O   0  0  0  0  0  0  0  0  0  0  0  0
   -0.5104    1.0653    0.0000 C   0  0  0  0  0  0  0  0  0  0  0  0
   -1.3278    1.2245    0.0000 C   0  0  0  0  0  0  0  0  0  0  0  0
   -1.6760    1.9724    0.0000 O   0  0  0  0  0  0  0  0  0  0  0  0
   -2.4950    1.8722    0.0000 C   0  0  0  0  0  0  0  0  0  0  0  0
   -2.6529    1.0625    0.0000 C   0  0  0  0  0  0  0  0  0  0  0  0
   -1.9315    0.6621    0.0000 O   0  0  0  0  0  0  0  0  0  0  0  0
    1.2261   -1.9724    0.0000 C   0  0  0  0  0  0  0  0  0  0  0  0
    2.6529    0.4567    0.0000 C   0  0  0  0  0  0  0  0  0  0  0  0
   -1.7249   -0.3529    0.0000 H   0  0  0  0  0  0  0  0  0  0  0  0
    0.1918    1.8726    0.0000 H   0  0  0  0  0  0  0  0  0  0  0  0
   -0.8584    2.0771    0.0000 H   0  0  0  0  0  0  0  0  0  0  0  0
   -2.3780    1.4292    0.0000 H   0  0  0  0  0  0  0  0  0  0  0  0
   -3.2243    2.6551    0.0000 H   0  0  0  0  0  0  0  0  0  0  0  0
   -3.5237    1.5778    0.0000 H   0  0  0  0  0  0  0  0  0  0  0  0
   -3.6229    0.6109    0.0000 H   0  0  0  0  0  0  0  0  0  0  0  0
   -2.6908   -0.0068    0.0000 H   0  0  0  0  0  0  0  0  0  0  0  0
    0.2797   -2.4716    0.0000 H   0  0  0  0  0  0  0  0  0  0  0  0
    2.1316   -2.5425    0.0000 H   0  0  0  0  0  0  0  0  0  0  0  0
    1.1852   -3.0416    0.0000 H   0  0  0  0  0  0  0  0  0  0  0  0
    3.5774   -0.0821    0.0000 H   0  0  0  0  0  0  0  0  0  0  0  0
    2.6572    1.5267    0.0000 H   0  0  0  0  0  0  0  0  0  0  0  0
    3.5817    0.9879    0.0000 H   0  0  0  0  0  0  0  0  0  0  0  0
  1  2  1  0  0  0  0
  1  6  1  0  0  0  0
  1 19  1  0  0  0  0
  2  3  1  0  0  0  0
  2 11  2  0  0  0  0
  3  4  1  0  0  0  0
  3 18  1  0  0  0  0
  4  5  2  0  0  0  0
  4  7  1  0  0  0  0
  5  6  1  0  0  0  0
  5  9  1  0  0  0  0
  6 10  2  0  0  0  0
  7  8  2  0  0  0  0
  8  9  1  0  0  0  0
  8 20  1  0  0  0  0
  9 12  1  0  0  0  0
 12 13  1  0  0  0  0
 12 21  1  0  0  0  0
 12 22  1  0  0  0  0
 13 14  1  0  0  0  0
 13 17  1  0  0  0  0
 13 23  1  0  0  0  0
 14 15  1  0  0  0  0
 15 16  1  0  0  0  0
 15 24  1  0  0  0  0
 15 25  1  0  0  0  0
 16 17  1  0  0  0  0
 16 26  1  0  0  0  0
 16 27  1  0  0  0  0
 18 28  1  0  0  0  0
 18 29  1  0  0  0  0
 18 30  1  0  0  0  0
 19 31  1  0  0  0  0
 19 32  1  0  0  0  0
 19 33  1  0  0  0  0
M  END
>  <DRUGBANK_ID>
DB09273

>  <COMMON_NAME>
Doxofylline

>  <CAS_NUMBER>
69975-86-6

>  <UNII>
MPM23GMO7Z

>  <SYNONYMS>
doxofilina; Doxofylline; Doxophylline

$$$$
