
 OpenBabel10282417072D

 42 43  0  0  0  0  0  0  0  0999 V2000
    0.7145   -2.8875    0.0000 C   0  0  0  0  0  0  0  0  0  0  0  0
    0.7145   -2.0625    0.0000 C   0  0  3  0  0  0  0  0  0  0  0  0
    0.0000   -1.6500    0.0000 C   0  0  0  0  0  0  0  0  0  0  0  0
   -0.7145   -2.0625    0.0000 C   0  0  0  0  0  0  0  0  0  0  0  0
   -1.4289   -1.6500    0.0000 C   0  0  0  0  0  0  0  0  0  0  0  0
   -2.1434   -2.0625    0.0000 C   0  0  0  0  0  0  0  0  0  0  0  0
   -2.8579   -1.6500    0.0000 C   0  0  0  0  0  0  0  0  0  0  0  0
   -2.8579   -0.8250    0.0000 C   0  0  0  0  0  0  0  0  0  0  0  0
   -2.1434   -0.4125    0.0000 C   0  0  0  0  0  0  0  0  0  0  0  0
   -1.4289   -0.8250    0.0000 C   0  0  0  0  0  0  0  0  0  0  0  0
   -0.7145   -2.8875    0.0000 C   0  0  0  0  0  0  0  0  0  0  0  0
    0.0000   -3.3000    0.0000 C   0  0  0  0  0  0  0  0  0  0  0  0
    0.0000   -4.1250    0.0000 C   0  0  0  0  0  0  0  0  0  0  0  0
   -0.7145   -4.5375    0.0000 C   0  0  0  0  0  0  0  0  0  0  0  0
   -1.4289   -4.1250    0.0000 C   0  0  0  0  0  0  0  0  0  0  0  0
   -1.4289   -3.3000    0.0000 C   0  0  0  0  0  0  0  0  0  0  0  0
    1.4289   -1.6500    0.0000 N   0  0  0  0  0  0  0  0  0  0  0  0
    1.4289   -0.8250    0.0000 C   0  0  0  0  0  0  0  0  0  0  0  0
    2.1434   -2.0625    0.0000 C   0  0  0  0  0  0  0  0  0  0  0  0
   -0.2121   -3.4225    0.0000 H   0  0  0  0  0  0  0  0  0  0  0  0
    1.6411   -3.4225    0.0000 H   0  0  0  0  0  0  0  0  0  0  0  0
    0.7145   -3.9575    0.0000 H   0  0  0  0  0  0  0  0  0  0  0  0
   -0.2121   -2.5975    0.0000 H   0  0  0  0  0  0  0  0  0  0  0  0
    0.0000   -0.5800    0.0000 H   0  0  0  0  0  0  0  0  0  0  0  0
   -0.9266   -1.1150    0.0000 H   0  0  0  0  0  0  0  0  0  0  0  0
   -1.6412   -2.5975    0.0000 H   0  0  0  0  0  0  0  0  0  0  0  0
   -2.1434   -3.0945    0.0000 H   0  0  0  0  0  0  0  0  0  0  0  0
   -3.7516   -2.1660    0.0000 H   0  0  0  0  0  0  0  0  0  0  0  0
   -3.7516   -0.3090    0.0000 H   0  0  0  0  0  0  0  0  0  0  0  0
   -2.1434    0.6195    0.0000 H   0  0  0  0  0  0  0  0  0  0  0  0
   -0.5352   -0.3090    0.0000 H   0  0  0  0  0  0  0  0  0  0  0  0
    0.8937   -2.7840    0.0000 H   0  0  0  0  0  0  0  0  0  0  0  0
    0.8937   -4.6410    0.0000 H   0  0  0  0  0  0  0  0  0  0  0  0
   -0.7145   -5.5695    0.0000 H   0  0  0  0  0  0  0  0  0  0  0  0
   -2.3226   -4.6410    0.0000 H   0  0  0  0  0  0  0  0  0  0  0  0
   -2.3226   -2.7840    0.0000 H   0  0  0  0  0  0  0  0  0  0  0  0
    2.3555   -0.2900    0.0000 H   0  0  0  0  0  0  0  0  0  0  0  0
    0.5023   -0.2900    0.0000 H   0  0  0  0  0  0  0  0  0  0  0  0
    1.4289    0.2450    0.0000 H   0  0  0  0  0  0  0  0  0  0  0  0
    2.1434   -3.1325    0.0000 H   0  0  0  0  0  0  0  0  0  0  0  0
    3.0700   -1.5275    0.0000 H   0  0  0  0  0  0  0  0  0  0  0  0
    3.0701   -2.5975    0.0000 H   0  0  0  0  0  0  0  0  0  0  0  0
  1  2  1  0  0  0  0
  1 20  1  0  0  0  0
  1 21  1  0  0  0  0
  1 22  1  0  0  0  0
  2  3  1  0  0  0  0
  2 17  1  0  0  0  0
  2 23  1  0  0  0  0
  3  4  1  0  0  0  0
  3 24  1  0  0  0  0
  3 25  1  0  0  0  0
  4  5  1  0  0  0  0
  4 11  1  0  0  0  0
  4 26  1  0  0  0  0
  5  6  2  0  0  0  0
  5 10  1  0  0  0  0
  6  7  1  0  0  0  0
  6 27  1  0  0  0  0
  7  8  2  0  0  0  0
  7 28  1  0  0  0  0
  8  9  1  0  0  0  0
  8 29  1  0  0  0  0
  9 10  2  0  0  0  0
  9 30  1  0  0  0  0
 10 31  1  0  0  0  0
 11 12  2  0  0  0  0
 11 16  1  0  0  0  0
 12 13  1  0  0  0  0
 12 32  1  0  0  0  0
 13 14  2  0  0  0  0
 13 33  1  0  0  0  0
 14 15  1  0  0  0  0
 14 34  1  0  0  0  0
 15 16  2  0  0  0  0
 15 35  1  0  0  0  0
 16 36  1  0  0  0  0
 17 18  1  0  0  0  0
 17 19  1  0  0  0  0
 18 37  1  0  0  0  0
 18 38  1  0  0  0  0
 18 39  1  0  0  0  0
 19 40  1  0  0  0  0
 19 41  1  0  0  0  0
 19 42  1  0  0  0  0
M  END
>  <DRUGBANK_ID>
DB13361

>  <COMMON_NAME>
Trimethyldiphenylpropylamine

>  <CAS_NUMBER>
13957-55-6

>  <UNII>
P4X899446U

$$$$
