
 OpenBabel10282417072D

 25 26  0  0  0  0  0  0  0  0999 V2000
    0.6529   -0.4068    0.0000 C   0  0  0  0  0  0  0  0  0  0  0  0
   -0.0469   -0.8308    0.0000 O   0  0  0  0  0  0  0  0  0  0  0  0
    1.3956   -0.8223    0.0000 C   0  0  0  0  0  0  0  0  0  0  0  0
    0.6529    0.4182    0.0000 C   0  0  0  0  0  0  0  0  0  0  0  0
   -0.7782   -0.4097    0.0000 C   0  0  0  0  0  0  0  0  0  0  0  0
    2.0871   -0.3955    0.0000 C   0  0  0  0  0  0  0  0  0  0  0  0
    1.3671    0.8308    0.0000 C   0  0  0  0  0  0  0  0  0  0  0  0
   -1.4781   -0.8308    0.0000 C   0  0  0  0  0  0  0  0  0  0  0  0
   -0.7782    0.4153    0.0000 C   0  0  0  0  0  0  0  0  0  0  0  0
    2.0871    0.4182    0.0000 C   0  0  0  0  0  0  0  0  0  0  0  0
    2.8296   -0.8194    0.0000 C   0  0  0  0  0  0  0  0  0  0  0  0
   -2.1952   -0.4296    0.0000 N   0  0  0  0  0  0  0  0  0  0  0  0
   -1.5038    0.8023    0.0000 N   0  0  0  0  0  0  0  0  0  0  0  0
   -2.2036    0.3556    0.0000 C   0  0  0  0  0  0  0  0  0  0  0  0
   -2.8296    0.7596    0.0000 O   0  0  0  0  0  0  0  0  0  0  0  0
    1.4177   -1.8541    0.0000 H   0  0  0  0  0  0  0  0  0  0  0  0
   -0.2409    0.9341    0.0000 H   0  0  0  0  0  0  0  0  0  0  0  0
    1.3653    1.8628    0.0000 H   0  0  0  0  0  0  0  0  0  0  0  0
   -1.4618   -1.8627    0.0000 H   0  0  0  0  0  0  0  0  0  0  0  0
    0.1067    0.9463    0.0000 H   0  0  0  0  0  0  0  0  0  0  0  0
    2.9800    0.9356    0.0000 H   0  0  0  0  0  0  0  0  0  0  0  0
    2.8348   -1.8894    0.0000 H   0  0  0  0  0  0  0  0  0  0  0  0
    3.7536   -0.2799    0.0000 H   0  0  0  0  0  0  0  0  0  0  0  0
    3.7588   -1.3499    0.0000 H   0  0  0  0  0  0  0  0  0  0  0  0
   -1.5423    1.7860    0.0000 H   0  0  0  0  0  0  0  0  0  0  0  0
  1  2  1  0  0  0  0
  1  3  2  0  0  0  0
  1  4  1  0  0  0  0
  2  5  1  0  0  0  0
  3  6  1  0  0  0  0
  3 16  1  0  0  0  0
  4  7  2  0  0  0  0
  4 17  1  0  0  0  0
  5  8  1  0  0  0  0
  5  9  2  0  0  0  0
  6 10  2  0  0  0  0
  6 11  1  0  0  0  0
  7 10  1  0  0  0  0
  7 18  1  0  0  0  0
  8 12  2  0  0  0  0
  8 19  1  0  0  0  0
  9 13  1  0  0  0  0
  9 20  1  0  0  0  0
 10 21  1  0  0  0  0
 11 22  1  0  0  0  0
 11 23  1  0  0  0  0
 11 24  1  0  0  0  0
 12 14  1  0  0  0  0
 13 14  1  0  0  0  0
 13 25  1  0  0  0  0
 14 15  2  0  0  0  0
M  END
>  <DRUGBANK_ID>
DB16841

>  <COMMON_NAME>
Tolimidone

>  <CAS_NUMBER>
41964-07-2

>  <UNII>
MU3JD8E9IS

>  <SYNONYMS>
Tolimidone

$$$$
