
 OpenBabel10282417072D

 75 79  0  0  1  0  0  0  0  0999 V2000
    6.1418   -0.5791    0.0000 C   0  0  0  0  0  0  0  0  0  0  0  0
    5.8398   -1.7060    0.0000 C   0  0  0  0  0  0  0  0  0  0  0  0
    5.0148   -0.2771    0.0000 C   0  0  0  0  0  0  0  0  0  0  0  0
    1.8549   -2.2291    0.0000 C   0  0  0  0  0  0  0  0  0  0  0  0
    4.7128    0.2459    0.0000 C   0  0  0  0  0  0  0  0  0  0  0  0
    2.5694    3.9584    0.0000 C   0  0  0  0  0  0  0  0  0  0  0  0
    4.7128    1.0709    0.0000 C   0  0  0  0  0  0  0  0  0  0  0  0
    3.9983   -0.1666    0.0000 C   0  0  0  0  0  0  0  0  0  0  0  0
    1.8549    3.5459    0.0000 C   0  0  0  0  0  0  0  0  0  0  0  0
    3.2839    3.5459    0.0000 C   0  0  0  0  0  0  0  0  0  0  0  0
    3.9983    1.4834    0.0000 C   0  0  0  0  0  0  0  0  0  0  0  0
    3.2839    0.2459    0.0000 C   0  0  0  0  0  0  0  0  0  0  0  0
    1.8549    2.7209    0.0000 C   0  0  0  0  0  0  0  0  0  0  0  0
    3.2839    2.7209    0.0000 C   0  0  0  0  0  0  0  0  0  0  0  0
    4.7128   -2.2291    0.0000 C   0  0  0  0  0  0  0  0  0  0  0  0
    3.9983   -2.6416    0.0000 C   0  0  0  0  0  0  0  0  0  0  0  0
    0.4260    0.2459    0.0000 C   0  0  0  0  0  0  0  0  0  0  0  0
    1.0030    0.3834    0.0000 C   0  0  0  0  0  0  0  0  0  0  0  0
    0.4260    1.0709    0.0000 C   0  0  0  0  0  0  0  0  0  0  0  0
    1.0030    0.9334    0.0000 C   0  0  0  0  0  0  0  0  0  0  0  0
    3.9983   -0.9916    0.0000 C   0  0  0  0  0  0  0  0  0  0  0  0
    2.5694   -0.9916    0.0000 C   0  0  0  0  0  0  0  0  0  0  0  0
    3.2839    1.0709    0.0000 C   0  0  0  0  0  0  0  0  0  0  0  0
    2.5694    2.3084    0.0000 C   0  0  0  0  0  0  0  0  0  0  0  0
    1.1405   -0.1666    0.0000 C   0  0  3  0  0  0  0  0  0  0  0  0
    3.2839   -1.4041    0.0000 C   0  0  0  0  0  0  0  0  0  0  0  0
    4.7128   -1.4041    0.0000 C   0  0  0  0  0  0  0  0  0  0  0  0
    3.2839   -2.2291    0.0000 C   0  0  0  0  0  0  0  0  0  0  0  0
    2.5694    1.4834    0.0000 C   0  0  0  0  0  0  0  0  0  0  0  0
    1.8549    0.2459    0.0000 C   0  0  1  0  0  0  0  0  0  0  0  0
    1.8549    1.0709    0.0000 C   0  0  1  0  0  0  0  0  0  0  0  0
    5.4273   -0.9916    0.0000 C   0  0  0  0  0  0  0  0  0  0  0  0
    2.5694   -0.1666    0.0000 N   0  0  0  0  0  0  0  0  0  0  0  0
    1.1405    1.4834    0.0000 N   0  0  3  0  0  0  0  0  0  0  0  0
    2.5694   -2.6416    0.0000 O   0  0  0  0  0  0  0  0  0  0  0  0
    2.5694    0.6584    0.0000 H   0  0  0  0  0  0  0  0  0  0  0  0
    1.8549    1.8959    0.0000 H   0  0  0  0  0  0  0  0  0  0  0  0
    7.0684   -1.1141    0.0000 H   0  0  0  0  0  0  0  0  0  0  0  0
    6.1418    0.4909    0.0000 H   0  0  0  0  0  0  0  0  0  0  0  0
    7.0685   -0.0441    0.0000 H   0  0  0  0  0  0  0  0  0  0  0  0
    5.3048   -2.6327    0.0000 H   0  0  0  0  0  0  0  0  0  0  0  0
    6.9098   -1.7060    0.0000 H   0  0  0  0  0  0  0  0  0  0  0  0
    6.3748   -2.6326    0.0000 H   0  0  0  0  0  0  0  0  0  0  0  0
    5.5498    0.6495    0.0000 H   0  0  0  0  0  0  0  0  0  0  0  0
    3.9448   -0.2771    0.0000 H   0  0  0  0  0  0  0  0  0  0  0  0
    4.4798    0.6496    0.0000 H   0  0  0  0  0  0  0  0  0  0  0  0
    1.8549   -1.1591    0.0000 H   0  0  0  0  0  0  0  0  0  0  0  0
    0.9283   -2.7641    0.0000 H   0  0  0  0  0  0  0  0  0  0  0  0
    0.9282   -1.6941    0.0000 H   0  0  0  0  0  0  0  0  0  0  0  0
    5.6065   -0.2701    0.0000 H   0  0  0  0  0  0  0  0  0  0  0  0
    2.5694    4.9904    0.0000 H   0  0  0  0  0  0  0  0  0  0  0  0
    5.6065    1.5869    0.0000 H   0  0  0  0  0  0  0  0  0  0  0  0
    3.9983   -1.1986    0.0000 H   0  0  0  0  0  0  0  0  0  0  0  0
    0.9612    4.0619    0.0000 H   0  0  0  0  0  0  0  0  0  0  0  0
    4.1776    4.0619    0.0000 H   0  0  0  0  0  0  0  0  0  0  0  0
    3.9983    2.5154    0.0000 H   0  0  0  0  0  0  0  0  0  0  0  0
    2.3902   -0.2701    0.0000 H   0  0  0  0  0  0  0  0  0  0  0  0
    0.9612    2.2049    0.0000 H   0  0  0  0  0  0  0  0  0  0  0  0
    4.1776    2.2049    0.0000 H   0  0  0  0  0  0  0  0  0  0  0  0
    5.6065   -2.7451    0.0000 H   0  0  0  0  0  0  0  0  0  0  0  0
    3.9983   -3.6736    0.0000 H   0  0  0  0  0  0  0  0  0  0  0  0
   -0.5006   -0.2891    0.0000 H   0  0  0  0  0  0  0  0  0  0  0  0
    0.4260   -0.8241    0.0000 H   0  0  0  0  0  0  0  0  0  0  0  0
   -0.0590    0.2527    0.0000 H   0  0  0  0  0  0  0  0  0  0  0  0
    0.3974   -0.4987    0.0000 H   0  0  0  0  0  0  0  0  0  0  0  0
   -0.5006    1.6059    0.0000 H   0  0  0  0  0  0  0  0  0  0  0  0
    0.4260    2.1409    0.0000 H   0  0  0  0  0  0  0  0  0  0  0  0
   -0.0590    1.0641    0.0000 H   0  0  0  0  0  0  0  0  0  0  0  0
    0.3974    1.8155    0.0000 H   0  0  0  0  0  0  0  0  0  0  0  0
    3.9983    0.0404    0.0000 H   0  0  0  0  0  0  0  0  0  0  0  0
    1.6428   -1.5266    0.0000 H   0  0  0  0  0  0  0  0  0  0  0  0
    1.6428   -0.4566    0.0000 H   0  0  0  0  0  0  0  0  0  0  0  0
    0.4963    0.6877    0.0000 H   0  0  0  0  0  0  0  0  0  0  0  0
    1.6428    2.0184    0.0000 H   0  0  0  0  0  0  0  0  0  0  0  0
    3.4527    0.3434    0.0000 H   0  0  0  0  0  0  0  0  0  0  0  0
  1 38  1  0  0  0  0
  1 39  1  0  0  0  0
  1 40  1  0  0  0  0
  2 41  1  0  0  0  0
  2 42  1  0  0  0  0
  2 43  1  0  0  0  0
  3 44  1  0  0  0  0
  3 45  1  0  0  0  0
  3 46  1  0  0  0  0
  4 47  1  0  0  0  0
  4 48  1  0  0  0  0
  4 49  1  0  0  0  0
  5 50  1  0  0  0  0
  6 51  1  0  0  0  0
  7  5  2  0  0  0  0
  7 52  1  0  0  0  0
  8  5  1  0  0  0  0
  8 53  1  0  0  0  0
  9  6  2  0  0  0  0
  9 54  1  0  0  0  0
 10  6  1  0  0  0  0
 10 55  1  0  0  0  0
 11  7  1  0  0  0  0
 11 56  1  0  0  0  0
 12  8  2  0  0  0  0
 12 57  1  0  0  0  0
 13  9  1  0  0  0  0
 13 58  1  0  0  0  0
 14 10  2  0  0  0  0
 14 59  1  0  0  0  0
 15 60  1  0  0  0  0
 16 15  1  0  0  0  0
 16 61  1  0  0  0  0
 17 62  1  0  0  0  0
 17 63  1  0  0  0  0
 18 64  1  0  0  0  0
 18 65  1  0  0  0  0
 19 17  1  0  0  0  0
 19 66  1  0  0  0  0
 19 67  1  0  0  0  0
 20 18  1  0  0  0  0
 20 68  1  0  0  0  0
 20 69  1  0  0  0  0
 21 70  1  0  0  0  0
 22 71  1  0  0  0  0
 22 72  1  0  0  0  0
 23 11  2  0  0  0  0
 23 12  1  0  0  0  0
 24 13  2  0  0  0  0
 24 14  1  0  0  0  0
 25 17  1  0  0  0  0
 25 18  1  0  0  0  0
 25 73  1  0  0  0  0
 26 21  2  0  0  0  0
 26 22  1  0  0  0  0
 27 15  2  0  0  0  0
 27 21  1  0  0  0  0
 28 16  2  0  0  0  0
 28 26  1  0  0  0  0
 29 23  1  0  0  0  0
 29 24  1  0  0  0  0
 29 74  1  0  0  0  0
 30 25  1  0  0  0  0
 30 33  1  0  0  0  0
 30 36  1  6  0  0  0
 31 29  1  0  0  0  0
 31 30  1  0  0  0  0
 31 37  1  6  0  0  0
 32  1  1  0  0  0  0
 32  2  1  0  0  0  0
 32  3  1  0  0  0  0
 32 27  1  0  0  0  0
 33 22  1  0  0  0  0
 33 75  1  0  0  0  0
 34 19  1  0  0  0  0
 34 20  1  0  0  0  0
 34 31  1  0  0  0  0
 35  4  1  0  0  0  0
 35 28  1  0  0  0  0
M  END
>  <DRUGBANK_ID>
DB11427

>  <COMMON_NAME>
Maropitant

>  <CAS_NUMBER>
147116-67-4

>  <UNII>
4XE2T9H4DH

>  <SYNONYMS>
Maropitant

$$$$
