
 OpenBabel10282417072D

 44 47  0  0  0  0  0  0  0  0999 V2000
    0.3020   -1.7309    0.0000 C   0  0  0  0  0  0  0  0  0  0  0  0
    1.1270   -1.7309    0.0000 C   0  0  0  0  0  0  0  0  0  0  0  0
    1.5395   -1.0164    0.0000 N   0  3  0  0  0  0  0  0  0  0  0  0
    2.3645   -1.0164    0.0000 C   0  0  0  0  0  0  0  0  0  0  0  0
    2.7770   -1.7309    0.0000 C   0  0  0  0  0  0  0  0  0  0  0  0
    3.6020   -1.7309    0.0000 C   0  0  0  0  0  0  0  0  0  0  0  0
    4.0145   -2.4454    0.0000 C   0  0  0  0  0  0  0  0  0  0  0  0
    3.6020   -3.1599    0.0000 C   0  0  0  0  0  0  0  0  0  0  0  0
    2.7770   -3.1599    0.0000 C   0  0  0  0  0  0  0  0  0  0  0  0
    2.3645   -2.4454    0.0000 C   0  0  0  0  0  0  0  0  0  0  0  0
    2.7770   -0.3020    0.0000 C   0  0  0  0  0  0  0  0  0  0  0  0
    2.3645    0.4125    0.0000 C   0  0  0  0  0  0  0  0  0  0  0  0
    2.7770    1.1270    0.0000 C   0  0  0  0  0  0  0  0  0  0  0  0
    3.6020    1.1270    0.0000 C   0  0  0  0  0  0  0  0  0  0  0  0
    4.0145    0.4125    0.0000 C   0  0  0  0  0  0  0  0  0  0  0  0
    4.8395    0.4125    0.0000 N   0  0  0  0  0  0  0  0  0  0  0  0
    3.6020   -0.3020    0.0000 C   0  0  0  0  0  0  0  0  0  0  0  0
    1.5395    0.4125    0.0000 C   0  0  0  0  0  0  0  0  0  0  0  0
    1.1270   -0.3020    0.0000 C   0  0  0  0  0  0  0  0  0  0  0  0
    0.3020   -0.3020    0.0000 C   0  0  0  0  0  0  0  0  0  0  0  0
   -0.1105    0.4125    0.0000 C   0  0  0  0  0  0  0  0  0  0  0  0
   -0.9355    0.4125    0.0000 N   0  0  0  0  0  0  0  0  0  0  0  0
    0.3020    1.1270    0.0000 C   0  0  0  0  0  0  0  0  0  0  0  0
    1.1270    1.1270    0.0000 C   0  0  0  0  0  0  0  0  0  0  0  0
   -0.2330   -0.8043    0.0000 H   0  0  0  0  0  0  0  0  0  0  0  0
   -0.2330   -2.6575    0.0000 H   0  0  0  0  0  0  0  0  0  0  0  0
   -0.7680   -1.7309    0.0000 H   0  0  0  0  0  0  0  0  0  0  0  0
    1.6620   -2.6575    0.0000 H   0  0  0  0  0  0  0  0  0  0  0  0
    2.1970   -1.7309    0.0000 H   0  0  0  0  0  0  0  0  0  0  0  0
    4.1180   -0.8372    0.0000 H   0  0  0  0  0  0  0  0  0  0  0  0
    5.0465   -2.4454    0.0000 H   0  0  0  0  0  0  0  0  0  0  0  0
    4.1180   -4.0536    0.0000 H   0  0  0  0  0  0  0  0  0  0  0  0
    2.2610   -4.0536    0.0000 H   0  0  0  0  0  0  0  0  0  0  0  0
    1.3325   -2.4454    0.0000 H   0  0  0  0  0  0  0  0  0  0  0  0
    2.2610    2.0207    0.0000 H   0  0  0  0  0  0  0  0  0  0  0  0
    4.1180    2.0207    0.0000 H   0  0  0  0  0  0  0  0  0  0  0  0
    5.3318   -0.4401    0.0000 H   0  0  0  0  0  0  0  0  0  0  0  0
    5.3318    1.2651    0.0000 H   0  0  0  0  0  0  0  0  0  0  0  0
    4.1180   -1.1957    0.0000 H   0  0  0  0  0  0  0  0  0  0  0  0
   -0.2140   -1.1957    0.0000 H   0  0  0  0  0  0  0  0  0  0  0  0
   -1.4278    1.2651    0.0000 H   0  0  0  0  0  0  0  0  0  0  0  0
   -1.4278   -0.4401    0.0000 H   0  0  0  0  0  0  0  0  0  0  0  0
   -0.2140    2.0207    0.0000 H   0  0  0  0  0  0  0  0  0  0  0  0
    1.6430    2.0207    0.0000 H   0  0  0  0  0  0  0  0  0  0  0  0
  1  2  1  0  0  0  0
  1 25  1  0  0  0  0
  1 26  1  0  0  0  0
  1 27  1  0  0  0  0
  2  3  1  0  0  0  0
  2 28  1  0  0  0  0
  2 29  1  0  0  0  0
  3  4  2  0  0  0  0
  3 19  1  0  0  0  0
  4  5  1  0  0  0  0
  4 11  1  0  0  0  0
  5  6  2  0  0  0  0
  5 10  1  0  0  0  0
  6  7  1  0  0  0  0
  6 30  1  0  0  0  0
  7  8  2  0  0  0  0
  7 31  1  0  0  0  0
  8  9  1  0  0  0  0
  8 32  1  0  0  0  0
  9 10  2  0  0  0  0
  9 33  1  0  0  0  0
 10 34  1  0  0  0  0
 11 12  2  0  0  0  0
 11 17  1  0  0  0  0
 12 13  1  0  0  0  0
 12 18  1  0  0  0  0
 13 14  2  0  0  0  0
 13 35  1  0  0  0  0
 14 15  1  0  0  0  0
 14 36  1  0  0  0  0
 15 16  1  0  0  0  0
 15 17  2  0  0  0  0
 16 37  1  0  0  0  0
 16 38  1  0  0  0  0
 17 39  1  0  0  0  0
 18 19  2  0  0  0  0
 18 24  1  0  0  0  0
 19 20  1  0  0  0  0
 20 21  2  0  0  0  0
 20 40  1  0  0  0  0
 21 22  1  0  0  0  0
 21 23  1  0  0  0  0
 22 41  1  0  0  0  0
 22 42  1  0  0  0  0
 23 24  2  0  0  0  0
 23 43  1  0  0  0  0
 24 44  1  0  0  0  0
M  CHG  1   3   1
M  END
>  <DRUGBANK_ID>
DB17031

>  <COMMON_NAME>
Homidium

>  <CAS_NUMBER>
3546-21-2

>  <UNII>
EN464416SI

>  <SYNONYMS>
2,7-diamino-10-ethyl-9-phenylphenanthridinium; 2,7-diamino-9-phenyl-10-ethylphenanthridinium; 3,8-diamino-5-ethyl-6-phenylphenanthridinium; Babidium; Ethidium; Homidium cation; Homidium ion; Novidium

$$$$
