
 OpenBabel10282417072D

 70 72  0  0  0  0  0  0  0  0999 V2000
    1.4165    7.2286    0.0000 C   0  0  0  0  0  0  0  0  0  0  0  0
   -3.6918    6.4254    0.0000 C   0  0  0  0  0  0  0  0  0  0  0  0
    0.2221    5.6554    0.0000 C   0  0  0  0  0  0  0  0  0  0  0  0
   -1.5641    5.9383    0.0000 C   0  0  0  0  0  0  0  0  0  0  0  0
    0.8230    6.6555    0.0000 C   0  0  0  0  0  0  0  0  0  0  0  0
   -2.9634    6.8127    0.0000 C   0  0  0  0  0  0  0  0  0  0  0  0
   -1.1517    1.1121    0.0000 C   0  0  0  0  0  0  0  0  0  0  0  0
   -0.4372    1.5246    0.0000 C   0  0  0  0  0  0  0  0  0  0  0  0
   -1.8661    1.5246    0.0000 C   0  0  0  0  0  0  0  0  0  0  0  0
    0.2348    3.1078    0.0000 C   0  0  0  0  0  0  0  0  0  0  0  0
   -0.7578    4.1357    0.0000 C   0  0  0  0  0  0  0  0  0  0  0  0
   -1.1018    4.1902    0.0000 C   0  0  0  0  0  0  0  0  0  0  0  0
   -2.3635    3.5194    0.0000 C   0  0  0  0  0  0  0  0  0  0  0  0
    0.8283    3.6809    0.0000 C   0  0  0  0  0  0  0  0  0  0  0  0
   -0.1643    4.7088    0.0000 C   0  0  0  0  0  0  0  0  0  0  0  0
   -1.4891    4.9186    0.0000 C   0  0  0  0  0  0  0  0  0  0  0  0
   -2.7508    4.2478    0.0000 C   0  0  0  0  0  0  0  0  0  0  0  0
   -0.4372    2.3496    0.0000 C   0  0  0  0  0  0  0  0  0  0  0  0
   -1.8661    2.3496    0.0000 C   0  0  0  0  0  0  0  0  0  0  0  0
   -0.5582    3.3352    0.0000 C   0  0  0  0  0  0  0  0  0  0  0  0
   -1.5390    3.4906    0.0000 C   0  0  0  0  0  0  0  0  0  0  0  0
    0.6287    4.4814    0.0000 C   0  0  0  0  0  0  0  0  0  0  0  0
   -2.3136    4.9474    0.0000 C   0  0  0  0  0  0  0  0  0  0  0  0
    1.8231    6.0546    0.0000 C   0  0  0  0  0  0  0  0  0  0  0  0
   -1.8265    7.0751    0.0000 C   0  0  0  0  0  0  0  0  0  0  0  0
    1.0226    5.8550    0.0000 C   0  0  3  0  0  0  0  0  0  0  0  0
   -2.2637    6.3755    0.0000 C   0  0  3  0  0  0  0  0  0  0  0  0
   -1.1517    2.7621    0.0000 C   0  0  0  0  0  0  0  0  0  0  0  0
    2.0505    6.8476    0.0000 O   0  0  0  0  0  0  0  0  0  0  0  0
    2.3962    5.4611    0.0000 O   0  0  0  0  0  0  0  0  0  0  0  0
   -1.0020    7.0464    0.0000 O   0  0  0  0  0  0  0  0  0  0  0  0
   -2.2139    7.8036    0.0000 O   0  0  0  0  0  0  0  0  0  0  0  0
    1.2222    5.0545    0.0000 O   0  0  0  0  0  0  0  0  0  0  0  0
   -2.7009    5.6759    0.0000 O   0  0  0  0  0  0  0  0  0  0  0  0
    2.4450    6.9336    0.0000 H   0  0  0  0  0  0  0  0  0  0  0  0
    1.1577    8.2668    0.0000 H   0  0  0  0  0  0  0  0  0  0  0  0
    2.1862    7.9719    0.0000 H   0  0  0  0  0  0  0  0  0  0  0  0
   -4.5992    6.9924    0.0000 H   0  0  0  0  0  0  0  0  0  0  0  0
   -3.7291    5.3561    0.0000 H   0  0  0  0  0  0  0  0  0  0  0  0
   -4.6366    5.9231    0.0000 H   0  0  0  0  0  0  0  0  0  0  0  0
   -0.5212    6.4251    0.0000 H   0  0  0  0  0  0  0  0  0  0  0  0
   -0.0728    4.6268    0.0000 H   0  0  0  0  0  0  0  0  0  0  0  0
   -0.8161    5.3965    0.0000 H   0  0  0  0  0  0  0  0  0  0  0  0
   -1.6015    4.8690    0.0000 H   0  0  0  0  0  0  0  0  0  0  0  0
   -0.6193    6.4406    0.0000 H   0  0  0  0  0  0  0  0  0  0  0  0
   -0.6567    5.3712    0.0000 H   0  0  0  0  0  0  0  0  0  0  0  0
   -0.2055    6.9504    0.0000 H   0  0  0  0  0  0  0  0  0  0  0  0
    0.0533    5.9122    0.0000 H   0  0  0  0  0  0  0  0  0  0  0  0
   -2.9261    7.8820    0.0000 H   0  0  0  0  0  0  0  0  0  0  0  0
   -2.0187    7.3151    0.0000 H   0  0  0  0  0  0  0  0  0  0  0  0
   -1.1517    0.0421    0.0000 H   0  0  0  0  0  0  0  0  0  0  0  0
   -2.0784    0.5771    0.0000 H   0  0  0  0  0  0  0  0  0  0  0  0
    0.4894    0.9896    0.0000 H   0  0  0  0  0  0  0  0  0  0  0  0
    0.4894    2.0596    0.0000 H   0  0  0  0  0  0  0  0  0  0  0  0
   -2.7928    0.9896    0.0000 H   0  0  0  0  0  0  0  0  0  0  0  0
   -2.7927    2.0596    0.0000 H   0  0  0  0  0  0  0  0  0  0  0  0
    0.4844    2.1064    0.0000 H   0  0  0  0  0  0  0  0  0  0  0  0
   -1.7498    4.4202    0.0000 H   0  0  0  0  0  0  0  0  0  0  0  0
   -0.0704    4.1542    0.0000 H   0  0  0  0  0  0  0  0  0  0  0  0
   -2.9104    2.6442    0.0000 H   0  0  0  0  0  0  0  0  0  0  0  0
    1.8203    3.3964    0.0000 H   0  0  0  0  0  0  0  0  0  0  0  0
   -0.4139    5.7102    0.0000 H   0  0  0  0  0  0  0  0  0  0  0  0
   -0.9422    5.7938    0.0000 H   0  0  0  0  0  0  0  0  0  0  0  0
   -3.7822    4.2838    0.0000 H   0  0  0  0  0  0  0  0  0  0  0  0
    0.4894    2.8846    0.0000 H   0  0  0  0  0  0  0  0  0  0  0  0
   -0.4372    3.4196    0.0000 H   0  0  0  0  0  0  0  0  0  0  0  0
   -2.7928    2.8846    0.0000 H   0  0  0  0  0  0  0  0  0  0  0  0
   -1.8661    3.4196    0.0000 H   0  0  0  0  0  0  0  0  0  0  0  0
    2.1379    4.5604    0.0000 H   0  0  0  0  0  0  0  0  0  0  0  0
   -1.7174    8.5982    0.0000 H   0  0  0  0  0  0  0  0  0  0  0  0
  1 35  1  0  0  0  0
  1 36  1  0  0  0  0
  1 37  1  0  0  0  0
  2 38  1  0  0  0  0
  2 39  1  0  0  0  0
  2 40  1  0  0  0  0
  3 41  1  0  0  0  0
  3 42  1  0  0  0  0
  3 43  1  0  0  0  0
  4 44  1  0  0  0  0
  4 45  1  0  0  0  0
  4 46  1  0  0  0  0
  5  1  1  0  0  0  0
  5 47  1  0  0  0  0
  5 48  1  0  0  0  0
  6  2  1  0  0  0  0
  6 49  1  0  0  0  0
  6 50  1  0  0  0  0
  7 51  1  0  0  0  0
  7 52  1  0  0  0  0
  8  7  1  0  0  0  0
  8 53  1  0  0  0  0
  8 54  1  0  0  0  0
  9  7  1  0  0  0  0
  9 55  1  0  0  0  0
  9 56  1  0  0  0  0
 10 57  1  0  0  0  0
 11 58  1  0  0  0  0
 12 59  1  0  0  0  0
 13 60  1  0  0  0  0
 14 10  1  0  0  0  0
 14 61  1  0  0  0  0
 15 11  2  0  0  0  0
 15 62  1  0  0  0  0
 16 12  1  0  0  0  0
 16 63  1  0  0  0  0
 17 13  2  0  0  0  0
 17 64  1  0  0  0  0
 18  8  1  0  0  0  0
 18 65  1  0  0  0  0
 18 66  1  0  0  0  0
 19  9  1  0  0  0  0
 19 67  1  0  0  0  0
 19 68  1  0  0  0  0
 20 10  2  0  0  0  0
 20 11  1  0  0  0  0
 21 12  2  0  0  0  0
 21 13  1  0  0  0  0
 22 14  2  0  0  0  0
 22 15  1  0  0  0  0
 23 16  2  0  0  0  0
 23 17  1  0  0  0  0
 26  3  1  0  0  0  0
 26  5  1  0  0  0  0
 26 24  1  0  0  0  0
 27  4  1  0  0  0  0
 27  6  1  0  0  0  0
 27 25  1  0  0  0  0
 28 18  1  0  0  0  0
 28 19  1  0  0  0  0
 28 20  1  0  0  0  0
 28 21  1  0  0  0  0
 29 24  2  0  0  0  0
 30 24  1  0  0  0  0
 30 69  1  0  0  0  0
 31 25  2  0  0  0  0
 32 25  1  0  0  0  0
 32 70  1  0  0  0  0
 33 22  1  0  0  0  0
 33 26  1  0  0  0  0
 34 23  1  0  0  0  0
 34 27  1  0  0  0  0
M  END
>  <DRUGBANK_ID>
DB09006

>  <COMMON_NAME>
Clinofibrate

>  <CAS_NUMBER>
30299-08-2

>  <UNII>
0374EZJ8CU

>  <SYNONYMS>
Clinofibrate

$$$$
