
 OpenBabel10282417072D

 44 44  0  0  0  0  0  0  0  0999 V2000
   -0.3572   -0.8864    0.0000 O   0  0  0  0  0  0  0  0  0  0  0  0
    0.3572    1.1760    0.0000 O   0  0  0  0  0  0  0  0  0  0  0  0
   -1.7861   -2.5365    0.0000 O   0  0  0  0  0  0  0  0  0  0  0  0
   -0.3572   -2.5365    0.0000 O   0  0  0  0  0  0  0  0  0  0  0  0
   -2.3092    1.8906    0.0000 O   0  0  0  0  0  0  0  0  0  0  0  0
   -1.0717    1.1760    0.0000 N   0  0  0  0  0  0  0  0  0  0  0  0
   -2.5007    0.3510    0.0000 N   0  0  0  0  0  0  0  0  0  0  0  0
    1.0718   -0.0614    0.0000 N   0  0  0  0  0  0  0  0  0  0  0  0
   -1.0717    0.3510    0.0000 C   0  0  2  0  0  0  0  0  0  0  0  0
   -1.7861   -0.0614    0.0000 C   0  0  2  0  0  0  0  0  0  0  0  0
   -0.3572   -0.0614    0.0000 C   0  0  2  0  0  0  0  0  0  0  0  0
   -1.7861   -0.8864    0.0000 C   0  0  0  0  0  0  0  0  0  0  0  0
   -1.0717   -1.2990    0.0000 C   0  0  2  0  0  0  0  0  0  0  0  0
    0.3572    0.3510    0.0000 C   0  0  0  0  0  0  0  0  0  0  0  0
   -1.0717   -2.1240    0.0000 C   0  0  0  0  0  0  0  0  0  0  0  0
   -1.4842    1.8905    0.0000 C   0  0  0  0  0  0  0  0  0  0  0  0
    1.7862    0.3510    0.0000 C   0  0  0  0  0  0  0  0  0  0  0  0
    1.0718   -0.8864    0.0000 C   0  0  0  0  0  0  0  0  0  0  0  0
   -1.0717    2.6050    0.0000 C   0  0  0  0  0  0  0  0  0  0  0  0
    2.5007   -0.0614    0.0000 C   0  0  0  0  0  0  0  0  0  0  0  0
    1.7862   -1.2990    0.0000 C   0  0  0  0  0  0  0  0  0  0  0  0
   -2.5976   -2.0680    0.0000 H   0  0  0  0  0  0  0  0  0  0  0  0
   -0.1207    1.4308    0.0000 H   0  0  0  0  0  0  0  0  0  0  0  0
   -2.5009    1.3710    0.0000 H   0  0  0  0  0  0  0  0  0  0  0  0
   -3.3840   -0.1592    0.0000 H   0  0  0  0  0  0  0  0  0  0  0  0
   -1.9983    0.8860    0.0000 H   0  0  0  0  0  0  0  0  0  0  0  0
   -1.7862    1.0086    0.0000 H   0  0  0  0  0  0  0  0  0  0  0  0
    0.5694   -0.5964    0.0000 H   0  0  0  0  0  0  0  0  0  0  0  0
   -2.7128   -1.4213    0.0000 H   0  0  0  0  0  0  0  0  0  0  0  0
   -1.7862   -1.9564    0.0000 H   0  0  0  0  0  0  0  0  0  0  0  0
   -0.1450   -1.8340    0.0000 H   0  0  0  0  0  0  0  0  0  0  0  0
    1.7862    1.4210    0.0000 H   0  0  0  0  0  0  0  0  0  0  0  0
    2.7128    0.8861    0.0000 H   0  0  0  0  0  0  0  0  0  0  0  0
    0.1451   -1.4213    0.0000 H   0  0  0  0  0  0  0  0  0  0  0  0
    1.0717   -1.9564    0.0000 H   0  0  0  0  0  0  0  0  0  0  0  0
   -0.0017    2.6050    0.0000 H   0  0  0  0  0  0  0  0  0  0  0  0
   -1.6067    3.5316    0.0000 H   0  0  0  0  0  0  0  0  0  0  0  0
   -0.5367    3.5317    0.0000 H   0  0  0  0  0  0  0  0  0  0  0  0
    2.5008   -1.1314    0.0000 H   0  0  0  0  0  0  0  0  0  0  0  0
    3.4273    0.4737    0.0000 H   0  0  0  0  0  0  0  0  0  0  0  0
    3.4274   -0.5963    0.0000 H   0  0  0  0  0  0  0  0  0  0  0  0
    1.7860   -2.3690    0.0000 H   0  0  0  0  0  0  0  0  0  0  0  0
    2.7129   -0.7641    0.0000 H   0  0  0  0  0  0  0  0  0  0  0  0
    2.7128   -1.8341    0.0000 H   0  0  0  0  0  0  0  0  0  0  0  0
  1 11  1  0  0  0  0
  1 13  1  0  0  0  0
  2 14  2  0  0  0  0
  3 15  1  0  0  0  0
  3 22  1  0  0  0  0
  4 15  2  0  0  0  0
  5 16  2  0  0  0  0
  6 16  1  0  0  0  0
  6 23  1  0  0  0  0
  7 24  1  0  0  0  0
  7 25  1  0  0  0  0
  8 14  1  0  0  0  0
  8 17  1  0  0  0  0
  8 18  1  0  0  0  0
  9  6  1  0  0  0  0
  9 10  1  0  0  0  0
  9 11  1  0  0  0  0
  9 26  1  6  0  0  0
 10  7  1  0  0  0  0
 10 12  1  0  0  0  0
 10 27  1  1  0  0  0
 11 14  1  0  0  0  0
 11 28  1  1  0  0  0
 12 13  1  0  0  0  0
 12 29  1  0  0  0  0
 12 30  1  0  0  0  0
 13 15  1  0  0  0  0
 13 31  1  6  0  0  0
 16 19  1  0  0  0  0
 17 20  1  0  0  0  0
 17 32  1  0  0  0  0
 17 33  1  0  0  0  0
 18 21  1  0  0  0  0
 18 34  1  0  0  0  0
 18 35  1  0  0  0  0
 19 36  1  0  0  0  0
 19 37  1  0  0  0  0
 19 38  1  0  0  0  0
 20 39  1  0  0  0  0
 20 40  1  0  0  0  0
 20 41  1  0  0  0  0
 21 42  1  0  0  0  0
 21 43  1  0  0  0  0
 21 44  1  0  0  0  0
M  END
>  <DRUGBANK_ID>
DB02529

>  <SECONDARY_ACCESSION_NUMBERS>
EXPT01524

>  <COMMON_NAME>
(2R,4S,5R,6R)-5-Acetamido-4-amino-6-(diethylcarbamoyl)oxane-2-carboxylic acid

$$$$
