904
 OpenBabel10282417072D

 41 44  0  0  1  0  0  0  0  0999 V2000
    4.2713   -1.2750    0.0000 O   0  0  0  0  0  0  0  0  0  0  0  0
    3.5862    1.3159    0.0000 N   0  0  0  0  0  0  0  0  0  0  0  0
    6.6362   -0.7883    0.0000 N   0  0  0  0  0  0  0  0  0  0  0  0
    7.9103   -0.9271    0.0000 N   0  0  0  0  0  0  0  0  0  0  0  0
    5.3330   -0.3593    0.0000 C   0  0  3  0  0  0  0  0  0  0  0  0
    5.5880    0.4254    0.0000 C   0  0  0  0  0  0  0  0  0  0  0  0
    5.0312    1.0343    0.0000 C   0  0  0  0  0  0  0  0  0  0  0  0
    4.2270    0.8503    0.0000 C   0  0  0  0  0  0  0  0  0  0  0  0
    3.9822    0.0970    0.0000 C   0  0  0  0  0  0  0  0  0  0  0  0
    4.5248   -0.5246    0.0000 C   0  0  0  0  0  0  0  0  0  0  0  0
    5.8608   -0.9500    0.0000 C   0  0  0  0  0  0  0  0  0  0  0  0
    3.1901    0.0970    0.0000 C   0  0  0  0  0  0  0  0  0  0  0  0
    2.9453    0.8503    0.0000 C   0  0  0  0  0  0  0  0  0  0  0  0
    3.5862    2.1080    0.0000 C   0  0  0  0  0  0  0  0  0  0  0  0
    2.6475   -0.5246    0.0000 C   0  0  0  0  0  0  0  0  0  0  0  0
    2.1410    1.0343    0.0000 C   0  0  0  0  0  0  0  0  0  0  0  0
    7.2228   -1.3206    0.0000 C   0  0  0  0  0  0  0  0  0  0  0  0
    6.9613   -0.0659    0.0000 C   0  0  0  0  0  0  0  0  0  0  0  0
    1.8392   -0.3593    0.0000 C   0  0  0  0  0  0  0  0  0  0  0  0
    1.5842    0.4254    0.0000 C   0  0  0  0  0  0  0  0  0  0  0  0
    7.7487   -0.1518    0.0000 C   0  0  0  0  0  0  0  0  0  0  0  0
    7.1370   -2.1080    0.0000 C   0  0  0  0  0  0  0  0  0  0  0  0
    4.6201    0.4386    0.0000 H   0  0  0  0  0  0  0  0  0  0  0  0
    6.6338    0.6519    0.0000 H   0  0  0  0  0  0  0  0  0  0  0  0
    5.9128    1.4449    0.0000 H   0  0  0  0  0  0  0  0  0  0  0  0
    5.3500    2.0557    0.0000 H   0  0  0  0  0  0  0  0  0  0  0  0
    4.3045    1.8197    0.0000 H   0  0  0  0  0  0  0  0  0  0  0  0
    5.5263   -1.9664    0.0000 H   0  0  0  0  0  0  0  0  0  0  0  0
    4.8133   -1.1685    0.0000 H   0  0  0  0  0  0  0  0  0  0  0  0
    4.5128    2.6430    0.0000 H   0  0  0  0  0  0  0  0  0  0  0  0
    2.6596    2.6430    0.0000 H   0  0  0  0  0  0  0  0  0  0  0  0
    3.5862    3.1780    0.0000 H   0  0  0  0  0  0  0  0  0  0  0  0
    2.9777   -1.5023    0.0000 H   0  0  0  0  0  0  0  0  0  0  0  0
    1.8335    2.0194    0.0000 H   0  0  0  0  0  0  0  0  0  0  0  0
    6.4489    0.8299    0.0000 H   0  0  0  0  0  0  0  0  0  0  0  0
    1.1516   -1.1289    0.0000 H   0  0  0  0  0  0  0  0  0  0  0  0
    0.5756    0.6438    0.0000 H   0  0  0  0  0  0  0  0  0  0  0  0
    8.4423    0.6124    0.0000 H   0  0  0  0  0  0  0  0  0  0  0  0
    6.1579   -2.5395    0.0000 H   0  0  0  0  0  0  0  0  0  0  0  0
    8.0002   -2.7402    0.0000 H   0  0  0  0  0  0  0  0  0  0  0  0
    7.0211   -3.1717    0.0000 H   0  0  0  0  0  0  0  0  0  0  0  0
  1 10  2  0  0  0  0
  2  8  1  0  0  0  0
  2 13  1  0  0  0  0
  2 14  1  0  0  0  0
  3 11  1  0  0  0  0
  3 17  1  0  0  0  0
  3 18  1  0  0  0  0
  4 17  2  0  0  0  0
  4 21  1  0  0  0  0
  5  6  1  0  0  0  0
  5 10  1  0  0  0  0
  5 11  1  0  0  0  0
  5 23  1  0  0  0  0
  6  7  1  0  0  0  0
  6 24  1  0  0  0  0
  6 25  1  0  0  0  0
  7  8  1  0  0  0  0
  7 26  1  0  0  0  0
  7 27  1  0  0  0  0
  8  9  2  0  0  0  0
  9 10  1  0  0  0  0
  9 12  1  0  0  0  0
 11 28  1  0  0  0  0
 11 29  1  0  0  0  0
 12 13  1  0  0  0  0
 12 15  2  0  0  0  0
 13 16  2  0  0  0  0
 14 30  1  0  0  0  0
 14 31  1  0  0  0  0
 14 32  1  0  0  0  0
 15 19  1  0  0  0  0
 15 33  1  0  0  0  0
 16 20  1  0  0  0  0
 16 34  1  0  0  0  0
 17 22  1  0  0  0  0
 18 21  2  0  0  0  0
 18 35  1  0  0  0  0
 19 20  2  0  0  0  0
 19 36  1  0  0  0  0
 20 37  1  0  0  0  0
 21 38  1  0  0  0  0
 22 39  1  0  0  0  0
 22 40  1  0  0  0  0
 22 41  1  0  0  0  0
M  END
>  <DRUGBANK_ID>
DB00904

>  <SECONDARY_ACCESSION_NUMBERS>
APRD00481

>  <COMMON_NAME>
Ondansetron

>  <CAS_NUMBER>
99614-02-5

>  <UNII>
4AF302ESOS

>  <SYNONYMS>
Ondansetron

$$$$
