
 OpenBabel10282417072D

 36 39  0  0  0  0  0  0  0  0999 V2000
   -0.0088   -0.6842    0.0000 C   0  0  0  0  0  0  0  0  0  0  0  0
    0.7981   -0.5127    0.0000 N   0  0  0  0  0  0  0  0  0  0  0  0
    1.0531    0.2719    0.0000 C   0  0  0  0  0  0  0  0  0  0  0  0
    1.8600    0.4434    0.0000 C   0  0  0  0  0  0  0  0  0  0  0  0
    2.4121   -0.1696    0.0000 N   0  0  0  0  0  0  0  0  0  0  0  0
    3.2371   -0.1696    0.0000 C   0  0  0  0  0  0  0  0  0  0  0  0
    3.4920   -0.9543    0.0000 C   0  0  0  0  0  0  0  0  0  0  0  0
    4.2990   -1.1258    0.0000 C   0  0  0  0  0  0  0  0  0  0  0  0
    4.8510   -0.5127    0.0000 C   0  0  0  0  0  0  0  0  0  0  0  0
    4.5961    0.2719    0.0000 C   0  0  0  0  0  0  0  0  0  0  0  0
    3.7891    0.4434    0.0000 C   0  0  0  0  0  0  0  0  0  0  0  0
    5.6580   -0.6842    0.0000 O   0  0  0  0  0  0  0  0  0  0  0  0
    6.2100   -0.0711    0.0000 C   0  0  0  0  0  0  0  0  0  0  0  0
    2.8246   -1.4392    0.0000 C   0  0  0  0  0  0  0  0  0  0  0  0
    2.1571   -0.9543    0.0000 C   0  0  0  0  0  0  0  0  0  0  0  0
    1.3502   -1.1258    0.0000 C   0  0  0  0  0  0  0  0  0  0  0  0
    1.3172   -2.1103    0.0000 N   0  0  0  0  0  0  0  0  0  0  0  0
    1.9847   -2.5952    0.0000 C   0  0  0  0  0  0  0  0  0  0  0  0
    2.7383   -2.2597    0.0000 C   0  0  0  0  0  0  0  0  0  0  0  0
   -0.7248    0.1110    0.0000 H   0  0  0  0  0  0  0  0  0  0  0  0
   -0.3395   -1.7018    0.0000 H   0  0  0  0  0  0  0  0  0  0  0  0
   -1.0554   -0.9067    0.0000 H   0  0  0  0  0  0  0  0  0  0  0  0
    0.3372    1.0671    0.0000 H   0  0  0  0  0  0  0  0  0  0  0  0
    1.3838    1.2895    0.0000 H   0  0  0  0  0  0  0  0  0  0  0  0
    2.1906    1.4611    0.0000 H   0  0  0  0  0  0  0  0  0  0  0  0
    2.9066    0.6660    0.0000 H   0  0  0  0  0  0  0  0  0  0  0  0
    4.6179   -2.1073    0.0000 H   0  0  0  0  0  0  0  0  0  0  0  0
    5.2866    1.0388    0.0000 H   0  0  0  0  0  0  0  0  0  0  0  0
    3.4702    1.4249    0.0000 H   0  0  0  0  0  0  0  0  0  0  0  0
    7.2566   -0.2935    0.0000 H   0  0  0  0  0  0  0  0  0  0  0  0
    5.8793    0.9465    0.0000 H   0  0  0  0  0  0  0  0  0  0  0  0
    6.9259    0.7241    0.0000 H   0  0  0  0  0  0  0  0  0  0  0  0
    1.8729   -3.6593    0.0000 H   0  0  0  0  0  0  0  0  0  0  0  0
    2.8503   -3.2241    0.0000 H   0  0  0  0  0  0  0  0  0  0  0  0
    3.6039   -2.8887    0.0000 H   0  0  0  0  0  0  0  0  0  0  0  0
    3.7158   -1.8246    0.0000 H   0  0  0  0  0  0  0  0  0  0  0  0
  1  2  1  0  0  0  0
  1 20  1  0  0  0  0
  1 21  1  0  0  0  0
  1 22  1  0  0  0  0
  2  3  1  0  0  0  0
  2 16  1  0  0  0  0
  3  4  1  0  0  0  0
  3 23  1  0  0  0  0
  3 24  1  0  0  0  0
  4  5  1  0  0  0  0
  4 25  1  0  0  0  0
  4 26  1  0  0  0  0
  5  6  1  0  0  0  0
  5 15  1  0  0  0  0
  6  7  2  0  0  0  0
  6 11  1  0  0  0  0
  7  8  1  0  0  0  0
  7 14  1  0  0  0  0
  8  9  2  0  0  0  0
  8 27  1  0  0  0  0
  9 10  1  0  0  0  0
  9 12  1  0  0  0  0
 10 11  2  0  0  0  0
 10 28  1  0  0  0  0
 11 29  1  0  0  0  0
 12 13  1  0  0  0  0
 13 30  1  0  0  0  0
 13 31  1  0  0  0  0
 13 32  1  0  0  0  0
 14 15  2  0  0  0  0
 14 19  1  0  0  0  0
 15 16  1  0  0  0  0
 16 17  2  0  0  0  0
 17 18  1  0  0  0  0
 18 19  1  0  0  0  0
 18 33  1  0  0  0  0
 18 34  1  0  0  0  0
 19 35  1  0  0  0  0
 19 36  1  0  0  0  0
M  END
>  <DRUGBANK_ID>
DB09306

>  <COMMON_NAME>
Metralindole

>  <CAS_NUMBER>
54188-38-4

>  <UNII>
2QW3FL6OPA

>  <SYNONYMS>
Incasan; Inkazan; Metralindole

$$$$
