
 OpenBabel10282417072D

 41 42  0  0  0  0  0  0  0  0999 V2000
   -2.8684   -2.6657    0.0000 C   0  0  0  0  0  0  0  0  0  0  0  0
   -2.6969   -3.4726    0.0000 N   0  0  0  0  0  0  0  0  0  0  0  0
   -1.9432   -3.8082    0.0000 C   0  0  0  0  0  0  0  0  0  0  0  0
   -1.2288   -3.3957    0.0000 C   0  0  0  0  0  0  0  0  0  0  0  0
   -0.5143   -3.8082    0.0000 C   0  0  0  0  0  0  0  0  0  0  0  0
   -0.5143   -4.6332    0.0000 O   0  0  0  0  0  0  0  0  0  0  0  0
    0.2002   -3.3957    0.0000 N   0  0  0  0  0  0  0  0  0  0  0  0
    0.9146   -3.8082    0.0000 C   0  0  0  0  0  0  0  0  0  0  0  0
    1.6291   -3.3957    0.0000 C   0  0  0  0  0  0  0  0  0  0  0  0
    2.3436   -3.8082    0.0000 O   0  0  0  0  0  0  0  0  0  0  0  0
    1.6291   -2.5707    0.0000 O   0  0  0  0  0  0  0  0  0  0  0  0
   -2.0295   -4.6287    0.0000 C   0  0  0  0  0  0  0  0  0  0  0  0
   -2.8364   -4.8002    0.0000 C   0  0  0  0  0  0  0  0  0  0  0  0
   -3.2489   -4.0857    0.0000 C   0  0  0  0  0  0  0  0  0  0  0  0
   -4.0694   -3.9995    0.0000 C   0  0  0  0  0  0  0  0  0  0  0  0
   -4.4050   -3.2458    0.0000 O   0  0  0  0  0  0  0  0  0  0  0  0
   -4.5543   -4.6669    0.0000 C   0  0  0  0  0  0  0  0  0  0  0  0
   -4.2188   -5.4206    0.0000 C   0  0  0  0  0  0  0  0  0  0  0  0
   -4.7037   -6.0880    0.0000 C   0  0  0  0  0  0  0  0  0  0  0  0
   -5.5242   -6.0018    0.0000 C   0  0  0  0  0  0  0  0  0  0  0  0
   -6.0091   -6.6692    0.0000 C   0  0  0  0  0  0  0  0  0  0  0  0
   -5.8598   -5.2481    0.0000 C   0  0  0  0  0  0  0  0  0  0  0  0
   -5.3748   -4.5807    0.0000 C   0  0  0  0  0  0  0  0  0  0  0  0
   -2.0732   -1.9497    0.0000 H   0  0  0  0  0  0  0  0  0  0  0  0
   -3.8860   -2.3350    0.0000 H   0  0  0  0  0  0  0  0  0  0  0  0
   -3.0909   -1.6191    0.0000 H   0  0  0  0  0  0  0  0  0  0  0  0
   -1.2288   -2.3257    0.0000 H   0  0  0  0  0  0  0  0  0  0  0  0
   -0.3022   -2.8607    0.0000 H   0  0  0  0  0  0  0  0  0  0  0  0
    0.2002   -2.4112    0.0000 H   0  0  0  0  0  0  0  0  0  0  0  0
    0.9146   -4.8782    0.0000 H   0  0  0  0  0  0  0  0  0  0  0  0
    1.8412   -4.3432    0.0000 H   0  0  0  0  0  0  0  0  0  0  0  0
    2.3436   -4.7452    0.0000 H   0  0  0  0  0  0  0  0  0  0  0  0
   -1.2626   -5.3193    0.0000 H   0  0  0  0  0  0  0  0  0  0  0  0
   -3.2562   -5.7430    0.0000 H   0  0  0  0  0  0  0  0  0  0  0  0
   -3.1925   -5.5285    0.0000 H   0  0  0  0  0  0  0  0  0  0  0  0
   -4.2839   -7.0308    0.0000 H   0  0  0  0  0  0  0  0  0  0  0  0
   -7.0732   -6.5573    0.0000 H   0  0  0  0  0  0  0  0  0  0  0  0
   -5.5739   -7.6467    0.0000 H   0  0  0  0  0  0  0  0  0  0  0  0
   -6.6380   -7.5348    0.0000 H   0  0  0  0  0  0  0  0  0  0  0  0
   -6.8861   -5.1402    0.0000 H   0  0  0  0  0  0  0  0  0  0  0  0
   -5.7945   -3.6379    0.0000 H   0  0  0  0  0  0  0  0  0  0  0  0
  1  2  1  0  0  0  0
  1 24  1  0  0  0  0
  1 25  1  0  0  0  0
  1 26  1  0  0  0  0
  2  3  1  0  0  0  0
  2 14  1  0  0  0  0
  3  4  1  0  0  0  0
  3 12  2  0  0  0  0
  4  5  1  0  0  0  0
  4 27  1  0  0  0  0
  4 28  1  0  0  0  0
  5  6  2  0  0  0  0
  5  7  1  0  0  0  0
  7  8  1  0  0  0  0
  7 29  1  0  0  0  0
  8  9  1  0  0  0  0
  8 30  1  0  0  0  0
  8 31  1  0  0  0  0
  9 10  1  0  0  0  0
  9 11  2  0  0  0  0
 10 32  1  0  0  0  0
 12 13  1  0  0  0  0
 12 33  1  0  0  0  0
 13 14  2  0  0  0  0
 13 34  1  0  0  0  0
 14 15  1  0  0  0  0
 15 16  2  0  0  0  0
 15 17  1  0  0  0  0
 17 18  2  0  0  0  0
 17 23  1  0  0  0  0
 18 19  1  0  0  0  0
 18 35  1  0  0  0  0
 19 20  2  0  0  0  0
 19 36  1  0  0  0  0
 20 21  1  0  0  0  0
 20 22  1  0  0  0  0
 21 37  1  0  0  0  0
 21 38  1  0  0  0  0
 21 39  1  0  0  0  0
 22 23  2  0  0  0  0
 22 40  1  0  0  0  0
 23 41  1  0  0  0  0
M  END
>  <DRUGBANK_ID>
DB16088

>  <COMMON_NAME>
Amtolmetin guacil

>  <CAS_NUMBER>
87344-05-6

>  <UNII>
3RS348SV6U

>  <SYNONYMS>
Amtolmetin; Tolmetin glycine amide

$$$$
