
 OpenBabel10282417072D

 47 50  0  0  1  0  0  0  0  0999 V2000
    0.7144   -2.8875    0.0000 C   0  0  0  0  0  0  0  0  0  0  0  0
    0.7144   -3.7125    0.0000 N   0  0  0  0  0  0  0  0  0  0  0  0
    1.3819   -4.1974    0.0000 N   0  0  0  0  0  0  0  0  0  0  0  0
    1.1269   -4.9820    0.0000 N   0  0  0  0  0  0  0  0  0  0  0  0
    0.3019   -4.9820    0.0000 C   0  0  0  0  0  0  0  0  0  0  0  0
    0.0470   -4.1974    0.0000 N   0  0  0  0  0  0  0  0  0  0  0  0
   -0.1829   -5.6494    0.0000 C   0  0  0  0  0  0  0  0  0  0  0  0
    0.1526   -6.4031    0.0000 C   0  0  0  0  0  0  0  0  0  0  0  0
   -0.3323   -7.0705    0.0000 C   0  0  0  0  0  0  0  0  0  0  0  0
   -1.1527   -6.9843    0.0000 C   0  0  0  0  0  0  0  0  0  0  0  0
   -1.4883   -6.2306    0.0000 C   0  0  0  0  0  0  0  0  0  0  0  0
   -1.0034   -5.5632    0.0000 N   0  0  0  0  0  0  0  0  0  0  0  0
   -1.6377   -7.6518    0.0000 C   0  0  0  0  0  0  0  0  0  0  0  0
   -1.3021   -8.4054    0.0000 C   0  0  0  0  0  0  0  0  0  0  0  0
   -1.7870   -9.0729    0.0000 C   0  0  0  0  0  0  0  0  0  0  0  0
   -2.6075   -8.9866    0.0000 C   0  0  0  0  0  0  0  0  0  0  0  0
   -2.9431   -8.2330    0.0000 C   0  0  0  0  0  0  0  0  0  0  0  0
   -2.4582   -7.5655    0.0000 C   0  0  0  0  0  0  0  0  0  0  0  0
   -2.7937   -6.8118    0.0000 F   0  0  0  0  0  0  0  0  0  0  0  0
   -3.0924   -9.6541    0.0000 N   0  0  0  0  0  0  0  0  0  0  0  0
   -2.8375  -10.4387    0.0000 C   0  0  0  0  0  0  0  0  0  0  0  0
   -3.5049  -10.9236    0.0000 C   0  0  2  0  0  0  0  0  0  0  0  0
   -3.5049  -11.7486    0.0000 C   0  0  0  0  0  0  0  0  0  0  0  0
   -4.2194  -12.1611    0.0000 O   0  0  0  0  0  0  0  0  0  0  0  0
   -4.2194  -12.9861    0.0000 P   0  0  0  0  0  0  0  0  0  0  0  0
   -4.2194  -13.8111    0.0000 O   0  0  0  0  0  0  0  0  0  0  0  0
   -5.0444  -12.9861    0.0000 O   0  0  0  0  0  0  0  0  0  0  0  0
   -3.3944  -12.9861    0.0000 O   0  0  0  0  0  0  0  0  0  0  0  0
   -4.1724  -10.4387    0.0000 O   0  0  0  0  0  0  0  0  0  0  0  0
   -3.9174   -9.6541    0.0000 C   0  0  0  0  0  0  0  0  0  0  0  0
   -4.4024   -8.9866    0.0000 O   0  0  0  0  0  0  0  0  0  0  0  0
    1.6410   -2.3525    0.0000 H   0  0  0  0  0  0  0  0  0  0  0  0
   -0.2122   -2.3525    0.0000 H   0  0  0  0  0  0  0  0  0  0  0  0
    0.7144   -1.8175    0.0000 H   0  0  0  0  0  0  0  0  0  0  0  0
    1.1789   -6.5110    0.0000 H   0  0  0  0  0  0  0  0  0  0  0  0
    0.0875   -8.0133    0.0000 H   0  0  0  0  0  0  0  0  0  0  0  0
   -2.5146   -6.1227    0.0000 H   0  0  0  0  0  0  0  0  0  0  0  0
   -0.2757   -8.5132    0.0000 H   0  0  0  0  0  0  0  0  0  0  0  0
   -1.3673  -10.0157    0.0000 H   0  0  0  0  0  0  0  0  0  0  0  0
   -3.9695   -8.1252    0.0000 H   0  0  0  0  0  0  0  0  0  0  0  0
   -1.8199  -10.7694    0.0000 H   0  0  0  0  0  0  0  0  0  0  0  0
   -2.6701  -11.4955    0.0000 H   0  0  0  0  0  0  0  0  0  0  0  0
   -2.5515  -11.4094    0.0000 H   0  0  0  0  0  0  0  0  0  0  0  0
   -2.5783  -12.2836    0.0000 H   0  0  0  0  0  0  0  0  0  0  0  0
   -3.5049  -12.8186    0.0000 H   0  0  0  0  0  0  0  0  0  0  0  0
   -5.5294  -12.1461    0.0000 H   0  0  0  0  0  0  0  0  0  0  0  0
   -2.9094  -13.8261    0.0000 H   0  0  0  0  0  0  0  0  0  0  0  0
  1  2  1  0  0  0  0
  1 32  1  0  0  0  0
  1 33  1  0  0  0  0
  1 34  1  0  0  0  0
  2  3  1  0  0  0  0
  2  6  1  0  0  0  0
  3  4  2  0  0  0  0
  4  5  1  0  0  0  0
  5  6  2  0  0  0  0
  5  7  1  0  0  0  0
  7  8  2  0  0  0  0
  7 12  1  0  0  0  0
  8  9  1  0  0  0  0
  8 35  1  0  0  0  0
  9 10  2  0  0  0  0
  9 36  1  0  0  0  0
 10 11  1  0  0  0  0
 10 13  1  0  0  0  0
 11 12  2  0  0  0  0
 11 37  1  0  0  0  0
 13 14  2  0  0  0  0
 13 18  1  0  0  0  0
 14 15  1  0  0  0  0
 14 38  1  0  0  0  0
 15 16  2  0  0  0  0
 15 39  1  0  0  0  0
 16 17  1  0  0  0  0
 16 20  1  0  0  0  0
 17 18  2  0  0  0  0
 17 40  1  0  0  0  0
 18 19  1  0  0  0  0
 20 21  1  0  0  0  0
 20 30  1  0  0  0  0
 21 22  1  0  0  0  0
 21 41  1  0  0  0  0
 21 42  1  0  0  0  0
 22 23  1  0  0  0  0
 22 29  1  0  0  0  0
 22 43  1  1  0  0  0
 23 24  1  0  0  0  0
 23 44  1  0  0  0  0
 23 45  1  0  0  0  0
 24 25  1  0  0  0  0
 25 26  2  0  0  0  0
 25 27  1  0  0  0  0
 25 28  1  0  0  0  0
 27 46  1  0  0  0  0
 28 47  1  0  0  0  0
 29 30  1  0  0  0  0
 30 31  2  0  0  0  0
M  END
>  <DRUGBANK_ID>
DB09042

>  <COMMON_NAME>
Tedizolid phosphate

>  <CAS_NUMBER>
856867-55-5

>  <UNII>
O7DRJ6R4DW

>  <SYNONYMS>
[(5R)-3-{3-fluoro-4-[6-(2-methyl-2H-tetrazol-5-yl)pyridin-3-yl]phenyl}-2-oxo-1,3-oxazolidin-5-yl]methyl dihydrogen phosphate; Tedizolid phosphate; Torezolid phosphate

$$$$
