
 OpenBabel10282417072D

 98101  0  0  0  0  0  0  0  0999 V2000
    6.3093    2.0782    0.0000 S   0  0  0  0  0  0  0  0  0  0  0  0
   -6.9678    2.4095    0.0000 P   0  0  0  0  0  0  0  0  0  0  0  0
   -4.3934    1.3866    0.0000 P   0  0  1  0  0  0  0  0  0  0  0  0
   -2.9721    1.5336    0.0000 P   0  0  2  0  0  0  0  0  0  0  0  0
   -6.4846   -0.0689    0.0000 O   0  0  0  0  0  0  0  0  0  0  0  0
   -7.5209    1.7973    0.0000 O   0  0  0  0  0  0  0  0  0  0  0  0
   -8.5785    0.3471    0.0000 O   0  0  0  0  0  0  0  0  0  0  0  0
   -5.0618    0.9029    0.0000 O   0  0  0  0  0  0  0  0  0  0  0  0
   -6.4147    3.0216    0.0000 O   0  0  0  0  0  0  0  0  0  0  0  0
   -7.5800    2.9627    0.0000 O   0  0  0  0  0  0  0  0  0  0  0  0
   -3.7252    1.8704    0.0000 O   0  0  0  0  0  0  0  0  0  0  0  0
   -2.2190    1.1967    0.0000 O   0  0  0  0  0  0  0  0  0  0  0  0
   -6.3557    1.8564    0.0000 O   0  0  0  0  0  0  0  0  0  0  0  0
   -3.9097    0.7184    0.0000 O   0  0  0  0  0  0  0  0  0  0  0  0
    0.0403    0.1861    0.0000 O   0  0  0  0  0  0  0  0  0  0  0  0
   -4.8772    2.0550    0.0000 O   0  0  0  0  0  0  0  0  0  0  0  0
   -2.6353    2.2867    0.0000 O   0  0  0  0  0  0  0  0  0  0  0  0
   -3.3090    0.7805    0.0000 O   0  0  0  0  0  0  0  0  0  0  0  0
    0.5389    2.3111    0.0000 O   0  0  0  0  0  0  0  0  0  0  0  0
    3.3817    2.6050    0.0000 O   0  0  0  0  0  0  0  0  0  0  0  0
    9.7356    3.6764    0.0000 O   0  0  0  0  0  0  0  0  0  0  0  0
   -7.5259   -1.1067    0.0000 N   0  0  0  0  0  0  0  0  0  0  0  0
   -7.5259   -2.4346    0.0000 N   0  0  0  0  0  0  0  0  0  0  0  0
   -9.0211   -0.9456    0.0000 N   0  0  0  0  0  0  0  0  0  0  0  0
   -9.7356   -2.1831    0.0000 N   0  0  0  0  0  0  0  0  0  0  0  0
   -9.0211   -3.4206    0.0000 N   0  0  0  0  0  0  0  0  0  0  0  0
    1.3769    1.1537    0.0000 N   0  0  0  0  0  0  0  0  0  0  0  0
    4.2196    1.4475    0.0000 N   0  0  0  0  0  0  0  0  0  0  0  0
   -7.2674    1.0123    0.0000 C   0  0  1  0  0  0  0  0  0  0  0  0
   -7.7535    0.3457    0.0000 C   0  0  2  0  0  0  0  0  0  0  0  0
   -6.4831    0.7560    0.0000 C   0  0  1  0  0  0  0  0  0  0  0  0
   -7.2697   -0.3225    0.0000 C   0  0  1  0  0  0  0  0  0  0  0  0
   -5.8149    1.2398    0.0000 C   0  0  0  0  0  0  0  0  0  0  0  0
   -8.3066   -1.3581    0.0000 C   0  0  0  0  0  0  0  0  0  0  0  0
   -7.0445   -1.7706    0.0000 C   0  0  0  0  0  0  0  0  0  0  0  0
   -8.3066   -2.1831    0.0000 C   0  0  0  0  0  0  0  0  0  0  0  0
   -0.7976    1.3437    0.0000 C   0  0  0  0  0  0  0  0  0  0  0  0
   -0.0445    1.0068    0.0000 C   0  0  2  0  0  0  0  0  0  0  0  0
   -1.5507    1.6805    0.0000 C   0  0  0  0  0  0  0  0  0  0  0  0
   -9.0211   -2.5956    0.0000 C   0  0  0  0  0  0  0  0  0  0  0  0
   -0.4607    2.0967    0.0000 C   0  0  0  0  0  0  0  0  0  0  0  0
   -1.1345    0.5905    0.0000 C   0  0  0  0  0  0  0  0  0  0  0  0
   -9.7356   -1.3581    0.0000 C   0  0  0  0  0  0  0  0  0  0  0  0
    0.6237    1.4905    0.0000 C   0  0  0  0  0  0  0  0  0  0  0  0
    2.0451    1.6374    0.0000 C   0  0  0  0  0  0  0  0  0  0  0  0
    2.7982    1.3006    0.0000 C   0  0  0  0  0  0  0  0  0  0  0  0
    3.4665    1.7844    0.0000 C   0  0  0  0  0  0  0  0  0  0  0  0
    4.8879    1.9312    0.0000 C   0  0  0  0  0  0  0  0  0  0  0  0
    5.6410    1.5944    0.0000 C   0  0  0  0  0  0  0  0  0  0  0  0
    7.0624    1.7413    0.0000 C   0  0  0  0  0  0  0  0  0  0  0  0
    7.7307    2.2251    0.0000 C   0  0  0  0  0  0  0  0  0  0  0  0
    8.4838    1.8882    0.0000 C   0  0  0  0  0  0  0  0  0  0  0  0
    7.6459    3.0457    0.0000 C   0  0  0  0  0  0  0  0  0  0  0  0
    9.1521    2.3719    0.0000 C   0  0  0  0  0  0  0  0  0  0  0  0
    8.3142    3.5295    0.0000 C   0  0  0  0  0  0  0  0  0  0  0  0
    9.0672    3.1926    0.0000 C   0  0  0  0  0  0  0  0  0  0  0  0
   -9.4641   -3.6764    0.0000 H   0  0  0  0  0  0  0  0  0  0  0  0
   -8.5781   -3.6764    0.0000 H   0  0  0  0  0  0  0  0  0  0  0  0
    1.4294    0.6449    0.0000 H   0  0  0  0  0  0  0  0  0  0  0  0
    4.2722    0.9387    0.0000 H   0  0  0  0  0  0  0  0  0  0  0  0
   -9.0621    1.1880    0.0000 H   0  0  0  0  0  0  0  0  0  0  0  0
   -5.4663    2.8182    0.0000 H   0  0  0  0  0  0  0  0  0  0  0  0
   -7.3766    3.9111    0.0000 H   0  0  0  0  0  0  0  0  0  0  0  0
   -4.3058   -0.1671    0.0000 H   0  0  0  0  0  0  0  0  0  0  0  0
   -0.7454   -0.3827    0.0000 H   0  0  0  0  0  0  0  0  0  0  0  0
   -1.6704    2.3865    0.0000 H   0  0  0  0  0  0  0  0  0  0  0  0
   10.5909    3.2938    0.0000 H   0  0  0  0  0  0  0  0  0  0  0  0
   -8.3239    1.1816    0.0000 H   0  0  0  0  0  0  0  0  0  0  0  0
   -8.2376    1.2999    0.0000 H   0  0  0  0  0  0  0  0  0  0  0  0
   -5.5306    0.2686    0.0000 H   0  0  0  0  0  0  0  0  0  0  0  0
   -6.5144   -1.0804    0.0000 H   0  0  0  0  0  0  0  0  0  0  0  0
   -5.9249    2.3041    0.0000 H   0  0  0  0  0  0  0  0  0  0  0  0
   -6.7917    1.6766    0.0000 H   0  0  0  0  0  0  0  0  0  0  0  0
   -6.0125   -1.7706    0.0000 H   0  0  0  0  0  0  0  0  0  0  0  0
   -0.9113    0.3794    0.0000 H   0  0  0  0  0  0  0  0  0  0  0  0
   -1.6608    2.7448    0.0000 H   0  0  0  0  0  0  0  0  0  0  0  0
   -0.6840    2.3080    0.0000 H   0  0  0  0  0  0  0  0  0  0  0  0
    0.6036    2.2066    0.0000 H   0  0  0  0  0  0  0  0  0  0  0  0
   -1.0881    2.9635    0.0000 H   0  0  0  0  0  0  0  0  0  0  0  0
   -0.0237    3.0734    0.0000 H   0  0  0  0  0  0  0  0  0  0  0  0
   -2.1988    0.4805    0.0000 H   0  0  0  0  0  0  0  0  0  0  0  0
   -0.5071   -0.2762    0.0000 H   0  0  0  0  0  0  0  0  0  0  0  0
   -1.5714   -0.3862    0.0000 H   0  0  0  0  0  0  0  0  0  0  0  0
  -10.6293   -0.8421    0.0000 H   0  0  0  0  0  0  0  0  0  0  0  0
    1.9351    2.7017    0.0000 H   0  0  0  0  0  0  0  0  0  0  0  0
    2.9118    2.2649    0.0000 H   0  0  0  0  0  0  0  0  0  0  0  0
    2.9083    0.2363    0.0000 H   0  0  0  0  0  0  0  0  0  0  0  0
    3.7750    0.8637    0.0000 H   0  0  0  0  0  0  0  0  0  0  0  0
    4.7779    2.9955    0.0000 H   0  0  0  0  0  0  0  0  0  0  0  0
    5.7546    2.5587    0.0000 H   0  0  0  0  0  0  0  0  0  0  0  0
    5.7511    0.5301    0.0000 H   0  0  0  0  0  0  0  0  0  0  0  0
    4.7743    0.9669    0.0000 H   0  0  0  0  0  0  0  0  0  0  0  0
    7.1724    0.6770    0.0000 H   0  0  0  0  0  0  0  0  0  0  0  0
    8.0391    1.3044    0.0000 H   0  0  0  0  0  0  0  0  0  0  0  0
    8.5898    0.8617    0.0000 H   0  0  0  0  0  0  0  0  0  0  0  0
    6.7038    3.4671    0.0000 H   0  0  0  0  0  0  0  0  0  0  0  0
   10.0942    1.9505    0.0000 H   0  0  0  0  0  0  0  0  0  0  0  0
    8.2081    4.5560    0.0000 H   0  0  0  0  0  0  0  0  0  0  0  0
  1 49  1  0  0  0  0
  1 50  1  0  0  0  0
  2  6  1  0  0  0  0
  2  9  1  0  0  0  0
  2 10  1  0  0  0  0
  2 13  2  0  0  0  0
  3  8  1  0  0  0  0
  3 11  1  0  0  0  0
  3 14  1  0  0  0  0
  3 16  2  6  0  0  0
  4 11  1  0  0  0  0
  4 12  1  0  0  0  0
  4 17  1  0  0  0  0
  4 18  2  6  0  0  0
  5 31  1  0  0  0  0
  5 32  1  0  0  0  0
  7 61  1  0  0  0  0
  8 33  1  0  0  0  0
  9 62  1  0  0  0  0
 10 63  1  0  0  0  0
 12 39  1  0  0  0  0
 14 64  1  0  0  0  0
 15 65  1  0  0  0  0
 17 66  1  0  0  0  0
 19 44  2  0  0  0  0
 20 47  2  0  0  0  0
 21 56  1  0  0  0  0
 21 67  1  0  0  0  0
 22 34  1  0  0  0  0
 22 35  1  0  0  0  0
 23 35  2  0  0  0  0
 23 36  1  0  0  0  0
 24 34  2  0  0  0  0
 24 43  1  0  0  0  0
 25 40  1  0  0  0  0
 25 43  2  0  0  0  0
 26 40  1  0  0  0  0
 26 57  1  0  0  0  0
 26 58  1  0  0  0  0
 27 44  1  0  0  0  0
 27 45  1  0  0  0  0
 27 59  1  0  0  0  0
 28 47  1  0  0  0  0
 28 48  1  0  0  0  0
 28 60  1  0  0  0  0
 29  6  1  0  0  0  0
 29 30  1  0  0  0  0
 29 31  1  0  0  0  0
 29 68  1  1  0  0  0
 30  7  1  0  0  0  0
 30 32  1  0  0  0  0
 30 69  1  1  0  0  0
 31 33  1  0  0  0  0
 31 70  1  6  0  0  0
 32 22  1  0  0  0  0
 32 71  1  6  0  0  0
 33 72  1  0  0  0  0
 33 73  1  0  0  0  0
 34 36  1  0  0  0  0
 35 74  1  0  0  0  0
 36 40  2  0  0  0  0
 37 38  1  0  0  0  0
 37 39  1  0  0  0  0
 37 41  1  0  0  0  0
 37 42  1  0  0  0  0
 38 15  1  0  0  0  0
 38 44  1  0  0  0  0
 38 75  1  1  0  0  0
 39 76  1  0  0  0  0
 39 77  1  0  0  0  0
 41 78  1  0  0  0  0
 41 79  1  0  0  0  0
 41 80  1  0  0  0  0
 42 81  1  0  0  0  0
 42 82  1  0  0  0  0
 42 83  1  0  0  0  0
 43 84  1  0  0  0  0
 45 46  1  0  0  0  0
 45 85  1  0  0  0  0
 45 86  1  0  0  0  0
 46 47  1  0  0  0  0
 46 87  1  0  0  0  0
 46 88  1  0  0  0  0
 48 49  1  0  0  0  0
 48 89  1  0  0  0  0
 48 90  1  0  0  0  0
 49 91  1  0  0  0  0
 49 92  1  0  0  0  0
 50 51  1  0  0  0  0
 50 93  1  0  0  0  0
 50 94  1  0  0  0  0
 51 52  2  0  0  0  0
 51 53  1  0  0  0  0
 52 54  1  0  0  0  0
 52 95  1  0  0  0  0
 53 55  2  0  0  0  0
 53 96  1  0  0  0  0
 54 56  2  0  0  0  0
 54 97  1  0  0  0  0
 55 56  1  0  0  0  0
 55 98  1  0  0  0  0
M  END
>  <DRUGBANK_ID>
DB04067

>  <SECONDARY_ACCESSION_NUMBERS>
EXPT00207

>  <COMMON_NAME>
4-hydroxybenzyl coenzyme A

$$$$
