
 OpenBabel10282417072D

 75 75  0  0  0  0  0  0  0  0999 V2000
    0.6774    2.4083    0.0000 C   0  0  0  0  0  0  0  0  0  0  0  0
    0.0941    1.8250    0.0000 C   0  0  0  0  0  0  0  0  0  0  0  0
   -0.7028    2.0385    0.0000 O   0  0  0  0  0  0  0  0  0  0  0  0
   -1.2862    1.4551    0.0000 P   0  0  0  0  0  0  0  0  0  0  0  0
   -1.8696    2.0385    0.0000 O   0  0  0  0  0  0  0  0  0  0  0  0
   -0.7028    0.8718    0.0000 O   0  0  0  0  0  0  0  0  0  0  0  0
    0.0941    1.0853    0.0000 C   0  0  0  0  0  0  0  0  0  0  0  0
    0.6774    0.5019    0.0000 C   0  0  0  0  0  0  0  0  0  0  0  0
   -1.8696    0.8718    0.0000 C   0  0  0  0  0  0  0  0  0  0  0  0
   -2.6664    1.0853    0.0000 C   0  0  0  0  0  0  0  0  0  0  0  0
   -2.8800    1.8822    0.0000 C   0  0  0  0  0  0  0  0  0  0  0  0
   -3.6769    2.0957    0.0000 C   0  0  0  0  0  0  0  0  0  0  0  0
   -3.8904    2.8926    0.0000 C   0  0  0  0  0  0  0  0  0  0  0  0
   -3.3070    3.4760    0.0000 C   0  0  0  0  0  0  0  0  0  0  0  0
   -3.5205    4.2729    0.0000 O   0  0  0  0  0  0  0  0  0  0  0  0
   -2.5101    3.2624    0.0000 C   0  0  0  0  0  0  0  0  0  0  0  0
   -2.2966    2.4656    0.0000 C   0  0  0  0  0  0  0  0  0  0  0  0
   -1.9268    3.8458    0.0000 C   0  0  0  0  0  0  0  0  0  0  0  0
   -1.3434    4.4292    0.0000 C   0  0  0  0  0  0  0  0  0  0  0  0
   -1.3434    3.2624    0.0000 C   0  0  0  0  0  0  0  0  0  0  0  0
   -2.5101    4.4292    0.0000 C   0  0  0  0  0  0  0  0  0  0  0  0
   -4.6873    3.1061    0.0000 C   0  0  0  0  0  0  0  0  0  0  0  0
   -5.4842    3.3197    0.0000 C   0  0  0  0  0  0  0  0  0  0  0  0
   -4.4737    3.9030    0.0000 C   0  0  0  0  0  0  0  0  0  0  0  0
   -4.9008    2.3092    0.0000 C   0  0  0  0  0  0  0  0  0  0  0  0
   -1.6560    0.0749    0.0000 P   0  0  0  0  0  0  0  0  0  0  0  0
   -0.8591    0.2884    0.0000 O   0  0  0  0  0  0  0  0  0  0  0  0
   -2.4529   -0.1386    0.0000 O   0  0  0  0  0  0  0  0  0  0  0  0
   -2.6664   -0.9355    0.0000 C   0  0  0  0  0  0  0  0  0  0  0  0
   -3.4633   -1.1491    0.0000 C   0  0  0  0  0  0  0  0  0  0  0  0
   -1.4425   -0.7220    0.0000 O   0  0  0  0  0  0  0  0  0  0  0  0
   -0.6456   -0.9355    0.0000 C   0  0  0  0  0  0  0  0  0  0  0  0
   -0.0622   -0.3522    0.0000 C   0  0  0  0  0  0  0  0  0  0  0  0
    1.7109    2.1314    0.0000 H   0  0  0  0  0  0  0  0  0  0  0  0
    0.4005    3.4418    0.0000 H   0  0  0  0  0  0  0  0  0  0  0  0
    1.4340    3.1649    0.0000 H   0  0  0  0  0  0  0  0  0  0  0  0
    0.3711    0.7915    0.0000 H   0  0  0  0  0  0  0  0  0  0  0  0
   -0.6625    1.0684    0.0000 H   0  0  0  0  0  0  0  0  0  0  0  0
    0.3711    2.1188    0.0000 H   0  0  0  0  0  0  0  0  0  0  0  0
    1.1277    1.3622    0.0000 H   0  0  0  0  0  0  0  0  0  0  0  0
    0.4004   -0.5316    0.0000 H   0  0  0  0  0  0  0  0  0  0  0  0
    1.7110    0.7787    0.0000 H   0  0  0  0  0  0  0  0  0  0  0  0
    1.4339   -0.2548    0.0000 H   0  0  0  0  0  0  0  0  0  0  0  0
   -3.3961    0.3555    0.0000 H   0  0  0  0  0  0  0  0  0  0  0  0
   -4.4066    1.3660    0.0000 H   0  0  0  0  0  0  0  0  0  0  0  0
   -2.8579    4.9354    0.0000 H   0  0  0  0  0  0  0  0  0  0  0  0
   -1.2998    2.1985    0.0000 H   0  0  0  0  0  0  0  0  0  0  0  0
   -0.3099    4.1523    0.0000 H   0  0  0  0  0  0  0  0  0  0  0  0
   -1.6203    5.4627    0.0000 H   0  0  0  0  0  0  0  0  0  0  0  0
   -0.5868    5.1858    0.0000 H   0  0  0  0  0  0  0  0  0  0  0  0
   -1.6203    2.2289    0.0000 H   0  0  0  0  0  0  0  0  0  0  0  0
   -0.3099    3.5393    0.0000 H   0  0  0  0  0  0  0  0  0  0  0  0
   -0.5868    2.5058    0.0000 H   0  0  0  0  0  0  0  0  0  0  0  0
   -2.2331    5.4627    0.0000 H   0  0  0  0  0  0  0  0  0  0  0  0
   -3.5437    4.1524    0.0000 H   0  0  0  0  0  0  0  0  0  0  0  0
   -3.2666    5.1859    0.0000 H   0  0  0  0  0  0  0  0  0  0  0  0
   -5.7611    4.3533    0.0000 H   0  0  0  0  0  0  0  0  0  0  0  0
   -6.2409    2.5632    0.0000 H   0  0  0  0  0  0  0  0  0  0  0  0
   -6.5177    3.5967    0.0000 H   0  0  0  0  0  0  0  0  0  0  0  0
   -3.4401    4.1799    0.0000 H   0  0  0  0  0  0  0  0  0  0  0  0
   -5.2302    4.6597    0.0000 H   0  0  0  0  0  0  0  0  0  0  0  0
   -4.1967    4.9365    0.0000 H   0  0  0  0  0  0  0  0  0  0  0  0
   -5.9343    2.0322    0.0000 H   0  0  0  0  0  0  0  0  0  0  0  0
   -4.1442    1.5526    0.0000 H   0  0  0  0  0  0  0  0  0  0  0  0
   -5.1777    1.2757    0.0000 H   0  0  0  0  0  0  0  0  0  0  0  0
   -1.9098   -1.6921    0.0000 H   0  0  0  0  0  0  0  0  0  0  0  0
   -2.9433   -1.9691    0.0000 H   0  0  0  0  0  0  0  0  0  0  0  0
   -4.2200   -0.3926    0.0000 H   0  0  0  0  0  0  0  0  0  0  0  0
   -3.7402   -2.1827    0.0000 H   0  0  0  0  0  0  0  0  0  0  0  0
   -4.4968   -1.4261    0.0000 H   0  0  0  0  0  0  0  0  0  0  0  0
   -0.3687   -1.9690    0.0000 H   0  0  0  0  0  0  0  0  0  0  0  0
    0.3879   -1.2125    0.0000 H   0  0  0  0  0  0  0  0  0  0  0  0
    0.9713   -0.6292    0.0000 H   0  0  0  0  0  0  0  0  0  0  0  0
   -0.3390    0.6814    0.0000 H   0  0  0  0  0  0  0  0  0  0  0  0
    0.6945    0.4043    0.0000 H   0  0  0  0  0  0  0  0  0  0  0  0
  1  2  1  0  0  0  0
  1 34  1  0  0  0  0
  1 35  1  0  0  0  0
  1 36  1  0  0  0  0
  2  3  1  0  0  0  0
  2 37  1  0  0  0  0
  2 38  1  0  0  0  0
  3  4  1  0  0  0  0
  4  5  2  0  0  0  0
  4  6  1  0  0  0  0
  4  9  1  0  0  0  0
  6  7  1  0  0  0  0
  7  8  1  0  0  0  0
  7 39  1  0  0  0  0
  7 40  1  0  0  0  0
  8 41  1  0  0  0  0
  8 42  1  0  0  0  0
  8 43  1  0  0  0  0
  9 10  2  0  0  0  0
  9 26  1  0  0  0  0
 10 11  1  0  0  0  0
 10 44  1  0  0  0  0
 11 12  2  0  0  0  0
 11 17  1  0  0  0  0
 12 13  1  0  0  0  0
 12 45  1  0  0  0  0
 13 14  2  0  0  0  0
 13 22  1  0  0  0  0
 14 15  1  0  0  0  0
 14 16  1  0  0  0  0
 15 46  1  0  0  0  0
 16 17  2  0  0  0  0
 16 18  1  0  0  0  0
 17 47  1  0  0  0  0
 18 19  1  0  0  0  0
 18 20  1  0  0  0  0
 18 21  1  0  0  0  0
 19 48  1  0  0  0  0
 19 49  1  0  0  0  0
 19 50  1  0  0  0  0
 20 51  1  0  0  0  0
 20 52  1  0  0  0  0
 20 53  1  0  0  0  0
 21 54  1  0  0  0  0
 21 55  1  0  0  0  0
 21 56  1  0  0  0  0
 22 23  1  0  0  0  0
 22 24  1  0  0  0  0
 22 25  1  0  0  0  0
 23 57  1  0  0  0  0
 23 58  1  0  0  0  0
 23 59  1  0  0  0  0
 24 60  1  0  0  0  0
 24 61  1  0  0  0  0
 24 62  1  0  0  0  0
 25 63  1  0  0  0  0
 25 64  1  0  0  0  0
 25 65  1  0  0  0  0
 26 27  2  0  0  0  0
 26 28  1  0  0  0  0
 26 31  1  0  0  0  0
 28 29  1  0  0  0  0
 29 30  1  0  0  0  0
 29 66  1  0  0  0  0
 29 67  1  0  0  0  0
 30 68  1  0  0  0  0
 30 69  1  0  0  0  0
 30 70  1  0  0  0  0
 31 32  1  0  0  0  0
 32 33  1  0  0  0  0
 32 71  1  0  0  0  0
 32 72  1  0  0  0  0
 33 73  1  0  0  0  0
 33 74  1  0  0  0  0
 33 75  1  0  0  0  0
M  END
>  <DRUGBANK_ID>
DB04466

>  <SECONDARY_ACCESSION_NUMBERS>
EXPT02953

>  <COMMON_NAME>
SR12813

>  <CAS_NUMBER>
126411-39-0

>  <UNII>
6Q7MN2PVB9

$$$$
