824
 OpenBabel10282417072D

 24 25  0  0  0  0  0  0  0  0999 V2000
    1.6500   -0.2063    0.0000 O   0  0  0  0  0  0  0  0  0  0  0  0
    3.0791    2.2688    0.0000 O   0  0  0  0  0  0  0  0  0  0  0  0
    3.0791   -0.2063    0.0000 N   0  0  0  0  0  0  0  0  0  0  0  0
    2.3645    1.0313    0.0000 N   0  0  0  0  0  0  0  0  0  0  0  0
    4.5741    1.2827    0.0000 N   0  0  0  0  0  0  0  0  0  0  0  0
    4.5741   -0.0451    0.0000 N   0  0  0  0  0  0  0  0  0  0  0  0
    3.0791   -1.0313    0.0000 C   0  0  0  0  0  0  0  0  0  0  0  0
    3.7935    0.2063    0.0000 C   0  0  0  0  0  0  0  0  0  0  0  0
    2.3645   -1.4438    0.0000 C   0  0  0  0  0  0  0  0  0  0  0  0
    3.7935    1.0313    0.0000 C   0  0  0  0  0  0  0  0  0  0  0  0
    2.3645    0.2063    0.0000 C   0  0  0  0  0  0  0  0  0  0  0  0
    3.0791    1.4438    0.0000 C   0  0  0  0  0  0  0  0  0  0  0  0
    2.3645   -2.2688    0.0000 C   0  0  0  0  0  0  0  0  0  0  0  0
    5.0556    0.6188    0.0000 C   0  0  0  0  0  0  0  0  0  0  0  0
    1.5119    1.5236    0.0000 H   0  0  0  0  0  0  0  0  0  0  0  0
    4.8799    2.2185    0.0000 H   0  0  0  0  0  0  0  0  0  0  0  0
    4.0057   -1.5663    0.0000 H   0  0  0  0  0  0  0  0  0  0  0  0
    3.0790   -2.1013    0.0000 H   0  0  0  0  0  0  0  0  0  0  0  0
    1.4379   -0.9088    0.0000 H   0  0  0  0  0  0  0  0  0  0  0  0
    1.4378   -1.9788    0.0000 H   0  0  0  0  0  0  0  0  0  0  0  0
    1.4379   -2.8038    0.0000 H   0  0  0  0  0  0  0  0  0  0  0  0
    3.2911   -2.8038    0.0000 H   0  0  0  0  0  0  0  0  0  0  0  0
    2.3645   -3.3388    0.0000 H   0  0  0  0  0  0  0  0  0  0  0  0
    6.0876    0.6188    0.0000 H   0  0  0  0  0  0  0  0  0  0  0  0
  1 11  2  0  0  0  0
  2 12  2  0  0  0  0
  3  7  1  0  0  0  0
  3  8  1  0  0  0  0
  3 11  1  0  0  0  0
  4 11  1  0  0  0  0
  4 12  1  0  0  0  0
  4 15  1  0  0  0  0
  5 10  1  0  0  0  0
  5 14  1  0  0  0  0
  5 16  1  0  0  0  0
  6  8  1  0  0  0  0
  6 14  2  0  0  0  0
  7  9  1  0  0  0  0
  7 17  1  0  0  0  0
  7 18  1  0  0  0  0
  8 10  2  0  0  0  0
  9 13  1  0  0  0  0
  9 19  1  0  0  0  0
  9 20  1  0  0  0  0
 10 12  1  0  0  0  0
 13 21  1  0  0  0  0
 13 22  1  0  0  0  0
 13 23  1  0  0  0  0
 14 24  1  0  0  0  0
M  END
>  <DRUGBANK_ID>
DB00824

>  <SECONDARY_ACCESSION_NUMBERS>
APRD00273

>  <COMMON_NAME>
Enprofylline

>  <CAS_NUMBER>
41078-02-8

>  <UNII>
DT7DT5E518

>  <SYNONYMS>
3-n-propylxanthine; 3-Propyl-3,7-dihydro-purine-2,6-dione; 3-propylxanthine; 3,7-dihydro-3-propyl-1H-purine-2,6-dione; Enprofilina; Enprofylline; Enprofyllinum

$$$$
