HS6
 OpenBabel10282417072D

 23 23  0  0  0  0  0  0  0  0999 V2000
   -0.2485    1.1268    0.0000 O   0  0  0  0  0  0  0  0  0  0  0  0
    0.1640    0.4123    0.0000 S   0  0  0  0  0  0  0  0  0  0  0  0
    0.5765   -0.3021    0.0000 O   0  0  0  0  0  0  0  0  0  0  0  0
    0.8785    0.8248    0.0000 N   0  0  0  0  0  0  0  0  0  0  0  0
    1.5930    0.4123    0.0000 C   0  0  0  0  0  0  0  0  0  0  0  0
    2.3074    0.8248    0.0000 C   0  0  0  0  0  0  0  0  0  0  0  0
    2.3074    1.6498    0.0000 O   0  0  0  0  0  0  0  0  0  0  0  0
    3.0219    0.4123    0.0000 N   0  0  0  0  0  0  0  0  0  0  0  0
    3.7364    0.8248    0.0000 O   0  0  0  0  0  0  0  0  0  0  0  0
   -0.5505   -0.0002    0.0000 C   0  0  0  0  0  0  0  0  0  0  0  0
   -0.5505   -0.8252    0.0000 C   0  0  0  0  0  0  0  0  0  0  0  0
   -1.2649    0.4123    0.0000 C   0  0  0  0  0  0  0  0  0  0  0  0
   -1.9794   -0.0002    0.0000 C   0  0  0  0  0  0  0  0  0  0  0  0
   -1.9794   -0.8252    0.0000 C   0  0  0  0  0  0  0  0  0  0  0  0
   -2.6939   -1.2377    0.0000 F   0  0  0  0  0  0  0  0  0  0  0  0
   -1.2649   -1.2377    0.0000 C   0  0  0  0  0  0  0  0  0  0  0  0
    0.8785    1.8448    0.0000 H   0  0  0  0  0  0  0  0  0  0  0  0
    1.5930   -0.6577    0.0000 H   0  0  0  0  0  0  0  0  0  0  0  0
    2.5197   -0.1227    0.0000 H   0  0  0  0  0  0  0  0  0  0  0  0
    0.3432   -1.3412    0.0000 H   0  0  0  0  0  0  0  0  0  0  0  0
   -1.2649    1.4443    0.0000 H   0  0  0  0  0  0  0  0  0  0  0  0
   -2.8731    0.5158    0.0000 H   0  0  0  0  0  0  0  0  0  0  0  0
   -1.2649   -2.2697    0.0000 H   0  0  0  0  0  0  0  0  0  0  0  0
  1  2  2  0  0  0  0
  2  3  2  0  0  0  0
  2  4  1  0  0  0  0
  2 10  1  0  0  0  0
  4  5  1  0  0  0  0
  4 17  1  0  0  0  0
  5  6  1  0  0  0  0
  5 18  1  0  0  0  0
  5 19  1  0  0  0  0
  6  7  2  0  0  0  0
  6  8  1  0  0  0  0
  8  9  2  0  0  0  0
 10 11  2  0  0  0  0
 10 12  1  0  0  0  0
 11 16  1  0  0  0  0
 11 20  1  0  0  0  0
 12 13  2  0  0  0  0
 12 21  1  0  0  0  0
 13 14  1  0  0  0  0
 13 22  1  0  0  0  0
 14 15  1  0  0  0  0
 14 16  2  0  0  0  0
 16 23  1  0  0  0  0
M  END
>  <DRUGBANK_ID>
DB07921

>  <COMMON_NAME>
2-[(4-fluorophenyl)sulfonylamino]-N-oxo-ethanamide

$$$$
