
 OpenBabel10282417072D

 48 50  0  0  0  0  0  0  0  0999 V2000
    3.5724   -8.6625    0.0000 C   0  0  0  0  0  0  0  0  0  0  0  0
    3.5724   -7.8375    0.0000 C   0  0  0  0  0  0  0  0  0  0  0  0
    4.2868   -7.4250    0.0000 C   0  0  0  0  0  0  0  0  0  0  0  0
    5.0013   -7.8375    0.0000 C   0  0  0  0  0  0  0  0  0  0  0  0
    5.0013   -8.6625    0.0000 N   0  0  0  0  0  0  0  0  0  0  0  0
    4.2868   -9.0750    0.0000 C   0  0  0  0  0  0  0  0  0  0  0  0
    4.2868   -6.6000    0.0000 C   0  0  0  0  0  0  0  0  0  0  0  0
    5.0013   -6.1875    0.0000 C   0  0  0  0  0  0  0  0  0  0  0  0
    5.0013   -5.3625    0.0000 C   0  0  0  0  0  0  0  0  0  0  0  0
    4.2868   -4.9500    0.0000 O   0  0  0  0  0  0  0  0  0  0  0  0
    5.7158   -4.9500    0.0000 N   0  0  0  0  0  0  0  0  0  0  0  0
    5.7158   -4.1250    0.0000 C   0  0  0  0  0  0  0  0  0  0  0  0
    6.4302   -3.7125    0.0000 C   0  0  0  0  0  0  0  0  0  0  0  0
    6.4302   -2.8875    0.0000 C   0  0  0  0  0  0  0  0  0  0  0  0
    7.1447   -2.4750    0.0000 C   0  0  0  0  0  0  0  0  0  0  0  0
    7.8592   -2.8875    0.0000 C   0  0  0  0  0  0  0  0  0  0  0  0
    7.8592   -3.7125    0.0000 C   0  0  0  0  0  0  0  0  0  0  0  0
    7.1447   -4.1250    0.0000 C   0  0  0  0  0  0  0  0  0  0  0  0
    8.5737   -2.4750    0.0000 C   0  0  0  0  0  0  0  0  0  0  0  0
    9.2881   -2.8875    0.0000 O   0  0  0  0  0  0  0  0  0  0  0  0
    8.5737   -1.6500    0.0000 N   0  0  0  0  0  0  0  0  0  0  0  0
    9.2881   -1.2375    0.0000 C   0  0  0  0  0  0  0  0  0  0  0  0
    9.2881   -0.4125    0.0000 C   0  0  0  0  0  0  0  0  0  0  0  0
   10.0026    0.0000    0.0000 C   0  0  0  0  0  0  0  0  0  0  0  0
   10.7171   -0.4125    0.0000 C   0  0  0  0  0  0  0  0  0  0  0  0
   10.7171   -1.2375    0.0000 C   0  0  0  0  0  0  0  0  0  0  0  0
   10.0026   -1.6500    0.0000 C   0  0  0  0  0  0  0  0  0  0  0  0
   10.0026   -2.4750    0.0000 N   0  0  0  0  0  0  0  0  0  0  0  0
   11.4315   -0.0000    0.0000 F   0  0  0  0  0  0  0  0  0  0  0  0
    2.6787   -9.1785    0.0000 H   0  0  0  0  0  0  0  0  0  0  0  0
    2.6787   -7.3215    0.0000 H   0  0  0  0  0  0  0  0  0  0  0  0
    5.8950   -7.3215    0.0000 H   0  0  0  0  0  0  0  0  0  0  0  0
    4.2868  -10.1070    0.0000 H   0  0  0  0  0  0  0  0  0  0  0  0
    3.3931   -6.0840    0.0000 H   0  0  0  0  0  0  0  0  0  0  0  0
    5.8950   -6.7035    0.0000 H   0  0  0  0  0  0  0  0  0  0  0  0
    6.5684   -5.4423    0.0000 H   0  0  0  0  0  0  0  0  0  0  0  0
    4.7891   -3.5900    0.0000 H   0  0  0  0  0  0  0  0  0  0  0  0
    5.7158   -3.0550    0.0000 H   0  0  0  0  0  0  0  0  0  0  0  0
    5.5365   -2.3715    0.0000 H   0  0  0  0  0  0  0  0  0  0  0  0
    7.1447   -1.4430    0.0000 H   0  0  0  0  0  0  0  0  0  0  0  0
    8.7529   -4.2285    0.0000 H   0  0  0  0  0  0  0  0  0  0  0  0
    7.1447   -5.1570    0.0000 H   0  0  0  0  0  0  0  0  0  0  0  0
    7.7211   -1.1578    0.0000 H   0  0  0  0  0  0  0  0  0  0  0  0
    8.3944    0.1035    0.0000 H   0  0  0  0  0  0  0  0  0  0  0  0
   10.0026    1.0320    0.0000 H   0  0  0  0  0  0  0  0  0  0  0  0
   11.6108   -1.7535    0.0000 H   0  0  0  0  0  0  0  0  0  0  0  0
    9.1500   -2.9672    0.0000 H   0  0  0  0  0  0  0  0  0  0  0  0
   10.8552   -2.9672    0.0000 H   0  0  0  0  0  0  0  0  0  0  0  0
  1  2  2  0  0  0  0
  1  6  1  0  0  0  0
  1 30  1  0  0  0  0
  2  3  1  0  0  0  0
  2 31  1  0  0  0  0
  3  4  2  0  0  0  0
  3  7  1  0  0  0  0
  4  5  1  0  0  0  0
  4 32  1  0  0  0  0
  5  6  2  0  0  0  0
  6 33  1  0  0  0  0
  7  8  2  0  0  0  0
  7 34  1  0  0  0  0
  8  9  1  0  0  0  0
  8 35  1  0  0  0  0
  9 10  2  0  0  0  0
  9 11  1  0  0  0  0
 11 12  1  0  0  0  0
 11 36  1  0  0  0  0
 12 13  1  0  0  0  0
 12 37  1  0  0  0  0
 12 38  1  0  0  0  0
 13 14  2  0  0  0  0
 13 18  1  0  0  0  0
 14 15  1  0  0  0  0
 14 39  1  0  0  0  0
 15 16  2  0  0  0  0
 15 40  1  0  0  0  0
 16 17  1  0  0  0  0
 16 19  1  0  0  0  0
 17 18  2  0  0  0  0
 17 41  1  0  0  0  0
 18 42  1  0  0  0  0
 19 20  2  0  0  0  0
 19 21  1  0  0  0  0
 21 22  1  0  0  0  0
 21 43  1  0  0  0  0
 22 23  2  0  0  0  0
 22 27  1  0  0  0  0
 23 24  1  0  0  0  0
 23 44  1  0  0  0  0
 24 25  2  0  0  0  0
 24 45  1  0  0  0  0
 25 26  1  0  0  0  0
 25 29  1  0  0  0  0
 26 27  2  0  0  0  0
 26 46  1  0  0  0  0
 27 28  1  0  0  0  0
 28 47  1  0  0  0  0
 28 48  1  0  0  0  0
M  END
>  <DRUGBANK_ID>
DB06334

>  <COMMON_NAME>
Tucidinostat

>  <CAS_NUMBER>
1616493-44-7

>  <UNII>
87CIC980Y0

>  <SYNONYMS>
Chidamide; Tucidinostat

$$$$
