
 OpenBabel10282417072D

 55 58  0  0  1  0  0  0  0  0999 V2000
   -3.2426    1.1270    0.0000 C   0  0  0  0  0  0  0  0  0  0  0  0
   -1.1801    3.2704    0.0000 C   0  0  0  0  0  0  0  0  0  0  0  0
   -2.0051    3.2704    0.0000 C   0  0  0  0  0  0  0  0  0  0  0  0
   -0.7676    2.5559    0.0000 C   0  0  0  0  0  0  0  0  0  0  0  0
   -2.4176    2.5559    0.0000 C   0  0  0  0  0  0  0  0  0  0  0  0
    3.9934    0.8250    0.0000 C   0  0  0  0  0  0  0  0  0  0  0  0
    3.2789    1.2375    0.0000 C   0  0  0  0  0  0  0  0  0  0  0  0
   -1.1801    0.4125    0.0000 C   0  0  0  0  0  0  0  0  0  0  0  0
    0.0574   -0.3020    0.0000 C   0  0  0  0  0  0  0  0  0  0  0  0
    3.2789   -0.4125    0.0000 C   0  0  0  0  0  0  0  0  0  0  0  0
   -0.7676   -1.7309    0.0000 C   0  0  0  0  0  0  0  0  0  0  0  0
    3.9934    0.0000    0.0000 C   0  0  0  0  0  0  0  0  0  0  0  0
   -0.7676   -0.3020    0.0000 C   0  0  0  0  0  0  0  0  0  0  0  0
   -1.1801    1.8414    0.0000 C   0  0  0  0  0  0  0  0  0  0  0  0
   -1.1801   -1.0164    0.0000 C   0  0  2  0  0  0  0  0  0  0  0  0
   -0.7676    1.1270    0.0000 C   0  0  0  0  0  0  0  0  0  0  0  0
    0.4699    0.4125    0.0000 C   0  0  0  0  0  0  0  0  0  0  0  0
    2.5645    0.8250    0.0000 C   0  0  0  0  0  0  0  0  0  0  0  0
    2.5645    0.0000    0.0000 C   0  0  0  0  0  0  0  0  0  0  0  0
   -2.0051    1.8414    0.0000 C   0  0  0  0  0  0  0  0  0  0  0  0
    0.0574   -1.7309    0.0000 C   0  0  0  0  0  0  0  0  0  0  0  0
    0.0574    1.1270    0.0000 C   0  0  0  0  0  0  0  0  0  0  0  0
    4.7079   -0.4125    0.0000 C   0  0  0  0  0  0  0  0  0  0  0  0
    1.2949    0.4125    0.0000 C   0  0  0  0  0  0  0  0  0  0  0  0
   -2.0051   -1.0164    0.0000 C   0  0  0  0  0  0  0  0  0  0  0  0
    5.4223   -0.0000    0.0000 N   0  0  0  0  0  0  0  0  0  0  0  0
    4.7079   -1.2375    0.0000 N   0  0  0  0  0  0  0  0  0  0  0  0
    1.7798    1.0799    0.0000 N   0  0  0  0  0  0  0  0  0  0  0  0
    1.7798   -0.2549    0.0000 N   0  0  0  0  0  0  0  0  0  0  0  0
    0.4699   -2.4454    0.0000 O   0  0  0  0  0  0  0  0  0  0  0  0
    0.4699   -1.0164    0.0000 O   0  5  0  0  0  0  0  0  0  0  0  0
    0.4699    1.8414    0.0000 O   0  5  0  0  0  0  0  0  0  0  0  0
   -2.4176   -1.7309    0.0000 O   0  0  0  0  0  0  0  0  0  0  0  0
   -2.4176   -0.3020    0.0000 O   0  0  0  0  0  0  0  0  0  0  0  0
   -2.4176    1.1270    0.0000 O   0  0  0  0  0  0  0  0  0  0  0  0
   -0.3551   -1.0164    0.0000 H   0  0  0  0  0  0  0  0  0  0  0  0
   -3.7776    2.0536    0.0000 H   0  0  0  0  0  0  0  0  0  0  0  0
   -3.7776    0.2004    0.0000 H   0  0  0  0  0  0  0  0  0  0  0  0
   -4.3126    1.1270    0.0000 H   0  0  0  0  0  0  0  0  0  0  0  0
   -0.6641    4.1641    0.0000 H   0  0  0  0  0  0  0  0  0  0  0  0
   -2.5211    4.1641    0.0000 H   0  0  0  0  0  0  0  0  0  0  0  0
    0.2644    2.5559    0.0000 H   0  0  0  0  0  0  0  0  0  0  0  0
   -3.4496    2.5559    0.0000 H   0  0  0  0  0  0  0  0  0  0  0  0
    4.8871    1.3410    0.0000 H   0  0  0  0  0  0  0  0  0  0  0  0
    3.2789    2.2695    0.0000 H   0  0  0  0  0  0  0  0  0  0  0  0
   -2.2121    0.4125    0.0000 H   0  0  0  0  0  0  0  0  0  0  0  0
    0.5734   -1.1957    0.0000 H   0  0  0  0  0  0  0  0  0  0  0  0
    3.2789   -1.4445    0.0000 H   0  0  0  0  0  0  0  0  0  0  0  0
   -1.3026   -2.6575    0.0000 H   0  0  0  0  0  0  0  0  0  0  0  0
   -0.2326   -2.6575    0.0000 H   0  0  0  0  0  0  0  0  0  0  0  0
    6.2749   -0.4922    0.0000 H   0  0  0  0  0  0  0  0  0  0  0  0
    3.8553   -1.7298    0.0000 H   0  0  0  0  0  0  0  0  0  0  0  0
    5.5605   -1.7297    0.0000 H   0  0  0  0  0  0  0  0  0  0  0  0
    1.4755   -1.1912    0.0000 H   0  0  0  0  0  0  0  0  0  0  0  0
   -1.9491    0.5095    0.0000 H   0  0  0  0  0  0  0  0  0  0  0  0
  1 37  1  0  0  0  0
  1 38  1  0  0  0  0
  1 39  1  0  0  0  0
  2 40  1  0  0  0  0
  3  2  2  0  0  0  0
  3 41  1  0  0  0  0
  4  2  1  0  0  0  0
  4 42  1  0  0  0  0
  5  3  1  0  0  0  0
  5 43  1  0  0  0  0
  6 44  1  0  0  0  0
  7  6  2  0  0  0  0
  7 45  1  0  0  0  0
  8 46  1  0  0  0  0
  9 47  1  0  0  0  0
 10 48  1  0  0  0  0
 11 49  1  0  0  0  0
 11 50  1  0  0  0  0
 12  6  1  0  0  0  0
 12 10  2  0  0  0  0
 13  8  2  0  0  0  0
 13  9  1  0  0  0  0
 14  4  2  0  0  0  0
 15 11  1  0  0  0  0
 15 13  1  0  0  0  0
 15 25  1  0  0  0  0
 15 36  1  6  0  0  0
 16  8  1  0  0  0  0
 16 14  1  0  0  0  0
 17  9  2  0  0  0  0
 18  7  1  0  0  0  0
 19 10  1  0  0  0  0
 19 18  2  0  0  0  0
 20  5  2  0  0  0  0
 20 14  1  0  0  0  0
 21 11  1  0  0  0  0
 22 16  2  0  0  0  0
 22 17  1  0  0  0  0
 23 12  1  0  0  0  0
 24 17  1  0  0  0  0
 26 23  2  0  0  0  0
 26 51  1  0  0  0  0
 27 23  1  0  0  0  0
 27 52  1  0  0  0  0
 27 53  1  0  0  0  0
 28 18  1  0  0  0  0
 28 24  2  0  0  0  0
 29 19  1  0  0  0  0
 29 24  1  0  0  0  0
 29 54  1  0  0  0  0
 30 21  2  0  0  0  0
 31 21  1  0  0  0  0
 32 22  1  0  0  0  0
 33 25  2  0  0  0  0
 34 25  1  0  0  0  0
 34 55  1  0  0  0  0
 35  1  1  0  0  0  0
 35 20  1  0  0  0  0
M  CHG  2  31  -1  32  -1
M  END
>  <DRUGBANK_ID>
DB02084

>  <SECONDARY_ACCESSION_NUMBERS>
EXPT00149

>  <COMMON_NAME>
CRA_17312

$$$$
