
 OpenBabel10282417072D

  5  4  0  0  0  0  0  0  0  0999 V2000
    0.0000    0.0000    0.0000 P   0  0  0  0  0  0  0  0  0  0  0  0
    0.7145    0.4125    0.0000 O   0  5  0  0  0  0  0  0  0  0  0  0
   -0.7145   -0.4125    0.0000 O   0  5  0  0  0  0  0  0  0  0  0  0
   -0.4125    0.7145    0.0000 O   0  5  0  0  0  0  0  0  0  0  0  0
    0.4125   -0.7145    0.0000 O   0  0  0  0  0  0  0  0  0  0  0  0
  1  2  1  0  0  0  0
  1  3  1  0  0  0  0
  1  4  1  0  0  0  0
  1  5  2  0  0  0  0
M  ISO  1   1  32
M  CHG  3   2  -1   3  -1   4  -1
M  END
>  <DRUGBANK_ID>
DB14573

>  <COMMON_NAME>
Phosphate ion P-32

>  <CAS_NUMBER>
18274-25-4

>  <UNII>
N27ADP50ER

>  <SYNONYMS>
Phosphate-32; Phosphate-32P

$$$$
