
 OpenBabel10282417072D

 40 41  0  0  0  0  0  0  0  0999 V2000
    4.2365   -4.7439    0.0000 F   0  0  0  0  0  0  0  0  0  0  0  0
    4.2365    3.5063    0.0000 O   0  0  0  0  0  0  0  0  0  0  0  0
    4.9509    2.2688    0.0000 O   0  0  0  0  0  0  0  0  0  0  0  0
    3.5220   -1.0313    0.0000 N   0  0  0  0  0  0  0  0  0  0  0  0
    3.5220    2.2688    0.0000 N   0  0  0  0  0  0  0  0  0  0  0  0
    2.0930    1.4438    0.0000 N   0  0  0  0  0  0  0  0  0  0  0  0
    4.2365   -1.4438    0.0000 C   0  0  0  0  0  0  0  0  0  0  0  0
    3.5220   -0.2063    0.0000 C   0  0  0  0  0  0  0  0  0  0  0  0
    4.2365   -2.2688    0.0000 C   0  0  0  0  0  0  0  0  0  0  0  0
    3.5220    1.4438    0.0000 C   0  0  0  0  0  0  0  0  0  0  0  0
    2.8075    0.2063    0.0000 C   0  0  0  0  0  0  0  0  0  0  0  0
    2.8075    1.0313    0.0000 C   0  0  0  0  0  0  0  0  0  0  0  0
    4.2365    0.2063    0.0000 C   0  0  0  0  0  0  0  0  0  0  0  0
    4.2365    1.0313    0.0000 C   0  0  0  0  0  0  0  0  0  0  0  0
    4.9509   -2.6813    0.0000 C   0  0  0  0  0  0  0  0  0  0  0  0
    3.5220   -2.6813    0.0000 C   0  0  0  0  0  0  0  0  0  0  0  0
    4.9509   -3.5063    0.0000 C   0  0  0  0  0  0  0  0  0  0  0  0
    3.5220   -3.5063    0.0000 C   0  0  0  0  0  0  0  0  0  0  0  0
    4.2365   -3.9188    0.0000 C   0  0  0  0  0  0  0  0  0  0  0  0
    4.2365    2.6813    0.0000 C   0  0  0  0  0  0  0  0  0  0  0  0
    4.9509    3.9188    0.0000 C   0  0  0  0  0  0  0  0  0  0  0  0
    4.9509    4.7439    0.0000 C   0  0  0  0  0  0  0  0  0  0  0  0
    2.6694   -1.5236    0.0000 H   0  0  0  0  0  0  0  0  0  0  0  0
    2.6694    2.7611    0.0000 H   0  0  0  0  0  0  0  0  0  0  0  0
    2.0930    2.4283    0.0000 H   0  0  0  0  0  0  0  0  0  0  0  0
    1.2404    0.9515    0.0000 H   0  0  0  0  0  0  0  0  0  0  0  0
    5.1631   -0.9088    0.0000 H   0  0  0  0  0  0  0  0  0  0  0  0
    5.1631   -1.9788    0.0000 H   0  0  0  0  0  0  0  0  0  0  0  0
    1.9137   -0.3097    0.0000 H   0  0  0  0  0  0  0  0  0  0  0  0
    5.1303   -0.3097    0.0000 H   0  0  0  0  0  0  0  0  0  0  0  0
    5.1302    1.5473    0.0000 H   0  0  0  0  0  0  0  0  0  0  0  0
    5.8446   -2.1653    0.0000 H   0  0  0  0  0  0  0  0  0  0  0  0
    2.6283   -2.1653    0.0000 H   0  0  0  0  0  0  0  0  0  0  0  0
    5.8446   -4.0223    0.0000 H   0  0  0  0  0  0  0  0  0  0  0  0
    2.6283   -4.0223    0.0000 H   0  0  0  0  0  0  0  0  0  0  0  0
    5.8776    3.3838    0.0000 H   0  0  0  0  0  0  0  0  0  0  0  0
    5.8775    4.4538    0.0000 H   0  0  0  0  0  0  0  0  0  0  0  0
    5.8775    5.2789    0.0000 H   0  0  0  0  0  0  0  0  0  0  0  0
    4.0243    5.2789    0.0000 H   0  0  0  0  0  0  0  0  0  0  0  0
    4.9509    5.8139    0.0000 H   0  0  0  0  0  0  0  0  0  0  0  0
  1 19  1  0  0  0  0
  2 20  1  0  0  0  0
  2 21  1  0  0  0  0
  3 20  2  0  0  0  0
  4  7  1  0  0  0  0
  4  8  1  0  0  0  0
  4 23  1  0  0  0  0
  5 10  1  0  0  0  0
  5 20  1  0  0  0  0
  5 24  1  0  0  0  0
  6 12  1  0  0  0  0
  6 25  1  0  0  0  0
  6 26  1  0  0  0  0
  7  9  1  0  0  0  0
  7 27  1  0  0  0  0
  7 28  1  0  0  0  0
  8 11  2  0  0  0  0
  8 13  1  0  0  0  0
  9 15  2  0  0  0  0
  9 16  1  0  0  0  0
 10 12  2  0  0  0  0
 10 14  1  0  0  0  0
 11 12  1  0  0  0  0
 11 29  1  0  0  0  0
 13 14  2  0  0  0  0
 13 30  1  0  0  0  0
 14 31  1  0  0  0  0
 15 17  1  0  0  0  0
 15 32  1  0  0  0  0
 16 18  2  0  0  0  0
 16 33  1  0  0  0  0
 17 19  2  0  0  0  0
 17 34  1  0  0  0  0
 18 19  1  0  0  0  0
 18 35  1  0  0  0  0
 21 22  1  0  0  0  0
 21 36  1  0  0  0  0
 21 37  1  0  0  0  0
 22 38  1  0  0  0  0
 22 39  1  0  0  0  0
 22 40  1  0  0  0  0
M  END
>  <DRUGBANK_ID>
DB04953

>  <COMMON_NAME>
Ezogabine

>  <CAS_NUMBER>
150812-12-7

>  <UNII>
12G01I6BBU

>  <SYNONYMS>
ethyl {2-amino-4-[(4-fluorobenzyl)amino]phenyl}carbamate; Ethyl 2-amino-4-((p-fluorobenzyl)amino)carbanilate; EZG; Ezogabine; N-(2-Amino-4-(4-fluorobenzylamino)-phenyl) carbamic acid ethyl ester; N-(2-Amino-4-(4-fluorobenzylamino)phenyl)carbamic acid ethyl ester; Retigabina; Retigabine; RTG

$$$$
