
 OpenBabel10282417072D

 55 57  0  0  0  0  0  0  0  0999 V2000
    2.3115    0.9287    0.0000 N   0  0  0  0  0  0  0  0  0  0  0  0
    1.6493    0.4289    0.0000 C   0  0  0  0  0  0  0  0  0  0  0  0
    3.0155    0.4956    0.0000 C   0  0  2  0  0  0  0  0  0  0  0  0
    2.3282    1.7534    0.0000 N   0  0  3  0  0  0  0  0  0  0  0  0
    0.8496    0.6331    0.0000 C   0  0  1  0  0  0  0  0  0  0  0  0
    2.9904   -0.3414    0.0000 C   0  0  0  0  0  0  0  0  0  0  0  0
    0.2998    0.0166    0.0000 N   0  0  0  0  0  0  0  0  0  0  0  0
   -0.7704    0.9537    0.0000 C   0  0  0  0  0  0  0  0  0  0  0  0
   -0.5123    0.1790    0.0000 C   0  0  2  0  0  0  0  0  0  0  0  0
    1.8034   -0.3956    0.0000 O   0  0  0  0  0  0  0  0  0  0  0  0
    2.2657   -0.7330    0.0000 O   0  0  0  0  0  0  0  0  0  0  0  0
   -1.5826    1.1162    0.0000 O   0  0  0  0  0  0  0  0  0  0  0  0
   -1.0578   -0.4414    0.0000 C   0  0  0  0  0  0  0  0  0  0  0  0
    3.6984   -0.7705    0.0000 O   0  0  0  0  0  0  0  0  0  0  0  0
   -0.2249    1.5785    0.0000 O   0  0  0  0  0  0  0  0  0  0  0  0
    3.7401    0.8912    0.0000 C   0  0  0  0  0  0  0  0  0  0  0  0
   -1.8617   -0.2707    0.0000 C   0  0  0  0  0  0  0  0  0  0  0  0
    1.6910    2.2782    0.0000 C   0  0  0  0  0  0  0  0  0  0  0  0
    3.0529    2.1450    0.0000 C   0  0  0  0  0  0  0  0  0  0  0  0
   -2.4072   -0.8830    0.0000 C   0  0  0  0  0  0  0  0  0  0  0  0
    0.5164    1.3786    0.0000 C   0  0  0  0  0  0  0  0  0  0  0  0
    3.7609    1.7159    0.0000 C   0  0  0  0  0  0  0  0  0  0  0  0
    0.8871    2.1157    0.0000 C   0  0  0  0  0  0  0  0  0  0  0  0
   -3.2194   -0.7206    0.0000 C   0  0  0  0  0  0  0  0  0  0  0  0
   -2.1573   -1.6660    0.0000 C   0  0  0  0  0  0  0  0  0  0  0  0
   -3.7609   -1.3453    0.0000 C   0  0  0  0  0  0  0  0  0  0  0  0
   -2.6947   -2.2782    0.0000 C   0  0  0  0  0  0  0  0  0  0  0  0
   -3.4985   -2.1157    0.0000 C   0  0  0  0  0  0  0  0  0  0  0  0
    2.0738   -0.0124    0.0000 H   0  0  0  0  0  0  0  0  0  0  0  0
    1.1620   -0.3903    0.0000 H   0  0  0  0  0  0  0  0  0  0  0  0
    0.6232   -0.9508    0.0000 H   0  0  0  0  0  0  0  0  0  0  0  0
    0.1959    0.9811    0.0000 H   0  0  0  0  0  0  0  0  0  0  0  0
   -0.7211   -1.4570    0.0000 H   0  0  0  0  0  0  0  0  0  0  0  0
   -1.7713   -1.2388    0.0000 H   0  0  0  0  0  0  0  0  0  0  0  0
    3.6785   -1.7073    0.0000 H   0  0  0  0  0  0  0  0  0  0  0  0
    0.6945    1.3977    0.0000 H   0  0  0  0  0  0  0  0  0  0  0  0
    4.6533    0.3336    0.0000 H   0  0  0  0  0  0  0  0  0  0  0  0
    4.6798    1.4030    0.0000 H   0  0  0  0  0  0  0  0  0  0  0  0
   -2.1951    0.7460    0.0000 H   0  0  0  0  0  0  0  0  0  0  0  0
   -2.9092   -0.0524    0.0000 H   0  0  0  0  0  0  0  0  0  0  0  0
    1.9503    3.3163    0.0000 H   0  0  0  0  0  0  0  0  0  0  0  0
    0.9517    3.0517    0.0000 H   0  0  0  0  0  0  0  0  0  0  0  0
    3.0794    3.2147    0.0000 H   0  0  0  0  0  0  0  0  0  0  0  0
    3.9916    2.6585    0.0000 H   0  0  0  0  0  0  0  0  0  0  0  0
   -0.5533    1.4030    0.0000 H   0  0  0  0  0  0  0  0  0  0  0  0
   -0.0346    2.2958    0.0000 H   0  0  0  0  0  0  0  0  0  0  0  0
    4.6997    2.2292    0.0000 H   0  0  0  0  0  0  0  0  0  0  0  0
    4.6743    1.1586    0.0000 H   0  0  0  0  0  0  0  0  0  0  0  0
    0.2377    2.9661    0.0000 H   0  0  0  0  0  0  0  0  0  0  0  0
   -0.1783    2.0162    0.0000 H   0  0  0  0  0  0  0  0  0  0  0  0
   -3.5535    0.2558    0.0000 H   0  0  0  0  0  0  0  0  0  0  0  0
   -1.1471   -1.8768    0.0000 H   0  0  0  0  0  0  0  0  0  0  0  0
   -4.7737   -1.1474    0.0000 H   0  0  0  0  0  0  0  0  0  0  0  0
   -2.3647   -3.2560    0.0000 H   0  0  0  0  0  0  0  0  0  0  0  0
   -4.1798   -2.8909    0.0000 H   0  0  0  0  0  0  0  0  0  0  0  0
  2  1  1  0  0  0  0
  3  1  1  0  0  0  0
  3  6  1  0  0  0  0
  3 29  1  6  0  0  0
  4  1  1  0  0  0  0
  5  2  1  0  0  0  0
  5  7  1  0  0  0  0
  5 30  1  6  0  0  0
  7 31  1  0  0  0  0
  9  8  1  0  0  0  0
  9  7  1  0  0  0  0
  9 32  1  6  0  0  0
 10  2  2  0  0  0  0
 11  6  2  0  0  0  0
 12  8  2  0  0  0  0
 13  9  1  0  0  0  0
 13 33  1  0  0  0  0
 13 34  1  0  0  0  0
 14  6  1  0  0  0  0
 14 35  1  0  0  0  0
 15  8  1  0  0  0  0
 15 36  1  0  0  0  0
 16  3  1  0  0  0  0
 16 22  1  0  0  0  0
 16 37  1  0  0  0  0
 16 38  1  0  0  0  0
 17 13  1  0  0  0  0
 17 39  1  0  0  0  0
 17 40  1  0  0  0  0
 18  4  1  0  0  0  0
 18 41  1  0  0  0  0
 18 42  1  0  0  0  0
 19  4  1  0  0  0  0
 19 43  1  0  0  0  0
 19 44  1  0  0  0  0
 20 17  1  0  0  0  0
 21  5  1  0  0  0  0
 21 45  1  0  0  0  0
 21 46  1  0  0  0  0
 22 19  1  0  0  0  0
 22 47  1  0  0  0  0
 22 48  1  0  0  0  0
 23 18  1  0  0  0  0
 23 21  1  0  0  0  0
 23 49  1  0  0  0  0
 23 50  1  0  0  0  0
 24 20  1  0  0  0  0
 24 51  1  0  0  0  0
 25 20  2  0  0  0  0
 25 52  1  0  0  0  0
 26 24  2  0  0  0  0
 26 28  1  0  0  0  0
 26 53  1  0  0  0  0
 27 25  1  0  0  0  0
 27 54  1  0  0  0  0
 28 27  2  0  0  0  0
 28 55  1  0  0  0  0
M  END
>  <DRUGBANK_ID>
DB15565

>  <COMMON_NAME>
Cilazaprilat

>  <CAS_NUMBER>
90139-06-3

>  <UNII>
WBL76FH528

>  <SYNONYMS>
Cilazaprilat; Cilazaprilate; Cilazaprilatum

$$$$
