
 OpenBabel10282417072D

 45 47  0  0  0  0  0  0  0  0999 V2000
   -0.7495    0.9524    0.0000 C   0  0  0  0  0  0  0  0  0  0  0  0
    0.5200    1.3649    0.0000 O   0  0  0  0  0  0  0  0  0  0  0  0
   -0.7495    1.7774    0.0000 C   0  0  0  0  0  0  0  0  0  0  0  0
   -1.4640    0.5399    0.0000 C   0  0  0  0  0  0  0  0  0  0  0  0
    0.0350    2.0324    0.0000 C   0  0  0  0  0  0  0  0  0  0  0  0
   -1.4640    2.1899    0.0000 C   0  0  0  0  0  0  0  0  0  0  0  0
   -2.1784    0.9524    0.0000 C   0  0  0  0  0  0  0  0  0  0  0  0
   -2.1784    1.7774    0.0000 C   0  0  0  0  0  0  0  0  0  0  0  0
   -2.8929    2.1899    0.0000 C   0  0  0  0  0  0  0  0  0  0  0  0
   -3.6074    2.6024    0.0000 N   0  0  0  0  0  0  0  0  0  0  0  0
   -0.6793   -0.5399    0.0000 C   0  0  0  0  0  0  0  0  0  0  0  0
    0.7495   -0.5399    0.0000 C   0  0  0  0  0  0  0  0  0  0  0  0
   -0.6793   -1.3649    0.0000 C   0  0  0  0  0  0  0  0  0  0  0  0
    0.7495   -1.3649    0.0000 C   0  0  0  0  0  0  0  0  0  0  0  0
    0.0350   -1.7774    0.0000 C   0  0  0  0  0  0  0  0  0  0  0  0
    0.0350   -2.6024    0.0000 F   0  0  0  0  0  0  0  0  0  0  0  0
    0.0350   -0.1274    0.0000 C   0  0  0  0  0  0  0  0  0  0  0  0
    0.7495    0.2850    0.0000 C   0  0  0  0  0  0  0  0  0  0  0  0
    1.4639    0.6975    0.0000 C   0  0  0  0  0  0  0  0  0  0  0  0
    2.1784    0.2850    0.0000 C   0  0  0  0  0  0  0  0  0  0  0  0
    2.8929    0.6975    0.0000 N   0  0  0  0  0  0  0  0  0  0  0  0
    2.8929    1.5225    0.0000 C   0  0  0  0  0  0  0  0  0  0  0  0
    3.6074    0.2850    0.0000 C   0  0  0  0  0  0  0  0  0  0  0  0
    0.0350    0.6975    0.0000 C   0  0  1  0  0  0  0  0  0  0  0  0
   -1.4640   -0.4921    0.0000 H   0  0  0  0  0  0  0  0  0  0  0  0
    0.3656    3.0501    0.0000 H   0  0  0  0  0  0  0  0  0  0  0  0
   -0.7217    2.7889    0.0000 H   0  0  0  0  0  0  0  0  0  0  0  0
   -1.4640    3.2219    0.0000 H   0  0  0  0  0  0  0  0  0  0  0  0
   -3.0721    0.4364    0.0000 H   0  0  0  0  0  0  0  0  0  0  0  0
   -1.5731   -0.0239    0.0000 H   0  0  0  0  0  0  0  0  0  0  0  0
    1.6432   -0.0239    0.0000 H   0  0  0  0  0  0  0  0  0  0  0  0
   -1.5731   -1.8809    0.0000 H   0  0  0  0  0  0  0  0  0  0  0  0
    1.6432   -1.8809    0.0000 H   0  0  0  0  0  0  0  0  0  0  0  0
    0.7495   -0.7850    0.0000 H   0  0  0  0  0  0  0  0  0  0  0  0
    1.6762   -0.2500    0.0000 H   0  0  0  0  0  0  0  0  0  0  0  0
    1.4639    1.7675    0.0000 H   0  0  0  0  0  0  0  0  0  0  0  0
    2.3905    1.2325    0.0000 H   0  0  0  0  0  0  0  0  0  0  0  0
    2.1784   -0.7850    0.0000 H   0  0  0  0  0  0  0  0  0  0  0  0
    3.1050   -0.2500    0.0000 H   0  0  0  0  0  0  0  0  0  0  0  0
    3.8195    2.0575    0.0000 H   0  0  0  0  0  0  0  0  0  0  0  0
    1.9663    2.0575    0.0000 H   0  0  0  0  0  0  0  0  0  0  0  0
    2.8929    2.5925    0.0000 H   0  0  0  0  0  0  0  0  0  0  0  0
    3.6074   -0.7850    0.0000 H   0  0  0  0  0  0  0  0  0  0  0  0
    4.5340    0.8200    0.0000 H   0  0  0  0  0  0  0  0  0  0  0  0
    4.5341   -0.2500    0.0000 H   0  0  0  0  0  0  0  0  0  0  0  0
  1  3  2  0  0  0  0
  1  4  1  0  0  0  0
  2  5  1  0  0  0  0
  3  6  1  0  0  0  0
  3  5  1  0  0  0  0
  4  7  2  0  0  0  0
  4 25  1  0  0  0  0
  5 26  1  0  0  0  0
  5 27  1  0  0  0  0
  6  8  2  0  0  0  0
  6 28  1  0  0  0  0
  7  8  1  0  0  0  0
  7 29  1  0  0  0  0
  8  9  1  0  0  0  0
  9 10  3  0  0  0  0
 11 13  1  0  0  0  0
 11 30  1  0  0  0  0
 12 14  2  0  0  0  0
 12 31  1  0  0  0  0
 13 15  2  0  0  0  0
 13 32  1  0  0  0  0
 14 15  1  0  0  0  0
 14 33  1  0  0  0  0
 15 16  1  0  0  0  0
 17 11  2  0  0  0  0
 17 12  1  0  0  0  0
 18 19  1  0  0  0  0
 18 34  1  0  0  0  0
 18 35  1  0  0  0  0
 19 20  1  0  0  0  0
 19 36  1  0  0  0  0
 19 37  1  0  0  0  0
 20 21  1  0  0  0  0
 20 38  1  0  0  0  0
 20 39  1  0  0  0  0
 21 22  1  0  0  0  0
 21 23  1  0  0  0  0
 22 40  1  0  0  0  0
 22 41  1  0  0  0  0
 22 42  1  0  0  0  0
 23 43  1  0  0  0  0
 23 44  1  0  0  0  0
 23 45  1  0  0  0  0
 24  1  1  0  0  0  0
 24  2  1  0  0  0  0
 24 17  1  0  0  0  0
 24 18  1  6  0  0  0
M  END
>  <DRUGBANK_ID>
DB01175

>  <SECONDARY_ACCESSION_NUMBERS>
APRD00683

>  <COMMON_NAME>
Escitalopram

>  <CAS_NUMBER>
128196-01-0

>  <UNII>
4O4S742ANY

>  <SYNONYMS>
(+)-Citalopram; (S)-Citalopram; Escitalopram; Escitalopramum; S-(+)-Citalopram; S(+)-Citalopram

$$$$
