5MS
 OpenBabel10282417072D

 43 45  0  0  0  0  0  0  0  0999 V2000
   -0.8719    1.3562    0.0000 C   0  0  0  0  0  0  0  0  0  0  0  0
   -0.1574    0.9437    0.0000 C   0  0  0  0  0  0  0  0  0  0  0  0
   -0.1574    0.1187    0.0000 C   0  0  0  0  0  0  0  0  0  0  0  0
   -0.8719   -0.2938    0.0000 C   0  0  0  0  0  0  0  0  0  0  0  0
   -1.5863    0.1187    0.0000 C   0  0  0  0  0  0  0  0  0  0  0  0
   -1.5863    0.9437    0.0000 C   0  0  0  0  0  0  0  0  0  0  0  0
   -0.8719   -1.1188    0.0000 N   0  0  0  0  0  0  0  0  0  0  0  0
   -0.1574   -1.5313    0.0000 C   0  0  0  0  0  0  0  0  0  0  0  0
    0.5571   -1.1188    0.0000 C   0  0  0  0  0  0  0  0  0  0  0  0
    1.2716   -1.5313    0.0000 C   0  0  0  0  0  0  0  0  0  0  0  0
    1.2716   -2.3563    0.0000 N   0  0  0  0  0  0  0  0  0  0  0  0
    0.5571   -2.7688    0.0000 C   0  0  0  0  0  0  0  0  0  0  0  0
   -0.1574   -2.3563    0.0000 N   0  0  0  0  0  0  0  0  0  0  0  0
    1.9860   -1.1188    0.0000 C   0  0  0  0  0  0  0  0  0  0  0  0
    1.9860   -0.2938    0.0000 C   0  0  0  0  0  0  0  0  0  0  0  0
    2.7005    0.1187    0.0000 C   0  0  0  0  0  0  0  0  0  0  0  0
    3.4150   -0.2938    0.0000 C   0  0  0  0  0  0  0  0  0  0  0  0
    3.4150   -1.1188    0.0000 C   0  0  0  0  0  0  0  0  0  0  0  0
    2.7005   -1.5313    0.0000 C   0  0  0  0  0  0  0  0  0  0  0  0
   -0.8719    2.1812    0.0000 C   0  0  0  0  0  0  0  0  0  0  0  0
   -2.3008    1.3562    0.0000 N   0  0  0  0  0  0  0  0  0  0  0  0
   -3.0153    0.9437    0.0000 S   0  0  0  0  0  0  0  0  0  0  0  0
   -3.7297    0.5312    0.0000 C   0  0  0  0  0  0  0  0  0  0  0  0
   -3.4278    1.6582    0.0000 O   0  0  0  0  0  0  0  0  0  0  0  0
   -2.6028    0.2292    0.0000 O   0  0  0  0  0  0  0  0  0  0  0  0
    0.7363    1.4597    0.0000 H   0  0  0  0  0  0  0  0  0  0  0  0
    0.7363   -0.3973    0.0000 H   0  0  0  0  0  0  0  0  0  0  0  0
   -2.4800   -0.3973    0.0000 H   0  0  0  0  0  0  0  0  0  0  0  0
   -1.7245   -1.6111    0.0000 H   0  0  0  0  0  0  0  0  0  0  0  0
    0.5571   -0.0868    0.0000 H   0  0  0  0  0  0  0  0  0  0  0  0
    0.5571   -3.8008    0.0000 H   0  0  0  0  0  0  0  0  0  0  0  0
    1.0923    0.2222    0.0000 H   0  0  0  0  0  0  0  0  0  0  0  0
    2.7005    1.1507    0.0000 H   0  0  0  0  0  0  0  0  0  0  0  0
    4.3087    0.2222    0.0000 H   0  0  0  0  0  0  0  0  0  0  0  0
    4.3087   -1.6348    0.0000 H   0  0  0  0  0  0  0  0  0  0  0  0
    2.7005   -2.5633    0.0000 H   0  0  0  0  0  0  0  0  0  0  0  0
    0.0547    2.7162    0.0000 H   0  0  0  0  0  0  0  0  0  0  0  0
   -1.7985    2.7162    0.0000 H   0  0  0  0  0  0  0  0  0  0  0  0
   -0.8719    3.2512    0.0000 H   0  0  0  0  0  0  0  0  0  0  0  0
   -2.3008    2.3407    0.0000 H   0  0  0  0  0  0  0  0  0  0  0  0
   -4.6564    1.0662    0.0000 H   0  0  0  0  0  0  0  0  0  0  0  0
   -3.7297   -0.5388    0.0000 H   0  0  0  0  0  0  0  0  0  0  0  0
   -4.6563   -0.0038    0.0000 H   0  0  0  0  0  0  0  0  0  0  0  0
  1  2  2  0  0  0  0
  1  6  1  0  0  0  0
  1 20  1  0  0  0  0
  2  3  1  0  0  0  0
  2 26  1  0  0  0  0
  3  4  2  0  0  0  0
  3 27  1  0  0  0  0
  4  5  1  0  0  0  0
  4  7  1  0  0  0  0
  5  6  2  0  0  0  0
  5 28  1  0  0  0  0
  6 21  1  0  0  0  0
  7  8  1  0  0  0  0
  7 29  1  0  0  0  0
  8  9  2  0  0  0  0
  8 13  1  0  0  0  0
  9 10  1  0  0  0  0
  9 30  1  0  0  0  0
 10 11  2  0  0  0  0
 10 14  1  0  0  0  0
 11 12  1  0  0  0  0
 12 13  2  0  0  0  0
 12 31  1  0  0  0  0
 14 15  2  0  0  0  0
 14 19  1  0  0  0  0
 15 16  1  0  0  0  0
 15 32  1  0  0  0  0
 16 17  2  0  0  0  0
 16 33  1  0  0  0  0
 17 18  1  0  0  0  0
 17 34  1  0  0  0  0
 18 19  2  0  0  0  0
 18 35  1  0  0  0  0
 19 36  1  0  0  0  0
 20 37  1  0  0  0  0
 20 38  1  0  0  0  0
 20 39  1  0  0  0  0
 21 22  1  0  0  0  0
 21 40  1  0  0  0  0
 22 23  1  0  0  0  0
 22 24  2  0  0  0  0
 22 25  2  0  0  0  0
 23 41  1  0  0  0  0
 23 42  1  0  0  0  0
 23 43  1  0  0  0  0
M  END
>  <DRUGBANK_ID>
DB07175

>  <COMMON_NAME>
N-{2-methyl-5-[(6-phenylpyrimidin-4-yl)amino]phenyl}methanesulfonamide

$$$$
