S98
 OpenBabel10282417072D

 34 37  0  0  0  0  0  0  0  0999 V2000
    0.2769   -0.9145    0.0000 N   0  0  0  0  0  0  0  0  0  0  0  0
   -0.5077   -0.6596    0.0000 C   0  0  0  0  0  0  0  0  0  0  0  0
   -0.5077    0.1654    0.0000 C   0  0  0  0  0  0  0  0  0  0  0  0
    0.2769    0.4204    0.0000 N   0  0  0  0  0  0  0  0  0  0  0  0
    0.7618   -0.2471    0.0000 C   0  0  0  0  0  0  0  0  0  0  0  0
    1.5868   -0.2471    0.0000 N   0  0  0  0  0  0  0  0  0  0  0  0
    1.9993    0.4674    0.0000 C   0  0  0  0  0  0  0  0  0  0  0  0
    2.8243    0.4674    0.0000 C   0  0  0  0  0  0  0  0  0  0  0  0
   -1.2222    0.5779    0.0000 C   0  0  0  0  0  0  0  0  0  0  0  0
   -1.9367    0.1654    0.0000 C   0  0  0  0  0  0  0  0  0  0  0  0
   -1.9367   -0.6596    0.0000 C   0  0  0  0  0  0  0  0  0  0  0  0
   -2.6512   -1.0721    0.0000 C   0  0  0  0  0  0  0  0  0  0  0  0
   -2.6512   -1.8971    0.0000 O   0  0  0  0  0  0  0  0  0  0  0  0
   -3.3656   -0.6596    0.0000 N   0  0  0  0  0  0  0  0  0  0  0  0
   -3.3656    0.1654    0.0000 C   0  0  0  0  0  0  0  0  0  0  0  0
   -4.0801    0.5779    0.0000 N   0  0  0  0  0  0  0  0  0  0  0  0
   -2.6512    0.5779    0.0000 N   0  0  0  0  0  0  0  0  0  0  0  0
   -1.2222   -1.0721    0.0000 C   0  0  0  0  0  0  0  0  0  0  0  0
    3.3092    1.1348    0.0000 C   0  0  0  0  0  0  0  0  0  0  0  0
    4.0939    0.8799    0.0000 C   0  0  0  0  0  0  0  0  0  0  0  0
    4.0939    0.0549    0.0000 C   0  0  0  0  0  0  0  0  0  0  0  0
    3.3092   -0.2001    0.0000 S   0  0  0  0  0  0  0  0  0  0  0  0
    0.5811   -1.8508    0.0000 H   0  0  0  0  0  0  0  0  0  0  0  0
    2.0791   -1.0997    0.0000 H   0  0  0  0  0  0  0  0  0  0  0  0
    1.4643    1.3940    0.0000 H   0  0  0  0  0  0  0  0  0  0  0  0
    2.5343    1.3940    0.0000 H   0  0  0  0  0  0  0  0  0  0  0  0
   -1.2222    1.6099    0.0000 H   0  0  0  0  0  0  0  0  0  0  0  0
   -4.2182   -1.1518    0.0000 H   0  0  0  0  0  0  0  0  0  0  0  0
   -4.0801    1.5624    0.0000 H   0  0  0  0  0  0  0  0  0  0  0  0
   -4.9327    0.0856    0.0000 H   0  0  0  0  0  0  0  0  0  0  0  0
   -1.2222   -2.1041    0.0000 H   0  0  0  0  0  0  0  0  0  0  0  0
    2.9903    2.1163    0.0000 H   0  0  0  0  0  0  0  0  0  0  0  0
    4.9288    1.4865    0.0000 H   0  0  0  0  0  0  0  0  0  0  0  0
    4.9288   -0.5517    0.0000 H   0  0  0  0  0  0  0  0  0  0  0  0
  1  2  1  0  0  0  0
  1  5  1  0  0  0  0
  1 23  1  0  0  0  0
  2  3  2  0  0  0  0
  2 18  1  0  0  0  0
  3  4  1  0  0  0  0
  3  9  1  0  0  0  0
  4  5  2  0  0  0  0
  5  6  1  0  0  0  0
  6  7  1  0  0  0  0
  6 24  1  0  0  0  0
  7  8  1  0  0  0  0
  7 25  1  0  0  0  0
  7 26  1  0  0  0  0
  8 19  2  0  0  0  0
  8 22  1  0  0  0  0
  9 10  2  0  0  0  0
  9 27  1  0  0  0  0
 10 11  1  0  0  0  0
 10 17  1  0  0  0  0
 11 12  1  0  0  0  0
 11 18  2  0  0  0  0
 12 13  2  0  0  0  0
 12 14  1  0  0  0  0
 14 15  1  0  0  0  0
 14 28  1  0  0  0  0
 15 16  1  0  0  0  0
 15 17  2  0  0  0  0
 16 29  1  0  0  0  0
 16 30  1  0  0  0  0
 18 31  1  0  0  0  0
 19 20  1  0  0  0  0
 19 32  1  0  0  0  0
 20 21  2  0  0  0  0
 20 33  1  0  0  0  0
 21 22  1  0  0  0  0
 21 34  1  0  0  0  0
M  END
>  <DRUGBANK_ID>
DB08514

>  <COMMON_NAME>
6-amino-2-[(thiophen-2-ylmethyl)amino]-1,7-dihydro-8H-imidazo[4,5-g]quinazolin-8-one

$$$$
