
 OpenBabel10282417072D

135138  0  0  0  0  0  0  0  0999 V2000
   -4.1979   -1.2991    0.0000 C   0  0  0  0  0  0  0  0  0  0  0  0
   -3.7854   -2.0136    0.0000 C   0  0  1  0  0  0  0  0  0  0  0  0
   -3.3004   -1.3461    0.0000 C   0  0  1  0  0  0  0  0  0  0  0  0
   -4.0150   -0.9335    0.0000 H   0  0  0  0  0  0  0  0  0  0  0  0
   -2.9649   -0.5924    0.0000 C   0  0  2  0  0  0  0  0  0  0  0  0
   -3.4498    0.0750    0.0000 C   0  0  0  0  0  0  0  0  0  0  0  0
   -2.1443   -0.5061    0.0000 C   0  0  0  0  0  0  0  0  0  0  0  0
   -1.8088    0.2474    0.0000 C   0  0  0  0  0  0  0  0  0  0  0  0
   -0.9883    0.3337    0.0000 C   0  0  0  0  0  0  0  0  0  0  0  0
   -0.5033   -0.3337    0.0000 O   0  0  0  0  0  0  0  0  0  0  0  0
   -0.6527    1.0875    0.0000 N   0  0  0  0  0  0  0  0  0  0  0  0
   -1.1375    1.7548    0.0000 C   0  0  0  0  0  0  0  0  0  0  0  0
   -0.8020    2.5086    0.0000 C   0  0  0  0  0  0  0  0  0  0  0  0
    0.0184    2.5949    0.0000 C   0  0  0  0  0  0  0  0  0  0  0  0
    0.3540    3.3486    0.0000 N   0  0  0  0  0  0  0  0  0  0  0  0
   -0.1309    4.0161    0.0000 C   0  0  0  0  0  0  0  0  0  0  0  0
   -0.9514    3.9298    0.0000 O   0  0  0  0  0  0  0  0  0  0  0  0
    0.2046    4.7698    0.0000 C   0  0  2  0  0  0  0  0  0  0  0  0
   -0.2803    5.4372    0.0000 O   0  0  0  0  0  0  0  0  0  0  0  0
    1.0251    4.8560    0.0000 C   0  0  1  0  0  0  0  0  0  0  0  0
    1.5101    4.1885    0.0000 O   0  0  0  0  0  0  0  0  0  0  0  0
    1.3607    5.6098    0.0000 C   0  0  2  0  0  0  0  0  0  0  0  0
    0.8757    6.2773    0.0000 O   0  0  0  0  0  0  0  0  0  0  0  0
    2.1812    5.6959    0.0000 C   0  0  2  0  0  0  0  0  0  0  0  0
    2.6662    5.0286    0.0000 O   0  0  0  0  0  0  0  0  0  0  0  0
    2.5168    6.4497    0.0000 C   0  0  0  0  0  0  0  0  0  0  0  0
    3.3373    6.5360    0.0000 O   0  0  0  0  0  0  0  0  0  0  0  0
    0.1677    1.1736    0.0000 C   0  0  0  0  0  0  0  0  0  0  0  0
    0.5034    1.9274    0.0000 C   0  0  0  0  0  0  0  0  0  0  0  0
    1.3239    2.0136    0.0000 C   0  0  0  0  0  0  0  0  0  0  0  0
    1.6595    2.7673    0.0000 N   0  0  0  0  0  0  0  0  0  0  0  0
    2.4800    2.8536    0.0000 C   0  0  0  0  0  0  0  0  0  0  0  0
    2.9650    2.1861    0.0000 O   0  0  0  0  0  0  0  0  0  0  0  0
    2.8156    3.6073    0.0000 C   0  0  2  0  0  0  0  0  0  0  0  0
    2.3306    4.2748    0.0000 O   0  0  0  0  0  0  0  0  0  0  0  0
    3.6361    3.6936    0.0000 C   0  0  1  0  0  0  0  0  0  0  0  0
    4.1211    3.0261    0.0000 O   0  0  0  0  0  0  0  0  0  0  0  0
    3.9717    4.4472    0.0000 C   0  0  2  0  0  0  0  0  0  0  0  0
    3.4867    5.1147    0.0000 O   0  0  0  0  0  0  0  0  0  0  0  0
    4.7922    4.5335    0.0000 C   0  0  2  0  0  0  0  0  0  0  0  0
    5.2772    3.8660    0.0000 O   0  0  0  0  0  0  0  0  0  0  0  0
    5.1278    5.2873    0.0000 C   0  0  0  0  0  0  0  0  0  0  0  0
    5.9483    5.3734    0.0000 O   0  0  0  0  0  0  0  0  0  0  0  0
   -2.5157   -1.6010    0.0000 C   0  0  0  0  0  0  0  0  0  0  0  0
   -2.5157   -2.4261    0.0000 C   0  0  0  0  0  0  0  0  0  0  0  0
   -3.3004   -2.6811    0.0000 C   0  0  1  0  0  0  0  0  0  0  0  0
   -2.7483   -3.2942    0.0000 H   0  0  0  0  0  0  0  0  0  0  0  0
   -3.6360   -3.4348    0.0000 C   0  0  2  0  0  0  0  0  0  0  0  0
   -4.1210   -2.7673    0.0000 H   0  0  0  0  0  0  0  0  0  0  0  0
   -3.1510   -4.1023    0.0000 C   0  0  0  0  0  0  0  0  0  0  0  0
   -3.4867   -4.8560    0.0000 C   0  0  0  0  0  0  0  0  0  0  0  0
   -4.3072   -4.9423    0.0000 C   0  0  2  0  0  0  0  0  0  0  0  0
   -3.8223   -5.6098    0.0000 H   0  0  0  0  0  0  0  0  0  0  0  0
   -4.6428   -5.6959    0.0000 C   0  0  0  0  0  0  0  0  0  0  0  0
   -5.4633   -5.7822    0.0000 C   0  0  2  0  0  0  0  0  0  0  0  0
   -5.7989   -6.5360    0.0000 O   0  0  0  0  0  0  0  0  0  0  0  0
   -5.9483   -5.1147    0.0000 C   0  0  0  0  0  0  0  0  0  0  0  0
   -5.6126   -4.3611    0.0000 C   0  0  0  0  0  0  0  0  0  0  0  0
   -4.7921   -4.2748    0.0000 C   0  0  1  0  0  0  0  0  0  0  0  0
   -5.2771   -3.6073    0.0000 C   0  0  0  0  0  0  0  0  0  0  0  0
   -4.4565   -3.5210    0.0000 C   0  0  1  0  0  0  0  0  0  0  0  0
   -3.9716   -4.1885    0.0000 H   0  0  0  0  0  0  0  0  0  0  0  0
   -4.9415   -2.8535    0.0000 C   0  0  0  0  0  0  0  0  0  0  0  0
   -4.6059   -2.0998    0.0000 C   0  0  2  0  0  0  0  0  0  0  0  0
   -5.0909   -1.4324    0.0000 O   0  0  0  0  0  0  0  0  0  0  0  0
   -3.6629   -0.3725    0.0000 H   0  0  0  0  0  0  0  0  0  0  0  0
   -5.2679   -1.2991    0.0000 H   0  0  0  0  0  0  0  0  0  0  0  0
   -4.7329   -0.3724    0.0000 H   0  0  0  0  0  0  0  0  0  0  0  0
   -4.0290   -0.7043    0.0000 H   0  0  0  0  0  0  0  0  0  0  0  0
   -3.0146    1.0525    0.0000 H   0  0  0  0  0  0  0  0  0  0  0  0
   -4.5139   -0.0369    0.0000 H   0  0  0  0  0  0  0  0  0  0  0  0
   -4.0787    0.9406    0.0000 H   0  0  0  0  0  0  0  0  0  0  0  0
   -1.5154   -1.3717    0.0000 H   0  0  0  0  0  0  0  0  0  0  0  0
   -1.0802   -0.3943    0.0000 H   0  0  0  0  0  0  0  0  0  0  0  0
   -2.4378    1.1130    0.0000 H   0  0  0  0  0  0  0  0  0  0  0  0
   -1.3736    1.2249    0.0000 H   0  0  0  0  0  0  0  0  0  0  0  0
   -2.2016    1.6429    0.0000 H   0  0  0  0  0  0  0  0  0  0  0  0
   -1.7665    2.6204    0.0000 H   0  0  0  0  0  0  0  0  0  0  0  0
   -1.4310    3.3742    0.0000 H   0  0  0  0  0  0  0  0  0  0  0  0
   -0.3669    3.4861    0.0000 H   0  0  0  0  0  0  0  0  0  0  0  0
    0.6474    1.7293    0.0000 H   0  0  0  0  0  0  0  0  0  0  0  0
    1.0825    2.7067    0.0000 H   0  0  0  0  0  0  0  0  0  0  0  0
    1.3331    3.4515    0.0000 H   0  0  0  0  0  0  0  0  0  0  0  0
   -0.8595    4.6579    0.0000 H   0  0  0  0  0  0  0  0  0  0  0  0
    0.1142    6.3233    0.0000 H   0  0  0  0  0  0  0  0  0  0  0  0
    0.5899    3.8785    0.0000 H   0  0  0  0  0  0  0  0  0  0  0  0
    1.1156    3.3023    0.0000 H   0  0  0  0  0  0  0  0  0  0  0  0
    0.2966    5.4979    0.0000 H   0  0  0  0  0  0  0  0  0  0  0  0
    1.2702    7.1635    0.0000 H   0  0  0  0  0  0  0  0  0  0  0  0
    1.7460    4.7184    0.0000 H   0  0  0  0  0  0  0  0  0  0  0  0
    2.2718    4.1424    0.0000 H   0  0  0  0  0  0  0  0  0  0  0  0
    1.8878    7.3153    0.0000 H   0  0  0  0  0  0  0  0  0  0  0  0
    2.9519    7.4272    0.0000 H   0  0  0  0  0  0  0  0  0  0  0  0
    3.9075    5.7513    0.0000 H   0  0  0  0  0  0  0  0  0  0  0  0
    0.7965    0.3079    0.0000 H   0  0  0  0  0  0  0  0  0  0  0  0
    1.2319    1.2853    0.0000 H   0  0  0  0  0  0  0  0  0  0  0  0
   -0.1255    2.7931    0.0000 H   0  0  0  0  0  0  0  0  0  0  0  0
    0.9387    2.9049    0.0000 H   0  0  0  0  0  0  0  0  0  0  0  0
    1.9528    1.1479    0.0000 H   0  0  0  0  0  0  0  0  0  0  0  0
    2.3880    2.1254    0.0000 H   0  0  0  0  0  0  0  0  0  0  0  0
    1.0808    3.5638    0.0000 H   0  0  0  0  0  0  0  0  0  0  0  0
    1.7515    3.4955    0.0000 H   0  0  0  0  0  0  0  0  0  0  0  0
    2.7251    5.1610    0.0000 H   0  0  0  0  0  0  0  0  0  0  0  0
    3.2009    2.7161    0.0000 H   0  0  0  0  0  0  0  0  0  0  0  0
    3.7266    2.1399    0.0000 H   0  0  0  0  0  0  0  0  0  0  0  0
    2.9076    4.3354    0.0000 H   0  0  0  0  0  0  0  0  0  0  0  0
    3.8812    6.0009    0.0000 H   0  0  0  0  0  0  0  0  0  0  0  0
    4.3570    3.5560    0.0000 H   0  0  0  0  0  0  0  0  0  0  0  0
    4.8827    2.9798    0.0000 H   0  0  0  0  0  0  0  0  0  0  0  0
    4.4989    6.1530    0.0000 H   0  0  0  0  0  0  0  0  0  0  0  0
    5.5631    6.2647    0.0000 H   0  0  0  0  0  0  0  0  0  0  0  0
    6.5183    4.5886    0.0000 H   0  0  0  0  0  0  0  0  0  0  0  0
   -1.6501   -0.9720    0.0000 H   0  0  0  0  0  0  0  0  0  0  0  0
   -1.5623   -2.0868    0.0000 H   0  0  0  0  0  0  0  0  0  0  0  0
   -1.6500   -3.0550    0.0000 H   0  0  0  0  0  0  0  0  0  0  0  0
   -2.6831   -3.4829    0.0000 H   0  0  0  0  0  0  0  0  0  0  0  0
   -2.0869   -3.9905    0.0000 H   0  0  0  0  0  0  0  0  0  0  0  0
   -2.5222   -4.9680    0.0000 H   0  0  0  0  0  0  0  0  0  0  0  0
   -2.8578   -5.7217    0.0000 H   0  0  0  0  0  0  0  0  0  0  0  0
   -3.9219   -5.8335    0.0000 H   0  0  0  0  0  0  0  0  0  0  0  0
   -4.0139   -6.5616    0.0000 H   0  0  0  0  0  0  0  0  0  0  0  0
   -5.0780   -6.6734    0.0000 H   0  0  0  0  0  0  0  0  0  0  0  0
   -4.8343   -6.6478    0.0000 H   0  0  0  0  0  0  0  0  0  0  0  0
   -6.7636   -6.6374    0.0000 H   0  0  0  0  0  0  0  0  0  0  0  0
   -7.0124   -5.2265    0.0000 H   0  0  0  0  0  0  0  0  0  0  0  0
   -6.5771   -4.2490    0.0000 H   0  0  0  0  0  0  0  0  0  0  0  0
   -6.2415   -3.4954    0.0000 H   0  0  0  0  0  0  0  0  0  0  0  0
   -5.1774   -3.3836    0.0000 H   0  0  0  0  0  0  0  0  0  0  0  0
   -4.8419   -2.6298    0.0000 H   0  0  0  0  0  0  0  0  0  0  0  0
   -6.3412   -3.7192    0.0000 H   0  0  0  0  0  0  0  0  0  0  0  0
   -5.9061   -2.7417    0.0000 H   0  0  0  0  0  0  0  0  0  0  0  0
   -6.0056   -2.9653    0.0000 H   0  0  0  0  0  0  0  0  0  0  0  0
   -5.5704   -1.9878    0.0000 H   0  0  0  0  0  0  0  0  0  0  0  0
   -4.1707   -1.1223    0.0000 H   0  0  0  0  0  0  0  0  0  0  0  0
   -4.6965   -0.5462    0.0000 H   0  0  0  0  0  0  0  0  0  0  0  0
  1 66  1  0  0  0  0
  1 67  1  0  0  0  0
  1 68  1  0  0  0  0
  2  1  1  1  0  0  0
  2  3  1  0  0  0  0
  2 46  1  0  0  0  0
  2 64  1  0  0  0  0
  3  4  1  6  0  0  0
  3  5  1  0  0  0  0
  3 44  1  0  0  0  0
  5  6  1  0  0  0  0
  5  7  1  0  0  0  0
  5 69  1  1  0  0  0
  6 70  1  0  0  0  0
  6 71  1  0  0  0  0
  6 72  1  0  0  0  0
  7  8  1  0  0  0  0
  7 73  1  0  0  0  0
  7 74  1  0  0  0  0
  8  9  1  0  0  0  0
  8 75  1  0  0  0  0
  8 76  1  0  0  0  0
  9 10  2  0  0  0  0
  9 11  1  0  0  0  0
 11 12  1  0  0  0  0
 11 28  1  0  0  0  0
 12 13  1  0  0  0  0
 12 77  1  0  0  0  0
 12 78  1  0  0  0  0
 13 14  1  0  0  0  0
 13 79  1  0  0  0  0
 13 80  1  0  0  0  0
 14 15  1  0  0  0  0
 14 81  1  0  0  0  0
 14 82  1  0  0  0  0
 15 16  1  0  0  0  0
 15 83  1  0  0  0  0
 16 17  2  0  0  0  0
 16 18  1  0  0  0  0
 18 19  1  0  0  0  0
 18 20  1  0  0  0  0
 18 84  1  1  0  0  0
 19 85  1  0  0  0  0
 20 21  1  0  0  0  0
 20 22  1  0  0  0  0
 20 86  1  1  0  0  0
 21 87  1  0  0  0  0
 22 23  1  0  0  0  0
 22 24  1  0  0  0  0
 22 88  1  1  0  0  0
 23 89  1  0  0  0  0
 24 25  1  0  0  0  0
 24 26  1  0  0  0  0
 24 90  1  6  0  0  0
 25 91  1  0  0  0  0
 26 27  1  0  0  0  0
 26 92  1  0  0  0  0
 26 93  1  0  0  0  0
 27 94  1  0  0  0  0
 28 29  1  0  0  0  0
 28 95  1  0  0  0  0
 28 96  1  0  0  0  0
 29 30  1  0  0  0  0
 29 97  1  0  0  0  0
 29 98  1  0  0  0  0
 30 31  1  0  0  0  0
 30 99  1  0  0  0  0
 30100  1  0  0  0  0
 31 32  1  0  0  0  0
 31101  1  0  0  0  0
 32 33  2  0  0  0  0
 32 34  1  0  0  0  0
 34 35  1  0  0  0  0
 34 36  1  0  0  0  0
 34102  1  1  0  0  0
 35103  1  0  0  0  0
 36 37  1  0  0  0  0
 36 38  1  0  0  0  0
 36104  1  1  0  0  0
 37105  1  0  0  0  0
 38 39  1  0  0  0  0
 38 40  1  0  0  0  0
 38106  1  1  0  0  0
 39107  1  0  0  0  0
 40 41  1  0  0  0  0
 40 42  1  0  0  0  0
 40108  1  6  0  0  0
 41109  1  0  0  0  0
 42 43  1  0  0  0  0
 42110  1  0  0  0  0
 42111  1  0  0  0  0
 43112  1  0  0  0  0
 44113  1  0  0  0  0
 44114  1  0  0  0  0
 45 44  1  0  0  0  0
 45115  1  0  0  0  0
 45116  1  0  0  0  0
 46 45  1  0  0  0  0
 46 47  1  6  0  0  0
 46 48  1  0  0  0  0
 48 49  1  1  0  0  0
 48 50  1  0  0  0  0
 48 61  1  0  0  0  0
 50 51  1  0  0  0  0
 50117  1  0  0  0  0
 50118  1  0  0  0  0
 51 52  1  0  0  0  0
 51119  1  0  0  0  0
 51120  1  0  0  0  0
 52 53  1  1  0  0  0
 52 54  1  0  0  0  0
 54 55  1  0  0  0  0
 54121  1  0  0  0  0
 54122  1  0  0  0  0
 55 56  1  0  0  0  0
 55123  1  1  0  0  0
 56124  1  0  0  0  0
 57 55  1  0  0  0  0
 57125  1  0  0  0  0
 57126  1  0  0  0  0
 58 57  1  0  0  0  0
 58127  1  0  0  0  0
 58128  1  0  0  0  0
 59 58  1  0  0  0  0
 59 52  1  0  0  0  0
 59 60  1  1  0  0  0
 60129  1  0  0  0  0
 60130  1  0  0  0  0
 60131  1  0  0  0  0
 61 59  1  0  0  0  0
 61 62  1  6  0  0  0
 63 61  1  0  0  0  0
 63132  1  0  0  0  0
 63133  1  0  0  0  0
 64 63  1  0  0  0  0
 64 65  1  0  0  0  0
 64134  1  1  0  0  0
 65135  1  0  0  0  0
M  END
>  <DRUGBANK_ID>
DB01890

>  <SECONDARY_ACCESSION_NUMBERS>
EXPT01003

>  <COMMON_NAME>
N,N-Bis(3-(D-gluconamido)propyl)deoxycholamide

>  <CAS_NUMBER>
86303-23-3

>  <UNII>
8A64ND3B39

>  <SYNONYMS>
D-Gluconamide, N,N'-((((3alpha,5beta,12alpha)-3,12-dihydroxy-24-oxocholan-24-yl)imino)di-3,1-propanediyl)bis-; Deoxy-bigchap; N,N-Bis(3-(D-gluconamido)propyl)deoxycholamide; N,N'-((((3alpha,5beta,12alpha)-3,12-Dihydroxy-24-oxocholan-24-yl)imino)di-3,1-propandiyl)bis-D-gluconamide

$$$$
