4IG
 OpenBabel10282417072D

 59 62  0  0  0  0  0  0  0  0999 V2000
   -2.8039   -0.6439    0.0000 C   0  0  0  0  0  0  0  0  0  0  0  0
   -3.5183   -0.2314    0.0000 N   0  0  0  0  0  0  0  0  0  0  0  0
   -3.5183    0.5936    0.0000 C   0  0  0  0  0  0  0  0  0  0  0  0
   -2.8039    1.0061    0.0000 N   0  0  0  0  0  0  0  0  0  0  0  0
   -2.0894    0.5936    0.0000 C   0  0  0  0  0  0  0  0  0  0  0  0
   -2.0894   -0.2314    0.0000 C   0  0  0  0  0  0  0  0  0  0  0  0
   -2.8039   -1.4689    0.0000 N   0  0  0  0  0  0  0  0  0  0  0  0
   -4.2328    1.0061    0.0000 N   0  0  0  0  0  0  0  0  0  0  0  0
   -1.3749    1.0061    0.0000 C   0  0  0  0  0  0  0  0  0  0  0  0
   -0.6605    0.5936    0.0000 C   0  0  0  0  0  0  0  0  0  0  0  0
   -1.3749   -1.4689    0.0000 C   0  0  0  0  0  0  0  0  0  0  0  0
   -0.6605   -1.8814    0.0000 C   0  0  0  0  0  0  0  0  0  0  0  0
    0.0540   -1.4689    0.0000 C   0  0  0  0  0  0  0  0  0  0  0  0
    0.0540   -0.6439    0.0000 C   0  0  0  0  0  0  0  0  0  0  0  0
   -0.6605   -0.2314    0.0000 C   0  0  0  0  0  0  0  0  0  0  0  0
   -1.3749   -0.6439    0.0000 C   0  0  0  0  0  0  0  0  0  0  0  0
    0.7685   -1.8814    0.0000 O   0  0  0  0  0  0  0  0  0  0  0  0
    1.4830   -1.4689    0.0000 C   0  0  2  0  0  0  0  0  0  0  0  0
    1.4830   -0.6439    0.0000 C   0  0  0  0  0  0  0  0  0  0  0  0
    0.7685   -0.2314    0.0000 N   0  0  0  0  0  0  0  0  0  0  0  0
    0.7685    0.5936    0.0000 C   0  0  0  0  0  0  0  0  0  0  0  0
    0.0540    1.0061    0.0000 C   0  0  0  0  0  0  0  0  0  0  0  0
    0.0540    1.8311    0.0000 C   0  0  0  0  0  0  0  0  0  0  0  0
   -0.6605    2.2436    0.0000 O   0  0  0  0  0  0  0  0  0  0  0  0
   -0.6605    3.0686    0.0000 C   0  0  0  0  0  0  0  0  0  0  0  0
    2.1974   -0.2314    0.0000 O   0  0  0  0  0  0  0  0  0  0  0  0
    2.9119   -3.1189    0.0000 C   0  0  0  0  0  0  0  0  0  0  0  0
    2.1974   -2.7064    0.0000 C   0  0  0  0  0  0  0  0  0  0  0  0
    2.1974   -1.8814    0.0000 C   0  0  0  0  0  0  0  0  0  0  0  0
    2.9119   -1.4689    0.0000 C   0  0  0  0  0  0  0  0  0  0  0  0
    3.6264   -1.8814    0.0000 C   0  0  0  0  0  0  0  0  0  0  0  0
    3.6264   -2.7064    0.0000 C   0  0  0  0  0  0  0  0  0  0  0  0
    2.9119   -3.9439    0.0000 F   0  0  0  0  0  0  0  0  0  0  0  0
    4.3408   -1.4689    0.0000 F   0  0  0  0  0  0  0  0  0  0  0  0
    1.4830   -2.0528    0.0000 H   0  0  0  0  0  0  0  0  0  0  0  0
   -3.6565   -1.9612    0.0000 H   0  0  0  0  0  0  0  0  0  0  0  0
   -1.9513   -1.9611    0.0000 H   0  0  0  0  0  0  0  0  0  0  0  0
   -4.2328    1.9906    0.0000 H   0  0  0  0  0  0  0  0  0  0  0  0
   -5.0854    0.5138    0.0000 H   0  0  0  0  0  0  0  0  0  0  0  0
   -1.3749    2.0761    0.0000 H   0  0  0  0  0  0  0  0  0  0  0  0
   -0.4482    1.5411    0.0000 H   0  0  0  0  0  0  0  0  0  0  0  0
   -0.6605   -0.4764    0.0000 H   0  0  0  0  0  0  0  0  0  0  0  0
    0.2662    1.1286    0.0000 H   0  0  0  0  0  0  0  0  0  0  0  0
    0.2661    0.0586    0.0000 H   0  0  0  0  0  0  0  0  0  0  0  0
   -2.2686   -1.9849    0.0000 H   0  0  0  0  0  0  0  0  0  0  0  0
   -0.6605   -2.9134    0.0000 H   0  0  0  0  0  0  0  0  0  0  0  0
   -0.6605    0.8006    0.0000 H   0  0  0  0  0  0  0  0  0  0  0  0
    1.6951    1.1286    0.0000 H   0  0  0  0  0  0  0  0  0  0  0  0
    0.7685    1.6636    0.0000 H   0  0  0  0  0  0  0  0  0  0  0  0
   -0.8726    0.4711    0.0000 H   0  0  0  0  0  0  0  0  0  0  0  0
   -0.8726    1.5411    0.0000 H   0  0  0  0  0  0  0  0  0  0  0  0
    0.9806    2.3661    0.0000 H   0  0  0  0  0  0  0  0  0  0  0  0
    0.0540    2.9011    0.0000 H   0  0  0  0  0  0  0  0  0  0  0  0
    0.2661    3.6036    0.0000 H   0  0  0  0  0  0  0  0  0  0  0  0
   -1.5871    3.6036    0.0000 H   0  0  0  0  0  0  0  0  0  0  0  0
   -0.6605    4.1386    0.0000 H   0  0  0  0  0  0  0  0  0  0  0  0
    1.3037   -3.2224    0.0000 H   0  0  0  0  0  0  0  0  0  0  0  0
    2.9119   -0.4369    0.0000 H   0  0  0  0  0  0  0  0  0  0  0  0
    4.5201   -3.2224    0.0000 H   0  0  0  0  0  0  0  0  0  0  0  0
  1  2  1  0  0  0  0
  1  6  2  0  0  0  0
  1  7  1  0  0  0  0
  2  3  2  0  0  0  0
  3  4  1  0  0  0  0
  3  8  1  0  0  0  0
  4  5  2  0  0  0  0
  5  6  1  0  0  0  0
  5  9  1  0  0  0  0
  6 16  1  0  0  0  0
  7 36  1  0  0  0  0
  7 37  1  0  0  0  0
  8 38  1  0  0  0  0
  8 39  1  0  0  0  0
  9 10  1  0  0  0  0
  9 40  1  0  0  0  0
  9 41  1  0  0  0  0
 10 42  1  0  0  0  0
 10 43  1  0  0  0  0
 10 44  1  0  0  0  0
 11 12  2  0  0  0  0
 11 16  1  0  0  0  0
 11 45  1  0  0  0  0
 12 13  1  0  0  0  0
 12 46  1  0  0  0  0
 13 14  2  0  0  0  0
 13 17  1  0  0  0  0
 14 15  1  0  0  0  0
 14 20  1  0  0  0  0
 15 16  2  0  0  0  0
 15 47  1  0  0  0  0
 17 18  1  0  0  0  0
 18 19  1  0  0  0  0
 18 29  1  0  0  0  0
 18 35  1  1  0  0  0
 19 20  1  0  0  0  0
 19 26  2  0  0  0  0
 20 21  1  0  0  0  0
 21 22  1  0  0  0  0
 21 48  1  0  0  0  0
 21 49  1  0  0  0  0
 22 23  1  0  0  0  0
 22 50  1  0  0  0  0
 22 51  1  0  0  0  0
 23 24  1  0  0  0  0
 23 52  1  0  0  0  0
 23 53  1  0  0  0  0
 24 25  1  0  0  0  0
 25 54  1  0  0  0  0
 25 55  1  0  0  0  0
 25 56  1  0  0  0  0
 27 28  2  0  0  0  0
 27 32  1  0  0  0  0
 27 33  1  0  0  0  0
 28 29  1  0  0  0  0
 28 57  1  0  0  0  0
 29 30  2  0  0  0  0
 30 31  1  0  0  0  0
 30 58  1  0  0  0  0
 31 32  2  0  0  0  0
 31 34  1  0  0  0  0
 32 59  1  0  0  0  0
M  END
>  <DRUGBANK_ID>
DB07113

>  <COMMON_NAME>
(2S)-6-(2,4-DIAMINO-6-ETHYLPYRIMIDIN-5-YL)-2-(3,5-DIFLUOROPHENYL)-4-(3-METHOXYPROPYL)-2H-1,4-BENZOXAZIN-3(4H)-ONE

$$$$
