
 OpenBabel10282417072D

 94 98  0  0  1  0  0  0  0  0999 V2000
   12.2928   -9.2203    0.0000 O   0  0  0  0  0  0  0  0  0  0  0  0
   13.0073  -11.2828    0.0000 O   0  0  0  0  0  0  0  0  0  0  0  0
   14.4363  -11.2828    0.0000 O   0  0  0  0  0  0  0  0  0  0  0  0
   11.5783  -11.2828    0.0000 O   0  0  0  0  0  0  0  0  0  0  0  0
   10.1494  -10.4578    0.0000 O   0  0  0  0  0  0  0  0  0  0  0  0
   11.5783   -7.9828    0.0000 O   0  0  0  0  0  0  0  0  0  0  0  0
   10.1494   -8.8078    0.0000 O   0  0  0  0  0  0  0  0  0  0  0  0
   13.0073  -12.9328    0.0000 O   0  0  0  0  0  0  0  0  0  0  0  0
   14.4363  -13.7578    0.0000 O   0  0  0  0  0  0  0  0  0  0  0  0
   15.8652  -12.9328    0.0000 O   0  0  0  0  0  0  0  0  0  0  0  0
   13.0073   -6.3328    0.0000 O   0  0  0  0  0  0  0  0  0  0  0  0
   13.0073   -8.8078    0.0000 O   0  0  0  0  0  0  0  0  0  0  0  0
   14.4497   -8.8363    0.0000 O   0  0  0  0  0  0  0  0  0  0  0  0
   15.9197   -6.3129    0.0000 O   0  0  0  0  0  0  0  0  0  0  0  0
   10.8639   -4.2702    0.0000 O   0  0  0  0  0  0  0  0  0  0  0  0
    9.4349   -5.0952    0.0000 O   0  0  0  0  0  0  0  0  0  0  0  0
   18.0646   -6.7171    0.0000 O   0  0  0  0  0  0  0  0  0  0  0  0
   12.2928   -2.6202    0.0000 O   0  0  0  0  0  0  0  0  0  0  0  0
    7.2914   -5.5077    0.0000 O   0  0  0  0  0  0  0  0  0  0  0  0
   12.2928  -10.0453    0.0000 C   0  0  1  0  0  0  0  0  0  0  0  0
   11.5783  -10.4578    0.0000 C   0  0  2  0  0  0  0  0  0  0  0  0
   10.8639  -10.0453    0.0000 C   0  0  1  0  0  0  0  0  0  0  0  0
   10.8639   -9.2203    0.0000 C   0  0  2  0  0  0  0  0  0  0  0  0
   13.7218  -12.5203    0.0000 C   0  0  1  0  0  0  0  0  0  0  0  0
   13.7218  -11.6953    0.0000 C   0  0  2  0  0  0  0  0  0  0  0  0
   14.4363  -12.9328    0.0000 C   0  0  1  0  0  0  0  0  0  0  0  0
   15.1507  -12.5203    0.0000 C   0  0  2  0  0  0  0  0  0  0  0  0
   11.5783   -8.8078    0.0000 C   0  0  1  0  0  0  0  0  0  0  0  0
   13.0073  -10.4578    0.0000 C   0  0  0  0  0  0  0  0  0  0  0  0
   15.1507  -11.6953    0.0000 C   0  0  2  0  0  0  0  0  0  0  0  0
   15.8652  -11.2828    0.0000 C   0  0  0  0  0  0  0  0  0  0  0  0
   12.2928   -7.5703    0.0000 C   0  0  0  0  0  0  0  0  0  0  0  0
   12.2928   -6.7453    0.0000 C   0  0  0  0  0  0  0  0  0  0  0  0
   13.0073   -7.9828    0.0000 C   0  0  0  0  0  0  0  0  0  0  0  0
   13.7218   -7.5703    0.0000 C   0  0  0  0  0  0  0  0  0  0  0  0
   11.5783   -6.3328    0.0000 C   0  0  0  0  0  0  0  0  0  0  0  0
   13.7218   -6.7453    0.0000 C   0  0  0  0  0  0  0  0  0  0  0  0
   14.4593   -8.0114    0.0000 C   0  0  0  0  0  0  0  0  0  0  0  0
   14.4593   -6.3041    0.0000 C   0  0  0  0  0  0  0  0  0  0  0  0
   11.5783   -5.5077    0.0000 C   0  0  0  0  0  0  0  0  0  0  0  0
   10.8639   -6.7453    0.0000 C   0  0  0  0  0  0  0  0  0  0  0  0
   15.2069   -7.5874    0.0000 C   0  0  0  0  0  0  0  0  0  0  0  0
   15.2069   -6.7281    0.0000 C   0  0  0  0  0  0  0  0  0  0  0  0
   10.8639   -5.0952    0.0000 C   0  0  0  0  0  0  0  0  0  0  0  0
   10.1494   -6.3328    0.0000 C   0  0  0  0  0  0  0  0  0  0  0  0
   10.1494   -5.5077    0.0000 C   0  0  0  0  0  0  0  0  0  0  0  0
   16.6358   -6.7226    0.0000 C   0  0  0  0  0  0  0  0  0  0  0  0
   11.5783   -3.8577    0.0000 C   0  0  0  0  0  0  0  0  0  0  0  0
    8.7204   -5.5077    0.0000 C   0  0  0  0  0  0  0  0  0  0  0  0
   17.3486   -6.3073    0.0000 C   0  0  0  0  0  0  0  0  0  0  0  0
   11.5783   -3.0327    0.0000 C   0  0  0  0  0  0  0  0  0  0  0  0
    8.0060   -5.0952    0.0000 C   0  0  0  0  0  0  0  0  0  0  0  0
   10.7383  -11.7678    0.0000 H   0  0  0  0  0  0  0  0  0  0  0  0
    9.3094   -9.9728    0.0000 H   0  0  0  0  0  0  0  0  0  0  0  0
   10.1494   -7.8378    0.0000 H   0  0  0  0  0  0  0  0  0  0  0  0
   12.1673  -12.4478    0.0000 H   0  0  0  0  0  0  0  0  0  0  0  0
   13.5963  -14.2428    0.0000 H   0  0  0  0  0  0  0  0  0  0  0  0
   15.8652  -13.9028    0.0000 H   0  0  0  0  0  0  0  0  0  0  0  0
   13.6328   -9.2953    0.0000 H   0  0  0  0  0  0  0  0  0  0  0  0
   18.0682   -7.6871    0.0000 H   0  0  0  0  0  0  0  0  0  0  0  0
   13.1328   -3.1052    0.0000 H   0  0  0  0  0  0  0  0  0  0  0  0
    6.4514   -5.0226    0.0000 H   0  0  0  0  0  0  0  0  0  0  0  0
   13.2194   -9.5103    0.0000 H   0  0  0  0  0  0  0  0  0  0  0  0
   12.5049  -10.9928    0.0000 H   0  0  0  0  0  0  0  0  0  0  0  0
   10.8639  -11.1153    0.0000 H   0  0  0  0  0  0  0  0  0  0  0  0
    9.9373   -9.7553    0.0000 H   0  0  0  0  0  0  0  0  0  0  0  0
   12.7952  -11.9853    0.0000 H   0  0  0  0  0  0  0  0  0  0  0  0
   13.7218  -10.6253    0.0000 H   0  0  0  0  0  0  0  0  0  0  0  0
   13.5097  -13.4678    0.0000 H   0  0  0  0  0  0  0  0  0  0  0  0
   15.1507  -13.5903    0.0000 H   0  0  0  0  0  0  0  0  0  0  0  0
   12.5049   -8.2728    0.0000 H   0  0  0  0  0  0  0  0  0  0  0  0
   13.9339   -9.9228    0.0000 H   0  0  0  0  0  0  0  0  0  0  0  0
   13.0073   -9.3878    0.0000 H   0  0  0  0  0  0  0  0  0  0  0  0
   15.1507  -10.6253    0.0000 H   0  0  0  0  0  0  0  0  0  0  0  0
   16.7918  -11.8178    0.0000 H   0  0  0  0  0  0  0  0  0  0  0  0
   15.8652  -10.2128    0.0000 H   0  0  0  0  0  0  0  0  0  0  0  0
   16.7919  -10.7478    0.0000 H   0  0  0  0  0  0  0  0  0  0  0  0
   14.4473   -5.2722    0.0000 H   0  0  0  0  0  0  0  0  0  0  0  0
   12.4720   -4.9917    0.0000 H   0  0  0  0  0  0  0  0  0  0  0  0
   10.8639   -7.7773    0.0000 H   0  0  0  0  0  0  0  0  0  0  0  0
   16.0986   -8.1068    0.0000 H   0  0  0  0  0  0  0  0  0  0  0  0
    9.2557   -6.8488    0.0000 H   0  0  0  0  0  0  0  0  0  0  0  0
   16.6400   -7.7926    0.0000 H   0  0  0  0  0  0  0  0  0  0  0  0
   17.5646   -7.2539    0.0000 H   0  0  0  0  0  0  0  0  0  0  0  0
   12.5050   -4.3927    0.0000 H   0  0  0  0  0  0  0  0  0  0  0  0
   12.5049   -3.3227    0.0000 H   0  0  0  0  0  0  0  0  0  0  0  0
    8.7204   -6.5777    0.0000 H   0  0  0  0  0  0  0  0  0  0  0  0
    7.7937   -6.0427    0.0000 H   0  0  0  0  0  0  0  0  0  0  0  0
   17.3445   -5.2373    0.0000 H   0  0  0  0  0  0  0  0  0  0  0  0
   16.4199   -5.7759    0.0000 H   0  0  0  0  0  0  0  0  0  0  0  0
   10.6517   -2.4977    0.0000 H   0  0  0  0  0  0  0  0  0  0  0  0
   10.6517   -3.5677    0.0000 H   0  0  0  0  0  0  0  0  0  0  0  0
    8.0061   -4.0252    0.0000 H   0  0  0  0  0  0  0  0  0  0  0  0
    8.9327   -4.5602    0.0000 H   0  0  0  0  0  0  0  0  0  0  0  0
  1 20  1  0  0  0  0
  1 28  1  0  0  0  0
  2 29  1  0  0  0  0
  3 25  1  0  0  0  0
  3 30  1  0  0  0  0
  4 53  1  0  0  0  0
  5 54  1  0  0  0  0
  6 32  1  0  0  0  0
  7 55  1  0  0  0  0
  8 56  1  0  0  0  0
  9 57  1  0  0  0  0
 10 58  1  0  0  0  0
 11 33  1  0  0  0  0
 11 37  1  0  0  0  0
 12 34  2  0  0  0  0
 13 38  1  0  0  0  0
 13 59  1  0  0  0  0
 14 43  1  0  0  0  0
 14 47  1  0  0  0  0
 15 44  1  0  0  0  0
 15 48  1  0  0  0  0
 16 46  1  0  0  0  0
 16 49  1  0  0  0  0
 17 50  1  0  0  0  0
 17 60  1  0  0  0  0
 18 51  1  0  0  0  0
 18 61  1  0  0  0  0
 19 52  1  0  0  0  0
 19 62  1  0  0  0  0
 20 21  1  0  0  0  0
 20 29  1  0  0  0  0
 20 63  1  1  0  0  0
 21  4  1  0  0  0  0
 21 22  1  0  0  0  0
 21 64  1  6  0  0  0
 22  5  1  0  0  0  0
 22 23  1  0  0  0  0
 22 65  1  1  0  0  0
 23  7  1  0  0  0  0
 23 28  1  0  0  0  0
 23 66  1  6  0  0  0
 24  8  1  0  0  0  0
 24 25  1  0  0  0  0
 24 26  1  0  0  0  0
 24 67  1  6  0  0  0
 25  2  1  0  0  0  0
 25 68  1  1  0  0  0
 26  9  1  0  0  0  0
 26 27  1  0  0  0  0
 26 69  1  6  0  0  0
 27 10  1  0  0  0  0
 27 30  1  0  0  0  0
 27 70  1  1  0  0  0
 28  6  1  0  0  0  0
 28 71  1  1  0  0  0
 29 72  1  0  0  0  0
 29 73  1  0  0  0  0
 30 31  1  0  0  0  0
 30 74  1  6  0  0  0
 31 75  1  0  0  0  0
 31 76  1  0  0  0  0
 31 77  1  0  0  0  0
 32 33  2  0  0  0  0
 32 34  1  0  0  0  0
 33 36  1  0  0  0  0
 34 35  1  0  0  0  0
 35 37  1  0  0  0  0
 35 38  2  0  0  0  0
 36 40  2  0  0  0  0
 36 41  1  0  0  0  0
 37 39  2  0  0  0  0
 38 42  1  0  0  0  0
 39 43  1  0  0  0  0
 39 78  1  0  0  0  0
 40 44  1  0  0  0  0
 40 79  1  0  0  0  0
 41 45  2  0  0  0  0
 41 80  1  0  0  0  0
 42 43  2  0  0  0  0
 42 81  1  0  0  0  0
 44 46  2  0  0  0  0
 45 46  1  0  0  0  0
 45 82  1  0  0  0  0
 47 50  1  0  0  0  0
 47 83  1  0  0  0  0
 47 84  1  0  0  0  0
 48 51  1  0  0  0  0
 48 85  1  0  0  0  0
 48 86  1  0  0  0  0
 49 52  1  0  0  0  0
 49 87  1  0  0  0  0
 49 88  1  0  0  0  0
 50 89  1  0  0  0  0
 50 90  1  0  0  0  0
 51 91  1  0  0  0  0
 51 92  1  0  0  0  0
 52 93  1  0  0  0  0
 52 94  1  0  0  0  0
M  END
>  <DRUGBANK_ID>
DB13124

>  <COMMON_NAME>
Troxerutin

>  <CAS_NUMBER>
7085-55-4

>  <UNII>
7Y4N11PXO8

>  <SYNONYMS>
Troxerutin; Troxerutina

$$$$
