
 OpenBabel10282417072D

 75 78  0  0  1  0  0  0  0  0999 V2000
    6.4106   -3.6017    0.0000 O   0  0  0  0  0  0  0  0  0  0  0  0
    5.0128   -3.3046    0.0000 O   0  0  0  0  0  0  0  0  0  0  0  0
    9.6468   -2.0682    0.0000 O   0  0  0  0  0  0  0  0  0  0  0  0
    6.7993    0.4199    0.0000 O   0  0  0  0  0  0  0  0  0  0  0  0
    9.6468   -3.3960    0.0000 O   0  0  0  0  0  0  0  0  0  0  0  0
    2.1350   -1.9745    0.0000 O   0  0  0  0  0  0  0  0  0  0  0  0
    5.8295   -0.9151    0.0000 N   0  0  0  0  0  0  0  0  0  0  0  0
    5.6433    1.2597    0.0000 N   0  0  0  0  0  0  0  0  0  0  0  0
    5.9690   -2.2426    0.0000 C   0  0  2  0  0  0  0  0  0  0  0  0
    6.7227   -1.9071    0.0000 C   0  0  2  0  0  0  0  0  0  0  0  0
    5.4170   -1.6296    0.0000 C   0  0  2  0  0  0  0  0  0  0  0  0
    6.6364   -1.0866    0.0000 C   0  0  0  0  0  0  0  0  0  0  0  0
    7.4372   -2.3196    0.0000 C   0  0  0  0  0  0  0  0  0  0  0  0
    4.5965   -1.7158    0.0000 C   0  0  0  0  0  0  0  0  0  0  0  0
    5.4939   -0.1614    0.0000 C   0  0  0  0  0  0  0  0  0  0  0  0
    5.7975   -3.0497    0.0000 C   0  0  0  0  0  0  0  0  0  0  0  0
    8.1517   -1.9071    0.0000 C   0  0  0  0  0  0  0  0  0  0  0  0
    5.9788    0.5061    0.0000 C   0  0  0  0  0  0  0  0  0  0  0  0
    7.4372   -3.1446    0.0000 C   0  0  0  0  0  0  0  0  0  0  0  0
    4.2609   -2.4695    0.0000 C   0  0  0  0  0  0  0  0  0  0  0  0
    4.1116   -1.0484    0.0000 C   0  0  0  0  0  0  0  0  0  0  0  0
    8.8661   -2.3196    0.0000 C   0  0  0  0  0  0  0  0  0  0  0  0
    8.1517   -3.5571    0.0000 C   0  0  0  0  0  0  0  0  0  0  0  0
    8.8661   -3.1446    0.0000 C   0  0  0  0  0  0  0  0  0  0  0  0
    3.4404   -2.5557    0.0000 C   0  0  0  0  0  0  0  0  0  0  0  0
    3.2910   -1.1346    0.0000 C   0  0  0  0  0  0  0  0  0  0  0  0
    4.8228    1.3460    0.0000 C   0  0  0  0  0  0  0  0  0  0  0  0
    6.1282    1.9272    0.0000 C   0  0  0  0  0  0  0  0  0  0  0  0
    2.9555   -1.8883    0.0000 C   0  0  0  0  0  0  0  0  0  0  0  0
    4.4872    2.0997    0.0000 C   0  0  0  0  0  0  0  0  0  0  0  0
    5.7926    2.6809    0.0000 C   0  0  0  0  0  0  0  0  0  0  0  0
   10.1283   -2.7321    0.0000 C   0  0  0  0  0  0  0  0  0  0  0  0
    3.6667    2.1859    0.0000 C   0  0  0  0  0  0  0  0  0  0  0  0
    6.2776    3.3483    0.0000 C   0  0  0  0  0  0  0  0  0  0  0  0
    3.3312    2.9396    0.0000 C   0  0  0  0  0  0  0  0  0  0  0  0
    5.9420    4.1021    0.0000 C   0  0  0  0  0  0  0  0  0  0  0  0
    1.6500   -1.3071    0.0000 C   0  0  0  0  0  0  0  0  0  0  0  0
    6.2158   -4.5182    0.0000 H   0  0  0  0  0  0  0  0  0  0  0  0
    6.8005   -2.9160    0.0000 H   0  0  0  0  0  0  0  0  0  0  0  0
    6.6667   -2.9756    0.0000 H   0  0  0  0  0  0  0  0  0  0  0  0
    4.8342   -0.7322    0.0000 H   0  0  0  0  0  0  0  0  0  0  0  0
    7.4315   -0.3706    0.0000 H   0  0  0  0  0  0  0  0  0  0  0  0
    7.6354   -1.4700    0.0000 H   0  0  0  0  0  0  0  0  0  0  0  0
    4.4298   -0.0496    0.0000 H   0  0  0  0  0  0  0  0  0  0  0  0
    5.0586    0.8161    0.0000 H   0  0  0  0  0  0  0  0  0  0  0  0
    8.1517   -0.8751    0.0000 H   0  0  0  0  0  0  0  0  0  0  0  0
    6.5435   -3.6606    0.0000 H   0  0  0  0  0  0  0  0  0  0  0  0
    4.8675   -3.3044    0.0000 H   0  0  0  0  0  0  0  0  0  0  0  0
    4.5314   -0.1056    0.0000 H   0  0  0  0  0  0  0  0  0  0  0  0
    8.1517   -4.5891    0.0000 H   0  0  0  0  0  0  0  0  0  0  0  0
    3.0206   -3.4985    0.0000 H   0  0  0  0  0  0  0  0  0  0  0  0
    2.6844   -0.2997    0.0000 H   0  0  0  0  0  0  0  0  0  0  0  0
    4.1939    0.4804    0.0000 H   0  0  0  0  0  0  0  0  0  0  0  0
    3.7587    1.4578    0.0000 H   0  0  0  0  0  0  0  0  0  0  0  0
    7.1923    1.8154    0.0000 H   0  0  0  0  0  0  0  0  0  0  0  0
    6.7571    2.7929    0.0000 H   0  0  0  0  0  0  0  0  0  0  0  0
    5.1161    2.9654    0.0000 H   0  0  0  0  0  0  0  0  0  0  0  0
    4.0519    3.0772    0.0000 H   0  0  0  0  0  0  0  0  0  0  0  0
    4.7285    2.7928    0.0000 H   0  0  0  0  0  0  0  0  0  0  0  0
    5.3575    3.6584    0.0000 H   0  0  0  0  0  0  0  0  0  0  0  0
   11.1983   -2.7321    0.0000 H   0  0  0  0  0  0  0  0  0  0  0  0
   10.6145   -3.6853    0.0000 H   0  0  0  0  0  0  0  0  0  0  0  0
    3.0378    1.3203    0.0000 H   0  0  0  0  0  0  0  0  0  0  0  0
    2.6026    2.2978    0.0000 H   0  0  0  0  0  0  0  0  0  0  0  0
    7.3417    3.2364    0.0000 H   0  0  0  0  0  0  0  0  0  0  0  0
    6.9066    4.2139    0.0000 H   0  0  0  0  0  0  0  0  0  0  0  0
    3.9602    3.8052    0.0000 H   0  0  0  0  0  0  0  0  0  0  0  0
    2.2671    3.0515    0.0000 H   0  0  0  0  0  0  0  0  0  0  0  0
    2.8961    3.9171    0.0000 H   0  0  0  0  0  0  0  0  0  0  0  0
    6.5709    4.9677    0.0000 H   0  0  0  0  0  0  0  0  0  0  0  0
    4.8779    4.2140    0.0000 H   0  0  0  0  0  0  0  0  0  0  0  0
    5.5068    5.0796    0.0000 H   0  0  0  0  0  0  0  0  0  0  0  0
    2.0851   -0.3296    0.0000 H   0  0  0  0  0  0  0  0  0  0  0  0
    0.5859   -1.4191    0.0000 H   0  0  0  0  0  0  0  0  0  0  0  0
    1.0210   -0.4415    0.0000 H   0  0  0  0  0  0  0  0  0  0  0  0
  1 16  1  0  0  0  0
  1 38  1  0  0  0  0
  2 16  2  0  0  0  0
  3 22  1  0  0  0  0
  3 32  1  0  0  0  0
  4 18  2  0  0  0  0
  5 24  1  0  0  0  0
  5 32  1  0  0  0  0
  6 29  1  0  0  0  0
  6 37  1  0  0  0  0
  7 11  1  0  0  0  0
  7 12  1  0  0  0  0
  7 15  1  0  0  0  0
  8 18  1  0  0  0  0
  8 27  1  0  0  0  0
  8 28  1  0  0  0  0
  9 10  1  0  0  0  0
  9 11  1  0  0  0  0
  9 16  1  0  0  0  0
  9 39  1  6  0  0  0
 10 12  1  0  0  0  0
 10 13  1  0  0  0  0
 10 40  1  1  0  0  0
 11 14  1  0  0  0  0
 11 41  1  1  0  0  0
 12 42  1  0  0  0  0
 12 43  1  0  0  0  0
 13 17  2  0  0  0  0
 13 19  1  0  0  0  0
 14 20  2  0  0  0  0
 14 21  1  0  0  0  0
 15 18  1  0  0  0  0
 15 44  1  0  0  0  0
 15 45  1  0  0  0  0
 17 22  1  0  0  0  0
 17 46  1  0  0  0  0
 19 23  2  0  0  0  0
 19 47  1  0  0  0  0
 20 25  1  0  0  0  0
 20 48  1  0  0  0  0
 21 26  2  0  0  0  0
 21 49  1  0  0  0  0
 22 24  2  0  0  0  0
 23 24  1  0  0  0  0
 23 50  1  0  0  0  0
 25 29  2  0  0  0  0
 25 51  1  0  0  0  0
 26 29  1  0  0  0  0
 26 52  1  0  0  0  0
 27 30  1  0  0  0  0
 27 53  1  0  0  0  0
 27 54  1  0  0  0  0
 28 31  1  0  0  0  0
 28 55  1  0  0  0  0
 28 56  1  0  0  0  0
 30 33  1  0  0  0  0
 30 57  1  0  0  0  0
 30 58  1  0  0  0  0
 31 34  1  0  0  0  0
 31 59  1  0  0  0  0
 31 60  1  0  0  0  0
 32 61  1  0  0  0  0
 32 62  1  0  0  0  0
 33 35  1  0  0  0  0
 33 63  1  0  0  0  0
 33 64  1  0  0  0  0
 34 36  1  0  0  0  0
 34 65  1  0  0  0  0
 34 66  1  0  0  0  0
 35 67  1  0  0  0  0
 35 68  1  0  0  0  0
 35 69  1  0  0  0  0
 36 70  1  0  0  0  0
 36 71  1  0  0  0  0
 36 72  1  0  0  0  0
 37 73  1  0  0  0  0
 37 74  1  0  0  0  0
 37 75  1  0  0  0  0
M  END
>  <DRUGBANK_ID>
DB06199

>  <COMMON_NAME>
Atrasentan

>  <CAS_NUMBER>
173937-91-2

>  <UNII>
V6D7VK2215

>  <SYNONYMS>
Atrasentan

$$$$
