
 OpenBabel10282417072D

 34 33  0  0  0  0  0  0  0  0999 V2000
    0.7145    2.0777    0.0000 O   0  0  0  0  0  0  0  0  0  0  0  0
    0.0000    3.3153    0.0000 O   0  0  0  0  0  0  0  0  0  0  0  0
   -1.4290    2.4903    0.0000 N   0  3  0  0  0  0  0  0  0  0  0  0
    0.7145   -0.3973    0.0000 N   0  0  0  0  0  0  0  0  0  0  0  0
    1.4289   -1.6348    0.0000 N   0  0  0  0  0  0  0  0  0  0  0  0
   -0.7145    1.2527    0.0000 C   0  0  0  0  0  0  0  0  0  0  0  0
   -0.7145    2.0777    0.0000 C   0  0  1  0  0  0  0  0  0  0  0  0
    0.0000    0.8402    0.0000 C   0  0  0  0  0  0  0  0  0  0  0  0
    0.0000    0.0152    0.0000 C   0  0  0  0  0  0  0  0  0  0  0  0
    0.0000    2.4903    0.0000 C   0  0  0  0  0  0  0  0  0  0  0  0
    0.0000   -1.6348    0.0000 C   0  0  0  0  0  0  0  0  0  0  0  0
    0.7145   -1.2223    0.0000 C   0  0  0  0  0  0  0  0  0  0  0  0
    0.0000   -2.4598    0.0000 C   0  0  0  0  0  0  0  0  0  0  0  0
   -0.7145   -2.8723    0.0000 C   0  0  0  0  0  0  0  0  0  0  0  0
    0.7144    1.1407    0.0000 H   0  0  0  0  0  0  0  0  0  0  0  0
   -1.4289    3.5103    0.0000 H   0  0  0  0  0  0  0  0  0  0  0  0
   -2.3124    1.9804    0.0000 H   0  0  0  0  0  0  0  0  0  0  0  0
   -2.3123    3.0004    0.0000 H   0  0  0  0  0  0  0  0  0  0  0  0
    1.4289   -2.6193    0.0000 H   0  0  0  0  0  0  0  0  0  0  0  0
    2.2815   -1.1426    0.0000 H   0  0  0  0  0  0  0  0  0  0  0  0
   -1.6411    0.7177    0.0000 H   0  0  0  0  0  0  0  0  0  0  0  0
   -0.7145    0.1827    0.0000 H   0  0  0  0  0  0  0  0  0  0  0  0
   -1.6412    1.5427    0.0000 H   0  0  0  0  0  0  0  0  0  0  0  0
    0.9266    1.3752    0.0000 H   0  0  0  0  0  0  0  0  0  0  0  0
    0.9266    0.3052    0.0000 H   0  0  0  0  0  0  0  0  0  0  0  0
   -0.9266   -0.5198    0.0000 H   0  0  0  0  0  0  0  0  0  0  0  0
   -0.9266    0.5502    0.0000 H   0  0  0  0  0  0  0  0  0  0  0  0
   -0.9266   -1.0998    0.0000 H   0  0  0  0  0  0  0  0  0  0  0  0
   -0.9266   -2.1698    0.0000 H   0  0  0  0  0  0  0  0  0  0  0  0
    0.9266   -2.9948    0.0000 H   0  0  0  0  0  0  0  0  0  0  0  0
   -0.0000   -3.5298    0.0000 H   0  0  0  0  0  0  0  0  0  0  0  0
   -1.6411   -2.3373    0.0000 H   0  0  0  0  0  0  0  0  0  0  0  0
   -0.7145   -3.9423    0.0000 H   0  0  0  0  0  0  0  0  0  0  0  0
   -1.6412   -3.4073    0.0000 H   0  0  0  0  0  0  0  0  0  0  0  0
  1 10  1  0  0  0  0
  1 15  1  0  0  0  0
  2 10  2  0  0  0  0
  3 16  1  0  0  0  0
  3 17  1  0  0  0  0
  3 18  1  0  0  0  0
  4  9  1  0  0  0  0
  4 12  2  0  0  0  0
  5 12  1  0  0  0  0
  5 19  1  0  0  0  0
  5 20  1  0  0  0  0
  6  7  1  0  0  0  0
  6  8  1  0  0  0  0
  6 21  1  0  0  0  0
  6 22  1  0  0  0  0
  7  3  1  0  0  0  0
  7 10  1  0  0  0  0
  7 23  1  1  0  0  0
  8  9  1  0  0  0  0
  8 24  1  0  0  0  0
  8 25  1  0  0  0  0
  9 26  1  0  0  0  0
  9 27  1  0  0  0  0
 11 12  1  0  0  0  0
 11 13  1  0  0  0  0
 11 28  1  0  0  0  0
 11 29  1  0  0  0  0
 13 14  1  0  0  0  0
 13 30  1  0  0  0  0
 13 31  1  0  0  0  0
 14 32  1  0  0  0  0
 14 33  1  0  0  0  0
 14 34  1  0  0  0  0
M  CHG  1   3   1
M  END
>  <DRUGBANK_ID>
DB03710

>  <SECONDARY_ACCESSION_NUMBERS>
EXPT03224

>  <COMMON_NAME>
[(1S)-4-(1-Aminobutylideneamino)-1-carboxybutyl]azanium

$$$$
