1626
 OpenBabel10282417072D

 25 25  0  0  1  0  0  0  0  0999 V2000
    3.0791    0.4909    0.0000 N   0  0  0  0  0  0  0  0  0  0  0  0
    2.3645    0.0784    0.0000 C   0  0  0  0  0  0  0  0  0  0  0  0
    2.3645   -0.7466    0.0000 C   0  0  0  0  0  0  0  0  0  0  0  0
    3.0791    1.3159    0.0000 C   0  0  0  0  0  0  0  0  0  0  0  0
    3.7935    0.0784    0.0000 C   0  0  0  0  0  0  0  0  0  0  0  0
    3.0791   -1.1592    0.0000 C   0  0  0  0  0  0  0  0  0  0  0  0
    1.6500   -1.1592    0.0000 C   0  0  0  0  0  0  0  0  0  0  0  0
    3.0791   -1.9842    0.0000 C   0  0  0  0  0  0  0  0  0  0  0  0
    1.6500   -1.9842    0.0000 C   0  0  0  0  0  0  0  0  0  0  0  0
    2.3645   -2.3967    0.0000 C   0  0  0  0  0  0  0  0  0  0  0  0
    3.7935    1.7284    0.0000 C   0  0  0  0  0  0  0  0  0  0  0  0
    4.5080    2.1409    0.0000 C   0  0  0  0  0  0  0  0  0  0  0  0
    1.4379    0.6134    0.0000 H   0  0  0  0  0  0  0  0  0  0  0  0
    1.4378   -0.4566    0.0000 H   0  0  0  0  0  0  0  0  0  0  0  0
    2.1524    1.8509    0.0000 H   0  0  0  0  0  0  0  0  0  0  0  0
    3.0791    2.3859    0.0000 H   0  0  0  0  0  0  0  0  0  0  0  0
    3.7935   -0.9916    0.0000 H   0  0  0  0  0  0  0  0  0  0  0  0
    4.7202    0.6134    0.0000 H   0  0  0  0  0  0  0  0  0  0  0  0
    4.7201   -0.4566    0.0000 H   0  0  0  0  0  0  0  0  0  0  0  0
    3.9728   -0.6432    0.0000 H   0  0  0  0  0  0  0  0  0  0  0  0
    0.7562   -0.6432    0.0000 H   0  0  0  0  0  0  0  0  0  0  0  0
    3.9728   -2.5002    0.0000 H   0  0  0  0  0  0  0  0  0  0  0  0
    0.7563   -2.5002    0.0000 H   0  0  0  0  0  0  0  0  0  0  0  0
    2.3645   -3.4287    0.0000 H   0  0  0  0  0  0  0  0  0  0  0  0
    5.3688    2.6379    0.0000 H   0  0  0  0  0  0  0  0  0  0  0  0
  1  2  1  0  0  0  0
  1  4  1  0  0  0  0
  1  5  1  0  0  0  0
  2  3  1  0  0  0  0
  2 13  1  0  0  0  0
  2 14  1  0  0  0  0
  3  6  2  0  0  0  0
  3  7  1  0  0  0  0
  4 11  1  0  0  0  0
  4 15  1  0  0  0  0
  4 16  1  0  0  0  0
  5 17  1  0  0  0  0
  5 18  1  0  0  0  0
  5 19  1  0  0  0  0
  6  8  1  0  0  0  0
  6 20  1  0  0  0  0
  7  9  2  0  0  0  0
  7 21  1  0  0  0  0
  8 10  2  0  0  0  0
  8 22  1  0  0  0  0
  9 10  1  0  0  0  0
  9 23  1  0  0  0  0
 10 24  1  0  0  0  0
 11 12  3  0  0  0  0
 12 25  1  0  0  0  0
M  END
>  <DRUGBANK_ID>
DB01626

>  <COMMON_NAME>
Pargyline

>  <CAS_NUMBER>
555-57-7

>  <UNII>
9MV14S8G3E

>  <SYNONYMS>
Pargilina; Pargyline; Pargylinum

$$$$
