12U
 OpenBabel10282417072D

 62 64  0  0  0  0  0  0  0  0999 V2000
   -0.5114    0.4582    0.0000 O   0  0  0  0  0  0  0  0  0  0  0  0
    0.2030    0.0457    0.0000 C   0  0  0  0  0  0  0  0  0  0  0  0
    0.9175    0.4582    0.0000 N   0  0  0  0  0  0  0  0  0  0  0  0
    0.9175    1.2832    0.0000 C   0  0  0  0  0  0  0  0  0  0  0  0
    1.6320    1.6957    0.0000 C   0  0  0  0  0  0  0  0  0  0  0  0
    1.6320    2.5207    0.0000 C   0  0  0  0  0  0  0  0  0  0  0  0
    2.3464    2.9332    0.0000 C   0  0  0  0  0  0  0  0  0  0  0  0
    3.0609    2.5207    0.0000 C   0  0  0  0  0  0  0  0  0  0  0  0
    3.7754    2.9332    0.0000 C   0  0  0  0  0  0  0  0  0  0  0  0
    4.4899    2.5207    0.0000 N   0  0  0  0  0  0  0  0  0  0  0  0
    3.7754    3.7582    0.0000 N   0  0  0  0  0  0  0  0  0  0  0  0
    3.0609    1.6957    0.0000 C   0  0  0  0  0  0  0  0  0  0  0  0
    2.3464    1.2832    0.0000 C   0  0  0  0  0  0  0  0  0  0  0  0
    0.2030   -0.7793    0.0000 C   0  0  2  0  0  0  0  0  0  0  0  0
    0.8705   -1.2642    0.0000 C   0  0  0  0  0  0  0  0  0  0  0  0
    0.6155   -2.0488    0.0000 C   0  0  0  0  0  0  0  0  0  0  0  0
   -0.2095   -2.0488    0.0000 C   0  0  0  0  0  0  0  0  0  0  0  0
   -0.4644   -1.2642    0.0000 N   0  0  0  0  0  0  0  0  0  0  0  0
   -1.2490   -1.0093    0.0000 C   0  0  0  0  0  0  0  0  0  0  0  0
   -1.8621   -1.5613    0.0000 O   0  0  0  0  0  0  0  0  0  0  0  0
   -1.4206   -0.2023    0.0000 C   0  0  0  0  0  0  0  0  0  0  0  0
   -2.2052    0.0526    0.0000 N   0  0  0  0  0  0  0  0  0  0  0  0
   -2.8183   -0.4994    0.0000 C   0  0  0  0  0  0  0  0  0  0  0  0
   -2.5869   -1.2913    0.0000 C   0  0  0  0  0  0  0  0  0  0  0  0
   -3.0618   -1.9659    0.0000 C   0  0  0  0  0  0  0  0  0  0  0  0
   -3.8853   -2.0153    0.0000 C   0  0  0  0  0  0  0  0  0  0  0  0
   -4.4374   -1.4022    0.0000 C   0  0  0  0  0  0  0  0  0  0  0  0
   -4.3022   -0.5883    0.0000 C   0  0  0  0  0  0  0  0  0  0  0  0
   -3.5817   -0.1865    0.0000 C   0  0  0  0  0  0  0  0  0  0  0  0
    0.7233   -0.5142    0.0000 H   0  0  0  0  0  0  0  0  0  0  0  0
    1.7701   -0.0341    0.0000 H   0  0  0  0  0  0  0  0  0  0  0  0
   -0.0091    1.8182    0.0000 H   0  0  0  0  0  0  0  0  0  0  0  0
    0.9175    2.3532    0.0000 H   0  0  0  0  0  0  0  0  0  0  0  0
    0.7383    3.0367    0.0000 H   0  0  0  0  0  0  0  0  0  0  0  0
    2.3464    3.9652    0.0000 H   0  0  0  0  0  0  0  0  0  0  0  0
    4.4899    1.5362    0.0000 H   0  0  0  0  0  0  0  0  0  0  0  0
    4.6280    4.2504    0.0000 H   0  0  0  0  0  0  0  0  0  0  0  0
    2.9228    4.2504    0.0000 H   0  0  0  0  0  0  0  0  0  0  0  0
    3.9546    1.1797    0.0000 H   0  0  0  0  0  0  0  0  0  0  0  0
    2.3464    0.2512    0.0000 H   0  0  0  0  0  0  0  0  0  0  0  0
    1.8881   -0.9336    0.0000 H   0  0  0  0  0  0  0  0  0  0  0  0
    1.6271   -2.0208    0.0000 H   0  0  0  0  0  0  0  0  0  0  0  0
    1.2444   -2.9145    0.0000 H   0  0  0  0  0  0  0  0  0  0  0  0
    0.1297   -3.0022    0.0000 H   0  0  0  0  0  0  0  0  0  0  0  0
   -0.8384   -2.9144    0.0000 H   0  0  0  0  0  0  0  0  0  0  0  0
   -1.2663   -1.8814    0.0000 H   0  0  0  0  0  0  0  0  0  0  0  0
   -0.6255    0.5137    0.0000 H   0  0  0  0  0  0  0  0  0  0  0  0
   -1.6431    0.8443    0.0000 H   0  0  0  0  0  0  0  0  0  0  0  0
   -2.4173    1.0503    0.0000 H   0  0  0  0  0  0  0  0  0  0  0  0
   -3.6135   -1.2154    0.0000 H   0  0  0  0  0  0  0  0  0  0  0  0
   -1.5314   -1.4666    0.0000 H   0  0  0  0  0  0  0  0  0  0  0  0
   -2.1737   -2.2783    0.0000 H   0  0  0  0  0  0  0  0  0  0  0  0
   -2.5407   -2.9004    0.0000 H   0  0  0  0  0  0  0  0  0  0  0  0
   -3.5758   -2.9043    0.0000 H   0  0  0  0  0  0  0  0  0  0  0  0
   -4.2910   -3.0054    0.0000 H   0  0  0  0  0  0  0  0  0  0  0  0
   -4.9395   -2.1985    0.0000 H   0  0  0  0  0  0  0  0  0  0  0  0
   -5.4645   -1.7023    0.0000 H   0  0  0  0  0  0  0  0  0  0  0  0
   -5.2379   -0.6922    0.0000 H   0  0  0  0  0  0  0  0  0  0  0  0
   -5.1772    0.0276    0.0000 H   0  0  0  0  0  0  0  0  0  0  0  0
   -4.2462    0.4802    0.0000 H   0  0  0  0  0  0  0  0  0  0  0  0
   -3.6457    0.8816    0.0000 H   0  0  0  0  0  0  0  0  0  0  0  0
   -4.5201    0.3275    0.0000 H   0  0  0  0  0  0  0  0  0  0  0  0
  1  2  2  0  0  0  0
  2  3  1  0  0  0  0
  3  4  1  0  0  0  0
  3 31  1  0  0  0  0
  4  5  1  0  0  0  0
  4 32  1  0  0  0  0
  4 33  1  0  0  0  0
  5  6  2  0  0  0  0
  5 13  1  0  0  0  0
  6  7  1  0  0  0  0
  6 34  1  0  0  0  0
  7  8  2  0  0  0  0
  7 35  1  0  0  0  0
  8  9  1  0  0  0  0
  8 12  1  0  0  0  0
  9 10  2  0  0  0  0
  9 11  1  0  0  0  0
 10 36  1  0  0  0  0
 11 37  1  0  0  0  0
 11 38  1  0  0  0  0
 12 13  2  0  0  0  0
 12 39  1  0  0  0  0
 13 40  1  0  0  0  0
 14  2  1  0  0  0  0
 14 15  1  0  0  0  0
 14 18  1  0  0  0  0
 14 30  1  1  0  0  0
 15 16  1  0  0  0  0
 15 41  1  0  0  0  0
 15 42  1  0  0  0  0
 16 17  1  0  0  0  0
 16 43  1  0  0  0  0
 16 44  1  0  0  0  0
 17 18  1  0  0  0  0
 17 45  1  0  0  0  0
 17 46  1  0  0  0  0
 18 19  1  0  0  0  0
 19 20  2  0  0  0  0
 19 21  1  0  0  0  0
 21 22  1  0  0  0  0
 21 47  1  0  0  0  0
 21 48  1  0  0  0  0
 22 23  1  0  0  0  0
 22 49  1  0  0  0  0
 23 24  1  0  0  0  0
 23 29  1  0  0  0  0
 23 50  1  0  0  0  0
 24 25  1  0  0  0  0
 24 51  1  0  0  0  0
 24 52  1  0  0  0  0
 25 26  1  0  0  0  0
 25 53  1  0  0  0  0
 25 54  1  0  0  0  0
 26 27  1  0  0  0  0
 26 55  1  0  0  0  0
 26 56  1  0  0  0  0
 27 28  1  0  0  0  0
 27 57  1  0  0  0  0
 27 58  1  0  0  0  0
 28 29  1  0  0  0  0
 28 59  1  0  0  0  0
 28 60  1  0  0  0  0
 29 61  1  0  0  0  0
 29 62  1  0  0  0  0
M  END
>  <DRUGBANK_ID>
DB06853

>  <COMMON_NAME>
N-cycloheptylglycyl-N-(4-carbamimidoylbenzyl)-L-prolinamide

$$$$
