581
 OpenBabel10282417072D

 45 46  0  0  1  0  0  0  0  0999 V2000
    5.6655   -0.5564    0.0000 O   0  0  0  0  0  0  0  0  0  0  0  0
    5.2530    1.5382    0.0000 O   0  0  0  0  0  0  0  0  0  0  0  0
    4.2365   -0.5564    0.0000 O   0  0  0  0  0  0  0  0  0  0  0  0
    7.1175    0.4986    0.0000 O   0  0  0  0  0  0  0  0  0  0  0  0
    6.8626    1.7931    0.0000 O   0  0  0  0  0  0  0  0  0  0  0  0
    5.6655   -2.2064    0.0000 O   0  0  0  0  0  0  0  0  0  0  0  0
    4.2365   -3.0314    0.0000 O   0  0  0  0  0  0  0  0  0  0  0  0
    2.8075   -2.2064    0.0000 O   0  0  0  0  0  0  0  0  0  0  0  0
    3.6002    1.0507    0.0000 O   0  0  0  0  0  0  0  0  0  0  0  0
    5.3634    2.7757    0.0000 O   0  0  0  0  0  0  0  0  0  0  0  0
    2.0930   -0.9689    0.0000 O   0  0  0  0  0  0  0  0  0  0  0  0
    5.6655    0.2686    0.0000 C   0  0  1  0  0  0  0  0  0  0  0  0
    6.3329    0.7536    0.0000 C   0  0  1  0  0  0  0  0  0  0  0  0
    4.9980    0.7536    0.0000 C   0  0  1  0  0  0  0  0  0  0  0  0
    6.0780    1.5382    0.0000 C   0  0  1  0  0  0  0  0  0  0  0  0
    4.9509   -0.9689    0.0000 C   0  0  2  0  0  0  0  0  0  0  0  0
    4.9509   -1.7939    0.0000 C   0  0  1  0  0  0  0  0  0  0  0  0
    4.2365   -2.2064    0.0000 C   0  0  2  0  0  0  0  0  0  0  0  0
    3.5220   -1.7939    0.0000 C   0  0  2  0  0  0  0  0  0  0  0  0
    3.5220   -0.9689    0.0000 C   0  0  1  0  0  0  0  0  0  0  0  0
    4.2134    0.4986    0.0000 C   0  0  0  0  0  0  0  0  0  0  0  0
    6.0780    2.3632    0.0000 C   0  0  0  0  0  0  0  0  0  0  0  0
    2.8075   -0.5564    0.0000 C   0  0  0  0  0  0  0  0  0  0  0  0
    7.3191   -0.4502    0.0000 H   0  0  0  0  0  0  0  0  0  0  0  0
    7.5834    1.1440    0.0000 H   0  0  0  0  0  0  0  0  0  0  0  0
    5.6656   -3.1764    0.0000 H   0  0  0  0  0  0  0  0  0  0  0  0
    3.3965   -3.5164    0.0000 H   0  0  0  0  0  0  0  0  0  0  0  0
    1.9675   -1.7214    0.0000 H   0  0  0  0  0  0  0  0  0  0  0  0
    3.8019    1.9995    0.0000 H   0  0  0  0  0  0  0  0  0  0  0  0
    5.3633    3.7457    0.0000 H   0  0  0  0  0  0  0  0  0  0  0  0
    1.2530   -0.4839    0.0000 H   0  0  0  0  0  0  0  0  0  0  0  0
    6.6189   -0.2171    0.0000 H   0  0  0  0  0  0  0  0  0  0  0  0
    6.5003   -0.3032    0.0000 H   0  0  0  0  0  0  0  0  0  0  0  0
    4.2414    1.5102    0.0000 H   0  0  0  0  0  0  0  0  0  0  0  0
    4.9510    0.1011    0.0000 H   0  0  0  0  0  0  0  0  0  0  0  0
    5.8775   -1.2589    0.0000 H   0  0  0  0  0  0  0  0  0  0  0  0
    5.1632   -2.7414    0.0000 H   0  0  0  0  0  0  0  0  0  0  0  0
    3.5220   -2.8639    0.0000 H   0  0  0  0  0  0  0  0  0  0  0  0
    3.5220    0.1011    0.0000 H   0  0  0  0  0  0  0  0  0  0  0  0
    3.9910   -0.5480    0.0000 H   0  0  0  0  0  0  0  0  0  0  0  0
    5.0086   -0.2173    0.0000 H   0  0  0  0  0  0  0  0  0  0  0  0
    7.0046    2.8982    0.0000 H   0  0  0  0  0  0  0  0  0  0  0  0
    7.0047    1.8282    0.0000 H   0  0  0  0  0  0  0  0  0  0  0  0
    2.8075    0.5136    0.0000 H   0  0  0  0  0  0  0  0  0  0  0  0
    3.7341   -0.0214    0.0000 H   0  0  0  0  0  0  0  0  0  0  0  0
  2 14  1  0  0  0  0
  2 15  1  0  0  0  0
  3 16  1  0  0  0  0
  3 20  1  0  0  0  0
  4 24  1  0  0  0  0
  5 25  1  0  0  0  0
  6 26  1  0  0  0  0
  7 27  1  0  0  0  0
  8 28  1  0  0  0  0
  9 21  1  0  0  0  0
  9 29  1  0  0  0  0
 10 22  1  0  0  0  0
 10 30  1  0  0  0  0
 11 23  1  0  0  0  0
 11 31  1  0  0  0  0
 12  1  1  0  0  0  0
 12 13  1  0  0  0  0
 12 14  1  0  0  0  0
 12 32  1  1  0  0  0
 13  4  1  0  0  0  0
 13 15  1  0  0  0  0
 13 33  1  6  0  0  0
 14 21  1  0  0  0  0
 14 34  1  6  0  0  0
 15  5  1  1  0  0  0
 15 22  1  0  0  0  0
 16  1  1  0  0  0  0
 16 17  1  0  0  0  0
 16 35  1  6  0  0  0
 17  6  1  0  0  0  0
 17 18  1  0  0  0  0
 17 36  1  1  0  0  0
 18  7  1  0  0  0  0
 18 19  1  0  0  0  0
 18 37  1  6  0  0  0
 19  8  1  0  0  0  0
 19 20  1  0  0  0  0
 19 38  1  6  0  0  0
 20 23  1  0  0  0  0
 20 39  1  6  0  0  0
 21 40  1  0  0  0  0
 21 41  1  0  0  0  0
 22 42  1  0  0  0  0
 22 43  1  0  0  0  0
 23 44  1  0  0  0  0
 23 45  1  0  0  0  0
M  END
>  <DRUGBANK_ID>
DB00581

>  <SECONDARY_ACCESSION_NUMBERS>
APRD01063

>  <COMMON_NAME>
Lactulose

>  <CAS_NUMBER>
4618-18-2

>  <UNII>
9XH2P2N8EP

>  <SYNONYMS>
4-O-beta-D-Galactopyranosyl-D-fructofuranose; 4-O-beta-D-Galactopyranosyl-D-fructose; Lactulosa; Lactulose; Lactulosum

$$$$
