
 OpenBabel10282417072D

 60 60  0  0  0  0  0  0  0  0999 V2000
    5.0013  -10.3125    0.0000 C   0  0  0  0  0  0  0  0  0  0  0  0
    5.7158   -9.9000    0.0000 C   0  0  0  0  0  0  0  0  0  0  0  0
    6.4302  -10.3125    0.0000 C   0  0  0  0  0  0  0  0  0  0  0  0
    7.1447   -9.9000    0.0000 C   0  0  0  0  0  0  0  0  0  0  0  0
    7.8592  -10.3125    0.0000 C   0  0  0  0  0  0  0  0  0  0  0  0
    8.5737   -9.9000    0.0000 C   0  0  0  0  0  0  0  0  0  0  0  0
    9.2881  -10.3125    0.0000 C   0  0  0  0  0  0  0  0  0  0  0  0
   10.0026   -9.9000    0.0000 C   0  0  0  0  0  0  0  0  0  0  0  0
   10.7171  -10.3125    0.0000 C   0  0  0  0  0  0  0  0  0  0  0  0
   11.4315   -9.9000    0.0000 C   0  0  0  0  0  0  0  0  0  0  0  0
   12.1460  -10.3125    0.0000 C   0  0  0  0  0  0  0  0  0  0  0  0
   12.8605   -9.9000    0.0000 C   0  0  0  0  0  0  0  0  0  0  0  0
   13.5749  -10.3125    0.0000 C   0  0  0  0  0  0  0  0  0  0  0  0
   14.2894   -9.9000    0.0000 C   0  0  0  0  0  0  0  0  0  0  0  0
   15.0039  -10.3125    0.0000 C   0  0  0  0  0  0  0  0  0  0  0  0
   15.7184   -9.9000    0.0000 C   0  0  0  0  0  0  0  0  0  0  0  0
   16.4328  -10.3125    0.0000 N   0  3  0  0  0  0  0  0  0  0  0  0
   17.1473   -9.9000    0.0000 C   0  0  0  0  0  0  0  0  0  0  0  0
   17.8618  -10.3125    0.0000 C   0  0  0  0  0  0  0  0  0  0  0  0
   17.8618  -11.1375    0.0000 C   0  0  0  0  0  0  0  0  0  0  0  0
   17.1473  -11.5500    0.0000 C   0  0  0  0  0  0  0  0  0  0  0  0
   16.4328  -11.1375    0.0000 C   0  0  0  0  0  0  0  0  0  0  0  0
    4.0747   -9.7775    0.0000 H   0  0  0  0  0  0  0  0  0  0  0  0
    5.0013  -11.3825    0.0000 H   0  0  0  0  0  0  0  0  0  0  0  0
    4.0746  -10.8475    0.0000 H   0  0  0  0  0  0  0  0  0  0  0  0
    5.7158   -8.8300    0.0000 H   0  0  0  0  0  0  0  0  0  0  0  0
    6.6425   -9.3650    0.0000 H   0  0  0  0  0  0  0  0  0  0  0  0
    6.4302  -11.3825    0.0000 H   0  0  0  0  0  0  0  0  0  0  0  0
    7.3568  -10.8475    0.0000 H   0  0  0  0  0  0  0  0  0  0  0  0
    7.1447   -8.8300    0.0000 H   0  0  0  0  0  0  0  0  0  0  0  0
    8.0713   -9.3650    0.0000 H   0  0  0  0  0  0  0  0  0  0  0  0
    7.8592  -11.3825    0.0000 H   0  0  0  0  0  0  0  0  0  0  0  0
    8.7858  -10.8475    0.0000 H   0  0  0  0  0  0  0  0  0  0  0  0
    8.5737   -8.8300    0.0000 H   0  0  0  0  0  0  0  0  0  0  0  0
    9.5004   -9.3650    0.0000 H   0  0  0  0  0  0  0  0  0  0  0  0
    9.2881  -11.3825    0.0000 H   0  0  0  0  0  0  0  0  0  0  0  0
   10.2147  -10.8475    0.0000 H   0  0  0  0  0  0  0  0  0  0  0  0
   10.0026   -8.8300    0.0000 H   0  0  0  0  0  0  0  0  0  0  0  0
   10.9292   -9.3650    0.0000 H   0  0  0  0  0  0  0  0  0  0  0  0
   10.7171  -11.3825    0.0000 H   0  0  0  0  0  0  0  0  0  0  0  0
   11.6438  -10.8475    0.0000 H   0  0  0  0  0  0  0  0  0  0  0  0
   11.4315   -8.8300    0.0000 H   0  0  0  0  0  0  0  0  0  0  0  0
   12.3581   -9.3650    0.0000 H   0  0  0  0  0  0  0  0  0  0  0  0
   12.1460  -11.3825    0.0000 H   0  0  0  0  0  0  0  0  0  0  0  0
   13.0726  -10.8475    0.0000 H   0  0  0  0  0  0  0  0  0  0  0  0
   12.8605   -8.8300    0.0000 H   0  0  0  0  0  0  0  0  0  0  0  0
   13.7872   -9.3650    0.0000 H   0  0  0  0  0  0  0  0  0  0  0  0
   13.5749  -11.3825    0.0000 H   0  0  0  0  0  0  0  0  0  0  0  0
   14.5015  -10.8475    0.0000 H   0  0  0  0  0  0  0  0  0  0  0  0
   14.2894   -8.8300    0.0000 H   0  0  0  0  0  0  0  0  0  0  0  0
   15.2160   -9.3650    0.0000 H   0  0  0  0  0  0  0  0  0  0  0  0
   15.0039  -11.3825    0.0000 H   0  0  0  0  0  0  0  0  0  0  0  0
   15.9305  -10.8475    0.0000 H   0  0  0  0  0  0  0  0  0  0  0  0
   15.7184   -8.8300    0.0000 H   0  0  0  0  0  0  0  0  0  0  0  0
   16.6451   -9.3650    0.0000 H   0  0  0  0  0  0  0  0  0  0  0  0
   17.1473   -8.8680    0.0000 H   0  0  0  0  0  0  0  0  0  0  0  0
   18.7555   -9.7965    0.0000 H   0  0  0  0  0  0  0  0  0  0  0  0
   18.7555  -11.6535    0.0000 H   0  0  0  0  0  0  0  0  0  0  0  0
   17.1473  -12.5820    0.0000 H   0  0  0  0  0  0  0  0  0  0  0  0
   15.5391  -11.6535    0.0000 H   0  0  0  0  0  0  0  0  0  0  0  0
  1  2  1  0  0  0  0
  1 23  1  0  0  0  0
  1 24  1  0  0  0  0
  1 25  1  0  0  0  0
  2  3  1  0  0  0  0
  2 26  1  0  0  0  0
  2 27  1  0  0  0  0
  3  4  1  0  0  0  0
  3 28  1  0  0  0  0
  3 29  1  0  0  0  0
  4  5  1  0  0  0  0
  4 30  1  0  0  0  0
  4 31  1  0  0  0  0
  5  6  1  0  0  0  0
  5 32  1  0  0  0  0
  5 33  1  0  0  0  0
  6  7  1  0  0  0  0
  6 34  1  0  0  0  0
  6 35  1  0  0  0  0
  7  8  1  0  0  0  0
  7 36  1  0  0  0  0
  7 37  1  0  0  0  0
  8  9  1  0  0  0  0
  8 38  1  0  0  0  0
  8 39  1  0  0  0  0
  9 10  1  0  0  0  0
  9 40  1  0  0  0  0
  9 41  1  0  0  0  0
 10 11  1  0  0  0  0
 10 42  1  0  0  0  0
 10 43  1  0  0  0  0
 11 12  1  0  0  0  0
 11 44  1  0  0  0  0
 11 45  1  0  0  0  0
 12 13  1  0  0  0  0
 12 46  1  0  0  0  0
 12 47  1  0  0  0  0
 13 14  1  0  0  0  0
 13 48  1  0  0  0  0
 13 49  1  0  0  0  0
 14 15  1  0  0  0  0
 14 50  1  0  0  0  0
 14 51  1  0  0  0  0
 15 16  1  0  0  0  0
 15 52  1  0  0  0  0
 15 53  1  0  0  0  0
 16 17  1  0  0  0  0
 16 54  1  0  0  0  0
 16 55  1  0  0  0  0
 17 18  2  0  0  0  0
 17 22  1  0  0  0  0
 18 19  1  0  0  0  0
 18 56  1  0  0  0  0
 19 20  2  0  0  0  0
 19 57  1  0  0  0  0
 20 21  1  0  0  0  0
 20 58  1  0  0  0  0
 21 22  2  0  0  0  0
 21 59  1  0  0  0  0
 22 60  1  0  0  0  0
M  CHG  1  17   1
M  END
>  <DRUGBANK_ID>
DB11073

>  <SECONDARY_ACCESSION_NUMBERS>
DB05748

>  <COMMON_NAME>
Cetylpyridinium

>  <CAS_NUMBER>
7773-52-6

>  <UNII>
CUB7JI0JV3

>  <SYNONYMS>
1-hexadecylpyridinium

$$$$
