
 OpenBabel10282417072D

 45 47  0  0  0  0  0  0  0  0999 V2000
    2.8851    0.1368    0.0000 Cl  0  0  0  0  0  0  0  0  0  0  0  0
   -0.0272   -0.6682    0.0000 S   0  0  2  0  0  0  0  0  0  0  0  0
    0.6872   -1.0807    0.0000 O   0  0  0  0  0  0  0  0  0  0  0  0
   -1.4561    1.8067    0.0000 O   0  0  0  0  0  0  0  0  0  0  0  0
   -0.0272    1.8067    0.0000 N   0  0  0  0  0  0  0  0  0  0  0  0
   -0.7416   -1.0807    0.0000 C   0  0  0  0  0  0  0  0  0  0  0  0
   -0.7416   -1.9057    0.0000 C   0  0  0  0  0  0  0  0  0  0  0  0
   -1.4561   -0.6682    0.0000 C   0  0  0  0  0  0  0  0  0  0  0  0
   -1.4561   -2.3182    0.0000 C   0  0  0  0  0  0  0  0  0  0  0  0
   -2.1706   -1.0807    0.0000 C   0  0  0  0  0  0  0  0  0  0  0  0
   -2.1706   -1.9057    0.0000 C   0  0  0  0  0  0  0  0  0  0  0  0
   -0.0272    0.1567    0.0000 C   0  0  0  0  0  0  0  0  0  0  0  0
   -0.7416    0.5692    0.0000 C   0  0  0  0  0  0  0  0  0  0  0  0
    0.6872    0.5692    0.0000 C   0  0  0  0  0  0  0  0  0  0  0  0
   -1.4561    0.1567    0.0000 C   0  0  0  0  0  0  0  0  0  0  0  0
    0.6872    1.3942    0.0000 C   0  0  0  0  0  0  0  0  0  0  0  0
   -0.7416    1.3942    0.0000 C   0  0  0  0  0  0  0  0  0  0  0  0
   -2.1706    0.5692    0.0000 C   0  0  0  0  0  0  0  0  0  0  0  0
    1.4247    0.1281    0.0000 C   0  0  0  0  0  0  0  0  0  0  0  0
    1.4247    1.8353    0.0000 C   0  0  0  0  0  0  0  0  0  0  0  0
    2.1722    0.5520    0.0000 C   0  0  0  0  0  0  0  0  0  0  0  0
   -2.8851    0.1567    0.0000 C   0  0  0  0  0  0  0  0  0  0  0  0
    2.1722    1.4114    0.0000 C   0  0  0  0  0  0  0  0  0  0  0  0
   -0.0272    2.3182    0.0000 H   0  0  0  0  0  0  0  0  0  0  0  0
   -1.6682   -1.6157    0.0000 H   0  0  0  0  0  0  0  0  0  0  0  0
    0.1850   -2.4407    0.0000 H   0  0  0  0  0  0  0  0  0  0  0  0
   -0.7416   -2.9757    0.0000 H   0  0  0  0  0  0  0  0  0  0  0  0
   -1.4561    0.4018    0.0000 H   0  0  0  0  0  0  0  0  0  0  0  0
   -2.3827   -0.1332    0.0000 H   0  0  0  0  0  0  0  0  0  0  0  0
   -1.4561   -3.3882    0.0000 H   0  0  0  0  0  0  0  0  0  0  0  0
   -2.3827   -2.8532    0.0000 H   0  0  0  0  0  0  0  0  0  0  0  0
   -3.0972   -0.5457    0.0000 H   0  0  0  0  0  0  0  0  0  0  0  0
   -3.0972   -1.6157    0.0000 H   0  0  0  0  0  0  0  0  0  0  0  0
   -3.0972   -2.4407    0.0000 H   0  0  0  0  0  0  0  0  0  0  0  0
   -3.0972   -1.3707    0.0000 H   0  0  0  0  0  0  0  0  0  0  0  0
   -1.4561   -0.9133    0.0000 H   0  0  0  0  0  0  0  0  0  0  0  0
   -2.3827   -0.3783    0.0000 H   0  0  0  0  0  0  0  0  0  0  0  0
   -2.1706    1.6392    0.0000 H   0  0  0  0  0  0  0  0  0  0  0  0
   -3.0972    1.1042    0.0000 H   0  0  0  0  0  0  0  0  0  0  0  0
    1.4128   -0.9038    0.0000 H   0  0  0  0  0  0  0  0  0  0  0  0
    1.4128    2.8672    0.0000 H   0  0  0  0  0  0  0  0  0  0  0  0
   -3.8117    0.6917    0.0000 H   0  0  0  0  0  0  0  0  0  0  0  0
   -2.8851   -0.9133    0.0000 H   0  0  0  0  0  0  0  0  0  0  0  0
   -3.8118   -0.3783    0.0000 H   0  0  0  0  0  0  0  0  0  0  0  0
    3.0639    1.9309    0.0000 H   0  0  0  0  0  0  0  0  0  0  0  0
  1 21  1  0  0  0  0
  2  3  2  6  0  0  0
  2  6  1  0  0  0  0
  2 12  1  0  0  0  0
  4 17  2  0  0  0  0
  5 16  1  0  0  0  0
  5 17  1  0  0  0  0
  5 24  1  0  0  0  0
  6  7  1  0  0  0  0
  6  8  1  0  0  0  0
  6 25  1  0  0  0  0
  7  9  1  0  0  0  0
  7 26  1  0  0  0  0
  7 27  1  0  0  0  0
  8 10  1  0  0  0  0
  8 28  1  0  0  0  0
  8 29  1  0  0  0  0
  9 11  1  0  0  0  0
  9 30  1  0  0  0  0
  9 31  1  0  0  0  0
 10 11  1  0  0  0  0
 10 32  1  0  0  0  0
 10 33  1  0  0  0  0
 11 34  1  0  0  0  0
 11 35  1  0  0  0  0
 12 13  2  0  0  0  0
 12 14  1  0  0  0  0
 13 15  1  0  0  0  0
 13 17  1  0  0  0  0
 14 16  2  0  0  0  0
 14 19  1  0  0  0  0
 15 18  1  0  0  0  0
 15 36  1  0  0  0  0
 15 37  1  0  0  0  0
 16 20  1  0  0  0  0
 18 22  1  0  0  0  0
 18 38  1  0  0  0  0
 18 39  1  0  0  0  0
 19 21  2  0  0  0  0
 19 40  1  0  0  0  0
 20 23  2  0  0  0  0
 20 41  1  0  0  0  0
 21 23  1  0  0  0  0
 22 42  1  0  0  0  0
 22 43  1  0  0  0  0
 22 44  1  0  0  0  0
 23 45  1  0  0  0  0
M  END
>  <DRUGBANK_ID>
DB07869

>  <COMMON_NAME>
6-Chloro-4-[(R)-cyclohexylsulfinyl]-3-propyl-2(1H)-quinolinone

$$$$
