
 OpenBabel10282417072D

 75 77  0  0  1  0  0  0  0  0999 V2000
    4.0122   -6.8577    0.0000 C   0  0  0  0  0  0  0  0  0  0  0  0
    4.7267   -7.2702    0.0000 C   0  0  0  0  0  0  0  0  0  0  0  0
    5.4411   -6.8577    0.0000 O   0  0  0  0  0  0  0  0  0  0  0  0
    6.1556   -7.2702    0.0000 C   0  0  0  0  0  0  0  0  0  0  0  0
    6.1556   -8.0952    0.0000 O   0  0  0  0  0  0  0  0  0  0  0  0
    6.8701   -6.8577    0.0000 O   0  0  0  0  0  0  0  0  0  0  0  0
    7.5846   -7.2702    0.0000 C   0  0  0  0  0  0  0  0  0  0  0  0
    8.2990   -6.8577    0.0000 C   0  0  2  0  0  0  0  0  0  0  0  0
    8.2990   -6.0327    0.0000 C   0  0  2  0  0  0  0  0  0  0  0  0
    9.0135   -5.6202    0.0000 C   0  0  1  0  0  0  0  0  0  0  0  0
    9.7280   -6.0327    0.0000 C   0  0  2  0  0  0  0  0  0  0  0  0
    9.7280   -6.8577    0.0000 C   0  0  1  0  0  0  0  0  0  0  0  0
    9.0135   -7.2702    0.0000 O   0  0  0  0  0  0  0  0  0  0  0  0
   10.4424   -7.2702    0.0000 O   0  0  0  0  0  0  0  0  0  0  0  0
   10.4424   -8.0952    0.0000 C   0  0  0  0  0  0  0  0  0  0  0  0
   11.1099   -8.5801    0.0000 C   0  0  0  0  0  0  0  0  0  0  0  0
   10.8549   -9.3647    0.0000 C   0  0  0  0  0  0  0  0  0  0  0  0
   10.0299   -9.3647    0.0000 N   0  0  0  0  0  0  0  0  0  0  0  0
    9.7750   -8.5801    0.0000 N   0  0  0  0  0  0  0  0  0  0  0  0
    9.5450  -10.0321    0.0000 C   0  0  0  0  0  0  0  0  0  0  0  0
    8.7245   -9.9459    0.0000 C   0  0  0  0  0  0  0  0  0  0  0  0
    9.8806  -10.7858    0.0000 C   0  0  0  0  0  0  0  0  0  0  0  0
   11.3399  -10.0321    0.0000 C   0  0  0  0  0  0  0  0  0  0  0  0
   11.8945   -8.3251    0.0000 C   0  0  0  0  0  0  0  0  0  0  0  0
   12.5076   -8.8772    0.0000 C   0  0  0  0  0  0  0  0  0  0  0  0
   13.2922   -8.6222    0.0000 C   0  0  0  0  0  0  0  0  0  0  0  0
   13.9053   -9.1743    0.0000 C   0  0  0  0  0  0  0  0  0  0  0  0
   13.7338   -9.9812    0.0000 C   0  0  0  0  0  0  0  0  0  0  0  0
   12.9492  -10.2362    0.0000 C   0  0  0  0  0  0  0  0  0  0  0  0
   12.3361   -9.6841    0.0000 C   0  0  0  0  0  0  0  0  0  0  0  0
   14.3469  -10.5333    0.0000 O   0  0  0  0  0  0  0  0  0  0  0  0
   14.1754  -11.3402    0.0000 C   0  0  0  0  0  0  0  0  0  0  0  0
   14.7885  -11.8923    0.0000 C   0  0  0  0  0  0  0  0  0  0  0  0
   13.3907  -11.5952    0.0000 C   0  0  0  0  0  0  0  0  0  0  0  0
   10.4424   -5.6202    0.0000 O   0  0  0  0  0  0  0  0  0  0  0  0
    9.0135   -4.7952    0.0000 O   0  0  0  0  0  0  0  0  0  0  0  0
    7.5846   -5.6202    0.0000 O   0  0  0  0  0  0  0  0  0  0  0  0
    4.0122   -5.7877    0.0000 H   0  0  0  0  0  0  0  0  0  0  0  0
    3.0856   -7.3927    0.0000 H   0  0  0  0  0  0  0  0  0  0  0  0
    3.0855   -6.3227    0.0000 H   0  0  0  0  0  0  0  0  0  0  0  0
    4.7267   -8.3402    0.0000 H   0  0  0  0  0  0  0  0  0  0  0  0
    5.6534   -7.8052    0.0000 H   0  0  0  0  0  0  0  0  0  0  0  0
    7.5846   -8.3402    0.0000 H   0  0  0  0  0  0  0  0  0  0  0  0
    8.5113   -7.8052    0.0000 H   0  0  0  0  0  0  0  0  0  0  0  0
    7.3723   -6.3227    0.0000 H   0  0  0  0  0  0  0  0  0  0  0  0
    7.3723   -6.5677    0.0000 H   0  0  0  0  0  0  0  0  0  0  0  0
    8.0869   -5.0852    0.0000 H   0  0  0  0  0  0  0  0  0  0  0  0
    9.7280   -4.9627    0.0000 H   0  0  0  0  0  0  0  0  0  0  0  0
   10.6547   -6.3227    0.0000 H   0  0  0  0  0  0  0  0  0  0  0  0
    8.9161  -10.8978    0.0000 H   0  0  0  0  0  0  0  0  0  0  0  0
    8.2892   -8.9684    0.0000 H   0  0  0  0  0  0  0  0  0  0  0  0
    8.0956  -10.8116    0.0000 H   0  0  0  0  0  0  0  0  0  0  0  0
    7.6604   -9.8341    0.0000 H   0  0  0  0  0  0  0  0  0  0  0  0
    9.2517  -11.6515    0.0000 H   0  0  0  0  0  0  0  0  0  0  0  0
   10.9447  -10.8976    0.0000 H   0  0  0  0  0  0  0  0  0  0  0  0
   10.3158  -11.7633    0.0000 H   0  0  0  0  0  0  0  0  0  0  0  0
   10.9048  -11.0096    0.0000 H   0  0  0  0  0  0  0  0  0  0  0  0
   12.4040   -9.9201    0.0000 H   0  0  0  0  0  0  0  0  0  0  0  0
   11.9689  -10.8977    0.0000 H   0  0  0  0  0  0  0  0  0  0  0  0
   12.1170   -7.2785    0.0000 H   0  0  0  0  0  0  0  0  0  0  0  0
   12.9121   -7.9945    0.0000 H   0  0  0  0  0  0  0  0  0  0  0  0
   13.5068   -7.6127    0.0000 H   0  0  0  0  0  0  0  0  0  0  0  0
   14.8868   -8.8554    0.0000 H   0  0  0  0  0  0  0  0  0  0  0  0
   12.7346  -11.2457    0.0000 H   0  0  0  0  0  0  0  0  0  0  0  0
   11.3546  -10.0030    0.0000 H   0  0  0  0  0  0  0  0  0  0  0  0
   13.9529  -12.3868    0.0000 H   0  0  0  0  0  0  0  0  0  0  0  0
   14.5660  -12.9389    0.0000 H   0  0  0  0  0  0  0  0  0  0  0  0
   15.8061  -11.5617    0.0000 H   0  0  0  0  0  0  0  0  0  0  0  0
   15.5836  -12.6083    0.0000 H   0  0  0  0  0  0  0  0  0  0  0  0
   12.5955  -10.8793    0.0000 H   0  0  0  0  0  0  0  0  0  0  0  0
   13.1683  -12.6418    0.0000 H   0  0  0  0  0  0  0  0  0  0  0  0
   12.3731  -11.9259    0.0000 H   0  0  0  0  0  0  0  0  0  0  0  0
   11.2825   -6.1052    0.0000 H   0  0  0  0  0  0  0  0  0  0  0  0
    9.8535   -4.3102    0.0000 H   0  0  0  0  0  0  0  0  0  0  0  0
    7.5846   -4.6502    0.0000 H   0  0  0  0  0  0  0  0  0  0  0  0
  1  2  1  0  0  0  0
  1 38  1  0  0  0  0
  1 39  1  0  0  0  0
  1 40  1  0  0  0  0
  2  3  1  0  0  0  0
  2 41  1  0  0  0  0
  2 42  1  0  0  0  0
  3  4  1  0  0  0  0
  4  5  2  0  0  0  0
  4  6  1  0  0  0  0
  6  7  1  0  0  0  0
  7 43  1  0  0  0  0
  7 44  1  0  0  0  0
  8  7  1  0  0  0  0
  8  9  1  0  0  0  0
  8 13  1  0  0  0  0
  8 45  1  1  0  0  0
  9 10  1  0  0  0  0
  9 37  1  0  0  0  0
  9 46  1  6  0  0  0
 10 11  1  0  0  0  0
 10 36  1  0  0  0  0
 10 47  1  1  0  0  0
 11 12  1  0  0  0  0
 11 35  1  0  0  0  0
 11 48  1  6  0  0  0
 12 13  1  0  0  0  0
 12 14  1  0  0  0  0
 12 49  1  1  0  0  0
 14 15  1  0  0  0  0
 15 16  1  0  0  0  0
 15 19  2  0  0  0  0
 16 17  2  0  0  0  0
 16 24  1  0  0  0  0
 17 18  1  0  0  0  0
 17 23  1  0  0  0  0
 18 19  1  0  0  0  0
 18 20  1  0  0  0  0
 20 21  1  0  0  0  0
 20 22  1  0  0  0  0
 20 50  1  0  0  0  0
 21 51  1  0  0  0  0
 21 52  1  0  0  0  0
 21 53  1  0  0  0  0
 22 54  1  0  0  0  0
 22 55  1  0  0  0  0
 22 56  1  0  0  0  0
 23 57  1  0  0  0  0
 23 58  1  0  0  0  0
 23 59  1  0  0  0  0
 24 25  1  0  0  0  0
 24 60  1  0  0  0  0
 24 61  1  0  0  0  0
 25 26  2  0  0  0  0
 25 30  1  0  0  0  0
 26 27  1  0  0  0  0
 26 62  1  0  0  0  0
 27 28  2  0  0  0  0
 27 63  1  0  0  0  0
 28 29  1  0  0  0  0
 28 31  1  0  0  0  0
 29 30  2  0  0  0  0
 29 64  1  0  0  0  0
 30 65  1  0  0  0  0
 31 32  1  0  0  0  0
 32 33  1  0  0  0  0
 32 34  1  0  0  0  0
 32 66  1  0  0  0  0
 33 67  1  0  0  0  0
 33 68  1  0  0  0  0
 33 69  1  0  0  0  0
 34 70  1  0  0  0  0
 34 71  1  0  0  0  0
 34 72  1  0  0  0  0
 35 73  1  0  0  0  0
 36 74  1  0  0  0  0
 37 75  1  0  0  0  0
M  END
>  <DRUGBANK_ID>
DB12935

>  <COMMON_NAME>
Remogliflozin etabonate

>  <CAS_NUMBER>
442201-24-3

>  <UNII>
TR0QT6QSUL

>  <SYNONYMS>
Remogliflozin etabonate

$$$$
