
 OpenBabel10282417072D

 75 80  0  0  0  0  0  0  0  0999 V2000
   -1.7078    6.4180    0.0000 C   0  0  0  0  0  0  0  0  0  0  0  0
   -1.4528    5.6334    0.0000 N   0  0  0  0  0  0  0  0  0  0  0  0
   -0.6459    5.4618    0.0000 C   0  0  0  0  0  0  0  0  0  0  0  0
   -0.3909    4.6772    0.0000 C   0  0  0  0  0  0  0  0  0  0  0  0
   -0.9429    4.0641    0.0000 N   0  0  0  0  0  0  0  0  0  0  0  0
   -1.7499    4.2357    0.0000 C   0  0  0  0  0  0  0  0  0  0  0  0
   -2.0049    5.0203    0.0000 C   0  0  0  0  0  0  0  0  0  0  0  0
   -0.6880    3.2795    0.0000 C   0  0  0  0  0  0  0  0  0  0  0  0
    0.1190    3.1080    0.0000 C   0  0  0  0  0  0  0  0  0  0  0  0
    0.3739    2.3234    0.0000 C   0  0  0  0  0  0  0  0  0  0  0  0
   -0.1781    1.7103    0.0000 C   0  0  0  0  0  0  0  0  0  0  0  0
   -0.9851    1.8818    0.0000 C   0  0  0  0  0  0  0  0  0  0  0  0
   -1.2400    2.6664    0.0000 C   0  0  0  0  0  0  0  0  0  0  0  0
   -1.5371    1.2687    0.0000 N   0  0  0  0  0  0  0  0  0  0  0  0
   -2.3441    1.4402    0.0000 C   0  0  0  0  0  0  0  0  0  0  0  0
   -2.8961    0.8271    0.0000 C   0  0  0  0  0  0  0  0  0  0  0  0
   -3.7031    0.9987    0.0000 C   0  0  0  0  0  0  0  0  0  0  0  0
   -3.9580    1.7833    0.0000 O   0  0  0  0  0  0  0  0  0  0  0  0
   -3.4060    2.3964    0.0000 C   0  0  0  0  0  0  0  0  0  0  0  0
   -2.5990    2.2248    0.0000 C   0  0  0  0  0  0  0  0  0  0  0  0
    0.0768    0.9256    0.0000 C   0  0  0  0  0  0  0  0  0  0  0  0
   -0.4752    0.3126    0.0000 O   0  0  0  0  0  0  0  0  0  0  0  0
    0.8838    0.7541    0.0000 N   0  0  0  0  0  0  0  0  0  0  0  0
    1.1387   -0.0305    0.0000 C   0  0  0  0  0  0  0  0  0  0  0  0
    1.9233   -0.2854    0.0000 C   0  0  0  0  0  0  0  0  0  0  0  0
    2.6378    0.1271    0.0000 C   0  0  0  0  0  0  0  0  0  0  0  0
    3.3523   -0.2854    0.0000 C   0  0  0  0  0  0  0  0  0  0  0  0
    3.3523   -1.1104    0.0000 C   0  0  0  0  0  0  0  0  0  0  0  0
    2.6378   -1.5229    0.0000 C   0  0  0  0  0  0  0  0  0  0  0  0
    1.9233   -1.1104    0.0000 C   0  0  0  0  0  0  0  0  0  0  0  0
    1.1387   -1.3654    0.0000 N   0  0  0  0  0  0  0  0  0  0  0  0
    0.6538   -0.6979    0.0000 N   0  0  0  0  0  0  0  0  0  0  0  0
    4.0668    0.1271    0.0000 C   0  0  0  0  0  0  0  0  0  0  0  0
    4.7812   -0.2854    0.0000 C   0  0  0  0  0  0  0  0  0  0  0  0
    5.4957    0.1271    0.0000 C   0  0  0  0  0  0  0  0  0  0  0  0
    6.2102   -0.2854    0.0000 C   0  0  0  0  0  0  0  0  0  0  0  0
    6.2102   -1.1104    0.0000 C   0  0  0  0  0  0  0  0  0  0  0  0
    5.4957   -1.5229    0.0000 C   0  0  0  0  0  0  0  0  0  0  0  0
    4.7812   -1.1104    0.0000 C   0  0  0  0  0  0  0  0  0  0  0  0
    5.4957   -2.3479    0.0000 F   0  0  0  0  0  0  0  0  0  0  0  0
    6.9246    0.1271    0.0000 F   0  0  0  0  0  0  0  0  0  0  0  0
   -0.9919    7.2132    0.0000 H   0  0  0  0  0  0  0  0  0  0  0  0
   -2.7544    6.6404    0.0000 H   0  0  0  0  0  0  0  0  0  0  0  0
   -2.0385    7.4356    0.0000 H   0  0  0  0  0  0  0  0  0  0  0  0
    0.0701    6.2570    0.0000 H   0  0  0  0  0  0  0  0  0  0  0  0
    0.4007    5.2394    0.0000 H   0  0  0  0  0  0  0  0  0  0  0  0
    0.6557    4.4548    0.0000 H   0  0  0  0  0  0  0  0  0  0  0  0
   -0.0602    3.6596    0.0000 H   0  0  0  0  0  0  0  0  0  0  0  0
   -2.4659    3.4405    0.0000 H   0  0  0  0  0  0  0  0  0  0  0  0
   -2.7965    4.4581    0.0000 H   0  0  0  0  0  0  0  0  0  0  0  0
   -3.0515    5.2428    0.0000 H   0  0  0  0  0  0  0  0  0  0  0  0
   -2.3355    6.0379    0.0000 H   0  0  0  0  0  0  0  0  0  0  0  0
    0.8095    3.8749    0.0000 H   0  0  0  0  0  0  0  0  0  0  0  0
    1.3833    2.1088    0.0000 H   0  0  0  0  0  0  0  0  0  0  0  0
   -2.2494    2.8810    0.0000 H   0  0  0  0  0  0  0  0  0  0  0  0
   -1.2328    0.3324    0.0000 H   0  0  0  0  0  0  0  0  0  0  0  0
   -3.3907    1.6627    0.0000 H   0  0  0  0  0  0  0  0  0  0  0  0
   -2.5655   -0.1905    0.0000 H   0  0  0  0  0  0  0  0  0  0  0  0
   -3.6121    0.0320    0.0000 H   0  0  0  0  0  0  0  0  0  0  0  0
   -4.4191    0.2036    0.0000 H   0  0  0  0  0  0  0  0  0  0  0  0
   -4.7497    1.2212    0.0000 H   0  0  0  0  0  0  0  0  0  0  0  0
   -3.7366    3.4140    0.0000 H   0  0  0  0  0  0  0  0  0  0  0  0
   -2.6900    3.1915    0.0000 H   0  0  0  0  0  0  0  0  0  0  0  0
   -1.8830    3.0199    0.0000 H   0  0  0  0  0  0  0  0  0  0  0  0
   -1.5524    2.0023    0.0000 H   0  0  0  0  0  0  0  0  0  0  0  0
    1.5426    1.4857    0.0000 H   0  0  0  0  0  0  0  0  0  0  0  0
    2.6378    1.1591    0.0000 H   0  0  0  0  0  0  0  0  0  0  0  0
    4.2460   -1.6264    0.0000 H   0  0  0  0  0  0  0  0  0  0  0  0
    2.6378   -2.5549    0.0000 H   0  0  0  0  0  0  0  0  0  0  0  0
    0.8345   -2.3017    0.0000 H   0  0  0  0  0  0  0  0  0  0  0  0
    4.0668    1.1971    0.0000 H   0  0  0  0  0  0  0  0  0  0  0  0
    4.9935    0.6621    0.0000 H   0  0  0  0  0  0  0  0  0  0  0  0
    5.4957    1.1591    0.0000 H   0  0  0  0  0  0  0  0  0  0  0  0
    7.1039   -1.6264    0.0000 H   0  0  0  0  0  0  0  0  0  0  0  0
    3.8875   -1.6264    0.0000 H   0  0  0  0  0  0  0  0  0  0  0  0
  1  2  1  0  0  0  0
  1 42  1  0  0  0  0
  1 43  1  0  0  0  0
  1 44  1  0  0  0  0
  2  3  1  0  0  0  0
  2  7  1  0  0  0  0
  3  4  1  0  0  0  0
  3 45  1  0  0  0  0
  3 46  1  0  0  0  0
  4  5  1  0  0  0  0
  4 47  1  0  0  0  0
  4 48  1  0  0  0  0
  5  6  1  0  0  0  0
  5  8  1  0  0  0  0
  6  7  1  0  0  0  0
  6 49  1  0  0  0  0
  6 50  1  0  0  0  0
  7 51  1  0  0  0  0
  7 52  1  0  0  0  0
  8  9  2  0  0  0  0
  8 13  1  0  0  0  0
  9 10  1  0  0  0  0
  9 53  1  0  0  0  0
 10 11  2  0  0  0  0
 10 54  1  0  0  0  0
 11 12  1  0  0  0  0
 11 21  1  0  0  0  0
 12 13  2  0  0  0  0
 12 14  1  0  0  0  0
 13 55  1  0  0  0  0
 14 15  1  0  0  0  0
 14 56  1  0  0  0  0
 15 16  1  0  0  0  0
 15 20  1  0  0  0  0
 15 57  1  0  0  0  0
 16 17  1  0  0  0  0
 16 58  1  0  0  0  0
 16 59  1  0  0  0  0
 17 18  1  0  0  0  0
 17 60  1  0  0  0  0
 17 61  1  0  0  0  0
 18 19  1  0  0  0  0
 19 20  1  0  0  0  0
 19 62  1  0  0  0  0
 19 63  1  0  0  0  0
 20 64  1  0  0  0  0
 20 65  1  0  0  0  0
 21 22  2  0  0  0  0
 21 23  1  0  0  0  0
 23 24  1  0  0  0  0
 23 66  1  0  0  0  0
 24 25  1  0  0  0  0
 24 32  2  0  0  0  0
 25 26  2  0  0  0  0
 25 30  1  0  0  0  0
 26 27  1  0  0  0  0
 26 67  1  0  0  0  0
 27 28  2  0  0  0  0
 27 33  1  0  0  0  0
 28 29  1  0  0  0  0
 28 68  1  0  0  0  0
 29 30  2  0  0  0  0
 29 69  1  0  0  0  0
 30 31  1  0  0  0  0
 31 32  1  0  0  0  0
 31 70  1  0  0  0  0
 33 34  1  0  0  0  0
 33 71  1  0  0  0  0
 33 72  1  0  0  0  0
 34 35  2  0  0  0  0
 34 39  1  0  0  0  0
 35 36  1  0  0  0  0
 35 73  1  0  0  0  0
 36 37  2  0  0  0  0
 36 41  1  0  0  0  0
 37 38  1  0  0  0  0
 37 74  1  0  0  0  0
 38 39  2  0  0  0  0
 38 40  1  0  0  0  0
 39 75  1  0  0  0  0
M  END
>  <DRUGBANK_ID>
DB11986

>  <COMMON_NAME>
Entrectinib

>  <CAS_NUMBER>
1108743-60-7

>  <UNII>
L5ORF0AN1I

>  <SYNONYMS>
Entrectinib; N-[5-[(3,5-difluorophenyl)methyl]-1H-indazol-3-yl]-4-(4-methylpiperazin-1-yl)-2-(oxan-4-ylamino)benzamide

$$$$
