
 OpenBabel10282417072D

152157  0  0  0  0  0  0  0  0999 V2000
   -3.5597    0.2704    0.0000 C   0  0  0  0  0  0  0  0  0  0  0  0
    2.5113   -2.5113    0.0000 C   0  0  0  0  0  0  0  0  0  0  0  0
   -7.0008   -3.2710    0.0000 C   0  0  0  0  0  0  0  0  0  0  0  0
   -4.1431   -3.2710    0.0000 C   0  0  0  0  0  0  0  0  0  0  0  0
   -0.5468   -2.1453    0.0000 C   0  0  0  0  0  0  0  0  0  0  0  0
   -0.1738   -4.9785    0.0000 C   0  0  0  0  0  0  0  0  0  0  0  0
   -4.1431    4.9785    0.0000 C   0  0  0  0  0  0  0  0  0  0  0  0
    7.0008   -2.5928    0.0000 C   0  0  0  0  0  0  0  0  0  0  0  0
   -6.2864   -3.6835    0.0000 C   0  0  0  0  0  0  0  0  0  0  0  0
   -0.8625   -2.9074    0.0000 C   0  0  0  0  0  0  0  0  0  0  0  0
   -6.2864    4.5660    0.0000 C   0  0  0  0  0  0  0  0  0  0  0  0
    6.6851   -3.3549    0.0000 C   0  0  0  0  0  0  0  0  0  0  0  0
   -7.0008    2.5037    0.0000 C   0  0  0  0  0  0  0  0  0  0  0  0
    4.7336   -4.3324    0.0000 C   0  0  0  0  0  0  0  0  0  0  0  0
   -5.0129   -0.2798    0.0000 C   0  0  0  0  0  0  0  0  0  0  0  0
    1.3081   -1.5280    0.0000 C   0  0  0  0  0  0  0  0  0  0  0  0
   -2.1796   -0.6528    0.0000 C   0  0  0  0  0  0  0  0  0  0  0  0
   -1.5251   -1.1550    0.0000 C   0  0  0  0  0  0  0  0  0  0  0  0
   -3.4286    2.0911    0.0000 C   0  0  0  0  0  0  0  0  0  0  0  0
    3.8584   -0.8447    0.0000 C   0  0  0  0  0  0  0  0  0  0  0  0
   -4.9052    0.5380    0.0000 C   0  0  0  0  0  0  0  0  0  0  0  0
    2.0702   -1.2123    0.0000 C   0  0  0  0  0  0  0  0  0  0  0  0
   -3.4286    1.2662    0.0000 C   0  0  0  0  0  0  0  0  0  0  0  0
    3.0404   -0.9524    0.0000 C   0  0  0  0  0  0  0  0  0  0  0  0
   -4.3584   -0.7820    0.0000 C   0  0  0  0  0  0  0  0  0  0  0  0
    0.6536   -1.0258    0.0000 C   0  0  0  0  0  0  0  0  0  0  0  0
   -5.5719    0.8537    0.0000 C   0  0  0  0  0  0  0  0  0  0  0  0
    2.9113   -3.1312    0.0000 C   0  0  0  0  0  0  0  0  0  0  0  0
   -6.2864   -1.2086    0.0000 C   0  0  0  0  0  0  0  0  0  0  0  0
   -4.8575   -1.2086    0.0000 C   0  0  0  0  0  0  0  0  0  0  0  0
    1.5911   -2.5844    0.0000 C   0  0  0  0  0  0  0  0  0  0  0  0
    1.7776   -4.0010    0.0000 C   0  0  0  0  0  0  0  0  0  0  0  0
   -4.1431    3.3286    0.0000 C   0  0  0  0  0  0  0  0  0  0  0  0
    5.1785   -1.3915    0.0000 C   0  0  0  0  0  0  0  0  0  0  0  0
   -5.5719   -0.7961    0.0000 C   0  0  0  0  0  0  0  0  0  0  0  0
    2.0933   -3.2388    0.0000 C   0  0  0  0  0  0  0  0  0  0  0  0
   -4.1431    2.5037    0.0000 C   0  0  0  0  0  0  0  0  0  0  0  0
    4.3606   -1.4992    0.0000 C   0  0  0  0  0  0  0  0  0  0  0  0
   -4.8575    1.2662    0.0000 C   0  0  3  0  0  0  0  0  0  0  0  0
    3.2270   -2.3690    0.0000 C   0  0  3  0  0  0  0  0  0  0  0  0
   -6.2864   -2.0336    0.0000 C   0  0  0  0  0  0  0  0  0  0  0  0
   -4.8575   -2.0336    0.0000 C   0  0  0  0  0  0  0  0  0  0  0  0
    0.7732   -2.6920    0.0000 C   0  0  0  0  0  0  0  0  0  0  0  0
    0.9597   -4.1087    0.0000 C   0  0  0  0  0  0  0  0  0  0  0  0
   -4.8575    3.7411    0.0000 C   0  0  0  0  0  0  0  0  0  0  0  0
    5.6807   -2.0459    0.0000 C   0  0  0  0  0  0  0  0  0  0  0  0
   -2.9417   -0.9685    0.0000 C   0  0  0  0  0  0  0  0  0  0  0  0
   -0.7629   -0.8393    0.0000 C   0  0  0  0  0  0  0  0  0  0  0  0
   -4.8575    2.0911    0.0000 C   0  0  0  0  0  0  0  0  0  0  0  0
    4.0449   -2.2613    0.0000 C   0  0  0  0  0  0  0  0  0  0  0  0
   -5.5719   -2.4460    0.0000 C   0  0  0  0  0  0  0  0  0  0  0  0
    0.4575   -3.4542    0.0000 C   0  0  0  0  0  0  0  0  0  0  0  0
   -5.5719    3.3286    0.0000 C   0  0  0  0  0  0  0  0  0  0  0  0
    5.3650   -2.8082    0.0000 C   0  0  0  0  0  0  0  0  0  0  0  0
   -5.5719    2.5037    0.0000 C   0  0  0  0  0  0  0  0  0  0  0  0
    4.5471   -2.9158    0.0000 C   0  0  0  0  0  0  0  0  0  0  0  0
   -4.1431    0.8537    0.0000 N   0  3  3  0  0  0  0  0  0  0  0  0
    2.7247   -1.7145    0.0000 N   0  3  3  0  0  0  0  0  0  0  0  0
   -3.0494   -1.7864    0.0000 O   0  0  0  0  0  0  0  0  0  0  0  0
   -0.6552   -0.0214    0.0000 O   0  0  0  0  0  0  0  0  0  0  0  0
   -7.0008   -2.4460    0.0000 O   0  0  0  0  0  0  0  0  0  0  0  0
   -4.1431   -2.4460    0.0000 O   0  0  0  0  0  0  0  0  0  0  0  0
    0.2710   -2.0376    0.0000 O   0  0  0  0  0  0  0  0  0  0  0  0
    0.6440   -4.8709    0.0000 O   0  0  0  0  0  0  0  0  0  0  0  0
   -4.8575    4.5660    0.0000 O   0  0  0  0  0  0  0  0  0  0  0  0
    6.4986   -1.9383    0.0000 O   0  0  0  0  0  0  0  0  0  0  0  0
   -5.5719   -3.2710    0.0000 O   0  0  0  0  0  0  0  0  0  0  0  0
   -0.3603   -3.5619    0.0000 O   0  0  0  0  0  0  0  0  0  0  0  0
   -6.2864    3.7411    0.0000 O   0  0  0  0  0  0  0  0  0  0  0  0
    5.8672   -3.4626    0.0000 O   0  0  0  0  0  0  0  0  0  0  0  0
   -6.2864    2.0911    0.0000 O   0  0  0  0  0  0  0  0  0  0  0  0
    4.2314   -3.6780    0.0000 O   0  0  0  0  0  0  0  0  0  0  0  0
   -3.5963   -0.4663    0.0000 O   0  0  0  0  0  0  0  0  0  0  0  0
   -0.1085   -1.3415    0.0000 O   0  0  0  0  0  0  0  0  0  0  0  0
   -3.8365   -0.7632    0.0000 H   0  0  0  0  0  0  0  0  0  0  0  0
   -2.5262    0.5474    0.0000 H   0  0  0  0  0  0  0  0  0  0  0  0
   -2.8030   -0.4861    0.0000 H   0  0  0  0  0  0  0  0  0  0  0  0
    1.4778   -2.7884    0.0000 H   0  0  0  0  0  0  0  0  0  0  0  0
    3.2680   -3.2678    0.0000 H   0  0  0  0  0  0  0  0  0  0  0  0
    2.2345   -3.5449    0.0000 H   0  0  0  0  0  0  0  0  0  0  0  0
   -7.9274   -3.8060    0.0000 H   0  0  0  0  0  0  0  0  0  0  0  0
   -6.0742   -3.8060    0.0000 H   0  0  0  0  0  0  0  0  0  0  0  0
   -7.0008   -4.3410    0.0000 H   0  0  0  0  0  0  0  0  0  0  0  0
   -5.0697   -3.8060    0.0000 H   0  0  0  0  0  0  0  0  0  0  0  0
   -3.2165   -3.8060    0.0000 H   0  0  0  0  0  0  0  0  0  0  0  0
   -4.1431   -4.3410    0.0000 H   0  0  0  0  0  0  0  0  0  0  0  0
   -1.1982   -1.2964    0.0000 H   0  0  0  0  0  0  0  0  0  0  0  0
   -0.9562   -3.1339    0.0000 H   0  0  0  0  0  0  0  0  0  0  0  0
   -1.6076   -2.2850    0.0000 H   0  0  0  0  0  0  0  0  0  0  0  0
   -0.8251   -4.1296    0.0000 H   0  0  0  0  0  0  0  0  0  0  0  0
   -0.5833   -5.9670    0.0000 H   0  0  0  0  0  0  0  0  0  0  0  0
   -1.2347   -5.1181    0.0000 H   0  0  0  0  0  0  0  0  0  0  0  0
   -3.2164    4.4435    0.0000 H   0  0  0  0  0  0  0  0  0  0  0  0
   -4.1431    6.0485    0.0000 H   0  0  0  0  0  0  0  0  0  0  0  0
   -3.2165    5.5135    0.0000 H   0  0  0  0  0  0  0  0  0  0  0  0
    6.5913   -3.5813    0.0000 H   0  0  0  0  0  0  0  0  0  0  0  0
    8.0616   -2.4532    0.0000 H   0  0  0  0  0  0  0  0  0  0  0  0
    7.6522   -3.4417    0.0000 H   0  0  0  0  0  0  0  0  0  0  0  0
   -7.2130   -3.1485    0.0000 H   0  0  0  0  0  0  0  0  0  0  0  0
   -6.2864   -4.7535    0.0000 H   0  0  0  0  0  0  0  0  0  0  0  0
   -7.2131   -4.2185    0.0000 H   0  0  0  0  0  0  0  0  0  0  0  0
   -0.4530   -1.9189    0.0000 H   0  0  0  0  0  0  0  0  0  0  0  0
   -1.9233   -3.0470    0.0000 H   0  0  0  0  0  0  0  0  0  0  0  0
   -1.5139   -2.0585    0.0000 H   0  0  0  0  0  0  0  0  0  0  0  0
   -5.3598    5.1010    0.0000 H   0  0  0  0  0  0  0  0  0  0  0  0
   -7.2130    5.1010    0.0000 H   0  0  0  0  0  0  0  0  0  0  0  0
   -6.2864    5.6360    0.0000 H   0  0  0  0  0  0  0  0  0  0  0  0
    7.3365   -4.2038    0.0000 H   0  0  0  0  0  0  0  0  0  0  0  0
    7.0945   -2.3663    0.0000 H   0  0  0  0  0  0  0  0  0  0  0  0
    7.7459   -3.2152    0.0000 H   0  0  0  0  0  0  0  0  0  0  0  0
   -7.0006    3.5737    0.0000 H   0  0  0  0  0  0  0  0  0  0  0  0
   -7.9275    1.9688    0.0000 H   0  0  0  0  0  0  0  0  0  0  0  0
   -7.9274    3.0388    0.0000 H   0  0  0  0  0  0  0  0  0  0  0  0
    4.3242   -5.3210    0.0000 H   0  0  0  0  0  0  0  0  0  0  0  0
    5.7944   -4.1927    0.0000 H   0  0  0  0  0  0  0  0  0  0  0  0
    5.3850   -5.1812    0.0000 H   0  0  0  0  0  0  0  0  0  0  0  0
   -6.0015   -0.6893    0.0000 H   0  0  0  0  0  0  0  0  0  0  0  0
   -5.1526   -1.3406    0.0000 H   0  0  0  0  0  0  0  0  0  0  0  0
    1.1685   -2.5888    0.0000 H   0  0  0  0  0  0  0  0  0  0  0  0
    0.3196   -1.9375    0.0000 H   0  0  0  0  0  0  0  0  0  0  0  0
   -2.0400    0.4080    0.0000 H   0  0  0  0  0  0  0  0  0  0  0  0
   -3.0285   -0.0014    0.0000 H   0  0  0  0  0  0  0  0  0  0  0  0
   -1.6648   -2.2158    0.0000 H   0  0  0  0  0  0  0  0  0  0  0  0
   -0.6762   -1.8064    0.0000 H   0  0  0  0  0  0  0  0  0  0  0  0
   -2.5019    2.6261    0.0000 H   0  0  0  0  0  0  0  0  0  0  0  0
   -3.4285    3.1611    0.0000 H   0  0  0  0  0  0  0  0  0  0  0  0
    4.2679    0.1439    0.0000 H   0  0  0  0  0  0  0  0  0  0  0  0
    4.9192   -0.7050    0.0000 H   0  0  0  0  0  0  0  0  0  0  0  0
   -5.7541    1.1894    0.0000 H   0  0  0  0  0  0  0  0  0  0  0  0
   -4.7656    1.5988    0.0000 H   0  0  0  0  0  0  0  0  0  0  0  0
    2.2098   -0.1515    0.0000 H   0  0  0  0  0  0  0  0  0  0  0  0
    3.0587   -0.8028    0.0000 H   0  0  0  0  0  0  0  0  0  0  0  0
   -2.5020    0.7312    0.0000 H   0  0  0  0  0  0  0  0  0  0  0  0
   -3.4286    0.1962    0.0000 H   0  0  0  0  0  0  0  0  0  0  0  0
    2.3890   -0.1035    0.0000 H   0  0  0  0  0  0  0  0  0  0  0  0
    1.9796   -1.0920    0.0000 H   0  0  0  0  0  0  0  0  0  0  0  0
   -4.4980   -1.8428    0.0000 H   0  0  0  0  0  0  0  0  0  0  0  0
   -3.5095   -1.4334    0.0000 H   0  0  0  0  0  0  0  0  0  0  0  0
    0.7932    0.0350    0.0000 H   0  0  0  0  0  0  0  0  0  0  0  0
   -0.1953   -0.3744    0.0000 H   0  0  0  0  0  0  0  0  0  0  0  0
   -6.4986    1.3887    0.0000 H   0  0  0  0  0  0  0  0  0  0  0  0
   -5.5719    1.9237    0.0000 H   0  0  0  0  0  0  0  0  0  0  0  0
    3.5626   -3.9801    0.0000 H   0  0  0  0  0  0  0  0  0  0  0  0
    3.9721   -2.9916    0.0000 H   0  0  0  0  0  0  0  0  0  0  0  0
   -7.1801   -0.6926    0.0000 H   0  0  0  0  0  0  0  0  0  0  0  0
   -3.9638   -0.6926    0.0000 H   0  0  0  0  0  0  0  0  0  0  0  0
    1.9860   -1.6310    0.0000 H   0  0  0  0  0  0  0  0  0  0  0  0
    2.4059   -4.8197    0.0000 H   0  0  0  0  0  0  0  0  0  0  0  0
   -3.2494    3.8446    0.0000 H   0  0  0  0  0  0  0  0  0  0  0  0
    5.5734   -0.4380    0.0000 H   0  0  0  0  0  0  0  0  0  0  0  0
   -5.7842    1.8012    0.0000 H   0  0  0  0  0  0  0  0  0  0  0  0
    3.8784   -3.2179    0.0000 H   0  0  0  0  0  0  0  0  0  0  0  0
  1 57  1  0  0  0  0
  1 75  1  0  0  0  0
  1 76  1  0  0  0  0
  1 77  1  0  0  0  0
  2 58  1  0  0  0  0
  2 78  1  0  0  0  0
  2 79  1  0  0  0  0
  2 80  1  0  0  0  0
  3 61  1  0  0  0  0
  3 81  1  0  0  0  0
  3 82  1  0  0  0  0
  3 83  1  0  0  0  0
  4 62  1  0  0  0  0
  4 84  1  0  0  0  0
  4 85  1  0  0  0  0
  4 86  1  0  0  0  0
  5 63  1  0  0  0  0
  5 87  1  0  0  0  0
  5 88  1  0  0  0  0
  5 89  1  0  0  0  0
  6 64  1  0  0  0  0
  6 90  1  0  0  0  0
  6 91  1  0  0  0  0
  6 92  1  0  0  0  0
  7 65  1  0  0  0  0
  7 93  1  0  0  0  0
  7 94  1  0  0  0  0
  7 95  1  0  0  0  0
  8 66  1  0  0  0  0
  8 96  1  0  0  0  0
  8 97  1  0  0  0  0
  8 98  1  0  0  0  0
  9 67  1  0  0  0  0
  9 99  1  0  0  0  0
  9100  1  0  0  0  0
  9101  1  0  0  0  0
 10 68  1  0  0  0  0
 10102  1  0  0  0  0
 10103  1  0  0  0  0
 10104  1  0  0  0  0
 11 69  1  0  0  0  0
 11105  1  0  0  0  0
 11106  1  0  0  0  0
 11107  1  0  0  0  0
 12 70  1  0  0  0  0
 12108  1  0  0  0  0
 12109  1  0  0  0  0
 12110  1  0  0  0  0
 13 71  1  0  0  0  0
 13111  1  0  0  0  0
 13112  1  0  0  0  0
 13113  1  0  0  0  0
 14 72  1  0  0  0  0
 14114  1  0  0  0  0
 14115  1  0  0  0  0
 14116  1  0  0  0  0
 15 21  1  0  0  0  0
 15 25  1  0  0  0  0
 15117  1  0  0  0  0
 15118  1  0  0  0  0
 16 22  1  0  0  0  0
 16 26  1  0  0  0  0
 16119  1  0  0  0  0
 16120  1  0  0  0  0
 17 18  1  0  0  0  0
 17 47  1  0  0  0  0
 17121  1  0  0  0  0
 17122  1  0  0  0  0
 18 48  1  0  0  0  0
 18123  1  0  0  0  0
 18124  1  0  0  0  0
 19 23  1  0  0  0  0
 19 37  1  0  0  0  0
 19125  1  0  0  0  0
 19126  1  0  0  0  0
 20 24  1  0  0  0  0
 20 38  1  0  0  0  0
 20127  1  0  0  0  0
 20128  1  0  0  0  0
 21 57  1  0  0  0  0
 21129  1  0  0  0  0
 21130  1  0  0  0  0
 22 58  1  0  0  0  0
 22131  1  0  0  0  0
 22132  1  0  0  0  0
 23 57  1  0  0  0  0
 23133  1  0  0  0  0
 23134  1  0  0  0  0
 24 58  1  0  0  0  0
 24135  1  0  0  0  0
 24136  1  0  0  0  0
 25 73  1  0  0  0  0
 25137  1  0  0  0  0
 25138  1  0  0  0  0
 26 74  1  0  0  0  0
 26139  1  0  0  0  0
 26140  1  0  0  0  0
 27 35  1  0  0  0  0
 27 39  1  0  0  0  0
 27141  1  0  0  0  0
 27142  1  0  0  0  0
 28 36  1  0  0  0  0
 28 40  1  0  0  0  0
 28143  1  0  0  0  0
 28144  1  0  0  0  0
 29 35  2  0  0  0  0
 29 41  1  0  0  0  0
 29145  1  0  0  0  0
 30 35  1  0  0  0  0
 30 42  2  0  0  0  0
 30146  1  0  0  0  0
 31 36  2  0  0  0  0
 31 43  1  0  0  0  0
 31147  1  0  0  0  0
 32 36  1  0  0  0  0
 32 44  2  0  0  0  0
 32148  1  0  0  0  0
 33 37  2  0  0  0  0
 33 45  1  0  0  0  0
 33149  1  0  0  0  0
 34 38  2  0  0  0  0
 34 46  1  0  0  0  0
 34150  1  0  0  0  0
 37 49  1  0  0  0  0
 38 50  1  0  0  0  0
 39 49  1  0  0  0  0
 39 57  1  0  0  0  0
 39151  1  0  0  0  0
 40 50  1  0  0  0  0
 40 58  1  0  0  0  0
 40152  1  0  0  0  0
 41 51  2  0  0  0  0
 41 61  1  0  0  0  0
 42 51  1  0  0  0  0
 42 62  1  0  0  0  0
 43 52  2  0  0  0  0
 43 63  1  0  0  0  0
 44 52  1  0  0  0  0
 44 64  1  0  0  0  0
 45 53  2  0  0  0  0
 45 65  1  0  0  0  0
 46 54  2  0  0  0  0
 46 66  1  0  0  0  0
 47 59  2  0  0  0  0
 47 73  1  0  0  0  0
 48 60  2  0  0  0  0
 48 74  1  0  0  0  0
 49 55  2  0  0  0  0
 50 56  2  0  0  0  0
 51 67  1  0  0  0  0
 52 68  1  0  0  0  0
 53 55  1  0  0  0  0
 53 69  1  0  0  0  0
 54 56  1  0  0  0  0
 54 70  1  0  0  0  0
 55 71  1  0  0  0  0
 56 72  1  0  0  0  0
M  CHG  2  57   1  58   1
M  END
>  <DRUGBANK_ID>
DB01135

>  <SECONDARY_ACCESSION_NUMBERS>
APRD00934; DB01334

>  <COMMON_NAME>
Doxacurium

>  <CAS_NUMBER>
106791-39-3

>  <UNII>
P40015Y3WW

$$$$
