NCW
 OpenBabel10282417072D

 50 51  0  0  0  0  0  0  0  0999 V2000
    0.9435    0.5631    0.0000 S   0  0  0  0  0  0  0  0  0  0  0  0
    0.5348   -0.1765    0.0000 C   0  0  0  0  0  0  0  0  0  0  0  0
    0.9566   -0.9233    0.0000 N   0  0  0  0  0  0  0  0  0  0  0  0
    1.5170   -1.3630    0.0000 C   0  0  2  0  0  0  0  0  0  0  0  0
    2.4456   -1.3476    0.0000 C   0  0  1  0  0  0  0  0  0  0  0  0
    3.0928   -0.7829    0.0000 O   0  0  0  0  0  0  0  0  0  0  0  0
    2.5837   -2.1647    0.0000 C   0  0  2  0  0  0  0  0  0  0  0  0
    3.0159   -2.8913    0.0000 O   0  0  0  0  0  0  0  0  0  0  0  0
    2.0677   -1.7361    0.0000 C   0  0  1  0  0  0  0  0  0  0  0  0
    2.0477   -0.8120    0.0000 O   0  0  0  0  0  0  0  0  0  0  0  0
    1.1966   -2.0714    0.0000 C   0  0  0  0  0  0  0  0  0  0  0  0
    0.5765   -2.4482    0.0000 O   0  0  0  0  0  0  0  0  0  0  0  0
    1.0963   -1.7361    0.0000 C   0  0  1  0  0  0  0  0  0  0  0  0
   -0.3048   -0.2262    0.0000 N   0  0  0  0  0  0  0  0  0  0  0  0
   -0.7256    0.4876    0.0000 C   0  0  0  0  0  0  0  0  0  0  0  0
   -1.5488    0.4661    0.0000 C   0  0  0  0  0  0  0  0  0  0  0  0
   -1.9635    1.1826    0.0000 C   0  0  0  0  0  0  0  0  0  0  0  0
   -2.7887    1.1729    0.0000 C   0  0  0  0  0  0  0  0  0  0  0  0
   -3.2250    1.8720    0.0000 C   0  0  0  0  0  0  0  0  0  0  0  0
   -4.0576    1.8878    0.0000 C   0  0  0  0  0  0  0  0  0  0  0  0
   -4.4878    2.5888    0.0000 C   0  0  0  0  0  0  0  0  0  0  0  0
   -5.3122    2.5667    0.0000 C   0  0  0  0  0  0  0  0  0  0  0  0
    1.3827   -0.7950    0.0000 H   0  0  0  0  0  0  0  0  0  0  0  0
    0.8318   -1.2158    0.0000 H   0  0  0  0  0  0  0  0  0  0  0  0
    2.4351   -0.7639    0.0000 H   0  0  0  0  0  0  0  0  0  0  0  0
    3.1318   -1.9635    0.0000 H   0  0  0  0  0  0  0  0  0  0  0  0
    2.3074   -1.2037    0.0000 H   0  0  0  0  0  0  0  0  0  0  0  0
    4.0105   -1.0970    0.0000 H   0  0  0  0  0  0  0  0  0  0  0  0
    2.5419   -3.7376    0.0000 H   0  0  0  0  0  0  0  0  0  0  0  0
    2.8771   -0.3089    0.0000 H   0  0  0  0  0  0  0  0  0  0  0  0
    1.9977   -2.7808    0.0000 H   0  0  0  0  0  0  0  0  0  0  0  0
    1.1011   -3.1371    0.0000 H   0  0  0  0  0  0  0  0  0  0  0  0
   -0.7677   -1.0951    0.0000 H   0  0  0  0  0  0  0  0  0  0  0  0
   -0.2070    1.4235    0.0000 H   0  0  0  0  0  0  0  0  0  0  0  0
   -1.2807    1.4023    0.0000 H   0  0  0  0  0  0  0  0  0  0  0  0
   -2.0712   -0.4677    0.0000 H   0  0  0  0  0  0  0  0  0  0  0  0
   -2.6188    0.4583    0.0000 H   0  0  0  0  0  0  0  0  0  0  0  0
   -1.4345    2.1127    0.0000 H   0  0  0  0  0  0  0  0  0  0  0  0
   -2.5069    2.1043    0.0000 H   0  0  0  0  0  0  0  0  0  0  0  0
   -3.3022    0.2342    0.0000 H   0  0  0  0  0  0  0  0  0  0  0  0
   -3.8583    1.1422    0.0000 H   0  0  0  0  0  0  0  0  0  0  0  0
   -2.6971    2.8027    0.0000 H   0  0  0  0  0  0  0  0  0  0  0  0
   -3.7548    2.8017    0.0000 H   0  0  0  0  0  0  0  0  0  0  0  0
   -4.5890    0.9591    0.0000 H   0  0  0  0  0  0  0  0  0  0  0  0
   -5.1275    1.8713    0.0000 H   0  0  0  0  0  0  0  0  0  0  0  0
   -3.9778    3.5295    0.0000 H   0  0  0  0  0  0  0  0  0  0  0  0
   -5.0474    3.5008    0.0000 H   0  0  0  0  0  0  0  0  0  0  0  0
   -5.8718    3.4787    0.0000 H   0  0  0  0  0  0  0  0  0  0  0  0
   -5.8222    1.6260    0.0000 H   0  0  0  0  0  0  0  0  0  0  0  0
   -6.3818    2.5380    0.0000 H   0  0  0  0  0  0  0  0  0  0  0  0
  1  2  2  0  0  0  0
  2  3  1  0  0  0  0
  2 14  1  0  0  0  0
  3  4  1  0  0  0  0
  3 13  1  0  0  0  0
  4  5  1  0  0  0  0
  4 11  1  0  0  0  0
  4 23  1  1  0  0  0
  5  6  1  0  0  0  0
  5  7  1  0  0  0  0
  5 25  1  6  0  0  0
  6 28  1  0  0  0  0
  7  8  1  0  0  0  0
  7  9  1  0  0  0  0
  7 26  1  1  0  0  0
  8 29  1  0  0  0  0
  9 10  1  0  0  0  0
  9 13  1  0  0  0  0
  9 27  1  1  0  0  0
 10 30  1  0  0  0  0
 11 12  1  0  0  0  0
 11 31  1  0  0  0  0
 11 32  1  0  0  0  0
 12 13  1  0  0  0  0
 13 24  1  6  0  0  0
 14 15  1  0  0  0  0
 14 33  1  0  0  0  0
 15 16  1  0  0  0  0
 15 34  1  0  0  0  0
 15 35  1  0  0  0  0
 16 17  1  0  0  0  0
 16 36  1  0  0  0  0
 16 37  1  0  0  0  0
 17 18  1  0  0  0  0
 17 38  1  0  0  0  0
 17 39  1  0  0  0  0
 18 19  1  0  0  0  0
 18 40  1  0  0  0  0
 18 41  1  0  0  0  0
 19 20  1  0  0  0  0
 19 42  1  0  0  0  0
 19 43  1  0  0  0  0
 20 21  1  0  0  0  0
 20 44  1  0  0  0  0
 20 45  1  0  0  0  0
 21 22  1  0  0  0  0
 21 46  1  0  0  0  0
 21 47  1  0  0  0  0
 22 48  1  0  0  0  0
 22 49  1  0  0  0  0
 22 50  1  0  0  0  0
M  END
>  <DRUGBANK_ID>
DB08260

>  <COMMON_NAME>
(1S,2R,3S,4R,5R)-2,3,4-trihydroxy-N-octyl-6-oxa-8-azabicyclo[3.2.1]octane-8-carbothioamide

$$$$
