
 OpenBabel10282417072D

 52 57  0  0  0  0  0  0  0  0999 V2000
    3.1505    1.1699    0.0000 C   0  0  0  0  0  0  0  0  0  0  0  0
    2.5446    1.7476    0.0000 C   0  0  0  0  0  0  0  0  0  0  0  0
    3.1505    2.3490    0.0000 C   0  0  0  0  0  0  0  0  0  0  0  0
    3.7238    1.7476    0.0000 C   0  0  0  0  0  0  0  0  0  0  0  0
    1.8269    1.3329    0.0000 C   0  0  0  0  0  0  0  0  0  0  0  0
    1.1137    1.7476    0.0000 C   0  0  0  0  0  0  0  0  0  0  0  0
    0.4008    1.3329    0.0000 C   0  0  0  0  0  0  0  0  0  0  0  0
    0.4008    0.5079    0.0000 C   0  0  0  0  0  0  0  0  0  0  0  0
   -0.3168    0.0978    0.0000 C   0  0  0  0  0  0  0  0  0  0  0  0
   -0.3168   -0.7270    0.0000 N   0  0  0  0  0  0  0  0  0  0  0  0
   -1.0300   -1.1417    0.0000 C   0  0  0  0  0  0  0  0  0  0  0  0
   -1.0300   -1.9666    0.0000 C   0  0  0  0  0  0  0  0  0  0  0  0
   -1.7477   -2.3769    0.0000 C   0  0  0  0  0  0  0  0  0  0  0  0
   -2.4607   -1.9666    0.0000 N   0  0  0  0  0  0  0  0  0  0  0  0
   -2.4607   -1.1417    0.0000 C   0  0  0  0  0  0  0  0  0  0  0  0
   -1.7477   -0.7270    0.0000 C   0  0  0  0  0  0  0  0  0  0  0  0
   -1.7477    0.0978    0.0000 C   0  0  0  0  0  0  0  0  0  0  0  0
   -1.0300    0.5079    0.0000 C   0  0  0  0  0  0  0  0  0  0  0  0
   -1.0300    1.3329    0.0000 C   0  0  0  0  0  0  0  0  0  0  0  0
   -1.7477    1.7476    0.0000 C   0  0  0  0  0  0  0  0  0  0  0  0
   -1.7477    2.5726    0.0000 C   0  0  0  0  0  0  0  0  0  0  0  0
   -1.0300    2.9827    0.0000 C   0  0  0  0  0  0  0  0  0  0  0  0
   -0.3168    2.5726    0.0000 C   0  0  0  0  0  0  0  0  0  0  0  0
   -0.3168    1.7476    0.0000 C   0  0  0  0  0  0  0  0  0  0  0  0
   -3.2298   -0.8668    0.0000 N   0  0  0  0  0  0  0  0  0  0  0  0
   -3.7238   -1.5520    0.0000 N   0  0  0  0  0  0  0  0  0  0  0  0
   -3.2298   -2.2137    0.0000 C   0  0  0  0  0  0  0  0  0  0  0  0
   -3.4768   -2.9827    0.0000 O   0  0  0  0  0  0  0  0  0  0  0  0
    1.1137    0.0978    0.0000 C   0  0  0  0  0  0  0  0  0  0  0  0
    1.8269    0.5079    0.0000 C   0  0  0  0  0  0  0  0  0  0  0  0
    1.8269    2.1578    0.0000 N   0  0  0  0  0  0  0  0  0  0  0  0
    3.1653    0.1000    0.0000 H   0  0  0  0  0  0  0  0  0  0  0  0
    4.1426    0.7692    0.0000 H   0  0  0  0  0  0  0  0  0  0  0  0
    3.1653    3.4189    0.0000 H   0  0  0  0  0  0  0  0  0  0  0  0
    4.1466    2.7397    0.0000 H   0  0  0  0  0  0  0  0  0  0  0  0
    4.7937    1.7369    0.0000 H   0  0  0  0  0  0  0  0  0  0  0  0
    4.1302    0.7578    0.0000 H   0  0  0  0  0  0  0  0  0  0  0  0
    1.1136    2.7796    0.0000 H   0  0  0  0  0  0  0  0  0  0  0  0
   -0.4938    1.8474    0.0000 H   0  0  0  0  0  0  0  0  0  0  0  0
   -0.1374   -2.4845    0.0000 H   0  0  0  0  0  0  0  0  0  0  0  0
   -1.7492   -3.4089    0.0000 H   0  0  0  0  0  0  0  0  0  0  0  0
   -2.6403    0.6158    0.0000 H   0  0  0  0  0  0  0  0  0  0  0  0
   -2.6415    1.2318    0.0000 H   0  0  0  0  0  0  0  0  0  0  0  0
   -2.6403    3.0906    0.0000 H   0  0  0  0  0  0  0  0  0  0  0  0
   -1.0286    4.0147    0.0000 H   0  0  0  0  0  0  0  0  0  0  0  0
    0.5765    3.0894    0.0000 H   0  0  0  0  0  0  0  0  0  0  0  0
    0.5777    1.2330    0.0000 H   0  0  0  0  0  0  0  0  0  0  0  0
   -4.7083   -1.5602    0.0000 H   0  0  0  0  0  0  0  0  0  0  0  0
    1.1136   -0.9342    0.0000 H   0  0  0  0  0  0  0  0  0  0  0  0
    2.7202   -0.0089    0.0000 H   0  0  0  0  0  0  0  0  0  0  0  0
    1.8225    3.1778    0.0000 H   0  0  0  0  0  0  0  0  0  0  0  0
    0.9458    1.6440    0.0000 H   0  0  0  0  0  0  0  0  0  0  0  0
  1  4  1  0  0  0  0
  1 32  1  0  0  0  0
  1 33  1  0  0  0  0
  2  1  1  0  0  0  0
  2  3  1  0  0  0  0
  2 31  1  0  0  0  0
  3 34  1  0  0  0  0
  3 35  1  0  0  0  0
  4  3  1  0  0  0  0
  4 36  1  0  0  0  0
  4 37  1  0  0  0  0
  5  2  1  0  0  0  0
  5 30  2  0  0  0  0
  6  5  1  0  0  0  0
  6 38  1  0  0  0  0
  7  6  2  0  0  0  0
  7 39  1  0  0  0  0
  8  7  1  0  0  0  0
  8 29  2  0  0  0  0
  9  8  1  0  0  0  0
  9 18  1  0  0  0  0
 10  9  2  0  0  0  0
 10 11  1  0  0  0  0
 12 11  1  0  0  0  0
 12 40  1  0  0  0  0
 13 12  2  0  0  0  0
 13 41  1  0  0  0  0
 14 13  1  0  0  0  0
 14 27  1  0  0  0  0
 15 14  1  0  0  0  0
 15 25  2  0  0  0  0
 16 15  1  0  0  0  0
 16 11  2  0  0  0  0
 17 16  1  0  0  0  0
 17 42  1  0  0  0  0
 18 17  2  0  0  0  0
 18 19  1  0  0  0  0
 19 20  1  0  0  0  0
 19 24  2  0  0  0  0
 20 21  2  0  0  0  0
 20 43  1  0  0  0  0
 21 22  1  0  0  0  0
 21 44  1  0  0  0  0
 22 23  2  0  0  0  0
 22 45  1  0  0  0  0
 23 24  1  0  0  0  0
 23 46  1  0  0  0  0
 24 47  1  0  0  0  0
 26 25  1  0  0  0  0
 26 27  1  0  0  0  0
 26 48  1  0  0  0  0
 27 28  2  0  0  0  0
 29 49  1  0  0  0  0
 30 29  1  0  0  0  0
 30 50  1  0  0  0  0
 31 51  1  0  0  0  0
 31 52  1  0  0  0  0
M  END
>  <DRUGBANK_ID>
DB16828

>  <COMMON_NAME>
MK-2206

>  <CAS_NUMBER>
1032349-93-1

>  <UNII>
51HZG6MP1K

>  <SYNONYMS>
1,2,4-Triazolo(3,4-f)(1,6)naphthyridin-3(2H)-one, 8-(4-(1-aminocyclobutyl)phenyl)-9-phenyl-; 8-(4-(1-aminocyclobutyl)phenyl)-9-phenyl-[1,2,4]triazolo[3,4-f][1,6]naphthyridin-3(2H)-one; MK-2206 free base

$$$$
