
 OpenBabel10282417072D

 97101  0  0  1  0  0  0  0  0999 V2000
    5.7158   -4.1250    0.0000 C   0  0  0  0  0  0  0  0  0  0  0  0
    5.7158   -4.9500    0.0000 C   0  0  0  0  0  0  0  0  0  0  0  0
    6.4302   -5.3625    0.0000 C   0  0  0  0  0  0  0  0  0  0  0  0
    6.4302   -6.1875    0.0000 C   0  0  0  0  0  0  0  0  0  0  0  0
    7.1447   -6.6000    0.0000 C   0  0  0  0  0  0  0  0  0  0  0  0
    5.7158   -6.6000    0.0000 C   0  0  0  0  0  0  0  0  0  0  0  0
    5.0013   -6.1875    0.0000 C   0  0  0  0  0  0  0  0  0  0  0  0
    4.2868   -6.6000    0.0000 C   0  0  0  0  0  0  0  0  0  0  0  0
    5.0013   -5.3625    0.0000 C   0  0  0  0  0  0  0  0  0  0  0  0
    5.7158   -7.4250    0.0000 C   0  0  0  0  0  0  0  0  0  0  0  0
    6.4302   -7.8375    0.0000 C   0  0  0  0  0  0  0  0  0  0  0  0
    6.4302   -8.6625    0.0000 C   0  0  0  0  0  0  0  0  0  0  0  0
    5.7158   -9.0750    0.0000 C   0  0  0  0  0  0  0  0  0  0  0  0
    5.7158   -9.9000    0.0000 N   0  0  0  0  0  0  0  0  0  0  0  0
    6.4302  -10.3125    0.0000 C   0  0  0  0  0  0  0  0  0  0  0  0
    7.1447   -9.9000    0.0000 O   0  0  0  0  0  0  0  0  0  0  0  0
    6.4302  -11.1375    0.0000 C   0  0  2  0  0  0  0  0  0  0  0  0
    7.1447  -11.5500    0.0000 C   0  0  0  0  0  0  0  0  0  0  0  0
    7.1447  -12.3750    0.0000 C   0  0  0  0  0  0  0  0  0  0  0  0
    7.8592  -12.7875    0.0000 C   0  0  0  0  0  0  0  0  0  0  0  0
    7.8592  -13.6125    0.0000 C   0  0  0  0  0  0  0  0  0  0  0  0
    7.1447  -14.0250    0.0000 C   0  0  0  0  0  0  0  0  0  0  0  0
    6.4302  -13.6125    0.0000 C   0  0  0  0  0  0  0  0  0  0  0  0
    6.4302  -12.7875    0.0000 C   0  0  0  0  0  0  0  0  0  0  0  0
    7.1447  -14.8500    0.0000 C   0  0  0  0  0  0  0  0  0  0  0  0
    7.8592  -15.2625    0.0000 O   0  0  0  0  0  0  0  0  0  0  0  0
    6.4302  -15.2625    0.0000 N   0  0  0  0  0  0  0  0  0  0  0  0
    6.4302  -16.0875    0.0000 C   0  0  0  0  0  0  0  0  0  0  0  0
    5.7158  -16.5000    0.0000 C   0  0  0  0  0  0  0  0  0  0  0  0
    5.7158  -17.3250    0.0000 S   0  0  0  0  0  0  0  0  0  0  0  0
    5.7158  -18.1500    0.0000 O   0  0  0  0  0  0  0  0  0  0  0  0
    4.8908  -17.3250    0.0000 O   0  0  0  0  0  0  0  0  0  0  0  0
    6.5408  -17.3250    0.0000 O   0  0  0  0  0  0  0  0  0  0  0  0
    5.7158  -11.5500    0.0000 C   0  0  0  0  0  0  0  0  0  0  0  0
    5.7158  -12.3750    0.0000 C   0  0  0  0  0  0  0  0  0  0  0  0
    5.0013  -12.7875    0.0000 C   0  0  0  0  0  0  0  0  0  0  0  0
    4.2868  -12.3750    0.0000 C   0  0  0  0  0  0  0  0  0  0  0  0
    4.2868  -11.5500    0.0000 C   0  0  0  0  0  0  0  0  0  0  0  0
    5.0013  -11.1375    0.0000 C   0  0  0  0  0  0  0  0  0  0  0  0
    3.5724  -12.7875    0.0000 C   0  0  0  0  0  0  0  0  0  0  0  0
    3.5724  -13.6125    0.0000 C   0  0  0  0  0  0  0  0  0  0  0  0
    2.8579  -14.0250    0.0000 C   0  0  0  0  0  0  0  0  0  0  0  0
    2.1434  -13.6125    0.0000 C   0  0  0  0  0  0  0  0  0  0  0  0
    2.1434  -12.7875    0.0000 C   0  0  0  0  0  0  0  0  0  0  0  0
    2.8579  -12.3750    0.0000 C   0  0  0  0  0  0  0  0  0  0  0  0
    1.4289  -14.0250    0.0000 C   0  0  0  0  0  0  0  0  0  0  0  0
    0.7145  -14.4375    0.0000 C   0  0  0  0  0  0  0  0  0  0  0  0
    1.0164  -13.3105    0.0000 C   0  0  0  0  0  0  0  0  0  0  0  0
    1.8414  -14.7395    0.0000 C   0  0  0  0  0  0  0  0  0  0  0  0
    5.0013   -8.6625    0.0000 C   0  0  0  0  0  0  0  0  0  0  0  0
    5.0013   -7.8375    0.0000 C   0  0  0  0  0  0  0  0  0  0  0  0
    6.6424   -3.5900    0.0000 H   0  0  0  0  0  0  0  0  0  0  0  0
    4.7892   -3.5900    0.0000 H   0  0  0  0  0  0  0  0  0  0  0  0
    5.7158   -3.0550    0.0000 H   0  0  0  0  0  0  0  0  0  0  0  0
    7.3239   -4.8465    0.0000 H   0  0  0  0  0  0  0  0  0  0  0  0
    7.1447   -7.6700    0.0000 H   0  0  0  0  0  0  0  0  0  0  0  0
    8.0713   -6.0650    0.0000 H   0  0  0  0  0  0  0  0  0  0  0  0
    8.0714   -7.1350    0.0000 H   0  0  0  0  0  0  0  0  0  0  0  0
    3.3602   -6.0650    0.0000 H   0  0  0  0  0  0  0  0  0  0  0  0
    4.2868   -7.6700    0.0000 H   0  0  0  0  0  0  0  0  0  0  0  0
    3.3601   -7.1350    0.0000 H   0  0  0  0  0  0  0  0  0  0  0  0
    4.1076   -4.8465    0.0000 H   0  0  0  0  0  0  0  0  0  0  0  0
    7.3239   -7.3215    0.0000 H   0  0  0  0  0  0  0  0  0  0  0  0
    7.3239   -9.1785    0.0000 H   0  0  0  0  0  0  0  0  0  0  0  0
    4.8632  -10.3922    0.0000 H   0  0  0  0  0  0  0  0  0  0  0  0
    7.3568  -10.6025    0.0000 H   0  0  0  0  0  0  0  0  0  0  0  0
    8.0713  -11.0150    0.0000 H   0  0  0  0  0  0  0  0  0  0  0  0
    8.0713  -12.0850    0.0000 H   0  0  0  0  0  0  0  0  0  0  0  0
    8.7529  -12.2715    0.0000 H   0  0  0  0  0  0  0  0  0  0  0  0
    8.7529  -14.1285    0.0000 H   0  0  0  0  0  0  0  0  0  0  0  0
    5.5365  -14.1285    0.0000 H   0  0  0  0  0  0  0  0  0  0  0  0
    5.5365  -12.2715    0.0000 H   0  0  0  0  0  0  0  0  0  0  0  0
    5.5776  -14.7702    0.0000 H   0  0  0  0  0  0  0  0  0  0  0  0
    7.3569  -16.6225    0.0000 H   0  0  0  0  0  0  0  0  0  0  0  0
    6.4302  -17.1575    0.0000 H   0  0  0  0  0  0  0  0  0  0  0  0
    4.7891  -15.9650    0.0000 H   0  0  0  0  0  0  0  0  0  0  0  0
    4.7892  -17.0350    0.0000 H   0  0  0  0  0  0  0  0  0  0  0  0
    4.8758  -18.6350    0.0000 H   0  0  0  0  0  0  0  0  0  0  0  0
    6.6095  -12.8910    0.0000 H   0  0  0  0  0  0  0  0  0  0  0  0
    5.0013  -13.8195    0.0000 H   0  0  0  0  0  0  0  0  0  0  0  0
    3.3931  -11.0340    0.0000 H   0  0  0  0  0  0  0  0  0  0  0  0
    5.0013  -10.1055    0.0000 H   0  0  0  0  0  0  0  0  0  0  0  0
    4.4661  -14.1285    0.0000 H   0  0  0  0  0  0  0  0  0  0  0  0
    2.8579  -15.0570    0.0000 H   0  0  0  0  0  0  0  0  0  0  0  0
    1.2497  -12.2715    0.0000 H   0  0  0  0  0  0  0  0  0  0  0  0
    2.8579  -11.3430    0.0000 H   0  0  0  0  0  0  0  0  0  0  0  0
   -0.2122  -13.9025    0.0000 H   0  0  0  0  0  0  0  0  0  0  0  0
    0.7145  -15.5075    0.0000 H   0  0  0  0  0  0  0  0  0  0  0  0
   -0.2121  -14.9725    0.0000 H   0  0  0  0  0  0  0  0  0  0  0  0
    1.5514  -12.3839    0.0000 H   0  0  0  0  0  0  0  0  0  0  0  0
   -0.0536  -13.3105    0.0000 H   0  0  0  0  0  0  0  0  0  0  0  0
    0.4814  -12.3838    0.0000 H   0  0  0  0  0  0  0  0  0  0  0  0
    1.3064  -15.6661    0.0000 H   0  0  0  0  0  0  0  0  0  0  0  0
    2.9114  -14.7395    0.0000 H   0  0  0  0  0  0  0  0  0  0  0  0
    2.3764  -15.6662    0.0000 H   0  0  0  0  0  0  0  0  0  0  0  0
    4.1076   -9.1785    0.0000 H   0  0  0  0  0  0  0  0  0  0  0  0
    4.1076   -7.3215    0.0000 H   0  0  0  0  0  0  0  0  0  0  0  0
  1  2  1  0  0  0  0
  1 52  1  0  0  0  0
  1 53  1  0  0  0  0
  1 54  1  0  0  0  0
  2  3  2  0  0  0  0
  2  9  1  0  0  0  0
  3  4  1  0  0  0  0
  3 55  1  0  0  0  0
  4  5  1  0  0  0  0
  4  6  2  0  0  0  0
  5 56  1  0  0  0  0
  5 57  1  0  0  0  0
  5 58  1  0  0  0  0
  6  7  1  0  0  0  0
  6 10  1  0  0  0  0
  7  8  1  0  0  0  0
  7  9  2  0  0  0  0
  8 59  1  0  0  0  0
  8 60  1  0  0  0  0
  8 61  1  0  0  0  0
  9 62  1  0  0  0  0
 10 11  2  0  0  0  0
 10 51  1  0  0  0  0
 11 12  1  0  0  0  0
 11 63  1  0  0  0  0
 12 13  2  0  0  0  0
 12 64  1  0  0  0  0
 13 14  1  0  0  0  0
 13 50  1  0  0  0  0
 14 15  1  0  0  0  0
 14 65  1  0  0  0  0
 15 16  2  0  0  0  0
 17 15  1  0  0  0  0
 17 18  1  0  0  0  0
 17 34  1  0  0  0  0
 17 66  1  1  0  0  0
 18 19  1  0  0  0  0
 18 67  1  0  0  0  0
 18 68  1  0  0  0  0
 19 20  2  0  0  0  0
 19 24  1  0  0  0  0
 20 21  1  0  0  0  0
 20 69  1  0  0  0  0
 21 22  2  0  0  0  0
 21 70  1  0  0  0  0
 22 23  1  0  0  0  0
 22 25  1  0  0  0  0
 23 24  2  0  0  0  0
 23 71  1  0  0  0  0
 24 72  1  0  0  0  0
 25 26  2  0  0  0  0
 25 27  1  0  0  0  0
 27 28  1  0  0  0  0
 27 73  1  0  0  0  0
 28 29  1  0  0  0  0
 28 74  1  0  0  0  0
 28 75  1  0  0  0  0
 29 30  1  0  0  0  0
 29 76  1  0  0  0  0
 29 77  1  0  0  0  0
 30 31  1  0  0  0  0
 30 32  2  0  0  0  0
 30 33  2  0  0  0  0
 31 78  1  0  0  0  0
 34 35  2  0  0  0  0
 34 39  1  0  0  0  0
 35 36  1  0  0  0  0
 35 79  1  0  0  0  0
 36 37  2  0  0  0  0
 36 80  1  0  0  0  0
 37 38  1  0  0  0  0
 37 40  1  0  0  0  0
 38 39  2  0  0  0  0
 38 81  1  0  0  0  0
 39 82  1  0  0  0  0
 40 41  2  0  0  0  0
 40 45  1  0  0  0  0
 41 42  1  0  0  0  0
 41 83  1  0  0  0  0
 42 43  2  0  0  0  0
 42 84  1  0  0  0  0
 43 44  1  0  0  0  0
 43 46  1  0  0  0  0
 44 45  2  0  0  0  0
 44 85  1  0  0  0  0
 45 86  1  0  0  0  0
 46 47  1  0  0  0  0
 46 48  1  0  0  0  0
 46 49  1  0  0  0  0
 47 87  1  0  0  0  0
 47 88  1  0  0  0  0
 47 89  1  0  0  0  0
 48 90  1  0  0  0  0
 48 91  1  0  0  0  0
 48 92  1  0  0  0  0
 49 93  1  0  0  0  0
 49 94  1  0  0  0  0
 49 95  1  0  0  0  0
 50 51  2  0  0  0  0
 50 96  1  0  0  0  0
 51 97  1  0  0  0  0
M  END
>  <DRUGBANK_ID>
DB14779

>  <COMMON_NAME>
LGD-6972

>  <CAS_NUMBER>
1207989-09-0

>  <UNII>
6IJ842I0Z2

$$$$
