
 OpenBabel10282417072D

 39 40  0  0  0  0  0  0  0  0999 V2000
    9.5094   -2.6813    0.0000 F   0  0  0  0  0  0  0  0  0  0  0  0
    2.3645    1.4438    0.0000 O   0  0  0  0  0  0  0  0  0  0  0  0
    3.7935    1.4438    0.0000 O   0  0  0  0  0  0  0  0  0  0  0  0
    5.9370   -1.4438    0.0000 N   0  0  0  0  0  0  0  0  0  0  0  0
    4.5080   -1.4438    0.0000 N   0  0  0  0  0  0  0  0  0  0  0  0
    3.0791    0.2063    0.0000 N   0  0  0  0  0  0  0  0  0  0  0  0
    3.0791   -1.4438    0.0000 N   0  0  0  0  0  0  0  0  0  0  0  0
    6.6515   -1.0313    0.0000 C   0  0  0  0  0  0  0  0  0  0  0  0
    7.3659   -1.4438    0.0000 C   0  0  0  0  0  0  0  0  0  0  0  0
    5.2224   -1.0313    0.0000 C   0  0  0  0  0  0  0  0  0  0  0  0
    3.7935   -0.2063    0.0000 C   0  0  0  0  0  0  0  0  0  0  0  0
    5.2224   -0.2063    0.0000 C   0  0  0  0  0  0  0  0  0  0  0  0
    3.7935   -1.0313    0.0000 C   0  0  0  0  0  0  0  0  0  0  0  0
    8.0804   -1.0313    0.0000 C   0  0  0  0  0  0  0  0  0  0  0  0
    7.3659   -2.2688    0.0000 C   0  0  0  0  0  0  0  0  0  0  0  0
    4.5080    0.2063    0.0000 C   0  0  0  0  0  0  0  0  0  0  0  0
    8.7949   -1.4438    0.0000 C   0  0  0  0  0  0  0  0  0  0  0  0
    8.0804   -2.6813    0.0000 C   0  0  0  0  0  0  0  0  0  0  0  0
    8.7949   -2.2688    0.0000 C   0  0  0  0  0  0  0  0  0  0  0  0
    3.0791    1.0313    0.0000 C   0  0  0  0  0  0  0  0  0  0  0  0
    2.3645    2.2688    0.0000 C   0  0  0  0  0  0  0  0  0  0  0  0
    1.6500    2.6813    0.0000 C   0  0  0  0  0  0  0  0  0  0  0  0
    5.9370   -2.4283    0.0000 H   0  0  0  0  0  0  0  0  0  0  0  0
    2.2265   -0.2859    0.0000 H   0  0  0  0  0  0  0  0  0  0  0  0
    2.2265   -0.9516    0.0000 H   0  0  0  0  0  0  0  0  0  0  0  0
    3.0791   -2.4283    0.0000 H   0  0  0  0  0  0  0  0  0  0  0  0
    6.6515    0.0387    0.0000 H   0  0  0  0  0  0  0  0  0  0  0  0
    7.5782   -0.4963    0.0000 H   0  0  0  0  0  0  0  0  0  0  0  0
    6.1162    0.3096    0.0000 H   0  0  0  0  0  0  0  0  0  0  0  0
    8.0804    0.0007    0.0000 H   0  0  0  0  0  0  0  0  0  0  0  0
    6.4722   -2.7848    0.0000 H   0  0  0  0  0  0  0  0  0  0  0  0
    4.5080    1.2383    0.0000 H   0  0  0  0  0  0  0  0  0  0  0  0
    9.6886   -0.9278    0.0000 H   0  0  0  0  0  0  0  0  0  0  0  0
    8.0804   -3.7133    0.0000 H   0  0  0  0  0  0  0  0  0  0  0  0
    3.2911    2.8038    0.0000 H   0  0  0  0  0  0  0  0  0  0  0  0
    2.3645    3.3388    0.0000 H   0  0  0  0  0  0  0  0  0  0  0  0
    1.6500    3.7513    0.0000 H   0  0  0  0  0  0  0  0  0  0  0  0
    0.7234    2.1463    0.0000 H   0  0  0  0  0  0  0  0  0  0  0  0
    0.7233    3.2163    0.0000 H   0  0  0  0  0  0  0  0  0  0  0  0
  1 19  1  0  0  0  0
  2 20  1  0  0  0  0
  2 21  1  0  0  0  0
  3 20  2  0  0  0  0
  4  8  1  0  0  0  0
  4 10  1  0  0  0  0
  4 23  1  0  0  0  0
  5 10  2  0  0  0  0
  5 13  1  0  0  0  0
  6 11  1  0  0  0  0
  6 20  1  0  0  0  0
  6 24  1  0  0  0  0
  7 13  1  0  0  0  0
  7 25  1  0  0  0  0
  7 26  1  0  0  0  0
  8  9  1  0  0  0  0
  8 27  1  0  0  0  0
  8 28  1  0  0  0  0
  9 14  2  0  0  0  0
  9 15  1  0  0  0  0
 10 12  1  0  0  0  0
 11 13  2  0  0  0  0
 11 16  1  0  0  0  0
 12 16  2  0  0  0  0
 12 29  1  0  0  0  0
 14 17  1  0  0  0  0
 14 30  1  0  0  0  0
 15 18  2  0  0  0  0
 15 31  1  0  0  0  0
 16 32  1  0  0  0  0
 17 19  2  0  0  0  0
 17 33  1  0  0  0  0
 18 19  1  0  0  0  0
 18 34  1  0  0  0  0
 21 22  1  0  0  0  0
 21 35  1  0  0  0  0
 21 36  1  0  0  0  0
 22 37  1  0  0  0  0
 22 38  1  0  0  0  0
 22 39  1  0  0  0  0
M  END
>  <DRUGBANK_ID>
DB06623

>  <COMMON_NAME>
Flupirtine

>  <CAS_NUMBER>
56995-20-1

>  <UNII>
MOH3ET196H

>  <SYNONYMS>
Flupirtine; Flupirtino; Flupirtinum

$$$$
