
 OpenBabel10282417072D

 49 46  0  0  1  0  0  0  0  0999 V2000
    0.0000    0.0000    0.0000 Cu  0  2  0  0  0  0  0  0  0  0  0  0
    2.1214   -0.1269    0.0000 O   0  0  0  0  0  0  0  0  0  0  0  0
    2.8359    0.2856    0.0000 C   0  0  0  0  0  0  0  0  0  0  0  0
    3.5504   -0.1269    0.0000 C   0  0  1  0  0  0  0  0  0  0  0  0
    3.5504   -0.9519    0.0000 O   0  0  0  0  0  0  0  0  0  0  0  0
    4.2648    0.2856    0.0000 C   0  0  1  0  0  0  0  0  0  0  0  0
    4.2648    1.1106    0.0000 O   0  0  0  0  0  0  0  0  0  0  0  0
    4.9793   -0.1269    0.0000 C   0  0  2  0  0  0  0  0  0  0  0  0
    4.9793   -0.9519    0.0000 O   0  0  0  0  0  0  0  0  0  0  0  0
    5.6938    0.2856    0.0000 C   0  0  1  0  0  0  0  0  0  0  0  0
    5.6938    1.1106    0.0000 O   0  0  0  0  0  0  0  0  0  0  0  0
    6.4083   -0.1269    0.0000 C   0  0  0  0  0  0  0  0  0  0  0  0
    7.1227    0.2856    0.0000 O   0  5  0  0  0  0  0  0  0  0  0  0
    6.4083   -0.9519    0.0000 O   0  0  0  0  0  0  0  0  0  0  0  0
   -2.6380   -3.8394    0.0000 O   0  0  0  0  0  0  0  0  0  0  0  0
   -1.9236   -3.4269    0.0000 C   0  0  0  0  0  0  0  0  0  0  0  0
   -1.2091   -3.8394    0.0000 C   0  0  1  0  0  0  0  0  0  0  0  0
   -1.2091   -4.6644    0.0000 O   0  0  0  0  0  0  0  0  0  0  0  0
   -0.4946   -3.4269    0.0000 C   0  0  1  0  0  0  0  0  0  0  0  0
   -0.4946   -2.6019    0.0000 O   0  0  0  0  0  0  0  0  0  0  0  0
    0.2198   -3.8394    0.0000 C   0  0  2  0  0  0  0  0  0  0  0  0
    0.2198   -4.6644    0.0000 O   0  0  0  0  0  0  0  0  0  0  0  0
    0.9343   -3.4269    0.0000 C   0  0  1  0  0  0  0  0  0  0  0  0
    0.9343   -2.6019    0.0000 O   0  0  0  0  0  0  0  0  0  0  0  0
    1.6488   -3.8394    0.0000 C   0  0  0  0  0  0  0  0  0  0  0  0
    2.3633   -3.4269    0.0000 O   0  5  0  0  0  0  0  0  0  0  0  0
    1.6488   -4.6644    0.0000 O   0  0  0  0  0  0  0  0  0  0  0  0
    1.2814    0.3581    0.0000 H   0  0  0  0  0  0  0  0  0  0  0  0
    2.8359    1.3556    0.0000 H   0  0  0  0  0  0  0  0  0  0  0  0
    3.7625    0.8206    0.0000 H   0  0  0  0  0  0  0  0  0  0  0  0
    2.6238   -0.6619    0.0000 H   0  0  0  0  0  0  0  0  0  0  0  0
    2.7104   -1.4369    0.0000 H   0  0  0  0  0  0  0  0  0  0  0  0
    3.3381    0.8206    0.0000 H   0  0  0  0  0  0  0  0  0  0  0  0
    5.1048    1.5956    0.0000 H   0  0  0  0  0  0  0  0  0  0  0  0
    4.0527   -0.6619    0.0000 H   0  0  0  0  0  0  0  0  0  0  0  0
    4.1393   -1.4369    0.0000 H   0  0  0  0  0  0  0  0  0  0  0  0
    4.7672    0.8206    0.0000 H   0  0  0  0  0  0  0  0  0  0  0  0
    6.5338    1.5956    0.0000 H   0  0  0  0  0  0  0  0  0  0  0  0
   -3.4781   -3.3544    0.0000 H   0  0  0  0  0  0  0  0  0  0  0  0
   -1.9236   -2.3569    0.0000 H   0  0  0  0  0  0  0  0  0  0  0  0
   -0.9970   -2.8919    0.0000 H   0  0  0  0  0  0  0  0  0  0  0  0
   -2.1357   -4.3744    0.0000 H   0  0  0  0  0  0  0  0  0  0  0  0
   -2.0491   -5.1494    0.0000 H   0  0  0  0  0  0  0  0  0  0  0  0
   -1.4212   -2.8919    0.0000 H   0  0  0  0  0  0  0  0  0  0  0  0
    0.3454   -2.1169    0.0000 H   0  0  0  0  0  0  0  0  0  0  0  0
   -0.7069   -4.3744    0.0000 H   0  0  0  0  0  0  0  0  0  0  0  0
   -0.6202   -5.1494    0.0000 H   0  0  0  0  0  0  0  0  0  0  0  0
    0.0077   -2.8919    0.0000 H   0  0  0  0  0  0  0  0  0  0  0  0
    1.7743   -2.1169    0.0000 H   0  0  0  0  0  0  0  0  0  0  0  0
  2  3  1  0  0  0  0
  2 28  1  0  0  0  0
  3  4  1  0  0  0  0
  3 29  1  0  0  0  0
  3 30  1  0  0  0  0
  4  5  1  0  0  0  0
  4  6  1  0  0  0  0
  4 31  1  1  0  0  0
  5 32  1  0  0  0  0
  6  7  1  0  0  0  0
  6  8  1  0  0  0  0
  6 33  1  6  0  0  0
  7 34  1  0  0  0  0
  8  9  1  0  0  0  0
  8 10  1  0  0  0  0
  8 35  1  6  0  0  0
  9 36  1  0  0  0  0
 10 11  1  0  0  0  0
 10 12  1  0  0  0  0
 10 37  1  6  0  0  0
 11 38  1  0  0  0  0
 12 13  1  0  0  0  0
 12 14  2  0  0  0  0
 15 16  1  0  0  0  0
 15 39  1  0  0  0  0
 16 17  1  0  0  0  0
 16 40  1  0  0  0  0
 16 41  1  0  0  0  0
 17 18  1  0  0  0  0
 17 19  1  0  0  0  0
 17 42  1  1  0  0  0
 18 43  1  0  0  0  0
 19 20  1  0  0  0  0
 19 21  1  0  0  0  0
 19 44  1  6  0  0  0
 20 45  1  0  0  0  0
 21 22  1  0  0  0  0
 21 23  1  0  0  0  0
 21 46  1  6  0  0  0
 22 47  1  0  0  0  0
 23 24  1  0  0  0  0
 23 25  1  0  0  0  0
 23 48  1  6  0  0  0
 24 49  1  0  0  0  0
 25 26  1  0  0  0  0
 25 27  2  0  0  0  0
M  CHG  3   1   2  13  -1  26  -1
M  END
>  <DRUGBANK_ID>
DB11246

>  <COMMON_NAME>
Copper gluconate

>  <CAS_NUMBER>
527-09-3

>  <UNII>
RV823G6G67

>  <SYNONYMS>
Copper gluconate

$$$$
