
 OpenBabel10282417072D

 23 23  0  0  0  0  0  0  0  0999 V2000
    1.4435   -0.9739    0.0000 C   0  0  0  0  0  0  0  0  0  0  0  0
    0.7154   -0.5860    0.0000 C   0  0  0  0  0  0  0  0  0  0  0  0
    0.0126   -1.0202    0.0000 C   0  0  0  0  0  0  0  0  0  0  0  0
   -0.7154   -0.6323    0.0000 C   0  0  0  0  0  0  0  0  0  0  0  0
   -0.7407    0.1940    0.0000 C   0  0  0  0  0  0  0  0  0  0  0  0
   -0.0399    0.6287    0.0000 C   0  0  0  0  0  0  0  0  0  0  0  0
    0.6880    0.2366    0.0000 C   0  0  0  0  0  0  0  0  0  0  0  0
    1.4689   -1.8003    0.0000 O   0  0  0  0  0  0  0  0  0  0  0  0
    2.1443   -0.5433    0.0000 N   0  0  0  0  0  0  0  0  0  0  0  0
   -0.0653    1.4550    0.0000 N   0  3  0  0  0  0  0  0  0  0  0  0
   -0.7935    1.8430    0.0000 O   0  0  0  0  0  0  0  0  0  0  0  0
    0.6373    1.8893    0.0000 O   0  5  0  0  0  0  0  0  0  0  0  0
   -1.4161   -1.0629    0.0000 N   0  3  0  0  0  0  0  0  0  0  0  0
   -1.3909   -1.8893    0.0000 O   0  0  0  0  0  0  0  0  0  0  0  0
   -2.1443   -0.6749    0.0000 O   0  5  0  0  0  0  0  0  0  0  0  0
    0.0400   -1.8430    0.0000 C   0  0  0  0  0  0  0  0  0  0  0  0
   -1.6501    0.6820    0.0000 H   0  0  0  0  0  0  0  0  0  0  0  0
    1.5651    0.7804    0.0000 H   0  0  0  0  0  0  0  0  0  0  0  0
    3.0101   -1.0120    0.0000 H   0  0  0  0  0  0  0  0  0  0  0  0
    2.1174    0.4408    0.0000 H   0  0  0  0  0  0  0  0  0  0  0  0
   -0.8683   -2.4085    0.0000 H   0  0  0  0  0  0  0  0  0  0  0  0
    0.9839   -2.3469    0.0000 H   0  0  0  0  0  0  0  0  0  0  0  0
    0.0756   -2.9124    0.0000 H   0  0  0  0  0  0  0  0  0  0  0  0
  1  2  1  0  0  0  0
  1  8  2  0  0  0  0
  1  9  1  0  0  0  0
  2  3  1  0  0  0  0
  2  7  2  0  0  0  0
  3  4  2  0  0  0  0
  3 16  1  0  0  0  0
  4  5  1  0  0  0  0
  4 13  1  0  0  0  0
  5  6  2  0  0  0  0
  5 17  1  0  0  0  0
  6  7  1  0  0  0  0
  6 10  1  0  0  0  0
  7 18  1  0  0  0  0
  9 19  1  0  0  0  0
  9 20  1  0  0  0  0
 10 11  2  0  0  0  0
 10 12  1  0  0  0  0
 13 14  2  0  0  0  0
 13 15  1  0  0  0  0
 16 21  1  0  0  0  0
 16 22  1  0  0  0  0
 16 23  1  0  0  0  0
M  CHG  4  10   1  12  -1  13   1  15  -1
M  END
>  <DRUGBANK_ID>
DB11480

>  <COMMON_NAME>
Zoalene

>  <CAS_NUMBER>
148-01-6

>  <UNII>
AOX68RY4TV

>  <SYNONYMS>
Coccidine A; Dinitolmida; Dinitolmide; Dinitolmidum; Zoalene

$$$$
