688
 OpenBabel10282417072D

 62 64  0  0  0  0  0  0  0  0999 V2000
    1.6500   -0.5404    0.0000 O   0  0  0  0  0  0  0  0  0  0  0  0
   12.9150   -0.1279    0.0000 O   0  0  0  0  0  0  0  0  0  0  0  0
    5.2224    0.6971    0.0000 O   0  0  0  0  0  0  0  0  0  0  0  0
    9.5094   -0.9529    0.0000 O   0  0  0  0  0  0  0  0  0  0  0  0
   10.9383    1.5222    0.0000 O   0  0  0  0  0  0  0  0  0  0  0  0
   12.6898    1.3203    0.0000 O   0  0  0  0  0  0  0  0  0  0  0  0
    5.9370   -0.5404    0.0000 O   0  0  0  0  0  0  0  0  0  0  0  0
    3.0791    0.2846    0.0000 N   0  0  0  0  0  0  0  0  0  0  0  0
    3.0791   -0.5404    0.0000 C   0  0  0  0  0  0  0  0  0  0  0  0
    2.3645    0.6971    0.0000 C   0  0  0  0  0  0  0  0  0  0  0  0
    3.7935    0.6971    0.0000 C   0  0  0  0  0  0  0  0  0  0  0  0
    2.3645   -0.9529    0.0000 C   0  0  0  0  0  0  0  0  0  0  0  0
    1.6500    0.2846    0.0000 C   0  0  0  0  0  0  0  0  0  0  0  0
   11.6529   -0.5404    0.0000 C   0  0  0  0  0  0  0  0  0  0  0  0
   10.2239    0.2846    0.0000 C   0  0  0  0  0  0  0  0  0  0  0  0
   11.6529    0.2846    0.0000 C   0  0  0  0  0  0  0  0  0  0  0  0
   10.9383   -0.9529    0.0000 C   0  0  0  0  0  0  0  0  0  0  0  0
    4.5080    0.2846    0.0000 C   0  0  0  0  0  0  0  0  0  0  0  0
   10.2239   -0.5404    0.0000 C   0  0  0  0  0  0  0  0  0  0  0  0
   10.9383    0.6971    0.0000 C   0  0  0  0  0  0  0  0  0  0  0  0
    9.5094    0.6971    0.0000 C   0  0  0  0  0  0  0  0  0  0  0  0
   12.4335   -0.7918    0.0000 C   0  0  0  0  0  0  0  0  0  0  0  0
    8.7949    0.2846    0.0000 C   0  0  0  0  0  0  0  0  0  0  0  0
   12.4335    0.5360    0.0000 C   0  0  0  0  0  0  0  0  0  0  0  0
    7.3659    0.2846    0.0000 C   0  0  0  0  0  0  0  0  0  0  0  0
    8.0804    0.6971    0.0000 C   0  0  0  0  0  0  0  0  0  0  0  0
   10.9383   -1.7779    0.0000 C   0  0  0  0  0  0  0  0  0  0  0  0
    6.6515    0.6971    0.0000 C   0  0  0  0  0  0  0  0  0  0  0  0
    5.9370    0.2846    0.0000 C   0  0  0  0  0  0  0  0  0  0  0  0
    8.0804    1.5222    0.0000 C   0  0  0  0  0  0  0  0  0  0  0  0
    9.5094   -1.7779    0.0000 C   0  0  0  0  0  0  0  0  0  0  0  0
   11.7498    1.9907    0.0000 H   0  0  0  0  0  0  0  0  0  0  0  0
    4.0057   -1.0754    0.0000 H   0  0  0  0  0  0  0  0  0  0  0  0
    3.0790   -1.6104    0.0000 H   0  0  0  0  0  0  0  0  0  0  0  0
    2.3645    1.7671    0.0000 H   0  0  0  0  0  0  0  0  0  0  0  0
    1.4378    1.2321    0.0000 H   0  0  0  0  0  0  0  0  0  0  0  0
    3.7935    1.7671    0.0000 H   0  0  0  0  0  0  0  0  0  0  0  0
    4.7201    1.2321    0.0000 H   0  0  0  0  0  0  0  0  0  0  0  0
    2.3645   -2.0229    0.0000 H   0  0  0  0  0  0  0  0  0  0  0  0
    3.2911   -1.4880    0.0000 H   0  0  0  0  0  0  0  0  0  0  0  0
    0.7234    0.8196    0.0000 H   0  0  0  0  0  0  0  0  0  0  0  0
    1.6500    1.3546    0.0000 H   0  0  0  0  0  0  0  0  0  0  0  0
    4.5080   -0.7854    0.0000 H   0  0  0  0  0  0  0  0  0  0  0  0
    3.5814   -0.2504    0.0000 H   0  0  0  0  0  0  0  0  0  0  0  0
    9.5094    1.7671    0.0000 H   0  0  0  0  0  0  0  0  0  0  0  0
    8.5828    1.2321    0.0000 H   0  0  0  0  0  0  0  0  0  0  0  0
   12.7659   -1.8089    0.0000 H   0  0  0  0  0  0  0  0  0  0  0  0
   11.6785   -1.5500    0.0000 H   0  0  0  0  0  0  0  0  0  0  0  0
    8.7949   -0.7474    0.0000 H   0  0  0  0  0  0  0  0  0  0  0  0
    7.3659   -0.7854    0.0000 H   0  0  0  0  0  0  0  0  0  0  0  0
    6.4392   -0.2504    0.0000 H   0  0  0  0  0  0  0  0  0  0  0  0
   10.0117   -2.3129    0.0000 H   0  0  0  0  0  0  0  0  0  0  0  0
   11.8649   -2.3129    0.0000 H   0  0  0  0  0  0  0  0  0  0  0  0
   10.9383   -2.8479    0.0000 H   0  0  0  0  0  0  0  0  0  0  0  0
    6.6515    1.7671    0.0000 H   0  0  0  0  0  0  0  0  0  0  0  0
    5.7249    1.2321    0.0000 H   0  0  0  0  0  0  0  0  0  0  0  0
    9.0070    2.0572    0.0000 H   0  0  0  0  0  0  0  0  0  0  0  0
    7.1538    2.0572    0.0000 H   0  0  0  0  0  0  0  0  0  0  0  0
    8.0804    2.5922    0.0000 H   0  0  0  0  0  0  0  0  0  0  0  0
    8.5828   -2.3129    0.0000 H   0  0  0  0  0  0  0  0  0  0  0  0
   10.4360   -2.3129    0.0000 H   0  0  0  0  0  0  0  0  0  0  0  0
    9.5094   -2.8479    0.0000 H   0  0  0  0  0  0  0  0  0  0  0  0
  1 12  1  0  0  0  0
  1 13  1  0  0  0  0
  2 22  1  0  0  0  0
  2 24  1  0  0  0  0
  3 18  1  0  0  0  0
  3 29  1  0  0  0  0
  4 19  1  0  0  0  0
  4 31  1  0  0  0  0
  5 20  1  0  0  0  0
  5 32  1  0  0  0  0
  6 24  2  0  0  0  0
  7 29  2  0  0  0  0
  8  9  1  0  0  0  0
  8 10  1  0  0  0  0
  8 11  1  0  0  0  0
  9 12  1  0  0  0  0
  9 33  1  0  0  0  0
  9 34  1  0  0  0  0
 10 13  1  0  0  0  0
 10 35  1  0  0  0  0
 10 36  1  0  0  0  0
 11 18  1  0  0  0  0
 11 37  1  0  0  0  0
 11 38  1  0  0  0  0
 12 39  1  0  0  0  0
 12 40  1  0  0  0  0
 13 41  1  0  0  0  0
 13 42  1  0  0  0  0
 14 16  1  0  0  0  0
 14 17  2  0  0  0  0
 14 22  1  0  0  0  0
 15 19  2  0  0  0  0
 15 20  1  0  0  0  0
 15 21  1  0  0  0  0
 16 20  2  0  0  0  0
 16 24  1  0  0  0  0
 17 19  1  0  0  0  0
 17 27  1  0  0  0  0
 18 43  1  0  0  0  0
 18 44  1  0  0  0  0
 21 23  1  0  0  0  0
 21 45  1  0  0  0  0
 21 46  1  0  0  0  0
 22 47  1  0  0  0  0
 22 48  1  0  0  0  0
 23 26  2  0  0  0  0
 23 49  1  0  0  0  0
 25 26  1  0  0  0  0
 25 28  1  0  0  0  0
 25 50  1  0  0  0  0
 25 51  1  0  0  0  0
 26 30  1  0  0  0  0
 27 52  1  0  0  0  0
 27 53  1  0  0  0  0
 27 54  1  0  0  0  0
 28 29  1  0  0  0  0
 28 55  1  0  0  0  0
 28 56  1  0  0  0  0
 30 57  1  0  0  0  0
 30 58  1  0  0  0  0
 30 59  1  0  0  0  0
 31 60  1  0  0  0  0
 31 61  1  0  0  0  0
 31 62  1  0  0  0  0
M  END
>  <DRUGBANK_ID>
DB00688

>  <SECONDARY_ACCESSION_NUMBERS>
APRD01602

>  <COMMON_NAME>
Mycophenolate mofetil

>  <CAS_NUMBER>
128794-94-5

>  <UNII>
9242ECW6R0

>  <SYNONYMS>
2-morpholinoethyl (E)-6-(4-hydroxy-6-methoxy-7-methyl-3-oxo-5-phthalanyl)-4-methyl-4-hexenoate; Mycophenolate mofetil; Mycophenolic acid morpholinoethyl ester

$$$$
