Ellagic acid
 OpenBabel10282417072D

 28 31  0  0  0  0  0  0  0  0999 V2000
    6.2684    0.4125    0.0000 O   0  0  0  0  0  0  0  0  0  0  0  0
    5.4434    0.4125    0.0000 C   0  0  0  0  0  0  0  0  0  0  0  0
    5.0309    1.1270    0.0000 C   0  0  0  0  0  0  0  0  0  0  0  0
    5.4434    1.8414    0.0000 O   0  0  0  0  0  0  0  0  0  0  0  0
    4.2059    1.1270    0.0000 C   0  0  0  0  0  0  0  0  0  0  0  0
    3.7934    0.4125    0.0000 C   0  0  0  0  0  0  0  0  0  0  0  0
    4.2059   -0.3020    0.0000 C   0  0  0  0  0  0  0  0  0  0  0  0
    5.0309   -0.3020    0.0000 C   0  0  0  0  0  0  0  0  0  0  0  0
    3.7934   -1.0164    0.0000 C   0  0  0  0  0  0  0  0  0  0  0  0
    4.2059   -1.7309    0.0000 O   0  0  0  0  0  0  0  0  0  0  0  0
    2.9684   -1.0164    0.0000 O   0  0  0  0  0  0  0  0  0  0  0  0
    2.5559   -0.3020    0.0000 C   0  0  0  0  0  0  0  0  0  0  0  0
    2.9684    0.4125    0.0000 C   0  0  0  0  0  0  0  0  0  0  0  0
    2.5559    1.1270    0.0000 C   0  0  0  0  0  0  0  0  0  0  0  0
    1.7309    1.1270    0.0000 C   0  0  0  0  0  0  0  0  0  0  0  0
    1.3184    0.4125    0.0000 C   0  0  0  0  0  0  0  0  0  0  0  0
    0.4934    0.4125    0.0000 O   0  0  0  0  0  0  0  0  0  0  0  0
    1.7309   -0.3020    0.0000 C   0  0  0  0  0  0  0  0  0  0  0  0
    1.3184   -1.0164    0.0000 O   0  0  0  0  0  0  0  0  0  0  0  0
    2.9684    1.8414    0.0000 C   0  0  0  0  0  0  0  0  0  0  0  0
    2.5559    2.5559    0.0000 O   0  0  0  0  0  0  0  0  0  0  0  0
    3.7934    1.8414    0.0000 O   0  0  0  0  0  0  0  0  0  0  0  0
    6.7369   -0.3990    0.0000 H   0  0  0  0  0  0  0  0  0  0  0  0
    6.3804    1.8414    0.0000 H   0  0  0  0  0  0  0  0  0  0  0  0
    5.5469   -1.1957    0.0000 H   0  0  0  0  0  0  0  0  0  0  0  0
    1.2149    2.0207    0.0000 H   0  0  0  0  0  0  0  0  0  0  0  0
    0.0249    1.2240    0.0000 H   0  0  0  0  0  0  0  0  0  0  0  0
    0.3814   -1.0164    0.0000 H   0  0  0  0  0  0  0  0  0  0  0  0
  1  2  1  0  0  0  0
  1 23  1  0  0  0  0
  2  3  2  0  0  0  0
  2  8  1  0  0  0  0
  3  4  1  0  0  0  0
  3  5  1  0  0  0  0
  4 24  1  0  0  0  0
  5  6  2  0  0  0  0
  5 22  1  0  0  0  0
  6  7  1  0  0  0  0
  6 13  1  0  0  0  0
  7  8  2  0  0  0  0
  7  9  1  0  0  0  0
  8 25  1  0  0  0  0
  9 10  2  0  0  0  0
  9 11  1  0  0  0  0
 11 12  1  0  0  0  0
 12 13  2  0  0  0  0
 12 18  1  0  0  0  0
 13 14  1  0  0  0  0
 14 15  2  0  0  0  0
 14 20  1  0  0  0  0
 15 16  1  0  0  0  0
 15 26  1  0  0  0  0
 16 17  1  0  0  0  0
 16 18  2  0  0  0  0
 17 27  1  0  0  0  0
 18 19  1  0  0  0  0
 19 28  1  0  0  0  0
 20 21  2  0  0  0  0
 20 22  1  0  0  0  0
M  END
>  <DRUGBANK_ID>
DB08846

>  <SECONDARY_ACCESSION_NUMBERS>
DB08468

>  <COMMON_NAME>
Ellagic acid

>  <CAS_NUMBER>
476-66-4

>  <UNII>
19YRN3ZS9P

>  <SYNONYMS>
2,3,7,8-tetrahydroxychromeno[5,4,3-cde]chromene-5,10-dione; ácido elágico; Ellagic acid

$$$$
