MI2
 OpenBabel10282417072D

 34 36  0  0  0  0  0  0  0  0999 V2000
    0.8009   -0.4060    0.0000 C   0  0  0  0  0  0  0  0  0  0  0  0
    0.8009    0.4190    0.0000 C   0  0  0  0  0  0  0  0  0  0  0  0
    0.0163    0.6739    0.0000 N   0  0  0  0  0  0  0  0  0  0  0  0
   -0.4687    0.0065    0.0000 C   0  0  0  0  0  0  0  0  0  0  0  0
    0.0163   -0.6609    0.0000 C   0  0  0  0  0  0  0  0  0  0  0  0
   -1.2937    0.0065    0.0000 C   0  0  0  0  0  0  0  0  0  0  0  0
   -1.7062   -0.7080    0.0000 C   0  0  0  0  0  0  0  0  0  0  0  0
   -2.5312   -0.7080    0.0000 C   0  0  0  0  0  0  0  0  0  0  0  0
   -2.9437    0.0065    0.0000 C   0  0  0  0  0  0  0  0  0  0  0  0
   -2.5312    0.7210    0.0000 C   0  0  0  0  0  0  0  0  0  0  0  0
   -1.7062    0.7210    0.0000 C   0  0  0  0  0  0  0  0  0  0  0  0
   -1.2937    1.4354    0.0000 C   0  0  0  0  0  0  0  0  0  0  0  0
    1.5154    0.8315    0.0000 C   0  0  0  0  0  0  0  0  0  0  0  0
    2.2298    0.4190    0.0000 C   0  0  0  0  0  0  0  0  0  0  0  0
    2.2298   -0.4060    0.0000 C   0  0  0  0  0  0  0  0  0  0  0  0
    1.5154   -0.8185    0.0000 C   0  0  0  0  0  0  0  0  0  0  0  0
    2.9443   -0.8185    0.0000 C   0  0  0  0  0  0  0  0  0  0  0  0
    3.6588   -0.4060    0.0000 N   0  0  0  0  0  0  0  0  0  0  0  0
    2.9443   -1.6435    0.0000 N   0  0  0  0  0  0  0  0  0  0  0  0
   -0.2879    1.6102    0.0000 H   0  0  0  0  0  0  0  0  0  0  0  0
   -0.3026   -1.6424    0.0000 H   0  0  0  0  0  0  0  0  0  0  0  0
   -1.1902   -1.6017    0.0000 H   0  0  0  0  0  0  0  0  0  0  0  0
   -3.0472   -1.6017    0.0000 H   0  0  0  0  0  0  0  0  0  0  0  0
   -3.9757    0.0065    0.0000 H   0  0  0  0  0  0  0  0  0  0  0  0
   -3.0472    1.6147    0.0000 H   0  0  0  0  0  0  0  0  0  0  0  0
   -0.2237    1.4354    0.0000 H   0  0  0  0  0  0  0  0  0  0  0  0
   -1.8287    2.3621    0.0000 H   0  0  0  0  0  0  0  0  0  0  0  0
   -0.7587    2.3620    0.0000 H   0  0  0  0  0  0  0  0  0  0  0  0
    1.5154    1.8635    0.0000 H   0  0  0  0  0  0  0  0  0  0  0  0
    3.1235    0.9350    0.0000 H   0  0  0  0  0  0  0  0  0  0  0  0
    1.5154   -1.8505    0.0000 H   0  0  0  0  0  0  0  0  0  0  0  0
    4.5114   -0.8983    0.0000 H   0  0  0  0  0  0  0  0  0  0  0  0
    2.0917   -2.1358    0.0000 H   0  0  0  0  0  0  0  0  0  0  0  0
    3.7969   -2.1357    0.0000 H   0  0  0  0  0  0  0  0  0  0  0  0
  1  2  2  0  0  0  0
  1  5  1  0  0  0  0
  1 16  1  0  0  0  0
  2  3  1  0  0  0  0
  2 13  1  0  0  0  0
  3  4  1  0  0  0  0
  3 20  1  0  0  0  0
  4  5  2  0  0  0  0
  4  6  1  0  0  0  0
  5 21  1  0  0  0  0
  6  7  1  0  0  0  0
  6 11  2  0  0  0  0
  7  8  2  0  0  0  0
  7 22  1  0  0  0  0
  8  9  1  0  0  0  0
  8 23  1  0  0  0  0
  9 10  2  0  0  0  0
  9 24  1  0  0  0  0
 10 11  1  0  0  0  0
 10 25  1  0  0  0  0
 11 12  1  0  0  0  0
 12 26  1  0  0  0  0
 12 27  1  0  0  0  0
 12 28  1  0  0  0  0
 13 14  2  0  0  0  0
 13 29  1  0  0  0  0
 14 15  1  0  0  0  0
 14 30  1  0  0  0  0
 15 16  2  0  0  0  0
 15 17  1  0  0  0  0
 16 31  1  0  0  0  0
 17 18  2  0  0  0  0
 17 19  1  0  0  0  0
 18 32  1  0  0  0  0
 19 33  1  0  0  0  0
 19 34  1  0  0  0  0
M  END
>  <DRUGBANK_ID>
DB08184

>  <COMMON_NAME>
2-(2-METHYLPHENYL)-1H-INDOLE-5-CARBOXIMIDAMIDE

$$$$
