
 OpenBabel10282417072D

 20 20  0  0  0  0  0  0  0  0999 V2000
   -0.3572   -1.2374    0.0000 C   0  0  0  0  0  0  0  0  0  0  0  0
   -1.0717   -0.8250    0.0000 C   0  0  0  0  0  0  0  0  0  0  0  0
    0.3572   -0.8250    0.0000 C   0  0  0  0  0  0  0  0  0  0  0  0
    0.3572    0.0000    0.0000 C   0  0  0  0  0  0  0  0  0  0  0  0
   -0.3572    0.4125    0.0000 C   0  0  0  0  0  0  0  0  0  0  0  0
   -1.0717    0.0000    0.0000 C   0  0  0  0  0  0  0  0  0  0  0  0
    1.7860   -0.8250    0.0000 C   0  0  0  0  0  0  0  0  0  0  0  0
    1.7860    0.0000    0.0000 O   0  0  0  0  0  0  0  0  0  0  0  0
    2.5005   -1.2374    0.0000 O   0  0  0  0  0  0  0  0  0  0  0  0
    1.0716   -1.2374    0.0000 C   0  0  0  0  0  0  0  0  0  0  0  0
   -1.7861    0.4125    0.0000 N   0  3  0  0  0  0  0  0  0  0  0  0
   -1.7861    1.2374    0.0000 O   0  0  0  0  0  0  0  0  0  0  0  0
   -2.5006    0.0000    0.0000 O   0  5  0  0  0  0  0  0  0  0  0  0
   -0.3572   -2.2694    0.0000 H   0  0  0  0  0  0  0  0  0  0  0  0
   -1.9654   -1.3411    0.0000 H   0  0  0  0  0  0  0  0  0  0  0  0
    1.2509    0.5160    0.0000 H   0  0  0  0  0  0  0  0  0  0  0  0
   -0.3572    1.4445    0.0000 H   0  0  0  0  0  0  0  0  0  0  0  0
    2.5006   -2.1744    0.0000 H   0  0  0  0  0  0  0  0  0  0  0  0
    1.0716   -2.3074    0.0000 H   0  0  0  0  0  0  0  0  0  0  0  0
    1.9982   -1.7724    0.0000 H   0  0  0  0  0  0  0  0  0  0  0  0
  1  3  2  0  0  0  0
  1 14  1  0  0  0  0
  2  1  1  0  0  0  0
  2 15  1  0  0  0  0
  3 10  1  0  0  0  0
  4  3  1  0  0  0  0
  4 16  1  0  0  0  0
  5  4  2  0  0  0  0
  5 17  1  0  0  0  0
  6  5  1  0  0  0  0
  6  2  2  0  0  0  0
  6 11  1  0  0  0  0
  8  7  2  0  0  0  0
  9  7  1  0  0  0  0
  9 18  1  0  0  0  0
 10  7  1  0  0  0  0
 10 19  1  0  0  0  0
 10 20  1  0  0  0  0
 11 12  2  0  0  0  0
 11 13  1  0  0  0  0
M  CHG  2  11   1  13  -1
M  END
>  <DRUGBANK_ID>
DB07331

>  <COMMON_NAME>
p-Nitrophenylacetic acid

>  <CAS_NUMBER>
104-03-0

>  <UNII>
KLB4P626RE

>  <SYNONYMS>
(4-nitrophenyl)acetic acid; 2-(p-nitrophenyl)acetic acid; 4-nitrobenzeneacetic acid; 4-nitrophenylacetic acid

$$$$
