
 OpenBabel10282417072D

 43 43  0  0  1  0  0  0  0  0999 V2000
    2.8579    6.6000    0.0000 C   0  0  0  0  0  0  0  0  0  0  0  0
    2.8579    5.7750    0.0000 C   0  0  0  0  0  0  0  0  0  0  0  0
    3.5724    5.3625    0.0000 C   0  0  0  0  0  0  0  0  0  0  0  0
    2.1434    5.3625    0.0000 C   0  0  0  0  0  0  0  0  0  0  0  0
    2.1434    4.5375    0.0000 C   0  0  0  0  0  0  0  0  0  0  0  0
    1.4289    4.1250    0.0000 C   0  0  0  0  0  0  0  0  0  0  0  0
    1.4289    3.3000    0.0000 C   0  0  1  0  0  0  0  0  0  0  0  0
    0.6039    3.3000    0.0000 C   0  0  0  0  0  0  0  0  0  0  0  0
    2.2539    3.3000    0.0000 C   0  0  0  0  0  0  0  0  0  0  0  0
    2.6664    2.5855    0.0000 C   0  0  0  0  0  0  0  0  0  0  0  0
    1.4289    2.4750    0.0000 C   0  0  0  0  0  0  0  0  0  0  0  0
    0.7145    2.0625    0.0000 C   0  0  0  0  0  0  0  0  0  0  0  0
    0.7145    1.2375    0.0000 C   0  0  0  0  0  0  0  0  0  0  0  0
    1.4289    0.8250    0.0000 C   0  0  0  0  0  0  0  0  0  0  0  0
    1.4289   -0.0000    0.0000 C   0  0  0  0  0  0  0  0  0  0  0  0
    0.7145   -0.4125    0.0000 C   0  0  0  0  0  0  0  0  0  0  0  0
    0.7145   -1.2375    0.0000 O   0  0  0  0  0  0  0  0  0  0  0  0
    0.0000    0.0000    0.0000 C   0  0  0  0  0  0  0  0  0  0  0  0
    0.0000    0.8250    0.0000 C   0  0  0  0  0  0  0  0  0  0  0  0
    3.7845    7.1350    0.0000 H   0  0  0  0  0  0  0  0  0  0  0  0
    1.9313    7.1350    0.0000 H   0  0  0  0  0  0  0  0  0  0  0  0
    2.8579    7.6700    0.0000 H   0  0  0  0  0  0  0  0  0  0  0  0
    3.5724    4.2925    0.0000 H   0  0  0  0  0  0  0  0  0  0  0  0
    4.4990    5.8975    0.0000 H   0  0  0  0  0  0  0  0  0  0  0  0
    4.4991    4.8275    0.0000 H   0  0  0  0  0  0  0  0  0  0  0  0
    1.2497    5.8785    0.0000 H   0  0  0  0  0  0  0  0  0  0  0  0
    3.0700    4.0025    0.0000 H   0  0  0  0  0  0  0  0  0  0  0  0
    2.1434    3.4675    0.0000 H   0  0  0  0  0  0  0  0  0  0  0  0
    0.5023    4.6600    0.0000 H   0  0  0  0  0  0  0  0  0  0  0  0
    0.5023    3.5900    0.0000 H   0  0  0  0  0  0  0  0  0  0  0  0
    0.0689    4.2266    0.0000 H   0  0  0  0  0  0  0  0  0  0  0  0
    0.0689    2.3734    0.0000 H   0  0  0  0  0  0  0  0  0  0  0  0
   -0.4661    3.3000    0.0000 H   0  0  0  0  0  0  0  0  0  0  0  0
    2.7699    4.1937    0.0000 H   0  0  0  0  0  0  0  0  0  0  0  0
    2.1504    1.6918    0.0000 H   0  0  0  0  0  0  0  0  0  0  0  0
    3.6984    2.5855    0.0000 H   0  0  0  0  0  0  0  0  0  0  0  0
    2.3226    1.9590    0.0000 H   0  0  0  0  0  0  0  0  0  0  0  0
   -0.1792    2.5785    0.0000 H   0  0  0  0  0  0  0  0  0  0  0  0
    2.3226    1.3410    0.0000 H   0  0  0  0  0  0  0  0  0  0  0  0
    2.3226   -0.5160    0.0000 H   0  0  0  0  0  0  0  0  0  0  0  0
   -0.0970   -1.7060    0.0000 H   0  0  0  0  0  0  0  0  0  0  0  0
   -0.8937   -0.5160    0.0000 H   0  0  0  0  0  0  0  0  0  0  0  0
   -0.8937    1.3410    0.0000 H   0  0  0  0  0  0  0  0  0  0  0  0
  1  2  1  0  0  0  0
  1 20  1  0  0  0  0
  1 21  1  0  0  0  0
  1 22  1  0  0  0  0
  2  3  1  0  0  0  0
  2  4  2  0  0  0  0
  3 23  1  0  0  0  0
  3 24  1  0  0  0  0
  3 25  1  0  0  0  0
  4  5  1  0  0  0  0
  4 26  1  0  0  0  0
  5  6  1  0  0  0  0
  5 27  1  0  0  0  0
  5 28  1  0  0  0  0
  6 29  1  0  0  0  0
  6 30  1  0  0  0  0
  7  6  1  0  0  0  0
  7  8  1  0  0  0  0
  7  9  1  6  0  0  0
  7 11  1  0  0  0  0
  8 31  1  0  0  0  0
  8 32  1  0  0  0  0
  8 33  1  0  0  0  0
  9 10  2  0  0  0  0
  9 34  1  0  0  0  0
 10 35  1  0  0  0  0
 10 36  1  0  0  0  0
 11 12  2  0  0  0  0
 11 37  1  0  0  0  0
 12 13  1  0  0  0  0
 12 38  1  0  0  0  0
 13 14  2  0  0  0  0
 13 19  1  0  0  0  0
 14 15  1  0  0  0  0
 14 39  1  0  0  0  0
 15 16  2  0  0  0  0
 15 40  1  0  0  0  0
 16 17  1  0  0  0  0
 16 18  1  0  0  0  0
 17 41  1  0  0  0  0
 18 19  2  0  0  0  0
 18 42  1  0  0  0  0
 19 43  1  0  0  0  0
M  END
>  <DRUGBANK_ID>
DB16102

>  <COMMON_NAME>
Bakuchiol

>  <CAS_NUMBER>
10309-37-2

>  <UNII>
OT12HJU3AR

>  <SYNONYMS>
(+)-bakuchiol; (s)-bakuchiol; Drupanol; Sytenol a

$$$$
