NR2
 OpenBabel10282417072D

 39 40  0  0  0  0  0  0  0  0999 V2000
   -3.5149   -0.3873    0.0000 S   0  0  0  0  0  0  0  0  0  0  0  0
   -4.2294   -0.7998    0.0000 N   0  0  0  0  0  0  0  0  0  0  0  0
   -3.1024   -1.1017    0.0000 O   0  0  0  0  0  0  0  0  0  0  0  0
   -3.9274    0.3272    0.0000 O   0  0  0  0  0  0  0  0  0  0  0  0
   -2.8004    0.0252    0.0000 C   0  0  0  0  0  0  0  0  0  0  0  0
   -2.8004    0.8502    0.0000 C   0  0  0  0  0  0  0  0  0  0  0  0
   -2.0860    1.2627    0.0000 C   0  0  0  0  0  0  0  0  0  0  0  0
   -1.3715    0.8502    0.0000 C   0  0  0  0  0  0  0  0  0  0  0  0
   -0.6570    1.2627    0.0000 N   0  0  0  0  0  0  0  0  0  0  0  0
    0.0575    0.8502    0.0000 C   0  0  0  0  0  0  0  0  0  0  0  0
    0.0575    0.0252    0.0000 O   0  0  0  0  0  0  0  0  0  0  0  0
    0.7719    1.2627    0.0000 N   0  0  0  0  0  0  0  0  0  0  0  0
    1.4864    0.8502    0.0000 S   0  0  0  0  0  0  0  0  0  0  0  0
    1.0739    0.1358    0.0000 O   0  0  0  0  0  0  0  0  0  0  0  0
    1.8989    1.5647    0.0000 O   0  0  0  0  0  0  0  0  0  0  0  0
    2.2009    0.4377    0.0000 C   0  0  0  0  0  0  0  0  0  0  0  0
    2.9153    0.8502    0.0000 C   0  0  0  0  0  0  0  0  0  0  0  0
    3.6298    0.4377    0.0000 C   0  0  0  0  0  0  0  0  0  0  0  0
    3.6298   -0.3873    0.0000 C   0  0  0  0  0  0  0  0  0  0  0  0
    4.3443   -0.7998    0.0000 C   0  0  0  0  0  0  0  0  0  0  0  0
    2.9153   -0.7998    0.0000 C   0  0  0  0  0  0  0  0  0  0  0  0
    2.2009   -0.3873    0.0000 C   0  0  0  0  0  0  0  0  0  0  0  0
   -1.3715    0.0252    0.0000 C   0  0  0  0  0  0  0  0  0  0  0  0
   -2.0860   -0.3873    0.0000 C   0  0  0  0  0  0  0  0  0  0  0  0
   -5.1127   -0.2898    0.0000 H   0  0  0  0  0  0  0  0  0  0  0  0
   -4.2294   -1.8198    0.0000 H   0  0  0  0  0  0  0  0  0  0  0  0
   -3.6941    1.3662    0.0000 H   0  0  0  0  0  0  0  0  0  0  0  0
   -2.0860    2.2947    0.0000 H   0  0  0  0  0  0  0  0  0  0  0  0
   -0.6570    2.2472    0.0000 H   0  0  0  0  0  0  0  0  0  0  0  0
    0.7719    2.2472    0.0000 H   0  0  0  0  0  0  0  0  0  0  0  0
    2.9153    1.8822    0.0000 H   0  0  0  0  0  0  0  0  0  0  0  0
    4.5235    0.9537    0.0000 H   0  0  0  0  0  0  0  0  0  0  0  0
    4.3443   -1.8698    0.0000 H   0  0  0  0  0  0  0  0  0  0  0  0
    5.2709   -0.2648    0.0000 H   0  0  0  0  0  0  0  0  0  0  0  0
    5.2710   -1.3348    0.0000 H   0  0  0  0  0  0  0  0  0  0  0  0
    2.9153   -1.8318    0.0000 H   0  0  0  0  0  0  0  0  0  0  0  0
    1.3072   -0.9033    0.0000 H   0  0  0  0  0  0  0  0  0  0  0  0
   -0.4778   -0.4908    0.0000 H   0  0  0  0  0  0  0  0  0  0  0  0
   -2.0860   -1.4193    0.0000 H   0  0  0  0  0  0  0  0  0  0  0  0
  1  2  1  0  0  0  0
  1  3  2  0  0  0  0
  1  4  2  0  0  0  0
  1  5  1  0  0  0  0
  2 25  1  0  0  0  0
  2 26  1  0  0  0  0
  5  6  1  0  0  0  0
  5 24  2  0  0  0  0
  6  7  2  0  0  0  0
  6 27  1  0  0  0  0
  7  8  1  0  0  0  0
  7 28  1  0  0  0  0
  8  9  1  0  0  0  0
  8 23  2  0  0  0  0
  9 10  1  0  0  0  0
  9 29  1  0  0  0  0
 10 11  2  0  0  0  0
 10 12  1  0  0  0  0
 12 13  1  0  0  0  0
 12 30  1  0  0  0  0
 13 14  2  0  0  0  0
 13 15  2  0  0  0  0
 13 16  1  0  0  0  0
 16 17  1  0  0  0  0
 16 22  2  0  0  0  0
 17 18  2  0  0  0  0
 17 31  1  0  0  0  0
 18 19  1  0  0  0  0
 18 32  1  0  0  0  0
 19 20  1  0  0  0  0
 19 21  2  0  0  0  0
 20 33  1  0  0  0  0
 20 34  1  0  0  0  0
 20 35  1  0  0  0  0
 21 22  1  0  0  0  0
 21 36  1  0  0  0  0
 22 37  1  0  0  0  0
 23 24  1  0  0  0  0
 23 38  1  0  0  0  0
 24 39  1  0  0  0  0
M  END
>  <DRUGBANK_ID>
DB08301

>  <COMMON_NAME>
N-({[4-(AMINOSULFONYL)PHENYL]AMINO}CARBONYL)-4-METHYLBENZENESULFONAMIDE

$$$$
