FRT
 OpenBabel10282417072D

 56 58  0  0  0  0  0  0  0  0999 V2000
   -1.5062   -0.2009    0.0000 C   0  0  0  0  0  0  0  0  0  0  0  0
   -1.5062    0.6241    0.0000 N   0  0  0  0  0  0  0  0  0  0  0  0
   -0.7917    1.0367    0.0000 C   0  0  0  0  0  0  0  0  0  0  0  0
   -0.0772    0.6241    0.0000 N   0  0  0  0  0  0  0  0  0  0  0  0
   -0.0772   -0.2009    0.0000 C   0  0  0  0  0  0  0  0  0  0  0  0
   -0.7917   -0.6134    0.0000 C   0  0  0  0  0  0  0  0  0  0  0  0
   -0.7917    1.8617    0.0000 N   0  0  0  0  0  0  0  0  0  0  0  0
   -0.0772    2.2742    0.0000 C   0  0  0  0  0  0  0  0  0  0  0  0
   -0.0772    3.0993    0.0000 C   0  0  0  0  0  0  0  0  0  0  0  0
    0.6373    3.5118    0.0000 C   0  0  0  0  0  0  0  0  0  0  0  0
    1.3518    3.0993    0.0000 C   0  0  0  0  0  0  0  0  0  0  0  0
    1.3518    2.2742    0.0000 C   0  0  0  0  0  0  0  0  0  0  0  0
    0.6373    1.8617    0.0000 C   0  0  0  0  0  0  0  0  0  0  0  0
    2.0663    3.5118    0.0000 S   0  0  0  0  0  0  0  0  0  0  0  0
    2.7809    3.9243    0.0000 N   0  0  0  0  0  0  0  0  0  0  0  0
    3.4954    3.5118    0.0000 C   0  0  0  0  0  0  0  0  0  0  0  0
    4.2099    3.9243    0.0000 C   0  0  0  0  0  0  0  0  0  0  0  0
    4.9244    3.5118    0.0000 O   0  0  0  0  0  0  0  0  0  0  0  0
    5.6390    3.9243    0.0000 C   0  0  0  0  0  0  0  0  0  0  0  0
   -2.2207   -0.6134    0.0000 C   0  0  0  0  0  0  0  0  0  0  0  0
   -2.3069   -1.4339    0.0000 N   0  0  0  0  0  0  0  0  0  0  0  0
   -3.1140   -1.6055    0.0000 C   0  0  0  0  0  0  0  0  0  0  0  0
   -3.5265   -0.8910    0.0000 N   0  0  0  0  0  0  0  0  0  0  0  0
   -2.9745   -0.2778    0.0000 C   0  0  0  0  0  0  0  0  0  0  0  0
   -1.6938   -1.9860    0.0000 C   0  0  0  0  0  0  0  0  0  0  0  0
   -1.8654   -2.7930    0.0000 C   0  0  0  0  0  0  0  0  0  0  0  0
   -0.9092   -1.7310    0.0000 C   0  0  0  0  0  0  0  0  0  0  0  0
   -3.4496   -2.3591    0.0000 C   0  0  0  0  0  0  0  0  0  0  0  0
    1.6538    4.2264    0.0000 O   0  0  0  0  0  0  0  0  0  0  0  0
    2.4789    2.7974    0.0000 O   0  0  0  0  0  0  0  0  0  0  0  0
    0.8165   -0.7169    0.0000 H   0  0  0  0  0  0  0  0  0  0  0  0
   -0.7917   -1.6454    0.0000 H   0  0  0  0  0  0  0  0  0  0  0  0
   -1.6443    2.3540    0.0000 H   0  0  0  0  0  0  0  0  0  0  0  0
   -0.9709    3.6153    0.0000 H   0  0  0  0  0  0  0  0  0  0  0  0
    0.6373    4.5438    0.0000 H   0  0  0  0  0  0  0  0  0  0  0  0
    2.2455    1.7582    0.0000 H   0  0  0  0  0  0  0  0  0  0  0  0
    0.6373    0.8297    0.0000 H   0  0  0  0  0  0  0  0  0  0  0  0
    2.7809    4.9443    0.0000 H   0  0  0  0  0  0  0  0  0  0  0  0
    3.4954    2.4418    0.0000 H   0  0  0  0  0  0  0  0  0  0  0  0
    4.4220    2.9768    0.0000 H   0  0  0  0  0  0  0  0  0  0  0  0
    4.2099    4.9943    0.0000 H   0  0  0  0  0  0  0  0  0  0  0  0
    5.1365    4.4593    0.0000 H   0  0  0  0  0  0  0  0  0  0  0  0
    6.5656    3.3892    0.0000 H   0  0  0  0  0  0  0  0  0  0  0  0
    5.6391    4.9943    0.0000 H   0  0  0  0  0  0  0  0  0  0  0  0
    6.5657    4.4592    0.0000 H   0  0  0  0  0  0  0  0  0  0  0  0
   -3.1891    0.7316    0.0000 H   0  0  0  0  0  0  0  0  0  0  0  0
   -0.8986   -2.7020    0.0000 H   0  0  0  0  0  0  0  0  0  0  0  0
   -2.8831   -3.1236    0.0000 H   0  0  0  0  0  0  0  0  0  0  0  0
   -1.0703   -3.5090    0.0000 H   0  0  0  0  0  0  0  0  0  0  0  0
   -2.0879   -3.8396    0.0000 H   0  0  0  0  0  0  0  0  0  0  0  0
   -0.1140   -2.4469    0.0000 H   0  0  0  0  0  0  0  0  0  0  0  0
   -0.6868   -0.6844    0.0000 H   0  0  0  0  0  0  0  0  0  0  0  0
    0.1084   -1.4003    0.0000 H   0  0  0  0  0  0  0  0  0  0  0  0
   -4.5137   -2.4709    0.0000 H   0  0  0  0  0  0  0  0  0  0  0  0
   -2.8207   -3.2248    0.0000 H   0  0  0  0  0  0  0  0  0  0  0  0
   -3.8849   -3.3366    0.0000 H   0  0  0  0  0  0  0  0  0  0  0  0
  1  2  1  0  0  0  0
  1  6  2  0  0  0  0
  1 20  1  0  0  0  0
  2  3  2  0  0  0  0
  3  4  1  0  0  0  0
  3  7  1  0  0  0  0
  4  5  2  0  0  0  0
  5  6  1  0  0  0  0
  5 31  1  0  0  0  0
  6 32  1  0  0  0  0
  7  8  1  0  0  0  0
  7 33  1  0  0  0  0
  8  9  1  0  0  0  0
  8 13  2  0  0  0  0
  9 10  2  0  0  0  0
  9 34  1  0  0  0  0
 10 11  1  0  0  0  0
 10 35  1  0  0  0  0
 11 12  2  0  0  0  0
 11 14  1  0  0  0  0
 12 13  1  0  0  0  0
 12 36  1  0  0  0  0
 13 37  1  0  0  0  0
 14 15  1  0  0  0  0
 14 29  2  0  0  0  0
 14 30  2  0  0  0  0
 15 16  1  0  0  0  0
 15 38  1  0  0  0  0
 16 17  1  0  0  0  0
 16 39  1  0  0  0  0
 16 40  1  0  0  0  0
 17 18  1  0  0  0  0
 17 41  1  0  0  0  0
 17 42  1  0  0  0  0
 18 19  1  0  0  0  0
 19 43  1  0  0  0  0
 19 44  1  0  0  0  0
 19 45  1  0  0  0  0
 20 21  1  0  0  0  0
 20 24  2  0  0  0  0
 21 22  1  0  0  0  0
 21 25  1  0  0  0  0
 22 23  2  0  0  0  0
 22 28  1  0  0  0  0
 23 24  1  0  0  0  0
 24 46  1  0  0  0  0
 25 26  1  0  0  0  0
 25 27  1  0  0  0  0
 25 47  1  0  0  0  0
 26 48  1  0  0  0  0
 26 49  1  0  0  0  0
 26 50  1  0  0  0  0
 27 51  1  0  0  0  0
 27 52  1  0  0  0  0
 27 53  1  0  0  0  0
 28 54  1  0  0  0  0
 28 55  1  0  0  0  0
 28 56  1  0  0  0  0
M  END
>  <DRUGBANK_ID>
DB07790

>  <COMMON_NAME>
N-(2-METHOXYETHYL)-4-({4-[2-METHYL-1-(1-METHYLETHYL)-1H-IMIDAZOL-5-YL]PYRIMIDIN-2-YL}AMINO)BENZENESULFONAMIDE

$$$$
