
 OpenBabel10282417072D

 23 22  0  0  0  0  0  0  0  0999 V2000
    2.5006   -0.2062    0.0000 O   0  0  0  0  0  0  0  0  0  0  0  0
    1.7861    0.2062    0.0000 C   0  0  0  0  0  0  0  0  0  0  0  0
   -0.3572   -0.2062    0.0000 C   0  0  0  0  0  0  0  0  0  0  0  0
    0.3572    0.2062    0.0000 N   0  0  0  0  0  0  0  0  0  0  0  0
   -1.0716    0.2062    0.0000 N   0  0  0  0  0  0  0  0  0  0  0  0
    1.0717   -0.2062    0.0000 C   0  0  0  0  0  0  0  0  0  0  0  0
   -1.7861   -0.2062    0.0000 P   0  0  0  0  0  0  0  0  0  0  0  0
   -0.3572   -1.0312    0.0000 N   0  0  0  0  0  0  0  0  0  0  0  0
    0.3572    1.0312    0.0000 C   0  0  0  0  0  0  0  0  0  0  0  0
   -1.7861   -1.0312    0.0000 O   0  0  0  0  0  0  0  0  0  0  0  0
   -2.5006    0.2062    0.0000 O   0  0  0  0  0  0  0  0  0  0  0  0
    1.7861    1.0312    0.0000 O   0  0  0  0  0  0  0  0  0  0  0  0
   -2.5006   -0.6187    0.0000 O   0  0  0  0  0  0  0  0  0  0  0  0
    2.5007   -1.1432    0.0000 H   0  0  0  0  0  0  0  0  0  0  0  0
   -1.0716    1.1907    0.0000 H   0  0  0  0  0  0  0  0  0  0  0  0
    1.0717   -1.2762    0.0000 H   0  0  0  0  0  0  0  0  0  0  0  0
    0.1451   -0.7413    0.0000 H   0  0  0  0  0  0  0  0  0  0  0  0
   -1.2098   -1.5234    0.0000 H   0  0  0  0  0  0  0  0  0  0  0  0
    1.2838    1.5662    0.0000 H   0  0  0  0  0  0  0  0  0  0  0  0
   -0.5694    1.5662    0.0000 H   0  0  0  0  0  0  0  0  0  0  0  0
    0.3572    2.1012    0.0000 H   0  0  0  0  0  0  0  0  0  0  0  0
   -2.5007    1.1762    0.0000 H   0  0  0  0  0  0  0  0  0  0  0  0
   -3.3406   -0.1337    0.0000 H   0  0  0  0  0  0  0  0  0  0  0  0
  1 14  1  0  0  0  0
  2  1  1  0  0  0  0
  2 12  2  0  0  0  0
  3  8  2  0  0  0  0
  3  4  1  0  0  0  0
  3  5  1  0  0  0  0
  4  9  1  0  0  0  0
  4  6  1  0  0  0  0
  5  7  1  0  0  0  0
  5 15  1  0  0  0  0
  6  2  1  0  0  0  0
  6 16  1  0  0  0  0
  6 17  1  0  0  0  0
  7 10  2  0  0  0  0
  7 11  1  0  0  0  0
  7 13  1  0  0  0  0
  8 18  1  0  0  0  0
  9 19  1  0  0  0  0
  9 20  1  0  0  0  0
  9 21  1  0  0  0  0
 11 22  1  0  0  0  0
 13 23  1  0  0  0  0
M  END
>  <DRUGBANK_ID>
DB13191

>  <COMMON_NAME>
Phosphocreatine

>  <CAS_NUMBER>
67-07-2

>  <UNII>
020IUV4N33

>  <SYNONYMS>
Creatine phosphate; Creatine phosphic acid; Creatine-P; Fosfocreatine; N-(N-phosphonoamido)sarcosine; N-(Phosphonoamidino)sarcosine; N-phosphocreatine; N-Phosphorylcreatine; phosphorylcreatine

$$$$
