1000
 OpenBabel10282417072D

 46 48  0  0  1  0  0  0  0  0999 V2000
    6.2365    0.4594    0.0000 S   0  0  0  0  0  0  0  0  0  0  0  0
    4.0378   -1.2085    0.0000 O   0  0  0  0  0  0  0  0  0  0  0  0
    5.9394   -2.2733    0.0000 O   0  0  0  0  0  0  0  0  0  0  0  0
    3.3108   -0.2415    0.0000 O   0  0  0  0  0  0  0  0  0  0  0  0
    7.2984   -1.8317    0.0000 O   0  0  0  0  0  0  0  0  0  0  0  0
    5.4519   -0.6206    0.0000 N   0  0  0  0  0  0  0  0  0  0  0  0
    4.0378    0.7924    0.0000 N   0  0  0  0  0  0  0  0  0  0  0  0
    2.1838    0.4902    0.0000 N   0  0  0  0  0  0  0  0  0  0  0  0
    5.4519    0.2044    0.0000 C   0  0  1  0  0  0  0  0  0  0  0  0
    4.6200    0.2078    0.0000 C   0  0  1  0  0  0  0  0  0  0  0  0
    6.2365   -0.8755    0.0000 C   0  0  2  0  0  0  0  0  0  0  0  0
    6.7214   -0.2081    0.0000 C   0  0  0  0  0  0  0  0  0  0  0  0
    4.6200   -0.6240    0.0000 C   0  0  0  0  0  0  0  0  0  0  0  0
    2.6583    1.1651    0.0000 C   0  0  0  0  0  0  0  0  0  0  0  0
    7.3888   -0.6930    0.0000 C   0  0  0  0  0  0  0  0  0  0  0  0
    7.3888    0.2769    0.0000 C   0  0  0  0  0  0  0  0  0  0  0  0
    3.2429    1.7472    0.0000 C   0  0  0  0  0  0  0  0  0  0  0  0
    1.8619    1.3802    0.0000 C   0  0  0  0  0  0  0  0  0  0  0  0
    3.2405    0.5805    0.0000 C   0  0  0  0  0  0  0  0  0  0  0  0
    6.4914   -1.6602    0.0000 C   0  0  0  0  0  0  0  0  0  0  0  0
    3.0311    2.5446    0.0000 C   0  0  0  0  0  0  0  0  0  0  0  0
    1.6500    2.1776    0.0000 C   0  0  0  0  0  0  0  0  0  0  0  0
    2.2346    2.7597    0.0000 C   0  0  0  0  0  0  0  0  0  0  0  0
    5.3499    0.8565    0.0000 H   0  0  0  0  0  0  0  0  0  0  0  0
    5.0229   -2.0785    0.0000 H   0  0  0  0  0  0  0  0  0  0  0  0
    4.2946    1.7428    0.0000 H   0  0  0  0  0  0  0  0  0  0  0  0
    1.1679    0.5810    0.0000 H   0  0  0  0  0  0  0  0  0  0  0  0
    2.6131   -0.4351    0.0000 H   0  0  0  0  0  0  0  0  0  0  0  0
    5.0325    1.1951    0.0000 H   0  0  0  0  0  0  0  0  0  0  0  0
    5.4799   -1.6321    0.0000 H   0  0  0  0  0  0  0  0  0  0  0  0
    7.2769   -1.7571    0.0000 H   0  0  0  0  0  0  0  0  0  0  0  0
    8.3663   -0.2578    0.0000 H   0  0  0  0  0  0  0  0  0  0  0  0
    8.2544   -1.3219    0.0000 H   0  0  0  0  0  0  0  0  0  0  0  0
    8.3663   -0.1582    0.0000 H   0  0  0  0  0  0  0  0  0  0  0  0
    7.2768    1.3410    0.0000 H   0  0  0  0  0  0  0  0  0  0  0  0
    8.2544    0.9059    0.0000 H   0  0  0  0  0  0  0  0  0  0  0  0
    4.2758    1.4680    0.0000 H   0  0  0  0  0  0  0  0  0  0  0  0
    4.0011    2.5022    0.0000 H   0  0  0  0  0  0  0  0  0  0  0  0
    1.1038    0.6251    0.0000 H   0  0  0  0  0  0  0  0  0  0  0  0
    0.8289    1.6593    0.0000 H   0  0  0  0  0  0  0  0  0  0  0  0
    3.7893    3.2996    0.0000 H   0  0  0  0  0  0  0  0  0  0  0  0
    2.7563    3.5787    0.0000 H   0  0  0  0  0  0  0  0  0  0  0  0
    0.6170    2.4567    0.0000 H   0  0  0  0  0  0  0  0  0  0  0  0
    1.3753    3.2117    0.0000 H   0  0  0  0  0  0  0  0  0  0  0  0
    1.9598    3.7938    0.0000 H   0  0  0  0  0  0  0  0  0  0  0  0
    1.2016    3.0388    0.0000 H   0  0  0  0  0  0  0  0  0  0  0  0
  1  9  1  0  0  0  0
  1 12  1  0  0  0  0
  2 13  2  0  0  0  0
  3 20  1  0  0  0  0
  3 25  1  0  0  0  0
  4 19  2  0  0  0  0
  5 20  2  0  0  0  0
  6  9  1  0  0  0  0
  6 11  1  0  0  0  0
  6 13  1  0  0  0  0
  7 19  1  0  0  0  0
  7 26  1  0  0  0  0
  8 14  1  0  0  0  0
  8 27  1  0  0  0  0
  8 28  1  0  0  0  0
  9 10  1  0  0  0  0
  9 24  1  6  0  0  0
 10  7  1  0  0  0  0
 10 13  1  0  0  0  0
 10 29  1  6  0  0  0
 11 12  1  0  0  0  0
 11 20  1  0  0  0  0
 11 30  1  1  0  0  0
 12 15  1  0  0  0  0
 12 16  1  0  0  0  0
 14 17  1  0  0  0  0
 14 18  1  0  0  0  0
 14 19  1  0  0  0  0
 15 31  1  0  0  0  0
 15 32  1  0  0  0  0
 15 33  1  0  0  0  0
 16 34  1  0  0  0  0
 16 35  1  0  0  0  0
 16 36  1  0  0  0  0
 17 21  1  0  0  0  0
 17 37  1  0  0  0  0
 17 38  1  0  0  0  0
 18 22  1  0  0  0  0
 18 39  1  0  0  0  0
 18 40  1  0  0  0  0
 21 23  1  0  0  0  0
 21 41  1  0  0  0  0
 21 42  1  0  0  0  0
 22 23  1  0  0  0  0
 22 43  1  0  0  0  0
 22 44  1  0  0  0  0
 23 45  1  0  0  0  0
 23 46  1  0  0  0  0
M  END
>  <DRUGBANK_ID>
DB01000

>  <SECONDARY_ACCESSION_NUMBERS>
APRD00892

>  <COMMON_NAME>
Cyclacillin

>  <CAS_NUMBER>
3485-14-1

>  <UNII>
72ZJ154X86

>  <SYNONYMS>
(1-aminocyclohexyl)penicillin; (2S,5R,6R)-6-{[(1-aminocyclohexyl)carbonyl]amino}-3,3-dimethyl-7-oxo-4-thia-1-azabicyclo[3.2.0]heptane-2-carboxylic acid; 6-(1-aminocyclohexanecarboxamido)penicillanic acid; 6-(1-aminocyclohexylcarboxamido)penicillanic acid; Ciclacilina; Ciclacillin; Ciclacilline; Ciclacillinum; Cyclacillin

$$$$
