
 OpenBabel10282417072D

 44 44  0  0  0  0  0  0  0  0999 V2000
   -2.4748   -0.0076    0.0000 P   0  0  0  0  0  0  0  0  0  0  0  0
   -1.6536   -0.0113    0.0000 O   0  0  0  0  0  0  0  0  0  0  0  0
   -3.2997   -0.0076    0.0000 O   0  0  0  0  0  0  0  0  0  0  0  0
   -2.4748    0.8136    0.0000 O   0  0  0  0  0  0  0  0  0  0  0  0
   -2.4785   -0.8325    0.0000 O   0  0  0  0  0  0  0  0  0  0  0  0
   -0.8287   -0.0076    0.0000 C   0  0  1  0  0  0  0  0  0  0  0  0
   -0.4162    0.7190    0.0000 C   0  0  1  0  0  0  0  0  0  0  0  0
   -0.4049   -0.7190    0.0000 C   0  0  1  0  0  0  0  0  0  0  0  0
    0.4201    0.7266    0.0000 C   0  0  2  0  0  0  0  0  0  0  0  0
   -0.8325    1.4228    0.0000 O   0  0  0  0  0  0  0  0  0  0  0  0
    0.4162   -0.7151    0.0000 C   0  0  1  0  0  0  0  0  0  0  0  0
   -0.8097   -1.4379    0.0000 O   0  0  0  0  0  0  0  0  0  0  0  0
    0.8287    0.0076    0.0000 C   0  0  1  0  0  0  0  0  0  0  0  0
    0.8287    1.4379    0.0000 O   0  0  0  0  0  0  0  0  0  0  0  0
   -0.8287    2.2439    0.0000 P   0  0  0  0  0  0  0  0  0  0  0  0
    0.8325   -1.4228    0.0000 O   0  0  0  0  0  0  0  0  0  0  0  0
    1.6499    0.0076    0.0000 O   0  0  0  0  0  0  0  0  0  0  0  0
   -1.6536    2.2439    0.0000 O   0  0  0  0  0  0  0  0  0  0  0  0
   -0.8287    3.0689    0.0000 O   0  0  0  0  0  0  0  0  0  0  0  0
   -0.0076    2.2402    0.0000 O   0  0  0  0  0  0  0  0  0  0  0  0
    0.8287   -2.2439    0.0000 P   0  0  0  0  0  0  0  0  0  0  0  0
    2.4709    0.0076    0.0000 P   0  0  0  0  0  0  0  0  0  0  0  0
    1.6536   -2.2477    0.0000 O   0  0  0  0  0  0  0  0  0  0  0  0
    0.0076   -2.2439    0.0000 O   0  0  0  0  0  0  0  0  0  0  0  0
    0.8249   -3.0689    0.0000 O   0  0  0  0  0  0  0  0  0  0  0  0
    3.2959    0.0037    0.0000 O   0  0  0  0  0  0  0  0  0  0  0  0
    2.4748    0.8325    0.0000 O   0  0  0  0  0  0  0  0  0  0  0  0
    2.4672   -0.8136    0.0000 O   0  0  0  0  0  0  0  0  0  0  0  0
   -3.7847    0.8324    0.0000 H   0  0  0  0  0  0  0  0  0  0  0  0
   -1.6348    1.2986    0.0000 H   0  0  0  0  0  0  0  0  0  0  0  0
   -1.3691    0.9159    0.0000 H   0  0  0  0  0  0  0  0  0  0  0  0
   -1.4862    0.7095    0.0000 H   0  0  0  0  0  0  0  0  0  0  0  0
   -1.4748   -0.7321    0.0000 H   0  0  0  0  0  0  0  0  0  0  0  0
   -0.1201    1.6502    0.0000 H   0  0  0  0  0  0  0  0  0  0  0  0
   -0.1128   -1.6452    0.0000 H   0  0  0  0  0  0  0  0  0  0  0  0
   -1.7796   -1.4483    0.0000 H   0  0  0  0  0  0  0  0  0  0  0  0
    1.3669    0.9324    0.0000 H   0  0  0  0  0  0  0  0  0  0  0  0
    1.7987    1.4400    0.0000 H   0  0  0  0  0  0  0  0  0  0  0  0
   -2.1386    3.0839    0.0000 H   0  0  0  0  0  0  0  0  0  0  0  0
    0.0113    3.5539    0.0000 H   0  0  0  0  0  0  0  0  0  0  0  0
    2.1347   -3.0900    0.0000 H   0  0  0  0  0  0  0  0  0  0  0  0
   -0.4774   -1.4039    0.0000 H   0  0  0  0  0  0  0  0  0  0  0  0
    3.7769   -0.8386    0.0000 H   0  0  0  0  0  0  0  0  0  0  0  0
    3.3171    1.3135    0.0000 H   0  0  0  0  0  0  0  0  0  0  0  0
  1  2  1  0  0  0  0
  1  3  1  0  0  0  0
  1  4  1  0  0  0  0
  1  5  2  0  0  0  0
  3 29  1  0  0  0  0
  4 30  1  0  0  0  0
  6  2  1  0  0  0  0
  6  7  1  0  0  0  0
  6  8  1  0  0  0  0
  6 31  1  6  0  0  0
  7  9  1  0  0  0  0
  7 10  1  0  0  0  0
  7 32  1  1  0  0  0
  8 11  1  0  0  0  0
  8 12  1  0  0  0  0
  8 33  1  6  0  0  0
  9 13  1  0  0  0  0
  9 14  1  0  0  0  0
  9 34  1  6  0  0  0
 10 15  1  0  0  0  0
 11 16  1  0  0  0  0
 11 13  1  0  0  0  0
 11 35  1  6  0  0  0
 12 36  1  0  0  0  0
 13 17  1  0  0  0  0
 13 37  1  1  0  0  0
 14 38  1  0  0  0  0
 15 18  1  0  0  0  0
 15 19  1  0  0  0  0
 15 20  2  0  0  0  0
 16 21  1  0  0  0  0
 17 22  1  0  0  0  0
 18 39  1  0  0  0  0
 19 40  1  0  0  0  0
 21 23  1  0  0  0  0
 21 24  1  0  0  0  0
 21 25  2  0  0  0  0
 22 26  1  0  0  0  0
 22 27  1  0  0  0  0
 22 28  2  0  0  0  0
 23 41  1  0  0  0  0
 24 42  1  0  0  0  0
 26 43  1  0  0  0  0
 27 44  1  0  0  0  0
M  END
>  <DRUGBANK_ID>
DB04300

>  <SECONDARY_ACCESSION_NUMBERS>
EXPT01814

>  <COMMON_NAME>
(1s,3r,4r,6s)-1,3,4,6-Tetrapkisphosphate

$$$$
