
 OpenBabel10282417072D

 45 47  0  0  0  0  0  0  0  0999 V2000
   -1.8722   -0.3487    0.0000 S   0  0  0  0  0  0  0  0  0  0  0  0
   -1.3873   -1.0162    0.0000 C   0  0  0  0  0  0  0  0  0  0  0  0
   -1.8723   -1.6836    0.0000 N   0  0  0  0  0  0  0  0  0  0  0  0
   -2.6568   -1.4286    0.0000 C   0  0  0  0  0  0  0  0  0  0  0  0
   -2.6568   -0.6036    0.0000 C   0  0  0  0  0  0  0  0  0  0  0  0
   -3.3713   -1.8410    0.0000 C   0  0  0  0  0  0  0  0  0  0  0  0
   -4.0858   -1.4284    0.0000 C   0  0  0  0  0  0  0  0  0  0  0  0
   -4.0857   -0.6034    0.0000 C   0  0  0  0  0  0  0  0  0  0  0  0
   -3.3712   -0.1910    0.0000 C   0  0  0  0  0  0  0  0  0  0  0  0
   -0.5623   -1.0163    0.0000 C   0  0  0  0  0  0  0  0  0  0  0  0
   -0.1499   -1.7308    0.0000 C   0  0  0  0  0  0  0  0  0  0  0  0
    0.6750   -1.7309    0.0000 C   0  0  0  0  0  0  0  0  0  0  0  0
    1.0876   -1.0165    0.0000 C   0  0  0  0  0  0  0  0  0  0  0  0
    0.6752   -0.3020    0.0000 C   0  0  0  0  0  0  0  0  0  0  0  0
   -0.1497   -0.3019    0.0000 C   0  0  0  0  0  0  0  0  0  0  0  0
    1.9126   -1.0165    0.0000 O   0  0  0  0  0  0  0  0  0  0  0  0
    2.3251   -0.3021    0.0000 C   0  0  0  0  0  0  0  0  0  0  0  0
    3.1501   -0.3022    0.0000 C   0  0  0  0  0  0  0  0  0  0  0  0
    3.5627    0.4121    0.0000 N   0  0  0  0  0  0  0  0  0  0  0  0
    4.3877    0.4120    0.0000 C   0  0  0  0  0  0  0  0  0  0  0  0
    4.8003    1.1265    0.0000 C   0  0  0  0  0  0  0  0  0  0  0  0
    3.1503    1.1266    0.0000 C   0  0  0  0  0  0  0  0  0  0  0  0
    3.5628    1.8410    0.0000 C   0  0  0  0  0  0  0  0  0  0  0  0
   -4.8003   -1.8409    0.0000 Cl  0  0  0  0  0  0  0  0  0  0  0  0
   -3.3714   -2.8730    0.0000 H   0  0  0  0  0  0  0  0  0  0  0  0
   -4.9794   -0.0873    0.0000 H   0  0  0  0  0  0  0  0  0  0  0  0
   -3.3711    0.8410    0.0000 H   0  0  0  0  0  0  0  0  0  0  0  0
   -0.6660   -2.6245    0.0000 H   0  0  0  0  0  0  0  0  0  0  0  0
    1.1909   -2.6247    0.0000 H   0  0  0  0  0  0  0  0  0  0  0  0
    1.1913    0.5917    0.0000 H   0  0  0  0  0  0  0  0  0  0  0  0
   -0.6656    0.5919    0.0000 H   0  0  0  0  0  0  0  0  0  0  0  0
    1.7902    0.6246    0.0000 H   0  0  0  0  0  0  0  0  0  0  0  0
    1.2551   -0.3020    0.0000 H   0  0  0  0  0  0  0  0  0  0  0  0
    3.6849   -1.2289    0.0000 H   0  0  0  0  0  0  0  0  0  0  0  0
    4.2201   -0.3024    0.0000 H   0  0  0  0  0  0  0  0  0  0  0  0
    4.9226   -0.5147    0.0000 H   0  0  0  0  0  0  0  0  0  0  0  0
    3.8526   -0.5146    0.0000 H   0  0  0  0  0  0  0  0  0  0  0  0
    5.8703    1.1264    0.0000 H   0  0  0  0  0  0  0  0  0  0  0  0
    4.2654    2.0532    0.0000 H   0  0  0  0  0  0  0  0  0  0  0  0
    5.3354    2.0531    0.0000 H   0  0  0  0  0  0  0  0  0  0  0  0
    2.0803    1.1267    0.0000 H   0  0  0  0  0  0  0  0  0  0  0  0
    2.6152    0.2000    0.0000 H   0  0  0  0  0  0  0  0  0  0  0  0
    4.6328    1.8410    0.0000 H   0  0  0  0  0  0  0  0  0  0  0  0
    3.0278    2.7677    0.0000 H   0  0  0  0  0  0  0  0  0  0  0  0
    4.0978    2.7676    0.0000 H   0  0  0  0  0  0  0  0  0  0  0  0
  1  2  1  0  0  0  0
  1  5  1  0  0  0  0
  2  3  2  0  0  0  0
  2 10  1  0  0  0  0
  3  4  1  0  0  0  0
  4  5  1  0  0  0  0
  4  6  2  0  0  0  0
  5  9  2  0  0  0  0
  6  7  1  0  0  0  0
  6 25  1  0  0  0  0
  7  8  2  0  0  0  0
  7 24  1  0  0  0  0
  8  9  1  0  0  0  0
  8 26  1  0  0  0  0
  9 27  1  0  0  0  0
 10 11  1  0  0  0  0
 10 15  2  0  0  0  0
 11 12  2  0  0  0  0
 11 28  1  0  0  0  0
 12 13  1  0  0  0  0
 12 29  1  0  0  0  0
 13 14  2  0  0  0  0
 13 16  1  0  0  0  0
 14 15  1  0  0  0  0
 14 30  1  0  0  0  0
 15 31  1  0  0  0  0
 16 17  1  0  0  0  0
 17 18  1  0  0  0  0
 17 32  1  0  0  0  0
 17 33  1  0  0  0  0
 18 19  1  0  0  0  0
 18 34  1  0  0  0  0
 18 35  1  0  0  0  0
 19 20  1  0  0  0  0
 19 22  1  0  0  0  0
 20 21  1  0  0  0  0
 20 36  1  0  0  0  0
 20 37  1  0  0  0  0
 21 38  1  0  0  0  0
 21 39  1  0  0  0  0
 21 40  1  0  0  0  0
 22 23  1  0  0  0  0
 22 41  1  0  0  0  0
 22 42  1  0  0  0  0
 23 43  1  0  0  0  0
 23 44  1  0  0  0  0
 23 45  1  0  0  0  0
M  END
>  <DRUGBANK_ID>
DB15942

>  <COMMON_NAME>
Haletazole

>  <CAS_NUMBER>
15599-36-7

>  <UNII>
U89MCO87LX

>  <SYNONYMS>
Haletazole; Halethazole

$$$$
