
 OpenBabel10282417072D

 47 50  0  0  0  0  0  0  0  0999 V2000
   -0.6410   -0.1114    0.0000 C   0  0  2  0  0  0  0  0  0  0  0  0
   -0.6410   -0.9364    0.0000 C   0  0  0  0  0  0  0  0  0  0  0  0
   -1.3544    0.3121    0.0000 C   0  0  0  0  0  0  0  0  0  0  0  0
   -1.3544   -1.3433    0.0000 C   0  0  0  0  0  0  0  0  0  0  0  0
   -2.0623   -0.1114    0.0000 C   0  0  0  0  0  0  0  0  0  0  0  0
   -2.0623   -0.9364    0.0000 C   0  0  0  0  0  0  0  0  0  0  0  0
    0.0836    0.3121    0.0000 C   0  0  2  0  0  0  0  0  0  0  0  0
    0.7915   -0.1114    0.0000 C   0  0  1  0  0  0  0  0  0  0  0  0
    0.0836   -1.3433    0.0000 C   0  0  0  0  0  0  0  0  0  0  0  0
    0.7915   -0.9364    0.0000 C   0  0  0  0  0  0  0  0  0  0  0  0
    0.0836    1.1371    0.0000 C   0  0  0  0  0  0  0  0  0  0  0  0
    0.7915    1.5440    0.0000 C   0  0  0  0  0  0  0  0  0  0  0  0
    1.5160    0.3121    0.0000 C   0  0  1  0  0  0  0  0  0  0  0  0
    1.5160    1.1371    0.0000 C   0  0  1  0  0  0  0  0  0  0  0  0
    2.2965    0.0557    0.0000 C   0  0  0  0  0  0  0  0  0  0  0  0
    2.7870    0.7190    0.0000 C   0  0  0  0  0  0  0  0  0  0  0  0
    2.2965    1.3935    0.0000 C   0  0  2  0  0  0  0  0  0  0  0  0
   -2.7870   -1.3433    0.0000 O   0  0  0  0  0  0  0  0  0  0  0  0
   -1.3544   -2.1739    0.0000 O   0  0  0  0  0  0  0  0  0  0  0  0
    2.5529    2.1739    0.0000 O   0  0  0  0  0  0  0  0  0  0  0  0
    1.5160    1.9676    0.0000 C   0  0  0  0  0  0  0  0  0  0  0  0
   -0.6410    0.7190    0.0000 H   0  0  0  0  0  0  0  0  0  0  0  0
    0.0836   -0.5184    0.0000 H   0  0  0  0  0  0  0  0  0  0  0  0
    0.7915    0.7190    0.0000 H   0  0  0  0  0  0  0  0  0  0  0  0
    1.5160   -0.5184    0.0000 H   0  0  0  0  0  0  0  0  0  0  0  0
   -1.3562    1.3821    0.0000 H   0  0  0  0  0  0  0  0  0  0  0  0
   -2.2856    0.8391    0.0000 H   0  0  0  0  0  0  0  0  0  0  0  0
   -2.9931    0.4164    0.0000 H   0  0  0  0  0  0  0  0  0  0  0  0
   -2.9869   -0.6500    0.0000 H   0  0  0  0  0  0  0  0  0  0  0  0
    0.0890   -2.4133    0.0000 H   0  0  0  0  0  0  0  0  0  0  0  0
    1.0111   -1.8769    0.0000 H   0  0  0  0  0  0  0  0  0  0  0  0
    1.7176   -1.4723    0.0000 H   0  0  0  0  0  0  0  0  0  0  0  0
    0.7900   -2.0064    0.0000 H   0  0  0  0  0  0  0  0  0  0  0  0
   -0.8425    1.6730    0.0000 H   0  0  0  0  0  0  0  0  0  0  0  0
    0.0851    2.2071    0.0000 H   0  0  0  0  0  0  0  0  0  0  0  0
    0.7862    2.6140    0.0000 H   0  0  0  0  0  0  0  0  0  0  0  0
    1.7136    2.0868    0.0000 H   0  0  0  0  0  0  0  0  0  0  0  0
    2.6212   -0.9638    0.0000 H   0  0  0  0  0  0  0  0  0  0  0  0
    3.3521   -0.1192    0.0000 H   0  0  0  0  0  0  0  0  0  0  0  0
    3.8570    0.7147    0.0000 H   0  0  0  0  0  0  0  0  0  0  0  0
    3.2745    1.6715    0.0000 H   0  0  0  0  0  0  0  0  0  0  0  0
    1.5399    2.1501    0.0000 H   0  0  0  0  0  0  0  0  0  0  0  0
   -2.1659   -2.6424    0.0000 H   0  0  0  0  0  0  0  0  0  0  0  0
    3.5024    2.3725    0.0000 H   0  0  0  0  0  0  0  0  0  0  0  0
    2.4426    2.5026    0.0000 H   0  0  0  0  0  0  0  0  0  0  0  0
    0.5894    2.5026    0.0000 H   0  0  0  0  0  0  0  0  0  0  0  0
    1.5160    3.0376    0.0000 H   0  0  0  0  0  0  0  0  0  0  0  0
  1  3  1  0  0  0  0
  1  7  1  0  0  0  0
  1  2  1  0  0  0  0
  1 22  1  1  0  0  0
  2  4  2  0  0  0  0
  2  9  1  0  0  0  0
  3  5  1  0  0  0  0
  3 26  1  0  0  0  0
  3 27  1  0  0  0  0
  4  6  1  0  0  0  0
  4 19  1  0  0  0  0
  5  6  1  0  0  0  0
  5 28  1  0  0  0  0
  5 29  1  0  0  0  0
  6 18  2  0  0  0  0
  7 11  1  0  0  0  0
  7  8  1  0  0  0  0
  7 23  1  6  0  0  0
  8 10  1  0  0  0  0
  8 13  1  0  0  0  0
  8 24  1  1  0  0  0
  9 10  1  0  0  0  0
  9 30  1  0  0  0  0
  9 31  1  0  0  0  0
 10 32  1  0  0  0  0
 10 33  1  0  0  0  0
 11 12  1  0  0  0  0
 11 34  1  0  0  0  0
 11 35  1  0  0  0  0
 12 14  1  0  0  0  0
 12 36  1  0  0  0  0
 12 37  1  0  0  0  0
 13 15  1  0  0  0  0
 13 14  1  0  0  0  0
 13 25  1  6  0  0  0
 14 17  1  0  0  0  0
 14 21  1  1  0  0  0
 15 16  1  0  0  0  0
 15 38  1  0  0  0  0
 15 39  1  0  0  0  0
 16 17  1  0  0  0  0
 16 40  1  0  0  0  0
 16 41  1  0  0  0  0
 17 20  1  0  0  0  0
 17 42  1  6  0  0  0
 19 43  1  0  0  0  0
 20 44  1  0  0  0  0
 21 45  1  0  0  0  0
 21 46  1  0  0  0  0
 21 47  1  0  0  0  0
M  END
>  <DRUGBANK_ID>
DB01500

>  <COMMON_NAME>
Oxabolone

>  <CAS_NUMBER>
4721-69-1

>  <UNII>
51RPF719WE

>  <SYNONYMS>
4-hydroxy nandrolone; 4-hydroxy-19-nortestosterone

$$$$
