
 OpenBabel10282417072D

 36 38  0  0  0  0  0  0  0  0999 V2000
   -3.0587    0.8084    0.0000 C   0  0  0  0  0  0  0  0  0  0  0  0
    3.3522    1.1104    0.0000 C   0  0  0  0  0  0  0  0  0  0  0  0
    3.3522    1.9354    0.0000 C   0  0  0  0  0  0  0  0  0  0  0  0
    2.6378    0.6979    0.0000 C   0  0  0  0  0  0  0  0  0  0  0  0
    2.6378    2.3479    0.0000 C   0  0  0  0  0  0  0  0  0  0  0  0
   -1.4087    0.8084    0.0000 C   0  0  0  0  0  0  0  0  0  0  0  0
   -1.4087    2.2374    0.0000 C   0  0  0  0  0  0  0  0  0  0  0  0
   -0.5837    0.8084    0.0000 C   0  0  0  0  0  0  0  0  0  0  0  0
   -0.5837    2.2374    0.0000 C   0  0  0  0  0  0  0  0  0  0  0  0
    1.1387    0.8555    0.0000 C   0  0  0  0  0  0  0  0  0  0  0  0
   -2.6462    1.5229    0.0000 C   0  0  3  0  0  0  0  0  0  0  0  0
   -1.8212    1.5229    0.0000 C   0  0  0  0  0  0  0  0  0  0  0  0
    1.9233    1.1104    0.0000 C   0  0  0  0  0  0  0  0  0  0  0  0
   -0.1712    1.5229    0.0000 C   0  0  0  0  0  0  0  0  0  0  0  0
    1.9233    1.9354    0.0000 C   0  0  0  0  0  0  0  0  0  0  0  0
    1.1387    2.1903    0.0000 C   0  0  0  0  0  0  0  0  0  0  0  0
   -3.0587    2.2374    0.0000 C   0  0  0  0  0  0  0  0  0  0  0  0
    0.6537    1.5229    0.0000 N   0  0  0  0  0  0  0  0  0  0  0  0
    0.8837    2.9750    0.0000 O   0  0  0  0  0  0  0  0  0  0  0  0
   -3.8837    2.2374    0.0000 O   0  0  0  0  0  0  0  0  0  0  0  0
   -2.6462    2.9518    0.0000 O   0  0  0  0  0  0  0  0  0  0  0  0
   -4.1287    0.8084    0.0000 H   0  0  0  0  0  0  0  0  0  0  0  0
   -2.5237   -0.1182    0.0000 H   0  0  0  0  0  0  0  0  0  0  0  0
   -3.5937   -0.1183    0.0000 H   0  0  0  0  0  0  0  0  0  0  0  0
    4.2459    0.5944    0.0000 H   0  0  0  0  0  0  0  0  0  0  0  0
    4.2459    2.4514    0.0000 H   0  0  0  0  0  0  0  0  0  0  0  0
    2.6378   -0.3341    0.0000 H   0  0  0  0  0  0  0  0  0  0  0  0
    2.6378    3.3799    0.0000 H   0  0  0  0  0  0  0  0  0  0  0  0
   -1.9247   -0.0853    0.0000 H   0  0  0  0  0  0  0  0  0  0  0  0
   -1.9247    3.1311    0.0000 H   0  0  0  0  0  0  0  0  0  0  0  0
   -0.0677   -0.0853    0.0000 H   0  0  0  0  0  0  0  0  0  0  0  0
   -0.0677    3.1311    0.0000 H   0  0  0  0  0  0  0  0  0  0  0  0
    0.8081   -0.1621    0.0000 H   0  0  0  0  0  0  0  0  0  0  0  0
    0.0819    0.6880    0.0000 H   0  0  0  0  0  0  0  0  0  0  0  0
   -2.1112    0.5963    0.0000 H   0  0  0  0  0  0  0  0  0  0  0  0
   -1.7092    2.9518    0.0000 H   0  0  0  0  0  0  0  0  0  0  0  0
  1 22  1  0  0  0  0
  1 23  1  0  0  0  0
  1 24  1  0  0  0  0
  2 25  1  0  0  0  0
  3  2  2  0  0  0  0
  3 26  1  0  0  0  0
  4  2  1  0  0  0  0
  4 27  1  0  0  0  0
  5  3  1  0  0  0  0
  5 28  1  0  0  0  0
  6 29  1  0  0  0  0
  7 30  1  0  0  0  0
  8  6  1  0  0  0  0
  8 31  1  0  0  0  0
  9  7  2  0  0  0  0
  9 32  1  0  0  0  0
 10 33  1  0  0  0  0
 10 34  1  0  0  0  0
 11  1  1  0  0  0  0
 11 35  1  0  0  0  0
 12  6  2  0  0  0  0
 12  7  1  0  0  0  0
 12 11  1  0  0  0  0
 13  4  2  0  0  0  0
 13 10  1  0  0  0  0
 14  8  2  0  0  0  0
 14  9  1  0  0  0  0
 15  5  2  0  0  0  0
 15 13  1  0  0  0  0
 16 15  1  0  0  0  0
 17 11  1  0  0  0  0
 18 10  1  0  0  0  0
 18 14  1  0  0  0  0
 18 16  1  0  0  0  0
 19 16  2  0  0  0  0
 20 17  2  0  0  0  0
 21 17  1  0  0  0  0
 21 36  1  0  0  0  0
M  END
>  <DRUGBANK_ID>
DB08951

>  <COMMON_NAME>
Indoprofen

>  <CAS_NUMBER>
31842-01-0

>  <UNII>
CPE46ZU14N

>  <SYNONYMS>
Indoprofen; indoprofeno

$$$$
