
 OpenBabel10282417072D

 34 34  0  0  1  0  0  0  0  0999 V2000
   -2.2482    0.8275    0.0000 P   0  0  0  0  0  0  0  0  0  0  0  0
   -1.4245    0.8275    0.0000 O   0  0  0  0  0  0  0  0  0  0  0  0
   -3.0682    0.8275    0.0000 O   0  0  0  0  0  0  0  0  0  0  0  0
   -2.2482    1.6475    0.0000 O   0  0  0  0  0  0  0  0  0  0  0  0
   -2.2482    0.0037    0.0000 O   0  0  0  0  0  0  0  0  0  0  0  0
   -0.7141    0.4156    0.0000 C   0  0  1  0  0  0  0  0  0  0  0  0
   -0.0037    0.8275    0.0000 C   0  0  1  0  0  0  0  0  0  0  0  0
   -0.7141   -0.4156    0.0000 C   0  0  1  0  0  0  0  0  0  0  0  0
    0.7180    0.4156    0.0000 C   0  0  2  0  0  0  0  0  0  0  0  0
   -0.0037    1.6475    0.0000 O   0  0  0  0  0  0  0  0  0  0  0  0
   -0.0037   -0.8351    0.0000 C   0  0  1  0  0  0  0  0  0  0  0  0
   -1.4284   -0.8237    0.0000 O   0  0  0  0  0  0  0  0  0  0  0  0
    0.7180   -0.4156    0.0000 C   0  0  1  0  0  0  0  0  0  0  0  0
    1.4284    0.8275    0.0000 O   0  0  0  0  0  0  0  0  0  0  0  0
   -0.0037   -1.6588    0.0000 O   0  0  0  0  0  0  0  0  0  0  0  0
    1.4321   -0.8237    0.0000 O   0  0  0  0  0  0  0  0  0  0  0  0
    2.2482   -0.8237    0.0000 P   0  0  0  0  0  0  0  0  0  0  0  0
    3.0719   -0.8237    0.0000 O   0  0  0  0  0  0  0  0  0  0  0  0
    2.2482    0.0000    0.0000 O   0  0  0  0  0  0  0  0  0  0  0  0
    2.2482   -1.6437    0.0000 O   0  0  0  0  0  0  0  0  0  0  0  0
   -3.5532    1.6675    0.0000 H   0  0  0  0  0  0  0  0  0  0  0  0
   -1.4082    2.1325    0.0000 H   0  0  0  0  0  0  0  0  0  0  0  0
   -0.7141    1.4856    0.0000 H   0  0  0  0  0  0  0  0  0  0  0  0
   -0.9308    1.3616    0.0000 H   0  0  0  0  0  0  0  0  0  0  0  0
   -1.6395    0.1215    0.0000 H   0  0  0  0  0  0  0  0  0  0  0  0
    0.7144    1.4856    0.0000 H   0  0  0  0  0  0  0  0  0  0  0  0
    0.8363    2.1325    0.0000 H   0  0  0  0  0  0  0  0  0  0  0  0
   -0.9330   -1.3655    0.0000 H   0  0  0  0  0  0  0  0  0  0  0  0
   -2.2662   -0.3349    0.0000 H   0  0  0  0  0  0  0  0  0  0  0  0
    1.6435    0.1214    0.0000 H   0  0  0  0  0  0  0  0  0  0  0  0
    2.2693    0.3441    0.0000 H   0  0  0  0  0  0  0  0  0  0  0  0
   -0.8437   -2.1438    0.0000 H   0  0  0  0  0  0  0  0  0  0  0  0
    3.5569   -1.6637    0.0000 H   0  0  0  0  0  0  0  0  0  0  0  0
    3.0882    0.4850    0.0000 H   0  0  0  0  0  0  0  0  0  0  0  0
  1  2  1  0  0  0  0
  1  3  1  0  0  0  0
  1  4  1  0  0  0  0
  1  5  2  0  0  0  0
  3 21  1  0  0  0  0
  4 22  1  0  0  0  0
  6  2  1  0  0  0  0
  6  7  1  0  0  0  0
  6  8  1  0  0  0  0
  6 23  1  6  0  0  0
  7  9  1  0  0  0  0
  7 10  1  0  0  0  0
  7 24  1  1  0  0  0
  8 11  1  0  0  0  0
  8 12  1  0  0  0  0
  8 25  1  6  0  0  0
  9 13  1  0  0  0  0
  9 14  1  0  0  0  0
  9 26  1  6  0  0  0
 10 27  1  0  0  0  0
 11 15  1  0  0  0  0
 11 13  1  0  0  0  0
 11 28  1  6  0  0  0
 12 29  1  0  0  0  0
 13 16  1  0  0  0  0
 13 30  1  1  0  0  0
 14 31  1  0  0  0  0
 15 32  1  0  0  0  0
 16 17  1  0  0  0  0
 17 18  1  0  0  0  0
 17 19  1  0  0  0  0
 17 20  2  0  0  0  0
 18 33  1  0  0  0  0
 19 34  1  0  0  0  0
M  END
>  <DRUGBANK_ID>
DB03158

>  <SECONDARY_ACCESSION_NUMBERS>
EXPT00125

>  <COMMON_NAME>
D-Myo-Inositol-1,4-Bisphosphate

>  <CAS_NUMBER>
47055-78-7

$$$$
