OFF
 OpenBabel10282417072D

 53 54  0  0  0  0  0  0  0  0999 V2000
   -3.0567   -0.8255    0.0000 C   0  0  0  0  0  0  0  0  0  0  0  0
   -3.4692   -1.5400    0.0000 C   0  0  0  0  0  0  0  0  0  0  0  0
   -3.0567   -2.2544    0.0000 C   0  0  0  0  0  0  0  0  0  0  0  0
   -3.4692   -2.9689    0.0000 O   0  0  0  0  0  0  0  0  0  0  0  0
   -2.2317   -2.2544    0.0000 C   0  0  0  0  0  0  0  0  0  0  0  0
   -1.8192   -1.5400    0.0000 C   0  0  0  0  0  0  0  0  0  0  0  0
   -2.2317   -0.8255    0.0000 C   0  0  0  0  0  0  0  0  0  0  0  0
   -1.8192   -0.1110    0.0000 C   0  0  0  0  0  0  0  0  0  0  0  0
   -0.9942   -0.1110    0.0000 C   0  0  0  0  0  0  0  0  0  0  0  0
   -0.5817    0.6034    0.0000 C   0  0  0  0  0  0  0  0  0  0  0  0
   -0.9942    1.3179    0.0000 O   0  0  0  0  0  0  0  0  0  0  0  0
    0.2433    0.6034    0.0000 O   0  0  0  0  0  0  0  0  0  0  0  0
    0.6558    1.3179    0.0000 C   0  0  1  0  0  0  0  0  0  0  0  0
    0.2433    2.0324    0.0000 C   0  0  0  0  0  0  0  0  0  0  0  0
   -0.5817    2.0324    0.0000 C   0  0  0  0  0  0  0  0  0  0  0  0
   -0.9942    2.7468    0.0000 O   0  0  0  0  0  0  0  0  0  0  0  0
   -1.3353    1.6968    0.0000 O   0  0  0  0  0  0  0  0  0  0  0  0
    1.4808    1.3179    0.0000 C   0  0  2  0  0  0  0  0  0  0  0  0
    1.8933    0.6034    0.0000 C   0  0  0  0  0  0  0  0  0  0  0  0
    1.4808   -0.1110    0.0000 O   0  0  0  0  0  0  0  0  0  0  0  0
    2.7183    0.6034    0.0000 O   0  0  0  0  0  0  0  0  0  0  0  0
    1.8933    2.0324    0.0000 O   0  0  0  0  0  0  0  0  0  0  0  0
    2.7183    2.0324    0.0000 C   0  0  0  0  0  0  0  0  0  0  0  0
    3.1308    1.3179    0.0000 O   0  0  0  0  0  0  0  0  0  0  0  0
    3.1308    2.7468    0.0000 C   0  0  0  0  0  0  0  0  0  0  0  0
    3.9558    2.7468    0.0000 C   0  0  0  0  0  0  0  0  0  0  0  0
    4.3683    3.4613    0.0000 C   0  0  0  0  0  0  0  0  0  0  0  0
    5.1933    3.4613    0.0000 C   0  0  0  0  0  0  0  0  0  0  0  0
    5.6058    4.1758    0.0000 C   0  0  0  0  0  0  0  0  0  0  0  0
    5.1933    4.8903    0.0000 C   0  0  0  0  0  0  0  0  0  0  0  0
    5.6058    5.6047    0.0000 O   0  0  0  0  0  0  0  0  0  0  0  0
    4.3683    4.8903    0.0000 C   0  0  0  0  0  0  0  0  0  0  0  0
    3.9558    4.1758    0.0000 C   0  0  0  0  0  0  0  0  0  0  0  0
    0.0719    1.3179    0.0000 H   0  0  0  0  0  0  0  0  0  0  0  0
    1.1889    0.8122    0.0000 H   0  0  0  0  0  0  0  0  0  0  0  0
   -3.5727    0.0682    0.0000 H   0  0  0  0  0  0  0  0  0  0  0  0
   -4.5012   -1.5400    0.0000 H   0  0  0  0  0  0  0  0  0  0  0  0
   -4.4062   -2.9689    0.0000 H   0  0  0  0  0  0  0  0  0  0  0  0
   -1.7157   -3.1481    0.0000 H   0  0  0  0  0  0  0  0  0  0  0  0
   -0.7872   -1.5400    0.0000 H   0  0  0  0  0  0  0  0  0  0  0  0
   -2.3352    0.7827    0.0000 H   0  0  0  0  0  0  0  0  0  0  0  0
   -0.4782   -1.0047    0.0000 H   0  0  0  0  0  0  0  0  0  0  0  0
    0.7783    2.9590    0.0000 H   0  0  0  0  0  0  0  0  0  0  0  0
   -0.2917    2.9590    0.0000 H   0  0  0  0  0  0  0  0  0  0  0  0
   -0.5257    3.5583    0.0000 H   0  0  0  0  0  0  0  0  0  0  0  0
    0.5438   -0.1110    0.0000 H   0  0  0  0  0  0  0  0  0  0  0  0
    2.6148    3.6405    0.0000 H   0  0  0  0  0  0  0  0  0  0  0  0
    4.4718    1.8531    0.0000 H   0  0  0  0  0  0  0  0  0  0  0  0
    5.7093    2.5676    0.0000 H   0  0  0  0  0  0  0  0  0  0  0  0
    6.6378    4.1758    0.0000 H   0  0  0  0  0  0  0  0  0  0  0  0
    6.5428    5.6047    0.0000 H   0  0  0  0  0  0  0  0  0  0  0  0
    3.8523    5.7840    0.0000 H   0  0  0  0  0  0  0  0  0  0  0  0
    2.9238    4.1758    0.0000 H   0  0  0  0  0  0  0  0  0  0  0  0
  1  7  2  0  0  0  0
  1  2  1  0  0  0  0
  1 36  1  0  0  0  0
  2  3  2  0  0  0  0
  2 37  1  0  0  0  0
  3  5  1  0  0  0  0
  3  4  1  0  0  0  0
  4 38  1  0  0  0  0
  5  6  2  0  0  0  0
  5 39  1  0  0  0  0
  6  7  1  0  0  0  0
  6 40  1  0  0  0  0
  7  8  1  0  0  0  0
  8  9  2  0  0  0  0
  8 41  1  0  0  0  0
  9 10  1  0  0  0  0
  9 42  1  0  0  0  0
 10 11  2  0  0  0  0
 10 12  1  0  0  0  0
 13 12  1  0  0  0  0
 13 14  1  0  0  0  0
 13 18  1  0  0  0  0
 13 34  1  6  0  0  0
 14 15  1  0  0  0  0
 14 43  1  0  0  0  0
 14 44  1  0  0  0  0
 15 17  2  0  0  0  0
 15 16  1  0  0  0  0
 16 45  1  0  0  0  0
 18 19  1  0  0  0  0
 18 22  1  0  0  0  0
 18 35  1  6  0  0  0
 19 21  2  0  0  0  0
 19 20  1  0  0  0  0
 20 46  1  0  0  0  0
 22 23  1  0  0  0  0
 23 25  1  0  0  0  0
 23 24  2  0  0  0  0
 25 26  2  0  0  0  0
 25 47  1  0  0  0  0
 26 27  1  0  0  0  0
 26 48  1  0  0  0  0
 27 33  1  0  0  0  0
 27 28  2  0  0  0  0
 28 29  1  0  0  0  0
 28 49  1  0  0  0  0
 29 30  2  0  0  0  0
 29 50  1  0  0  0  0
 30 32  1  0  0  0  0
 30 31  1  0  0  0  0
 31 51  1  0  0  0  0
 32 33  2  0  0  0  0
 32 52  1  0  0  0  0
 33 53  1  0  0  0  0
M  END
>  <DRUGBANK_ID>
DB08322

>  <COMMON_NAME>
2-DEOXY-3,4-BIS-O-[3-(4-HYDROXYPHENYL)PROPANOYL]-L-THREO-PENTARIC ACID

>  <UNII>
66G69TD43K

$$$$
