
 OpenBabel10282417072D

 20 19  0  0  0  0  0  0  0  0999 V2000
    0.1105   -1.2375    0.0000 C   0  0  0  0  0  0  0  0  0  0  0  0
    0.8250   -0.8250    0.0000 C   0  0  0  0  0  0  0  0  0  0  0  0
    0.8250    0.0000    0.0000 Si  0  0  0  0  0  0  0  0  0  0  0  0
    0.8250    0.8250    0.0000 C   0  0  0  0  0  0  0  0  0  0  0  0
    1.6500    0.0000    0.0000 C   0  0  0  0  0  0  0  0  0  0  0  0
    0.0000    0.0000    0.0000 C   0  0  0  0  0  0  0  0  0  0  0  0
   -0.8161   -0.7025    0.0000 H   0  0  0  0  0  0  0  0  0  0  0  0
    0.1105   -2.3075    0.0000 H   0  0  0  0  0  0  0  0  0  0  0  0
   -0.8162   -1.7725    0.0000 H   0  0  0  0  0  0  0  0  0  0  0  0
    1.7516   -1.3600    0.0000 H   0  0  0  0  0  0  0  0  0  0  0  0
    1.7516   -0.2900    0.0000 H   0  0  0  0  0  0  0  0  0  0  0  0
    1.7516    1.3600    0.0000 H   0  0  0  0  0  0  0  0  0  0  0  0
   -0.1016    1.3600    0.0000 H   0  0  0  0  0  0  0  0  0  0  0  0
    0.8250    1.8950    0.0000 H   0  0  0  0  0  0  0  0  0  0  0  0
    2.1850   -0.9266    0.0000 H   0  0  0  0  0  0  0  0  0  0  0  0
    2.1850    0.9266    0.0000 H   0  0  0  0  0  0  0  0  0  0  0  0
    2.7200    0.0000    0.0000 H   0  0  0  0  0  0  0  0  0  0  0  0
   -0.5350    0.9266    0.0000 H   0  0  0  0  0  0  0  0  0  0  0  0
   -0.5350   -0.9266    0.0000 H   0  0  0  0  0  0  0  0  0  0  0  0
   -1.0700   -0.0000    0.0000 H   0  0  0  0  0  0  0  0  0  0  0  0
  1  2  1  0  0  0  0
  1  7  1  0  0  0  0
  1  8  1  0  0  0  0
  1  9  1  0  0  0  0
  2  3  1  0  0  0  0
  2 10  1  0  0  0  0
  2 11  1  0  0  0  0
  3  4  1  0  0  0  0
  3  5  1  0  0  0  0
  3  6  1  0  0  0  0
  4 12  1  0  0  0  0
  4 13  1  0  0  0  0
  4 14  1  0  0  0  0
  5 15  1  0  0  0  0
  5 16  1  0  0  0  0
  5 17  1  0  0  0  0
  6 18  1  0  0  0  0
  6 19  1  0  0  0  0
  6 20  1  0  0  0  0
M  END
>  <DRUGBANK_ID>
DB02265

>  <SECONDARY_ACCESSION_NUMBERS>
EXPT00892

>  <COMMON_NAME>
Ethyl-Trimethyl-Silane

>  <CAS_NUMBER>
3439-38-1

>  <UNII>
O72DFI3IWO

$$$$
