
 OpenBabel10282417072D

 41 43  0  0  0  0  0  0  0  0999 V2000
   -0.8708   -0.1202    0.0000 C   0  0  0  0  0  0  0  0  0  0  0  0
    2.2057    1.1687    0.0000 N   0  0  0  0  0  0  0  0  0  0  0  0
    1.9651    1.9594    0.0000 C   0  0  0  0  0  0  0  0  0  0  0  0
    0.0916    0.9453    0.0000 C   0  0  0  0  0  0  0  0  0  0  0  0
   -0.0802    0.1374    0.0000 C   0  0  0  0  0  0  0  0  0  0  0  0
    0.8650    1.1859    0.0000 C   0  0  2  0  0  0  0  0  0  0  0  0
   -1.0428   -0.9281    0.0000 O   0  0  0  0  0  0  0  0  0  0  0  0
    1.1401    1.9594    0.0000 C   0  0  0  0  0  0  0  0  0  0  0  0
   -1.4839    0.4468    0.0000 C   0  0  0  0  0  0  0  0  0  0  0  0
    1.5354    0.6875    0.0000 C   0  0  0  0  0  0  0  0  0  0  0  0
    2.4464    2.6297    0.0000 O   0  0  0  0  0  0  0  0  0  0  0  0
   -0.5213    1.4953    0.0000 C   0  0  0  0  0  0  0  0  0  0  0  0
   -1.3005    1.2547    0.0000 C   0  0  0  0  0  0  0  0  0  0  0  0
   -0.4353   -1.4782    0.0000 C   0  0  0  0  0  0  0  0  0  0  0  0
   -2.2630    0.1890    0.0000 O   0  0  0  0  0  0  0  0  0  0  0  0
   -2.4464   -0.6188    0.0000 C   0  0  0  0  0  0  0  0  0  0  0  0
    0.3838   -1.3062    0.0000 C   0  0  0  0  0  0  0  0  0  0  0  0
   -0.5213   -2.2860    0.0000 C   0  0  0  0  0  0  0  0  0  0  0  0
    0.2349   -2.6297    0.0000 C   0  0  0  0  0  0  0  0  0  0  0  0
    0.7791   -2.0281    0.0000 C   0  0  0  0  0  0  0  0  0  0  0  0
    0.8536    0.3781    0.0000 H   0  0  0  0  0  0  0  0  0  0  0  0
    3.1382    0.8530    0.0000 H   0  0  0  0  0  0  0  0  0  0  0  0
    0.6870   -0.5529    0.0000 H   0  0  0  0  0  0  0  0  0  0  0  0
    0.5232    2.8336    0.0000 H   0  0  0  0  0  0  0  0  0  0  0  0
    0.0800    1.8139    0.0000 H   0  0  0  0  0  0  0  0  0  0  0  0
    1.5265   -0.3825    0.0000 H   0  0  0  0  0  0  0  0  0  0  0  0
    0.5774    0.2110    0.0000 H   0  0  0  0  0  0  0  0  0  0  0  0
   -0.3002    2.5033    0.0000 H   0  0  0  0  0  0  0  0  0  0  0  0
   -2.0575    1.9561    0.0000 H   0  0  0  0  0  0  0  0  0  0  0  0
    0.3585   -2.1957    0.0000 H   0  0  0  0  0  0  0  0  0  0  0  0
   -3.4685   -0.9354    0.0000 H   0  0  0  0  0  0  0  0  0  0  0  0
   -1.6612   -1.3457    0.0000 H   0  0  0  0  0  0  0  0  0  0  0  0
   -2.6833   -1.6622    0.0000 H   0  0  0  0  0  0  0  0  0  0  0  0
    0.8312   -0.3342    0.0000 H   0  0  0  0  0  0  0  0  0  0  0  0
    1.4532   -1.2690    0.0000 H   0  0  0  0  0  0  0  0  0  0  0  0
   -1.4504   -2.8168    0.0000 H   0  0  0  0  0  0  0  0  0  0  0  0
   -0.4718   -3.3549    0.0000 H   0  0  0  0  0  0  0  0  0  0  0  0
    0.4521   -3.6774    0.0000 H   0  0  0  0  0  0  0  0  0  0  0  0
    1.2674   -2.9104    0.0000 H   0  0  0  0  0  0  0  0  0  0  0  0
    1.8418   -2.1532    0.0000 H   0  0  0  0  0  0  0  0  0  0  0  0
    1.1552   -3.0298    0.0000 H   0  0  0  0  0  0  0  0  0  0  0  0
  2 10  1  0  0  0  0
  2  3  1  0  0  0  0
  2 22  1  0  0  0  0
  3  8  1  0  0  0  0
  4  5  1  0  0  0  0
  4 12  2  0  0  0  0
  5  1  2  0  0  0  0
  5 23  1  0  0  0  0
  6  4  1  0  0  0  0
  6 21  1  1  0  0  0
  7  1  1  0  0  0  0
  8  6  1  0  0  0  0
  8 24  1  0  0  0  0
  8 25  1  0  0  0  0
  9  1  1  0  0  0  0
 10  6  1  0  0  0  0
 10 26  1  0  0  0  0
 10 27  1  0  0  0  0
 11  3  2  0  0  0  0
 12 13  1  0  0  0  0
 12 28  1  0  0  0  0
 13  9  2  0  0  0  0
 13 29  1  0  0  0  0
 14  7  1  0  0  0  0
 14 30  1  0  0  0  0
 15  9  1  0  0  0  0
 16 15  1  0  0  0  0
 16 31  1  0  0  0  0
 16 32  1  0  0  0  0
 16 33  1  0  0  0  0
 17 14  1  0  0  0  0
 17 34  1  0  0  0  0
 17 35  1  0  0  0  0
 18 14  1  0  0  0  0
 18 36  1  0  0  0  0
 18 37  1  0  0  0  0
 19 18  1  0  0  0  0
 19 20  1  0  0  0  0
 19 38  1  0  0  0  0
 19 39  1  0  0  0  0
 20 17  1  0  0  0  0
 20 40  1  0  0  0  0
 20 41  1  0  0  0  0
M  END
>  <DRUGBANK_ID>
DB03606

>  <SECONDARY_ACCESSION_NUMBERS>
EXPT00229

>  <COMMON_NAME>
(S)-Rolipram

>  <CAS_NUMBER>
85416-73-5

>  <UNII>
H6G4VMQ24K

>  <SYNONYMS>
(+)-rolipram; (S)-(+)-rolipram; S-rolipram

$$$$
