
 OpenBabel10282417072D

 50 53  0  0  0  0  0  0  0  0999 V2000
   -0.8982   -2.4171    0.0000 C   0  0  0  0  0  0  0  0  0  0  0  0
   -0.8982   -1.6114    0.0000 C   0  0  0  0  0  0  0  0  0  0  0  0
   -1.6277   -1.1868    0.0000 O   0  0  0  0  0  0  0  0  0  0  0  0
   -1.6277   -2.8417    0.0000 N   0  0  0  0  0  0  0  0  0  0  0  0
   -2.3499   -1.5896    0.0000 C   0  0  0  0  0  0  0  0  0  0  0  0
   -2.3499   -2.4388    0.0000 C   0  0  0  0  0  0  0  0  0  0  0  0
   -0.0309   -1.6223    0.0000 C   0  0  0  0  0  0  0  0  0  0  0  0
   -0.8982   -0.7476    0.0000 C   0  0  0  0  0  0  0  0  0  0  0  0
   -0.1470   -2.8417    0.0000 O   0  0  0  0  0  0  0  0  0  0  0  0
   -0.3684    2.0251    0.0000 C   0  0  0  0  0  0  0  0  0  0  0  0
    2.9452   -2.0904    0.0000 C   0  0  0  0  0  0  0  0  0  0  0  0
   -0.8982    1.5134    0.0000 O   0  0  0  0  0  0  0  0  0  0  0  0
    2.4007   -1.5533    0.0000 O   0  0  0  0  0  0  0  0  0  0  0  0
   -0.5317    2.8526    0.0000 O   0  0  0  0  0  0  0  0  0  0  0  0
    2.6293   -2.8526    0.0000 O   0  0  0  0  0  0  0  0  0  0  0  0
    0.3320   -0.8709    0.0000 C   0  0  0  0  0  0  0  0  0  0  0  0
    0.4518   -2.2647    0.0000 C   0  0  0  0  0  0  0  0  0  0  0  0
   -0.1688   -0.3338    0.0000 C   0  0  0  0  0  0  0  0  0  0  0  0
   -1.5732   -0.3048    0.0000 C   0  0  0  0  0  0  0  0  0  0  0  0
   -0.8982    0.8927    0.0000 C   0  0  0  0  0  0  0  0  0  0  0  0
    1.5624   -1.5533    0.0000 C   0  0  0  0  0  0  0  0  0  0  0  0
   -1.5732    0.4573    0.0000 C   0  0  0  0  0  0  0  0  0  0  0  0
    1.1994   -0.8709    0.0000 C   0  0  0  0  0  0  0  0  0  0  0  0
    1.1994   -2.2647    0.0000 C   0  0  0  0  0  0  0  0  0  0  0  0
   -0.1688    0.4573    0.0000 C   0  0  0  0  0  0  0  0  0  0  0  0
   -3.0795   -1.1868    0.0000 C   0  0  0  0  0  0  0  0  0  0  0  0
   -3.0795   -2.8417    0.0000 C   0  0  0  0  0  0  0  0  0  0  0  0
    3.7835   -1.9670    0.0000 C   0  0  0  0  0  0  0  0  0  0  0  0
    0.4192    1.7747    0.0000 C   0  0  0  0  0  0  0  0  0  0  0  0
   -3.7835   -1.6114    0.0000 C   0  0  0  0  0  0  0  0  0  0  0  0
   -3.7835   -2.4171    0.0000 C   0  0  0  0  0  0  0  0  0  0  0  0
   -1.6187   -3.8262    0.0000 H   0  0  0  0  0  0  0  0  0  0  0  0
   -0.2166    0.0032    0.0000 H   0  0  0  0  0  0  0  0  0  0  0  0
   -0.0093   -3.1880    0.0000 H   0  0  0  0  0  0  0  0  0  0  0  0
    0.7230   -0.8532    0.0000 H   0  0  0  0  0  0  0  0  0  0  0  0
   -2.4813   -0.7951    0.0000 H   0  0  0  0  0  0  0  0  0  0  0  0
   -2.4794    0.9511    0.0000 H   0  0  0  0  0  0  0  0  0  0  0  0
    1.7308    0.0137    0.0000 H   0  0  0  0  0  0  0  0  0  0  0  0
    1.7384   -3.1448    0.0000 H   0  0  0  0  0  0  0  0  0  0  0  0
    0.7287    0.9668    0.0000 H   0  0  0  0  0  0  0  0  0  0  0  0
   -3.0992   -0.1550    0.0000 H   0  0  0  0  0  0  0  0  0  0  0  0
   -3.0992   -3.8735    0.0000 H   0  0  0  0  0  0  0  0  0  0  0  0
    4.4477   -2.8059    0.0000 H   0  0  0  0  0  0  0  0  0  0  0  0
    4.1778   -0.9723    0.0000 H   0  0  0  0  0  0  0  0  0  0  0  0
    4.8421   -1.8112    0.0000 H   0  0  0  0  0  0  0  0  0  0  0  0
    0.6483    0.7295    0.0000 H   0  0  0  0  0  0  0  0  0  0  0  0
    1.2098    2.4957    0.0000 H   0  0  0  0  0  0  0  0  0  0  0  0
    1.4389    1.4505    0.0000 H   0  0  0  0  0  0  0  0  0  0  0  0
   -4.6821   -1.1040    0.0000 H   0  0  0  0  0  0  0  0  0  0  0  0
   -4.6821   -2.9245    0.0000 H   0  0  0  0  0  0  0  0  0  0  0  0
  2  1  1  0  0  0  0
  3  2  1  0  0  0  0
  3  5  1  0  0  0  0
  4  1  1  0  0  0  0
  4 32  1  0  0  0  0
  5  6  2  0  0  0  0
  6  4  1  0  0  0  0
  7  2  1  0  0  0  0
  8  2  1  0  0  0  0
  9  1  2  0  0  0  0
 10 12  1  0  0  0  0
 11 13  1  0  0  0  0
 12 20  1  0  0  0  0
 13 21  1  0  0  0  0
 14 10  2  0  0  0  0
 15 11  2  0  0  0  0
 16  7  1  0  0  0  0
 16 33  1  0  0  0  0
 17  7  2  0  0  0  0
 17 34  1  0  0  0  0
 18  8  1  0  0  0  0
 18 35  1  0  0  0  0
 19  8  2  0  0  0  0
 19 36  1  0  0  0  0
 20 22  2  0  0  0  0
 21 24  2  0  0  0  0
 22 19  1  0  0  0  0
 22 37  1  0  0  0  0
 23 16  2  0  0  0  0
 23 21  1  0  0  0  0
 23 38  1  0  0  0  0
 24 17  1  0  0  0  0
 24 39  1  0  0  0  0
 25 18  2  0  0  0  0
 25 20  1  0  0  0  0
 25 40  1  0  0  0  0
 26  5  1  0  0  0  0
 26 30  2  0  0  0  0
 26 41  1  0  0  0  0
 27  6  1  0  0  0  0
 27 42  1  0  0  0  0
 28 11  1  0  0  0  0
 28 43  1  0  0  0  0
 28 44  1  0  0  0  0
 28 45  1  0  0  0  0
 29 10  1  0  0  0  0
 29 46  1  0  0  0  0
 29 47  1  0  0  0  0
 29 48  1  0  0  0  0
 30 31  1  0  0  0  0
 30 49  1  0  0  0  0
 31 27  2  0  0  0  0
 31 50  1  0  0  0  0
M  END
>  <DRUGBANK_ID>
DB14654

>  <SECONDARY_ACCESSION_NUMBERS>
DBSALT001265

>  <COMMON_NAME>
Bisoxatin acetate

>  <CAS_NUMBER>
14008-48-1

>  <UNII>
79W5LFS83K

>  <SYNONYMS>
Bisoxatin acetate

$$$$
