
 OpenBabel10282417072D

 22 21  0  0  0  0  0  0  0  0999 V2000
    1.2375   -0.7145    0.0000 C   0  0  0  0  0  0  0  0  0  0  0  0
    2.0625   -0.7145    0.0000 C   0  0  2  0  0  0  0  0  0  0  0  0
    2.4750   -1.4289    0.0000 C   0  0  2  0  0  0  0  0  0  0  0  0
    3.3000   -1.4289    0.0000 C   0  0  0  0  0  0  0  0  0  0  0  0
    2.4750   -0.0000    0.0000 O   0  0  0  0  0  0  0  0  0  0  0  0
    2.0625   -2.1434    0.0000 O   0  0  0  0  0  0  0  0  0  0  0  0
    3.7125   -2.1434    0.0000 O   0  0  0  0  0  0  0  0  0  0  0  0
    3.7125   -0.7145    0.0000 O   0  0  0  0  0  0  0  0  0  0  0  0
   -0.8250    0.0000    0.0000 O   0  0  0  0  0  0  0  0  0  0  0  0
    0.0000    0.8250    0.0000 O   0  0  0  0  0  0  0  0  0  0  0  0
    0.0000   -0.8250    0.0000 O   0  0  0  0  0  0  0  0  0  0  0  0
    0.8250    0.0000    0.0000 O   0  0  0  0  0  0  0  0  0  0  0  0
    0.0000    0.0000    0.0000 P   0  0  0  0  0  0  0  0  0  0  0  0
    1.6500   -1.4289    0.0000 H   0  0  0  0  0  0  0  0  0  0  0  0
    2.8875   -0.7145    0.0000 H   0  0  0  0  0  0  0  0  0  0  0  0
    0.7025   -1.6411    0.0000 H   0  0  0  0  0  0  0  0  0  0  0  0
    0.1675   -0.7145    0.0000 H   0  0  0  0  0  0  0  0  0  0  0  0
    3.4450    0.0000    0.0000 H   0  0  0  0  0  0  0  0  0  0  0  0
    1.0925   -2.1434    0.0000 H   0  0  0  0  0  0  0  0  0  0  0  0
    4.6495   -0.7145    0.0000 H   0  0  0  0  0  0  0  0  0  0  0  0
   -1.3100    0.8400    0.0000 H   0  0  0  0  0  0  0  0  0  0  0  0
    0.8400    1.3100    0.0000 H   0  0  0  0  0  0  0  0  0  0  0  0
  1 16  1  0  0  0  0
  1 17  1  0  0  0  0
  2  1  1  0  0  0  0
  2  5  1  0  0  0  0
  2 14  1  6  0  0  0
  3  2  1  0  0  0  0
  3  6  1  0  0  0  0
  3 15  1  1  0  0  0
  4  3  1  0  0  0  0
  5 18  1  0  0  0  0
  6 19  1  0  0  0  0
  7  4  2  0  0  0  0
  8  4  1  0  0  0  0
  8 20  1  0  0  0  0
  9 21  1  0  0  0  0
 10 22  1  0  0  0  0
 12  1  1  0  0  0  0
 13  9  1  0  0  0  0
 13 10  1  0  0  0  0
 13 11  2  0  0  0  0
 13 12  1  0  0  0  0
M  END
>  <DRUGBANK_ID>
DB03108

>  <SECONDARY_ACCESSION_NUMBERS>
EXPT01166

>  <COMMON_NAME>
4-phospho-D-erythronic acid

>  <SYNONYMS>
4-Phospho-D-Erythronate; 4-Phosphoerythronate

$$$$
