TBA
 OpenBabel10282417072D

 53 52  0  0  0  0  0  0  0  0999 V2000
    1.2390   -0.3222    0.0000 N   0  3  0  0  0  0  0  0  0  0  0  0
    0.9690    0.4573    0.0000 C   0  0  0  0  0  0  0  0  0  0  0  0
    0.1588    0.6132    0.0000 C   0  0  0  0  0  0  0  0  0  0  0  0
    1.5091   -1.1018    0.0000 C   0  0  0  0  0  0  0  0  0  0  0  0
    2.3192   -1.2577    0.0000 C   0  0  0  0  0  0  0  0  0  0  0  0
    0.4595   -0.5923    0.0000 C   0  0  0  0  0  0  0  0  0  0  0  0
   -0.1642   -0.0522    0.0000 C   0  0  0  0  0  0  0  0  0  0  0  0
    2.0186   -0.0522    0.0000 C   0  0  0  0  0  0  0  0  0  0  0  0
    2.6422   -0.5923    0.0000 C   0  0  0  0  0  0  0  0  0  0  0  0
   -0.1112    1.3928    0.0000 C   0  0  0  0  0  0  0  0  0  0  0  0
   -0.9213    1.5487    0.0000 C   0  0  0  0  0  0  0  0  0  0  0  0
    2.5892   -2.0373    0.0000 C   0  0  0  0  0  0  0  0  0  0  0  0
    3.3994   -2.1932    0.0000 C   0  0  0  0  0  0  0  0  0  0  0  0
   -0.9437   -0.3222    0.0000 C   0  0  0  0  0  0  0  0  0  0  0  0
   -1.5674    0.2178    0.0000 C   0  0  0  0  0  0  0  0  0  0  0  0
    3.4218   -0.3222    0.0000 C   0  0  0  0  0  0  0  0  0  0  0  0
    4.0454   -0.8623    0.0000 C   0  0  0  0  0  0  0  0  0  0  0  0
    1.6695    1.2661    0.0000 H   0  0  0  0  0  0  0  0  0  0  0  0
    0.6187    1.4684    0.0000 H   0  0  0  0  0  0  0  0  0  0  0  0
   -0.5417   -0.1956    0.0000 H   0  0  0  0  0  0  0  0  0  0  0  0
   -0.8919    0.8155    0.0000 H   0  0  0  0  0  0  0  0  0  0  0  0
    0.8086   -1.9107    0.0000 H   0  0  0  0  0  0  0  0  0  0  0  0
    1.8594   -2.1128    0.0000 H   0  0  0  0  0  0  0  0  0  0  0  0
    3.0197   -0.4489    0.0000 H   0  0  0  0  0  0  0  0  0  0  0  0
    3.3699   -1.4600    0.0000 H   0  0  0  0  0  0  0  0  0  0  0  0
    0.2574   -1.6430    0.0000 H   0  0  0  0  0  0  0  0  0  0  0  0
   -0.5515   -0.9426    0.0000 H   0  0  0  0  0  0  0  0  0  0  0  0
    0.0380    0.9985    0.0000 H   0  0  0  0  0  0  0  0  0  0  0  0
   -0.9730    0.6483    0.0000 H   0  0  0  0  0  0  0  0  0  0  0  0
    2.2209    0.9985    0.0000 H   0  0  0  0  0  0  0  0  0  0  0  0
    3.0297    0.2980    0.0000 H   0  0  0  0  0  0  0  0  0  0  0  0
    2.4400   -1.6430    0.0000 H   0  0  0  0  0  0  0  0  0  0  0  0
    3.4511   -1.2928    0.0000 H   0  0  0  0  0  0  0  0  0  0  0  0
    0.5893    2.2016    0.0000 H   0  0  0  0  0  0  0  0  0  0  0  0
   -0.4614    2.4039    0.0000 H   0  0  0  0  0  0  0  0  0  0  0  0
   -1.2715    2.5598    0.0000 H   0  0  0  0  0  0  0  0  0  0  0  0
   -1.6218    0.7399    0.0000 H   0  0  0  0  0  0  0  0  0  0  0  0
   -1.9720    1.7509    0.0000 H   0  0  0  0  0  0  0  0  0  0  0  0
    1.8887   -2.8461    0.0000 H   0  0  0  0  0  0  0  0  0  0  0  0
    2.9394   -3.0484    0.0000 H   0  0  0  0  0  0  0  0  0  0  0  0
    3.7497   -3.2042    0.0000 H   0  0  0  0  0  0  0  0  0  0  0  0
    4.0999   -1.3843    0.0000 H   0  0  0  0  0  0  0  0  0  0  0  0
    4.4501   -2.3954    0.0000 H   0  0  0  0  0  0  0  0  0  0  0  0
   -1.1459   -1.3729    0.0000 H   0  0  0  0  0  0  0  0  0  0  0  0
   -1.9547   -0.6725    0.0000 H   0  0  0  0  0  0  0  0  0  0  0  0
   -1.3653    1.2685    0.0000 H   0  0  0  0  0  0  0  0  0  0  0  0
   -2.5784   -0.1326    0.0000 H   0  0  0  0  0  0  0  0  0  0  0  0
   -2.3763    0.9182    0.0000 H   0  0  0  0  0  0  0  0  0  0  0  0
    3.6240    0.7285    0.0000 H   0  0  0  0  0  0  0  0  0  0  0  0
    4.4329    0.0280    0.0000 H   0  0  0  0  0  0  0  0  0  0  0  0
    3.8431   -1.9130    0.0000 H   0  0  0  0  0  0  0  0  0  0  0  0
    5.0565   -0.5121    0.0000 H   0  0  0  0  0  0  0  0  0  0  0  0
    4.8542   -1.5628    0.0000 H   0  0  0  0  0  0  0  0  0  0  0  0
  1  2  1  0  0  0  0
  1  4  1  0  0  0  0
  1  6  1  0  0  0  0
  1  8  1  0  0  0  0
  2  3  1  0  0  0  0
  2 18  1  0  0  0  0
  2 19  1  0  0  0  0
  3 10  1  0  0  0  0
  3 20  1  0  0  0  0
  3 21  1  0  0  0  0
  4  5  1  0  0  0  0
  4 22  1  0  0  0  0
  4 23  1  0  0  0  0
  5 12  1  0  0  0  0
  5 24  1  0  0  0  0
  5 25  1  0  0  0  0
  6  7  1  0  0  0  0
  6 26  1  0  0  0  0
  6 27  1  0  0  0  0
  7 14  1  0  0  0  0
  7 28  1  0  0  0  0
  7 29  1  0  0  0  0
  8  9  1  0  0  0  0
  8 30  1  0  0  0  0
  8 31  1  0  0  0  0
  9 16  1  0  0  0  0
  9 32  1  0  0  0  0
  9 33  1  0  0  0  0
 10 11  1  0  0  0  0
 10 34  1  0  0  0  0
 10 35  1  0  0  0  0
 11 36  1  0  0  0  0
 11 37  1  0  0  0  0
 11 38  1  0  0  0  0
 12 13  1  0  0  0  0
 12 39  1  0  0  0  0
 12 40  1  0  0  0  0
 13 41  1  0  0  0  0
 13 42  1  0  0  0  0
 13 43  1  0  0  0  0
 14 15  1  0  0  0  0
 14 44  1  0  0  0  0
 14 45  1  0  0  0  0
 15 46  1  0  0  0  0
 15 47  1  0  0  0  0
 15 48  1  0  0  0  0
 16 17  1  0  0  0  0
 16 49  1  0  0  0  0
 16 50  1  0  0  0  0
 17 51  1  0  0  0  0
 17 52  1  0  0  0  0
 17 53  1  0  0  0  0
M  CHG  1   1   1
M  END
>  <DRUGBANK_ID>
DB01851

>  <SECONDARY_ACCESSION_NUMBERS>
EXPT03013

>  <COMMON_NAME>
Tetrabutylammonium Ion

>  <CAS_NUMBER>
2052-49-5

>  <UNII>
CBU2X6BBJR

$$$$
