767
 OpenBabel10282417072D

 61 63  0  0  1  0  0  0  0  0999 V2000
    2.3660    0.6201    0.0000 O   0  0  0  0  0  0  0  0  0  0  0  0
    1.6500   -0.6601    0.0000 O   0  0  0  0  0  0  0  0  0  0  0  0
    6.0029    2.7198    0.0000 O   0  0  0  0  0  0  0  0  0  0  0  0
    7.4663    1.8748    0.0000 O   0  0  0  0  0  0  0  0  0  0  0  0
    3.0853    1.8548    0.0000 O   0  0  0  0  0  0  0  0  0  0  0  0
    4.5639   -0.6374    0.0000 N   0  0  3  0  0  0  0  0  0  0  0  0
    2.3692   -1.8948    0.0000 N   0  0  0  0  0  0  0  0  0  0  0  0
    4.5639    0.1876    0.0000 C   0  0  3  0  0  0  0  0  0  0  0  0
    3.0789   -0.6546    0.0000 C   0  0  3  0  0  0  0  0  0  0  0  0
    3.8264    0.6287    0.0000 C   0  0  0  0  0  0  0  0  0  0  0  0
    3.0789    0.2048    0.0000 C   0  0  3  0  0  0  0  0  0  0  0  0
    3.8264   -1.0784    0.0000 C   0  0  0  0  0  0  0  0  0  0  0  0
    5.2784   -1.0499    0.0000 C   0  0  0  0  0  0  0  0  0  0  0  0
    5.2784    0.6001    0.0000 C   0  0  0  0  0  0  0  0  0  0  0  0
    5.9929   -0.6374    0.0000 C   0  0  0  0  0  0  0  0  0  0  0  0
    5.9929    0.1876    0.0000 C   0  0  0  0  0  0  0  0  0  0  0  0
    2.3660   -1.0698    0.0000 C   0  0  0  0  0  0  0  0  0  0  0  0
    5.2651    1.4593    0.0000 C   0  0  0  0  0  0  0  0  0  0  0  0
    6.7436    0.6058    0.0000 C   0  0  0  0  0  0  0  0  0  0  0  0
    6.0060    1.8948    0.0000 C   0  0  0  0  0  0  0  0  0  0  0  0
    6.7502    1.4651    0.0000 C   0  0  0  0  0  0  0  0  0  0  0  0
    1.6564   -2.3100    0.0000 C   0  0  0  0  0  0  0  0  0  0  0  0
    3.0853   -2.3046    0.0000 C   0  0  0  0  0  0  0  0  0  0  0  0
    2.3692    1.4451    0.0000 C   0  0  0  0  0  0  0  0  0  0  0  0
    1.6596   -3.1350    0.0000 C   0  0  0  0  0  0  0  0  0  0  0  0
    3.0885   -3.1296    0.0000 C   0  0  0  0  0  0  0  0  0  0  0  0
    1.6564    1.8603    0.0000 C   0  0  0  0  0  0  0  0  0  0  0  0
    6.7157    3.1350    0.0000 C   0  0  0  0  0  0  0  0  0  0  0  0
    8.1792    1.4596    0.0000 C   0  0  0  0  0  0  0  0  0  0  0  0
    3.6332   -0.3402    0.0000 H   0  0  0  0  0  0  0  0  0  0  0  0
    4.0034   -0.1160    0.0000 H   0  0  0  0  0  0  0  0  0  0  0  0
    3.8388    1.6986    0.0000 H   0  0  0  0  0  0  0  0  0  0  0  0
    2.9050    1.1726    0.0000 H   0  0  0  0  0  0  0  0  0  0  0  0
    2.1512   -0.3284    0.0000 H   0  0  0  0  0  0  0  0  0  0  0  0
    3.8388   -2.1483    0.0000 H   0  0  0  0  0  0  0  0  0  0  0  0
    2.9050   -1.6224    0.0000 H   0  0  0  0  0  0  0  0  0  0  0  0
    5.2784   -2.1199    0.0000 H   0  0  0  0  0  0  0  0  0  0  0  0
    6.2050   -1.5849    0.0000 H   0  0  0  0  0  0  0  0  0  0  0  0
    6.9195   -1.1724    0.0000 H   0  0  0  0  0  0  0  0  0  0  0  0
    6.9195   -0.1024    0.0000 H   0  0  0  0  0  0  0  0  0  0  0  0
    4.3654    1.9649    0.0000 H   0  0  0  0  0  0  0  0  0  0  0  0
    7.6313    0.0795    0.0000 H   0  0  0  0  0  0  0  0  0  0  0  0
    0.7277   -1.7786    0.0000 H   0  0  0  0  0  0  0  0  0  0  0  0
    0.7318   -2.8486    0.0000 H   0  0  0  0  0  0  0  0  0  0  0  0
    4.0099   -1.7660    0.0000 H   0  0  0  0  0  0  0  0  0  0  0  0
    4.0140   -2.8360    0.0000 H   0  0  0  0  0  0  0  0  0  0  0  0
    0.7350   -3.6736    0.0000 H   0  0  0  0  0  0  0  0  0  0  0  0
    2.5883   -3.6664    0.0000 H   0  0  0  0  0  0  0  0  0  0  0  0
    1.6638   -4.2050    0.0000 H   0  0  0  0  0  0  0  0  0  0  0  0
    2.1639   -3.6682    0.0000 H   0  0  0  0  0  0  0  0  0  0  0  0
    4.0172   -3.6610    0.0000 H   0  0  0  0  0  0  0  0  0  0  0  0
    3.0927   -4.1996    0.0000 H   0  0  0  0  0  0  0  0  0  0  0  0
    1.6605    2.9303    0.0000 H   0  0  0  0  0  0  0  0  0  0  0  0
    0.7277    1.3289    0.0000 H   0  0  0  0  0  0  0  0  0  0  0  0
    0.7318    2.3989    0.0000 H   0  0  0  0  0  0  0  0  0  0  0  0
    7.6444    2.6036    0.0000 H   0  0  0  0  0  0  0  0  0  0  0  0
    6.7116    4.2050    0.0000 H   0  0  0  0  0  0  0  0  0  0  0  0
    7.6403    3.6736    0.0000 H   0  0  0  0  0  0  0  0  0  0  0  0
    8.1751    0.3896    0.0000 H   0  0  0  0  0  0  0  0  0  0  0  0
    9.1079    1.9911    0.0000 H   0  0  0  0  0  0  0  0  0  0  0  0
    9.1038    0.9211    0.0000 H   0  0  0  0  0  0  0  0  0  0  0  0
  1 11  1  0  0  0  0
  1 24  1  0  0  0  0
  2 17  2  0  0  0  0
  3 20  1  0  0  0  0
  3 28  1  0  0  0  0
  4 21  1  0  0  0  0
  4 29  1  0  0  0  0
  5 24  2  0  0  0  0
  6  8  1  0  0  0  0
  6 12  1  0  0  0  0
  6 13  1  0  0  0  0
  7 17  1  0  0  0  0
  7 22  1  0  0  0  0
  7 23  1  0  0  0  0
  8 10  1  0  0  0  0
  8 14  1  0  0  0  0
  8 30  1  0  0  0  0
  9 11  1  0  0  0  0
  9 12  1  0  0  0  0
  9 17  1  0  0  0  0
  9 31  1  0  0  0  0
 10 11  1  0  0  0  0
 10 32  1  0  0  0  0
 10 33  1  0  0  0  0
 11 34  1  0  0  0  0
 12 35  1  0  0  0  0
 12 36  1  0  0  0  0
 13 15  1  0  0  0  0
 13 37  1  0  0  0  0
 13 38  1  0  0  0  0
 14 16  1  0  0  0  0
 14 18  2  0  0  0  0
 15 16  1  0  0  0  0
 15 39  1  0  0  0  0
 15 40  1  0  0  0  0
 16 19  2  0  0  0  0
 18 20  1  0  0  0  0
 18 41  1  0  0  0  0
 19 21  1  0  0  0  0
 19 42  1  0  0  0  0
 20 21  2  0  0  0  0
 22 25  1  0  0  0  0
 22 43  1  0  0  0  0
 22 44  1  0  0  0  0
 23 26  1  0  0  0  0
 23 45  1  0  0  0  0
 23 46  1  0  0  0  0
 24 27  1  0  0  0  0
 25 47  1  0  0  0  0
 25 48  1  0  0  0  0
 25 49  1  0  0  0  0
 26 50  1  0  0  0  0
 26 51  1  0  0  0  0
 26 52  1  0  0  0  0
 27 53  1  0  0  0  0
 27 54  1  0  0  0  0
 27 55  1  0  0  0  0
 28 56  1  0  0  0  0
 28 57  1  0  0  0  0
 28 58  1  0  0  0  0
 29 59  1  0  0  0  0
 29 60  1  0  0  0  0
 29 61  1  0  0  0  0
M  END
>  <DRUGBANK_ID>
DB00767

>  <SECONDARY_ACCESSION_NUMBERS>
APRD00820

>  <COMMON_NAME>
Benzquinamide

>  <CAS_NUMBER>
63-12-7

>  <UNII>
0475EA27Q3

>  <SYNONYMS>
benzquinamida; Benzquinamide; BZQ

$$$$
