
 OpenBabel10282417072D

165165  0  0  1  0  0  0  0  0999 V2000
   -5.0882  -21.0320    0.0000 C   0  0  0  0  0  0  0  0  0  0  0  0
   -4.4345  -21.5352    0.0000 C   0  0  0  0  0  0  0  0  0  0  0  0
   -3.6718  -21.2207    0.0000 C   0  0  0  0  0  0  0  0  0  0  0  0
   -3.0180  -21.7239    0.0000 C   0  0  0  0  0  0  0  0  0  0  0  0
   -2.2554  -21.4094    0.0000 C   0  0  0  0  0  0  0  0  0  0  0  0
   -1.6016  -21.9126    0.0000 C   0  0  0  0  0  0  0  0  0  0  0  0
   -0.8389  -21.5981    0.0000 C   0  0  0  0  0  0  0  0  0  0  0  0
   -0.1852  -22.1014    0.0000 C   0  0  0  0  0  0  0  0  0  0  0  0
    0.5775  -21.7868    0.0000 C   0  0  0  0  0  0  0  0  0  0  0  0
    1.2312  -22.2901    0.0000 C   0  0  0  0  0  0  0  0  0  0  0  0
    1.9939  -21.9755    0.0000 C   0  0  0  0  0  0  0  0  0  0  0  0
    2.6477  -22.4788    0.0000 C   0  0  0  0  0  0  0  0  0  0  0  0
    3.4103  -22.1643    0.0000 C   0  0  0  0  0  0  0  0  0  0  0  0
    4.0641  -22.6675    0.0000 C   0  0  0  0  0  0  0  0  0  0  0  0
    3.9551  -23.4853    0.0000 O   0  0  0  0  0  0  0  0  0  0  0  0
    4.8268  -22.3530    0.0000 N   0  0  0  0  0  0  0  0  0  0  0  0
    5.4805  -22.8562    0.0000 C   0  0  1  0  0  0  0  0  0  0  0  0
    5.3715  -23.6740    0.0000 C   0  0  0  0  0  0  0  0  0  0  0  0
    6.0253  -24.1772    0.0000 C   0  0  0  0  0  0  0  0  0  0  0  0
    5.9163  -24.9950    0.0000 C   0  0  0  0  0  0  0  0  0  0  0  0
    5.1536  -25.3095    0.0000 O   0  0  0  0  0  0  0  0  0  0  0  0
    6.5701  -25.4983    0.0000 O   0  0  0  0  0  0  0  0  0  0  0  0
    6.2432  -22.5417    0.0000 C   0  0  0  0  0  0  0  0  0  0  0  0
    6.3521  -21.7239    0.0000 O   0  0  0  0  0  0  0  0  0  0  0  0
    6.8969  -23.0449    0.0000 N   0  0  0  0  0  0  0  0  0  0  0  0
    7.6596  -22.7304    0.0000 C   0  0  1  0  0  0  0  0  0  0  0  0
    7.7686  -21.9126    0.0000 C   0  0  0  0  0  0  0  0  0  0  0  0
    8.3134  -23.2337    0.0000 C   0  0  0  0  0  0  0  0  0  0  0  0
    8.2044  -24.0514    0.0000 O   0  0  0  0  0  0  0  0  0  0  0  0
    9.0760  -22.9191    0.0000 N   0  0  0  0  0  0  0  0  0  0  0  0
    9.7298  -23.4224    0.0000 C   0  0  1  0  0  0  0  0  0  0  0  0
    9.6208  -24.2402    0.0000 C   0  0  0  0  0  0  0  0  0  0  0  0
   10.2746  -24.7434    0.0000 C   0  0  0  0  0  0  0  0  0  0  0  0
    8.8581  -24.5547    0.0000 C   0  0  0  0  0  0  0  0  0  0  0  0
   10.4925  -23.1079    0.0000 C   0  0  0  0  0  0  0  0  0  0  0  0
   10.6014  -22.2901    0.0000 O   0  0  0  0  0  0  0  0  0  0  0  0
   11.1462  -23.6111    0.0000 N   0  0  0  0  0  0  0  0  0  0  0  0
   11.9089  -23.2966    0.0000 C   0  0  1  0  0  0  0  0  0  0  0  0
   12.0179  -22.4788    0.0000 C   0  0  0  0  0  0  0  0  0  0  0  0
   12.7805  -22.1643    0.0000 O   0  0  0  0  0  0  0  0  0  0  0  0
   12.5626  -23.7998    0.0000 C   0  0  0  0  0  0  0  0  0  0  0  0
   12.4537  -24.6176    0.0000 O   0  0  0  0  0  0  0  0  0  0  0  0
   13.3253  -23.4853    0.0000 N   0  0  0  0  0  0  0  0  0  0  0  0
   13.9791  -23.9885    0.0000 C   0  0  1  0  0  0  0  0  0  0  0  0
   13.8701  -24.8063    0.0000 C   0  0  0  0  0  0  0  0  0  0  0  0
   14.5238  -25.3095    0.0000 C   0  0  0  0  0  0  0  0  0  0  0  0
   15.2865  -24.9950    0.0000 C   0  0  0  0  0  0  0  0  0  0  0  0
   14.4149  -26.1273    0.0000 C   0  0  0  0  0  0  0  0  0  0  0  0
   14.7417  -23.6740    0.0000 C   0  0  0  0  0  0  0  0  0  0  0  0
   14.8507  -22.8562    0.0000 O   0  0  0  0  0  0  0  0  0  0  0  0
   15.3955  -24.1772    0.0000 N   0  0  0  0  0  0  0  0  0  0  0  0
   16.1582  -23.8627    0.0000 C   0  0  1  0  0  0  0  0  0  0  0  0
   16.2671  -23.0449    0.0000 C   0  0  0  0  0  0  0  0  0  0  0  0
   15.6134  -22.5417    0.0000 C   0  0  0  0  0  0  0  0  0  0  0  0
   15.7223  -21.7239    0.0000 C   0  0  0  0  0  0  0  0  0  0  0  0
   15.0686  -21.2207    0.0000 C   0  0  0  0  0  0  0  0  0  0  0  0
   15.1776  -20.4029    0.0000 N   0  0  0  0  0  0  0  0  0  0  0  0
   16.8119  -24.3660    0.0000 C   0  0  0  0  0  0  0  0  0  0  0  0
   16.7030  -25.1837    0.0000 O   0  0  0  0  0  0  0  0  0  0  0  0
   17.5746  -24.0514    0.0000 N   0  0  0  0  0  0  0  0  0  0  0  0
   17.7684  -23.2495    0.0000 C   0  0  0  0  0  0  0  0  0  0  0  0
   18.5910  -23.1861    0.0000 C   0  0  0  0  0  0  0  0  0  0  0  0
   18.9055  -23.9488    0.0000 C   0  0  0  0  0  0  0  0  0  0  0  0
   18.2774  -24.4836    0.0000 C   0  0  1  0  0  0  0  0  0  0  0  0
   18.3408  -25.3061    0.0000 C   0  0  0  0  0  0  0  0  0  0  0  0
   19.0849  -25.6625    0.0000 O   0  0  0  0  0  0  0  0  0  0  0  0
   17.6602  -25.7724    0.0000 N   0  0  0  0  0  0  0  0  0  0  0  0
   17.7236  -26.5949    0.0000 C   0  0  1  0  0  0  0  0  0  0  0  0
   17.0430  -27.0612    0.0000 C   0  0  1  0  0  0  0  0  0  0  0  0
   17.1064  -27.8837    0.0000 C   0  0  0  0  0  0  0  0  0  0  0  0
   16.2989  -26.7048    0.0000 O   0  0  0  0  0  0  0  0  0  0  0  0
   18.4677  -26.9513    0.0000 C   0  0  0  0  0  0  0  0  0  0  0  0
   19.1483  -26.4850    0.0000 O   0  0  0  0  0  0  0  0  0  0  0  0
   18.5312  -27.7738    0.0000 O   0  0  0  0  0  0  0  0  0  0  0  0
   -4.9469  -19.9714    0.0000 H   0  0  0  0  0  0  0  0  0  0  0  0
   -6.0774  -21.4400    0.0000 H   0  0  0  0  0  0  0  0  0  0  0  0
   -5.9361  -20.3793    0.0000 H   0  0  0  0  0  0  0  0  0  0  0  0
   -4.5758  -22.5958    0.0000 H   0  0  0  0  0  0  0  0  0  0  0  0
   -3.5866  -22.1879    0.0000 H   0  0  0  0  0  0  0  0  0  0  0  0
   -3.5305  -20.1601    0.0000 H   0  0  0  0  0  0  0  0  0  0  0  0
   -2.6826  -20.8127    0.0000 H   0  0  0  0  0  0  0  0  0  0  0  0
   -3.1593  -22.7845    0.0000 H   0  0  0  0  0  0  0  0  0  0  0  0
   -2.1701  -22.3766    0.0000 H   0  0  0  0  0  0  0  0  0  0  0  0
   -2.1141  -20.3488    0.0000 H   0  0  0  0  0  0  0  0  0  0  0  0
   -1.2662  -21.0014    0.0000 H   0  0  0  0  0  0  0  0  0  0  0  0
   -1.7429  -22.9732    0.0000 H   0  0  0  0  0  0  0  0  0  0  0  0
   -0.7537  -22.5653    0.0000 H   0  0  0  0  0  0  0  0  0  0  0  0
   -0.6975  -20.5375    0.0000 H   0  0  0  0  0  0  0  0  0  0  0  0
    0.1503  -21.1902    0.0000 H   0  0  0  0  0  0  0  0  0  0  0  0
   -0.3265  -23.1620    0.0000 H   0  0  0  0  0  0  0  0  0  0  0  0
    0.6627  -22.7541    0.0000 H   0  0  0  0  0  0  0  0  0  0  0  0
    0.7188  -20.7262    0.0000 H   0  0  0  0  0  0  0  0  0  0  0  0
    1.5667  -21.3789    0.0000 H   0  0  0  0  0  0  0  0  0  0  0  0
    1.0899  -23.3507    0.0000 H   0  0  0  0  0  0  0  0  0  0  0  0
    2.0791  -22.9428    0.0000 H   0  0  0  0  0  0  0  0  0  0  0  0
    2.1352  -20.9149    0.0000 H   0  0  0  0  0  0  0  0  0  0  0  0
    2.9831  -21.5676    0.0000 H   0  0  0  0  0  0  0  0  0  0  0  0
    2.5064  -23.5394    0.0000 H   0  0  0  0  0  0  0  0  0  0  0  0
    3.4956  -23.1315    0.0000 H   0  0  0  0  0  0  0  0  0  0  0  0
    3.5516  -21.1037    0.0000 H   0  0  0  0  0  0  0  0  0  0  0  0
    4.3995  -21.7563    0.0000 H   0  0  0  0  0  0  0  0  0  0  0  0
    4.9568  -21.3771    0.0000 H   0  0  0  0  0  0  0  0  0  0  0  0
    4.4913  -23.2641    0.0000 H   0  0  0  0  0  0  0  0  0  0  0  0
    4.3823  -24.0820    0.0000 H   0  0  0  0  0  0  0  0  0  0  0  0
    5.2302  -24.7346    0.0000 H   0  0  0  0  0  0  0  0  0  0  0  0
    7.0145  -23.7692    0.0000 H   0  0  0  0  0  0  0  0  0  0  0  0
    6.8732  -24.8299    0.0000 H   0  0  0  0  0  0  0  0  0  0  0  0
    4.4111  -24.7379    0.0000 H   0  0  0  0  0  0  0  0  0  0  0  0
    6.7669  -24.0208    0.0000 H   0  0  0  0  0  0  0  0  0  0  0  0
    6.8118  -22.0777    0.0000 H   0  0  0  0  0  0  0  0  0  0  0  0
    8.7578  -21.5047    0.0000 H   0  0  0  0  0  0  0  0  0  0  0  0
    6.9208  -21.2599    0.0000 H   0  0  0  0  0  0  0  0  0  0  0  0
    7.9100  -20.8520    0.0000 H   0  0  0  0  0  0  0  0  0  0  0  0
    9.2060  -21.9432    0.0000 H   0  0  0  0  0  0  0  0  0  0  0  0
    8.7406  -23.8303    0.0000 H   0  0  0  0  0  0  0  0  0  0  0  0
    9.4795  -25.3008    0.0000 H   0  0  0  0  0  0  0  0  0  0  0  0
   10.1334  -25.8040    0.0000 H   0  0  0  0  0  0  0  0  0  0  0  0
   11.2637  -24.3354    0.0000 H   0  0  0  0  0  0  0  0  0  0  0  0
   11.1225  -25.3960    0.0000 H   0  0  0  0  0  0  0  0  0  0  0  0
    8.0102  -23.9020    0.0000 H   0  0  0  0  0  0  0  0  0  0  0  0
    8.7167  -25.6153    0.0000 H   0  0  0  0  0  0  0  0  0  0  0  0
    7.8689  -24.9626    0.0000 H   0  0  0  0  0  0  0  0  0  0  0  0
   11.0162  -24.5870    0.0000 H   0  0  0  0  0  0  0  0  0  0  0  0
   11.0611  -22.6439    0.0000 H   0  0  0  0  0  0  0  0  0  0  0  0
   11.1700  -21.8261    0.0000 H   0  0  0  0  0  0  0  0  0  0  0  0
   12.1592  -21.4182    0.0000 H   0  0  0  0  0  0  0  0  0  0  0  0
   13.5491  -22.7560    0.0000 H   0  0  0  0  0  0  0  0  0  0  0  0
   13.4553  -22.5094    0.0000 H   0  0  0  0  0  0  0  0  0  0  0  0
   12.9899  -24.3965    0.0000 H   0  0  0  0  0  0  0  0  0  0  0  0
   12.8809  -25.2142    0.0000 H   0  0  0  0  0  0  0  0  0  0  0  0
   13.7288  -25.8669    0.0000 H   0  0  0  0  0  0  0  0  0  0  0  0
   15.3717  -25.9622    0.0000 H   0  0  0  0  0  0  0  0  0  0  0  0
   16.1344  -25.6477    0.0000 H   0  0  0  0  0  0  0  0  0  0  0  0
   15.4279  -23.9344    0.0000 H   0  0  0  0  0  0  0  0  0  0  0  0
   16.2757  -24.5871    0.0000 H   0  0  0  0  0  0  0  0  0  0  0  0
   13.4257  -26.5353    0.0000 H   0  0  0  0  0  0  0  0  0  0  0  0
   15.2628  -26.7799    0.0000 H   0  0  0  0  0  0  0  0  0  0  0  0
   14.2737  -27.1879    0.0000 H   0  0  0  0  0  0  0  0  0  0  0  0
   15.2655  -25.1531    0.0000 H   0  0  0  0  0  0  0  0  0  0  0  0
   15.3103  -23.2100    0.0000 H   0  0  0  0  0  0  0  0  0  0  0  0
   17.2563  -22.6369    0.0000 H   0  0  0  0  0  0  0  0  0  0  0  0
   16.4084  -21.9843    0.0000 H   0  0  0  0  0  0  0  0  0  0  0  0
   14.6242  -22.9497    0.0000 H   0  0  0  0  0  0  0  0  0  0  0  0
   14.7655  -21.8891    0.0000 H   0  0  0  0  0  0  0  0  0  0  0  0
   16.7115  -21.3159    0.0000 H   0  0  0  0  0  0  0  0  0  0  0  0
   15.8636  -20.6633    0.0000 H   0  0  0  0  0  0  0  0  0  0  0  0
   14.0794  -21.6286    0.0000 H   0  0  0  0  0  0  0  0  0  0  0  0
   14.2207  -20.5680    0.0000 H   0  0  0  0  0  0  0  0  0  0  0  0
   16.1206  -20.0141    0.0000 H   0  0  0  0  0  0  0  0  0  0  0  0
   14.3694  -19.7807    0.0000 H   0  0  0  0  0  0  0  0  0  0  0  0
   17.0748  -22.4348    0.0000 H   0  0  0  0  0  0  0  0  0  0  0  0
   18.1794  -22.2616    0.0000 H   0  0  0  0  0  0  0  0  0  0  0  0
   19.1515  -22.2747    0.0000 H   0  0  0  0  0  0  0  0  0  0  0  0
   19.6576  -23.2718    0.0000 H   0  0  0  0  0  0  0  0  0  0  0  0
   19.9455  -24.2002    0.0000 H   0  0  0  0  0  0  0  0  0  0  0  0
   19.1537  -24.9896    0.0000 H   0  0  0  0  0  0  0  0  0  0  0  0
   19.2653  -24.8946    0.0000 H   0  0  0  0  0  0  0  0  0  0  0  0
   16.7723  -25.3472    0.0000 H   0  0  0  0  0  0  0  0  0  0  0  0
   16.7585  -26.1328    0.0000 H   0  0  0  0  0  0  0  0  0  0  0  0
   16.9607  -25.9944    0.0000 H   0  0  0  0  0  0  0  0  0  0  0  0
   16.2236  -28.4883    0.0000 H   0  0  0  0  0  0  0  0  0  0  0  0
   18.0714  -28.3459    0.0000 H   0  0  0  0  0  0  0  0  0  0  0  0
   17.1886  -28.9505    0.0000 H   0  0  0  0  0  0  0  0  0  0  0  0
   16.2244  -25.7377    0.0000 H   0  0  0  0  0  0  0  0  0  0  0  0
   19.9934  -26.8896    0.0000 H   0  0  0  0  0  0  0  0  0  0  0  0
  1  2  1  0  0  0  0
  1 75  1  0  0  0  0
  1 76  1  0  0  0  0
  1 77  1  0  0  0  0
  2  3  1  0  0  0  0
  2 78  1  0  0  0  0
  2 79  1  0  0  0  0
  3  4  1  0  0  0  0
  3 80  1  0  0  0  0
  3 81  1  0  0  0  0
  4  5  1  0  0  0  0
  4 82  1  0  0  0  0
  4 83  1  0  0  0  0
  5  6  1  0  0  0  0
  5 84  1  0  0  0  0
  5 85  1  0  0  0  0
  6  7  1  0  0  0  0
  6 86  1  0  0  0  0
  6 87  1  0  0  0  0
  7  8  1  0  0  0  0
  7 88  1  0  0  0  0
  7 89  1  0  0  0  0
  8  9  1  0  0  0  0
  8 90  1  0  0  0  0
  8 91  1  0  0  0  0
  9 10  1  0  0  0  0
  9 92  1  0  0  0  0
  9 93  1  0  0  0  0
 10 11  1  0  0  0  0
 10 94  1  0  0  0  0
 10 95  1  0  0  0  0
 11 12  1  0  0  0  0
 11 96  1  0  0  0  0
 11 97  1  0  0  0  0
 12 13  1  0  0  0  0
 12 98  1  0  0  0  0
 12 99  1  0  0  0  0
 13 14  1  0  0  0  0
 13100  1  0  0  0  0
 13101  1  0  0  0  0
 14 15  2  0  0  0  0
 14 16  1  0  0  0  0
 16102  1  0  0  0  0
 17 16  1  0  0  0  0
 17 18  1  0  0  0  0
 17 23  1  0  0  0  0
 17103  1  1  0  0  0
 18 19  1  0  0  0  0
 18104  1  0  0  0  0
 18105  1  0  0  0  0
 19 20  1  0  0  0  0
 19106  1  0  0  0  0
 19107  1  0  0  0  0
 20 21  1  0  0  0  0
 20 22  2  0  0  0  0
 21108  1  0  0  0  0
 23 24  2  0  0  0  0
 23 25  1  0  0  0  0
 25109  1  0  0  0  0
 26 25  1  0  0  0  0
 26 27  1  0  0  0  0
 26 28  1  0  0  0  0
 26110  1  6  0  0  0
 27111  1  0  0  0  0
 27112  1  0  0  0  0
 27113  1  0  0  0  0
 28 29  2  0  0  0  0
 28 30  1  0  0  0  0
 30114  1  0  0  0  0
 31 30  1  0  0  0  0
 31 32  1  0  0  0  0
 31 35  1  0  0  0  0
 31115  1  1  0  0  0
 32 33  1  0  0  0  0
 32 34  1  0  0  0  0
 32116  1  0  0  0  0
 33117  1  0  0  0  0
 33118  1  0  0  0  0
 33119  1  0  0  0  0
 34120  1  0  0  0  0
 34121  1  0  0  0  0
 34122  1  0  0  0  0
 35 36  2  0  0  0  0
 35 37  1  0  0  0  0
 37123  1  0  0  0  0
 38 37  1  0  0  0  0
 38 39  1  0  0  0  0
 38 41  1  0  0  0  0
 38124  1  6  0  0  0
 39 40  1  0  0  0  0
 39125  1  0  0  0  0
 39126  1  0  0  0  0
 40127  1  0  0  0  0
 41 42  2  0  0  0  0
 41 43  1  0  0  0  0
 43128  1  0  0  0  0
 44 43  1  0  0  0  0
 44 45  1  0  0  0  0
 44 49  1  0  0  0  0
 44129  1  1  0  0  0
 45 46  1  0  0  0  0
 45130  1  0  0  0  0
 45131  1  0  0  0  0
 46 47  1  0  0  0  0
 46 48  1  0  0  0  0
 46132  1  0  0  0  0
 47133  1  0  0  0  0
 47134  1  0  0  0  0
 47135  1  0  0  0  0
 48136  1  0  0  0  0
 48137  1  0  0  0  0
 48138  1  0  0  0  0
 49 50  2  0  0  0  0
 49 51  1  0  0  0  0
 51139  1  0  0  0  0
 52 51  1  0  0  0  0
 52 53  1  0  0  0  0
 52 58  1  0  0  0  0
 52140  1  6  0  0  0
 53 54  1  0  0  0  0
 53141  1  0  0  0  0
 53142  1  0  0  0  0
 54 55  1  0  0  0  0
 54143  1  0  0  0  0
 54144  1  0  0  0  0
 55 56  1  0  0  0  0
 55145  1  0  0  0  0
 55146  1  0  0  0  0
 56 57  1  0  0  0  0
 56147  1  0  0  0  0
 56148  1  0  0  0  0
 57149  1  0  0  0  0
 57150  1  0  0  0  0
 58 59  2  0  0  0  0
 58 60  1  0  0  0  0
 60 61  1  0  0  0  0
 61 62  1  0  0  0  0
 61151  1  0  0  0  0
 61152  1  0  0  0  0
 62 63  1  0  0  0  0
 62153  1  0  0  0  0
 62154  1  0  0  0  0
 63155  1  0  0  0  0
 63156  1  0  0  0  0
 64 63  1  0  0  0  0
 64 60  1  0  0  0  0
 64 65  1  0  0  0  0
 64157  1  6  0  0  0
 65 66  2  0  0  0  0
 65 67  1  0  0  0  0
 67158  1  0  0  0  0
 68 67  1  0  0  0  0
 68 69  1  0  0  0  0
 68 72  1  0  0  0  0
 68159  1  1  0  0  0
 69 70  1  0  0  0  0
 69 71  1  0  0  0  0
 69160  1  6  0  0  0
 70161  1  0  0  0  0
 70162  1  0  0  0  0
 70163  1  0  0  0  0
 71164  1  0  0  0  0
 72 73  1  0  0  0  0
 72 74  2  0  0  0  0
 73165  1  0  0  0  0
M  END
>  <DRUGBANK_ID>
DB18564

>  <COMMON_NAME>
YT-001

>  <CAS_NUMBER>
1072301-78-0

>  <UNII>
256XF8BC7R

>  <SYNONYMS>
L-Threonine, N-(1-oxotetradecyl)-L-Î±-glutamyl-L-alanyl-L-valyl-L-seryl-L-leucyl-L-lysyl-L-prolyl-; N-myristoylated -Glu-Ala-Val-Ser-Leu-Lys-Pro-Thr

$$$$
