XND
 OpenBabel10282417072D

 52 55  0  0  0  0  0  0  0  0999 V2000
   -0.8341   -3.5622    0.0000 Cl  0  0  0  0  0  0  0  0  0  0  0  0
   -0.4761   -2.8189    0.0000 C   0  0  0  0  0  0  0  0  0  0  0  0
    0.3466   -2.7573    0.0000 C   0  0  0  0  0  0  0  0  0  0  0  0
    0.7045   -2.0140    0.0000 C   0  0  0  0  0  0  0  0  0  0  0  0
    1.5272   -1.9523    0.0000 Cl  0  0  0  0  0  0  0  0  0  0  0  0
   -0.9409   -2.1373    0.0000 C   0  0  0  0  0  0  0  0  0  0  0  0
   -0.5829   -1.3940    0.0000 C   0  0  0  0  0  0  0  0  0  0  0  0
    0.2398   -1.3323    0.0000 C   0  0  0  0  0  0  0  0  0  0  0  0
    0.5977   -0.5890    0.0000 C   0  0  1  0  0  0  0  0  0  0  0  0
    0.0833    0.0560    0.0000 C   0  0  0  0  0  0  0  0  0  0  0  0
   -0.7050   -0.1872    0.0000 C   0  0  0  0  0  0  0  0  0  0  0  0
   -0.8886   -0.9915    0.0000 O   0  0  0  0  0  0  0  0  0  0  0  0
   -1.3098    0.3740    0.0000 C   0  0  0  0  0  0  0  0  0  0  0  0
    1.4227   -0.5890    0.0000 N   0  0  0  0  0  0  0  0  0  0  0  0
    1.7807   -1.3323    0.0000 C   0  0  0  0  0  0  0  0  0  0  0  0
    2.6034   -1.3940    0.0000 C   0  0  0  0  0  0  0  0  0  0  0  0
    1.8054   -2.1569    0.0000 O   0  0  0  0  0  0  0  0  0  0  0  0
    1.9371    0.0560    0.0000 C   0  0  0  0  0  0  0  0  0  0  0  0
    2.7255   -0.1872    0.0000 C   0  0  0  0  0  0  0  0  0  0  0  0
    3.3302    0.3740    0.0000 C   0  0  0  0  0  0  0  0  0  0  0  0
    3.1466    1.1783    0.0000 C   0  0  0  0  0  0  0  0  0  0  0  0
    2.3583    1.4214    0.0000 C   0  0  0  0  0  0  0  0  0  0  0  0
    2.1747    2.2258    0.0000 O   0  0  0  0  0  0  0  0  0  0  0  0
    1.7535    0.8603    0.0000 C   0  0  0  0  0  0  0  0  0  0  0  0
    1.0102    1.2183    0.0000 N   0  0  0  0  0  0  0  0  0  0  0  0
    0.2669    0.8603    0.0000 C   0  0  0  0  0  0  0  0  0  0  0  0
   -0.3378    1.4214    0.0000 C   0  0  0  0  0  0  0  0  0  0  0  0
   -1.1262    1.1783    0.0000 C   0  0  0  0  0  0  0  0  0  0  0  0
   -1.9236    1.3898    0.0000 C   0  0  0  0  0  0  0  0  0  0  0  0
   -1.3967    1.9577    0.0000 C   0  0  0  0  0  0  0  0  0  0  0  0
    0.0175   -0.6544    0.0000 H   0  0  0  0  0  0  0  0  0  0  0  0
    0.9279   -3.6100    0.0000 H   0  0  0  0  0  0  0  0  0  0  0  0
   -1.9700   -2.2144    0.0000 H   0  0  0  0  0  0  0  0  0  0  0  0
   -1.1642   -0.5413    0.0000 H   0  0  0  0  0  0  0  0  0  0  0  0
   -2.3323    0.0586    0.0000 H   0  0  0  0  0  0  0  0  0  0  0  0
   -2.0941    1.1018    0.0000 H   0  0  0  0  0  0  0  0  0  0  0  0
    3.0676   -2.3581    0.0000 H   0  0  0  0  0  0  0  0  0  0  0  0
    3.2062   -0.5100    0.0000 H   0  0  0  0  0  0  0  0  0  0  0  0
    3.6704   -1.4740    0.0000 H   0  0  0  0  0  0  0  0  0  0  0  0
    2.9552   -1.1933    0.0000 H   0  0  0  0  0  0  0  0  0  0  0  0
    4.3164    0.0699    0.0000 H   0  0  0  0  0  0  0  0  0  0  0  0
    3.9031    1.8803    0.0000 H   0  0  0  0  0  0  0  0  0  0  0  0
    2.8616    2.8631    0.0000 H   0  0  0  0  0  0  0  0  0  0  0  0
    1.0102    2.2028    0.0000 H   0  0  0  0  0  0  0  0  0  0  0  0
   -0.0996    2.4646    0.0000 H   0  0  0  0  0  0  0  0  0  0  0  0
   -1.1221    2.1492    0.0000 H   0  0  0  0  0  0  0  0  0  0  0  0
   -2.2032    2.4226    0.0000 H   0  0  0  0  0  0  0  0  0  0  0  0
   -2.6783    0.6313    0.0000 H   0  0  0  0  0  0  0  0  0  0  0  0
   -2.9578    1.6641    0.0000 H   0  0  0  0  0  0  0  0  0  0  0  0
   -0.6967    2.7670    0.0000 H   0  0  0  0  0  0  0  0  0  0  0  0
   -2.4475    2.1593    0.0000 H   0  0  0  0  0  0  0  0  0  0  0  0
   -1.7475    2.9686    0.0000 H   0  0  0  0  0  0  0  0  0  0  0  0
  1  2  1  0  0  0  0
  2  3  2  0  0  0  0
  2  6  1  0  0  0  0
  3  4  1  0  0  0  0
  3 32  1  0  0  0  0
  4  5  1  0  0  0  0
  4  8  2  0  0  0  0
  6  7  2  0  0  0  0
  6 33  1  0  0  0  0
  7  8  1  0  0  0  0
  7 34  1  0  0  0  0
  9  8  1  0  0  0  0
  9 10  1  0  0  0  0
  9 14  1  0  0  0  0
  9 31  1  6  0  0  0
 10 11  1  0  0  0  0
 10 26  2  0  0  0  0
 11 12  2  0  0  0  0
 11 13  1  0  0  0  0
 13 28  1  0  0  0  0
 13 35  1  0  0  0  0
 13 36  1  0  0  0  0
 14 15  1  0  0  0  0
 14 18  1  0  0  0  0
 15 16  1  0  0  0  0
 15 17  2  0  0  0  0
 16 37  1  0  0  0  0
 16 38  1  0  0  0  0
 16 39  1  0  0  0  0
 18 19  2  0  0  0  0
 18 24  1  0  0  0  0
 19 20  1  0  0  0  0
 19 40  1  0  0  0  0
 20 21  2  0  0  0  0
 20 41  1  0  0  0  0
 21 22  1  0  0  0  0
 21 42  1  0  0  0  0
 22 23  1  0  0  0  0
 22 24  2  0  0  0  0
 23 43  1  0  0  0  0
 24 25  1  0  0  0  0
 25 26  1  0  0  0  0
 25 44  1  0  0  0  0
 26 27  1  0  0  0  0
 27 28  1  0  0  0  0
 27 45  1  0  0  0  0
 27 46  1  0  0  0  0
 28 29  1  0  0  0  0
 28 30  1  0  0  0  0
 29 47  1  0  0  0  0
 29 48  1  0  0  0  0
 29 49  1  0  0  0  0
 30 50  1  0  0  0  0
 30 51  1  0  0  0  0
 30 52  1  0  0  0  0
M  END
>  <DRUGBANK_ID>
DB08747

>  <COMMON_NAME>
(11R)-10-acetyl-11-(2,4-dichlorophenyl)-6-hydroxy-3,3-dimethyl-2,3,4,5,10,11-hexahydro-1H-dibenzo[b,e][1,4]diazepin-1-one

$$$$
