
 OpenBabel10282417072D

 42 44  0  0  0  0  0  0  0  0999 V2000
    1.5204   -4.0622    0.0000 Cl  0  0  0  0  0  0  0  0  0  0  0  0
    0.0914    0.0627    0.0000 N   0  0  0  0  0  0  0  0  0  0  0  0
    0.0914   -1.5872    0.0000 N   0  0  0  0  0  0  0  0  0  0  0  0
    0.0444    2.6102    0.0000 N   0  0  0  0  0  0  0  0  0  0  0  0
   -0.2104    3.3948    0.0000 N   0  0  0  0  0  0  0  0  0  0  0  0
    0.8059   -0.3496    0.0000 C   0  0  0  0  0  0  0  0  0  0  0  0
   -0.6229   -0.3496    0.0000 C   0  0  0  0  0  0  0  0  0  0  0  0
    0.8059   -1.1747    0.0000 C   0  0  0  0  0  0  0  0  0  0  0  0
   -0.6229   -1.1747    0.0000 C   0  0  0  0  0  0  0  0  0  0  0  0
    0.0914    0.8878    0.0000 C   0  0  0  0  0  0  0  0  0  0  0  0
   -0.6229    1.3002    0.0000 C   0  0  0  0  0  0  0  0  0  0  0  0
    0.0914   -2.4122    0.0000 C   0  0  0  0  0  0  0  0  0  0  0  0
   -0.6229    2.1253    0.0000 C   0  0  0  0  0  0  0  0  0  0  0  0
    0.8059   -2.8247    0.0000 C   0  0  0  0  0  0  0  0  0  0  0  0
   -0.6229   -2.8247    0.0000 C   0  0  0  0  0  0  0  0  0  0  0  0
   -1.2904    2.6102    0.0000 C   0  0  0  0  0  0  0  0  0  0  0  0
   -1.0355    3.3948    0.0000 C   0  0  0  0  0  0  0  0  0  0  0  0
    0.8059   -3.6497    0.0000 C   0  0  0  0  0  0  0  0  0  0  0  0
   -0.6229   -3.6497    0.0000 C   0  0  0  0  0  0  0  0  0  0  0  0
    0.0914   -4.0622    0.0000 C   0  0  0  0  0  0  0  0  0  0  0  0
   -1.5204    4.0622    0.0000 C   0  0  0  0  0  0  0  0  0  0  0  0
    0.0901    3.8086    0.0000 H   0  0  0  0  0  0  0  0  0  0  0  0
    1.7325    0.1855    0.0000 H   0  0  0  0  0  0  0  0  0  0  0  0
    1.7326   -0.8845    0.0000 H   0  0  0  0  0  0  0  0  0  0  0  0
   -1.5495    0.1854    0.0000 H   0  0  0  0  0  0  0  0  0  0  0  0
   -1.5496   -0.8846    0.0000 H   0  0  0  0  0  0  0  0  0  0  0  0
    1.7325   -1.7097    0.0000 H   0  0  0  0  0  0  0  0  0  0  0  0
    1.7325   -0.6397    0.0000 H   0  0  0  0  0  0  0  0  0  0  0  0
   -1.5496   -1.7097    0.0000 H   0  0  0  0  0  0  0  0  0  0  0  0
   -1.5495   -0.6397    0.0000 H   0  0  0  0  0  0  0  0  0  0  0  0
    1.0180    1.4228    0.0000 H   0  0  0  0  0  0  0  0  0  0  0  0
    0.0914    1.9578    0.0000 H   0  0  0  0  0  0  0  0  0  0  0  0
   -1.5495    0.7652    0.0000 H   0  0  0  0  0  0  0  0  0  0  0  0
   -1.5495    1.8352    0.0000 H   0  0  0  0  0  0  0  0  0  0  0  0
    1.6996   -2.3087    0.0000 H   0  0  0  0  0  0  0  0  0  0  0  0
   -1.5167   -2.3087    0.0000 H   0  0  0  0  0  0  0  0  0  0  0  0
   -2.2719    2.2912    0.0000 H   0  0  0  0  0  0  0  0  0  0  0  0
   -1.5167   -4.1657    0.0000 H   0  0  0  0  0  0  0  0  0  0  0  0
    0.0913   -5.0942    0.0000 H   0  0  0  0  0  0  0  0  0  0  0  0
   -1.0852    5.0397    0.0000 H   0  0  0  0  0  0  0  0  0  0  0  0
   -2.5845    3.9503    0.0000 H   0  0  0  0  0  0  0  0  0  0  0  0
   -2.1493    4.9278    0.0000 H   0  0  0  0  0  0  0  0  0  0  0  0
  1 18  1  0  0  0  0
  2  6  1  0  0  0  0
  2  7  1  0  0  0  0
  2 10  1  0  0  0  0
  3  8  1  0  0  0  0
  3  9  1  0  0  0  0
  3 12  1  0  0  0  0
  4  5  1  0  0  0  0
  4 13  2  0  0  0  0
  5 17  1  0  0  0  0
  5 22  1  0  0  0  0
  6  8  1  0  0  0  0
  6 23  1  0  0  0  0
  6 24  1  0  0  0  0
  7  9  1  0  0  0  0
  7 25  1  0  0  0  0
  7 26  1  0  0  0  0
  8 27  1  0  0  0  0
  8 28  1  0  0  0  0
  9 29  1  0  0  0  0
  9 30  1  0  0  0  0
 10 11  1  0  0  0  0
 10 31  1  0  0  0  0
 10 32  1  0  0  0  0
 11 13  1  0  0  0  0
 11 33  1  0  0  0  0
 11 34  1  0  0  0  0
 12 14  2  0  0  0  0
 12 15  1  0  0  0  0
 13 16  1  0  0  0  0
 14 18  1  0  0  0  0
 14 35  1  0  0  0  0
 15 19  2  0  0  0  0
 15 36  1  0  0  0  0
 16 17  2  0  0  0  0
 16 37  1  0  0  0  0
 17 21  1  0  0  0  0
 18 20  2  0  0  0  0
 19 20  1  0  0  0  0
 19 38  1  0  0  0  0
 20 39  1  0  0  0  0
 21 40  1  0  0  0  0
 21 41  1  0  0  0  0
 21 42  1  0  0  0  0
M  END
>  <DRUGBANK_ID>
DB09197

>  <COMMON_NAME>
Mepiprazole

>  <CAS_NUMBER>
20326-12-9

>  <UNII>
977BAL0NR7

>  <SYNONYMS>
Mepiprazol; Mepiprazole; Mepiprazolum

$$$$
