
 OpenBabel10282417072D

 32 31  0  0  1  0  0  0  0  0999 V2000
    2.0625   -0.7145    0.0000 C   0  0  0  0  0  0  0  0  0  0  0  0
    5.6349   -0.3020    0.0000 C   0  0  0  0  0  0  0  0  0  0  0  0
    2.7770   -0.3020    0.0000 C   0  0  1  0  0  0  0  0  0  0  0  0
    4.9204   -0.7145    0.0000 C   0  0  2  0  0  0  0  0  0  0  0  0
    3.4914   -0.7145    0.0000 C   0  0  2  0  0  0  0  0  0  0  0  0
    4.2059   -0.3020    0.0000 C   0  0  2  0  0  0  0  0  0  0  0  0
    2.7770    0.5230    0.0000 N   0  0  0  0  0  0  0  0  0  0  0  0
    1.3480   -0.3020    0.0000 O   0  0  0  0  0  0  0  0  0  0  0  0
    4.9204   -1.5395    0.0000 O   0  0  0  0  0  0  0  0  0  0  0  0
    3.4914   -1.5395    0.0000 O   0  0  0  0  0  0  0  0  0  0  0  0
    4.2059    0.5230    0.0000 O   0  0  0  0  0  0  0  0  0  0  0  0
    7.7783    0.1105    0.0000 O   0  0  0  0  0  0  0  0  0  0  0  0
    7.4763   -1.0164    0.0000 O   0  0  0  0  0  0  0  0  0  0  0  0
    6.6513    0.4125    0.0000 O   0  0  0  0  0  0  0  0  0  0  0  0
    6.3493   -0.7145    0.0000 O   0  0  0  0  0  0  0  0  0  0  0  0
    7.0638   -0.3020    0.0000 P   0  0  0  0  0  0  0  0  0  0  0  0
    2.7770   -1.1270    0.0000 H   0  0  0  0  0  0  0  0  0  0  0  0
    4.9204    0.1105    0.0000 H   0  0  0  0  0  0  0  0  0  0  0  0
    3.4914    0.1105    0.0000 H   0  0  0  0  0  0  0  0  0  0  0  0
    4.2059   -1.1270    0.0000 H   0  0  0  0  0  0  0  0  0  0  0  0
    2.0625   -1.7845    0.0000 H   0  0  0  0  0  0  0  0  0  0  0  0
    1.1359   -1.2495    0.0000 H   0  0  0  0  0  0  0  0  0  0  0  0
    5.6349    0.7680    0.0000 H   0  0  0  0  0  0  0  0  0  0  0  0
    6.5616    0.2330    0.0000 H   0  0  0  0  0  0  0  0  0  0  0  0
    3.6603    1.0330    0.0000 H   0  0  0  0  0  0  0  0  0  0  0  0
    1.8937    1.0330    0.0000 H   0  0  0  0  0  0  0  0  0  0  0  0
    1.3480    0.6680    0.0000 H   0  0  0  0  0  0  0  0  0  0  0  0
    4.0804   -2.0245    0.0000 H   0  0  0  0  0  0  0  0  0  0  0  0
    2.6514   -2.0245    0.0000 H   0  0  0  0  0  0  0  0  0  0  0  0
    5.0459    1.0080    0.0000 H   0  0  0  0  0  0  0  0  0  0  0  0
    8.6183   -0.3745    0.0000 H   0  0  0  0  0  0  0  0  0  0  0  0
    6.9913   -1.8565    0.0000 H   0  0  0  0  0  0  0  0  0  0  0  0
  1 21  1  0  0  0  0
  1 22  1  0  0  0  0
  2 23  1  0  0  0  0
  2 24  1  0  0  0  0
  3  1  1  0  0  0  0
  3  7  1  0  0  0  0
  3 17  1  1  0  0  0
  4  2  1  0  0  0  0
  4  9  1  0  0  0  0
  4 18  1  6  0  0  0
  5  3  1  0  0  0  0
  5 10  1  0  0  0  0
  5 19  1  1  0  0  0
  6  4  1  0  0  0  0
  6  5  1  0  0  0  0
  6 11  1  0  0  0  0
  6 20  1  1  0  0  0
  7 25  1  0  0  0  0
  7 26  1  0  0  0  0
  8  1  1  0  0  0  0
  8 27  1  0  0  0  0
  9 28  1  0  0  0  0
 10 29  1  0  0  0  0
 11 30  1  0  0  0  0
 12 31  1  0  0  0  0
 13 32  1  0  0  0  0
 15  2  1  0  0  0  0
 16 12  1  0  0  0  0
 16 13  1  0  0  0  0
 16 14  2  0  0  0  0
 16 15  1  0  0  0  0
M  END
>  <DRUGBANK_ID>
DB02445

>  <SECONDARY_ACCESSION_NUMBERS>
EXPT00457

>  <COMMON_NAME>
2-Deoxy-2-Amino Glucitol-6-Phosphate

$$$$
