
 OpenBabel10282417072D

 25 24  0  0  0  0  0  0  0  0999 V2000
   -0.1357   -2.2194    0.0000 S   0  0  0  0  0  0  0  0  0  0  0  0
    2.0078    1.4933    0.0000 O   0  0  0  0  0  0  0  0  0  0  0  0
    1.2932    2.7310    0.0000 O   0  0  0  0  0  0  0  0  0  0  0  0
   -0.8503   -0.9818    0.0000 N   0  0  0  0  0  0  0  0  0  0  0  0
   -0.1357    1.9058    0.0000 N   0  0  0  0  0  0  0  0  0  0  0  0
   -1.5648   -2.2194    0.0000 N   0  0  0  0  0  0  0  0  0  0  0  0
    0.5787    0.6682    0.0000 C   0  0  0  0  0  0  0  0  0  0  0  0
   -0.1357    0.2557    0.0000 C   0  0  0  0  0  0  0  0  0  0  0  0
    0.5787    1.4933    0.0000 C   0  0  1  0  0  0  0  0  0  0  0  0
   -0.1357   -0.5692    0.0000 C   0  0  0  0  0  0  0  0  0  0  0  0
    1.2932    1.9058    0.0000 C   0  0  0  0  0  0  0  0  0  0  0  0
   -0.8503   -1.8068    0.0000 C   0  0  0  0  0  0  0  0  0  0  0  0
   -1.2933   -0.7261    0.0000 H   0  0  0  0  0  0  0  0  0  0  0  0
   -0.5787    1.6501    0.0000 H   0  0  0  0  0  0  0  0  0  0  0  0
   -0.1357    2.4175    0.0000 H   0  0  0  0  0  0  0  0  0  0  0  0
   -1.5648   -2.7310    0.0000 H   0  0  0  0  0  0  0  0  0  0  0  0
   -2.0078   -1.9636    0.0000 H   0  0  0  0  0  0  0  0  0  0  0  0
    2.0079    0.5563    0.0000 H   0  0  0  0  0  0  0  0  0  0  0  0
    1.5054    0.1332    0.0000 H   0  0  0  0  0  0  0  0  0  0  0  0
    1.5053    1.2032    0.0000 H   0  0  0  0  0  0  0  0  0  0  0  0
   -1.0624    0.7907    0.0000 H   0  0  0  0  0  0  0  0  0  0  0  0
   -1.0623   -0.2793    0.0000 H   0  0  0  0  0  0  0  0  0  0  0  0
   -0.3480    0.9583    0.0000 H   0  0  0  0  0  0  0  0  0  0  0  0
    0.7910   -1.1042    0.0000 H   0  0  0  0  0  0  0  0  0  0  0  0
    0.7909   -0.0342    0.0000 H   0  0  0  0  0  0  0  0  0  0  0  0
  1 12  2  0  0  0  0
  2 11  1  0  0  0  0
  2 18  1  0  0  0  0
  3 11  2  0  0  0  0
  4 10  1  0  0  0  0
  4 12  1  0  0  0  0
  4 13  1  0  0  0  0
  5 14  1  0  0  0  0
  5 15  1  0  0  0  0
  6 12  1  0  0  0  0
  6 16  1  0  0  0  0
  6 17  1  0  0  0  0
  7  8  1  0  0  0  0
  7  9  1  0  0  0  0
  7 19  1  0  0  0  0
  7 20  1  0  0  0  0
  8 10  1  0  0  0  0
  8 21  1  0  0  0  0
  8 22  1  0  0  0  0
  9  5  1  0  0  0  0
  9 11  1  0  0  0  0
  9 23  1  1  0  0  0
 10 24  1  0  0  0  0
 10 25  1  0  0  0  0
M  END
>  <DRUGBANK_ID>
DB03953

>  <SECONDARY_ACCESSION_NUMBERS>
EXPT02866

>  <COMMON_NAME>
Thiocitrulline

>  <CAS_NUMBER>
156719-37-8

>  <SYNONYMS>
L-thiocitrulline; Thiocitrulline

$$$$
