
 OpenBabel10282417072D

 88 92  0  0  1  0  0  0  0  0999 V2000
    1.4289    2.4750    0.0000 C   0  0  0  0  0  0  0  0  0  0  0  0
    0.7145    2.0625    0.0000 C   0  0  1  0  0  0  0  0  0  0  0  0
    0.0000    2.4750    0.0000 C   0  0  1  0  0  0  0  0  0  0  0  0
   -0.7145    2.0625    0.0000 C   0  0  2  0  0  0  0  0  0  0  0  0
   -0.7145    1.2375    0.0000 C   0  0  2  0  0  0  0  0  0  0  0  0
    0.0000    0.8250    0.0000 C   0  0  1  0  0  0  0  0  0  0  0  0
    0.7145    1.2375    0.0000 O   0  0  0  0  0  0  0  0  0  0  0  0
    0.0000    0.0000    0.0000 O   0  0  0  0  0  0  0  0  0  0  0  0
    0.7145   -0.4125    0.0000 C   0  0  0  0  0  0  0  0  0  0  0  0
    1.4289    0.0000    0.0000 C   0  0  0  0  0  0  0  0  0  0  0  0
    1.4289    0.8250    0.0000 O   0  0  0  0  0  0  0  0  0  0  0  0
    2.1434   -0.4125    0.0000 C   0  0  0  0  0  0  0  0  0  0  0  0
    2.8579    0.0000    0.0000 C   0  0  0  0  0  0  0  0  0  0  0  0
    3.5724   -0.4125    0.0000 C   0  0  0  0  0  0  0  0  0  0  0  0
    3.5724   -1.2375    0.0000 C   0  0  0  0  0  0  0  0  0  0  0  0
    2.8579   -1.6500    0.0000 C   0  0  0  0  0  0  0  0  0  0  0  0
    2.1434   -1.2375    0.0000 C   0  0  0  0  0  0  0  0  0  0  0  0
    1.4289   -1.6500    0.0000 O   0  0  0  0  0  0  0  0  0  0  0  0
    0.7145   -1.2375    0.0000 C   0  0  0  0  0  0  0  0  0  0  0  0
    0.0000   -1.6500    0.0000 C   0  0  0  0  0  0  0  0  0  0  0  0
    0.0000   -2.4750    0.0000 C   0  0  0  0  0  0  0  0  0  0  0  0
   -0.7145   -2.8875    0.0000 C   0  0  0  0  0  0  0  0  0  0  0  0
   -1.4289   -2.4750    0.0000 C   0  0  0  0  0  0  0  0  0  0  0  0
   -1.4289   -1.6500    0.0000 C   0  0  0  0  0  0  0  0  0  0  0  0
   -0.7145   -1.2375    0.0000 C   0  0  0  0  0  0  0  0  0  0  0  0
   -2.1434   -2.8875    0.0000 O   0  0  0  0  0  0  0  0  0  0  0  0
   -2.8579   -2.4750    0.0000 C   0  0  0  0  0  0  0  0  0  0  0  0
    2.8579   -2.4750    0.0000 C   0  0  0  0  0  0  0  0  0  0  0  0
    2.1434   -2.8875    0.0000 C   0  0  0  0  0  0  0  0  0  0  0  0
    2.1434   -3.7125    0.0000 C   0  0  0  0  0  0  0  0  0  0  0  0
    1.4289   -4.1250    0.0000 C   0  0  0  0  0  0  0  0  0  0  0  0
    2.8579   -4.1250    0.0000 C   0  0  0  0  0  0  0  0  0  0  0  0
    4.2868   -1.6500    0.0000 O   0  0  0  0  0  0  0  0  0  0  0  0
    5.0013   -1.2375    0.0000 C   0  0  1  0  0  0  0  0  0  0  0  0
    5.0013   -0.4125    0.0000 C   0  0  1  0  0  0  0  0  0  0  0  0
    5.7158   -0.0000    0.0000 C   0  0  2  0  0  0  0  0  0  0  0  0
    6.4302   -0.4125    0.0000 C   0  0  1  0  0  0  0  0  0  0  0  0
    6.4302   -1.2375    0.0000 C   0  0  2  0  0  0  0  0  0  0  0  0
    5.7158   -1.6500    0.0000 O   0  0  0  0  0  0  0  0  0  0  0  0
    7.1447   -1.6500    0.0000 C   0  0  0  0  0  0  0  0  0  0  0  0
    7.8592   -1.2375    0.0000 O   0  0  0  0  0  0  0  0  0  0  0  0
    7.1447   -0.0000    0.0000 O   0  0  0  0  0  0  0  0  0  0  0  0
    5.7158    0.8250    0.0000 O   0  0  0  0  0  0  0  0  0  0  0  0
    4.2868    0.0000    0.0000 O   0  0  0  0  0  0  0  0  0  0  0  0
    2.8579    0.8250    0.0000 O   0  0  0  0  0  0  0  0  0  0  0  0
   -1.4289    0.8250    0.0000 O   0  0  0  0  0  0  0  0  0  0  0  0
   -1.4289    2.4750    0.0000 O   0  0  0  0  0  0  0  0  0  0  0  0
    0.0000    3.3000    0.0000 O   0  0  0  0  0  0  0  0  0  0  0  0
    2.3556    1.9400    0.0000 H   0  0  0  0  0  0  0  0  0  0  0  0
    1.4289    3.5450    0.0000 H   0  0  0  0  0  0  0  0  0  0  0  0
    2.3555    3.0100    0.0000 H   0  0  0  0  0  0  0  0  0  0  0  0
    0.7145    3.1325    0.0000 H   0  0  0  0  0  0  0  0  0  0  0  0
    0.9266    3.0100    0.0000 H   0  0  0  0  0  0  0  0  0  0  0  0
   -0.7145    3.1325    0.0000 H   0  0  0  0  0  0  0  0  0  0  0  0
   -1.6412    1.7725    0.0000 H   0  0  0  0  0  0  0  0  0  0  0  0
   -0.9266    0.2900    0.0000 H   0  0  0  0  0  0  0  0  0  0  0  0
    4.4661    0.1035    0.0000 H   0  0  0  0  0  0  0  0  0  0  0  0
    0.8937   -2.9910    0.0000 H   0  0  0  0  0  0  0  0  0  0  0  0
   -0.7145   -3.9195    0.0000 H   0  0  0  0  0  0  0  0  0  0  0  0
   -2.3226   -1.1340    0.0000 H   0  0  0  0  0  0  0  0  0  0  0  0
   -0.7145   -0.2055    0.0000 H   0  0  0  0  0  0  0  0  0  0  0  0
   -2.8579   -1.4050    0.0000 H   0  0  0  0  0  0  0  0  0  0  0  0
   -3.7845   -3.0100    0.0000 H   0  0  0  0  0  0  0  0  0  0  0  0
   -3.7846   -1.9400    0.0000 H   0  0  0  0  0  0  0  0  0  0  0  0
    3.7845   -3.0100    0.0000 H   0  0  0  0  0  0  0  0  0  0  0  0
    2.8579   -3.5450    0.0000 H   0  0  0  0  0  0  0  0  0  0  0  0
    1.2497   -2.3715    0.0000 H   0  0  0  0  0  0  0  0  0  0  0  0
    0.5023   -3.5900    0.0000 H   0  0  0  0  0  0  0  0  0  0  0  0
    1.4289   -5.1950    0.0000 H   0  0  0  0  0  0  0  0  0  0  0  0
    0.5022   -4.6600    0.0000 H   0  0  0  0  0  0  0  0  0  0  0  0
    2.8579   -5.1950    0.0000 H   0  0  0  0  0  0  0  0  0  0  0  0
    3.7845   -3.5900    0.0000 H   0  0  0  0  0  0  0  0  0  0  0  0
    3.7846   -4.6600    0.0000 H   0  0  0  0  0  0  0  0  0  0  0  0
    4.0747   -0.7025    0.0000 H   0  0  0  0  0  0  0  0  0  0  0  0
    4.0747   -0.9475    0.0000 H   0  0  0  0  0  0  0  0  0  0  0  0
    4.7892    0.5350    0.0000 H   0  0  0  0  0  0  0  0  0  0  0  0
    6.4302    0.6575    0.0000 H   0  0  0  0  0  0  0  0  0  0  0  0
    7.3568   -0.7025    0.0000 H   0  0  0  0  0  0  0  0  0  0  0  0
    7.1447   -2.7200    0.0000 H   0  0  0  0  0  0  0  0  0  0  0  0
    8.0713   -2.1850    0.0000 H   0  0  0  0  0  0  0  0  0  0  0  0
    8.6992   -1.7225    0.0000 H   0  0  0  0  0  0  0  0  0  0  0  0
    7.9847   -0.4850    0.0000 H   0  0  0  0  0  0  0  0  0  0  0  0
    6.5558    1.3100    0.0000 H   0  0  0  0  0  0  0  0  0  0  0  0
    4.2868    0.9700    0.0000 H   0  0  0  0  0  0  0  0  0  0  0  0
    3.6694    1.2935    0.0000 H   0  0  0  0  0  0  0  0  0  0  0  0
   -2.2690    1.3100    0.0000 H   0  0  0  0  0  0  0  0  0  0  0  0
   -1.4289    3.4450    0.0000 H   0  0  0  0  0  0  0  0  0  0  0  0
    0.8400    3.7850    0.0000 H   0  0  0  0  0  0  0  0  0  0  0  0
  1 49  1  0  0  0  0
  1 50  1  0  0  0  0
  1 51  1  0  0  0  0
  2  1  1  0  0  0  0
  2  3  1  0  0  0  0
  2  7  1  0  0  0  0
  2 52  1  1  0  0  0
  3  4  1  0  0  0  0
  3 48  1  0  0  0  0
  3 53  1  6  0  0  0
  4  5  1  0  0  0  0
  4 47  1  0  0  0  0
  4 54  1  1  0  0  0
  5  6  1  0  0  0  0
  5 46  1  0  0  0  0
  5 55  1  1  0  0  0
  6  7  1  0  0  0  0
  6  8  1  0  0  0  0
  6 56  1  6  0  0  0
  8  9  1  0  0  0  0
  9 10  1  0  0  0  0
  9 19  2  0  0  0  0
 10 11  2  0  0  0  0
 10 12  1  0  0  0  0
 12 13  2  0  0  0  0
 12 17  1  0  0  0  0
 13 14  1  0  0  0  0
 13 45  1  0  0  0  0
 14 15  2  0  0  0  0
 14 57  1  0  0  0  0
 15 16  1  0  0  0  0
 15 33  1  0  0  0  0
 16 17  2  0  0  0  0
 16 28  1  0  0  0  0
 17 18  1  0  0  0  0
 18 19  1  0  0  0  0
 19 20  1  0  0  0  0
 20 21  2  0  0  0  0
 20 25  1  0  0  0  0
 21 22  1  0  0  0  0
 21 58  1  0  0  0  0
 22 23  2  0  0  0  0
 22 59  1  0  0  0  0
 23 24  1  0  0  0  0
 23 26  1  0  0  0  0
 24 25  2  0  0  0  0
 24 60  1  0  0  0  0
 25 61  1  0  0  0  0
 26 27  1  0  0  0  0
 27 62  1  0  0  0  0
 27 63  1  0  0  0  0
 27 64  1  0  0  0  0
 28 29  1  0  0  0  0
 28 65  1  0  0  0  0
 28 66  1  0  0  0  0
 29 30  2  0  0  0  0
 29 67  1  0  0  0  0
 30 31  1  0  0  0  0
 30 32  1  0  0  0  0
 31 68  1  0  0  0  0
 31 69  1  0  0  0  0
 31 70  1  0  0  0  0
 32 71  1  0  0  0  0
 32 72  1  0  0  0  0
 32 73  1  0  0  0  0
 34 33  1  0  0  0  0
 34 35  1  0  0  0  0
 34 39  1  0  0  0  0
 34 74  1  6  0  0  0
 35 36  1  0  0  0  0
 35 44  1  0  0  0  0
 35 75  1  1  0  0  0
 36 37  1  0  0  0  0
 36 43  1  0  0  0  0
 36 76  1  6  0  0  0
 37 38  1  0  0  0  0
 37 42  1  0  0  0  0
 37 77  1  1  0  0  0
 38 39  1  0  0  0  0
 38 40  1  0  0  0  0
 38 78  1  6  0  0  0
 40 41  1  0  0  0  0
 40 79  1  0  0  0  0
 40 80  1  0  0  0  0
 41 81  1  0  0  0  0
 42 82  1  0  0  0  0
 43 83  1  0  0  0  0
 44 84  1  0  0  0  0
 45 85  1  0  0  0  0
 46 86  1  0  0  0  0
 47 87  1  0  0  0  0
 48 88  1  0  0  0  0
M  END
>  <DRUGBANK_ID>
DB12052

>  <COMMON_NAME>
Icariin

>  <CAS_NUMBER>
489-32-7

>  <UNII>
VNM47R2QSQ

$$$$
