
 OpenBabel10282417072D

 14 13  0  0  0  0  0  0  0  0999 V2000
    0.7145    0.2062    0.0000 C   0  0  0  0  0  0  0  0  0  0  0  0
    0.0000   -0.2062    0.0000 C   0  0  2  0  0  0  0  0  0  0  0  0
   -0.7145    0.2062    0.0000 C   0  0  0  0  0  0  0  0  0  0  0  0
    1.4291   -0.2062    0.0000 O   0  0  0  0  0  0  0  0  0  0  0  0
    0.7145    1.0313    0.0000 O   0  0  0  0  0  0  0  0  0  0  0  0
    0.0000   -1.0313    0.0000 N   0  0  0  0  0  0  0  0  0  0  0  0
   -1.4291   -0.2062    0.0000 O   0  0  0  0  0  0  0  0  0  0  0  0
    0.9266   -0.7413    0.0000 H   0  0  0  0  0  0  0  0  0  0  0  0
   -0.7145    1.2762    0.0000 H   0  0  0  0  0  0  0  0  0  0  0  0
   -1.6411    0.7413    0.0000 H   0  0  0  0  0  0  0  0  0  0  0  0
    1.4293   -1.1432    0.0000 H   0  0  0  0  0  0  0  0  0  0  0  0
   -0.8833   -1.5413    0.0000 H   0  0  0  0  0  0  0  0  0  0  0  0
    0.8833   -1.5413    0.0000 H   0  0  0  0  0  0  0  0  0  0  0  0
   -2.2691    0.2790    0.0000 H   0  0  0  0  0  0  0  0  0  0  0  0
  2  1  1  0  0  0  0
  2  6  1  0  0  0  0
  2  8  1  6  0  0  0
  3  2  1  0  0  0  0
  3  9  1  0  0  0  0
  3 10  1  0  0  0  0
  4  1  1  0  0  0  0
  4 11  1  0  0  0  0
  5  1  2  0  0  0  0
  6 12  1  0  0  0  0
  6 13  1  0  0  0  0
  7  3  1  0  0  0  0
  7 14  1  0  0  0  0
M  END
>  <DRUGBANK_ID>
DB00133

>  <SECONDARY_ACCESSION_NUMBERS>
NUTR00053; DB03375

>  <COMMON_NAME>
Serine

>  <CAS_NUMBER>
56-45-1

>  <UNII>
452VLY9402

>  <SYNONYMS>
(S)-2-Amino-3-hydroxypropanoic acid; (S)-Serine; alpha-Amino-beta-hydroxypropionic acid; beta-Hydroxyalanine; L-Serine; Ser; Serina; Serine; Serinum

$$$$
