F1I
 OpenBabel10282417072D

 52 53  0  0  0  0  0  0  0  0999 V2000
    3.3027   -2.2526    0.0000 C   0  0  0  0  0  0  0  0  0  0  0  0
    1.1593    1.4599    0.0000 C   0  0  0  0  0  0  0  0  0  0  0  0
    2.5883   -1.8401    0.0000 O   0  0  0  0  0  0  0  0  0  0  0  0
    1.8738    0.2224    0.0000 C   0  0  0  0  0  0  0  0  0  0  0  0
    2.5883    0.6349    0.0000 C   0  0  0  0  0  0  0  0  0  0  0  0
    2.5883   -1.0151    0.0000 C   0  0  0  0  0  0  0  0  0  0  0  0
    1.8738   -0.6026    0.0000 C   0  0  0  0  0  0  0  0  0  0  0  0
   -0.2696   -1.0151    0.0000 C   0  0  0  0  0  0  0  0  0  0  0  0
   -0.9841   -0.6026    0.0000 C   0  0  0  0  0  0  0  0  0  0  0  0
    1.1593   -1.0151    0.0000 C   0  0  0  0  0  0  0  0  0  0  0  0
    0.4449    0.2224    0.0000 C   0  0  0  0  0  0  0  0  0  0  0  0
   -0.2696    0.6349    0.0000 C   0  0  0  0  0  0  0  0  0  0  0  0
   -4.5564    0.6349    0.0000 C   0  0  0  0  0  0  0  0  0  0  0  0
   -3.1275    0.6349    0.0000 C   0  0  0  0  0  0  0  0  0  0  0  0
   -3.8420    0.2224    0.0000 C   0  0  0  0  0  0  0  0  0  0  0  0
   -2.4130    0.2224    0.0000 C   0  0  0  0  0  0  0  0  0  0  0  0
   -0.9841    0.2224    0.0000 C   0  0  0  0  0  0  0  0  0  0  0  0
   -2.4130   -0.6026    0.0000 O   0  0  0  0  0  0  0  0  0  0  0  0
   -5.2709    0.2224    0.0000 S   0  0  0  0  0  0  0  0  0  0  0  0
   -1.6986    0.6349    0.0000 N   0  0  0  0  0  0  0  0  0  0  0  0
    0.4449   -0.6026    0.0000 N   0  0  0  0  0  0  0  0  0  0  0  0
    1.1593    0.6349    0.0000 O   0  0  0  0  0  0  0  0  0  0  0  0
    3.3027    0.2224    0.0000 C   0  0  0  0  0  0  0  0  0  0  0  0
    3.3027   -0.6026    0.0000 C   0  0  0  0  0  0  0  0  0  0  0  0
    3.3027   -3.3226    0.0000 H   0  0  0  0  0  0  0  0  0  0  0  0
    4.2294   -1.7176    0.0000 H   0  0  0  0  0  0  0  0  0  0  0  0
    4.2293   -2.7876    0.0000 H   0  0  0  0  0  0  0  0  0  0  0  0
    2.0859    1.9949    0.0000 H   0  0  0  0  0  0  0  0  0  0  0  0
    0.2327    1.9949    0.0000 H   0  0  0  0  0  0  0  0  0  0  0  0
    1.1593    2.5299    0.0000 H   0  0  0  0  0  0  0  0  0  0  0  0
    2.5883    1.6669    0.0000 H   0  0  0  0  0  0  0  0  0  0  0  0
   -0.2696   -2.0851    0.0000 H   0  0  0  0  0  0  0  0  0  0  0  0
    0.6570   -1.5501    0.0000 H   0  0  0  0  0  0  0  0  0  0  0  0
   -1.9107   -1.1376    0.0000 H   0  0  0  0  0  0  0  0  0  0  0  0
   -1.9107   -0.0676    0.0000 H   0  0  0  0  0  0  0  0  0  0  0  0
    1.1593   -2.0851    0.0000 H   0  0  0  0  0  0  0  0  0  0  0  0
    0.2326   -1.5501    0.0000 H   0  0  0  0  0  0  0  0  0  0  0  0
    1.3715    0.7574    0.0000 H   0  0  0  0  0  0  0  0  0  0  0  0
    1.3715   -0.3126    0.0000 H   0  0  0  0  0  0  0  0  0  0  0  0
   -0.2696    1.7049    0.0000 H   0  0  0  0  0  0  0  0  0  0  0  0
   -1.1962    1.1699    0.0000 H   0  0  0  0  0  0  0  0  0  0  0  0
   -4.5564    1.7049    0.0000 H   0  0  0  0  0  0  0  0  0  0  0  0
   -5.4830    1.1699    0.0000 H   0  0  0  0  0  0  0  0  0  0  0  0
   -3.1275    1.7049    0.0000 H   0  0  0  0  0  0  0  0  0  0  0  0
   -2.2009    1.1699    0.0000 H   0  0  0  0  0  0  0  0  0  0  0  0
   -3.8420   -0.8476    0.0000 H   0  0  0  0  0  0  0  0  0  0  0  0
   -2.9154   -0.3126    0.0000 H   0  0  0  0  0  0  0  0  0  0  0  0
   -0.9841    1.2924    0.0000 H   0  0  0  0  0  0  0  0  0  0  0  0
   -6.4487    0.9024    0.0000 H   0  0  0  0  0  0  0  0  0  0  0  0
   -1.6986    1.6194    0.0000 H   0  0  0  0  0  0  0  0  0  0  0  0
    4.1964    0.7384    0.0000 H   0  0  0  0  0  0  0  0  0  0  0  0
    4.1964   -1.1186    0.0000 H   0  0  0  0  0  0  0  0  0  0  0  0
  1  3  1  0  0  0  0
  1 25  1  0  0  0  0
  1 26  1  0  0  0  0
  1 27  1  0  0  0  0
  2 22  1  0  0  0  0
  2 28  1  0  0  0  0
  2 29  1  0  0  0  0
  2 30  1  0  0  0  0
  3  6  1  0  0  0  0
  4  5  2  0  0  0  0
  4  7  1  0  0  0  0
  4 22  1  0  0  0  0
  5 23  1  0  0  0  0
  5 31  1  0  0  0  0
  6  7  2  0  0  0  0
  6 24  1  0  0  0  0
  7 10  1  0  0  0  0
  8  9  1  0  0  0  0
  8 21  1  0  0  0  0
  8 32  1  0  0  0  0
  8 33  1  0  0  0  0
  9 17  1  0  0  0  0
  9 34  1  0  0  0  0
  9 35  1  0  0  0  0
 10 21  1  0  0  0  0
 10 36  1  0  0  0  0
 10 37  1  0  0  0  0
 11 12  1  0  0  0  0
 11 21  1  0  0  0  0
 11 38  1  0  0  0  0
 11 39  1  0  0  0  0
 12 17  1  0  0  0  0
 12 40  1  0  0  0  0
 12 41  1  0  0  0  0
 13 15  1  0  0  0  0
 13 19  1  0  0  0  0
 13 42  1  0  0  0  0
 13 43  1  0  0  0  0
 14 15  1  0  0  0  0
 14 16  1  0  0  0  0
 14 44  1  0  0  0  0
 14 45  1  0  0  0  0
 15 46  1  0  0  0  0
 15 47  1  0  0  0  0
 16 18  2  0  0  0  0
 16 20  1  0  0  0  0
 17 20  1  0  0  0  0
 17 48  1  0  0  0  0
 19 49  1  0  0  0  0
 20 50  1  0  0  0  0
 23 24  2  0  0  0  0
 23 51  1  0  0  0  0
 24 52  1  0  0  0  0
M  END
>  <DRUGBANK_ID>
DB07735

>  <COMMON_NAME>
N-[1-(2,6-dimethoxybenzyl)piperidin-4-yl]-4-sulfanylbutanamide

$$$$
