
 OpenBabel10282417072D

 38 41  0  0  1  0  0  0  0  0999 V2000
   -6.8343    1.0273    0.0000 C   0  0  0  0  0  0  0  0  0  0  0  0
   -6.4218    1.7418    0.0000 C   0  0  0  0  0  0  0  0  0  0  0  0
   -5.5968    1.7418    0.0000 C   0  0  0  0  0  0  0  0  0  0  0  0
   -5.0448    2.3549    0.0000 C   0  0  0  0  0  0  0  0  0  0  0  0
   -4.2911    2.0193    0.0000 C   0  0  0  0  0  0  0  0  0  0  0  0
   -4.3774    1.1988    0.0000 S   0  0  0  0  0  0  0  0  0  0  0  0
   -5.1843    1.0273    0.0000 C   0  0  0  0  0  0  0  0  0  0  0  0
   -5.5968    0.3128    0.0000 C   0  0  0  0  0  0  0  0  0  0  0  0
   -6.4218    0.3128    0.0000 C   0  0  0  0  0  0  0  0  0  0  0  0
   -5.1843   -0.4017    0.0000 Cl  0  0  0  0  0  0  0  0  0  0  0  0
   -3.5767    2.4318    0.0000 C   0  0  0  0  0  0  0  0  0  0  0  0
   -2.8622    2.0193    0.0000 O   0  0  0  0  0  0  0  0  0  0  0  0
   -3.5767    3.2568    0.0000 N   0  0  0  0  0  0  0  0  0  0  0  0
   -2.8622    3.6693    0.0000 C   0  0  1  0  0  0  0  0  0  0  0  0
   -2.8622    4.4943    0.0000 C   0  0  0  0  0  0  0  0  0  0  0  0
   -2.1477    4.9068    0.0000 N   0  0  3  0  0  0  0  0  0  0  0  0
   -1.4332    4.4943    0.0000 C   0  0  0  0  0  0  0  0  0  0  0  0
   -1.4332    3.6693    0.0000 C   0  0  0  0  0  0  0  0  0  0  0  0
   -2.1477    3.2568    0.0000 C   0  0  3  0  0  0  0  0  0  0  0  0
   -2.0102    3.8068    0.0000 C   0  0  0  0  0  0  0  0  0  0  0  0
   -2.0102    4.3568    0.0000 C   0  0  0  0  0  0  0  0  0  0  0  0
   -7.8663    1.0273    0.0000 H   0  0  0  0  0  0  0  0  0  0  0  0
   -6.9378    2.6355    0.0000 H   0  0  0  0  0  0  0  0  0  0  0  0
   -5.2594    3.3643    0.0000 H   0  0  0  0  0  0  0  0  0  0  0  0
   -6.9378   -0.5809    0.0000 H   0  0  0  0  0  0  0  0  0  0  0  0
   -4.4293    3.7491    0.0000 H   0  0  0  0  0  0  0  0  0  0  0  0
   -3.7888    4.2043    0.0000 H   0  0  0  0  0  0  0  0  0  0  0  0
   -3.7888    5.0293    0.0000 H   0  0  0  0  0  0  0  0  0  0  0  0
   -2.8622    5.5643    0.0000 H   0  0  0  0  0  0  0  0  0  0  0  0
   -0.5066    5.0293    0.0000 H   0  0  0  0  0  0  0  0  0  0  0  0
   -0.5066    3.9593    0.0000 H   0  0  0  0  0  0  0  0  0  0  0  0
   -0.5066    3.1343    0.0000 H   0  0  0  0  0  0  0  0  0  0  0  0
   -1.4332    2.5993    0.0000 H   0  0  0  0  0  0  0  0  0  0  0  0
   -2.1477    4.3268    0.0000 H   0  0  0  0  0  0  0  0  0  0  0  0
   -0.9482    3.6761    0.0000 H   0  0  0  0  0  0  0  0  0  0  0  0
   -1.2087    4.5157    0.0000 H   0  0  0  0  0  0  0  0  0  0  0  0
   -0.9482    4.4875    0.0000 H   0  0  0  0  0  0  0  0  0  0  0  0
   -1.4046    5.2389    0.0000 H   0  0  0  0  0  0  0  0  0  0  0  0
  1  2  1  0  0  0  0
  1  9  2  0  0  0  0
  1 22  1  0  0  0  0
  2  3  2  0  0  0  0
  2 23  1  0  0  0  0
  3  4  1  0  0  0  0
  3  7  1  0  0  0  0
  4  5  2  0  0  0  0
  4 24  1  0  0  0  0
  5  6  1  0  0  0  0
  5 11  1  0  0  0  0
  6  7  1  0  0  0  0
  7  8  2  0  0  0  0
  8  9  1  0  0  0  0
  8 10  1  0  0  0  0
  9 25  1  0  0  0  0
 11 12  2  0  0  0  0
 11 13  1  0  0  0  0
 13 26  1  0  0  0  0
 14 13  1  0  0  0  0
 14 15  1  0  0  0  0
 14 19  1  0  0  0  0
 14 27  1  6  0  0  0
 15 16  1  0  0  0  0
 15 28  1  0  0  0  0
 15 29  1  0  0  0  0
 16 17  1  0  0  0  0
 16 21  1  0  0  0  0
 17 18  1  0  0  0  0
 17 30  1  0  0  0  0
 17 31  1  0  0  0  0
 18 19  1  0  0  0  0
 18 32  1  0  0  0  0
 18 33  1  0  0  0  0
 19 20  1  0  0  0  0
 19 34  1  0  0  0  0
 20 21  1  0  0  0  0
 20 35  1  0  0  0  0
 20 36  1  0  0  0  0
 21 37  1  0  0  0  0
 21 38  1  0  0  0  0
M  END
>  <DRUGBANK_ID>
DB11726

>  <SECONDARY_ACCESSION_NUMBERS>
DB06341

>  <COMMON_NAME>
Encenicline

>  <CAS_NUMBER>
550999-75-2

>  <UNII>
5FI5376A0X

>  <SYNONYMS>
Encenicline

$$$$
