
 OpenBabel10282417072D

 43 44  0  0  0  0  0  0  0  0999 V2000
    5.0013   -1.2375    0.0000 C   0  0  0  0  0  0  0  0  0  0  0  0
    4.2868   -1.6500    0.0000 C   0  0  0  0  0  0  0  0  0  0  0  0
    3.5724   -1.2375    0.0000 O   0  0  0  0  0  0  0  0  0  0  0  0
    2.8579   -1.6500    0.0000 C   0  0  0  0  0  0  0  0  0  0  0  0
    2.1434   -1.2375    0.0000 O   0  0  0  0  0  0  0  0  0  0  0  0
    2.8579   -2.4750    0.0000 N   0  0  0  0  0  0  0  0  0  0  0  0
    3.5724   -2.8875    0.0000 C   0  0  0  0  0  0  0  0  0  0  0  0
    3.5724   -3.7125    0.0000 C   0  0  0  0  0  0  0  0  0  0  0  0
    2.8579   -4.1250    0.0000 N   0  0  0  0  0  0  0  0  0  0  0  0
    2.1434   -3.7125    0.0000 C   0  0  0  0  0  0  0  0  0  0  0  0
    2.1434   -2.8875    0.0000 C   0  0  0  0  0  0  0  0  0  0  0  0
    2.8579   -4.9500    0.0000 N   0  3  0  0  0  0  0  0  0  0  0  0
    3.5724   -5.3625    0.0000 O   0  5  0  0  0  0  0  0  0  0  0  0
    2.1434   -5.3625    0.0000 N   0  0  0  0  0  0  0  0  0  0  0  0
    2.1434   -6.1875    0.0000 O   0  0  0  0  0  0  0  0  0  0  0  0
    1.4289   -6.6000    0.0000 C   0  0  0  0  0  0  0  0  0  0  0  0
    1.4289   -7.4250    0.0000 C   0  0  0  0  0  0  0  0  0  0  0  0
    0.7145   -7.8375    0.0000 C   0  0  0  0  0  0  0  0  0  0  0  0
   -0.0000   -7.4250    0.0000 C   0  0  0  0  0  0  0  0  0  0  0  0
   -0.0000   -6.6000    0.0000 C   0  0  0  0  0  0  0  0  0  0  0  0
    0.7145   -6.1875    0.0000 C   0  0  0  0  0  0  0  0  0  0  0  0
    0.7145   -5.3625    0.0000 N   0  3  0  0  0  0  0  0  0  0  0  0
    1.4289   -4.9500    0.0000 O   0  5  0  0  0  0  0  0  0  0  0  0
   -0.0000   -4.9500    0.0000 O   0  0  0  0  0  0  0  0  0  0  0  0
   -0.7145   -7.8375    0.0000 N   0  3  0  0  0  0  0  0  0  0  0  0
   -0.7145   -8.6625    0.0000 O   0  5  0  0  0  0  0  0  0  0  0  0
   -1.4289   -7.4250    0.0000 O   0  0  0  0  0  0  0  0  0  0  0  0
    5.9279   -1.7725    0.0000 H   0  0  0  0  0  0  0  0  0  0  0  0
    5.0013   -0.1675    0.0000 H   0  0  0  0  0  0  0  0  0  0  0  0
    5.9280   -0.7025    0.0000 H   0  0  0  0  0  0  0  0  0  0  0  0
    4.2868   -2.7200    0.0000 H   0  0  0  0  0  0  0  0  0  0  0  0
    3.3601   -2.1850    0.0000 H   0  0  0  0  0  0  0  0  0  0  0  0
    4.4990   -2.3525    0.0000 H   0  0  0  0  0  0  0  0  0  0  0  0
    4.4990   -3.4225    0.0000 H   0  0  0  0  0  0  0  0  0  0  0  0
    4.4990   -4.2475    0.0000 H   0  0  0  0  0  0  0  0  0  0  0  0
    3.5724   -4.7825    0.0000 H   0  0  0  0  0  0  0  0  0  0  0  0
    1.2168   -4.2475    0.0000 H   0  0  0  0  0  0  0  0  0  0  0  0
    1.2168   -3.1775    0.0000 H   0  0  0  0  0  0  0  0  0  0  0  0
    1.2168   -2.3525    0.0000 H   0  0  0  0  0  0  0  0  0  0  0  0
    2.1434   -1.8175    0.0000 H   0  0  0  0  0  0  0  0  0  0  0  0
    2.3226   -7.9410    0.0000 H   0  0  0  0  0  0  0  0  0  0  0  0
    0.7145   -8.8695    0.0000 H   0  0  0  0  0  0  0  0  0  0  0  0
   -0.8937   -6.0840    0.0000 H   0  0  0  0  0  0  0  0  0  0  0  0
  1  2  1  0  0  0  0
  1 28  1  0  0  0  0
  1 29  1  0  0  0  0
  1 30  1  0  0  0  0
  2  3  1  0  0  0  0
  2 31  1  0  0  0  0
  2 32  1  0  0  0  0
  3  4  1  0  0  0  0
  4  5  2  0  0  0  0
  4  6  1  0  0  0  0
  6  7  1  0  0  0  0
  6 11  1  0  0  0  0
  7  8  1  0  0  0  0
  7 33  1  0  0  0  0
  7 34  1  0  0  0  0
  8  9  1  0  0  0  0
  8 35  1  0  0  0  0
  8 36  1  0  0  0  0
  9 10  1  0  0  0  0
  9 12  1  0  0  0  0
 10 11  1  0  0  0  0
 10 37  1  0  0  0  0
 10 38  1  0  0  0  0
 11 39  1  0  0  0  0
 11 40  1  0  0  0  0
 12 13  1  0  0  0  0
 12 14  2  0  0  0  0
 14 15  1  0  0  0  0
 15 16  1  0  0  0  0
 16 17  2  0  0  0  0
 16 21  1  0  0  0  0
 17 18  1  0  0  0  0
 17 41  1  0  0  0  0
 18 19  2  0  0  0  0
 18 42  1  0  0  0  0
 19 20  1  0  0  0  0
 19 25  1  0  0  0  0
 20 21  2  0  0  0  0
 20 43  1  0  0  0  0
 21 22  1  0  0  0  0
 22 23  1  0  0  0  0
 22 24  2  0  0  0  0
 25 26  1  0  0  0  0
 25 27  2  0  0  0  0
M  CHG  6  12   1  13  -1  22   1  23  -1  25   1  26  -1
M  END
>  <DRUGBANK_ID>
DB17257

>  <COMMON_NAME>
JS-K

>  <CAS_NUMBER>
205432-12-8

>  <UNII>
80P1Q21652

>  <SYNONYMS>
1-piperazinecarboxylic acid, 4-((2,4-dinitrophenoxy)-nno-azoxy)-, ethyl ester; 1-piperazinecarboxylic acid, 4-(2-(2,4-dinitrophenoxy)-1-oxidodiazenyl)-, ethyl ester; O2-(2,4-dinitrophenyl) 1-((4-ethoxycarbonyl)piperazin-1-yl)diazen-1-ium-1,2-diolate; O2-(2,4-dinitrophenyl) 1-((4-ethoxycarbonyl)piperazin-1yl)diazen-1-ium-1,2-diolate

$$$$
