
 OpenBabel10282417072D

  7  4  0  0  0  0  0  0  0  0999 V2000
   -0.5009    0.4674    0.0000 Mo  0  0  0  0  0  0  0  0  0  0  0  0
    1.2911   -1.2911    0.0000 Na  0  3  0  0  0  0  0  0  0  0  0  0
    1.2911   -1.2911    0.0000 Na  0  3  0  0  0  0  0  0  0  0  0  0
   -0.5009   -0.3589    0.0000 O   0  5  0  0  0  0  0  0  0  0  0  0
    0.5009    0.4674    0.0000 O   0  5  0  0  0  0  0  0  0  0  0  0
   -0.5009    1.2911    0.0000 O   0  0  0  0  0  0  0  0  0  0  0  0
   -1.2911    0.4674    0.0000 O   0  0  0  0  0  0  0  0  0  0  0  0
  1  4  1  0  0  0  0
  1  5  1  0  0  0  0
  1  6  2  0  0  0  0
  1  7  2  0  0  0  0
M  CHG  4   2   1   3   1   4  -1   5  -1
M  END
>  <DRUGBANK_ID>
DB14496

>  <COMMON_NAME>
Sodium molybdate

>  <CAS_NUMBER>
7631-95-0

>  <UNII>
948QAQ08I1

>  <SYNONYMS>
Anhydric sodium molybdate; Molybdenum (as sodium); Sodium molybdate (anhydrous); Sodium molybdate(VI); Sodium molybdenum oxide

$$$$
