7IP
 OpenBabel10282417072D

 43 45  0  0  0  0  0  0  0  0999 V2000
    3.9100    2.3242    0.0000 C   0  0  0  0  0  0  0  0  0  0  0  0
    3.1956    1.9117    0.0000 O   0  0  0  0  0  0  0  0  0  0  0  0
    3.1956    1.0867    0.0000 C   0  0  0  0  0  0  0  0  0  0  0  0
    3.9100    0.6742    0.0000 C   0  0  0  0  0  0  0  0  0  0  0  0
    3.9100   -0.1508    0.0000 C   0  0  0  0  0  0  0  0  0  0  0  0
    3.1956   -0.5633    0.0000 C   0  0  0  0  0  0  0  0  0  0  0  0
    2.4811   -0.1508    0.0000 C   0  0  0  0  0  0  0  0  0  0  0  0
    2.4811    0.6742    0.0000 C   0  0  0  0  0  0  0  0  0  0  0  0
    1.7666   -0.5633    0.0000 C   0  0  0  0  0  0  0  0  0  0  0  0
    1.0522   -0.1508    0.0000 C   0  0  0  0  0  0  0  0  0  0  0  0
    0.3377   -0.5633    0.0000 C   0  0  0  0  0  0  0  0  0  0  0  0
    0.3377   -1.3883    0.0000 C   0  0  0  0  0  0  0  0  0  0  0  0
    1.0522   -1.8008    0.0000 C   0  0  0  0  0  0  0  0  0  0  0  0
    1.0522   -2.6258    0.0000 C   0  0  0  0  0  0  0  0  0  0  0  0
    0.3377   -3.0383    0.0000 C   0  0  0  0  0  0  0  0  0  0  0  0
    0.3377   -3.8633    0.0000 C   0  0  0  0  0  0  0  0  0  0  0  0
   -0.3768   -4.2758    0.0000 C   0  0  0  0  0  0  0  0  0  0  0  0
   -0.3768   -5.1008    0.0000 C   0  0  0  0  0  0  0  0  0  0  0  0
    0.3377   -5.5133    0.0000 C   0  0  0  0  0  0  0  0  0  0  0  0
    1.0522   -5.1008    0.0000 C   0  0  0  0  0  0  0  0  0  0  0  0
    1.7666   -5.5133    0.0000 N   0  0  0  0  0  0  0  0  0  0  0  0
    1.0522   -4.2758    0.0000 N   0  0  0  0  0  0  0  0  0  0  0  0
    1.7666   -1.3883    0.0000 C   0  0  0  0  0  0  0  0  0  0  0  0
    4.8367    1.7892    0.0000 H   0  0  0  0  0  0  0  0  0  0  0  0
    3.9100    3.3942    0.0000 H   0  0  0  0  0  0  0  0  0  0  0  0
    4.8366    2.8592    0.0000 H   0  0  0  0  0  0  0  0  0  0  0  0
    4.8037    1.1902    0.0000 H   0  0  0  0  0  0  0  0  0  0  0  0
    4.8037   -0.6668    0.0000 H   0  0  0  0  0  0  0  0  0  0  0  0
    3.1956   -1.5953    0.0000 H   0  0  0  0  0  0  0  0  0  0  0  0
    1.5874    1.1902    0.0000 H   0  0  0  0  0  0  0  0  0  0  0  0
    1.0522    0.8812    0.0000 H   0  0  0  0  0  0  0  0  0  0  0  0
   -0.5560   -0.0473    0.0000 H   0  0  0  0  0  0  0  0  0  0  0  0
   -0.5560   -1.9043    0.0000 H   0  0  0  0  0  0  0  0  0  0  0  0
    1.9788   -3.1608    0.0000 H   0  0  0  0  0  0  0  0  0  0  0  0
    1.0522   -3.6958    0.0000 H   0  0  0  0  0  0  0  0  0  0  0  0
   -0.5889   -2.5033    0.0000 H   0  0  0  0  0  0  0  0  0  0  0  0
   -0.5889   -3.5733    0.0000 H   0  0  0  0  0  0  0  0  0  0  0  0
   -1.2705   -3.7598    0.0000 H   0  0  0  0  0  0  0  0  0  0  0  0
   -1.2705   -5.6168    0.0000 H   0  0  0  0  0  0  0  0  0  0  0  0
    0.3377   -6.5453    0.0000 H   0  0  0  0  0  0  0  0  0  0  0  0
    1.7666   -6.4978    0.0000 H   0  0  0  0  0  0  0  0  0  0  0  0
    2.6192   -5.0211    0.0000 H   0  0  0  0  0  0  0  0  0  0  0  0
    2.6603   -1.9043    0.0000 H   0  0  0  0  0  0  0  0  0  0  0  0
  1  2  1  0  0  0  0
  1 24  1  0  0  0  0
  1 25  1  0  0  0  0
  1 26  1  0  0  0  0
  2  3  1  0  0  0  0
  3  4  2  0  0  0  0
  3  8  1  0  0  0  0
  4  5  1  0  0  0  0
  4 27  1  0  0  0  0
  5  6  2  0  0  0  0
  5 28  1  0  0  0  0
  6  7  1  0  0  0  0
  6 29  1  0  0  0  0
  7  8  2  0  0  0  0
  7  9  1  0  0  0  0
  8 30  1  0  0  0  0
  9 23  2  0  0  0  0
  9 10  1  0  0  0  0
 10 11  2  0  0  0  0
 10 31  1  0  0  0  0
 11 12  1  0  0  0  0
 11 32  1  0  0  0  0
 12 13  2  0  0  0  0
 12 33  1  0  0  0  0
 13 23  1  0  0  0  0
 13 14  1  0  0  0  0
 14 15  1  0  0  0  0
 14 34  1  0  0  0  0
 14 35  1  0  0  0  0
 15 16  1  0  0  0  0
 15 36  1  0  0  0  0
 15 37  1  0  0  0  0
 16 22  1  0  0  0  0
 16 17  2  0  0  0  0
 17 18  1  0  0  0  0
 17 38  1  0  0  0  0
 18 19  2  0  0  0  0
 18 39  1  0  0  0  0
 19 20  1  0  0  0  0
 19 40  1  0  0  0  0
 20 21  1  0  0  0  0
 20 22  2  0  0  0  0
 21 41  1  0  0  0  0
 21 42  1  0  0  0  0
 23 43  1  0  0  0  0
M  END
>  <DRUGBANK_ID>
DB07245

>  <COMMON_NAME>
6-[2-(3'-METHOXYBIPHENYL-3-YL)ETHYL]PYRIDIN-2-AMINE

$$$$
