4BQ
 OpenBabel10282417072D

 44 45  0  0  0  0  0  0  0  0999 V2000
   -3.4072   -1.5158    0.0000 C   0  0  0  0  0  0  0  0  0  0  0  0
   -4.1217   -1.9283    0.0000 C   0  0  0  0  0  0  0  0  0  0  0  0
   -4.8361   -1.5158    0.0000 C   0  0  0  0  0  0  0  0  0  0  0  0
   -4.8361   -0.6908    0.0000 C   0  0  0  0  0  0  0  0  0  0  0  0
   -4.1217   -0.2783    0.0000 C   0  0  0  0  0  0  0  0  0  0  0  0
   -3.4072   -0.6908    0.0000 C   0  0  0  0  0  0  0  0  0  0  0  0
   -2.6927   -0.2783    0.0000 C   0  0  0  0  0  0  0  0  0  0  0  0
   -1.9782   -0.6908    0.0000 O   0  0  0  0  0  0  0  0  0  0  0  0
   -1.2638   -0.2783    0.0000 C   0  0  0  0  0  0  0  0  0  0  0  0
   -0.5493   -0.6908    0.0000 C   0  0  0  0  0  0  0  0  0  0  0  0
    0.1652   -0.2783    0.0000 C   0  0  0  0  0  0  0  0  0  0  0  0
   -1.2638    0.5467    0.0000 C   0  0  0  0  0  0  0  0  0  0  0  0
   -0.5493    0.9592    0.0000 C   0  0  0  0  0  0  0  0  0  0  0  0
    0.1652    0.5467    0.0000 C   0  0  0  0  0  0  0  0  0  0  0  0
    0.8796    0.9592    0.0000 N   0  0  0  0  0  0  0  0  0  0  0  0
    1.5941    0.5467    0.0000 C   0  0  0  0  0  0  0  0  0  0  0  0
    1.5941   -0.2783    0.0000 O   0  0  0  0  0  0  0  0  0  0  0  0
    2.3086    0.9592    0.0000 C   0  0  0  0  0  0  0  0  0  0  0  0
    3.0230    0.5467    0.0000 C   0  0  0  0  0  0  0  0  0  0  0  0
    3.7375    0.9592    0.0000 C   0  0  1  0  0  0  0  0  0  0  0  0
    4.4520    0.5467    0.0000 C   0  0  0  0  0  0  0  0  0  0  0  0
    5.1665    0.9592    0.0000 O   0  0  0  0  0  0  0  0  0  0  0  0
    4.4520   -0.2783    0.0000 O   0  0  0  0  0  0  0  0  0  0  0  0
    3.7375    1.7842    0.0000 N   0  0  0  0  0  0  0  0  0  0  0  0
    3.7375    0.3753    0.0000 H   0  0  0  0  0  0  0  0  0  0  0  0
   -2.5135   -2.0318    0.0000 H   0  0  0  0  0  0  0  0  0  0  0  0
   -4.1217   -2.9603    0.0000 H   0  0  0  0  0  0  0  0  0  0  0  0
   -5.7298   -2.0318    0.0000 H   0  0  0  0  0  0  0  0  0  0  0  0
   -5.7298   -0.1748    0.0000 H   0  0  0  0  0  0  0  0  0  0  0  0
   -4.1217    0.7537    0.0000 H   0  0  0  0  0  0  0  0  0  0  0  0
   -2.6927    0.7917    0.0000 H   0  0  0  0  0  0  0  0  0  0  0  0
   -1.7661    0.2567    0.0000 H   0  0  0  0  0  0  0  0  0  0  0  0
   -0.5493   -1.7228    0.0000 H   0  0  0  0  0  0  0  0  0  0  0  0
    1.0589   -0.7943    0.0000 H   0  0  0  0  0  0  0  0  0  0  0  0
   -2.1575    1.0627    0.0000 H   0  0  0  0  0  0  0  0  0  0  0  0
   -0.5493    1.9912    0.0000 H   0  0  0  0  0  0  0  0  0  0  0  0
    0.8796    1.9437    0.0000 H   0  0  0  0  0  0  0  0  0  0  0  0
    2.3086    2.0292    0.0000 H   0  0  0  0  0  0  0  0  0  0  0  0
    3.2353    1.4942    0.0000 H   0  0  0  0  0  0  0  0  0  0  0  0
    3.0230   -0.5233    0.0000 H   0  0  0  0  0  0  0  0  0  0  0  0
    3.9496    0.0117    0.0000 H   0  0  0  0  0  0  0  0  0  0  0  0
    3.6405   -0.7468    0.0000 H   0  0  0  0  0  0  0  0  0  0  0  0
    4.6208    2.2942    0.0000 H   0  0  0  0  0  0  0  0  0  0  0  0
    2.8542    2.2942    0.0000 H   0  0  0  0  0  0  0  0  0  0  0  0
  1  2  1  0  0  0  0
  1 26  1  0  0  0  0
  2  3  2  0  0  0  0
  2 27  1  0  0  0  0
  3 28  1  0  0  0  0
  4  3  1  0  0  0  0
  4 29  1  0  0  0  0
  5  4  2  0  0  0  0
  5 30  1  0  0  0  0
  6  1  2  0  0  0  0
  6  5  1  0  0  0  0
  7  6  1  0  0  0  0
  7 31  1  0  0  0  0
  7 32  1  0  0  0  0
  8  7  1  0  0  0  0
  9  8  1  0  0  0  0
 10  9  2  0  0  0  0
 10 33  1  0  0  0  0
 11 10  1  0  0  0  0
 11 34  1  0  0  0  0
 12  9  1  0  0  0  0
 12 35  1  0  0  0  0
 13 12  2  0  0  0  0
 13 36  1  0  0  0  0
 14 11  2  0  0  0  0
 14 13  1  0  0  0  0
 15 14  1  0  0  0  0
 15 37  1  0  0  0  0
 16 15  1  0  0  0  0
 16 17  2  0  0  0  0
 18 16  1  0  0  0  0
 18 19  1  0  0  0  0
 18 38  1  0  0  0  0
 18 39  1  0  0  0  0
 19 40  1  0  0  0  0
 19 41  1  0  0  0  0
 20 19  1  0  0  0  0
 20 21  1  0  0  0  0
 20 25  1  1  0  0  0
 20 24  1  0  0  0  0
 21 23  1  0  0  0  0
 22 21  2  0  0  0  0
 23 42  1  0  0  0  0
 24 43  1  0  0  0  0
 24 44  1  0  0  0  0
M  END
>  <DRUGBANK_ID>
DB07102

>  <COMMON_NAME>
(2S)-2-amino-5-oxo-5-[(4-phenylmethoxyphenyl)amino]pentanoic acid

$$$$
