
 OpenBabel10282417072D

 35 37  0  0  0  0  0  0  0  0999 V2000
   -0.3604    0.2187    0.0000 O   0  0  0  0  0  0  0  0  0  0  0  0
   -1.0729   -0.2020    0.0000 C   0  0  0  0  0  0  0  0  0  0  0  0
   -1.0812   -1.0270    0.0000 C   0  0  0  0  0  0  0  0  0  0  0  0
    0.3562   -0.2020    0.0000 C   0  0  2  0  0  0  0  0  0  0  0  0
   -0.3604   -1.4437    0.0000 C   0  0  0  0  0  0  0  0  0  0  0  0
   -1.7936   -1.4437    0.0000 C   0  0  0  0  0  0  0  0  0  0  0  0
    1.0687    0.2062    0.0000 C   0  0  0  0  0  0  0  0  0  0  0  0
    0.3562   -1.0312    0.0000 C   0  0  2  0  0  0  0  0  0  0  0  0
   -1.7936    0.2104    0.0000 C   0  0  0  0  0  0  0  0  0  0  0  0
   -2.5062   -1.0312    0.0000 C   0  0  0  0  0  0  0  0  0  0  0  0
    1.0687    1.0312    0.0000 C   0  0  0  0  0  0  0  0  0  0  0  0
    1.7812    1.4437    0.0000 C   0  0  0  0  0  0  0  0  0  0  0  0
   -2.5062   -0.2020    0.0000 C   0  0  0  0  0  0  0  0  0  0  0  0
    2.5020    1.0312    0.0000 C   0  0  0  0  0  0  0  0  0  0  0  0
    1.7812   -0.2062    0.0000 C   0  0  0  0  0  0  0  0  0  0  0  0
    2.4936    0.1979    0.0000 C   0  0  0  0  0  0  0  0  0  0  0  0
   -1.7853   -2.2687    0.0000 O   0  0  0  0  0  0  0  0  0  0  0  0
    1.0687   -1.4437    0.0000 O   0  0  0  0  0  0  0  0  0  0  0  0
    1.7812    2.2687    0.0000 O   0  0  0  0  0  0  0  0  0  0  0  0
    3.2186    1.4354    0.0000 O   0  0  0  0  0  0  0  0  0  0  0  0
   -3.2186    0.2062    0.0000 O   0  0  0  0  0  0  0  0  0  0  0  0
    0.3619    0.8680    0.0000 H   0  0  0  0  0  0  0  0  0  0  0  0
   -0.3614   -2.5137    0.0000 H   0  0  0  0  0  0  0  0  0  0  0  0
   -1.2874   -1.9780    0.0000 H   0  0  0  0  0  0  0  0  0  0  0  0
    0.3549   -2.1012    0.0000 H   0  0  0  0  0  0  0  0  0  0  0  0
   -1.7961    1.2424    0.0000 H   0  0  0  0  0  0  0  0  0  0  0  0
   -3.4002   -1.5467    0.0000 H   0  0  0  0  0  0  0  0  0  0  0  0
    0.1747    1.5467    0.0000 H   0  0  0  0  0  0  0  0  0  0  0  0
    1.7767   -1.2382    0.0000 H   0  0  0  0  0  0  0  0  0  0  0  0
    3.3827   -0.3260    0.0000 H   0  0  0  0  0  0  0  0  0  0  0  0
   -2.5920   -2.7453    0.0000 H   0  0  0  0  0  0  0  0  0  0  0  0
    1.0675   -2.4137    0.0000 H   0  0  0  0  0  0  0  0  0  0  0  0
    2.5927    2.7372    0.0000 H   0  0  0  0  0  0  0  0  0  0  0  0
    4.0253    0.9588    0.0000 H   0  0  0  0  0  0  0  0  0  0  0  0
   -3.2217    1.1432    0.0000 H   0  0  0  0  0  0  0  0  0  0  0  0
  2  1  1  0  0  0  0
  3  2  1  0  0  0  0
  3  5  1  0  0  0  0
  4  1  1  0  0  0  0
  4  7  1  0  0  0  0
  4 22  1  1  0  0  0
  5  8  1  0  0  0  0
  5 23  1  0  0  0  0
  5 24  1  0  0  0  0
  6  3  2  0  0  0  0
  8  4  1  0  0  0  0
  8 18  1  0  0  0  0
  8 25  1  6  0  0  0
  9  2  2  0  0  0  0
  9 26  1  0  0  0  0
 10 13  2  0  0  0  0
 10  6  1  0  0  0  0
 10 27  1  0  0  0  0
 11  7  1  0  0  0  0
 11 28  1  0  0  0  0
 12 11  2  0  0  0  0
 12 14  1  0  0  0  0
 13  9  1  0  0  0  0
 14 16  2  0  0  0  0
 15  7  2  0  0  0  0
 15 29  1  0  0  0  0
 16 15  1  0  0  0  0
 16 30  1  0  0  0  0
 17  6  1  0  0  0  0
 17 31  1  0  0  0  0
 18 32  1  0  0  0  0
 19 12  1  0  0  0  0
 19 33  1  0  0  0  0
 20 14  1  0  0  0  0
 20 34  1  0  0  0  0
 21 13  1  0  0  0  0
 21 35  1  0  0  0  0
M  END
>  <DRUGBANK_ID>
DB14086

>  <COMMON_NAME>
Cianidanol

>  <CAS_NUMBER>
154-23-4

>  <UNII>
8R1V1STN48

>  <SYNONYMS>
(+)-catechin; (+)-Catechol; (+)-Cyanidan-3-ol; (+)-Cyanidanol; (2R,3S)-(+)-Catechin; (2R,3S)-catechin; Catechin; Catechuic acid; Cianidanol; Cianidanolum; D-(+)-Catechin; d-Catechin; D-Catechol

$$$$
