G23
 OpenBabel10282417072D

 58 60  0  0  0  0  0  0  0  0999 V2000
    0.4167   -1.2346    0.0000 C   0  0  1  0  0  0  0  0  0  0  0  0
    0.0042    0.0350    0.0000 C   0  0  2  0  0  0  0  0  0  0  0  0
    0.0042    0.8600    0.0000 C   0  0  1  0  0  0  0  0  0  0  0  0
   -0.7103    1.2725    0.0000 C   0  0  0  0  0  0  0  0  0  0  0  0
   -0.3221   -2.0551    0.0000 C   0  0  0  0  0  0  0  0  0  0  0  0
   -1.2153   -1.4061    0.0000 C   0  0  0  0  0  0  0  0  0  0  0  0
    0.9016   -1.9020    0.0000 C   0  0  0  0  0  0  0  0  0  0  0  0
   -0.4083   -1.2346    0.0000 C   0  0  0  0  0  0  0  0  0  0  0  0
   -2.1392    1.2725    0.0000 C   0  0  0  0  0  0  0  0  0  0  0  0
    1.4331    0.8600    0.0000 C   0  0  0  0  0  0  0  0  0  0  0  0
    2.1476    1.2725    0.0000 C   0  0  0  0  0  0  0  0  0  0  0  0
    2.8621    0.0350    0.0000 C   0  0  0  0  0  0  0  0  0  0  0  0
    2.8621    0.8600    0.0000 C   0  0  0  0  0  0  0  0  0  0  0  0
    3.5765    1.2725    0.0000 C   0  0  0  0  0  0  0  0  0  0  0  0
    4.2910    0.8600    0.0000 C   0  0  0  0  0  0  0  0  0  0  0  0
    4.2910    0.0350    0.0000 C   0  0  0  0  0  0  0  0  0  0  0  0
    3.5765   -0.3775    0.0000 C   0  0  0  0  0  0  0  0  0  0  0  0
   -3.5682   -0.3775    0.0000 C   0  0  0  0  0  0  0  0  0  0  0  0
   -4.2826    0.0350    0.0000 C   0  0  0  0  0  0  0  0  0  0  0  0
   -4.2826    0.8600    0.0000 C   0  0  0  0  0  0  0  0  0  0  0  0
   -3.5682    1.2725    0.0000 C   0  0  0  0  0  0  0  0  0  0  0  0
   -2.8537    0.8600    0.0000 C   0  0  0  0  0  0  0  0  0  0  0  0
   -2.8537    0.0350    0.0000 C   0  0  0  0  0  0  0  0  0  0  0  0
    0.6716   -0.4500    0.0000 N   0  0  0  0  0  0  0  0  0  0  0  0
    0.7187    1.2725    0.0000 N   0  0  0  0  0  0  0  0  0  0  0  0
   -1.4248    0.8600    0.0000 N   0  0  0  0  0  0  0  0  0  0  0  0
   -0.7103    2.0975    0.0000 O   0  0  0  0  0  0  0  0  0  0  0  0
    1.4331    0.0350    0.0000 O   0  0  0  0  0  0  0  0  0  0  0  0
    1.7221   -1.8158    0.0000 O   0  0  0  0  0  0  0  0  0  0  0  0
    0.5661   -2.6557    0.0000 O   0  0  0  0  0  0  0  0  0  0  0  0
   -0.6632   -0.4500    0.0000 S   0  0  0  0  0  0  0  0  0  0  0  0
    0.3455   -1.8142    0.0000 H   0  0  0  0  0  0  0  0  0  0  0  0
    0.5245    0.3001    0.0000 H   0  0  0  0  0  0  0  0  0  0  0  0
   -0.5015    0.5680    0.0000 H   0  0  0  0  0  0  0  0  0  0  0  0
   -1.1878   -2.6840    0.0000 H   0  0  0  0  0  0  0  0  0  0  0  0
    0.6554   -2.4904    0.0000 H   0  0  0  0  0  0  0  0  0  0  0  0
   -0.2103   -3.1192    0.0000 H   0  0  0  0  0  0  0  0  0  0  0  0
   -1.9312   -0.6109    0.0000 H   0  0  0  0  0  0  0  0  0  0  0  0
   -1.5460   -2.4237    0.0000 H   0  0  0  0  0  0  0  0  0  0  0  0
   -2.2619   -1.6285    0.0000 H   0  0  0  0  0  0  0  0  0  0  0  0
   -2.1392    2.3425    0.0000 H   0  0  0  0  0  0  0  0  0  0  0  0
   -1.2125    1.8075    0.0000 H   0  0  0  0  0  0  0  0  0  0  0  0
    2.1476    2.3425    0.0000 H   0  0  0  0  0  0  0  0  0  0  0  0
    3.0742    1.8075    0.0000 H   0  0  0  0  0  0  0  0  0  0  0  0
    1.9684   -0.4810    0.0000 H   0  0  0  0  0  0  0  0  0  0  0  0
    3.5765    2.3045    0.0000 H   0  0  0  0  0  0  0  0  0  0  0  0
    5.1847    1.3760    0.0000 H   0  0  0  0  0  0  0  0  0  0  0  0
    5.1847   -0.4810    0.0000 H   0  0  0  0  0  0  0  0  0  0  0  0
    3.5765   -1.4095    0.0000 H   0  0  0  0  0  0  0  0  0  0  0  0
   -3.5682   -1.4095    0.0000 H   0  0  0  0  0  0  0  0  0  0  0  0
   -5.1763   -0.4810    0.0000 H   0  0  0  0  0  0  0  0  0  0  0  0
   -5.1763    1.3760    0.0000 H   0  0  0  0  0  0  0  0  0  0  0  0
   -3.5682    2.3045    0.0000 H   0  0  0  0  0  0  0  0  0  0  0  0
   -1.9600   -0.4810    0.0000 H   0  0  0  0  0  0  0  0  0  0  0  0
    1.6417   -0.1348    0.0000 H   0  0  0  0  0  0  0  0  0  0  0  0
    0.7187    2.2570    0.0000 H   0  0  0  0  0  0  0  0  0  0  0  0
   -1.4248   -0.1245    0.0000 H   0  0  0  0  0  0  0  0  0  0  0  0
   -0.3658   -2.7537    0.0000 H   0  0  0  0  0  0  0  0  0  0  0  0
  1  7  1  0  0  0  0
  1  8  1  0  0  0  0
  1 24  1  0  0  0  0
  1 32  1  6  0  0  0
  2  3  1  0  0  0  0
  2 24  1  0  0  0  0
  2 31  1  0  0  0  0
  2 33  1  1  0  0  0
  3  4  1  0  0  0  0
  3 25  1  0  0  0  0
  3 34  1  6  0  0  0
  4 26  1  0  0  0  0
  4 27  2  0  0  0  0
  5  8  1  0  0  0  0
  5 35  1  0  0  0  0
  5 36  1  0  0  0  0
  5 37  1  0  0  0  0
  6  8  1  0  0  0  0
  6 38  1  0  0  0  0
  6 39  1  0  0  0  0
  6 40  1  0  0  0  0
  7 29  2  0  0  0  0
  7 30  1  0  0  0  0
  8 31  1  0  0  0  0
  9 22  1  0  0  0  0
  9 26  1  0  0  0  0
  9 41  1  0  0  0  0
  9 42  1  0  0  0  0
 10 11  1  0  0  0  0
 10 25  1  0  0  0  0
 10 28  2  0  0  0  0
 11 13  1  0  0  0  0
 11 43  1  0  0  0  0
 11 44  1  0  0  0  0
 12 13  2  0  0  0  0
 12 17  1  0  0  0  0
 12 45  1  0  0  0  0
 13 14  1  0  0  0  0
 14 15  2  0  0  0  0
 14 46  1  0  0  0  0
 15 16  1  0  0  0  0
 15 47  1  0  0  0  0
 16 17  2  0  0  0  0
 16 48  1  0  0  0  0
 17 49  1  0  0  0  0
 18 19  2  0  0  0  0
 18 23  1  0  0  0  0
 18 50  1  0  0  0  0
 19 20  1  0  0  0  0
 19 51  1  0  0  0  0
 20 21  2  0  0  0  0
 20 52  1  0  0  0  0
 21 22  1  0  0  0  0
 21 53  1  0  0  0  0
 22 23  2  0  0  0  0
 23 54  1  0  0  0  0
 24 55  1  0  0  0  0
 25 56  1  0  0  0  0
 26 57  1  0  0  0  0
 30 58  1  0  0  0  0
M  END
>  <DRUGBANK_ID>
DB07806

>  <COMMON_NAME>
(2R,4S)-2-[(R)-BENZYLCARBAMOYL-PHENYLACETYL-METHYL]-5,5-DIMETHYL-THIAZOLIDINE-4-CARBOXYLIC ACID

$$$$
