J78
 OpenBabel10282417072D

 57 59  0  0  0  0  0  0  0  0999 V2000
   -5.6305    2.3999    0.0000 C   0  0  0  0  0  0  0  0  0  0  0  0
   -4.9160    1.9874    0.0000 C   0  0  0  0  0  0  0  0  0  0  0  0
   -4.2015    2.3999    0.0000 C   0  0  0  0  0  0  0  0  0  0  0  0
   -3.4871    1.9874    0.0000 C   0  0  0  0  0  0  0  0  0  0  0  0
   -3.4871    1.1624    0.0000 C   0  0  0  0  0  0  0  0  0  0  0  0
   -4.2015    0.7499    0.0000 N   0  0  0  0  0  0  0  0  0  0  0  0
   -4.9160    1.1624    0.0000 N   0  0  0  0  0  0  0  0  0  0  0  0
   -2.7726    0.7499    0.0000 N   0  0  0  0  0  0  0  0  0  0  0  0
   -2.0581    1.1624    0.0000 C   0  0  0  0  0  0  0  0  0  0  0  0
   -1.3437    0.7499    0.0000 C   0  0  0  0  0  0  0  0  0  0  0  0
   -1.3437   -0.0751    0.0000 C   0  0  0  0  0  0  0  0  0  0  0  0
   -2.0581   -0.4876    0.0000 C   0  0  0  0  0  0  0  0  0  0  0  0
   -2.7726   -0.0751    0.0000 C   0  0  0  0  0  0  0  0  0  0  0  0
   -0.6292   -0.4876    0.0000 C   0  0  0  0  0  0  0  0  0  0  0  0
    0.0853   -0.0751    0.0000 C   0  0  0  0  0  0  0  0  0  0  0  0
    0.7998   -0.4876    0.0000 C   0  0  0  0  0  0  0  0  0  0  0  0
    1.5142   -0.0751    0.0000 O   0  0  0  0  0  0  0  0  0  0  0  0
    2.2287   -0.4876    0.0000 C   0  0  0  0  0  0  0  0  0  0  0  0
    2.9432   -0.0751    0.0000 C   0  0  0  0  0  0  0  0  0  0  0  0
    3.6576   -0.4876    0.0000 C   0  0  0  0  0  0  0  0  0  0  0  0
    3.6576   -1.3126    0.0000 C   0  0  0  0  0  0  0  0  0  0  0  0
    2.9432   -1.7251    0.0000 C   0  0  0  0  0  0  0  0  0  0  0  0
    2.2287   -1.3126    0.0000 C   0  0  0  0  0  0  0  0  0  0  0  0
    4.3721   -1.7251    0.0000 C   0  0  0  0  0  0  0  0  0  0  0  0
    4.3721   -2.5501    0.0000 O   0  0  0  0  0  0  0  0  0  0  0  0
    5.0866   -1.3126    0.0000 O   0  0  0  0  0  0  0  0  0  0  0  0
    5.8011   -1.7251    0.0000 C   0  0  0  0  0  0  0  0  0  0  0  0
    6.5155   -1.3126    0.0000 C   0  0  0  0  0  0  0  0  0  0  0  0
   -5.6305    3.4699    0.0000 H   0  0  0  0  0  0  0  0  0  0  0  0
   -6.5571    1.8649    0.0000 H   0  0  0  0  0  0  0  0  0  0  0  0
   -6.5572    2.9349    0.0000 H   0  0  0  0  0  0  0  0  0  0  0  0
   -4.2015    3.4319    0.0000 H   0  0  0  0  0  0  0  0  0  0  0  0
   -2.5934    2.5034    0.0000 H   0  0  0  0  0  0  0  0  0  0  0  0
   -2.0581    2.2324    0.0000 H   0  0  0  0  0  0  0  0  0  0  0  0
   -1.1314    1.6974    0.0000 H   0  0  0  0  0  0  0  0  0  0  0  0
   -0.4170    1.2849    0.0000 H   0  0  0  0  0  0  0  0  0  0  0  0
   -0.4171    0.2149    0.0000 H   0  0  0  0  0  0  0  0  0  0  0  0
   -1.3437   -1.1451    0.0000 H   0  0  0  0  0  0  0  0  0  0  0  0
   -2.0581   -1.5576    0.0000 H   0  0  0  0  0  0  0  0  0  0  0  0
   -2.9847   -1.0226    0.0000 H   0  0  0  0  0  0  0  0  0  0  0  0
   -3.6992   -0.6101    0.0000 H   0  0  0  0  0  0  0  0  0  0  0  0
   -2.7726   -1.1451    0.0000 H   0  0  0  0  0  0  0  0  0  0  0  0
   -0.6292   -1.5576    0.0000 H   0  0  0  0  0  0  0  0  0  0  0  0
    0.2974   -1.0226    0.0000 H   0  0  0  0  0  0  0  0  0  0  0  0
    0.0853    0.9949    0.0000 H   0  0  0  0  0  0  0  0  0  0  0  0
    1.0119    0.4599    0.0000 H   0  0  0  0  0  0  0  0  0  0  0  0
    0.7998   -1.5576    0.0000 H   0  0  0  0  0  0  0  0  0  0  0  0
    1.7265   -1.0226    0.0000 H   0  0  0  0  0  0  0  0  0  0  0  0
    2.9432    0.9569    0.0000 H   0  0  0  0  0  0  0  0  0  0  0  0
    4.5513    0.0284    0.0000 H   0  0  0  0  0  0  0  0  0  0  0  0
    2.9432   -2.7571    0.0000 H   0  0  0  0  0  0  0  0  0  0  0  0
    1.3350   -1.8286    0.0000 H   0  0  0  0  0  0  0  0  0  0  0  0
    5.8011   -2.7951    0.0000 H   0  0  0  0  0  0  0  0  0  0  0  0
    6.7278   -2.2601    0.0000 H   0  0  0  0  0  0  0  0  0  0  0  0
    7.4422   -1.8476    0.0000 H   0  0  0  0  0  0  0  0  0  0  0  0
    6.5155   -0.2426    0.0000 H   0  0  0  0  0  0  0  0  0  0  0  0
    7.4421   -0.7776    0.0000 H   0  0  0  0  0  0  0  0  0  0  0  0
  1  2  1  0  0  0  0
  1 29  1  0  0  0  0
  1 30  1  0  0  0  0
  1 31  1  0  0  0  0
  2  3  1  0  0  0  0
  2  7  2  0  0  0  0
  3  4  2  0  0  0  0
  3 32  1  0  0  0  0
  4  5  1  0  0  0  0
  4 33  1  0  0  0  0
  5  6  2  0  0  0  0
  5  8  1  0  0  0  0
  6  7  1  0  0  0  0
  8  9  1  0  0  0  0
  8 13  1  0  0  0  0
  9 10  1  0  0  0  0
  9 34  1  0  0  0  0
  9 35  1  0  0  0  0
 10 11  1  0  0  0  0
 10 36  1  0  0  0  0
 10 37  1  0  0  0  0
 11 12  1  0  0  0  0
 11 14  1  0  0  0  0
 11 38  1  0  0  0  0
 12 13  1  0  0  0  0
 12 39  1  0  0  0  0
 12 40  1  0  0  0  0
 13 41  1  0  0  0  0
 13 42  1  0  0  0  0
 14 15  1  0  0  0  0
 14 43  1  0  0  0  0
 14 44  1  0  0  0  0
 15 16  1  0  0  0  0
 15 45  1  0  0  0  0
 15 46  1  0  0  0  0
 16 17  1  0  0  0  0
 16 47  1  0  0  0  0
 16 48  1  0  0  0  0
 17 18  1  0  0  0  0
 18 19  2  0  0  0  0
 18 23  1  0  0  0  0
 19 20  1  0  0  0  0
 19 49  1  0  0  0  0
 20 21  2  0  0  0  0
 20 50  1  0  0  0  0
 21 22  1  0  0  0  0
 21 24  1  0  0  0  0
 22 23  2  0  0  0  0
 22 51  1  0  0  0  0
 23 52  1  0  0  0  0
 24 25  2  0  0  0  0
 24 26  1  0  0  0  0
 26 27  1  0  0  0  0
 27 28  1  0  0  0  0
 27 53  1  0  0  0  0
 27 54  1  0  0  0  0
 28 55  1  0  0  0  0
 28 56  1  0  0  0  0
 28 57  1  0  0  0  0
M  END
>  <DRUGBANK_ID>
DB08013

>  <COMMON_NAME>
(METHYLPYRIDAZINE PIPERIDINE PROPYLOXYPHENYL)ETHYLACETATE

>  <UNII>
3GR7JE5BNH

$$$$
