
 OpenBabel10282417072D

 18 17  0  0  1  0  0  0  0  0999 V2000
   -1.2375   -0.7145    0.0000 C   0  0  0  0  0  0  0  0  0  0  0  0
    0.8250    0.0000    0.0000 C   0  0  0  0  0  0  0  0  0  0  0  0
    0.0000    0.0000    0.0000 C   0  0  0  0  0  0  0  0  0  0  0  0
    1.2375   -0.7145    0.0000 C   0  0  1  0  0  0  0  0  0  0  0  0
    0.8250   -1.4289    0.0000 C   0  0  0  0  0  0  0  0  0  0  0  0
    2.0625   -0.7145    0.0000 N   0  0  0  0  0  0  0  0  0  0  0  0
    1.2375   -2.1434    0.0000 O   0  0  0  0  0  0  0  0  0  0  0  0
   -0.0000   -1.4289    0.0000 O   0  0  0  0  0  0  0  0  0  0  0  0
   -0.4125   -0.7145    0.0000 O   0  0  0  0  0  0  0  0  0  0  0  0
    1.2375    0.7145    0.0000 H   0  0  0  0  0  0  0  0  0  0  0  0
   -0.4125    0.7145    0.0000 H   0  0  0  0  0  0  0  0  0  0  0  0
    0.4125   -0.7145    0.0000 H   0  0  0  0  0  0  0  0  0  0  0  0
   -1.7725    0.2121    0.0000 H   0  0  0  0  0  0  0  0  0  0  0  0
   -1.7725   -1.6411    0.0000 H   0  0  0  0  0  0  0  0  0  0  0  0
   -2.3075   -0.7145    0.0000 H   0  0  0  0  0  0  0  0  0  0  0  0
    2.5725   -1.5978    0.0000 H   0  0  0  0  0  0  0  0  0  0  0  0
    2.5725    0.1688    0.0000 H   0  0  0  0  0  0  0  0  0  0  0  0
   -0.4685   -0.6174    0.0000 H   0  0  0  0  0  0  0  0  0  0  0  0
  1 13  1  0  0  0  0
  1 14  1  0  0  0  0
  1 15  1  0  0  0  0
  3  2  2  0  0  0  0
  4  2  1  0  0  0  0
  4  6  1  0  0  0  0
  4 12  1  1  0  0  0
  5  4  1  0  0  0  0
  6 16  1  0  0  0  0
  6 17  1  0  0  0  0
  7  5  2  0  0  0  0
  8  5  1  0  0  0  0
  8 18  1  0  0  0  0
  9  1  1  0  0  0  0
  9  3  1  0  0  0  0
 10  2  1  0  0  0  0
 11  3  1  0  0  0  0
M  END
>  <DRUGBANK_ID>
DB03611

>  <SECONDARY_ACCESSION_NUMBERS>
EXPT00504

>  <COMMON_NAME>
L-2-amino-4-methoxy-cis-but-3-enoic acid

$$$$
