1043
 OpenBabel10282417072D

 34 36  0  0  1  0  0  0  0  0999 V2000
    2.5024   -1.4994    0.0000 N   0  0  0  0  0  0  0  0  0  0  0  0
    3.0826    0.9204    0.0000 C   0  0  3  0  0  0  0  0  0  0  0  0
    2.3807   -0.2951    0.0000 C   0  0  3  0  0  0  0  0  0  0  0  0
    2.5025   -0.6602    0.0000 C   0  0  3  0  0  0  0  0  0  0  0  0
    3.7843   -0.2951    0.0000 C   0  0  3  0  0  0  0  0  0  0  0  0
    2.3807    0.5153    0.0000 C   0  0  0  0  0  0  0  0  0  0  0  0
    2.5025    0.2170    0.0000 C   0  0  0  0  0  0  0  0  0  0  0  0
    1.6785   -0.7003    0.0000 C   0  0  0  0  0  0  0  0  0  0  0  0
    3.7843    0.5153    0.0000 C   0  0  0  0  0  0  0  0  0  0  0  0
    3.0826   -0.5492    0.0000 C   0  0  0  0  0  0  0  0  0  0  0  0
    3.2626   -1.0604    0.0000 C   0  0  0  0  0  0  0  0  0  0  0  0
    3.0826    1.7596    0.0000 C   0  0  0  0  0  0  0  0  0  0  0  0
    1.7873    0.2983    0.0000 C   0  0  0  0  0  0  0  0  0  0  0  0
    1.6190   -2.0093    0.0000 H   0  0  0  0  0  0  0  0  0  0  0  0
    3.3857   -2.0095    0.0000 H   0  0  0  0  0  0  0  0  0  0  0  0
    2.9083    0.3193    0.0000 H   0  0  0  0  0  0  0  0  0  0  0  0
    1.4541    1.0504    0.0000 H   0  0  0  0  0  0  0  0  0  0  0  0
    1.4540   -0.0197    0.0000 H   0  0  0  0  0  0  0  0  0  0  0  0
    1.4955    0.5787    0.0000 H   0  0  0  0  0  0  0  0  0  0  0  0
    1.6273   -0.3986    0.0000 H   0  0  0  0  0  0  0  0  0  0  0  0
    0.6520   -1.0022    0.0000 H   0  0  0  0  0  0  0  0  0  0  0  0
    1.8567   -1.7554    0.0000 H   0  0  0  0  0  0  0  0  0  0  0  0
    4.7109    1.0503    0.0000 H   0  0  0  0  0  0  0  0  0  0  0  0
    4.7110   -0.0197    0.0000 H   0  0  0  0  0  0  0  0  0  0  0  0
    3.0826   -1.6192    0.0000 H   0  0  0  0  0  0  0  0  0  0  0  0
    3.9586   -1.1636    0.0000 H   0  0  0  0  0  0  0  0  0  0  0  0
    3.5210   -2.0987    0.0000 H   0  0  0  0  0  0  0  0  0  0  0  0
    4.3158   -1.2490    0.0000 H   0  0  0  0  0  0  0  0  0  0  0  0
    4.0092    2.2946    0.0000 H   0  0  0  0  0  0  0  0  0  0  0  0
    2.1560    2.2946    0.0000 H   0  0  0  0  0  0  0  0  0  0  0  0
    3.0826    2.8296    0.0000 H   0  0  0  0  0  0  0  0  0  0  0  0
    2.0642    1.3318    0.0000 H   0  0  0  0  0  0  0  0  0  0  0  0
    0.7538    0.0214    0.0000 H   0  0  0  0  0  0  0  0  0  0  0  0
    1.0307    1.0549    0.0000 H   0  0  0  0  0  0  0  0  0  0  0  0
  1  4  1  0  0  0  0
  1 14  1  0  0  0  0
  1 15  1  0  0  0  0
  2  6  1  0  0  0  0
  2  7  1  0  0  0  0
  2  9  1  0  0  0  0
  2 12  1  0  0  0  0
  3  6  1  0  0  0  0
  3  8  1  0  0  0  0
  3 10  1  0  0  0  0
  3 13  1  0  0  0  0
  4  7  1  0  0  0  0
  4  8  1  0  0  0  0
  4 11  1  0  0  0  0
  5  9  1  0  0  0  0
  5 10  1  0  0  0  0
  5 11  1  0  0  0  0
  5 16  1  0  0  0  0
  6 17  1  0  0  0  0
  6 18  1  0  0  0  0
  7 19  1  0  0  0  0
  7 20  1  0  0  0  0
  8 21  1  0  0  0  0
  8 22  1  0  0  0  0
  9 23  1  0  0  0  0
  9 24  1  0  0  0  0
 10 25  1  0  0  0  0
 10 26  1  0  0  0  0
 11 27  1  0  0  0  0
 11 28  1  0  0  0  0
 12 29  1  0  0  0  0
 12 30  1  0  0  0  0
 12 31  1  0  0  0  0
 13 32  1  0  0  0  0
 13 33  1  0  0  0  0
 13 34  1  0  0  0  0
M  END
>  <DRUGBANK_ID>
DB01043

>  <SECONDARY_ACCESSION_NUMBERS>
APRD00221

>  <COMMON_NAME>
Memantine

>  <CAS_NUMBER>
19982-08-2

>  <UNII>
W8O17SJF3T

>  <SYNONYMS>
1-Amino-3,5-dimethyladamantane; 1,3-Dimethyl-5-adamantanamine; 3,5-Dimethyl-1-adamantanamine; 3,5-Dimethyl-1-aminoadamantane; 3,5-Dimethyltricyclo(3.3.1.1(3,7))decan-1-amine; Memantina; Memantine; Memantinum

$$$$
