FOS
 OpenBabel10282417072D

 28 28  0  0  0  0  0  0  0  0999 V2000
   -1.5125    0.0589    0.0000 C   0  0  0  0  0  0  0  0  0  0  0  0
   -2.2269   -0.3536    0.0000 C   0  0  0  0  0  0  0  0  0  0  0  0
   -2.9414    0.0589    0.0000 C   0  0  0  0  0  0  0  0  0  0  0  0
   -2.9414    0.8839    0.0000 C   0  0  0  0  0  0  0  0  0  0  0  0
   -2.2269    1.2964    0.0000 C   0  0  0  0  0  0  0  0  0  0  0  0
   -1.5125    0.8839    0.0000 C   0  0  0  0  0  0  0  0  0  0  0  0
   -0.7980   -0.3536    0.0000 C   0  0  0  0  0  0  0  0  0  0  0  0
   -0.0835    0.0589    0.0000 O   0  0  0  0  0  0  0  0  0  0  0  0
    0.6310   -0.3536    0.0000 C   0  0  0  0  0  0  0  0  0  0  0  0
    0.6310   -1.1786    0.0000 O   0  0  0  0  0  0  0  0  0  0  0  0
    1.3454    0.0589    0.0000 N   0  0  0  0  0  0  0  0  0  0  0  0
    2.0599   -0.3536    0.0000 C   0  0  0  0  0  0  0  0  0  0  0  0
    2.7744    0.0589    0.0000 P   0  0  0  0  0  0  0  0  0  0  0  0
    3.4888    0.4714    0.0000 O   0  0  0  0  0  0  0  0  0  0  0  0
    3.1869   -0.6556    0.0000 O   0  0  0  0  0  0  0  0  0  0  0  0
    2.3619    0.7734    0.0000 O   0  0  0  0  0  0  0  0  0  0  0  0
   -2.2269   -1.3856    0.0000 H   0  0  0  0  0  0  0  0  0  0  0  0
   -3.8351   -0.4571    0.0000 H   0  0  0  0  0  0  0  0  0  0  0  0
   -3.8351    1.3999    0.0000 H   0  0  0  0  0  0  0  0  0  0  0  0
   -2.2269    2.3284    0.0000 H   0  0  0  0  0  0  0  0  0  0  0  0
   -0.6188    1.3999    0.0000 H   0  0  0  0  0  0  0  0  0  0  0  0
   -0.7980   -1.4236    0.0000 H   0  0  0  0  0  0  0  0  0  0  0  0
    0.1286   -0.8886    0.0000 H   0  0  0  0  0  0  0  0  0  0  0  0
    1.3454    1.0434    0.0000 H   0  0  0  0  0  0  0  0  0  0  0  0
    2.0599   -1.4236    0.0000 H   0  0  0  0  0  0  0  0  0  0  0  0
    2.9865   -0.8886    0.0000 H   0  0  0  0  0  0  0  0  0  0  0  0
    2.7019   -1.4956    0.0000 H   0  0  0  0  0  0  0  0  0  0  0  0
    2.8469    1.6134    0.0000 H   0  0  0  0  0  0  0  0  0  0  0  0
  1  2  2  0  0  0  0
  1  6  1  0  0  0  0
  1  7  1  0  0  0  0
  2  3  1  0  0  0  0
  2 17  1  0  0  0  0
  3  4  2  0  0  0  0
  3 18  1  0  0  0  0
  4  5  1  0  0  0  0
  4 19  1  0  0  0  0
  5  6  2  0  0  0  0
  5 20  1  0  0  0  0
  6 21  1  0  0  0  0
  7  8  1  0  0  0  0
  7 22  1  0  0  0  0
  7 23  1  0  0  0  0
  8  9  1  0  0  0  0
  9 10  2  0  0  0  0
  9 11  1  0  0  0  0
 11 12  1  0  0  0  0
 11 24  1  0  0  0  0
 12 13  1  0  0  0  0
 12 25  1  0  0  0  0
 12 26  1  0  0  0  0
 13 14  2  0  0  0  0
 13 15  1  0  0  0  0
 13 16  1  0  0  0  0
 15 27  1  0  0  0  0
 16 28  1  0  0  0  0
M  END
>  <DRUGBANK_ID>
DB02642

>  <SECONDARY_ACCESSION_NUMBERS>
EXPT01473

>  <COMMON_NAME>
[[N-(Benzyloxycarbonyl)Amino]Methyl]Phosphate

$$$$
