TZB
 OpenBabel10282417072D

 22 22  0  0  0  0  0  0  0  0999 V2000
    0.0309   -1.5251    0.0000 C   0  0  0  0  0  0  0  0  0  0  0  0
    0.5158   -2.1925    0.0000 C   0  0  0  0  0  0  0  0  0  0  0  0
    0.3665   -0.7714    0.0000 C   0  0  0  0  0  0  0  0  0  0  0  0
    1.1869   -0.6852    0.0000 N   0  0  0  0  0  0  0  0  0  0  0  0
   -0.1185   -0.1040    0.0000 C   0  0  0  0  0  0  0  0  0  0  0  0
   -0.9435   -0.1040    0.0000 S   0  0  0  0  0  0  0  0  0  0  0  0
   -1.1984    0.6806    0.0000 C   0  0  0  0  0  0  0  0  0  0  0  0
   -0.5310    1.1656    0.0000 C   0  0  2  0  0  0  0  0  0  0  0  0
   -1.2454    2.4031    0.0000 O   0  0  0  0  0  0  0  0  0  0  0  0
   -0.5310    1.9906    0.0000 C   0  0  0  0  0  0  0  0  0  0  0  0
    0.1365    0.6806    0.0000 N   0  0  0  0  0  0  0  0  0  0  0  0
    0.1835    2.4031    0.0000 O   0  0  0  0  0  0  0  0  0  0  0  0
   -1.0513    1.4307    0.0000 H   0  0  0  0  0  0  0  0  0  0  0  0
   -0.9954   -1.6330    0.0000 H   0  0  0  0  0  0  0  0  0  0  0  0
    0.0806   -3.1700    0.0000 H   0  0  0  0  0  0  0  0  0  0  0  0
    1.5799   -2.0806    0.0000 H   0  0  0  0  0  0  0  0  0  0  0  0
    1.1447   -3.0581    0.0000 H   0  0  0  0  0  0  0  0  0  0  0  0
    1.7655   -1.4817    0.0000 H   0  0  0  0  0  0  0  0  0  0  0  0
    1.5874    0.2142    0.0000 H   0  0  0  0  0  0  0  0  0  0  0  0
   -2.2160    1.0112    0.0000 H   0  0  0  0  0  0  0  0  0  0  0  0
   -1.3659    1.7374    0.0000 H   0  0  0  0  0  0  0  0  0  0  0  0
    0.9950    1.9346    0.0000 H   0  0  0  0  0  0  0  0  0  0  0  0
  1  2  1  0  0  0  0
  1  3  2  0  0  0  0
  1 14  1  0  0  0  0
  2 15  1  0  0  0  0
  2 16  1  0  0  0  0
  2 17  1  0  0  0  0
  3  4  1  0  0  0  0
  3  5  1  0  0  0  0
  4 18  1  0  0  0  0
  4 19  1  0  0  0  0
  5  6  1  0  0  0  0
  5 11  2  0  0  0  0
  6  7  1  0  0  0  0
  7  8  1  0  0  0  0
  7 20  1  0  0  0  0
  7 21  1  0  0  0  0
  8 10  1  0  0  0  0
  8 11  1  0  0  0  0
  8 13  1  1  0  0  0
  9 10  2  0  0  0  0
 10 12  1  0  0  0  0
 12 22  1  0  0  0  0
M  END
>  <DRUGBANK_ID>
DB02940

>  <SECONDARY_ACCESSION_NUMBERS>
EXPT03149

>  <COMMON_NAME>
(4s)-2-[(1e)-1-Aminoprop-1-Enyl]-4,5-Dihydro-1,3-Thiazole-4-Carboxylic Acid

$$$$
