
 OpenBabel10282417072D

 54 59  0  0  1  0  0  0  0  0999 V2000
    6.0247   -9.1250    0.0000 C   0  0  0  0  0  0  0  0  0  0  0  0
    6.0247   -9.9501    0.0000 O   0  0  0  0  0  0  0  0  0  0  0  0
    6.8094  -10.2050    0.0000 C   0  0  2  0  0  0  0  0  0  0  0  0
    7.2943   -9.5376    0.0000 C   0  0  2  0  0  0  0  0  0  0  0  0
    6.8094   -8.8701    0.0000 C   0  0  2  0  0  0  0  0  0  0  0  0
    8.0789  -10.6176    0.0000 C   0  0  2  0  0  0  0  0  0  0  0  0
    8.0789   -9.7925    0.0000 C   0  0  1  0  0  0  0  0  0  0  0  0
    8.8636  -10.8724    0.0000 C   0  0  2  0  0  0  0  0  0  0  0  0
    9.3485  -10.2050    0.0000 C   0  0  2  0  0  0  0  0  0  0  0  0
    8.8636   -9.5376    0.0000 O   0  0  0  0  0  0  0  0  0  0  0  0
   10.1332  -10.4599    0.0000 O   0  0  0  0  0  0  0  0  0  0  0  0
   10.1332  -11.2849    0.0000 C   0  0  0  0  0  0  0  0  0  0  0  0
    9.3485  -11.5399    0.0000 C   0  0  2  0  0  0  0  0  0  0  0  0
    5.3573   -8.6401    0.0000 O   0  0  0  0  0  0  0  0  0  0  0  0
    7.2943  -10.8724    0.0000 C   0  0  1  0  0  0  0  0  0  0  0  0
    7.5940  -11.2849    0.0000 C   0  0  1  0  0  0  0  0  0  0  0  0
    8.8636  -11.6974    0.0000 C   0  0  1  0  0  0  0  0  0  0  0  0
    8.0789  -11.9524    0.0000 C   0  0  0  0  0  0  0  0  0  0  0  0
   10.7306  -11.7000    0.0000 O   0  0  0  0  0  0  0  0  0  0  0  0
    7.2758   -8.5345    0.0000 O   0  0  0  0  0  0  0  0  0  0  0  0
    6.8996  -11.5872    0.0000 O   0  0  0  0  0  0  0  0  0  0  0  0
    6.7427   -8.0715    0.0000 C   0  0  0  0  0  0  0  0  0  0  0  0
    7.9285   -9.0751    0.0000 C   0  0  0  0  0  0  0  0  0  0  0  0
    7.4251  -10.0679    0.0000 O   0  0  0  0  0  0  0  0  0  0  0  0
    7.9285   -8.4319    0.0000 O   0  0  0  0  0  0  0  0  0  0  0  0
    9.7463  -12.2213    0.0000 O   0  0  0  0  0  0  0  0  0  0  0  0
    8.9213  -12.3891    0.0000 C   0  0  0  0  0  0  0  0  0  0  0  0
    8.2501  -12.8785    0.0000 C   0  0  0  0  0  0  0  0  0  0  0  0
    8.9213  -13.2141    0.0000 C   0  0  0  0  0  0  0  0  0  0  0  0
    9.5785  -12.8785    0.0000 C   0  0  0  0  0  0  0  0  0  0  0  0
    6.4787   -9.1874    0.0000 H   0  0  0  0  0  0  0  0  0  0  0  0
    7.8124   -8.4974    0.0000 H   0  0  0  0  0  0  0  0  0  0  0  0
    8.2785  -10.2050    0.0000 H   0  0  0  0  0  0  0  0  0  0  0  0
   10.3484  -11.9209    0.0000 H   0  0  0  0  0  0  0  0  0  0  0  0
    6.2263  -10.9386    0.0000 H   0  0  0  0  0  0  0  0  0  0  0  0
    8.5864  -10.8850    0.0000 H   0  0  0  0  0  0  0  0  0  0  0  0
    8.2712  -12.5885    0.0000 H   0  0  0  0  0  0  0  0  0  0  0  0
    7.7482  -12.9700    0.0000 H   0  0  0  0  0  0  0  0  0  0  0  0
    7.0221  -12.1197    0.0000 H   0  0  0  0  0  0  0  0  0  0  0  0
    8.1068   -8.0341    0.0000 H   0  0  0  0  0  0  0  0  0  0  0  0
    5.9298  -11.6057    0.0000 H   0  0  0  0  0  0  0  0  0  0  0  0
    7.6216   -7.4612    0.0000 H   0  0  0  0  0  0  0  0  0  0  0  0
    5.7747   -7.6155    0.0000 H   0  0  0  0  0  0  0  0  0  0  0  0
    6.6536   -7.0052    0.0000 H   0  0  0  0  0  0  0  0  0  0  0  0
    9.2654  -13.0637    0.0000 H   0  0  0  0  0  0  0  0  0  0  0  0
    7.2719  -12.4450    0.0000 H   0  0  0  0  0  0  0  0  0  0  0  0
    8.3638  -13.9424    0.0000 H   0  0  0  0  0  0  0  0  0  0  0  0
    7.3855  -13.5089    0.0000 H   0  0  0  0  0  0  0  0  0  0  0  0
    7.9947  -13.7491    0.0000 H   0  0  0  0  0  0  0  0  0  0  0  0
    9.8479  -13.7491    0.0000 H   0  0  0  0  0  0  0  0  0  0  0  0
    8.9213  -14.2841    0.0000 H   0  0  0  0  0  0  0  0  0  0  0  0
    9.4541  -13.9412    0.0000 H   0  0  0  0  0  0  0  0  0  0  0  0
   10.5610  -12.4548    0.0000 H   0  0  0  0  0  0  0  0  0  0  0  0
   10.4367  -13.5176    0.0000 H   0  0  0  0  0  0  0  0  0  0  0  0
  1  2  1  0  0  0  0
  1 14  2  0  0  0  0
  3  2  1  0  0  0  0
  3  4  1  0  0  0  0
  3 15  1  0  0  0  0
  3 31  1  1  0  0  0
  4  5  1  0  0  0  0
  4 20  1  1  0  0  0
  5  1  1  0  0  0  0
  5 22  1  0  0  0  0
  5 32  1  6  0  0  0
  6  7  1  0  0  0  0
  6  8  1  0  0  0  0
  6 16  1  0  0  0  0
  7  4  1  0  0  0  0
  7 23  1  0  0  0  0
  8  9  1  0  0  0  0
  8 17  1  0  0  0  0
  9 10  1  0  0  0  0
  9 11  1  0  0  0  0
  9 33  1  0  0  0  0
 10  7  1  0  0  0  0
 11 12  1  0  0  0  0
 12 13  1  0  0  0  0
 12 19  2  0  0  0  0
 13  8  1  0  0  0  0
 13 26  1  0  0  0  0
 13 34  1  0  0  0  0
 15  6  1  0  0  0  0
 15 21  1  0  0  0  0
 15 35  1  0  0  0  0
 16 18  1  0  0  0  0
 16 36  1  0  0  0  0
 17 18  1  0  0  0  0
 17 27  1  0  0  0  0
 17 37  1  0  0  0  0
 18 38  1  0  0  0  0
 18 39  1  0  0  0  0
 20 40  1  0  0  0  0
 21 41  1  0  0  0  0
 22 42  1  0  0  0  0
 22 43  1  0  0  0  0
 22 44  1  0  0  0  0
 23 24  1  0  0  0  0
 23 25  2  0  0  0  0
 24 16  1  0  0  0  0
 26 45  1  0  0  0  0
 27 28  1  0  0  0  0
 27 29  1  0  0  0  0
 27 30  1  0  0  0  0
 28 46  1  0  0  0  0
 28 47  1  0  0  0  0
 28 48  1  0  0  0  0
 29 49  1  0  0  0  0
 29 50  1  0  0  0  0
 29 51  1  0  0  0  0
 30 52  1  0  0  0  0
 30 53  1  0  0  0  0
 30 54  1  0  0  0  0
M  END
>  <DRUGBANK_ID>
DB06744

>  <COMMON_NAME>
ginkgolide-B

$$$$
