
 OpenBabel10282417072D

 77 81  0  0  0  0  0  0  0  0999 V2000
   -1.6069    0.4135    0.0000 C   0  0  0  0  0  0  0  0  0  0  0  0
   -0.7944    0.5567    0.0000 C   0  0  0  0  0  0  0  0  0  0  0  0
   -0.2641   -0.0753    0.0000 C   0  0  0  0  0  0  0  0  0  0  0  0
    0.4503   -0.4878    0.0000 C   0  0  0  0  0  0  0  0  0  0  0  0
    1.1648   -0.0753    0.0000 O   0  0  0  0  0  0  0  0  0  0  0  0
    0.4503   -1.3128    0.0000 N   0  0  0  0  0  0  0  0  0  0  0  0
   -0.2641   -1.7253    0.0000 C   0  0  0  0  0  0  0  0  0  0  0  0
   -0.2641   -2.5503    0.0000 O   0  0  0  0  0  0  0  0  0  0  0  0
   -0.9786   -1.3128    0.0000 N   0  0  0  0  0  0  0  0  0  0  0  0
   -0.9786   -0.4878    0.0000 C   0  0  0  0  0  0  0  0  0  0  0  0
   -1.6931   -0.0753    0.0000 O   0  0  0  0  0  0  0  0  0  0  0  0
    0.2662    0.5567    0.0000 C   0  0  0  0  0  0  0  0  0  0  0  0
   -0.0160    1.3320    0.0000 C   0  0  0  0  0  0  0  0  0  0  0  0
    0.5143    1.9640    0.0000 C   0  0  0  0  0  0  0  0  0  0  0  0
    1.3268    1.8207    0.0000 C   0  0  0  0  0  0  0  0  0  0  0  0
    1.6089    1.0454    0.0000 C   0  0  0  0  0  0  0  0  0  0  0  0
    1.0786    0.4135    0.0000 C   0  0  0  0  0  0  0  0  0  0  0  0
    7.3027   -1.4662    0.0000 C   0  0  0  0  0  0  0  0  0  0  0  0
    6.5882   -1.0537    0.0000 O   0  0  0  0  0  0  0  0  0  0  0  0
    6.5882   -0.2287    0.0000 C   0  0  0  0  0  0  0  0  0  0  0  0
    5.8738    0.1838    0.0000 C   0  0  0  0  0  0  0  0  0  0  0  0
    5.8738    1.0088    0.0000 C   0  0  0  0  0  0  0  0  0  0  0  0
    5.1593    1.4213    0.0000 C   0  0  0  0  0  0  0  0  0  0  0  0
    5.1593    2.2463    0.0000 C   0  0  0  0  0  0  0  0  0  0  0  0
    5.8738    2.6588    0.0000 C   0  0  0  0  0  0  0  0  0  0  0  0
    6.5882    2.2463    0.0000 N   0  0  0  0  0  0  0  0  0  0  0  0
    6.5882    1.4213    0.0000 C   0  0  0  0  0  0  0  0  0  0  0  0
    7.3027    1.0088    0.0000 C   0  0  0  0  0  0  0  0  0  0  0  0
    7.3027    0.1838    0.0000 C   0  0  0  0  0  0  0  0  0  0  0  0
    4.4448    1.0088    0.0000 C   0  0  3  0  0  0  0  0  0  0  0  0
    4.4448    0.1838    0.0000 C   0  0  3  0  0  0  0  0  0  0  0  0
    4.0926   -0.5100    0.0000 C   0  0  0  0  0  0  0  0  0  0  0  0
    4.4673   -1.2281    0.0000 C   0  0  3  0  0  0  0  0  0  0  0  0
    3.8832   -1.9087    0.0000 C   0  0  0  0  0  0  0  0  0  0  0  0
    4.0659   -1.2813    0.0000 C   0  0  0  0  0  0  0  0  0  0  0  0
    4.8182   -0.5518    0.0000 N   0  0  3  0  0  0  0  0  0  0  0  0
    5.6996   -0.7892    0.0000 C   0  0  0  0  0  0  0  0  0  0  0  0
    5.3165   -1.4489    0.0000 C   0  0  3  0  0  0  0  0  0  0  0  0
    5.6340   -2.2104    0.0000 C   0  0  0  0  0  0  0  0  0  0  0  0
    6.4522   -2.3161    0.0000 C   0  0  0  0  0  0  0  0  0  0  0  0
    3.7303    1.4213    0.0000 O   0  0  0  0  0  0  0  0  0  0  0  0
   -2.2946    1.2332    0.0000 H   0  0  0  0  0  0  0  0  0  0  0  0
   -1.9729   -0.5919    0.0000 H   0  0  0  0  0  0  0  0  0  0  0  0
   -2.6607    0.2278    0.0000 H   0  0  0  0  0  0  0  0  0  0  0  0
   -0.4284    1.5622    0.0000 H   0  0  0  0  0  0  0  0  0  0  0  0
    0.2593    0.7425    0.0000 H   0  0  0  0  0  0  0  0  0  0  0  0
    1.3029   -1.8050    0.0000 H   0  0  0  0  0  0  0  0  0  0  0  0
   -1.8312   -1.8051    0.0000 H   0  0  0  0  0  0  0  0  0  0  0  0
   -1.0323    1.5112    0.0000 H   0  0  0  0  0  0  0  0  0  0  0  0
    0.1614    2.9338    0.0000 H   0  0  0  0  0  0  0  0  0  0  0  0
    1.9902    2.6112    0.0000 H   0  0  0  0  0  0  0  0  0  0  0  0
    2.6252    0.8661    0.0000 H   0  0  0  0  0  0  0  0  0  0  0  0
    1.4316   -0.5563    0.0000 H   0  0  0  0  0  0  0  0  0  0  0  0
    7.3027   -2.5362    0.0000 H   0  0  0  0  0  0  0  0  0  0  0  0
    8.2293   -0.9312    0.0000 H   0  0  0  0  0  0  0  0  0  0  0  0
    8.2294   -2.0012    0.0000 H   0  0  0  0  0  0  0  0  0  0  0  0
    4.9801   -0.3322    0.0000 H   0  0  0  0  0  0  0  0  0  0  0  0
    4.2656    2.7623    0.0000 H   0  0  0  0  0  0  0  0  0  0  0  0
    5.8738    3.6908    0.0000 H   0  0  0  0  0  0  0  0  0  0  0  0
    8.1964    1.5248    0.0000 H   0  0  0  0  0  0  0  0  0  0  0  0
    8.1964   -0.3322    0.0000 H   0  0  0  0  0  0  0  0  0  0  0  0
    5.3714    0.4738    0.0000 H   0  0  0  0  0  0  0  0  0  0  0  0
    3.4042    0.4328    0.0000 H   0  0  0  0  0  0  0  0  0  0  0  0
    3.0226   -0.5160    0.0000 H   0  0  0  0  0  0  0  0  0  0  0  0
    3.5405   -1.4266    0.0000 H   0  0  0  0  0  0  0  0  0  0  0  0
    3.4043   -1.1062    0.0000 H   0  0  0  0  0  0  0  0  0  0  0  0
    3.3737   -2.8496    0.0000 H   0  0  0  0  0  0  0  0  0  0  0  0
    2.8935   -1.5021    0.0000 H   0  0  0  0  0  0  0  0  0  0  0  0
    3.1493   -0.7293    0.0000 H   0  0  0  0  0  0  0  0  0  0  0  0
    3.9442   -0.2182    0.0000 H   0  0  0  0  0  0  0  0  0  0  0  0
    6.6889   -0.3816    0.0000 H   0  0  0  0  0  0  0  0  0  0  0  0
    6.4033   -1.5952    0.0000 H   0  0  0  0  0  0  0  0  0  0  0  0
    4.9046   -0.4614    0.0000 H   0  0  0  0  0  0  0  0  0  0  0  0
    5.0077   -3.0306    0.0000 H   0  0  0  0  0  0  0  0  0  0  0  0
    6.8494   -3.2686    0.0000 H   0  0  0  0  0  0  0  0  0  0  0  0
    7.0785   -1.4958    0.0000 H   0  0  0  0  0  0  0  0  0  0  0  0
    3.7303    2.3913    0.0000 H   0  0  0  0  0  0  0  0  0  0  0  0
  1  2  1  0  0  0  0
  1 42  1  0  0  0  0
  1 43  1  0  0  0  0
  1 44  1  0  0  0  0
  2  3  1  0  0  0  0
  2 45  1  0  0  0  0
  2 46  1  0  0  0  0
  3  4  1  0  0  0  0
  3 10  1  0  0  0  0
  3 12  1  0  0  0  0
  4  5  2  0  0  0  0
  4  6  1  0  0  0  0
  6  7  1  0  0  0  0
  6 47  1  0  0  0  0
  7  8  2  0  0  0  0
  7  9  1  0  0  0  0
  9 10  1  0  0  0  0
  9 48  1  0  0  0  0
 10 11  2  0  0  0  0
 12 13  2  0  0  0  0
 12 17  1  0  0  0  0
 13 14  1  0  0  0  0
 13 49  1  0  0  0  0
 14 15  2  0  0  0  0
 14 50  1  0  0  0  0
 15 16  1  0  0  0  0
 15 51  1  0  0  0  0
 16 17  2  0  0  0  0
 16 52  1  0  0  0  0
 17 53  1  0  0  0  0
 18 19  1  0  0  0  0
 18 54  1  0  0  0  0
 18 55  1  0  0  0  0
 18 56  1  0  0  0  0
 19 20  1  0  0  0  0
 20 21  2  0  0  0  0
 20 29  1  0  0  0  0
 21 22  1  0  0  0  0
 21 57  1  0  0  0  0
 22 23  2  0  0  0  0
 22 27  1  0  0  0  0
 23 24  1  0  0  0  0
 23 30  1  0  0  0  0
 24 25  2  0  0  0  0
 24 58  1  0  0  0  0
 25 26  1  0  0  0  0
 25 59  1  0  0  0  0
 26 27  2  0  0  0  0
 27 28  1  0  0  0  0
 28 29  2  0  0  0  0
 28 60  1  0  0  0  0
 29 61  1  0  0  0  0
 30 31  1  0  0  0  0
 30 41  1  0  0  0  0
 30 62  1  0  0  0  0
 31 32  1  0  0  0  0
 31 36  1  0  0  0  0
 31 63  1  0  0  0  0
 32 33  1  0  0  0  0
 32 64  1  0  0  0  0
 32 65  1  0  0  0  0
 33 34  1  0  0  0  0
 33 38  1  0  0  0  0
 33 66  1  0  0  0  0
 34 35  1  0  0  0  0
 34 67  1  0  0  0  0
 34 68  1  0  0  0  0
 35 36  1  0  0  0  0
 35 69  1  0  0  0  0
 35 70  1  0  0  0  0
 36 37  1  0  0  0  0
 37 38  1  0  0  0  0
 37 71  1  0  0  0  0
 37 72  1  0  0  0  0
 38 39  1  0  0  0  0
 38 73  1  0  0  0  0
 39 40  2  0  0  0  0
 39 74  1  0  0  0  0
 40 75  1  0  0  0  0
 40 76  1  0  0  0  0
 41 77  1  0  0  0  0
M  END
>  <DRUGBANK_ID>
DB01346

>  <COMMON_NAME>
Quinidine barbiturate

$$$$
