
 OpenBabel10282417072D

 44 48  0  0  0  0  0  0  0  0999 V2000
    0.2388   -0.6527    0.0000 C   0  0  2  0  0  0  0  0  0  0  0  0
   -0.5292   -0.6527    0.0000 C   0  0  0  0  0  0  0  0  0  0  0  0
    0.6178    0.0020    0.0000 C   0  0  2  0  0  0  0  0  0  0  0  0
   -0.9477   -1.3912    0.0000 C   0  0  0  0  0  0  0  0  0  0  0  0
    0.6080   -1.3912    0.0000 C   0  0  1  0  0  0  0  0  0  0  0  0
   -0.1008   -1.9180    0.0000 O   0  0  0  0  0  0  0  0  0  0  0  0
    0.2388    0.7061    0.0000 C   0  0  2  0  0  0  0  0  0  0  0  0
   -0.9428   -0.0176    0.0000 C   0  0  0  0  0  0  0  0  0  0  0  0
    1.4499    0.0020    0.0000 C   0  0  0  0  0  0  0  0  0  0  0  0
    0.7558    1.2821    0.0000 N   0  0  0  0  0  0  0  0  0  0  0  0
   -0.5292    0.7061    0.0000 C   0  0  0  0  0  0  0  0  0  0  0  0
    1.0166   -0.5148    0.0000 C   0  0  0  0  0  0  0  0  0  0  0  0
    1.9028   -0.6773    0.0000 C   0  0  0  0  0  0  0  0  0  0  0  0
    1.4647   -1.3912    0.0000 C   0  0  2  0  0  0  0  0  0  0  0  0
   -1.7552   -1.3912    0.0000 C   0  0  0  0  0  0  0  0  0  0  0  0
    1.3711    0.8144    0.0000 C   0  0  0  0  0  0  0  0  0  0  0  0
   -1.7552   -0.0176    0.0000 C   0  0  0  0  0  0  0  0  0  0  0  0
   -2.1687   -0.6773    0.0000 C   0  0  0  0  0  0  0  0  0  0  0  0
    1.4942    2.5131    0.0000 C   0  0  0  0  0  0  0  0  0  0  0  0
    2.2130    2.0797    0.0000 C   0  0  0  0  0  0  0  0  0  0  0  0
    0.7558    2.1142    0.0000 C   0  0  0  0  0  0  0  0  0  0  0  0
   -2.2130   -2.0952    0.0000 O   0  0  0  0  0  0  0  0  0  0  0  0
    1.8881   -2.1297    0.0000 O   0  0  0  0  0  0  0  0  0  0  0  0
   -0.2427    1.7851    0.0000 H   0  0  0  0  0  0  0  0  0  0  0  0
    0.9792   -2.5131    0.0000 H   0  0  0  0  0  0  0  0  0  0  0  0
    1.2238    1.0165    0.0000 H   0  0  0  0  0  0  0  0  0  0  0  0
    1.9368    0.9119    0.0000 H   0  0  0  0  0  0  0  0  0  0  0  0
   -1.0662    1.6316    0.0000 H   0  0  0  0  0  0  0  0  0  0  0  0
   -1.5992    0.7026    0.0000 H   0  0  0  0  0  0  0  0  0  0  0  0
    1.7403   -1.3029    0.0000 H   0  0  0  0  0  0  0  0  0  0  0  0
    2.0557   -0.2593    0.0000 H   0  0  0  0  0  0  0  0  0  0  0  0
    2.9346   -0.6579    0.0000 H   0  0  0  0  0  0  0  0  0  0  0  0
    2.5346   -1.4072    0.0000 H   0  0  0  0  0  0  0  0  0  0  0  0
    2.3833    1.1612    0.0000 H   0  0  0  0  0  0  0  0  0  0  0  0
    2.1535    0.0845    0.0000 H   0  0  0  0  0  0  0  0  0  0  0  0
   -2.2549    0.8854    0.0000 H   0  0  0  0  0  0  0  0  0  0  0  0
   -3.2005   -0.6593    0.0000 H   0  0  0  0  0  0  0  0  0  0  0  0
    1.5186    3.5448    0.0000 H   0  0  0  0  0  0  0  0  0  0  0  0
    2.1934    1.0479    0.0000 H   0  0  0  0  0  0  0  0  0  0  0  0
    3.1164    2.5786    0.0000 H   0  0  0  0  0  0  0  0  0  0  0  0
   -0.1632    2.6623    0.0000 H   0  0  0  0  0  0  0  0  0  0  0  0
   -0.1746    1.5858    0.0000 H   0  0  0  0  0  0  0  0  0  0  0  0
   -3.1487   -2.0456    0.0000 H   0  0  0  0  0  0  0  0  0  0  0  0
    1.4006   -2.9683    0.0000 H   0  0  0  0  0  0  0  0  0  0  0  0
  1  2  1  1  0  0  0
  1 12  1  0  0  0  0
  3  1  1  0  0  0  0
  3 26  1  1  0  0  0
  4  2  1  0  0  0  0
  4  6  1  0  0  0  0
  5  1  1  0  0  0  0
  5 25  1  1  0  0  0
  6  5  1  0  0  0  0
  7  3  1  0  0  0  0
  7 24  1  6  0  0  0
  7 10  1  0  0  0  0
  8  2  2  0  0  0  0
  8 11  1  0  0  0  0
  9  3  1  0  0  0  0
  9 13  2  0  0  0  0
  9 27  1  0  0  0  0
 10 16  1  0  0  0  0
 11  7  1  0  0  0  0
 11 28  1  0  0  0  0
 11 29  1  0  0  0  0
 12 30  1  0  0  0  0
 12 31  1  0  0  0  0
 13 14  1  0  0  0  0
 13 32  1  0  0  0  0
 14  5  1  0  0  0  0
 14 23  1  0  0  0  0
 14 33  1  1  0  0  0
 15  4  2  0  0  0  0
 15 18  1  0  0  0  0
 16 12  1  0  0  0  0
 16 34  1  0  0  0  0
 16 35  1  0  0  0  0
 17  8  1  0  0  0  0
 17 36  1  0  0  0  0
 18 17  2  0  0  0  0
 18 37  1  0  0  0  0
 19 21  1  0  0  0  0
 19 38  1  0  0  0  0
 20 19  2  0  0  0  0
 20 39  1  0  0  0  0
 20 40  1  0  0  0  0
 21 10  1  0  0  0  0
 21 41  1  0  0  0  0
 21 42  1  0  0  0  0
 22 15  1  0  0  0  0
 22 43  1  0  0  0  0
 23 44  1  0  0  0  0
M  END
>  <DRUGBANK_ID>
DB11490

>  <COMMON_NAME>
Nalorphine

>  <CAS_NUMBER>
62-67-9

>  <UNII>
U59WB2WRY2

>  <SYNONYMS>
Nalorfina; Nalorphine; Nalorphinum

$$$$
