
 OpenBabel10282417072D

 52 54  0  0  0  0  0  0  0  0999 V2000
   -0.9071   -0.4910    0.0000 C   0  0  0  0  0  0  0  0  0  0  0  0
   -0.1927   -0.9036    0.0000 O   0  0  0  0  0  0  0  0  0  0  0  0
   -1.6216   -0.9036    0.0000 C   0  0  0  0  0  0  0  0  0  0  0  0
   -1.6216   -1.7286    0.0000 N   0  0  0  0  0  0  0  0  0  0  0  0
   -2.3361   -2.1410    0.0000 C   0  0  0  0  0  0  0  0  0  0  0  0
   -0.9071   -2.1410    0.0000 C   0  0  0  0  0  0  0  0  0  0  0  0
    0.0196    1.4961    0.0000 C   0  0  0  0  0  0  0  0  0  0  0  0
   -0.1638    0.6918    0.0000 C   0  0  0  0  0  0  0  0  0  0  0  0
    0.4408    0.1306    0.0000 C   0  0  0  0  0  0  0  0  0  0  0  0
    1.2292    0.3738    0.0000 C   0  0  0  0  0  0  0  0  0  0  0  0
    1.4127    1.1781    0.0000 C   0  0  0  0  0  0  0  0  0  0  0  0
    0.8080    1.7393    0.0000 C   0  0  0  0  0  0  0  0  0  0  0  0
   -3.2271    1.1781    0.0000 C   0  0  0  0  0  0  0  0  0  0  0  0
   -3.0436    0.3738    0.0000 C   0  0  0  0  0  0  0  0  0  0  0  0
   -2.2552    0.1306    0.0000 C   0  0  0  0  0  0  0  0  0  0  0  0
   -1.6458    0.7119    0.0000 C   0  0  0  0  0  0  0  0  0  0  0  0
   -1.8294    1.5163    0.0000 C   0  0  0  0  0  0  0  0  0  0  0  0
   -2.6224    1.7393    0.0000 C   0  0  0  0  0  0  0  0  0  0  0  0
   -1.3196    2.1410    0.0000 C   0  0  0  0  0  0  0  0  0  0  0  0
   -0.9071    0.3339    0.0000 N   0  0  0  0  0  0  0  0  0  0  0  0
   -0.4946    2.1410    0.0000 C   0  0  0  0  0  0  0  0  0  0  0  0
    1.8339   -0.1872    0.0000 N   0  0  0  0  0  0  0  0  0  0  0  0
    1.6504   -0.9916    0.0000 C   0  0  0  0  0  0  0  0  0  0  0  0
    0.8620   -1.2348    0.0000 O   0  0  0  0  0  0  0  0  0  0  0  0
    2.2551   -1.5528    0.0000 O   0  0  0  0  0  0  0  0  0  0  0  0
    3.0435   -1.3096    0.0000 C   0  0  0  0  0  0  0  0  0  0  0  0
    3.2271   -0.5053    0.0000 C   0  0  0  0  0  0  0  0  0  0  0  0
   -2.5483   -0.3686    0.0000 H   0  0  0  0  0  0  0  0  0  0  0  0
   -2.5482   -1.4386    0.0000 H   0  0  0  0  0  0  0  0  0  0  0  0
   -3.2627   -1.6059    0.0000 H   0  0  0  0  0  0  0  0  0  0  0  0
   -2.3362   -3.2110    0.0000 H   0  0  0  0  0  0  0  0  0  0  0  0
   -3.2628   -2.6759    0.0000 H   0  0  0  0  0  0  0  0  0  0  0  0
   -0.9070   -3.2110    0.0000 H   0  0  0  0  0  0  0  0  0  0  0  0
    0.0195   -1.6059    0.0000 H   0  0  0  0  0  0  0  0  0  0  0  0
    0.0196   -2.6759    0.0000 H   0  0  0  0  0  0  0  0  0  0  0  0
    0.2111   -0.8755    0.0000 H   0  0  0  0  0  0  0  0  0  0  0  0
    2.3989    1.4823    0.0000 H   0  0  0  0  0  0  0  0  0  0  0  0
    1.0377    2.7454    0.0000 H   0  0  0  0  0  0  0  0  0  0  0  0
   -4.2133    1.4823    0.0000 H   0  0  0  0  0  0  0  0  0  0  0  0
   -3.8001   -0.3281    0.0000 H   0  0  0  0  0  0  0  0  0  0  0  0
   -2.0186   -0.8739    0.0000 H   0  0  0  0  0  0  0  0  0  0  0  0
   -2.8647    2.7425    0.0000 H   0  0  0  0  0  0  0  0  0  0  0  0
   -1.7784    3.1076    0.0000 H   0  0  0  0  0  0  0  0  0  0  0  0
   -2.3818    2.2698    0.0000 H   0  0  0  0  0  0  0  0  0  0  0  0
   -0.0303    3.1050    0.0000 H   0  0  0  0  0  0  0  0  0  0  0  0
   -1.0639    3.0470    0.0000 H   0  0  0  0  0  0  0  0  0  0  0  0
    2.7746    0.1031    0.0000 H   0  0  0  0  0  0  0  0  0  0  0  0
    3.8279   -2.0374    0.0000 H   0  0  0  0  0  0  0  0  0  0  0  0
    4.0660   -0.9942    0.0000 H   0  0  0  0  0  0  0  0  0  0  0  0
    4.2496   -0.1899    0.0000 H   0  0  0  0  0  0  0  0  0  0  0  0
    2.4428    0.2225    0.0000 H   0  0  0  0  0  0  0  0  0  0  0  0
    3.4652    0.5379    0.0000 H   0  0  0  0  0  0  0  0  0  0  0  0
  1  3  1  0  0  0  0
  1  2  2  0  0  0  0
  3  4  1  0  0  0  0
  3 28  1  0  0  0  0
  3 29  1  0  0  0  0
  4  5  1  0  0  0  0
  4  6  1  0  0  0  0
  5 30  1  0  0  0  0
  5 31  1  0  0  0  0
  5 32  1  0  0  0  0
  6 33  1  0  0  0  0
  6 34  1  0  0  0  0
  6 35  1  0  0  0  0
  7  8  2  0  0  0  0
  7 21  1  0  0  0  0
  8  9  1  0  0  0  0
  9 10  2  0  0  0  0
  9 36  1  0  0  0  0
 10 11  1  0  0  0  0
 10 22  1  0  0  0  0
 11 12  2  0  0  0  0
 11 37  1  0  0  0  0
 12  7  1  0  0  0  0
 12 38  1  0  0  0  0
 13 14  2  0  0  0  0
 13 39  1  0  0  0  0
 14 15  1  0  0  0  0
 14 40  1  0  0  0  0
 15 16  2  0  0  0  0
 15 41  1  0  0  0  0
 16 20  1  0  0  0  0
 16 17  1  0  0  0  0
 17 18  2  0  0  0  0
 17 19  1  0  0  0  0
 18 13  1  0  0  0  0
 18 42  1  0  0  0  0
 19 21  1  0  0  0  0
 19 43  1  0  0  0  0
 19 44  1  0  0  0  0
 20  8  1  0  0  0  0
 20  1  1  0  0  0  0
 21 45  1  0  0  0  0
 21 46  1  0  0  0  0
 22 23  1  0  0  0  0
 22 47  1  0  0  0  0
 23 24  2  0  0  0  0
 23 25  1  0  0  0  0
 25 26  1  0  0  0  0
 26 27  1  0  0  0  0
 26 48  1  0  0  0  0
 26 49  1  0  0  0  0
 27 50  1  0  0  0  0
 27 51  1  0  0  0  0
 27 52  1  0  0  0  0
M  END
>  <DRUGBANK_ID>
DB13635

>  <COMMON_NAME>
Tiracizine

>  <CAS_NUMBER>
83275-56-3

>  <UNII>
9UUO2T61K7

>  <SYNONYMS>
Tiracizina; Tiracizine; Tiracizinum

$$$$
