
 OpenBabel10282417072D

 48 52  0  0  1  0  0  0  0  0999 V2000
   -1.0047    0.3820    0.0000 C   0  0  0  0  0  0  0  0  0  0  0  0
   -1.0047    1.2070    0.0000 C   0  0  0  0  0  0  0  0  0  0  0  0
   -0.2902    1.6195    0.0000 C   0  0  0  0  0  0  0  0  0  0  0  0
    0.4243    1.2070    0.0000 C   0  0  0  0  0  0  0  0  0  0  0  0
    0.4243    0.3820    0.0000 C   0  0  0  0  0  0  0  0  0  0  0  0
   -0.2902   -0.0305    0.0000 C   0  0  0  0  0  0  0  0  0  0  0  0
    1.1387   -0.0305    0.0000 C   0  0  2  0  0  0  0  0  0  0  0  0
    1.9233   -0.2854    0.0000 C   0  0  0  0  0  0  0  0  0  0  0  0
    2.6378    0.1271    0.0000 C   0  0  0  0  0  0  0  0  0  0  0  0
    3.3523   -0.2854    0.0000 C   0  0  0  0  0  0  0  0  0  0  0  0
    3.3523   -1.1104    0.0000 C   0  0  0  0  0  0  0  0  0  0  0  0
    2.6378   -1.5229    0.0000 C   0  0  0  0  0  0  0  0  0  0  0  0
    1.9233   -1.1104    0.0000 C   0  0  0  0  0  0  0  0  0  0  0  0
    1.1387   -1.3654    0.0000 C   0  0  0  0  0  0  0  0  0  0  0  0
    0.6538   -0.6979    0.0000 N   0  0  0  0  0  0  0  0  0  0  0  0
    0.8838   -2.1500    0.0000 N   0  0  0  0  0  0  0  0  0  0  0  0
    2.6378   -2.3479    0.0000 F   0  0  0  0  0  0  0  0  0  0  0  0
    1.4743    0.7232    0.0000 C   0  0  0  0  0  0  0  0  0  0  0  0
    0.9894    1.3906    0.0000 C   0  0  0  0  0  0  0  0  0  0  0  0
    1.3249    2.1443    0.0000 C   0  0  0  0  0  0  0  0  0  0  0  0
    2.1454    2.2305    0.0000 N   0  0  0  0  0  0  0  0  0  0  0  0
    2.6303    1.5631    0.0000 C   0  0  0  0  0  0  0  0  0  0  0  0
    2.2948    0.8094    0.0000 C   0  0  0  0  0  0  0  0  0  0  0  0
    3.4508    1.6493    0.0000 C   0  0  0  0  0  0  0  0  0  0  0  0
    3.7864    2.4030    0.0000 F   0  0  0  0  0  0  0  0  0  0  0  0
    3.9357    0.9819    0.0000 F   0  0  0  0  0  0  0  0  0  0  0  0
   -0.2902    2.4445    0.0000 C   0  0  0  0  0  0  0  0  0  0  0  0
   -1.0047    2.8570    0.0000 C   0  0  0  0  0  0  0  0  0  0  0  0
   -1.0047    3.6820    0.0000 N   0  0  0  0  0  0  0  0  0  0  0  0
   -0.2902    4.0945    0.0000 C   0  0  0  0  0  0  0  0  0  0  0  0
    0.4243    3.6820    0.0000 N   0  0  0  0  0  0  0  0  0  0  0  0
    0.4243    2.8570    0.0000 C   0  0  0  0  0  0  0  0  0  0  0  0
   -1.8984   -0.1340    0.0000 H   0  0  0  0  0  0  0  0  0  0  0  0
   -1.8984    1.7230    0.0000 H   0  0  0  0  0  0  0  0  0  0  0  0
    1.3180    1.7230    0.0000 H   0  0  0  0  0  0  0  0  0  0  0  0
   -0.2902   -1.0625    0.0000 H   0  0  0  0  0  0  0  0  0  0  0  0
    2.6378    1.1591    0.0000 H   0  0  0  0  0  0  0  0  0  0  0  0
    4.2460    0.2306    0.0000 H   0  0  0  0  0  0  0  0  0  0  0  0
    4.2460   -1.6264    0.0000 H   0  0  0  0  0  0  0  0  0  0  0  0
   -0.0792   -2.3547    0.0000 H   0  0  0  0  0  0  0  0  0  0  0  0
    1.5426   -2.8816    0.0000 H   0  0  0  0  0  0  0  0  0  0  0  0
   -0.0369    1.2827    0.0000 H   0  0  0  0  0  0  0  0  0  0  0  0
    0.7183    2.9792    0.0000 H   0  0  0  0  0  0  0  0  0  0  0  0
    2.9014   -0.0255    0.0000 H   0  0  0  0  0  0  0  0  0  0  0  0
    4.5149    1.7611    0.0000 H   0  0  0  0  0  0  0  0  0  0  0  0
   -1.8984    2.3410    0.0000 H   0  0  0  0  0  0  0  0  0  0  0  0
   -0.2902    5.1265    0.0000 H   0  0  0  0  0  0  0  0  0  0  0  0
    1.3180    2.3410    0.0000 H   0  0  0  0  0  0  0  0  0  0  0  0
  1  2  2  0  0  0  0
  1  6  1  0  0  0  0
  1 33  1  0  0  0  0
  2  3  1  0  0  0  0
  2 34  1  0  0  0  0
  3  4  2  0  0  0  0
  3 27  1  0  0  0  0
  4  5  1  0  0  0  0
  4 35  1  0  0  0  0
  5  6  2  0  0  0  0
  6 36  1  0  0  0  0
  7  5  1  6  0  0  0
  7  8  1  0  0  0  0
  7 15  1  0  0  0  0
  7 18  1  0  0  0  0
  8  9  2  0  0  0  0
  8 13  1  0  0  0  0
  9 10  1  0  0  0  0
  9 37  1  0  0  0  0
 10 11  2  0  0  0  0
 10 38  1  0  0  0  0
 11 12  1  0  0  0  0
 11 39  1  0  0  0  0
 12 13  2  0  0  0  0
 12 17  1  0  0  0  0
 13 14  1  0  0  0  0
 14 15  2  0  0  0  0
 14 16  1  0  0  0  0
 16 40  1  0  0  0  0
 16 41  1  0  0  0  0
 18 19  2  0  0  0  0
 18 23  1  0  0  0  0
 19 20  1  0  0  0  0
 19 42  1  0  0  0  0
 20 21  2  0  0  0  0
 20 43  1  0  0  0  0
 21 22  1  0  0  0  0
 22 23  2  0  0  0  0
 22 24  1  0  0  0  0
 23 44  1  0  0  0  0
 24 25  1  0  0  0  0
 24 26  1  0  0  0  0
 24 45  1  0  0  0  0
 27 28  2  0  0  0  0
 27 32  1  0  0  0  0
 28 29  1  0  0  0  0
 28 46  1  0  0  0  0
 29 30  2  0  0  0  0
 30 31  1  0  0  0  0
 30 47  1  0  0  0  0
 31 32  2  0  0  0  0
 32 48  1  0  0  0  0
M  END
>  <DRUGBANK_ID>
DB12368

>  <COMMON_NAME>
AZD-3839

>  <CAS_NUMBER>
1227163-84-9

>  <UNII>
I8ID590133

$$$$
