U15
 OpenBabel10282417072D

 59 59  0  0  0  0  0  0  0  0999 V2000
   -2.9028    2.1794    0.0000 O   0  0  0  0  0  0  0  0  0  0  0  0
   -3.1009    1.3785    0.0000 C   0  0  0  0  0  0  0  0  0  0  0  0
   -3.8936    1.1497    0.0000 O   0  0  0  0  0  0  0  0  0  0  0  0
   -4.4880    1.7217    0.0000 C   0  0  0  0  0  0  0  0  0  0  0  0
   -2.5065    0.8065    0.0000 C   0  0  1  0  0  0  0  0  0  0  0  0
   -2.7046    0.0056    0.0000 C   0  0  0  0  0  0  0  0  0  0  0  0
   -2.1101   -0.5664    0.0000 C   0  0  0  0  0  0  0  0  0  0  0  0
   -1.3175   -0.3376    0.0000 C   0  0  0  0  0  0  0  0  0  0  0  0
   -2.3083   -1.3672    0.0000 C   0  0  0  0  0  0  0  0  0  0  0  0
   -1.7138    1.0353    0.0000 N   0  0  0  0  0  0  0  0  0  0  0  0
   -1.1193    0.4633    0.0000 C   0  0  0  0  0  0  0  0  0  0  0  0
   -0.8089   -0.3011    0.0000 O   0  0  0  0  0  0  0  0  0  0  0  0
   -0.3267    0.6921    0.0000 C   0  0  2  0  0  0  0  0  0  0  0  0
   -0.1286    1.4929    0.0000 C   0  0  0  0  0  0  0  0  0  0  0  0
    0.2678    0.1201    0.0000 N   0  0  0  0  0  0  0  0  0  0  0  0
    1.0604    0.3489    0.0000 C   0  0  0  0  0  0  0  0  0  0  0  0
    1.2586    1.1497    0.0000 O   0  0  0  0  0  0  0  0  0  0  0  0
    1.6549   -0.2232    0.0000 C   0  0  1  0  0  0  0  0  0  0  0  0
    1.4567   -1.0240    0.0000 O   0  0  0  0  0  0  0  0  0  0  0  0
    2.4475    0.0056    0.0000 C   0  0  2  0  0  0  0  0  0  0  0  0
    2.6457    0.8065    0.0000 N   0  0  0  0  0  0  0  0  0  0  0  0
    3.0420   -0.5664    0.0000 C   0  0  0  0  0  0  0  0  0  0  0  0
    3.8346   -0.3376    0.0000 C   0  0  0  0  0  0  0  0  0  0  0  0
    4.4291   -0.9096    0.0000 C   0  0  0  0  0  0  0  0  0  0  0  0
    4.2309   -1.7105    0.0000 C   0  0  0  0  0  0  0  0  0  0  0  0
    4.8254   -2.2825    0.0000 C   0  0  0  0  0  0  0  0  0  0  0  0
    3.4383   -1.9393    0.0000 C   0  0  0  0  0  0  0  0  0  0  0  0
    2.8438   -1.3672    0.0000 C   0  0  0  0  0  0  0  0  0  0  0  0
   -3.0675    0.6445    0.0000 H   0  0  0  0  0  0  0  0  0  0  0  0
   -0.7475    1.0970    0.0000 H   0  0  0  0  0  0  0  0  0  0  0  0
    1.0939   -0.3851    0.0000 H   0  0  0  0  0  0  0  0  0  0  0  0
    2.0267    0.4105    0.0000 H   0  0  0  0  0  0  0  0  0  0  0  0
   -4.2310    2.7604    0.0000 H   0  0  0  0  0  0  0  0  0  0  0  0
   -5.5160    1.4250    0.0000 H   0  0  0  0  0  0  0  0  0  0  0  0
   -5.2590    2.4636    0.0000 H   0  0  0  0  0  0  0  0  0  0  0  0
   -3.7326   -0.2912    0.0000 H   0  0  0  0  0  0  0  0  0  0  0  0
   -2.9615   -1.0331    0.0000 H   0  0  0  0  0  0  0  0  0  0  0  0
   -1.3391   -1.3083    0.0000 H   0  0  0  0  0  0  0  0  0  0  0  0
   -0.5465   -1.0795    0.0000 H   0  0  0  0  0  0  0  0  0  0  0  0
   -1.0605    0.7011    0.0000 H   0  0  0  0  0  0  0  0  0  0  0  0
   -0.2895   -0.0408    0.0000 H   0  0  0  0  0  0  0  0  0  0  0  0
   -3.3363   -1.6639    0.0000 H   0  0  0  0  0  0  0  0  0  0  0  0
   -1.5373   -2.1092    0.0000 H   0  0  0  0  0  0  0  0  0  0  0  0
   -2.5654   -2.4059    0.0000 H   0  0  0  0  0  0  0  0  0  0  0  0
   -1.4773    1.9910    0.0000 H   0  0  0  0  0  0  0  0  0  0  0  0
    0.8994    1.7897    0.0000 H   0  0  0  0  0  0  0  0  0  0  0  0
   -0.8997    2.2348    0.0000 H   0  0  0  0  0  0  0  0  0  0  0  0
    0.1283    2.5316    0.0000 H   0  0  0  0  0  0  0  0  0  0  0  0
    0.0314   -0.8356    0.0000 H   0  0  0  0  0  0  0  0  0  0  0  0
    0.5247   -1.2930    0.0000 H   0  0  0  0  0  0  0  0  0  0  0  0
    3.6257    1.0894    0.0000 H   0  0  0  0  0  0  0  0  0  0  0  0
    1.9107    1.5138    0.0000 H   0  0  0  0  0  0  0  0  0  0  0  0
    4.0825    0.6642    0.0000 H   0  0  0  0  0  0  0  0  0  0  0  0
    5.4206   -0.6234    0.0000 H   0  0  0  0  0  0  0  0  0  0  0  0
    4.5684   -3.3212    0.0000 H   0  0  0  0  0  0  0  0  0  0  0  0
    5.8534   -1.9857    0.0000 H   0  0  0  0  0  0  0  0  0  0  0  0
    5.5965   -3.0244    0.0000 H   0  0  0  0  0  0  0  0  0  0  0  0
    3.1904   -2.9411    0.0000 H   0  0  0  0  0  0  0  0  0  0  0  0
    1.8523   -1.6534    0.0000 H   0  0  0  0  0  0  0  0  0  0  0  0
  1  2  2  0  0  0  0
  2  3  1  0  0  0  0
  2  5  1  0  0  0  0
  3  4  1  0  0  0  0
  4 33  1  0  0  0  0
  4 34  1  0  0  0  0
  4 35  1  0  0  0  0
  5  6  1  0  0  0  0
  5 10  1  0  0  0  0
  5 29  1  1  0  0  0
  6  7  1  0  0  0  0
  6 36  1  0  0  0  0
  6 37  1  0  0  0  0
  7  8  1  0  0  0  0
  7  9  1  0  0  0  0
  7 38  1  0  0  0  0
  8 39  1  0  0  0  0
  8 40  1  0  0  0  0
  8 41  1  0  0  0  0
  9 42  1  0  0  0  0
  9 43  1  0  0  0  0
  9 44  1  0  0  0  0
 10 11  1  0  0  0  0
 10 45  1  0  0  0  0
 11 12  2  0  0  0  0
 11 13  1  0  0  0  0
 13 14  1  0  0  0  0
 13 15  1  0  0  0  0
 13 30  1  1  0  0  0
 14 46  1  0  0  0  0
 14 47  1  0  0  0  0
 14 48  1  0  0  0  0
 15 16  1  0  0  0  0
 15 49  1  0  0  0  0
 16 17  2  0  0  0  0
 16 18  1  0  0  0  0
 18 19  1  0  0  0  0
 18 20  1  0  0  0  0
 18 31  1  1  0  0  0
 19 50  1  0  0  0  0
 20 21  1  0  0  0  0
 20 22  1  0  0  0  0
 20 32  1  1  0  0  0
 21 51  1  0  0  0  0
 21 52  1  0  0  0  0
 22 23  2  0  0  0  0
 22 28  1  0  0  0  0
 23 24  1  0  0  0  0
 23 53  1  0  0  0  0
 24 25  2  0  0  0  0
 24 54  1  0  0  0  0
 25 26  1  0  0  0  0
 25 27  1  0  0  0  0
 26 55  1  0  0  0  0
 26 56  1  0  0  0  0
 26 57  1  0  0  0  0
 27 28  2  0  0  0  0
 27 58  1  0  0  0  0
 28 59  1  0  0  0  0
M  END
>  <DRUGBANK_ID>
DB08669

>  <COMMON_NAME>
METHYL N-[(2S,3R)-3-AMINO-2-HYDROXY-3-(4-METHYLPHENYL)PROPANOYL]-D-ALANYL-D-LEUCINATE

$$$$
