
 OpenBabel10282417072D

 44 47  0  0  0  0  0  0  0  0999 V2000
    0.1138   -0.9052    0.0000 N   0  0  0  0  0  0  0  0  0  0  0  0
    0.1138   -1.7309    0.0000 C   0  0  0  0  0  0  0  0  0  0  0  0
    0.8258   -2.1375    0.0000 N   0  0  0  0  0  0  0  0  0  0  0  0
    1.5345   -1.7309    0.0000 C   0  0  0  0  0  0  0  0  0  0  0  0
    2.2433   -2.1423    0.0000 N   0  0  0  0  0  0  0  0  0  0  0  0
    2.9601   -1.7368    0.0000 N   0  0  0  0  0  0  0  0  0  0  0  0
    2.9636   -0.9112    0.0000 C   0  0  0  0  0  0  0  0  0  0  0  0
    0.8258   -0.4860    0.0000 C   0  0  0  0  0  0  0  0  0  0  0  0
    1.5372   -0.8993    0.0000 C   0  0  0  0  0  0  0  0  0  0  0  0
    2.2479   -0.4933    0.0000 C   0  0  0  0  0  0  0  0  0  0  0  0
    1.8156    0.4042    0.0000 C   0  0  0  0  0  0  0  0  0  0  0  0
    0.9980    0.3179    0.0000 N   0  0  0  0  0  0  0  0  0  0  0  0
    3.6838   -0.4985    0.0000 N   0  0  0  0  0  0  0  0  0  0  0  0
    2.2385   -2.9681    0.0000 C   0  0  0  0  0  0  0  0  0  0  0  0
    0.4429    0.9307    0.0000 C   0  0  1  0  0  0  0  0  0  0  0  0
    0.6153    1.7358    0.0000 C   0  0  1  0  0  0  0  0  0  0  0  0
   -0.0992    2.1470    0.0000 C   0  0  1  0  0  0  0  0  0  0  0  0
   -0.7120    1.5959    0.0000 C   0  0  2  0  0  0  0  0  0  0  0  0
   -0.3787    0.8419    0.0000 O   0  0  0  0  0  0  0  0  0  0  0  0
   -1.5195    1.7686    0.0000 C   0  0  0  0  0  0  0  0  0  0  0  0
   -2.0749    1.1563    0.0000 O   0  0  0  0  0  0  0  0  0  0  0  0
    1.3693    2.0733    0.0000 O   0  0  0  0  0  0  0  0  0  0  0  0
   -0.1856    2.9681    0.0000 O   0  0  0  0  0  0  0  0  0  0  0  0
   -2.8825    1.3249    0.0000 P   0  0  0  0  0  0  0  0  0  0  0  0
   -3.6838    1.5468    0.0000 O   0  0  0  0  0  0  0  0  0  0  0  0
   -3.0752    0.5228    0.0000 O   0  0  0  0  0  0  0  0  0  0  0  0
   -2.6802    2.1256    0.0000 O   0  0  0  0  0  0  0  0  0  0  0  0
   -0.7787   -2.2490    0.0000 H   0  0  0  0  0  0  0  0  0  0  0  0
    2.3179    1.3057    0.0000 H   0  0  0  0  0  0  0  0  0  0  0  0
    4.5348   -0.9935    0.0000 H   0  0  0  0  0  0  0  0  0  0  0  0
    3.6870    0.4860    0.0000 H   0  0  0  0  0  0  0  0  0  0  0  0
    1.3088   -3.4977    0.0000 H   0  0  0  0  0  0  0  0  0  0  0  0
    3.1620   -3.5085    0.0000 H   0  0  0  0  0  0  0  0  0  0  0  0
    2.2323   -4.0381    0.0000 H   0  0  0  0  0  0  0  0  0  0  0  0
    1.4762    1.2084    0.0000 H   0  0  0  0  0  0  0  0  0  0  0  0
    1.4470    1.0626    0.0000 H   0  0  0  0  0  0  0  0  0  0  0  0
    0.7977    2.7304    0.0000 H   0  0  0  0  0  0  0  0  0  0  0  0
   -0.9880    2.6297    0.0000 H   0  0  0  0  0  0  0  0  0  0  0  0
   -1.8476    2.7870    0.0000 H   0  0  0  0  0  0  0  0  0  0  0  0
   -2.5654    1.9943    0.0000 H   0  0  0  0  0  0  0  0  0  0  0  0
    2.1552    1.5047    0.0000 H   0  0  0  0  0  0  0  0  0  0  0  0
    0.5991    3.5383    0.0000 H   0  0  0  0  0  0  0  0  0  0  0  0
   -3.9270    2.4858    0.0000 H   0  0  0  0  0  0  0  0  0  0  0  0
   -1.7469    2.3900    0.0000 H   0  0  0  0  0  0  0  0  0  0  0  0
  1  2  2  0  0  0  0
  1  8  1  0  0  0  0
  2  3  1  0  0  0  0
  2 28  1  0  0  0  0
  3  4  2  0  0  0  0
  4  5  1  0  0  0  0
  5 14  1  0  0  0  0
  5  6  1  0  0  0  0
  6  7  2  0  0  0  0
  7 13  1  0  0  0  0
  7 10  1  0  0  0  0
  8  9  2  0  0  0  0
  9  4  1  0  0  0  0
  9 10  1  0  0  0  0
 10 11  2  0  0  0  0
 11 12  1  0  0  0  0
 11 29  1  0  0  0  0
 12  8  1  0  0  0  0
 13 30  1  0  0  0  0
 13 31  1  0  0  0  0
 14 32  1  0  0  0  0
 14 33  1  0  0  0  0
 14 34  1  0  0  0  0
 15 12  1  0  0  0  0
 15 16  1  0  0  0  0
 15 35  1  1  0  0  0
 16 17  1  0  0  0  0
 16 22  1  0  0  0  0
 16 36  1  6  0  0  0
 17 18  1  0  0  0  0
 17 23  1  0  0  0  0
 17 37  1  6  0  0  0
 18 19  1  0  0  0  0
 18 20  1  0  0  0  0
 18 38  1  1  0  0  0
 19 15  1  0  0  0  0
 20 21  1  0  0  0  0
 20 39  1  0  0  0  0
 20 40  1  0  0  0  0
 21 24  1  0  0  0  0
 22 41  1  0  0  0  0
 23 42  1  0  0  0  0
 24 25  1  0  0  0  0
 24 26  2  0  0  0  0
 24 27  1  0  0  0  0
 25 43  1  0  0  0  0
 27 44  1  0  0  0  0
M  END
>  <DRUGBANK_ID>
DB14636

>  <SECONDARY_ACCESSION_NUMBERS>
DBSALT002190

>  <COMMON_NAME>
Triciribine phosphate

>  <CAS_NUMBER>
61966-08-3

>  <UNII>
5L5GE3DV88

>  <SYNONYMS>
3-AMINO-1,5-DIHYDRO-5-METHYL-1-.BETA.-D-RIBOFURANOSYL-1,4,5,6,8-PENTAAZAACENAPHTHYLENE 5'-(DIHYDROGEN PHOSPHATE); Pentaazaacenaphthylene-5' phosphate ester; TCN-P; Triciribine phosphate

$$$$
