J54
 OpenBabel10282417072D

 31 31  0  0  0  0  0  0  0  0999 V2000
   -3.6747   -0.0296    0.0000 O   0  0  0  0  0  0  0  0  0  0  0  0
   -2.9602    0.3829    0.0000 C   0  0  0  0  0  0  0  0  0  0  0  0
   -2.2457   -0.0296    0.0000 C   0  0  2  0  0  0  0  0  0  0  0  0
   -2.2457   -0.8546    0.0000 O   0  0  0  0  0  0  0  0  0  0  0  0
   -1.5312    0.3829    0.0000 C   0  0  0  0  0  0  0  0  0  0  0  0
   -0.8168   -0.0296    0.0000 N   0  0  0  0  0  0  0  0  0  0  0  0
   -0.1023    0.3829    0.0000 C   0  0  0  0  0  0  0  0  0  0  0  0
   -0.1023    1.2079    0.0000 O   0  0  0  0  0  0  0  0  0  0  0  0
    0.6122   -0.0296    0.0000 N   0  0  0  0  0  0  0  0  0  0  0  0
    1.3266    0.3829    0.0000 C   0  0  0  0  0  0  0  0  0  0  0  0
    2.0411   -0.0296    0.0000 C   0  0  0  0  0  0  0  0  0  0  0  0
    2.7556    0.3829    0.0000 C   0  0  0  0  0  0  0  0  0  0  0  0
    3.4701   -0.0296    0.0000 C   0  0  0  0  0  0  0  0  0  0  0  0
    3.4701   -0.8546    0.0000 C   0  0  0  0  0  0  0  0  0  0  0  0
    2.7556   -1.2671    0.0000 C   0  0  0  0  0  0  0  0  0  0  0  0
    2.0411   -0.8546    0.0000 C   0  0  0  0  0  0  0  0  0  0  0  0
   -2.9602    1.2079    0.0000 O   0  0  0  0  0  0  0  0  0  0  0  0
   -2.7514   -0.3215    0.0000 H   0  0  0  0  0  0  0  0  0  0  0  0
   -3.0857   -1.3396    0.0000 H   0  0  0  0  0  0  0  0  0  0  0  0
   -1.5312    1.4529    0.0000 H   0  0  0  0  0  0  0  0  0  0  0  0
   -0.6045    0.9179    0.0000 H   0  0  0  0  0  0  0  0  0  0  0  0
   -0.8168   -1.0141    0.0000 H   0  0  0  0  0  0  0  0  0  0  0  0
    0.6122   -1.0141    0.0000 H   0  0  0  0  0  0  0  0  0  0  0  0
    1.3266    1.4529    0.0000 H   0  0  0  0  0  0  0  0  0  0  0  0
    2.2532    0.9179    0.0000 H   0  0  0  0  0  0  0  0  0  0  0  0
    2.7556    1.4149    0.0000 H   0  0  0  0  0  0  0  0  0  0  0  0
    4.3638    0.4864    0.0000 H   0  0  0  0  0  0  0  0  0  0  0  0
    4.3638   -1.3706    0.0000 H   0  0  0  0  0  0  0  0  0  0  0  0
    2.7556   -2.2991    0.0000 H   0  0  0  0  0  0  0  0  0  0  0  0
    1.1474   -1.3706    0.0000 H   0  0  0  0  0  0  0  0  0  0  0  0
   -2.1487    1.6764    0.0000 H   0  0  0  0  0  0  0  0  0  0  0  0
  1  2  2  0  0  0  0
  2  3  1  0  0  0  0
  2 17  1  0  0  0  0
  3  4  1  0  0  0  0
  3  5  1  0  0  0  0
  3 18  1  6  0  0  0
  4 19  1  0  0  0  0
  5  6  1  0  0  0  0
  5 20  1  0  0  0  0
  5 21  1  0  0  0  0
  6  7  1  0  0  0  0
  6 22  1  0  0  0  0
  7  8  2  0  0  0  0
  7  9  1  0  0  0  0
  9 10  1  0  0  0  0
  9 23  1  0  0  0  0
 10 11  1  0  0  0  0
 10 24  1  0  0  0  0
 10 25  1  0  0  0  0
 11 12  1  0  0  0  0
 11 16  2  0  0  0  0
 12 13  2  0  0  0  0
 12 26  1  0  0  0  0
 13 14  1  0  0  0  0
 13 27  1  0  0  0  0
 14 15  2  0  0  0  0
 14 28  1  0  0  0  0
 15 16  1  0  0  0  0
 15 29  1  0  0  0  0
 16 30  1  0  0  0  0
 17 31  1  0  0  0  0
M  END
>  <DRUGBANK_ID>
DB08007

>  <COMMON_NAME>
(2R)-3-{[(BENZYLAMINO)CARBONYL]AMINO}-2-HYDROXYPROPANOIC ACID

$$$$
