
 OpenBabel10282417072D

 31 32  0  0  1  0  0  0  0  0999 V2000
    0.0000    0.0000    0.0000 O   0  0  0  0  0  0  0  0  0  0  0  0
    0.7145   -0.4125    0.0000 C   0  0  0  0  0  0  0  0  0  0  0  0
    0.7145   -1.2375    0.0000 C   0  0  1  0  0  0  0  0  0  0  0  0
    1.3819   -1.7224    0.0000 O   0  0  0  0  0  0  0  0  0  0  0  0
    1.1270   -2.5070    0.0000 C   0  0  2  0  0  0  0  0  0  0  0  0
    0.3020   -2.5070    0.0000 C   0  0  2  0  0  0  0  0  0  0  0  0
   -0.1830   -3.1745    0.0000 O   0  0  0  0  0  0  0  0  0  0  0  0
    0.0470   -1.7224    0.0000 C   0  0  2  0  0  0  0  0  0  0  0  0
   -0.7376   -1.4675    0.0000 O   0  0  0  0  0  0  0  0  0  0  0  0
    1.6119   -3.1745    0.0000 N   0  0  0  0  0  0  0  0  0  0  0  0
    2.4324   -3.0882    0.0000 C   0  0  0  0  0  0  0  0  0  0  0  0
    2.9173   -3.7557    0.0000 C   0  0  0  0  0  0  0  0  0  0  0  0
    2.5817   -4.5094    0.0000 C   0  0  0  0  0  0  0  0  0  0  0  0
    3.0667   -5.1768    0.0000 O   0  0  0  0  0  0  0  0  0  0  0  0
    1.7613   -4.5956    0.0000 N   0  0  0  0  0  0  0  0  0  0  0  0
    1.2763   -3.9282    0.0000 C   0  0  0  0  0  0  0  0  0  0  0  0
    0.4559   -4.0144    0.0000 O   0  0  0  0  0  0  0  0  0  0  0  0
   -0.0000    0.9700    0.0000 H   0  0  0  0  0  0  0  0  0  0  0  0
    1.6411    0.1225    0.0000 H   0  0  0  0  0  0  0  0  0  0  0  0
    1.6411   -0.9475    0.0000 H   0  0  0  0  0  0  0  0  0  0  0  0
    1.6679   -0.7517    0.0000 H   0  0  0  0  0  0  0  0  0  0  0  0
    2.1838   -2.3396    0.0000 H   0  0  0  0  0  0  0  0  0  0  0  0
    0.7878   -3.4604    0.0000 H   0  0  0  0  0  0  0  0  0  0  0  0
   -1.1477   -3.0731    0.0000 H   0  0  0  0  0  0  0  0  0  0  0  0
   -0.7096   -2.4790    0.0000 H   0  0  0  0  0  0  0  0  0  0  0  0
   -0.9393   -0.5187    0.0000 H   0  0  0  0  0  0  0  0  0  0  0  0
    2.8676   -2.1107    0.0000 H   0  0  0  0  0  0  0  0  0  0  0  0
    3.4965   -2.9764    0.0000 H   0  0  0  0  0  0  0  0  0  0  0  0
    3.9814   -3.6439    0.0000 H   0  0  0  0  0  0  0  0  0  0  0  0
    3.5462   -4.6214    0.0000 H   0  0  0  0  0  0  0  0  0  0  0  0
    1.3609   -5.4950    0.0000 H   0  0  0  0  0  0  0  0  0  0  0  0
  1  2  1  0  0  0  0
  1 18  1  0  0  0  0
  2 19  1  0  0  0  0
  2 20  1  0  0  0  0
  3  2  1  0  0  0  0
  3  4  1  0  0  0  0
  3 21  1  6  0  0  0
  5  4  1  0  0  0  0
  5 10  1  0  0  0  0
  5 22  1  6  0  0  0
  6  5  1  0  0  0  0
  6  7  1  0  0  0  0
  6  8  1  0  0  0  0
  6 23  1  1  0  0  0
  7 24  1  0  0  0  0
  8  3  1  0  0  0  0
  8  9  1  0  0  0  0
  8 25  1  1  0  0  0
  9 26  1  0  0  0  0
 10 11  1  0  0  0  0
 10 16  1  0  0  0  0
 11 12  1  0  0  0  0
 11 27  1  0  0  0  0
 11 28  1  0  0  0  0
 12 13  1  0  0  0  0
 12 29  1  0  0  0  0
 12 30  1  0  0  0  0
 13 14  2  0  0  0  0
 13 15  1  0  0  0  0
 15 16  1  0  0  0  0
 15 31  1  0  0  0  0
 16 17  2  0  0  0  0
M  END
>  <DRUGBANK_ID>
DB17822

>  <COMMON_NAME>
Dihydrouridine

>  <CAS_NUMBER>
5627-05-4

>  <UNII>
0D5FR359JO

>  <SYNONYMS>
1-[(2R,3R,4S,5R)-3,4-dihydroxy-5-(hydroxymethyl)oxolan-2-yl]-1,3-diazinane-2,4-dione; 2,4(1h,3h)-pyrimidinedione, dihydro-1-.beta.-d-ribofuranosyl-; 5,6-dihydrouridine; Hydrouracil, 1-.beta.-d-ribofuranosyl-; Uridine, 5,6-dihydro-

$$$$
