
 OpenBabel10282417072D

 39 42  0  0  0  0  0  0  0  0999 V2000
    3.3523    1.1104    0.0000 C   0  0  0  0  0  0  0  0  0  0  0  0
    3.3523    1.9354    0.0000 C   0  0  0  0  0  0  0  0  0  0  0  0
    2.6378    0.6979    0.0000 C   0  0  0  0  0  0  0  0  0  0  0  0
    2.6378    2.3479    0.0000 C   0  0  0  0  0  0  0  0  0  0  0  0
    0.9894   -0.5656    0.0000 C   0  0  0  0  0  0  0  0  0  0  0  0
    2.2948    0.0156    0.0000 C   0  0  0  0  0  0  0  0  0  0  0  0
   -0.2902    0.8555    0.0000 C   0  0  0  0  0  0  0  0  0  0  0  0
    0.4243   -0.3820    0.0000 C   0  0  0  0  0  0  0  0  0  0  0  0
    1.3249   -1.3193    0.0000 C   0  0  0  0  0  0  0  0  0  0  0  0
    2.6303   -0.7381    0.0000 C   0  0  0  0  0  0  0  0  0  0  0  0
   -1.0047    0.4430    0.0000 C   0  0  0  0  0  0  0  0  0  0  0  0
   -0.2902   -0.7945    0.0000 C   0  0  0  0  0  0  0  0  0  0  0  0
    1.4743    0.1018    0.0000 C   0  0  0  0  0  0  0  0  0  0  0  0
    0.4243    0.4430    0.0000 C   0  0  0  0  0  0  0  0  0  0  0  0
    2.1454   -1.4055    0.0000 C   0  0  0  0  0  0  0  0  0  0  0  0
   -1.0047   -0.3820    0.0000 C   0  0  0  0  0  0  0  0  0  0  0  0
    1.9233    1.1104    0.0000 C   0  0  0  0  0  0  0  0  0  0  0  0
    1.9233    1.9354    0.0000 C   0  0  0  0  0  0  0  0  0  0  0  0
    1.1387    0.8555    0.0000 C   0  0  0  0  0  0  0  0  0  0  0  0
    2.4810   -2.1592    0.0000 O   0  0  0  0  0  0  0  0  0  0  0  0
   -1.7192   -0.7945    0.0000 O   0  0  0  0  0  0  0  0  0  0  0  0
    1.4743    2.9441    0.0000 O   0  0  0  0  0  0  0  0  0  0  0  0
    0.4243    2.6029    0.0000 O   0  0  0  0  0  0  0  0  0  0  0  0
    0.6538    1.5229    0.0000 O   0  0  0  0  0  0  0  0  0  0  0  0
    1.1387    2.1904    0.0000 S   0  0  0  0  0  0  0  0  0  0  0  0
    4.2460    0.5944    0.0000 H   0  0  0  0  0  0  0  0  0  0  0  0
    4.2460    2.4514    0.0000 H   0  0  0  0  0  0  0  0  0  0  0  0
    2.6378   -0.3341    0.0000 H   0  0  0  0  0  0  0  0  0  0  0  0
    2.6378    3.3799    0.0000 H   0  0  0  0  0  0  0  0  0  0  0  0
   -0.0369   -0.4577    0.0000 H   0  0  0  0  0  0  0  0  0  0  0  0
    2.9014    0.8505    0.0000 H   0  0  0  0  0  0  0  0  0  0  0  0
   -0.2902    1.8875    0.0000 H   0  0  0  0  0  0  0  0  0  0  0  0
    1.3180   -0.8980    0.0000 H   0  0  0  0  0  0  0  0  0  0  0  0
    0.7183   -2.1542    0.0000 H   0  0  0  0  0  0  0  0  0  0  0  0
    3.6566   -0.8460    0.0000 H   0  0  0  0  0  0  0  0  0  0  0  0
   -1.8984    0.9590    0.0000 H   0  0  0  0  0  0  0  0  0  0  0  0
   -0.2902   -1.8265    0.0000 H   0  0  0  0  0  0  0  0  0  0  0  0
    1.9303   -2.9173    0.0000 H   0  0  0  0  0  0  0  0  0  0  0  0
   -2.5307   -0.3260    0.0000 H   0  0  0  0  0  0  0  0  0  0  0  0
  1 26  1  0  0  0  0
  2  1  2  0  0  0  0
  2 27  1  0  0  0  0
  3  1  1  0  0  0  0
  3 28  1  0  0  0  0
  4  2  1  0  0  0  0
  4 29  1  0  0  0  0
  5 30  1  0  0  0  0
  6 31  1  0  0  0  0
  7 32  1  0  0  0  0
  8 33  1  0  0  0  0
  9  5  1  0  0  0  0
  9 34  1  0  0  0  0
 10  6  2  0  0  0  0
 10 35  1  0  0  0  0
 11  7  1  0  0  0  0
 11 36  1  0  0  0  0
 12  8  2  0  0  0  0
 12 37  1  0  0  0  0
 13  5  2  0  0  0  0
 13  6  1  0  0  0  0
 14  7  2  0  0  0  0
 14  8  1  0  0  0  0
 15  9  2  0  0  0  0
 15 10  1  0  0  0  0
 16 11  2  0  0  0  0
 16 12  1  0  0  0  0
 17  3  2  0  0  0  0
 18  4  2  0  0  0  0
 18 17  1  0  0  0  0
 19 13  1  0  0  0  0
 19 14  1  0  0  0  0
 19 17  1  0  0  0  0
 20 15  1  0  0  0  0
 20 38  1  0  0  0  0
 21 16  1  0  0  0  0
 21 39  1  0  0  0  0
 24 19  1  0  0  0  0
 25 18  1  0  0  0  0
 25 22  2  0  0  0  0
 25 23  2  0  0  0  0
 25 24  1  0  0  0  0
M  END
>  <DRUGBANK_ID>
DB13212

>  <COMMON_NAME>
Phenolsulfonphthalein

>  <CAS_NUMBER>
143-74-8

>  <UNII>
I6G9Y0J1OJ

>  <SYNONYMS>
Phenolsulfonphthalein

$$$$
