
 OpenBabel10282417072D

 52 54  0  0  1  0  0  0  0  0999 V2000
   15.1628  -10.5298    0.0000 C   0  0  0  0  0  0  0  0  0  0  0  0
   15.1628  -11.3548    0.0000 C   0  0  0  0  0  0  0  0  0  0  0  0
   15.8772  -11.7673    0.0000 C   0  0  0  0  0  0  0  0  0  0  0  0
   16.5918  -11.3548    0.0000 C   0  0  0  0  0  0  0  0  0  0  0  0
   16.5918  -10.5298    0.0000 C   0  0  0  0  0  0  0  0  0  0  0  0
   15.8772  -10.1173    0.0000 C   0  0  0  0  0  0  0  0  0  0  0  0
   17.3062  -11.7673    0.0000 N   0  0  0  0  0  0  0  0  0  0  0  0
   18.0207  -11.3548    0.0000 C   0  0  0  0  0  0  0  0  0  0  0  0
   18.0207  -10.5298    0.0000 C   0  0  0  0  0  0  0  0  0  0  0  0
   17.3062  -10.1173    0.0000 N   0  0  0  0  0  0  0  0  0  0  0  0
   18.7352  -11.7673    0.0000 N   0  0  0  0  0  0  0  0  0  0  0  0
   19.4496  -11.3548    0.0000 C   0  0  0  0  0  0  0  0  0  0  0  0
   19.4496  -10.5298    0.0000 N   0  0  0  0  0  0  0  0  0  0  0  0
   18.7352  -10.1173    0.0000 C   0  0  0  0  0  0  0  0  0  0  0  0
   14.4483  -10.1173    0.0000 C   0  0  0  0  0  0  0  0  0  0  0  0
   14.4483  -11.7673    0.0000 C   0  0  0  0  0  0  0  0  0  0  0  0
   20.1641  -11.7673    0.0000 O   0  0  0  0  0  0  0  0  0  0  0  0
   18.7352   -9.2923    0.0000 O   0  0  0  0  0  0  0  0  0  0  0  0
   17.3062  -12.5923    0.0000 C   0  0  0  0  0  0  0  0  0  0  0  0
   16.5918  -13.0048    0.0000 C   0  0  2  0  0  0  0  0  0  0  0  0
   15.8772  -12.5923    0.0000 O   0  0  0  0  0  0  0  0  0  0  0  0
   16.5918  -13.8299    0.0000 C   0  0  2  0  0  0  0  0  0  0  0  0
   17.3062  -14.2424    0.0000 O   0  0  0  0  0  0  0  0  0  0  0  0
   15.8772  -14.2424    0.0000 C   0  0  1  0  0  0  0  0  0  0  0  0
   15.1628  -13.8299    0.0000 C   0  0  0  0  0  0  0  0  0  0  0  0
   14.4483  -14.2424    0.0000 O   0  0  0  0  0  0  0  0  0  0  0  0
   15.8772  -15.0674    0.0000 O   0  0  0  0  0  0  0  0  0  0  0  0
   13.7338  -13.8299    0.0000 P   0  0  0  0  0  0  0  0  0  0  0  0
   13.0194  -14.2424    0.0000 O   0  0  0  0  0  0  0  0  0  0  0  0
   13.7338  -13.0048    0.0000 O   0  0  0  0  0  0  0  0  0  0  0  0
   14.4483  -13.4173    0.0000 O   0  0  0  0  0  0  0  0  0  0  0  0
   15.8771  -12.7993    0.0000 H   0  0  0  0  0  0  0  0  0  0  0  0
   15.8771   -9.0853    0.0000 H   0  0  0  0  0  0  0  0  0  0  0  0
   20.3022  -10.0376    0.0000 H   0  0  0  0  0  0  0  0  0  0  0  0
   14.4483   -9.0473    0.0000 H   0  0  0  0  0  0  0  0  0  0  0  0
   13.5217  -10.6523    0.0000 H   0  0  0  0  0  0  0  0  0  0  0  0
   13.5216   -9.5823    0.0000 H   0  0  0  0  0  0  0  0  0  0  0  0
   13.5217  -11.2323    0.0000 H   0  0  0  0  0  0  0  0  0  0  0  0
   14.4483  -12.8373    0.0000 H   0  0  0  0  0  0  0  0  0  0  0  0
   13.5216  -12.3023    0.0000 H   0  0  0  0  0  0  0  0  0  0  0  0
   18.2329  -13.1273    0.0000 H   0  0  0  0  0  0  0  0  0  0  0  0
   17.3062  -13.6623    0.0000 H   0  0  0  0  0  0  0  0  0  0  0  0
   16.5917  -11.9348    0.0000 H   0  0  0  0  0  0  0  0  0  0  0  0
   15.8771  -11.6223    0.0000 H   0  0  0  0  0  0  0  0  0  0  0  0
   17.5185  -13.2949    0.0000 H   0  0  0  0  0  0  0  0  0  0  0  0
   17.3062  -15.2124    0.0000 H   0  0  0  0  0  0  0  0  0  0  0  0
   16.8038  -14.7774    0.0000 H   0  0  0  0  0  0  0  0  0  0  0  0
   15.1628  -12.7599    0.0000 H   0  0  0  0  0  0  0  0  0  0  0  0
   14.2362  -13.2949    0.0000 H   0  0  0  0  0  0  0  0  0  0  0  0
   15.0372  -15.5524    0.0000 H   0  0  0  0  0  0  0  0  0  0  0  0
   12.1793  -13.7574    0.0000 H   0  0  0  0  0  0  0  0  0  0  0  0
   14.5738  -12.5198    0.0000 H   0  0  0  0  0  0  0  0  0  0  0  0
  1  2  1  0  0  0  0
  1 15  1  0  0  0  0
  2  3  2  0  0  0  0
  2 16  1  0  0  0  0
  3  4  1  0  0  0  0
  3 32  1  0  0  0  0
  4  5  2  0  0  0  0
  4  7  1  0  0  0  0
  5  6  1  0  0  0  0
  6  1  2  0  0  0  0
  6 33  1  0  0  0  0
  7  8  1  0  0  0  0
  7 19  1  0  0  0  0
  8  9  1  0  0  0  0
  8 11  2  0  0  0  0
  9 10  2  0  0  0  0
 10  5  1  0  0  0  0
 11 12  1  0  0  0  0
 12 13  1  0  0  0  0
 12 17  2  0  0  0  0
 13 14  1  0  0  0  0
 13 34  1  0  0  0  0
 14  9  1  0  0  0  0
 14 18  2  0  0  0  0
 15 35  1  0  0  0  0
 15 36  1  0  0  0  0
 15 37  1  0  0  0  0
 16 38  1  0  0  0  0
 16 39  1  0  0  0  0
 16 40  1  0  0  0  0
 19 20  1  0  0  0  0
 19 41  1  0  0  0  0
 19 42  1  0  0  0  0
 20 21  1  0  0  0  0
 20 22  1  0  0  0  0
 20 43  1  6  0  0  0
 21 44  1  0  0  0  0
 22 23  1  0  0  0  0
 22 24  1  0  0  0  0
 22 45  1  1  0  0  0
 23 46  1  0  0  0  0
 24 25  1  0  0  0  0
 24 27  1  0  0  0  0
 24 47  1  1  0  0  0
 25 26  1  0  0  0  0
 25 48  1  0  0  0  0
 25 49  1  0  0  0  0
 26 28  1  0  0  0  0
 27 50  1  0  0  0  0
 28 29  1  0  0  0  0
 28 30  1  0  0  0  0
 28 31  2  0  0  0  0
 29 51  1  0  0  0  0
 30 52  1  0  0  0  0
M  END
>  <DRUGBANK_ID>
DB03247

>  <SECONDARY_ACCESSION_NUMBERS>
EXPT01458

>  <COMMON_NAME>
Flavin mononucleotide

>  <CAS_NUMBER>
146-17-8

>  <UNII>
7N464URE7E

>  <SYNONYMS>
FMN; riboflavin 5'-(dihydrogen phosphate); riboflavin 5'-monophosphate; riboflavin 5'-phosphate; Riboflavin monophosphate; Riboflavin phosphate; Riboflavin-5-phosphate; riboflavine dihydrogen phosphate; Vitamin B2 (riboflavin-5-phosphate); Vitamin B2 phosphate

$$$$
