1265
 OpenBabel10282417072D

 31 32  0  0  1  0  0  0  0  0999 V2000
    3.7462   -1.0025    0.0000 O   0  0  0  0  0  0  0  0  0  0  0  0
    2.1814   -2.4546    0.0000 O   0  0  0  0  0  0  0  0  0  0  0  0
    4.7966   -2.3683    0.0000 O   0  0  0  0  0  0  0  0  0  0  0  0
    1.6499    0.3073    0.0000 O   0  0  0  0  0  0  0  0  0  0  0  0
    3.0789    2.7822    0.0000 O   0  0  0  0  0  0  0  0  0  0  0  0
    3.0789    0.3073    0.0000 N   0  0  0  0  0  0  0  0  0  0  0  0
    2.3643    1.5447    0.0000 N   0  0  0  0  0  0  0  0  0  0  0  0
    2.6663   -1.7872    0.0000 C   0  0  2  0  0  0  0  0  0  0  0  0
    3.0789   -0.5177    0.0000 C   0  0  2  0  0  0  0  0  0  0  0  0
    2.4113   -1.0025    0.0000 C   0  0  0  0  0  0  0  0  0  0  0  0
    3.4913   -1.7872    0.0000 C   0  0  2  0  0  0  0  0  0  0  0  0
    3.9761   -2.4546    0.0000 C   0  0  0  0  0  0  0  0  0  0  0  0
    3.7932    0.7197    0.0000 C   0  0  0  0  0  0  0  0  0  0  0  0
    2.3643    0.7197    0.0000 C   0  0  0  0  0  0  0  0  0  0  0  0
    3.7932    1.5447    0.0000 C   0  0  0  0  0  0  0  0  0  0  0  0
    3.0789    1.9573    0.0000 C   0  0  0  0  0  0  0  0  0  0  0  0
    4.5077    1.9573    0.0000 C   0  0  0  0  0  0  0  0  0  0  0  0
    1.2167   -2.3532    0.0000 H   0  0  0  0  0  0  0  0  0  0  0  0
    5.3668   -3.1530    0.0000 H   0  0  0  0  0  0  0  0  0  0  0  0
    1.5117    2.0369    0.0000 H   0  0  0  0  0  0  0  0  0  0  0  0
    1.6095   -1.6198    0.0000 H   0  0  0  0  0  0  0  0  0  0  0  0
    4.0323   -0.0319    0.0000 H   0  0  0  0  0  0  0  0  0  0  0  0
    1.3937   -0.6718    0.0000 H   0  0  0  0  0  0  0  0  0  0  0  0
    2.2441    0.0544    0.0000 H   0  0  0  0  0  0  0  0  0  0  0  0
    4.5481   -1.6198    0.0000 H   0  0  0  0  0  0  0  0  0  0  0  0
    3.5409   -3.4321    0.0000 H   0  0  0  0  0  0  0  0  0  0  0  0
    2.9120   -2.5664    0.0000 H   0  0  0  0  0  0  0  0  0  0  0  0
    4.6869    0.2037    0.0000 H   0  0  0  0  0  0  0  0  0  0  0  0
    5.4344    1.4224    0.0000 H   0  0  0  0  0  0  0  0  0  0  0  0
    4.5076    3.0273    0.0000 H   0  0  0  0  0  0  0  0  0  0  0  0
    5.4343    2.4924    0.0000 H   0  0  0  0  0  0  0  0  0  0  0  0
  1  9  1  0  0  0  0
  1 11  1  0  0  0  0
  2 18  1  0  0  0  0
  3 12  1  0  0  0  0
  3 19  1  0  0  0  0
  4 14  2  0  0  0  0
  5 16  2  0  0  0  0
  6 13  1  0  0  0  0
  6 14  1  0  0  0  0
  7 14  1  0  0  0  0
  7 16  1  0  0  0  0
  7 20  1  0  0  0  0
  8  2  1  0  0  0  0
  8 10  1  0  0  0  0
  8 11  1  0  0  0  0
  8 21  1  1  0  0  0
  9  6  1  0  0  0  0
  9 10  1  0  0  0  0
  9 22  1  6  0  0  0
 10 23  1  0  0  0  0
 10 24  1  0  0  0  0
 11 12  1  0  0  0  0
 11 25  1  6  0  0  0
 12 26  1  0  0  0  0
 12 27  1  0  0  0  0
 13 15  2  0  0  0  0
 13 28  1  0  0  0  0
 15 16  1  0  0  0  0
 15 17  1  0  0  0  0
 17 29  1  0  0  0  0
 17 30  1  0  0  0  0
 17 31  1  0  0  0  0
M  END
>  <DRUGBANK_ID>
DB01265

>  <COMMON_NAME>
Telbivudine

>  <CAS_NUMBER>
3424-98-4

>  <UNII>
2OC4HKD3SF

>  <SYNONYMS>
1-(2-deoxy-β-L-ribofuranosyl)-5-methyluracil; 2'-Deoxy-L-thymidine; Beta-l-thymidine; Epavudine; L-deoxythymidine; L-DT; L-thymidine; LDT; Telbivudin; Telbivudina; Telbivudine; β-L-2'-deoxythymidine

$$$$
