
 OpenBabel10282417072D

 40 40  0  0  0  0  0  0  0  0999 V2000
   -0.7143    0.4081    0.0000 C   0  0  0  0  0  0  0  0  0  0  0  0
    0.0000    0.8207    0.0000 C   0  0  0  0  0  0  0  0  0  0  0  0
   -0.7143   -0.4080    0.0000 C   0  0  0  0  0  0  0  0  0  0  0  0
    0.7143    0.4081    0.0000 C   0  0  0  0  0  0  0  0  0  0  0  0
    0.0000    1.6479    0.0000 O   0  0  0  0  0  0  0  0  0  0  0  0
    0.0000   -0.8208    0.0000 C   0  0  0  0  0  0  0  0  0  0  0  0
    0.7143   -0.4080    0.0000 C   0  0  0  0  0  0  0  0  0  0  0  0
    0.0000   -1.6479    0.0000 C   0  0  0  0  0  0  0  0  0  0  0  0
   -1.4268    0.8207    0.0000 C   0  0  0  0  0  0  0  0  0  0  0  0
    1.4268    0.8207    0.0000 C   0  0  0  0  0  0  0  0  0  0  0  0
    1.0786    1.5723    0.0000 C   0  0  0  0  0  0  0  0  0  0  0  0
    1.9065    0.1433    0.0000 C   0  0  0  0  0  0  0  0  0  0  0  0
    2.1449    1.2343    0.0000 C   0  0  0  0  0  0  0  0  0  0  0  0
   -1.0786    1.5723    0.0000 C   0  0  0  0  0  0  0  0  0  0  0  0
   -2.1449    1.2343    0.0000 C   0  0  0  0  0  0  0  0  0  0  0  0
   -1.9065    0.1433    0.0000 C   0  0  0  0  0  0  0  0  0  0  0  0
   -1.6081   -0.9238    0.0000 H   0  0  0  0  0  0  0  0  0  0  0  0
    0.8115    2.1164    0.0000 H   0  0  0  0  0  0  0  0  0  0  0  0
    1.6081   -0.9238    0.0000 H   0  0  0  0  0  0  0  0  0  0  0  0
   -0.9266   -2.1829    0.0000 H   0  0  0  0  0  0  0  0  0  0  0  0
    0.9266   -2.1829    0.0000 H   0  0  0  0  0  0  0  0  0  0  0  0
    0.0000   -2.7179    0.0000 H   0  0  0  0  0  0  0  0  0  0  0  0
    1.6945    2.4473    0.0000 H   0  0  0  0  0  0  0  0  0  0  0  0
    0.0129    1.6682    0.0000 H   0  0  0  0  0  0  0  0  0  0  0  0
    0.6288    2.5432    0.0000 H   0  0  0  0  0  0  0  0  0  0  0  0
    1.4595   -0.8288    0.0000 H   0  0  0  0  0  0  0  0  0  0  0  0
    2.9719    0.2422    0.0000 H   0  0  0  0  0  0  0  0  0  0  0  0
    2.5249   -0.7299    0.0000 H   0  0  0  0  0  0  0  0  0  0  0  0
    3.0710    0.6983    0.0000 H   0  0  0  0  0  0  0  0  0  0  0  0
    2.1460    2.3043    0.0000 H   0  0  0  0  0  0  0  0  0  0  0  0
    3.0721    1.7683    0.0000 H   0  0  0  0  0  0  0  0  0  0  0  0
   -0.0129    1.6682    0.0000 H   0  0  0  0  0  0  0  0  0  0  0  0
   -1.6945    2.4473    0.0000 H   0  0  0  0  0  0  0  0  0  0  0  0
   -0.6288    2.5432    0.0000 H   0  0  0  0  0  0  0  0  0  0  0  0
   -2.1460    2.3043    0.0000 H   0  0  0  0  0  0  0  0  0  0  0  0
   -3.0710    0.6983    0.0000 H   0  0  0  0  0  0  0  0  0  0  0  0
   -3.0721    1.7683    0.0000 H   0  0  0  0  0  0  0  0  0  0  0  0
   -2.9719    0.2422    0.0000 H   0  0  0  0  0  0  0  0  0  0  0  0
   -1.4595   -0.8288    0.0000 H   0  0  0  0  0  0  0  0  0  0  0  0
   -2.5249   -0.7299    0.0000 H   0  0  0  0  0  0  0  0  0  0  0  0
  1  2  2  0  0  0  0
  1  9  1  0  0  0  0
  1  3  1  0  0  0  0
  2  5  1  0  0  0  0
  2  4  1  0  0  0  0
  3  6  2  0  0  0  0
  3 17  1  0  0  0  0
  4 10  1  0  0  0  0
  4  7  2  0  0  0  0
  5 18  1  0  0  0  0
  6  8  1  0  0  0  0
  6  7  1  0  0  0  0
  7 19  1  0  0  0  0
  8 20  1  0  0  0  0
  8 21  1  0  0  0  0
  8 22  1  0  0  0  0
  9 14  1  0  0  0  0
  9 15  1  0  0  0  0
  9 16  1  0  0  0  0
 10 11  1  0  0  0  0
 10 12  1  0  0  0  0
 10 13  1  0  0  0  0
 11 23  1  0  0  0  0
 11 24  1  0  0  0  0
 11 25  1  0  0  0  0
 12 26  1  0  0  0  0
 12 27  1  0  0  0  0
 12 28  1  0  0  0  0
 13 29  1  0  0  0  0
 13 30  1  0  0  0  0
 13 31  1  0  0  0  0
 14 32  1  0  0  0  0
 14 33  1  0  0  0  0
 14 34  1  0  0  0  0
 15 35  1  0  0  0  0
 15 36  1  0  0  0  0
 15 37  1  0  0  0  0
 16 38  1  0  0  0  0
 16 39  1  0  0  0  0
 16 40  1  0  0  0  0
M  END
>  <DRUGBANK_ID>
DB16863

>  <COMMON_NAME>
Butylated hydroxytoluene

>  <CAS_NUMBER>
128-37-0

>  <UNII>
1P9D0Z171K

>  <SYNONYMS>
BHT; Butylhydroxytoluene

$$$$
