989
 OpenBabel10282417072D

 40 40  0  0  1  0  0  0  0  0999 V2000
    3.0791   -0.6188    0.0000 O   0  0  0  0  0  0  0  0  0  0  0  0
    3.7935   -1.8563    0.0000 O   0  0  0  0  0  0  0  0  0  0  0  0
    5.2224    2.2688    0.0000 N   0  0  0  0  0  0  0  0  0  0  0  0
    2.3645   -1.8563    0.0000 N   0  0  0  0  0  0  0  0  0  0  0  0
    4.5080    1.8563    0.0000 C   0  0  2  0  0  0  0  0  0  0  0  0
    4.5080    1.0313    0.0000 C   0  0  0  0  0  0  0  0  0  0  0  0
    3.7935    2.2688    0.0000 C   0  0  0  0  0  0  0  0  0  0  0  0
    3.7935    0.6188    0.0000 C   0  0  0  0  0  0  0  0  0  0  0  0
    5.2224    0.6188    0.0000 C   0  0  0  0  0  0  0  0  0  0  0  0
    5.2224    3.0938    0.0000 C   0  0  0  0  0  0  0  0  0  0  0  0
    5.9370    1.8563    0.0000 C   0  0  0  0  0  0  0  0  0  0  0  0
    3.7935   -0.2063    0.0000 C   0  0  0  0  0  0  0  0  0  0  0  0
    5.2224   -0.2063    0.0000 C   0  0  0  0  0  0  0  0  0  0  0  0
    4.5080   -0.6188    0.0000 C   0  0  0  0  0  0  0  0  0  0  0  0
    2.3645   -2.6813    0.0000 C   0  0  0  0  0  0  0  0  0  0  0  0
    3.0791   -1.4438    0.0000 C   0  0  0  0  0  0  0  0  0  0  0  0
    1.6500   -1.4438    0.0000 C   0  0  0  0  0  0  0  0  0  0  0  0
    1.6500   -3.0938    0.0000 C   0  0  0  0  0  0  0  0  0  0  0  0
    5.4347    1.3213    0.0000 H   0  0  0  0  0  0  0  0  0  0  0  0
    3.7935    3.3388    0.0000 H   0  0  0  0  0  0  0  0  0  0  0  0
    2.8669    1.7338    0.0000 H   0  0  0  0  0  0  0  0  0  0  0  0
    2.8668    2.8038    0.0000 H   0  0  0  0  0  0  0  0  0  0  0  0
    2.8998    1.1348    0.0000 H   0  0  0  0  0  0  0  0  0  0  0  0
    6.1161    1.1348    0.0000 H   0  0  0  0  0  0  0  0  0  0  0  0
    6.1490    3.6288    0.0000 H   0  0  0  0  0  0  0  0  0  0  0  0
    4.2958    3.6288    0.0000 H   0  0  0  0  0  0  0  0  0  0  0  0
    5.2224    4.1638    0.0000 H   0  0  0  0  0  0  0  0  0  0  0  0
    5.9371    0.7863    0.0000 H   0  0  0  0  0  0  0  0  0  0  0  0
    6.8636    2.3914    0.0000 H   0  0  0  0  0  0  0  0  0  0  0  0
    6.8637    1.3214    0.0000 H   0  0  0  0  0  0  0  0  0  0  0  0
    6.1161   -0.7223    0.0000 H   0  0  0  0  0  0  0  0  0  0  0  0
    4.5080   -1.6508    0.0000 H   0  0  0  0  0  0  0  0  0  0  0  0
    3.2911   -3.2163    0.0000 H   0  0  0  0  0  0  0  0  0  0  0  0
    2.3645   -3.7513    0.0000 H   0  0  0  0  0  0  0  0  0  0  0  0
    1.6500   -0.3738    0.0000 H   0  0  0  0  0  0  0  0  0  0  0  0
    0.7234   -1.9788    0.0000 H   0  0  0  0  0  0  0  0  0  0  0  0
    0.7233   -0.9088    0.0000 H   0  0  0  0  0  0  0  0  0  0  0  0
    0.7234   -2.5588    0.0000 H   0  0  0  0  0  0  0  0  0  0  0  0
    1.6500   -4.1638    0.0000 H   0  0  0  0  0  0  0  0  0  0  0  0
    0.7233   -3.6288    0.0000 H   0  0  0  0  0  0  0  0  0  0  0  0
  1 12  1  0  0  0  0
  1 16  1  0  0  0  0
  2 16  2  0  0  0  0
  3 10  1  0  0  0  0
  3 11  1  0  0  0  0
  4 15  1  0  0  0  0
  4 16  1  0  0  0  0
  4 17  1  0  0  0  0
  5  3  1  0  0  0  0
  5  6  1  0  0  0  0
  5  7  1  0  0  0  0
  5 19  1  1  0  0  0
  6  8  2  0  0  0  0
  6  9  1  0  0  0  0
  7 20  1  0  0  0  0
  7 21  1  0  0  0  0
  7 22  1  0  0  0  0
  8 12  1  0  0  0  0
  8 23  1  0  0  0  0
  9 13  2  0  0  0  0
  9 24  1  0  0  0  0
 10 25  1  0  0  0  0
 10 26  1  0  0  0  0
 10 27  1  0  0  0  0
 11 28  1  0  0  0  0
 11 29  1  0  0  0  0
 11 30  1  0  0  0  0
 12 14  2  0  0  0  0
 13 14  1  0  0  0  0
 13 31  1  0  0  0  0
 14 32  1  0  0  0  0
 15 18  1  0  0  0  0
 15 33  1  0  0  0  0
 15 34  1  0  0  0  0
 17 35  1  0  0  0  0
 17 36  1  0  0  0  0
 17 37  1  0  0  0  0
 18 38  1  0  0  0  0
 18 39  1  0  0  0  0
 18 40  1  0  0  0  0
M  END
>  <DRUGBANK_ID>
DB00989

>  <SECONDARY_ACCESSION_NUMBERS>
APRD00321

>  <COMMON_NAME>
Rivastigmine

>  <CAS_NUMBER>
123441-03-2

>  <UNII>
PKI06M3IW0

>  <SYNONYMS>
(S)-3-(1-(Dimethylamino)ethyl)phenyl ethylmethylcarbamate; m-((S)-1-(Dimethylamino)ethyl)phenyl ethylmethylcarbamate; Rivastigmina; Rivastigmine

$$$$
