
 OpenBabel10282417072D

 52 54  0  0  0  0  0  0  0  0999 V2000
    1.7836    0.0024    0.0000 C   0  0  0  0  0  0  0  0  0  0  0  0
    1.7800    0.8278    0.0000 C   0  0  0  0  0  0  0  0  0  0  0  0
    1.0630    1.2328    0.0000 C   0  0  0  0  0  0  0  0  0  0  0  0
    0.3537    0.8188    0.0000 C   0  0  0  0  0  0  0  0  0  0  0  0
    0.3571   -0.0101    0.0000 C   0  0  0  0  0  0  0  0  0  0  0  0
    1.0748   -0.4157    0.0000 C   0  0  0  0  0  0  0  0  0  0  0  0
    1.7948   -1.6523    0.0000 C   0  0  0  0  0  0  0  0  0  0  0  0
    1.7886   -2.4776    0.0000 C   0  0  0  0  0  0  0  0  0  0  0  0
    2.5009   -2.8912    0.0000 N   0  0  0  0  0  0  0  0  0  0  0  0
    3.2199   -2.4855    0.0000 C   0  0  0  0  0  0  0  0  0  0  0  0
    3.2214   -1.6565    0.0000 N   0  0  0  0  0  0  0  0  0  0  0  0
    2.5085   -1.2424    0.0000 C   0  0  0  0  0  0  0  0  0  0  0  0
    0.3698   -2.4698    0.0000 C   0  0  0  0  0  0  0  0  0  0  0  0
    1.0836   -2.8861    0.0000 C   0  0  0  0  0  0  0  0  0  0  0  0
    1.0796   -1.2417    0.0000 C   0  0  0  0  0  0  0  0  0  0  0  0
    0.3692   -1.6516    0.0000 C   0  0  0  0  0  0  0  0  0  0  0  0
    2.5030   -0.4185    0.0000 N   0  0  0  0  0  0  0  0  0  0  0  0
    1.0561    2.0638    0.0000 C   0  0  0  0  0  0  0  0  0  0  0  0
    1.0561    2.8912    0.0000 C   0  0  0  0  0  0  0  0  0  0  0  0
   -0.3470   -1.2362    0.0000 O   0  0  0  0  0  0  0  0  0  0  0  0
   -1.0680   -1.6427    0.0000 C   0  0  0  0  0  0  0  0  0  0  0  0
   -0.3470   -2.8765    0.0000 O   0  0  0  0  0  0  0  0  0  0  0  0
   -1.0680   -2.4605    0.0000 C   0  0  0  0  0  0  0  0  0  0  0  0
   -1.7842   -2.8719    0.0000 C   0  0  0  0  0  0  0  0  0  0  0  0
   -2.5052   -2.4605    0.0000 O   0  0  0  0  0  0  0  0  0  0  0  0
   -3.2214   -2.8670    0.0000 C   0  0  0  0  0  0  0  0  0  0  0  0
   -1.7842   -1.2314    0.0000 C   0  0  0  0  0  0  0  0  0  0  0  0
   -2.5052   -1.6379    0.0000 O   0  0  0  0  0  0  0  0  0  0  0  0
   -3.2214   -1.2265    0.0000 C   0  0  0  0  0  0  0  0  0  0  0  0
    2.6702    1.3499    0.0000 H   0  0  0  0  0  0  0  0  0  0  0  0
   -0.5423    1.3308    0.0000 H   0  0  0  0  0  0  0  0  0  0  0  0
   -0.5332   -0.5320    0.0000 H   0  0  0  0  0  0  0  0  0  0  0  0
    1.0844   -1.4477    0.0000 H   0  0  0  0  0  0  0  0  0  0  0  0
    4.1106   -3.0067    0.0000 H   0  0  0  0  0  0  0  0  0  0  0  0
    1.0821   -3.9181    0.0000 H   0  0  0  0  0  0  0  0  0  0  0  0
    1.0785   -0.2097    0.0000 H   0  0  0  0  0  0  0  0  0  0  0  0
    3.3554    0.0741    0.0000 H   0  0  0  0  0  0  0  0  0  0  0  0
    1.0561    3.8852    0.0000 H   0  0  0  0  0  0  0  0  0  0  0  0
   -1.0722   -2.7127    0.0000 H   0  0  0  0  0  0  0  0  0  0  0  0
   -1.9951   -2.1769    0.0000 H   0  0  0  0  0  0  0  0  0  0  0  0
   -1.0670   -1.3905    0.0000 H   0  0  0  0  0  0  0  0  0  0  0  0
   -1.9938   -1.9240    0.0000 H   0  0  0  0  0  0  0  0  0  0  0  0
   -1.7827   -3.9419    0.0000 H   0  0  0  0  0  0  0  0  0  0  0  0
   -2.7091   -3.4099    0.0000 H   0  0  0  0  0  0  0  0  0  0  0  0
   -4.1441   -2.3252    0.0000 H   0  0  0  0  0  0  0  0  0  0  0  0
   -3.2293   -3.9370    0.0000 H   0  0  0  0  0  0  0  0  0  0  0  0
   -4.1520   -3.3952    0.0000 H   0  0  0  0  0  0  0  0  0  0  0  0
   -1.7800   -0.1614    0.0000 H   0  0  0  0  0  0  0  0  0  0  0  0
   -2.7070   -0.6898    0.0000 H   0  0  0  0  0  0  0  0  0  0  0  0
   -3.2238   -0.1565    0.0000 H   0  0  0  0  0  0  0  0  0  0  0  0
   -4.1469   -1.7635    0.0000 H   0  0  0  0  0  0  0  0  0  0  0  0
   -4.1492   -0.6935    0.0000 H   0  0  0  0  0  0  0  0  0  0  0  0
  1  2  2  0  0  0  0
  2  3  1  0  0  0  0
  2 30  1  0  0  0  0
  3  4  2  0  0  0  0
  3 18  1  0  0  0  0
  4  5  1  0  0  0  0
  4 31  1  0  0  0  0
  5  6  2  0  0  0  0
  5 32  1  0  0  0  0
  6  1  1  0  0  0  0
  6 33  1  0  0  0  0
  7 15  1  0  0  0  0
  7  8  2  0  0  0  0
  8  9  1  0  0  0  0
  9 10  2  0  0  0  0
 10 11  1  0  0  0  0
 10 34  1  0  0  0  0
 11 12  2  0  0  0  0
 12 17  1  0  0  0  0
 12  7  1  0  0  0  0
 13 22  1  0  0  0  0
 13 14  2  0  0  0  0
 14  8  1  0  0  0  0
 14 35  1  0  0  0  0
 15 16  2  0  0  0  0
 15 36  1  0  0  0  0
 16 13  1  0  0  0  0
 16 20  1  0  0  0  0
 17  1  1  0  0  0  0
 17 37  1  0  0  0  0
 18 19  3  0  0  0  0
 19 38  1  0  0  0  0
 20 21  1  0  0  0  0
 21 27  1  0  0  0  0
 21 39  1  0  0  0  0
 21 40  1  0  0  0  0
 22 23  1  0  0  0  0
 23 24  1  0  0  0  0
 23 41  1  0  0  0  0
 23 42  1  0  0  0  0
 24 25  1  0  0  0  0
 24 43  1  0  0  0  0
 24 44  1  0  0  0  0
 25 26  1  0  0  0  0
 26 45  1  0  0  0  0
 26 46  1  0  0  0  0
 26 47  1  0  0  0  0
 27 28  1  0  0  0  0
 27 48  1  0  0  0  0
 27 49  1  0  0  0  0
 28 29  1  0  0  0  0
 29 50  1  0  0  0  0
 29 51  1  0  0  0  0
 29 52  1  0  0  0  0
M  END
>  <DRUGBANK_ID>
DB00530

>  <SECONDARY_ACCESSION_NUMBERS>
APRD00951

>  <COMMON_NAME>
Erlotinib

>  <CAS_NUMBER>
183321-74-6

>  <UNII>
J4T82NDH7E

>  <SYNONYMS>
[6,7-Bis-(2-methoxy-ethoxy)-quinazolin-4-yl]-(3-ethynyl-phenyl)-amine; Erlotinib

$$$$
