
 OpenBabel10282417072D

 56 54  0  0  0  0  0  0  0  0999 V2000
    2.6951    1.5317    0.0000 C   0  0  0  0  0  0  0  0  0  0  0  0
    3.1330    0.8325    0.0000 C   0  0  0  0  0  0  0  0  0  0  0  0
    3.9574    0.8621    0.0000 N   0  0  0  0  0  0  0  0  0  0  0  0
    4.3953    0.1630    0.0000 C   0  0  0  0  0  0  0  0  0  0  0  0
    2.7464    0.1037    0.0000 O   0  0  0  0  0  0  0  0  0  0  0  0
    1.8707    1.5021    0.0000 N   0  0  0  0  0  0  0  0  0  0  0  0
    1.4326    2.2013    0.0000 C   0  0  0  0  0  0  0  0  0  0  0  0
    0.6083    2.1716    0.0000 C   0  0  0  0  0  0  0  0  0  0  0  0
    0.1704    2.8708    0.0000 O   0  0  0  0  0  0  0  0  0  0  0  0
    0.2217    1.4428    0.0000 O   0  5  0  0  0  0  0  0  0  0  0  0
    1.4839    0.7733    0.0000 C   0  0  0  0  0  0  0  0  0  0  0  0
    1.9218    0.0741    0.0000 C   0  0  0  0  0  0  0  0  0  0  0  0
    1.5353   -0.6547    0.0000 N   0  0  0  0  0  0  0  0  0  0  0  0
    1.9733   -1.3539    0.0000 C   0  0  0  0  0  0  0  0  0  0  0  0
    1.5866   -2.0827    0.0000 C   0  0  0  0  0  0  0  0  0  0  0  0
    2.0246   -2.7819    0.0000 O   0  0  0  0  0  0  0  0  0  0  0  0
    0.7623   -2.1124    0.0000 O   0  5  0  0  0  0  0  0  0  0  0  0
    0.7108   -0.6843    0.0000 C   0  0  0  0  0  0  0  0  0  0  0  0
    0.2729    0.0147    0.0000 C   0  0  0  0  0  0  0  0  0  0  0  0
   -0.5515   -0.0148    0.0000 N   0  0  0  0  0  0  0  0  0  0  0  0
   -0.9894    0.6843    0.0000 C   0  0  0  0  0  0  0  0  0  0  0  0
   -1.8138    0.6546    0.0000 C   0  0  0  0  0  0  0  0  0  0  0  0
   -2.2517    1.3538    0.0000 O   0  0  0  0  0  0  0  0  0  0  0  0
   -2.2003   -0.0741    0.0000 O   0  5  0  0  0  0  0  0  0  0  0  0
   -0.9380   -0.7436    0.0000 C   0  0  0  0  0  0  0  0  0  0  0  0
   -0.5001   -1.4428    0.0000 C   0  0  0  0  0  0  0  0  0  0  0  0
   -0.8867   -2.1716    0.0000 N   0  0  0  0  0  0  0  0  0  0  0  0
   -0.4488   -2.8708    0.0000 C   0  0  0  0  0  0  0  0  0  0  0  0
    0.3243   -1.4132    0.0000 O   0  0  0  0  0  0  0  0  0  0  0  0
   -4.3954    0.8622    0.0000 Gd  0  1  0  0  0  0  0  0  0  0  0  0
    3.1965    2.4770    0.0000 H   0  0  0  0  0  0  0  0  0  0  0  0
    2.1272    2.4385    0.0000 H   0  0  0  0  0  0  0  0  0  0  0  0
    4.4187    1.7318    0.0000 H   0  0  0  0  0  0  0  0  0  0  0  0
    3.8940   -0.7823    0.0000 H   0  0  0  0  0  0  0  0  0  0  0  0
    5.4646    0.2015    0.0000 H   0  0  0  0  0  0  0  0  0  0  0  0
    4.9633   -0.7438    0.0000 H   0  0  0  0  0  0  0  0  0  0  0  0
    1.9338    3.1466    0.0000 H   0  0  0  0  0  0  0  0  0  0  0  0
    0.8646    3.1081    0.0000 H   0  0  0  0  0  0  0  0  0  0  0  0
    0.4146    0.7350    0.0000 H   0  0  0  0  0  0  0  0  0  0  0  0
    0.9825   -0.1719    0.0000 H   0  0  0  0  0  0  0  0  0  0  0  0
    2.9911    0.1126    0.0000 H   0  0  0  0  0  0  0  0  0  0  0  0
    2.4898   -0.8327    0.0000 H   0  0  0  0  0  0  0  0  0  0  0  0
    3.0426   -1.3155    0.0000 H   0  0  0  0  0  0  0  0  0  0  0  0
    2.5412   -2.2608    0.0000 H   0  0  0  0  0  0  0  0  0  0  0  0
    0.2095   -1.6296    0.0000 H   0  0  0  0  0  0  0  0  0  0  0  0
   -0.3585   -0.7228    0.0000 H   0  0  0  0  0  0  0  0  0  0  0  0
    0.7743    0.9600    0.0000 H   0  0  0  0  0  0  0  0  0  0  0  0
   -0.2950    0.9216    0.0000 H   0  0  0  0  0  0  0  0  0  0  0  0
   -0.4881    1.6296    0.0000 H   0  0  0  0  0  0  0  0  0  0  0  0
   -1.5574    1.5911    0.0000 H   0  0  0  0  0  0  0  0  0  0  0  0
   -2.0073   -0.7821    0.0000 H   0  0  0  0  0  0  0  0  0  0  0  0
   -1.4394   -1.6889    0.0000 H   0  0  0  0  0  0  0  0  0  0  0  0
   -1.8706   -2.2069    0.0000 H   0  0  0  0  0  0  0  0  0  0  0  0
   -0.9502   -3.8161    0.0000 H   0  0  0  0  0  0  0  0  0  0  0  0
    0.6205   -2.8324    0.0000 H   0  0  0  0  0  0  0  0  0  0  0  0
    0.1191   -3.7776    0.0000 H   0  0  0  0  0  0  0  0  0  0  0  0
  1 31  1  0  0  0  0
  1 32  1  0  0  0  0
  2  1  1  0  0  0  0
  2  3  1  0  0  0  0
  3  4  1  0  0  0  0
  3 33  1  0  0  0  0
  4 34  1  0  0  0  0
  4 35  1  0  0  0  0
  4 36  1  0  0  0  0
  5  2  2  0  0  0  0
  6  1  1  0  0  0  0
  6  7  1  0  0  0  0
  7  8  1  0  0  0  0
  7 37  1  0  0  0  0
  7 38  1  0  0  0  0
  8  9  2  0  0  0  0
 10  8  1  0  0  0  0
 11  6  1  0  0  0  0
 11 12  1  0  0  0  0
 11 39  1  0  0  0  0
 11 40  1  0  0  0  0
 12 41  1  0  0  0  0
 12 42  1  0  0  0  0
 13 12  1  0  0  0  0
 13 14  1  0  0  0  0
 14 15  1  0  0  0  0
 14 43  1  0  0  0  0
 14 44  1  0  0  0  0
 15 16  2  0  0  0  0
 15 17  1  0  0  0  0
 18 13  1  0  0  0  0
 18 19  1  0  0  0  0
 18 45  1  0  0  0  0
 18 46  1  0  0  0  0
 19 20  1  0  0  0  0
 19 47  1  0  0  0  0
 19 48  1  0  0  0  0
 20 21  1  0  0  0  0
 20 25  1  0  0  0  0
 21 22  1  0  0  0  0
 21 49  1  0  0  0  0
 21 50  1  0  0  0  0
 22 23  2  0  0  0  0
 24 22  1  0  0  0  0
 25 26  1  0  0  0  0
 25 51  1  0  0  0  0
 25 52  1  0  0  0  0
 26 27  1  0  0  0  0
 26 29  2  0  0  0  0
 27 28  1  0  0  0  0
 27 53  1  0  0  0  0
 28 54  1  0  0  0  0
 28 55  1  0  0  0  0
 28 56  1  0  0  0  0
M  CHG  4  10  -1  17  -1  24  -1  30   3
M  END
>  <DRUGBANK_ID>
DB00225

>  <SECONDARY_ACCESSION_NUMBERS>
APRD00990

>  <COMMON_NAME>
Gadodiamide

>  <CAS_NUMBER>
131410-48-5

>  <UNII>
84F6U3J2R6

>  <SYNONYMS>
Gadodiamida; Gadodiamide; Gadodiamide anhydrous

$$$$
