
 OpenBabel10282417072D

 36 35  0  0  0  0  0  0  0  0999 V2000
    1.2964   -0.2041    0.0000 C   0  0  0  0  0  0  0  0  0  0  0  0
    0.4714   -0.2041    0.0000 N   0  3  0  0  0  0  0  0  0  0  0  0
    0.4714    0.6209    0.0000 C   0  0  0  0  0  0  0  0  0  0  0  0
    0.4714   -1.0291    0.0000 C   0  0  0  0  0  0  0  0  0  0  0  0
   -0.3536   -0.2041    0.0000 C   0  0  0  0  0  0  0  0  0  0  0  0
   -0.7661    0.5103    0.0000 C   0  0  0  0  0  0  0  0  0  0  0  0
   -1.5911    0.5103    0.0000 O   0  0  0  0  0  0  0  0  0  0  0  0
    5.3256   -1.0725    0.0000 C   0  0  0  0  0  0  0  0  0  0  0  0
    4.6111   -1.4850    0.0000 C   0  0  0  0  0  0  0  0  0  0  0  0
    3.8966   -1.0725    0.0000 C   0  0  0  0  0  0  0  0  0  0  0  0
    3.8966   -0.2475    0.0000 C   0  0  0  0  0  0  0  0  0  0  0  0
    4.6111    0.1650    0.0000 C   0  0  0  0  0  0  0  0  0  0  0  0
    5.3256   -0.2475    0.0000 C   0  0  0  0  0  0  0  0  0  0  0  0
    4.6111    0.9900    0.0000 C   0  0  0  0  0  0  0  0  0  0  0  0
    3.8966    1.4025    0.0000 O   0  0  0  0  0  0  0  0  0  0  0  0
    5.3256    1.4025    0.0000 O   0  5  0  0  0  0  0  0  0  0  0  0
    3.1821    0.1650    0.0000 O   0  0  0  0  0  0  0  0  0  0  0  0
    1.8314   -1.1307    0.0000 H   0  0  0  0  0  0  0  0  0  0  0  0
    1.8314    0.7225    0.0000 H   0  0  0  0  0  0  0  0  0  0  0  0
    2.3664   -0.2041    0.0000 H   0  0  0  0  0  0  0  0  0  0  0  0
    1.3980    1.1559    0.0000 H   0  0  0  0  0  0  0  0  0  0  0  0
   -0.4552    1.1559    0.0000 H   0  0  0  0  0  0  0  0  0  0  0  0
    0.4714    1.6909    0.0000 H   0  0  0  0  0  0  0  0  0  0  0  0
   -0.4552   -1.5641    0.0000 H   0  0  0  0  0  0  0  0  0  0  0  0
    1.3980   -1.5641    0.0000 H   0  0  0  0  0  0  0  0  0  0  0  0
    0.4714   -2.0991    0.0000 H   0  0  0  0  0  0  0  0  0  0  0  0
   -0.8886   -1.1308    0.0000 H   0  0  0  0  0  0  0  0  0  0  0  0
   -1.4236   -0.2041    0.0000 H   0  0  0  0  0  0  0  0  0  0  0  0
   -0.2311    1.4370    0.0000 H   0  0  0  0  0  0  0  0  0  0  0  0
   -1.3011    1.4369    0.0000 H   0  0  0  0  0  0  0  0  0  0  0  0
   -2.0761    1.3503    0.0000 H   0  0  0  0  0  0  0  0  0  0  0  0
    6.2193   -1.5885    0.0000 H   0  0  0  0  0  0  0  0  0  0  0  0
    4.6111   -2.5170    0.0000 H   0  0  0  0  0  0  0  0  0  0  0  0
    3.0029   -1.5885    0.0000 H   0  0  0  0  0  0  0  0  0  0  0  0
    6.2193    0.2685    0.0000 H   0  0  0  0  0  0  0  0  0  0  0  0
    3.1821    1.1020    0.0000 H   0  0  0  0  0  0  0  0  0  0  0  0
  1  2  1  0  0  0  0
  1 18  1  0  0  0  0
  1 19  1  0  0  0  0
  1 20  1  0  0  0  0
  2  3  1  0  0  0  0
  2  4  1  0  0  0  0
  2  5  1  0  0  0  0
  3 21  1  0  0  0  0
  3 22  1  0  0  0  0
  3 23  1  0  0  0  0
  4 24  1  0  0  0  0
  4 25  1  0  0  0  0
  4 26  1  0  0  0  0
  5  6  1  0  0  0  0
  5 27  1  0  0  0  0
  5 28  1  0  0  0  0
  6  7  1  0  0  0  0
  6 29  1  0  0  0  0
  6 30  1  0  0  0  0
  7 31  1  0  0  0  0
  8  9  2  0  0  0  0
  8 13  1  0  0  0  0
  8 32  1  0  0  0  0
  9 10  1  0  0  0  0
  9 33  1  0  0  0  0
 10 11  2  0  0  0  0
 10 34  1  0  0  0  0
 11 12  1  0  0  0  0
 11 17  1  0  0  0  0
 12 13  2  0  0  0  0
 12 14  1  0  0  0  0
 13 35  1  0  0  0  0
 14 15  2  0  0  0  0
 14 16  1  0  0  0  0
 17 36  1  0  0  0  0
M  CHG  2   2   1  16  -1
M  END
>  <DRUGBANK_ID>
DB14006

>  <SECONDARY_ACCESSION_NUMBERS>
DBSALT001576

>  <COMMON_NAME>
Choline salicylate

>  <CAS_NUMBER>
2016-36-6

>  <UNII>
KD510K1IQW

>  <SYNONYMS>
Choline salicylate

$$$$
