
 OpenBabel10282417072D

 48 48  0  0  0  0  0  0  0  0999 V2000
   -1.0720   -0.2168    0.0000 N   0  0  0  0  0  0  0  0  0  0  0  0
   -0.3587    0.1960    0.0000 C   0  0  0  0  0  0  0  0  0  0  0  0
   -1.7896    0.1960    0.0000 C   0  0  0  0  0  0  0  0  0  0  0  0
    0.3546   -0.2168    0.0000 C   0  0  3  0  0  0  0  0  0  0  0  0
   -0.3587    1.0220    0.0000 O   0  0  0  0  0  0  0  0  0  0  0  0
    1.0637    0.2043    0.0000 N   0  0  0  0  0  0  0  0  0  0  0  0
   -2.4986   -0.2085    0.0000 C   0  0  0  0  0  0  0  0  0  0  0  0
   -1.7853    1.0303    0.0000 C   0  0  0  0  0  0  0  0  0  0  0  0
   -3.2161    1.0303    0.0000 C   0  0  0  0  0  0  0  0  0  0  0  0
    0.3546   -1.0428    0.0000 C   0  0  0  0  0  0  0  0  0  0  0  0
    1.0553    1.0303    0.0000 C   0  0  0  0  0  0  0  0  0  0  0  0
    1.7812   -0.1960    0.0000 C   0  0  0  0  0  0  0  0  0  0  0  0
   -3.2119    0.1960    0.0000 C   0  0  0  0  0  0  0  0  0  0  0  0
   -2.4986    1.4433    0.0000 C   0  0  0  0  0  0  0  0  0  0  0  0
   -1.0720    1.4350    0.0000 C   0  0  0  0  0  0  0  0  0  0  0  0
   -2.4986   -1.0344    0.0000 C   0  0  0  0  0  0  0  0  0  0  0  0
    2.4945    0.2168    0.0000 C   0  0  0  0  0  0  0  0  0  0  0  0
    1.7687    1.4558    0.0000 C   0  0  0  0  0  0  0  0  0  0  0  0
   -0.3587   -1.4558    0.0000 C   0  0  0  0  0  0  0  0  0  0  0  0
    3.2161   -0.1835    0.0000 C   0  0  0  0  0  0  0  0  0  0  0  0
   -1.0707   -1.2013    0.0000 H   0  0  0  0  0  0  0  0  0  0  0  0
    0.3486    0.8532    0.0000 H   0  0  0  0  0  0  0  0  0  0  0  0
   -4.1108    1.5446    0.0000 H   0  0  0  0  0  0  0  0  0  0  0  0
    1.2816   -1.5772    0.0000 H   0  0  0  0  0  0  0  0  0  0  0  0
    0.3556   -2.1128    0.0000 H   0  0  0  0  0  0  0  0  0  0  0  0
    0.1222    1.5540    0.0000 H   0  0  0  0  0  0  0  0  0  0  0  0
    1.0412    2.1002    0.0000 H   0  0  0  0  0  0  0  0  0  0  0  0
    1.7896   -1.2660    0.0000 H   0  0  0  0  0  0  0  0  0  0  0  0
    2.7102   -0.7269    0.0000 H   0  0  0  0  0  0  0  0  0  0  0  0
   -4.1023   -0.3257    0.0000 H   0  0  0  0  0  0  0  0  0  0  0  0
   -2.4973    2.4753    0.0000 H   0  0  0  0  0  0  0  0  0  0  0  0
   -0.1494    0.8930    0.0000 H   0  0  0  0  0  0  0  0  0  0  0  0
   -1.0640    2.5050    0.0000 H   0  0  0  0  0  0  0  0  0  0  0  0
   -0.1414    1.9630    0.0000 H   0  0  0  0  0  0  0  0  0  0  0  0
   -3.4252   -1.5694    0.0000 H   0  0  0  0  0  0  0  0  0  0  0  0
   -1.5720   -1.5694    0.0000 H   0  0  0  0  0  0  0  0  0  0  0  0
   -2.4986   -2.1044    0.0000 H   0  0  0  0  0  0  0  0  0  0  0  0
    2.4848    1.2868    0.0000 H   0  0  0  0  0  0  0  0  0  0  0  0
    3.4141    0.7639    0.0000 H   0  0  0  0  0  0  0  0  0  0  0  0
    2.7028    0.9340    0.0000 H   0  0  0  0  0  0  0  0  0  0  0  0
    1.7535    2.5257    0.0000 H   0  0  0  0  0  0  0  0  0  0  0  0
    2.6877    2.0039    0.0000 H   0  0  0  0  0  0  0  0  0  0  0  0
   -1.2860   -0.9219    0.0000 H   0  0  0  0  0  0  0  0  0  0  0  0
   -0.3574   -2.5258    0.0000 H   0  0  0  0  0  0  0  0  0  0  0  0
   -1.2847   -1.9919    0.0000 H   0  0  0  0  0  0  0  0  0  0  0  0
    3.2344   -1.2533    0.0000 H   0  0  0  0  0  0  0  0  0  0  0  0
    4.1335    0.3673    0.0000 H   0  0  0  0  0  0  0  0  0  0  0  0
    4.1518   -0.7026    0.0000 H   0  0  0  0  0  0  0  0  0  0  0  0
  1 21  1  0  0  0  0
  2  1  1  0  0  0  0
  3  1  1  0  0  0  0
  4  2  1  0  0  0  0
  4 22  1  0  0  0  0
  5  2  2  0  0  0  0
  6  4  1  0  0  0  0
  7  3  1  0  0  0  0
  8  3  2  0  0  0  0
  9 14  2  0  0  0  0
  9 23  1  0  0  0  0
 10  4  1  0  0  0  0
 10 24  1  0  0  0  0
 10 25  1  0  0  0  0
 11  6  1  0  0  0  0
 11 26  1  0  0  0  0
 11 27  1  0  0  0  0
 12  6  1  0  0  0  0
 12 28  1  0  0  0  0
 12 29  1  0  0  0  0
 13  7  2  0  0  0  0
 13  9  1  0  0  0  0
 13 30  1  0  0  0  0
 14  8  1  0  0  0  0
 14 31  1  0  0  0  0
 15  8  1  0  0  0  0
 15 32  1  0  0  0  0
 15 33  1  0  0  0  0
 15 34  1  0  0  0  0
 16  7  1  0  0  0  0
 16 35  1  0  0  0  0
 16 36  1  0  0  0  0
 16 37  1  0  0  0  0
 17 12  1  0  0  0  0
 17 38  1  0  0  0  0
 17 39  1  0  0  0  0
 18 11  1  0  0  0  0
 18 40  1  0  0  0  0
 18 41  1  0  0  0  0
 18 42  1  0  0  0  0
 19 10  1  0  0  0  0
 19 43  1  0  0  0  0
 19 44  1  0  0  0  0
 19 45  1  0  0  0  0
 20 17  1  0  0  0  0
 20 46  1  0  0  0  0
 20 47  1  0  0  0  0
 20 48  1  0  0  0  0
M  END
>  <DRUGBANK_ID>
DB08987

>  <COMMON_NAME>
Etidocaine

>  <CAS_NUMBER>
36637-18-0

>  <UNII>
I6CQM0F31V

>  <SYNONYMS>
Etidocaina; Etidocaine; Etidocainum

$$$$
