
 OpenBabel10282417072D

 48 48  0  0  0  0  0  0  0  0999 V2000
    1.4289   -0.5634    0.0000 P   0  0  2  0  0  0  0  0  0  0  0  0
   -0.7144    3.1490    0.0000 P   0  0  0  0  0  0  0  0  0  0  0  0
   -2.1433    1.4990    0.0000 P   0  0  0  0  0  0  0  0  0  0  0  0
    1.4289    0.2615    0.0000 O   0  0  0  0  0  0  0  0  0  0  0  0
    0.0000    2.7365    0.0000 O   0  0  0  0  0  0  0  0  0  0  0  0
   -1.4289    1.9115    0.0000 O   0  0  0  0  0  0  0  0  0  0  0  0
    1.4289    1.9115    0.0000 O   0  0  0  0  0  0  0  0  0  0  0  0
   -1.4289    0.2615    0.0000 O   0  0  0  0  0  0  0  0  0  0  0  0
    0.0000   -0.5634    0.0000 O   0  0  0  0  0  0  0  0  0  0  0  0
    1.4289   -1.3884    0.0000 O   0  0  0  0  0  0  0  0  0  0  0  0
    2.2539   -0.5634    0.0000 O   0  0  0  0  0  0  0  0  0  0  0  0
   -0.3019    3.8634    0.0000 O   0  0  0  0  0  0  0  0  0  0  0  0
   -1.4289    3.5615    0.0000 O   0  0  0  0  0  0  0  0  0  0  0  0
   -2.8578    1.0865    0.0000 O   0  0  0  0  0  0  0  0  0  0  0  0
   -2.5558    2.2134    0.0000 O   0  0  0  0  0  0  0  0  0  0  0  0
    0.6039   -0.5634    0.0000 O   0  0  0  0  0  0  0  0  0  0  0  0
   -1.1269    2.4345    0.0000 O   0  0  0  0  0  0  0  0  0  0  0  0
   -1.7308    0.7845    0.0000 O   0  0  0  0  0  0  0  0  0  0  0  0
    1.4289   -3.0384    0.0000 O   0  0  0  0  0  0  0  0  0  0  0  0
    2.8578   -3.8634    0.0000 O   0  0  0  0  0  0  0  0  0  0  0  0
    0.0000    1.9115    0.0000 C   0  0  1  0  0  0  0  0  0  0  0  0
   -0.7144    1.4990    0.0000 C   0  0  1  0  0  0  0  0  0  0  0  0
    0.7145    0.6740    0.0000 C   0  0  3  0  0  0  0  0  0  0  0  0
    0.7145    1.4990    0.0000 C   0  0  2  0  0  0  0  0  0  0  0  0
   -0.7144    0.6740    0.0000 C   0  0  2  0  0  0  0  0  0  0  0  0
    0.0000    0.2615    0.0000 C   0  0  1  0  0  0  0  0  0  0  0  0
    2.1434   -1.8009    0.0000 C   0  0  0  0  0  0  0  0  0  0  0  0
    2.1434   -2.6259    0.0000 C   0  0  0  0  0  0  0  0  0  0  0  0
    2.8578   -3.0384    0.0000 C   0  0  0  0  0  0  0  0  0  0  0  0
    2.2690    1.4265    0.0000 H   0  0  0  0  0  0  0  0  0  0  0  0
   -2.2689    0.7465    0.0000 H   0  0  0  0  0  0  0  0  0  0  0  0
   -0.8400   -1.0484    0.0000 H   0  0  0  0  0  0  0  0  0  0  0  0
    2.7389   -1.4034    0.0000 H   0  0  0  0  0  0  0  0  0  0  0  0
    0.6681    3.8634    0.0000 H   0  0  0  0  0  0  0  0  0  0  0  0
   -1.4289    4.5315    0.0000 H   0  0  0  0  0  0  0  0  0  0  0  0
   -3.6978    1.5715    0.0000 H   0  0  0  0  0  0  0  0  0  0  0  0
   -2.0708    3.0535    0.0000 H   0  0  0  0  0  0  0  0  0  0  0  0
    2.0178   -4.3484    0.0000 H   0  0  0  0  0  0  0  0  0  0  0  0
   -0.9267    2.4465    0.0000 H   0  0  0  0  0  0  0  0  0  0  0  0
   -0.7144    2.5690    0.0000 H   0  0  0  0  0  0  0  0  0  0  0  0
    1.6412    1.2090    0.0000 H   0  0  0  0  0  0  0  0  0  0  0  0
    0.7145    2.5690    0.0000 H   0  0  0  0  0  0  0  0  0  0  0  0
   -1.6410    1.2090    0.0000 H   0  0  0  0  0  0  0  0  0  0  0  0
    0.9266   -0.2735    0.0000 H   0  0  0  0  0  0  0  0  0  0  0  0
    3.0700   -1.2659    0.0000 H   0  0  0  0  0  0  0  0  0  0  0  0
    3.0700   -2.3359    0.0000 H   0  0  0  0  0  0  0  0  0  0  0  0
    3.7845   -2.5034    0.0000 H   0  0  0  0  0  0  0  0  0  0  0  0
    2.8578   -1.9684    0.0000 H   0  0  0  0  0  0  0  0  0  0  0  0
  1  4  1  0  0  0  0
  1 10  1  0  0  0  0
  1 11  1  0  0  0  0
  1 16  2  6  0  0  0
  2  5  1  0  0  0  0
  2 12  1  0  0  0  0
  2 13  1  0  0  0  0
  2 17  2  0  0  0  0
  3  6  1  0  0  0  0
  3 14  1  0  0  0  0
  3 15  1  0  0  0  0
  3 18  2  0  0  0  0
  4 23  1  0  0  0  0
  7 30  1  0  0  0  0
  8 31  1  0  0  0  0
  9 32  1  0  0  0  0
 10 27  1  0  0  0  0
 11 33  1  0  0  0  0
 12 34  1  0  0  0  0
 13 35  1  0  0  0  0
 14 36  1  0  0  0  0
 15 37  1  0  0  0  0
 19 28  2  0  0  0  0
 20 29  1  0  0  0  0
 20 38  1  0  0  0  0
 21  5  1  0  0  0  0
 21 22  1  0  0  0  0
 21 24  1  0  0  0  0
 21 39  1  1  0  0  0
 22  6  1  0  0  0  0
 22 25  1  0  0  0  0
 22 40  1  6  0  0  0
 23 24  1  0  0  0  0
 23 26  1  0  0  0  0
 23 41  1  0  0  0  0
 24  7  1  0  0  0  0
 24 42  1  6  0  0  0
 25  8  1  0  0  0  0
 25 26  1  0  0  0  0
 25 43  1  1  0  0  0
 26  9  1  0  0  0  0
 26 44  1  1  0  0  0
 27 28  1  0  0  0  0
 27 45  1  0  0  0  0
 27 46  1  0  0  0  0
 28 29  1  0  0  0  0
 29 47  1  0  0  0  0
 29 48  1  0  0  0  0
M  END
>  <DRUGBANK_ID>
DB02028

>  <SECONDARY_ACCESSION_NUMBERS>
EXPT01828

>  <COMMON_NAME>
(1R,2R,3S,4R,6S)-3,4,6-Trihydroxy-5-{[(S)-hydroxy(3-hydroxy-2-oxopropoxy)phosphoryl]oxy}-1,2-cyclohexanediyl bis[dihydrogen (phosphate)]

$$$$
