1427
 OpenBabel10282417072D

 23 24  0  0  0  0  0  0  0  0999 V2000
    2.0930   -1.1880    0.0000 O   0  0  0  0  0  0  0  0  0  0  0  0
    3.5220   -1.1880    0.0000 N   0  0  0  0  0  0  0  0  0  0  0  0
    2.0930    0.4620    0.0000 N   0  0  0  0  0  0  0  0  0  0  0  0
    6.3799    1.2870    0.0000 N   0  0  0  0  0  0  0  0  0  0  0  0
    4.2365    0.0495    0.0000 C   0  0  0  0  0  0  0  0  0  0  0  0
    4.9509    0.4620    0.0000 C   0  0  0  0  0  0  0  0  0  0  0  0
    3.5220    0.4620    0.0000 C   0  0  0  0  0  0  0  0  0  0  0  0
    4.2365   -0.7755    0.0000 C   0  0  0  0  0  0  0  0  0  0  0  0
    2.8075    0.0495    0.0000 C   0  0  0  0  0  0  0  0  0  0  0  0
    2.8075   -0.7755    0.0000 C   0  0  0  0  0  0  0  0  0  0  0  0
    4.9509    1.2870    0.0000 C   0  0  0  0  0  0  0  0  0  0  0  0
    5.6655    0.0495    0.0000 C   0  0  0  0  0  0  0  0  0  0  0  0
    5.6655    1.6995    0.0000 C   0  0  0  0  0  0  0  0  0  0  0  0
    6.3799    0.4620    0.0000 C   0  0  0  0  0  0  0  0  0  0  0  0
    3.5220   -2.1725    0.0000 H   0  0  0  0  0  0  0  0  0  0  0  0
    2.0930    1.4465    0.0000 H   0  0  0  0  0  0  0  0  0  0  0  0
    1.2404   -0.0303    0.0000 H   0  0  0  0  0  0  0  0  0  0  0  0
    3.5220    1.4940    0.0000 H   0  0  0  0  0  0  0  0  0  0  0  0
    5.1302   -1.2915    0.0000 H   0  0  0  0  0  0  0  0  0  0  0  0
    4.0572    1.8030    0.0000 H   0  0  0  0  0  0  0  0  0  0  0  0
    5.6656   -0.9825    0.0000 H   0  0  0  0  0  0  0  0  0  0  0  0
    5.6656    2.7315    0.0000 H   0  0  0  0  0  0  0  0  0  0  0  0
    7.2736   -0.0540    0.0000 H   0  0  0  0  0  0  0  0  0  0  0  0
  1 10  2  0  0  0  0
  2  8  1  0  0  0  0
  2 10  1  0  0  0  0
  2 15  1  0  0  0  0
  3  9  1  0  0  0  0
  3 16  1  0  0  0  0
  3 17  1  0  0  0  0
  4 13  2  0  0  0  0
  4 14  1  0  0  0  0
  5  6  1  0  0  0  0
  5  7  1  0  0  0  0
  5  8  2  0  0  0  0
  6 11  2  0  0  0  0
  6 12  1  0  0  0  0
  7  9  2  0  0  0  0
  7 18  1  0  0  0  0
  8 19  1  0  0  0  0
  9 10  1  0  0  0  0
 11 13  1  0  0  0  0
 11 20  1  0  0  0  0
 12 14  2  0  0  0  0
 12 21  1  0  0  0  0
 13 22  1  0  0  0  0
 14 23  1  0  0  0  0
M  END
>  <DRUGBANK_ID>
DB01427

>  <COMMON_NAME>
Amrinone

>  <CAS_NUMBER>
60719-84-8

>  <UNII>
JUT23379TN

>  <SYNONYMS>
Amrinona; Amrinone; Amrinonum; Inamrinone

$$$$
