DQN
 OpenBabel10282417072D

 24 24  0  0  0  0  0  0  0  0999 V2000
    0.7145    0.4123    0.0000 C   0  0  0  0  0  0  0  0  0  0  0  0
    1.4290    0.8248    0.0000 O   0  0  0  0  0  0  0  0  0  0  0  0
    0.7145   -0.4127    0.0000 C   0  0  0  0  0  0  0  0  0  0  0  0
    1.4290   -0.8252    0.0000 C   0  0  0  0  0  0  0  0  0  0  0  0
    0.0000   -0.8252    0.0000 C   0  0  0  0  0  0  0  0  0  0  0  0
    0.0000   -1.6502    0.0000 C   0  0  0  0  0  0  0  0  0  0  0  0
   -0.7144   -0.4127    0.0000 C   0  0  0  0  0  0  0  0  0  0  0  0
   -1.4289   -0.8252    0.0000 O   0  0  0  0  0  0  0  0  0  0  0  0
   -0.7144    0.4123    0.0000 C   0  0  0  0  0  0  0  0  0  0  0  0
   -1.4289    0.8248    0.0000 C   0  0  0  0  0  0  0  0  0  0  0  0
    0.0000    0.8248    0.0000 C   0  0  0  0  0  0  0  0  0  0  0  0
    0.0000    1.6498    0.0000 C   0  0  0  0  0  0  0  0  0  0  0  0
    1.4290   -1.8952    0.0000 H   0  0  0  0  0  0  0  0  0  0  0  0
    2.3556   -0.2902    0.0000 H   0  0  0  0  0  0  0  0  0  0  0  0
    2.3557   -1.3602    0.0000 H   0  0  0  0  0  0  0  0  0  0  0  0
   -0.9266   -2.1852    0.0000 H   0  0  0  0  0  0  0  0  0  0  0  0
    0.9266   -2.1852    0.0000 H   0  0  0  0  0  0  0  0  0  0  0  0
    0.0000   -2.7202    0.0000 H   0  0  0  0  0  0  0  0  0  0  0  0
   -1.4289    1.8948    0.0000 H   0  0  0  0  0  0  0  0  0  0  0  0
   -2.3555    0.2898    0.0000 H   0  0  0  0  0  0  0  0  0  0  0  0
   -2.3556    1.3598    0.0000 H   0  0  0  0  0  0  0  0  0  0  0  0
    0.9266    2.1848    0.0000 H   0  0  0  0  0  0  0  0  0  0  0  0
   -0.9266    2.1848    0.0000 H   0  0  0  0  0  0  0  0  0  0  0  0
    0.0000    2.7198    0.0000 H   0  0  0  0  0  0  0  0  0  0  0  0
  1  2  2  0  0  0  0
  1  3  1  0  0  0  0
  1 11  1  0  0  0  0
  3  4  1  0  0  0  0
  3  5  2  0  0  0  0
  4 13  1  0  0  0  0
  4 14  1  0  0  0  0
  4 15  1  0  0  0  0
  5  6  1  0  0  0  0
  5  7  1  0  0  0  0
  6 16  1  0  0  0  0
  6 17  1  0  0  0  0
  6 18  1  0  0  0  0
  7  8  2  0  0  0  0
  7  9  1  0  0  0  0
  9 10  1  0  0  0  0
  9 11  2  0  0  0  0
 10 19  1  0  0  0  0
 10 20  1  0  0  0  0
 10 21  1  0  0  0  0
 11 12  1  0  0  0  0
 12 22  1  0  0  0  0
 12 23  1  0  0  0  0
 12 24  1  0  0  0  0
M  END
>  <DRUGBANK_ID>
DB01927

>  <SECONDARY_ACCESSION_NUMBERS>
EXPT01265

>  <COMMON_NAME>
Duroquinone

>  <CAS_NUMBER>
527-17-3

>  <UNII>
X0Q8791R69

$$$$
