
 OpenBabel10282417072D

 58 62  0  0  1  0  0  0  0  0999 V2000
   -6.2853    3.6889    0.0000 C   0  0  0  0  0  0  0  0  0  0  0  0
   -6.3715    2.8685    0.0000 C   0  0  0  0  0  0  0  0  0  0  0  0
   -5.5316    4.0245    0.0000 C   0  0  0  0  0  0  0  0  0  0  0  0
    3.3523    1.1104    0.0000 C   0  0  0  0  0  0  0  0  0  0  0  0
    3.3523    1.9354    0.0000 C   0  0  0  0  0  0  0  0  0  0  0  0
   -5.7041    2.3835    0.0000 C   0  0  0  0  0  0  0  0  0  0  0  0
   -4.8642    3.5396    0.0000 C   0  0  0  0  0  0  0  0  0  0  0  0
    2.6378    0.6979    0.0000 C   0  0  0  0  0  0  0  0  0  0  0  0
    2.6378    2.3479    0.0000 C   0  0  0  0  0  0  0  0  0  0  0  0
   -5.1229    1.0781    0.0000 C   0  0  0  0  0  0  0  0  0  0  0  0
   -1.4407    1.1104    0.0000 C   0  0  0  0  0  0  0  0  0  0  0  0
   -4.3692    1.4137    0.0000 C   0  0  0  0  0  0  0  0  0  0  0  0
   -0.6561    0.8555    0.0000 C   0  0  0  0  0  0  0  0  0  0  0  0
   -4.2830    2.2342    0.0000 C   0  0  0  0  0  0  0  0  0  0  0  0
    1.1387    0.8555    0.0000 C   0  0  0  0  0  0  0  0  0  0  0  0
   -4.5417   -0.2273    0.0000 C   0  0  0  0  0  0  0  0  0  0  0  0
   -2.1082    2.4204    0.0000 C   0  0  0  0  0  0  0  0  0  0  0  0
   -4.9504    2.7191    0.0000 C   0  0  0  0  0  0  0  0  0  0  0  0
    1.9233    1.1104    0.0000 C   0  0  0  0  0  0  0  0  0  0  0  0
   -5.2091    0.2577    0.0000 C   0  0  0  0  0  0  0  0  0  0  0  0
   -1.4407    1.9354    0.0000 C   0  0  0  0  0  0  0  0  0  0  0  0
   -3.7018    0.9288    0.0000 C   0  0  0  0  0  0  0  0  0  0  0  0
   -3.7880    0.1083    0.0000 C   0  0  0  0  0  0  0  0  0  0  0  0
   -3.5293    2.5697    0.0000 C   0  0  1  0  0  0  0  0  0  0  0  0
    1.9233    1.9354    0.0000 C   0  0  0  0  0  0  0  0  0  0  0  0
    0.6538    1.5229    0.0000 C   0  0  0  0  0  0  0  0  0  0  0  0
   -0.1712    1.5229    0.0000 C   0  0  0  0  0  0  0  0  0  0  0  0
   -2.9481    1.2643    0.0000 C   0  0  0  0  0  0  0  0  0  0  0  0
   -3.4431    3.3902    0.0000 C   0  0  0  0  0  0  0  0  0  0  0  0
   -5.9628   -0.0779    0.0000 Cl  0  0  0  0  0  0  0  0  0  0  0  0
   -3.1206   -0.3766    0.0000 Cl  0  0  0  0  0  0  0  0  0  0  0  0
   -2.8619    2.0848    0.0000 N   0  0  0  0  0  0  0  0  0  0  0  0
   -2.2807    0.7794    0.0000 O   0  0  0  0  0  0  0  0  0  0  0  0
   -4.1105    3.8751    0.0000 O   0  0  0  0  0  0  0  0  0  0  0  0
   -2.6894    3.7258    0.0000 O   0  0  0  0  0  0  0  0  0  0  0  0
    1.1387    2.1904    0.0000 O   0  0  0  0  0  0  0  0  0  0  0  0
   -0.6561    2.1904    0.0000 S   0  0  0  0  0  0  0  0  0  0  0  0
   -4.1967    3.0547    0.0000 H   0  0  0  0  0  0  0  0  0  0  0  0
   -7.1202    4.2955    0.0000 H   0  0  0  0  0  0  0  0  0  0  0  0
   -7.3143    2.4488    0.0000 H   0  0  0  0  0  0  0  0  0  0  0  0
   -5.4237    5.0508    0.0000 H   0  0  0  0  0  0  0  0  0  0  0  0
    4.2460    0.5944    0.0000 H   0  0  0  0  0  0  0  0  0  0  0  0
    4.2460    2.4514    0.0000 H   0  0  0  0  0  0  0  0  0  0  0  0
   -5.8120    1.3572    0.0000 H   0  0  0  0  0  0  0  0  0  0  0  0
   -3.9214    3.9594    0.0000 H   0  0  0  0  0  0  0  0  0  0  0  0
    2.6378   -0.3341    0.0000 H   0  0  0  0  0  0  0  0  0  0  0  0
    2.6378    3.3799    0.0000 H   0  0  0  0  0  0  0  0  0  0  0  0
   -5.9578    1.6847    0.0000 H   0  0  0  0  0  0  0  0  0  0  0  0
   -2.2756    0.5038    0.0000 H   0  0  0  0  0  0  0  0  0  0  0  0
   -4.2613    2.4400    0.0000 H   0  0  0  0  0  0  0  0  0  0  0  0
   -0.3372   -0.1260    0.0000 H   0  0  0  0  0  0  0  0  0  0  0  0
   -4.3949    1.1701    0.0000 H   0  0  0  0  0  0  0  0  0  0  0  0
   -3.4174    1.6052    0.0000 H   0  0  0  0  0  0  0  0  0  0  0  0
    0.8198   -0.1260    0.0000 H   0  0  0  0  0  0  0  0  0  0  0  0
   -4.6496   -1.2536    0.0000 H   0  0  0  0  0  0  0  0  0  0  0  0
   -1.9964    3.4845    0.0000 H   0  0  0  0  0  0  0  0  0  0  0  0
   -2.9739    3.0493    0.0000 H   0  0  0  0  0  0  0  0  0  0  0  0
   -1.9313    3.1751    0.0000 H   0  0  0  0  0  0  0  0  0  0  0  0
  1 39  1  0  0  0  0
  2  1  2  0  0  0  0
  2 40  1  0  0  0  0
  3  1  1  0  0  0  0
  3 41  1  0  0  0  0
  4 42  1  0  0  0  0
  5  4  2  0  0  0  0
  5 43  1  0  0  0  0
  6  2  1  0  0  0  0
  6 44  1  0  0  0  0
  7  3  2  0  0  0  0
  7 45  1  0  0  0  0
  8  4  1  0  0  0  0
  8 46  1  0  0  0  0
  9  5  1  0  0  0  0
  9 47  1  0  0  0  0
 10 48  1  0  0  0  0
 11 49  1  0  0  0  0
 12 10  2  0  0  0  0
 12 50  1  0  0  0  0
 13 11  1  0  0  0  0
 13 51  1  0  0  0  0
 14 52  1  0  0  0  0
 14 53  1  0  0  0  0
 15 54  1  0  0  0  0
 16 55  1  0  0  0  0
 17 56  1  0  0  0  0
 17 57  1  0  0  0  0
 18  6  2  0  0  0  0
 18  7  1  0  0  0  0
 18 14  1  0  0  0  0
 19  8  2  0  0  0  0
 19 15  1  0  0  0  0
 20 10  1  0  0  0  0
 20 16  2  0  0  0  0
 21 11  2  0  0  0  0
 21 17  1  0  0  0  0
 22 12  1  0  0  0  0
 23 16  1  0  0  0  0
 23 22  2  0  0  0  0
 24 14  1  0  0  0  0
 24 32  1  0  0  0  0
 24 38  1  6  0  0  0
 25  9  2  0  0  0  0
 25 19  1  0  0  0  0
 26 15  2  0  0  0  0
 27 13  2  0  0  0  0
 27 26  1  0  0  0  0
 28 22  1  0  0  0  0
 29 24  1  0  0  0  0
 30 20  1  0  0  0  0
 31 23  1  0  0  0  0
 32 17  1  0  0  0  0
 32 28  1  0  0  0  0
 33 28  2  0  0  0  0
 34 29  2  0  0  0  0
 35 29  1  0  0  0  0
 35 58  1  0  0  0  0
 36 25  1  0  0  0  0
 36 26  1  0  0  0  0
 37 21  1  0  0  0  0
 37 27  1  0  0  0  0
M  END
>  <DRUGBANK_ID>
DB02331

>  <SECONDARY_ACCESSION_NUMBERS>
EXPT00040

>  <COMMON_NAME>
(2s)-2-[(5-Benzofuran-2-Yl-Thiophen-2-Ylmethyl)-(2,4-Dichloro-Benzoyl)-Amino]-3-Phenyl-Propionic Acid

$$$$
