
 OpenBabel10282417072D

 48 51  0  0  0  0  0  0  0  0999 V2000
    0.8462    1.9684    0.0000 N   0  0  0  0  0  0  0  0  0  0  0  0
    0.5911    1.1837    0.0000 C   0  0  0  0  0  0  0  0  0  0  0  0
    1.2586    0.6989    0.0000 N   0  0  0  0  0  0  0  0  0  0  0  0
    1.9262    1.1837    0.0000 N   0  0  0  0  0  0  0  0  0  0  0  0
    1.6711    1.9684    0.0000 C   0  0  0  0  0  0  0  0  0  0  0  0
    1.2585   -0.1261    0.0000 C   0  0  0  0  0  0  0  0  0  0  0  0
    1.9732   -0.5386    0.0000 C   0  0  2  0  0  0  0  0  0  0  0  0
    2.6875   -0.1261    0.0000 C   0  0  0  0  0  0  0  0  0  0  0  0
    2.6875    0.6989    0.0000 C   0  0  0  0  0  0  0  0  0  0  0  0
    3.4021   -0.5386    0.0000 C   0  0  0  0  0  0  0  0  0  0  0  0
    3.4021    1.1113    0.0000 C   0  0  0  0  0  0  0  0  0  0  0  0
    4.1165   -0.1262    0.0000 C   0  0  0  0  0  0  0  0  0  0  0  0
    4.1165    0.6988    0.0000 C   0  0  0  0  0  0  0  0  0  0  0  0
    3.4000   -1.3589    0.0000 F   0  0  0  0  0  0  0  0  0  0  0  0
    1.5567   -1.2515    0.0000 C   0  0  2  0  0  0  0  0  0  0  0  0
    0.7318   -1.2465    0.0000 C   0  0  0  0  0  0  0  0  0  0  0  0
    1.9650   -1.9684    0.0000 C   0  0  0  0  0  0  0  0  0  0  0  0
    0.2427   -1.9110    0.0000 S   0  0  0  0  0  0  0  0  0  0  0  0
    0.2508   -0.5761    0.0000 N   0  0  0  0  0  0  0  0  0  0  0  0
   -0.5402   -1.6513    0.0000 C   0  0  0  0  0  0  0  0  0  0  0  0
   -0.5353   -0.8264    0.0000 C   0  0  0  0  0  0  0  0  0  0  0  0
   -1.2522   -0.4169    0.0000 C   0  0  0  0  0  0  0  0  0  0  0  0
   -1.9647   -0.8331    0.0000 C   0  0  0  0  0  0  0  0  0  0  0  0
   -1.2562    0.4079    0.0000 C   0  0  0  0  0  0  0  0  0  0  0  0
   -2.6812   -0.4238    0.0000 C   0  0  0  0  0  0  0  0  0  0  0  0
   -1.9727    0.8170    0.0000 C   0  0  0  0  0  0  0  0  0  0  0  0
   -2.6852    0.4010    0.0000 C   0  0  0  0  0  0  0  0  0  0  0  0
    2.5630   -1.1277    0.0000 O   0  0  0  0  0  0  0  0  0  0  0  0
   -3.4009    0.8105    0.0000 C   0  0  0  0  0  0  0  0  0  0  0  0
   -4.1165    1.2280    0.0000 N   0  0  0  0  0  0  0  0  0  0  0  0
    3.3980    1.9338    0.0000 F   0  0  0  0  0  0  0  0  0  0  0  0
   -0.3904    0.8648    0.0000 H   0  0  0  0  0  0  0  0  0  0  0  0
    2.2776    2.8034    0.0000 H   0  0  0  0  0  0  0  0  0  0  0  0
    0.3319   -0.6611    0.0000 H   0  0  0  0  0  0  0  0  0  0  0  0
    1.2586   -1.1961    0.0000 H   0  0  0  0  0  0  0  0  0  0  0  0
    1.7938    1.2150    0.0000 H   0  0  0  0  0  0  0  0  0  0  0  0
    5.0102   -0.6422    0.0000 H   0  0  0  0  0  0  0  0  0  0  0  0
    5.0102    1.2148    0.0000 H   0  0  0  0  0  0  0  0  0  0  0  0
    2.6267   -1.2574    0.0000 H   0  0  0  0  0  0  0  0  0  0  0  0
    1.4246   -2.8919    0.0000 H   0  0  0  0  0  0  0  0  0  0  0  0
    3.0350   -1.9747    0.0000 H   0  0  0  0  0  0  0  0  0  0  0  0
    2.4945   -2.8982    0.0000 H   0  0  0  0  0  0  0  0  0  0  0  0
   -1.3788   -2.2528    0.0000 H   0  0  0  0  0  0  0  0  0  0  0  0
   -1.9597   -1.8651    0.0000 H   0  0  0  0  0  0  0  0  0  0  0  0
   -0.3650    0.9282    0.0000 H   0  0  0  0  0  0  0  0  0  0  0  0
   -3.5725   -0.9440    0.0000 H   0  0  0  0  0  0  0  0  0  0  0  0
   -1.9777    1.8490    0.0000 H   0  0  0  0  0  0  0  0  0  0  0  0
    2.3125   -2.0648    0.0000 H   0  0  0  0  0  0  0  0  0  0  0  0
  1  5  1  0  0  0  0
  2  1  2  0  0  0  0
  2 32  1  0  0  0  0
  3  2  1  0  0  0  0
  3  4  1  0  0  0  0
  3  6  1  0  0  0  0
  5  4  2  0  0  0  0
  5 33  1  0  0  0  0
  6  7  1  0  0  0  0
  6 34  1  0  0  0  0
  6 35  1  0  0  0  0
  7  8  1  0  0  0  0
  7 15  1  0  0  0  0
  7 28  1  1  0  0  0
  9  8  1  0  0  0  0
  9 36  1  0  0  0  0
 10  8  2  0  0  0  0
 10 14  1  0  0  0  0
 11  9  2  0  0  0  0
 11 31  1  0  0  0  0
 12 10  1  0  0  0  0
 12 37  1  0  0  0  0
 13 11  1  0  0  0  0
 13 12  2  0  0  0  0
 13 38  1  0  0  0  0
 15 16  1  0  0  0  0
 15 17  1  0  0  0  0
 15 39  1  6  0  0  0
 17 40  1  0  0  0  0
 17 41  1  0  0  0  0
 17 42  1  0  0  0  0
 18 16  1  0  0  0  0
 19 16  2  0  0  0  0
 20 18  1  0  0  0  0
 20 43  1  0  0  0  0
 21 19  1  0  0  0  0
 21 20  2  0  0  0  0
 21 22  1  0  0  0  0
 23 22  1  0  0  0  0
 23 44  1  0  0  0  0
 24 22  2  0  0  0  0
 24 45  1  0  0  0  0
 25 23  2  0  0  0  0
 25 46  1  0  0  0  0
 26 24  1  0  0  0  0
 26 47  1  0  0  0  0
 27 25  1  0  0  0  0
 27 26  2  0  0  0  0
 27 29  1  0  0  0  0
 28 48  1  0  0  0  0
 29 30  3  0  0  0  0
M  END
>  <DRUGBANK_ID>
DB11633

>  <COMMON_NAME>
Isavuconazole

>  <CAS_NUMBER>
241479-67-4

>  <UNII>
60UTO373KE

>  <SYNONYMS>
isavuconazol; Isavuconazole; isavuconazolum

$$$$
