
 OpenBabel10282417072D

 49 52  0  0  0  0  0  0  0  0999 V2000
    1.4977    0.5560    0.0000 C   0  0  2  0  0  0  0  0  0  0  0  0
    1.4977   -0.2515    0.0000 C   0  0  2  0  0  0  0  0  0  0  0  0
    0.7961   -0.6669    0.0000 C   0  0  2  0  0  0  0  0  0  0  0  0
    0.7961   -1.4976    0.0000 C   0  0  0  0  0  0  0  0  0  0  0  0
    0.0854   -1.9085    0.0000 C   0  0  0  0  0  0  0  0  0  0  0  0
   -0.6300   -1.4976    0.0000 C   0  0  0  0  0  0  0  0  0  0  0  0
   -0.6300   -0.6669    0.0000 C   0  0  1  0  0  0  0  0  0  0  0  0
    0.0854   -0.2515    0.0000 C   0  0  1  0  0  0  0  0  0  0  0  0
    0.0854    0.5560    0.0000 C   0  0  0  0  0  0  0  0  0  0  0  0
    0.7961    0.9716    0.0000 C   0  0  0  0  0  0  0  0  0  0  0  0
    0.0854   -1.0776    0.0000 H   0  0  0  0  0  0  0  0  0  0  0  0
   -1.3501   -0.2515    0.0000 C   0  0  0  0  0  0  0  0  0  0  0  0
   -2.0699   -0.6669    0.0000 C   0  0  0  0  0  0  0  0  0  0  0  0
   -2.0699   -1.4976    0.0000 C   0  0  0  0  0  0  0  0  0  0  0  0
   -2.7854   -1.9085    0.0000 O   0  0  0  0  0  0  0  0  0  0  0  0
   -1.3501   -1.9085    0.0000 C   0  0  0  0  0  0  0  0  0  0  0  0
   -0.6300    0.1546    0.0000 H   0  0  0  0  0  0  0  0  0  0  0  0
    0.7961    0.1546    0.0000 H   0  0  0  0  0  0  0  0  0  0  0  0
    2.2916   -0.5053    0.0000 C   0  0  0  0  0  0  0  0  0  0  0  0
    2.7854    0.1546    0.0000 C   0  0  0  0  0  0  0  0  0  0  0  0
    2.2916    0.8100    0.0000 C   0  0  2  0  0  0  0  0  0  0  0  0
    2.2916    1.6315    0.0000 O   0  0  0  0  0  0  0  0  0  0  0  0
    1.4977   -1.0776    0.0000 H   0  0  0  0  0  0  0  0  0  0  0  0
    1.4977    1.3823    0.0000 C   0  0  0  0  0  0  0  0  0  0  0  0
    0.8700    1.9085    0.0000 C   0  0  0  0  0  0  0  0  0  0  0  0
    1.7229   -2.0323    0.0000 H   0  0  0  0  0  0  0  0  0  0  0  0
    0.7966   -2.5676    0.0000 H   0  0  0  0  0  0  0  0  0  0  0  0
    0.0869   -2.9785    0.0000 H   0  0  0  0  0  0  0  0  0  0  0  0
   -0.8403   -2.4452    0.0000 H   0  0  0  0  0  0  0  0  0  0  0  0
   -0.8427    1.0884    0.0000 H   0  0  0  0  0  0  0  0  0  0  0  0
    0.0809    1.6260    0.0000 H   0  0  0  0  0  0  0  0  0  0  0  0
    0.7991    2.0416    0.0000 H   0  0  0  0  0  0  0  0  0  0  0  0
    1.7265    1.5001    0.0000 H   0  0  0  0  0  0  0  0  0  0  0  0
   -1.3502    0.8185    0.0000 H   0  0  0  0  0  0  0  0  0  0  0  0
   -2.2767    0.2835    0.0000 H   0  0  0  0  0  0  0  0  0  0  0  0
   -2.9965   -0.1318    0.0000 H   0  0  0  0  0  0  0  0  0  0  0  0
   -2.9966   -1.2019    0.0000 H   0  0  0  0  0  0  0  0  0  0  0  0
   -1.3502   -2.9405    0.0000 H   0  0  0  0  0  0  0  0  0  0  0  0
    2.6175   -1.5245    0.0000 H   0  0  0  0  0  0  0  0  0  0  0  0
    3.3468   -0.6826    0.0000 H   0  0  0  0  0  0  0  0  0  0  0  0
    3.8554    0.1564    0.0000 H   0  0  0  0  0  0  0  0  0  0  0  0
    3.2621    1.1126    0.0000 H   0  0  0  0  0  0  0  0  0  0  0  0
    3.3063    1.1495    0.0000 H   0  0  0  0  0  0  0  0  0  0  0  0
    3.1316    2.1165    0.0000 H   0  0  0  0  0  0  0  0  0  0  0  0
    2.4673    1.8347    0.0000 H   0  0  0  0  0  0  0  0  0  0  0  0
    1.6370    2.4432    0.0000 H   0  0  0  0  0  0  0  0  0  0  0  0
    1.0553    2.9623    0.0000 H   0  0  0  0  0  0  0  0  0  0  0  0
   -0.1353    1.5421    0.0000 H   0  0  0  0  0  0  0  0  0  0  0  0
    0.0500    2.5959    0.0000 H   0  0  0  0  0  0  0  0  0  0  0  0
  1 24  1  1  0  0  0
  2  1  1  0  0  0  0
  2 23  1  6  0  0  0
  3  2  1  0  0  0  0
  3  8  1  0  0  0  0
  3 18  1  1  0  0  0
  4  3  1  0  0  0  0
  4 26  1  0  0  0  0
  4 27  1  0  0  0  0
  5  4  1  0  0  0  0
  5 28  1  0  0  0  0
  5 29  1  0  0  0  0
  6  5  1  0  0  0  0
  6  7  1  0  0  0  0
  7  8  1  0  0  0  0
  7 17  1  1  0  0  0
  8  9  1  0  0  0  0
  8 11  1  6  0  0  0
  9 10  1  0  0  0  0
  9 30  1  0  0  0  0
  9 31  1  0  0  0  0
 10  1  1  0  0  0  0
 10 32  1  0  0  0  0
 10 33  1  0  0  0  0
 12  7  1  0  0  0  0
 12 34  1  0  0  0  0
 12 35  1  0  0  0  0
 13 12  1  0  0  0  0
 13 36  1  0  0  0  0
 13 37  1  0  0  0  0
 14 13  1  0  0  0  0
 15 14  2  0  0  0  0
 16 14  1  0  0  0  0
 16  6  2  0  0  0  0
 16 38  1  0  0  0  0
 19  2  1  0  0  0  0
 19 20  1  0  0  0  0
 19 39  1  0  0  0  0
 19 40  1  0  0  0  0
 20 21  1  0  0  0  0
 20 41  1  0  0  0  0
 20 42  1  0  0  0  0
 21  1  1  0  0  0  0
 21 22  1  0  0  0  0
 21 43  1  6  0  0  0
 22 44  1  0  0  0  0
 24 45  1  0  0  0  0
 24 46  1  0  0  0  0
 25 24  1  0  0  0  0
 25 47  1  0  0  0  0
 25 48  1  0  0  0  0
 25 49  1  0  0  0  0
M  END
>  <DRUGBANK_ID>
DB01543

>  <COMMON_NAME>
18-methyl-19-nortestosterone

>  <CAS_NUMBER>
793-55-5

>  <UNII>
6AL6ML53DZ

>  <SYNONYMS>
13beta-ethyl-17beta-hydroxygon-4-en-3-one

$$$$
