
 OpenBabel10282417072D

138140  0  0  1  0  0  0  0  0999 V2000
   16.6412  -10.7168    0.0000 N   0  0  0  0  0  0  0  0  0  0  0  0
   15.9133  -10.2801    0.0000 C   0  0  0  0  0  0  0  0  0  0  0  0
   15.1369  -10.7168    0.0000 C   0  0  0  0  0  0  0  0  0  0  0  0
   14.4575  -10.2801    0.0000 N   0  0  0  0  0  0  0  0  0  0  0  0
   13.7296  -10.7168    0.0000 C   0  0  0  0  0  0  0  0  0  0  0  0
   13.0017  -10.2801    0.0000 C   0  0  1  0  0  0  0  0  0  0  0  0
   12.2738  -10.7168    0.0000 N   0  0  0  0  0  0  0  0  0  0  0  0
   11.5459  -10.2801    0.0000 C   0  0  0  0  0  0  0  0  0  0  0  0
   10.8180  -10.7168    0.0000 O   0  0  0  0  0  0  0  0  0  0  0  0
   15.9133   -9.4551    0.0000 O   0  0  0  0  0  0  0  0  0  0  0  0
   13.7296  -11.5418    0.0000 O   0  0  0  0  0  0  0  0  0  0  0  0
   13.0017   -9.4551    0.0000 C   0  0  0  0  0  0  0  0  0  0  0  0
   13.7296   -9.0184    0.0000 C   0  0  0  0  0  0  0  0  0  0  0  0
   14.4575   -9.4551    0.0000 C   0  0  0  0  0  0  0  0  0  0  0  0
   11.5459   -9.4551    0.0000 C   0  0  2  0  0  0  0  0  0  0  0  0
   12.2252   -8.9699    0.0000 C   0  0  0  0  0  0  0  0  0  0  0  0
   10.8665   -8.9699    0.0000 N   0  0  0  0  0  0  0  0  0  0  0  0
   11.9341   -8.1449    0.0000 C   0  0  0  0  0  0  0  0  0  0  0  0
   11.1091   -8.1449    0.0000 C   0  0  0  0  0  0  0  0  0  0  0  0
   10.1386   -9.3581    0.0000 C   0  0  0  0  0  0  0  0  0  0  0  0
    9.4107   -8.9699    0.0000 C   0  0  1  0  0  0  0  0  0  0  0  0
    8.6828   -9.3581    0.0000 N   0  0  0  0  0  0  0  0  0  0  0  0
    7.9549   -8.9699    0.0000 C   0  0  0  0  0  0  0  0  0  0  0  0
    7.2270   -9.3581    0.0000 C   0  0  1  0  0  0  0  0  0  0  0  0
    6.4991   -8.9699    0.0000 N   0  0  0  0  0  0  0  0  0  0  0  0
   10.1386  -10.1831    0.0000 O   0  0  0  0  0  0  0  0  0  0  0  0
    9.4107   -8.1449    0.0000 C   0  0  0  0  0  0  0  0  0  0  0  0
   10.1386   -7.7082    0.0000 S   0  0  0  0  0  0  0  0  0  0  0  0
   10.1386   -6.8347    0.0000 C   0  0  0  0  0  0  0  0  0  0  0  0
    7.9549   -8.1449    0.0000 O   0  0  0  0  0  0  0  0  0  0  0  0
    7.2270  -10.1831    0.0000 C   0  0  0  0  0  0  0  0  0  0  0  0
    6.4991  -10.6198    0.0000 C   0  0  0  0  0  0  0  0  0  0  0  0
    6.4991  -11.4933    0.0000 O   0  0  0  0  0  0  0  0  0  0  0  0
    5.7712  -10.2316    0.0000 N   0  0  0  0  0  0  0  0  0  0  0  0
    6.4991   -8.1449    0.0000 C   0  0  0  0  0  0  0  0  0  0  0  0
    5.7227   -7.7082    0.0000 C   0  0  2  0  0  0  0  0  0  0  0  0
    7.2270   -7.7082    0.0000 O   0  0  0  0  0  0  0  0  0  0  0  0
    5.0433   -8.1449    0.0000 C   0  0  0  0  0  0  0  0  0  0  0  0
    4.3154   -7.7082    0.0000 C   0  0  0  0  0  0  0  0  0  0  0  0
    3.5875   -8.1449    0.0000 C   0  0  0  0  0  0  0  0  0  0  0  0
    2.8596   -7.7082    0.0000 N   0  0  0  0  0  0  0  0  0  0  0  0
    3.5875   -8.9699    0.0000 O   0  0  0  0  0  0  0  0  0  0  0  0
    5.7227   -6.8832    0.0000 N   0  0  0  0  0  0  0  0  0  0  0  0
    5.0433   -5.6215    0.0000 C   0  0  0  0  0  0  0  0  0  0  0  0
    5.7227   -5.1848    0.0000 C   0  0  1  0  0  0  0  0  0  0  0  0
    6.4991   -5.6215    0.0000 C   0  0  1  0  0  0  0  0  0  0  0  0
    6.4991   -6.4464    0.0000 C   0  0  0  0  0  0  0  0  0  0  0  0
    4.3154   -5.1848    0.0000 C   0  0  0  0  0  0  0  0  0  0  0  0
    9.4107   -5.6215    0.0000 N   0  0  0  0  0  0  0  0  0  0  0  0
   10.1386   -5.1848    0.0000 C   0  0  0  0  0  0  0  0  0  0  0  0
   10.8665   -5.6215    0.0000 C   0  0  0  0  0  0  0  0  0  0  0  0
   10.8665   -6.4464    0.0000 C   0  0  0  0  0  0  0  0  0  0  0  0
    7.9549   -5.6215    0.0000 C   0  0  0  0  0  0  0  0  0  0  0  0
    7.9549   -6.4464    0.0000 O   0  0  0  0  0  0  0  0  0  0  0  0
    8.6828   -5.1848    0.0000 C   0  0  2  0  0  0  0  0  0  0  0  0
    7.2270   -5.1848    0.0000 N   0  0  0  0  0  0  0  0  0  0  0  0
    7.2270   -6.8347    0.0000 O   0  0  0  0  0  0  0  0  0  0  0  0
    8.6828   -4.3113    0.0000 C   0  0  0  0  0  0  0  0  0  0  0  0
    7.2270   -4.3113    0.0000 C   0  0  0  0  0  0  0  0  0  0  0  0
    7.9549   -3.9231    0.0000 C   0  0  0  0  0  0  0  0  0  0  0  0
    6.4991   -3.9231    0.0000 C   0  0  0  0  0  0  0  0  0  0  0  0
    6.4991   -3.0981    0.0000 C   0  0  0  0  0  0  0  0  0  0  0  0
    7.9549   -3.0981    0.0000 C   0  0  0  0  0  0  0  0  0  0  0  0
    7.2270   -2.6614    0.0000 C   0  0  0  0  0  0  0  0  0  0  0  0
   10.1386   -4.3113    0.0000 O   0  0  0  0  0  0  0  0  0  0  0  0
    6.4991   -4.7965    0.0000 H   0  0  0  0  0  0  0  0  0  0  0  0
    5.7712   -2.6614    0.0000 O   0  0  0  0  0  0  0  0  0  0  0  0
   13.7296   -8.1934    0.0000 C   0  0  0  0  0  0  0  0  0  0  0  0
    5.7227   -4.3598    0.0000 C   0  0  0  0  0  0  0  0  0  0  0  0
    5.7227   -1.8364    0.0000 C   0  0  0  0  0  0  0  0  0  0  0  0
   16.6247  -11.7012    0.0000 H   0  0  0  0  0  0  0  0  0  0  0  0
   17.5019  -10.2389    0.0000 H   0  0  0  0  0  0  0  0  0  0  0  0
   15.1054  -11.7863    0.0000 H   0  0  0  0  0  0  0  0  0  0  0  0
   14.1903  -11.2157    0.0000 H   0  0  0  0  0  0  0  0  0  0  0  0
   14.4727   -9.2957    0.0000 H   0  0  0  0  0  0  0  0  0  0  0  0
   13.9328   -9.7529    0.0000 H   0  0  0  0  0  0  0  0  0  0  0  0
   12.2738  -11.7013    0.0000 H   0  0  0  0  0  0  0  0  0  0  0  0
   12.0706   -8.9279    0.0000 H   0  0  0  0  0  0  0  0  0  0  0  0
   12.9882   -8.3852    0.0000 H   0  0  0  0  0  0  0  0  0  0  0  0
   14.6607   -8.4912    0.0000 H   0  0  0  0  0  0  0  0  0  0  0  0
   14.4395  -10.5249    0.0000 H   0  0  0  0  0  0  0  0  0  0  0  0
   15.3930   -8.9357    0.0000 H   0  0  0  0  0  0  0  0  0  0  0  0
   15.3750  -10.0056    0.0000 H   0  0  0  0  0  0  0  0  0  0  0  0
   12.4973   -9.9447    0.0000 H   0  0  0  0  0  0  0  0  0  0  0  0
   13.2456   -9.2919    0.0000 H   0  0  0  0  0  0  0  0  0  0  0  0
   12.9690   -8.2007    0.0000 H   0  0  0  0  0  0  0  0  0  0  0  0
   12.5521   -7.2714    0.0000 H   0  0  0  0  0  0  0  0  0  0  0  0
   11.4424   -7.1946    0.0000 H   0  0  0  0  0  0  0  0  0  0  0  0
   10.4680   -7.2882    0.0000 H   0  0  0  0  0  0  0  0  0  0  0  0
   11.5881   -7.1881    0.0000 H   0  0  0  0  0  0  0  0  0  0  0  0
    9.4107  -10.0399    0.0000 H   0  0  0  0  0  0  0  0  0  0  0  0
    8.6828  -10.3426    0.0000 H   0  0  0  0  0  0  0  0  0  0  0  0
    8.1445   -9.9086    0.0000 H   0  0  0  0  0  0  0  0  0  0  0  0
    5.6549   -9.4764    0.0000 H   0  0  0  0  0  0  0  0  0  0  0  0
    8.4796   -7.6177    0.0000 H   0  0  0  0  0  0  0  0  0  0  0  0
    9.3972   -7.0750    0.0000 H   0  0  0  0  0  0  0  0  0  0  0  0
    9.2211   -6.2842    0.0000 H   0  0  0  0  0  0  0  0  0  0  0  0
   10.1655   -5.7650    0.0000 H   0  0  0  0  0  0  0  0  0  0  0  0
    8.1581  -10.7103    0.0000 H   0  0  0  0  0  0  0  0  0  0  0  0
    7.2405  -11.2530    0.0000 H   0  0  0  0  0  0  0  0  0  0  0  0
    5.7381   -9.2477    0.0000 H   0  0  0  0  0  0  0  0  0  0  0  0
    4.9356  -10.7523    0.0000 H   0  0  0  0  0  0  0  0  0  0  0  0
    5.7542   -8.7777    0.0000 H   0  0  0  0  0  0  0  0  0  0  0  0
    5.0598   -9.2148    0.0000 H   0  0  0  0  0  0  0  0  0  0  0  0
    4.1163   -8.6793    0.0000 H   0  0  0  0  0  0  0  0  0  0  0  0
    4.3154   -6.6382    0.0000 H   0  0  0  0  0  0  0  0  0  0  0  0
    3.3843   -7.1810    0.0000 H   0  0  0  0  0  0  0  0  0  0  0  0
    2.8761   -6.7238    0.0000 H   0  0  0  0  0  0  0  0  0  0  0  0
    1.9989   -8.1861    0.0000 H   0  0  0  0  0  0  0  0  0  0  0  0
    4.8729   -6.3862    0.0000 H   0  0  0  0  0  0  0  0  0  0  0  0
    5.0598   -6.6914    0.0000 H   0  0  0  0  0  0  0  0  0  0  0  0
    4.1163   -6.1559    0.0000 H   0  0  0  0  0  0  0  0  0  0  0  0
    4.7836   -4.6720    0.0000 H   0  0  0  0  0  0  0  0  0  0  0  0
    4.3334   -4.1150    0.0000 H   0  0  0  0  0  0  0  0  0  0  0  0
    3.3799   -5.7042    0.0000 H   0  0  0  0  0  0  0  0  0  0  0  0
    3.3979   -4.6343    0.0000 H   0  0  0  0  0  0  0  0  0  0  0  0
    9.4107   -6.6060    0.0000 H   0  0  0  0  0  0  0  0  0  0  0  0
   11.7976   -5.0943    0.0000 H   0  0  0  0  0  0  0  0  0  0  0  0
   11.7909   -6.1604    0.0000 H   0  0  0  0  0  0  0  0  0  0  0  0
   11.7840   -6.9969    0.0000 H   0  0  0  0  0  0  0  0  0  0  0  0
   11.7976   -5.9192    0.0000 H   0  0  0  0  0  0  0  0  0  0  0  0
    9.6139   -4.6576    0.0000 H   0  0  0  0  0  0  0  0  0  0  0  0
    7.2270   -4.2003    0.0000 H   0  0  0  0  0  0  0  0  0  0  0  0
    9.6003   -3.7608    0.0000 H   0  0  0  0  0  0  0  0  0  0  0  0
    8.6558   -3.2416    0.0000 H   0  0  0  0  0  0  0  0  0  0  0  0
    7.2270   -5.3433    0.0000 H   0  0  0  0  0  0  0  0  0  0  0  0
    5.6142   -4.4541    0.0000 H   0  0  0  0  0  0  0  0  0  0  0  0
    8.8529   -2.5896    0.0000 H   0  0  0  0  0  0  0  0  0  0  0  0
    7.2270   -1.6294    0.0000 H   0  0  0  0  0  0  0  0  0  0  0  0
   14.6562   -7.6584    0.0000 H   0  0  0  0  0  0  0  0  0  0  0  0
   12.8030   -7.6584    0.0000 H   0  0  0  0  0  0  0  0  0  0  0  0
   13.7296   -7.1234    0.0000 H   0  0  0  0  0  0  0  0  0  0  0  0
    6.6493   -3.8248    0.0000 H   0  0  0  0  0  0  0  0  0  0  0  0
    4.7961   -3.8248    0.0000 H   0  0  0  0  0  0  0  0  0  0  0  0
    5.7227   -3.2898    0.0000 H   0  0  0  0  0  0  0  0  0  0  0  0
    6.6164   -1.2479    0.0000 H   0  0  0  0  0  0  0  0  0  0  0  0
    4.7663   -1.3567    0.0000 H   0  0  0  0  0  0  0  0  0  0  0  0
    5.6599   -0.7682    0.0000 H   0  0  0  0  0  0  0  0  0  0  0  0
  1 71  1  0  0  0  0
  1 72  1  0  0  0  0
  2  1  1  0  0  0  0
  3  2  1  0  0  0  0
  3 73  1  0  0  0  0
  3 74  1  0  0  0  0
  4  3  1  0  0  0  0
  4 75  1  0  0  0  0
  5  4  1  0  0  0  0
  6  5  1  0  0  0  0
  6 12  1  0  0  0  0
  6 76  1  6  0  0  0
  7  6  1  0  0  0  0
  7 77  1  0  0  0  0
  8  7  1  0  0  0  0
  9  8  2  0  0  0  0
 10  2  2  0  0  0  0
 11  5  2  0  0  0  0
 12 78  1  0  0  0  0
 12 79  1  0  0  0  0
 13 12  1  0  0  0  0
 13 80  1  0  0  0  0
 14 13  1  0  0  0  0
 14 81  1  0  0  0  0
 14 82  1  0  0  0  0
 14 83  1  0  0  0  0
 15  8  1  0  0  0  0
 15 84  1  6  0  0  0
 16 15  1  0  0  0  0
 16 85  1  0  0  0  0
 16 86  1  0  0  0  0
 17 15  1  0  0  0  0
 18 16  1  0  0  0  0
 18 87  1  0  0  0  0
 18 88  1  0  0  0  0
 19 17  1  0  0  0  0
 19 18  1  0  0  0  0
 19 89  1  0  0  0  0
 19 90  1  0  0  0  0
 20 17  1  0  0  0  0
 21 20  1  0  0  0  0
 21 22  1  0  0  0  0
 21 91  1  6  0  0  0
 22 92  1  0  0  0  0
 23 22  1  0  0  0  0
 24 23  1  0  0  0  0
 24 31  1  0  0  0  0
 24 93  1  1  0  0  0
 25 24  1  0  0  0  0
 25 94  1  0  0  0  0
 26 20  2  0  0  0  0
 27 21  1  0  0  0  0
 27 95  1  0  0  0  0
 27 96  1  0  0  0  0
 28 27  1  0  0  0  0
 29 28  1  0  0  0  0
 29 97  1  0  0  0  0
 29 98  1  0  0  0  0
 30 23  2  0  0  0  0
 31 99  1  0  0  0  0
 31100  1  0  0  0  0
 32 31  1  0  0  0  0
 33 32  2  0  0  0  0
 34 32  1  0  0  0  0
 34101  1  0  0  0  0
 34102  1  0  0  0  0
 35 25  1  0  0  0  0
 36 35  1  0  0  0  0
 36 38  1  0  0  0  0
 36103  1  1  0  0  0
 37 35  2  0  0  0  0
 38104  1  0  0  0  0
 38105  1  0  0  0  0
 39 38  1  0  0  0  0
 39106  1  0  0  0  0
 39107  1  0  0  0  0
 40 39  1  0  0  0  0
 41 40  1  0  0  0  0
 41108  1  0  0  0  0
 41109  1  0  0  0  0
 42 40  2  0  0  0  0
 43 36  1  0  0  0  0
 43110  1  0  0  0  0
 44111  1  0  0  0  0
 44112  1  0  0  0  0
 45 44  1  0  0  0  0
 45 69  1  0  0  0  0
 45113  1  1  0  0  0
 46 45  1  0  0  0  0
 46 66  1  1  0  0  0
 47 43  1  0  0  0  0
 47 46  1  0  0  0  0
 48 44  1  0  0  0  0
 48114  1  0  0  0  0
 48115  1  0  0  0  0
 48116  1  0  0  0  0
 49117  1  0  0  0  0
 50 49  1  0  0  0  0
 51 50  1  0  0  0  0
 51118  1  0  0  0  0
 51119  1  0  0  0  0
 52 29  1  0  0  0  0
 52 51  1  0  0  0  0
 52120  1  0  0  0  0
 52121  1  0  0  0  0
 54 53  2  0  0  0  0
 55 49  1  0  0  0  0
 55 53  1  0  0  0  0
 55 58  1  0  0  0  0
 55122  1  1  0  0  0
 56 46  1  0  0  0  0
 56 53  1  0  0  0  0
 56123  1  0  0  0  0
 57 47  2  0  0  0  0
 58124  1  0  0  0  0
 58125  1  0  0  0  0
 59126  1  0  0  0  0
 60 58  1  0  0  0  0
 60 59  1  0  0  0  0
 61 59  2  0  0  0  0
 61127  1  0  0  0  0
 62 61  1  0  0  0  0
 63 60  2  0  0  0  0
 63128  1  0  0  0  0
 64 62  2  0  0  0  0
 64 63  1  0  0  0  0
 64129  1  0  0  0  0
 65 50  2  0  0  0  0
 67 62  1  0  0  0  0
 68 13  1  0  0  0  0
 68130  1  0  0  0  0
 68131  1  0  0  0  0
 68132  1  0  0  0  0
 69133  1  0  0  0  0
 69134  1  0  0  0  0
 69135  1  0  0  0  0
 70 67  1  0  0  0  0
 70136  1  0  0  0  0
 70137  1  0  0  0  0
 70138  1  0  0  0  0
M  END
>  <DRUGBANK_ID>
DB01282

>  <COMMON_NAME>
Carbetocin

>  <CAS_NUMBER>
37025-55-1

>  <UNII>
88TWF8015Y

>  <SYNONYMS>
1-butanoic acid-2-(O-methyl-L-tyrosine)-1-carbaoxytocin; 1-butyric acid-2-(3-(p-methoxyphenyl)-L-alanine)oxytocin; Carbetocin; Carbetocina; Carbetocino; Carbetocinum; deamino-2-O-methyltyrosine-1-carbaoxytocin

$$$$
