
 OpenBabel10282417072D

 31 32  0  0  1  0  0  0  0  0999 V2000
    0.8106   -1.0709    0.0000 C   0  0  0  0  0  0  0  0  0  0  0  0
    0.8106   -0.2459    0.0000 C   0  0  1  0  0  0  0  0  0  0  0  0
    0.0962    0.1666    0.0000 C   0  0  1  0  0  0  0  0  0  0  0  0
    0.0962    0.9916    0.0000 C   0  0  0  0  0  0  0  0  0  0  0  0
    0.8106    1.4041    0.0000 C   0  0  1  0  0  0  0  0  0  0  0  0
    1.5251    0.9916    0.0000 C   0  0  0  0  0  0  0  0  0  0  0  0
    1.5251    0.1666    0.0000 C   0  0  2  0  0  0  0  0  0  0  0  0
    2.2396   -0.2459    0.0000 O   0  0  0  0  0  0  0  0  0  0  0  0
    0.9481    0.8541    0.0000 C   0  0  0  0  0  0  0  0  0  0  0  0
    0.9481    0.3041    0.0000 O   0  0  0  0  0  0  0  0  0  0  0  0
    0.1925    0.5230    0.0000 C   0  0  0  0  0  0  0  0  0  0  0  0
    0.3585    0.2770    0.0000 C   0  0  0  0  0  0  0  0  0  0  0  0
   -0.6183   -0.2459    0.0000 O   0  0  0  0  0  0  0  0  0  0  0  0
   -0.1160   -1.6059    0.0000 H   0  0  0  0  0  0  0  0  0  0  0  0
    1.7372   -1.6059    0.0000 H   0  0  0  0  0  0  0  0  0  0  0  0
    0.8106   -2.1409    0.0000 H   0  0  0  0  0  0  0  0  0  0  0  0
    0.0962   -0.9034    0.0000 H   0  0  0  0  0  0  0  0  0  0  0  0
   -0.8305    1.5266    0.0000 H   0  0  0  0  0  0  0  0  0  0  0  0
    0.0962    2.0616    0.0000 H   0  0  0  0  0  0  0  0  0  0  0  0
    0.8106    0.3341    0.0000 H   0  0  0  0  0  0  0  0  0  0  0  0
    2.4517    1.5266    0.0000 H   0  0  0  0  0  0  0  0  0  0  0  0
    2.4517    0.4566    0.0000 H   0  0  0  0  0  0  0  0  0  0  0  0
    2.4517    0.7016    0.0000 H   0  0  0  0  0  0  0  0  0  0  0  0
    2.2396   -1.2159    0.0000 H   0  0  0  0  0  0  0  0  0  0  0  0
   -0.6694    1.1570    0.0000 H   0  0  0  0  0  0  0  0  0  0  0  0
    0.0744   -0.5405    0.0000 H   0  0  0  0  0  0  0  0  0  0  0  0
   -0.7875    0.0936    0.0000 H   0  0  0  0  0  0  0  0  0  0  0  0
   -0.6720    0.5650    0.0000 H   0  0  0  0  0  0  0  0  0  0  0  0
    0.6243   -0.7594    0.0000 H   0  0  0  0  0  0  0  0  0  0  0  0
   -0.4062   -0.4715    0.0000 H   0  0  0  0  0  0  0  0  0  0  0  0
   -1.4583    0.2391    0.0000 H   0  0  0  0  0  0  0  0  0  0  0  0
  1 14  1  0  0  0  0
  1 15  1  0  0  0  0
  1 16  1  0  0  0  0
  2  1  1  6  0  0  0
  2  3  1  0  0  0  0
  2  7  1  0  0  0  0
  2 10  1  0  0  0  0
  3  4  1  0  0  0  0
  3 13  1  0  0  0  0
  3 17  1  1  0  0  0
  4 18  1  0  0  0  0
  4 19  1  0  0  0  0
  5  4  1  0  0  0  0
  5  6  1  0  0  0  0
  5  9  1  0  0  0  0
  5 20  1  6  0  0  0
  6  7  1  0  0  0  0
  6 21  1  0  0  0  0
  6 22  1  0  0  0  0
  7  8  1  0  0  0  0
  7 23  1  1  0  0  0
  8 24  1  0  0  0  0
  9 10  1  0  0  0  0
  9 11  1  0  0  0  0
  9 12  1  0  0  0  0
 11 25  1  0  0  0  0
 11 26  1  0  0  0  0
 11 27  1  0  0  0  0
 12 28  1  0  0  0  0
 12 29  1  0  0  0  0
 12 30  1  0  0  0  0
 13 31  1  0  0  0  0
M  END
>  <DRUGBANK_ID>
DB13802

>  <COMMON_NAME>
Epomediol

>  <CAS_NUMBER>
1310101-21-3

>  <UNII>
KFU4XSK3BK

$$$$
