
 OpenBabel10282417072D

 72 75  0  0  1  0  0  0  0  0999 V2000
   -3.2871    5.0203    0.0000 C   0  0  0  0  0  0  0  0  0  0  0  0
   -2.4801    4.8488    0.0000 C   0  0  0  0  0  0  0  0  0  0  0  0
   -2.2252    4.0641    0.0000 C   0  0  0  0  0  0  0  0  0  0  0  0
   -1.4182    3.8926    0.0000 C   0  0  0  0  0  0  0  0  0  0  0  0
   -1.1633    3.1080    0.0000 C   0  0  0  0  0  0  0  0  0  0  0  0
   -1.7153    2.4949    0.0000 C   0  0  0  0  0  0  0  0  0  0  0  0
   -2.5223    2.6664    0.0000 C   0  0  0  0  0  0  0  0  0  0  0  0
   -2.7772    3.4510    0.0000 C   0  0  0  0  0  0  0  0  0  0  0  0
   -1.4604    1.7103    0.0000 C   0  0  0  0  0  0  0  0  0  0  0  0
   -2.2450    1.4553    0.0000 C   0  0  0  0  0  0  0  0  0  0  0  0
   -2.4165    0.6484    0.0000 C   0  0  0  0  0  0  0  0  0  0  0  0
   -0.6757    1.9652    0.0000 C   0  0  0  0  0  0  0  0  0  0  0  0
   -0.5042    2.7722    0.0000 C   0  0  0  0  0  0  0  0  0  0  0  0
   -1.2054    0.9256    0.0000 N   0  0  0  0  0  0  0  0  0  0  0  0
   -0.3984    0.7541    0.0000 C   0  0  0  0  0  0  0  0  0  0  0  0
    0.1536    1.3672    0.0000 O   0  0  0  0  0  0  0  0  0  0  0  0
   -0.1435   -0.0305    0.0000 C   0  0  0  0  0  0  0  0  0  0  0  0
   -0.6284   -0.6979    0.0000 C   0  0  0  0  0  0  0  0  0  0  0  0
   -1.4534   -0.6979    0.0000 C   0  0  0  0  0  0  0  0  0  0  0  0
   -0.1435   -1.3654    0.0000 N   0  0  0  0  0  0  0  0  0  0  0  0
    0.6411   -1.1104    0.0000 N   0  0  0  0  0  0  0  0  0  0  0  0
    0.6411   -0.2854    0.0000 C   0  0  0  0  0  0  0  0  0  0  0  0
    1.3556    0.1271    0.0000 N   0  0  0  0  0  0  0  0  0  0  0  0
    2.0701   -0.2854    0.0000 C   0  0  2  0  0  0  0  0  0  0  0  0
    2.0701   -1.1104    0.0000 C   0  0  0  0  0  0  0  0  0  0  0  0
    1.3556   -1.5229    0.0000 C   0  0  0  0  0  0  0  0  0  0  0  0
    1.7429   -2.2514    0.0000 C   0  0  0  0  0  0  0  0  0  0  0  0
    0.9683   -2.2514    0.0000 C   0  0  0  0  0  0  0  0  0  0  0  0
    2.7845    0.1271    0.0000 C   0  0  0  0  0  0  0  0  0  0  0  0
    2.7845    0.9521    0.0000 C   0  0  0  0  0  0  0  0  0  0  0  0
    3.4990    1.3646    0.0000 C   0  0  0  0  0  0  0  0  0  0  0  0
    4.2135    0.9521    0.0000 C   0  0  0  0  0  0  0  0  0  0  0  0
    4.2135    0.1271    0.0000 C   0  0  0  0  0  0  0  0  0  0  0  0
    3.4990   -0.2854    0.0000 C   0  0  0  0  0  0  0  0  0  0  0  0
   -3.6178    6.0379    0.0000 H   0  0  0  0  0  0  0  0  0  0  0  0
   -4.0030    4.2251    0.0000 H   0  0  0  0  0  0  0  0  0  0  0  0
   -4.3337    5.2427    0.0000 H   0  0  0  0  0  0  0  0  0  0  0  0
   -1.7641    5.6440    0.0000 H   0  0  0  0  0  0  0  0  0  0  0  0
   -1.4335    4.6263    0.0000 H   0  0  0  0  0  0  0  0  0  0  0  0
   -0.7277    4.6595    0.0000 H   0  0  0  0  0  0  0  0  0  0  0  0
   -0.1539    2.8934    0.0000 H   0  0  0  0  0  0  0  0  0  0  0  0
   -3.2128    1.8995    0.0000 H   0  0  0  0  0  0  0  0  0  0  0  0
   -3.7866    3.6656    0.0000 H   0  0  0  0  0  0  0  0  0  0  0  0
   -3.0402    2.1712    0.0000 H   0  0  0  0  0  0  0  0  0  0  0  0
   -3.2626    1.1246    0.0000 H   0  0  0  0  0  0  0  0  0  0  0  0
   -3.4341    0.3177    0.0000 H   0  0  0  0  0  0  0  0  0  0  0  0
   -1.6213   -0.0676    0.0000 H   0  0  0  0  0  0  0  0  0  0  0  0
   -2.6390   -0.3982    0.0000 H   0  0  0  0  0  0  0  0  0  0  0  0
    0.1195    1.2492    0.0000 H   0  0  0  0  0  0  0  0  0  0  0  0
    0.3419    2.2959    0.0000 H   0  0  0  0  0  0  0  0  0  0  0  0
    0.5134    3.1029    0.0000 H   0  0  0  0  0  0  0  0  0  0  0  0
   -1.2994    3.4881    0.0000 H   0  0  0  0  0  0  0  0  0  0  0  0
   -0.2818    3.8188    0.0000 H   0  0  0  0  0  0  0  0  0  0  0  0
   -1.8641    0.1939    0.0000 H   0  0  0  0  0  0  0  0  0  0  0  0
   -1.9884    0.2287    0.0000 H   0  0  0  0  0  0  0  0  0  0  0  0
   -1.9884   -1.6245    0.0000 H   0  0  0  0  0  0  0  0  0  0  0  0
   -2.5234   -0.6979    0.0000 H   0  0  0  0  0  0  0  0  0  0  0  0
    1.3556    1.1116    0.0000 H   0  0  0  0  0  0  0  0  0  0  0  0
    2.0701    0.7846    0.0000 H   0  0  0  0  0  0  0  0  0  0  0  0
    2.9967   -1.6454    0.0000 H   0  0  0  0  0  0  0  0  0  0  0  0
    2.0701   -2.1804    0.0000 H   0  0  0  0  0  0  0  0  0  0  0  0
    1.1758   -3.1588    0.0000 H   0  0  0  0  0  0  0  0  0  0  0  0
    2.8122   -2.2888    0.0000 H   0  0  0  0  0  0  0  0  0  0  0  0
    2.2452   -3.1962    0.0000 H   0  0  0  0  0  0  0  0  0  0  0  0
   -0.1010   -2.2888    0.0000 H   0  0  0  0  0  0  0  0  0  0  0  0
    1.5354   -3.1588    0.0000 H   0  0  0  0  0  0  0  0  0  0  0  0
    0.4660   -3.1962    0.0000 H   0  0  0  0  0  0  0  0  0  0  0  0
    1.8908    1.4681    0.0000 H   0  0  0  0  0  0  0  0  0  0  0  0
    3.4990    2.3966    0.0000 H   0  0  0  0  0  0  0  0  0  0  0  0
    5.1072    1.4681    0.0000 H   0  0  0  0  0  0  0  0  0  0  0  0
    5.1072   -0.3889    0.0000 H   0  0  0  0  0  0  0  0  0  0  0  0
    3.4990   -1.3174    0.0000 H   0  0  0  0  0  0  0  0  0  0  0  0
  1  2  1  0  0  0  0
  1 35  1  0  0  0  0
  1 36  1  0  0  0  0
  1 37  1  0  0  0  0
  2  3  1  0  0  0  0
  2 38  1  0  0  0  0
  2 39  1  0  0  0  0
  3  4  2  0  0  0  0
  3  8  1  0  0  0  0
  4  5  1  0  0  0  0
  4 40  1  0  0  0  0
  5  6  2  0  0  0  0
  5 41  1  0  0  0  0
  6  7  1  0  0  0  0
  6  9  1  0  0  0  0
  7  8  2  0  0  0  0
  7 42  1  0  0  0  0
  8 43  1  0  0  0  0
  9 10  1  0  0  0  0
  9 12  1  0  0  0  0
  9 14  1  0  0  0  0
 10 11  1  0  0  0  0
 10 44  1  0  0  0  0
 10 45  1  0  0  0  0
 11 46  1  0  0  0  0
 11 47  1  0  0  0  0
 11 48  1  0  0  0  0
 12 13  1  0  0  0  0
 12 49  1  0  0  0  0
 12 50  1  0  0  0  0
 13 51  1  0  0  0  0
 13 52  1  0  0  0  0
 13 53  1  0  0  0  0
 14 15  1  0  0  0  0
 14 54  1  0  0  0  0
 15 16  2  0  0  0  0
 15 17  1  0  0  0  0
 17 18  1  0  0  0  0
 17 22  2  0  0  0  0
 18 19  1  0  0  0  0
 18 20  2  0  0  0  0
 19 55  1  0  0  0  0
 19 56  1  0  0  0  0
 19 57  1  0  0  0  0
 20 21  1  0  0  0  0
 21 22  1  0  0  0  0
 21 26  1  0  0  0  0
 22 23  1  0  0  0  0
 23 58  1  0  0  0  0
 24 23  1  0  0  0  0
 24 25  1  0  0  0  0
 24 29  1  0  0  0  0
 24 59  1  6  0  0  0
 25 26  1  0  0  0  0
 25 60  1  0  0  0  0
 25 61  1  0  0  0  0
 26 27  1  0  0  0  0
 26 28  1  0  0  0  0
 27 62  1  0  0  0  0
 27 63  1  0  0  0  0
 27 64  1  0  0  0  0
 28 65  1  0  0  0  0
 28 66  1  0  0  0  0
 28 67  1  0  0  0  0
 29 30  2  0  0  0  0
 29 34  1  0  0  0  0
 30 31  1  0  0  0  0
 30 68  1  0  0  0  0
 31 32  2  0  0  0  0
 31 69  1  0  0  0  0
 32 33  1  0  0  0  0
 32 70  1  0  0  0  0
 33 34  2  0  0  0  0
 33 71  1  0  0  0  0
 34 72  1  0  0  0  0
M  END
>  <DRUGBANK_ID>
DB18268

>  <COMMON_NAME>
TAK-075 Free base

>  <CAS_NUMBER>
667931-25-1

>  <UNII>
4B002AUC52

>  <SYNONYMS>
Pyrazolo(1,5-a)pyrimidine-3-carboxamide, n-(1-ethyl-1-(4-ethylphenyl)propyl)-4,5,6,7-tetrahydro-2,7,7-trimethyl-5-phenyl-, (5r)-

$$$$
