
 OpenBabel10282417072D

 27 28  0  0  1  0  0  0  0  0999 V2000
    1.2564   -0.1802    0.0000 O   0  0  0  0  0  0  0  0  0  0  0  0
    1.2564   -1.0052    0.0000 C   0  0  1  0  0  0  0  0  0  0  0  0
    1.9239   -1.4901    0.0000 C   0  0  2  0  0  0  0  0  0  0  0  0
    2.7085   -1.2352    0.0000 O   0  0  0  0  0  0  0  0  0  0  0  0
    1.6689   -2.2748    0.0000 C   0  0  2  0  0  0  0  0  0  0  0  0
    0.8439   -2.2748    0.0000 O   0  0  0  0  0  0  0  0  0  0  0  0
    0.5890   -1.4901    0.0000 C   0  0  2  0  0  0  0  0  0  0  0  0
   -0.1956   -1.2352    0.0000 C   0  0  0  0  0  0  0  0  0  0  0  0
   -0.3672   -0.4282    0.0000 F   0  0  0  0  0  0  0  0  0  0  0  0
    2.1538   -2.9422    0.0000 N   0  0  0  0  0  0  0  0  0  0  0  0
    2.9788   -2.9422    0.0000 C   0  0  0  0  0  0  0  0  0  0  0  0
    3.2338   -3.7268    0.0000 C   0  0  0  0  0  0  0  0  0  0  0  0
    2.5663   -4.2117    0.0000 N   0  0  0  0  0  0  0  0  0  0  0  0
    1.8989   -3.7268    0.0000 C   0  0  0  0  0  0  0  0  0  0  0  0
    1.1143   -3.9818    0.0000 N   0  3  0  0  0  0  0  0  0  0  0  0
    0.9428   -4.7887    0.0000 O   0  5  0  0  0  0  0  0  0  0  0  0
    0.5012   -3.4297    0.0000 O   0  0  0  0  0  0  0  0  0  0  0  0
    2.0964    0.3048    0.0000 H   0  0  0  0  0  0  0  0  0  0  0  0
    2.2098   -0.5194    0.0000 H   0  0  0  0  0  0  0  0  0  0  0  0
    2.0913   -0.4333    0.0000 H   0  0  0  0  0  0  0  0  0  0  0  0
    3.4293   -1.8843    0.0000 H   0  0  0  0  0  0  0  0  0  0  0  0
    2.7257   -2.1074    0.0000 H   0  0  0  0  0  0  0  0  0  0  0  0
   -0.1676   -2.2467    0.0000 H   0  0  0  0  0  0  0  0  0  0  0  0
   -0.9907   -1.9512    0.0000 H   0  0  0  0  0  0  0  0  0  0  0  0
   -1.2133   -0.9046    0.0000 H   0  0  0  0  0  0  0  0  0  0  0  0
    3.5854   -2.1073    0.0000 H   0  0  0  0  0  0  0  0  0  0  0  0
    4.2153   -4.0457    0.0000 H   0  0  0  0  0  0  0  0  0  0  0  0
  1 18  1  0  0  0  0
  2  1  1  0  0  0  0
  2  3  1  0  0  0  0
  2  7  1  0  0  0  0
  2 19  1  6  0  0  0
  3  4  1  0  0  0  0
  3  5  1  0  0  0  0
  3 20  1  1  0  0  0
  4 21  1  0  0  0  0
  5  6  1  0  0  0  0
  5 10  1  0  0  0  0
  5 22  1  6  0  0  0
  7  6  1  0  0  0  0
  7  8  1  0  0  0  0
  7 23  1  1  0  0  0
  8  9  1  0  0  0  0
  8 24  1  0  0  0  0
  8 25  1  0  0  0  0
 10 11  1  0  0  0  0
 10 14  1  0  0  0  0
 11 12  2  0  0  0  0
 11 26  1  0  0  0  0
 12 13  1  0  0  0  0
 12 27  1  0  0  0  0
 13 14  2  0  0  0  0
 14 15  1  0  0  0  0
 15 16  1  0  0  0  0
 15 17  2  0  0  0  0
M  ISO  1   9  18
M  CHG  2  15   1  16  -1
M  END
>  <DRUGBANK_ID>
DB15134

>  <COMMON_NAME>
Fluoroazomycin arabinoside F-18

>  <CAS_NUMBER>
864084-85-5

>  <UNII>
UG7I3Y42PV

>  <SYNONYMS>
18F-FAZA

$$$$
