235
 OpenBabel10282417072D

 57 58  0  0  0  0  0  0  0  0999 V2000
   -3.1150    1.5657    0.0000 C   0  0  0  0  0  0  0  0  0  0  0  0
   -3.7774    2.0574    0.0000 C   0  0  0  0  0  0  0  0  0  0  0  0
   -4.5345    1.7296    0.0000 C   0  0  0  0  0  0  0  0  0  0  0  0
   -4.6291    0.9101    0.0000 C   0  0  0  0  0  0  0  0  0  0  0  0
   -3.9667    0.4183    0.0000 C   0  0  0  0  0  0  0  0  0  0  0  0
   -3.2096    0.7461    0.0000 C   0  0  0  0  0  0  0  0  0  0  0  0
   -2.5472    0.2544    0.0000 S   0  0  0  0  0  0  0  0  0  0  0  0
   -2.0555    0.9168    0.0000 O   0  0  0  0  0  0  0  0  0  0  0  0
   -3.0389   -0.4080    0.0000 O   0  0  0  0  0  0  0  0  0  0  0  0
   -1.8848   -0.2373    0.0000 N   0  0  0  0  0  0  0  0  0  0  0  0
   -1.1277    0.0905    0.0000 C   0  0  1  0  0  0  0  0  0  0  0  0
   -1.0331    0.9101    0.0000 C   0  0  0  0  0  0  0  0  0  0  0  0
   -0.2760    1.2379    0.0000 C   0  0  0  0  0  0  0  0  0  0  0  0
   -1.6955    1.4018    0.0000 C   0  0  0  0  0  0  0  0  0  0  0  0
   -0.4652   -0.4012    0.0000 P   0  0  2  0  0  0  0  0  0  0  0  0
   -0.9570   -1.0637    0.0000 O   0  0  0  0  0  0  0  0  0  0  0  0
    0.0265    0.2612    0.0000 O   0  0  0  0  0  0  0  0  0  0  0  0
    0.1972   -0.8930    0.0000 C   0  0  0  0  0  0  0  0  0  0  0  0
    0.9543   -0.5651    0.0000 C   0  0  2  0  0  0  0  0  0  0  0  0
    1.0489    0.2544    0.0000 C   0  0  0  0  0  0  0  0  0  0  0  0
    0.3865    0.7461    0.0000 O   0  0  0  0  0  0  0  0  0  0  0  0
    1.8060    0.5822    0.0000 O   0  0  0  0  0  0  0  0  0  0  0  0
    1.6167   -1.0569    0.0000 C   0  0  0  0  0  0  0  0  0  0  0  0
    2.3738   -0.7291    0.0000 C   0  0  0  0  0  0  0  0  0  0  0  0
    1.5221   -1.8764    0.0000 C   0  0  0  0  0  0  0  0  0  0  0  0
    2.1845   -2.3682    0.0000 C   0  0  0  0  0  0  0  0  0  0  0  0
    2.9416   -2.0403    0.0000 C   0  0  0  0  0  0  0  0  0  0  0  0
    3.0362   -1.2208    0.0000 C   0  0  0  0  0  0  0  0  0  0  0  0
    3.7933   -0.8930    0.0000 C   0  0  0  0  0  0  0  0  0  0  0  0
    3.8879   -0.0734    0.0000 N   0  0  0  0  0  0  0  0  0  0  0  0
   -1.5966    0.4385    0.0000 H   0  0  0  0  0  0  0  0  0  0  0  0
    0.8873   -1.1452    0.0000 H   0  0  0  0  0  0  0  0  0  0  0  0
   -2.1680    1.9758    0.0000 H   0  0  0  0  0  0  0  0  0  0  0  0
   -3.6590    3.0826    0.0000 H   0  0  0  0  0  0  0  0  0  0  0  0
   -5.3631    2.3447    0.0000 H   0  0  0  0  0  0  0  0  0  0  0  0
   -5.5761    0.5001    0.0000 H   0  0  0  0  0  0  0  0  0  0  0  0
   -4.0851   -0.6069    0.0000 H   0  0  0  0  0  0  0  0  0  0  0  0
   -2.0018   -1.2506    0.0000 H   0  0  0  0  0  0  0  0  0  0  0  0
   -0.9103    1.9730    0.0000 H   0  0  0  0  0  0  0  0  0  0  0  0
    0.5831    0.6001    0.0000 H   0  0  0  0  0  0  0  0  0  0  0  0
   -0.1532    2.3008    0.0000 H   0  0  0  0  0  0  0  0  0  0  0  0
    0.7059    1.6630    0.0000 H   0  0  0  0  0  0  0  0  0  0  0  0
   -1.5728    2.4647    0.0000 H   0  0  0  0  0  0  0  0  0  0  0  0
   -2.6774    0.9766    0.0000 H   0  0  0  0  0  0  0  0  0  0  0  0
   -2.5547    2.0396    0.0000 H   0  0  0  0  0  0  0  0  0  0  0  0
    0.9901    0.1499    0.0000 H   0  0  0  0  0  0  0  0  0  0  0  0
    0.0745   -1.9559    0.0000 H   0  0  0  0  0  0  0  0  0  0  0  0
    1.0564   -1.5307    0.0000 H   0  0  0  0  0  0  0  0  0  0  0  0
    2.5583    0.0237    0.0000 H   0  0  0  0  0  0  0  0  0  0  0  0
    2.4922    0.2961    0.0000 H   0  0  0  0  0  0  0  0  0  0  0  0
    0.5751   -2.2864    0.0000 H   0  0  0  0  0  0  0  0  0  0  0  0
    2.0661   -3.3934    0.0000 H   0  0  0  0  0  0  0  0  0  0  0  0
    3.7703   -2.6554    0.0000 H   0  0  0  0  0  0  0  0  0  0  0  0
    4.6525   -1.5308    0.0000 H   0  0  0  0  0  0  0  0  0  0  0  0
    4.7752   -0.4678    0.0000 H   0  0  0  0  0  0  0  0  0  0  0  0
    4.8239    0.3320    0.0000 H   0  0  0  0  0  0  0  0  0  0  0  0
    3.0689    0.5345    0.0000 H   0  0  0  0  0  0  0  0  0  0  0  0
  1  6  1  0  0  0  0
  1  2  2  0  0  0  0
  1 33  1  0  0  0  0
  2  3  1  0  0  0  0
  2 34  1  0  0  0  0
  3  4  2  0  0  0  0
  3 35  1  0  0  0  0
  4  5  1  0  0  0  0
  4 36  1  0  0  0  0
  5  6  2  0  0  0  0
  5 37  1  0  0  0  0
  6  7  1  0  0  0  0
  7 10  1  0  0  0  0
  7  8  2  0  0  0  0
  7  9  2  0  0  0  0
 10 38  1  0  0  0  0
 11 10  1  0  0  0  0
 11 12  1  0  0  0  0
 11 15  1  0  0  0  0
 11 31  1  6  0  0  0
 12 13  1  0  0  0  0
 12 14  1  0  0  0  0
 12 39  1  0  0  0  0
 13 40  1  0  0  0  0
 13 41  1  0  0  0  0
 13 42  1  0  0  0  0
 14 43  1  0  0  0  0
 14 44  1  0  0  0  0
 14 45  1  0  0  0  0
 15 16  2  1  0  0  0
 15 18  1  0  0  0  0
 15 17  1  0  0  0  0
 17 46  1  0  0  0  0
 18 19  1  0  0  0  0
 18 47  1  0  0  0  0
 18 48  1  0  0  0  0
 19 23  1  0  0  0  0
 19 20  1  0  0  0  0
 19 32  1  1  0  0  0
 20 21  2  0  0  0  0
 20 22  1  0  0  0  0
 22 49  1  0  0  0  0
 23 24  2  0  0  0  0
 23 25  1  0  0  0  0
 24 28  1  0  0  0  0
 24 50  1  0  0  0  0
 25 26  2  0  0  0  0
 25 51  1  0  0  0  0
 26 27  1  0  0  0  0
 26 52  1  0  0  0  0
 27 28  2  0  0  0  0
 27 53  1  0  0  0  0
 28 29  1  0  0  0  0
 29 30  1  0  0  0  0
 29 54  1  0  0  0  0
 29 55  1  0  0  0  0
 30 56  1  0  0  0  0
 30 57  1  0  0  0  0
M  END
>  <DRUGBANK_ID>
DB06921

>  <COMMON_NAME>
(2S)-2-[3-(AMINOMETHYL)PHENYL]-3-[(R)-HYDROXY{(1R)-2-METHYL-1-[(PHENYLSULFONYL)AMINO]PROPYL}PHOSPHORYL]PROPANOIC ACID

$$$$
