166
 OpenBabel10282417072D

 54 56  0  0  0  0  0  0  0  0999 V2000
   -1.2632   -0.3390    0.0000 C   0  0  0  0  0  0  0  0  0  0  0  0
   -1.8033    0.2847    0.0000 C   0  0  0  0  0  0  0  0  0  0  0  0
   -2.6134    0.1288    0.0000 C   0  0  0  0  0  0  0  0  0  0  0  0
   -3.1535    0.7524    0.0000 C   0  0  0  0  0  0  0  0  0  0  0  0
   -3.9637    0.5965    0.0000 C   0  0  0  0  0  0  0  0  0  0  0  0
   -4.5038    1.2201    0.0000 N   0  0  0  0  0  0  0  0  0  0  0  0
   -4.2337   -0.1830    0.0000 N   0  0  0  0  0  0  0  0  0  0  0  0
   -0.7231    1.2201    0.0000 O   0  0  0  0  0  0  0  0  0  0  0  0
    0.6271    0.7524    0.0000 O   0  0  0  0  0  0  0  0  0  0  0  0
   -0.8601   -1.9311    0.0000 O   0  0  0  0  0  0  0  0  0  0  0  0
    0.0870   -0.8067    0.0000 C   0  0  1  0  0  0  0  0  0  0  0  0
    1.2299   -1.4963    0.0000 C   0  0  0  0  0  0  0  0  0  0  0  0
    0.9090   -0.7363    0.0000 C   0  0  0  0  0  0  0  0  0  0  0  0
   -0.1001   -1.6102    0.0000 C   0  0  2  0  0  0  0  0  0  0  0  0
    0.6063   -2.0364    0.0000 C   0  0  0  0  0  0  0  0  0  0  0  0
    1.4067   -0.0784    0.0000 C   0  0  0  0  0  0  0  0  0  0  0  0
    2.2254   -0.1804    0.0000 C   0  0  0  0  0  0  0  0  0  0  0  0
    2.5463   -0.9404    0.0000 C   0  0  0  0  0  0  0  0  0  0  0  0
    2.0486   -1.5984    0.0000 C   0  0  0  0  0  0  0  0  0  0  0  0
    2.7231    0.4775    0.0000 C   0  0  0  0  0  0  0  0  0  0  0  0
    2.4022    1.2375    0.0000 C   0  0  0  0  0  0  0  0  0  0  0  0
    2.8999    1.8955    0.0000 C   0  0  0  0  0  0  0  0  0  0  0  0
    3.7185    1.7934    0.0000 C   0  0  0  0  0  0  0  0  0  0  0  0
    4.0395    1.0334    0.0000 C   0  0  0  0  0  0  0  0  0  0  0  0
    3.5418    0.3755    0.0000 C   0  0  0  0  0  0  0  0  0  0  0  0
    4.2163    2.4514    0.0000 O   0  0  0  0  0  0  0  0  0  0  0  0
   -0.4531   -0.1830    0.0000 C   0  0  2  0  0  0  0  0  0  0  0  0
   -0.1830    0.5965    0.0000 C   0  0  0  0  0  0  0  0  0  0  0  0
    0.3068   -0.2657    0.0000 H   0  0  0  0  0  0  0  0  0  0  0  0
   -0.5467   -1.2340    0.0000 H   0  0  0  0  0  0  0  0  0  0  0  0
   -0.6442   -0.7348    0.0000 H   0  0  0  0  0  0  0  0  0  0  0  0
   -1.6134   -1.3501    0.0000 H   0  0  0  0  0  0  0  0  0  0  0  0
   -0.5627   -1.1478    0.0000 H   0  0  0  0  0  0  0  0  0  0  0  0
   -1.4530    1.2957    0.0000 H   0  0  0  0  0  0  0  0  0  0  0  0
   -2.5038    1.0936    0.0000 H   0  0  0  0  0  0  0  0  0  0  0  0
   -2.9636   -0.8823    0.0000 H   0  0  0  0  0  0  0  0  0  0  0  0
   -3.6641   -0.0734    0.0000 H   0  0  0  0  0  0  0  0  0  0  0  0
   -2.8033    1.7635    0.0000 H   0  0  0  0  0  0  0  0  0  0  0  0
   -3.8540    1.5613    0.0000 H   0  0  0  0  0  0  0  0  0  0  0  0
   -4.1816    2.1504    0.0000 H   0  0  0  0  0  0  0  0  0  0  0  0
   -5.4706    1.0340    0.0000 H   0  0  0  0  0  0  0  0  0  0  0  0
   -5.2005   -0.3691    0.0000 H   0  0  0  0  0  0  0  0  0  0  0  0
    1.2405    0.0441    0.0000 H   0  0  0  0  0  0  0  0  0  0  0  0
   -1.6337   -1.3459    0.0000 H   0  0  0  0  0  0  0  0  0  0  0  0
    0.6976   -3.1025    0.0000 H   0  0  0  0  0  0  0  0  0  0  0  0
   -0.3021   -2.6018    0.0000 H   0  0  0  0  0  0  0  0  0  0  0  0
    1.0052    0.8723    0.0000 H   0  0  0  0  0  0  0  0  0  0  0  0
    3.5704   -1.0681    0.0000 H   0  0  0  0  0  0  0  0  0  0  0  0
    2.4501   -2.5491    0.0000 H   0  0  0  0  0  0  0  0  0  0  0  0
    1.3781    1.3652    0.0000 H   0  0  0  0  0  0  0  0  0  0  0  0
    2.4984    2.8462    0.0000 H   0  0  0  0  0  0  0  0  0  0  0  0
    5.0636    0.9058    0.0000 H   0  0  0  0  0  0  0  0  0  0  0  0
    3.9433   -0.5752    0.0000 H   0  0  0  0  0  0  0  0  0  0  0  0
    5.1461    2.3354    0.0000 H   0  0  0  0  0  0  0  0  0  0  0  0
  1  2  1  0  0  0  0
  1 27  1  0  0  0  0
  1 32  1  0  0  0  0
  1 33  1  0  0  0  0
  2  3  1  0  0  0  0
  2 34  1  0  0  0  0
  2 35  1  0  0  0  0
  3  4  1  0  0  0  0
  3 36  1  0  0  0  0
  3 37  1  0  0  0  0
  4  5  1  0  0  0  0
  4 38  1  0  0  0  0
  4 39  1  0  0  0  0
  5  6  1  0  0  0  0
  5  7  2  0  0  0  0
  6 40  1  0  0  0  0
  6 41  1  0  0  0  0
  7 42  1  0  0  0  0
  8 28  2  0  0  0  0
  9 28  1  0  0  0  0
  9 43  1  0  0  0  0
 10 44  1  0  0  0  0
 11 13  1  0  0  0  0
 11 14  1  0  0  0  0
 11 27  1  0  0  0  0
 11 29  1  6  0  0  0
 12 13  2  0  0  0  0
 12 15  1  0  0  0  0
 12 19  1  0  0  0  0
 13 16  1  0  0  0  0
 14 10  1  0  0  0  0
 14 15  1  0  0  0  0
 14 30  1  1  0  0  0
 15 45  1  0  0  0  0
 15 46  1  0  0  0  0
 16 17  2  0  0  0  0
 16 47  1  0  0  0  0
 17 18  1  0  0  0  0
 17 20  1  0  0  0  0
 18 19  2  0  0  0  0
 18 48  1  0  0  0  0
 19 49  1  0  0  0  0
 20 21  2  0  0  0  0
 20 25  1  0  0  0  0
 21 22  1  0  0  0  0
 21 50  1  0  0  0  0
 22 23  2  0  0  0  0
 22 51  1  0  0  0  0
 23 24  1  0  0  0  0
 23 26  1  0  0  0  0
 24 25  2  0  0  0  0
 24 52  1  0  0  0  0
 25 53  1  0  0  0  0
 26 54  1  0  0  0  0
 27 28  1  0  0  0  0
 27 31  1  6  0  0  0
M  END
>  <DRUGBANK_ID>
DB06865

>  <COMMON_NAME>
6-CARBAMIMIDOYL-2-[2-HYDROXY-6-(4-HYDROXY-PHENYL)-INDAN-1-YL]-HEXANOIC ACID

$$$$
