
 OpenBabel10282417072D

 41 44  0  0  0  0  0  0  0  0999 V2000
    2.1026   -2.0033    0.0000 C   0  0  0  0  0  0  0  0  0  0  0  0
    1.8477   -1.2186    0.0000 N   0  0  0  0  0  0  0  0  0  0  0  0
    2.3326   -0.5512    0.0000 C   0  0  0  0  0  0  0  0  0  0  0  0
    1.8477    0.1161    0.0000 N   0  0  0  0  0  0  0  0  0  0  0  0
    1.0630   -0.1387    0.0000 C   0  0  0  0  0  0  0  0  0  0  0  0
    0.3486    0.2737    0.0000 C   0  0  0  0  0  0  0  0  0  0  0  0
    0.3486    1.0987    0.0000 N   0  0  0  0  0  0  0  0  0  0  0  0
    1.0630    1.5112    0.0000 C   0  0  0  0  0  0  0  0  0  0  0  0
    1.7775    1.0987    0.0000 C   0  0  0  0  0  0  0  0  0  0  0  0
    2.4920    1.5112    0.0000 C   0  0  0  0  0  0  0  0  0  0  0  0
    2.4920    2.3362    0.0000 C   0  0  0  0  0  0  0  0  0  0  0  0
    3.2065    2.7487    0.0000 Cl  0  0  0  0  0  0  0  0  0  0  0  0
    1.7775    2.7487    0.0000 C   0  0  0  0  0  0  0  0  0  0  0  0
    1.0630    2.3362    0.0000 C   0  0  0  0  0  0  0  0  0  0  0  0
   -0.3658   -0.1387    0.0000 N   0  0  0  0  0  0  0  0  0  0  0  0
   -0.3658   -0.9637    0.0000 C   0  0  0  0  0  0  0  0  0  0  0  0
   -1.0803   -1.3762    0.0000 N   0  0  0  0  0  0  0  0  0  0  0  0
   -1.8339   -1.0406    0.0000 N   0  0  0  0  0  0  0  0  0  0  0  0
   -2.3860   -1.6537    0.0000 C   0  0  0  0  0  0  0  0  0  0  0  0
   -3.2065   -1.5675    0.0000 C   0  0  0  0  0  0  0  0  0  0  0  0
   -1.9735   -2.3682    0.0000 C   0  0  0  0  0  0  0  0  0  0  0  0
   -1.1665   -2.1967    0.0000 C   0  0  0  0  0  0  0  0  0  0  0  0
   -0.5534   -2.7487    0.0000 C   0  0  0  0  0  0  0  0  0  0  0  0
    0.3486   -1.3762    0.0000 N   0  0  0  0  0  0  0  0  0  0  0  0
    1.0630   -0.9637    0.0000 C   0  0  0  0  0  0  0  0  0  0  0  0
    1.3866   -2.7984    0.0000 H   0  0  0  0  0  0  0  0  0  0  0  0
    3.1492   -2.2258    0.0000 H   0  0  0  0  0  0  0  0  0  0  0  0
    2.4332   -3.0210    0.0000 H   0  0  0  0  0  0  0  0  0  0  0  0
    3.3646   -0.5512    0.0000 H   0  0  0  0  0  0  0  0  0  0  0  0
   -0.5040    1.5909    0.0000 H   0  0  0  0  0  0  0  0  0  0  0  0
    1.7775    0.0667    0.0000 H   0  0  0  0  0  0  0  0  0  0  0  0
    3.3857    0.9952    0.0000 H   0  0  0  0  0  0  0  0  0  0  0  0
    1.7775    3.7807    0.0000 H   0  0  0  0  0  0  0  0  0  0  0  0
    0.1693    2.8522    0.0000 H   0  0  0  0  0  0  0  0  0  0  0  0
   -3.6418   -0.5900    0.0000 H   0  0  0  0  0  0  0  0  0  0  0  0
   -3.8354   -2.4332    0.0000 H   0  0  0  0  0  0  0  0  0  0  0  0
   -4.2706   -1.4557    0.0000 H   0  0  0  0  0  0  0  0  0  0  0  0
   -2.3933   -3.3110    0.0000 H   0  0  0  0  0  0  0  0  0  0  0  0
   -0.7758   -3.7953    0.0000 H   0  0  0  0  0  0  0  0  0  0  0  0
    0.4642   -2.4180    0.0000 H   0  0  0  0  0  0  0  0  0  0  0  0
    0.2418   -3.4646    0.0000 H   0  0  0  0  0  0  0  0  0  0  0  0
  1  2  1  0  0  0  0
  1 26  1  0  0  0  0
  1 27  1  0  0  0  0
  1 28  1  0  0  0  0
  2  3  1  0  0  0  0
  2 25  1  0  0  0  0
  3  4  2  0  0  0  0
  3 29  1  0  0  0  0
  4  5  1  0  0  0  0
  5  6  2  0  0  0  0
  5 25  1  0  0  0  0
  6  7  1  0  0  0  0
  6 15  1  0  0  0  0
  7  8  1  0  0  0  0
  7 30  1  0  0  0  0
  8  9  2  0  0  0  0
  8 14  1  0  0  0  0
  9 10  1  0  0  0  0
  9 31  1  0  0  0  0
 10 11  2  0  0  0  0
 10 32  1  0  0  0  0
 11 12  1  0  0  0  0
 11 13  1  0  0  0  0
 13 14  2  0  0  0  0
 13 33  1  0  0  0  0
 14 34  1  0  0  0  0
 15 16  2  0  0  0  0
 16 17  1  0  0  0  0
 16 24  1  0  0  0  0
 17 18  1  0  0  0  0
 17 22  1  0  0  0  0
 18 19  2  0  0  0  0
 19 20  1  0  0  0  0
 19 21  1  0  0  0  0
 20 35  1  0  0  0  0
 20 36  1  0  0  0  0
 20 37  1  0  0  0  0
 21 22  2  0  0  0  0
 21 38  1  0  0  0  0
 22 23  1  0  0  0  0
 23 39  1  0  0  0  0
 23 40  1  0  0  0  0
 23 41  1  0  0  0  0
 24 25  2  0  0  0  0
M  END
>  <DRUGBANK_ID>
DB16898

>  <COMMON_NAME>
NS13001

>  <CAS_NUMBER>
1063331-94-1

$$$$
