
 OpenBabel10282417072D

 26 25  0  0  0  0  0  0  0  0999 V2000
    0.0016    0.0084    0.0000 C   0  0  0  0  0  0  0  0  0  0  0  0
    0.0016   -0.8166    0.0000 C   0  0  0  0  0  0  0  0  0  0  0  0
   -0.7129    0.4209    0.0000 C   0  0  0  0  0  0  0  0  0  0  0  0
   -0.7129   -1.2291    0.0000 C   0  0  0  0  0  0  0  0  0  0  0  0
   -1.4274    0.0084    0.0000 C   0  0  0  0  0  0  0  0  0  0  0  0
   -1.4274   -0.8166    0.0000 C   0  0  0  0  0  0  0  0  0  0  0  0
    0.7145    0.4159    0.0000 C   0  0  0  0  0  0  0  0  0  0  0  0
    0.7118    1.2390    0.0000 O   0  0  0  0  0  0  0  0  0  0  0  0
    1.4274    0.0064    0.0000 O   0  0  0  0  0  0  0  0  0  0  0  0
    0.7185   -1.2390    0.0000 C   0  0  0  0  0  0  0  0  0  0  0  0
   -0.0007   -1.0616    0.0000 H   0  0  0  0  0  0  0  0  0  0  0  0
    0.9265   -0.5296    0.0000 H   0  0  0  0  0  0  0  0  0  0  0  0
    0.0063    0.2534    0.0000 H   0  0  0  0  0  0  0  0  0  0  0  0
    0.9318   -0.2878    0.0000 H   0  0  0  0  0  0  0  0  0  0  0  0
   -0.7129    1.4909    0.0000 H   0  0  0  0  0  0  0  0  0  0  0  0
   -1.6395    0.9559    0.0000 H   0  0  0  0  0  0  0  0  0  0  0  0
   -0.7129   -2.2991    0.0000 H   0  0  0  0  0  0  0  0  0  0  0  0
   -1.6395   -1.7641    0.0000 H   0  0  0  0  0  0  0  0  0  0  0  0
   -2.3540    0.5434    0.0000 H   0  0  0  0  0  0  0  0  0  0  0  0
   -2.3540   -0.5266    0.0000 H   0  0  0  0  0  0  0  0  0  0  0  0
   -2.3540   -1.3516    0.0000 H   0  0  0  0  0  0  0  0  0  0  0  0
   -2.3540   -0.2816    0.0000 H   0  0  0  0  0  0  0  0  0  0  0  0
    1.4295   -0.9306    0.0000 H   0  0  0  0  0  0  0  0  0  0  0  0
    0.7090   -2.3090    0.0000 H   0  0  0  0  0  0  0  0  0  0  0  0
    1.6498   -0.7122    0.0000 H   0  0  0  0  0  0  0  0  0  0  0  0
    1.6404   -1.7822    0.0000 H   0  0  0  0  0  0  0  0  0  0  0  0
  1  7  1  0  0  0  0
  1 11  1  0  0  0  0
  1 12  1  0  0  0  0
  2 10  1  0  0  0  0
  2 13  1  0  0  0  0
  2 14  1  0  0  0  0
  3  1  1  0  0  0  0
  3 15  1  0  0  0  0
  3 16  1  0  0  0  0
  4  2  1  0  0  0  0
  4 17  1  0  0  0  0
  4 18  1  0  0  0  0
  5  3  1  0  0  0  0
  5 19  1  0  0  0  0
  5 20  1  0  0  0  0
  6  4  1  0  0  0  0
  6  5  1  0  0  0  0
  6 21  1  0  0  0  0
  6 22  1  0  0  0  0
  7  8  2  0  0  0  0
  7  9  1  0  0  0  0
  9 23  1  0  0  0  0
 10 24  1  0  0  0  0
 10 25  1  0  0  0  0
 10 26  1  0  0  0  0
M  END
>  <DRUGBANK_ID>
DB04519

>  <SECONDARY_ACCESSION_NUMBERS>
EXPT02413

>  <COMMON_NAME>
Caprylic acid

>  <CAS_NUMBER>
124-07-2

>  <UNII>
OBL58JN025

>  <SYNONYMS>
1-heptanecarboxylic acid; Acide octanoïque; Acide octanoique; ácido octanoico; Acidum octanocium; Acidum octanoicum; C8:0; Caprylic acid; Kaprylsäure; n-caprylic acid; n-octanoic acid; n-Octoic acid; n-octylic acid; Octanoic acid; Octoic acid; Octylic acid

$$$$
