
 OpenBabel10282417072D

 18 18  0  0  1  0  0  0  0  0999 V2000
   -0.8843    0.8843    0.0000 C   0  0  0  0  0  0  0  0  0  0  0  0
    0.1553   -0.1553    0.0000 C   0  0  0  0  0  0  0  0  0  0  0  0
    0.9803   -0.1553    0.0000 C   0  0  0  0  0  0  0  0  0  0  0  0
   -0.0997    0.6294    0.0000 C   0  0  2  0  0  0  0  0  0  0  0  0
    0.5678    1.1143    0.0000 C   0  0  2  0  0  0  0  0  0  0  0  0
    0.5678    1.9393    0.0000 C   0  0  0  0  0  0  0  0  0  0  0  0
    1.2352    0.6294    0.0000 N   0  0  0  0  0  0  0  0  0  0  0  0
   -0.1467    2.3518    0.0000 O   0  0  0  0  0  0  0  0  0  0  0  0
    1.2822    2.3518    0.0000 O   0  0  0  0  0  0  0  0  0  0  0  0
   -0.6830    0.0460    0.0000 H   0  0  0  0  0  0  0  0  0  0  0  0
   -0.1673    1.4888    0.0000 H   0  0  0  0  0  0  0  0  0  0  0  0
   -1.1068    1.9309    0.0000 H   0  0  0  0  0  0  0  0  0  0  0  0
   -1.6794    0.1683    0.0000 H   0  0  0  0  0  0  0  0  0  0  0  0
   -1.9019    1.2149    0.0000 H   0  0  0  0  0  0  0  0  0  0  0  0
   -0.4513   -0.9902    0.0000 H   0  0  0  0  0  0  0  0  0  0  0  0
    1.5869   -0.9902    0.0000 H   0  0  0  0  0  0  0  0  0  0  0  0
    2.1715    0.9337    0.0000 H   0  0  0  0  0  0  0  0  0  0  0  0
    2.0937    1.8833    0.0000 H   0  0  0  0  0  0  0  0  0  0  0  0
  1 12  1  0  0  0  0
  1 13  1  0  0  0  0
  1 14  1  0  0  0  0
  2 15  1  0  0  0  0
  3  2  2  0  0  0  0
  3 16  1  0  0  0  0
  4  1  1  0  0  0  0
  4  2  1  0  0  0  0
  4 10  1  6  0  0  0
  5  4  1  0  0  0  0
  5  6  1  0  0  0  0
  5 11  1  1  0  0  0
  7  3  1  0  0  0  0
  7  5  1  0  0  0  0
  7 17  1  0  0  0  0
  8  6  2  0  0  0  0
  9  6  1  0  0  0  0
  9 18  1  0  0  0  0
M  END
>  <DRUGBANK_ID>
DB03930

>  <SECONDARY_ACCESSION_NUMBERS>
EXPT00689

>  <COMMON_NAME>
4-Methyl-Pyrroline-5-Carboxylic Acid

$$$$
