
 OpenBabel10282417072D

 57 60  0  0  1  0  0  0  0  0999 V2000
    3.9849    2.7770    0.0000 C   0  0  0  0  0  0  0  0  0  0  0  0
    4.6993    3.1895    0.0000 C   0  0  1  0  0  0  0  0  0  0  0  0
    5.4138    2.7770    0.0000 O   0  0  0  0  0  0  0  0  0  0  0  0
    5.4138    1.9520    0.0000 P   0  0  0  0  0  0  0  0  0  0  0  0
    4.5888    1.9520    0.0000 O   0  0  0  0  0  0  0  0  0  0  0  0
    5.4138    1.1270    0.0000 N   0  0  0  0  0  0  0  0  0  0  0  0
    5.8263    0.4125    0.0000 C   0  0  0  0  0  0  0  0  0  0  0  0
    5.0013    0.4125    0.0000 C   0  0  0  0  0  0  0  0  0  0  0  0
    6.2388    1.9520    0.0000 N   0  0  0  0  0  0  0  0  0  0  0  0
    6.9533    2.3645    0.0000 C   0  0  0  0  0  0  0  0  0  0  0  0
    6.9533    1.5395    0.0000 C   0  0  0  0  0  0  0  0  0  0  0  0
    4.6993    4.0145    0.0000 C   0  0  0  0  0  0  0  0  0  0  0  0
    5.4138    4.4270    0.0000 C   0  0  0  0  0  0  0  0  0  0  0  0
    5.4138    5.2520    0.0000 C   0  0  0  0  0  0  0  0  0  0  0  0
    6.1283    5.6645    0.0000 O   0  0  0  0  0  0  0  0  0  0  0  0
    6.8427    5.2520    0.0000 C   0  0  0  0  0  0  0  0  0  0  0  0
    7.5572    5.6645    0.0000 C   0  0  0  0  0  0  0  0  0  0  0  0
    8.2717    5.2520    0.0000 C   0  0  0  0  0  0  0  0  0  0  0  0
    8.2717    4.4270    0.0000 C   0  0  0  0  0  0  0  0  0  0  0  0
    7.5572    4.0145    0.0000 C   0  0  0  0  0  0  0  0  0  0  0  0
    6.8427    4.4270    0.0000 C   0  0  0  0  0  0  0  0  0  0  0  0
    8.9862    5.6645    0.0000 C   0  0  0  0  0  0  0  0  0  0  0  0
    8.9862    6.4895    0.0000 O   0  0  0  0  0  0  0  0  0  0  0  0
    9.7006    5.2520    0.0000 N   0  0  0  0  0  0  0  0  0  0  0  0
   10.4151    5.6645    0.0000 C   0  0  0  0  0  0  0  0  0  0  0  0
    9.7006    4.4270    0.0000 C   0  0  0  0  0  0  0  0  0  0  0  0
    4.6993    5.6645    0.0000 C   0  0  0  0  0  0  0  0  0  0  0  0
    3.9849    5.2520    0.0000 C   0  0  0  0  0  0  0  0  0  0  0  0
    3.9849    4.4270    0.0000 C   0  0  0  0  0  0  0  0  0  0  0  0
    4.6993    6.4895    0.0000 N   0  3  0  0  0  0  0  0  0  0  0  0
    3.9849    6.9020    0.0000 O   0  5  0  0  0  0  0  0  0  0  0  0
    5.4138    6.9020    0.0000 O   0  0  0  0  0  0  0  0  0  0  0  0
    3.0582    3.3120    0.0000 H   0  0  0  0  0  0  0  0  0  0  0  0
    3.9849    1.7070    0.0000 H   0  0  0  0  0  0  0  0  0  0  0  0
    3.0583    2.2420    0.0000 H   0  0  0  0  0  0  0  0  0  0  0  0
    4.6993    2.1195    0.0000 H   0  0  0  0  0  0  0  0  0  0  0  0
    6.7529   -0.1225    0.0000 H   0  0  0  0  0  0  0  0  0  0  0  0
    5.5494   -0.6210    0.0000 H   0  0  0  0  0  0  0  0  0  0  0  0
    4.0747   -0.1225    0.0000 H   0  0  0  0  0  0  0  0  0  0  0  0
    4.2447    1.1691    0.0000 H   0  0  0  0  0  0  0  0  0  0  0  0
    7.4883    3.2911    0.0000 H   0  0  0  0  0  0  0  0  0  0  0  0
    7.9868    2.0876    0.0000 H   0  0  0  0  0  0  0  0  0  0  0  0
    7.4883    0.6129    0.0000 H   0  0  0  0  0  0  0  0  0  0  0  0
    6.1967    0.7829    0.0000 H   0  0  0  0  0  0  0  0  0  0  0  0
    6.3075    3.9110    0.0000 H   0  0  0  0  0  0  0  0  0  0  0  0
    7.5572    6.6965    0.0000 H   0  0  0  0  0  0  0  0  0  0  0  0
    9.1654    3.9110    0.0000 H   0  0  0  0  0  0  0  0  0  0  0  0
    7.5572    2.9825    0.0000 H   0  0  0  0  0  0  0  0  0  0  0  0
    5.9490    3.9110    0.0000 H   0  0  0  0  0  0  0  0  0  0  0  0
   11.3417    5.1295    0.0000 H   0  0  0  0  0  0  0  0  0  0  0  0
   10.4151    6.7345    0.0000 H   0  0  0  0  0  0  0  0  0  0  0  0
   11.3418    6.1995    0.0000 H   0  0  0  0  0  0  0  0  0  0  0  0
    8.7740    3.8920    0.0000 H   0  0  0  0  0  0  0  0  0  0  0  0
   10.6272    3.8920    0.0000 H   0  0  0  0  0  0  0  0  0  0  0  0
    9.7006    3.3570    0.0000 H   0  0  0  0  0  0  0  0  0  0  0  0
    3.0912    5.7680    0.0000 H   0  0  0  0  0  0  0  0  0  0  0  0
    3.0912    3.9110    0.0000 H   0  0  0  0  0  0  0  0  0  0  0  0
  1 33  1  0  0  0  0
  1 34  1  0  0  0  0
  1 35  1  0  0  0  0
  2  1  1  0  0  0  0
  2  3  1  0  0  0  0
  2 12  1  0  0  0  0
  2 36  1  1  0  0  0
  3  4  1  0  0  0  0
  4  5  2  0  0  0  0
  4  6  1  0  0  0  0
  4  9  1  0  0  0  0
  6  7  1  0  0  0  0
  6  8  1  0  0  0  0
  7  8  1  0  0  0  0
  7 37  1  0  0  0  0
  7 38  1  0  0  0  0
  8 39  1  0  0  0  0
  8 40  1  0  0  0  0
  9 10  1  0  0  0  0
  9 11  1  0  0  0  0
 10 11  1  0  0  0  0
 10 41  1  0  0  0  0
 10 42  1  0  0  0  0
 11 43  1  0  0  0  0
 11 44  1  0  0  0  0
 12 13  2  0  0  0  0
 12 29  1  0  0  0  0
 13 14  1  0  0  0  0
 13 45  1  0  0  0  0
 14 15  1  0  0  0  0
 14 27  2  0  0  0  0
 15 16  1  0  0  0  0
 16 17  2  0  0  0  0
 16 21  1  0  0  0  0
 17 18  1  0  0  0  0
 17 46  1  0  0  0  0
 18 19  2  0  0  0  0
 18 22  1  0  0  0  0
 19 20  1  0  0  0  0
 19 47  1  0  0  0  0
 20 21  2  0  0  0  0
 20 48  1  0  0  0  0
 21 49  1  0  0  0  0
 22 23  2  0  0  0  0
 22 24  1  0  0  0  0
 24 25  1  0  0  0  0
 24 26  1  0  0  0  0
 25 50  1  0  0  0  0
 25 51  1  0  0  0  0
 25 52  1  0  0  0  0
 26 53  1  0  0  0  0
 26 54  1  0  0  0  0
 26 55  1  0  0  0  0
 27 28  1  0  0  0  0
 27 30  1  0  0  0  0
 28 29  2  0  0  0  0
 28 56  1  0  0  0  0
 29 57  1  0  0  0  0
 30 31  1  0  0  0  0
 30 32  2  0  0  0  0
M  CHG  2  30   1  31  -1
M  END
>  <DRUGBANK_ID>
DB16057

>  <COMMON_NAME>
OBI-3424

>  <CAS_NUMBER>
2097713-68-1

>  <UNII>
X6SH5T8H76

>  <SYNONYMS>
3-(5-((1R)-1-(Bis(aziridin-1-yl(phosphoryloxy)ethyl)-2-nitrophenoxy)-N,N-dimethylbenzamide; 3-[5-[(1R)-1-[bis(aziridin-1-yl(phosphoryloxy]ethyl]-2-nitrophenoxy]-N,N-dimethylbenzamide; OBI 3424; OBI3424; Phosphinic acid, P,P-bis(1-aziridinyl)-, (1R)-1-(3-(3-((dimethylamino)carbonyl)phenoxy)-4-nitrophenyl)ethyl ester

$$$$
