CRJ
 OpenBabel10282417072D

 55 57  0  0  0  0  0  0  0  0999 V2000
    3.4933   -1.6374    0.0000 C   0  0  0  0  0  0  0  0  0  0  0  0
    2.9255   -0.3261    0.0000 C   0  0  0  0  0  0  0  0  0  0  0  0
    2.1685   -0.6540    0.0000 C   0  0  0  0  0  0  0  0  0  0  0  0
    2.0738   -1.4735    0.0000 C   0  0  0  0  0  0  0  0  0  0  0  0
    2.7363   -1.9652    0.0000 C   0  0  0  0  0  0  0  0  0  0  0  0
    3.5880   -0.8179    0.0000 C   0  0  0  0  0  0  0  0  0  0  0  0
    1.5060   -0.1622    0.0000 C   0  0  2  0  0  0  0  0  0  0  0  0
    4.1558   -2.1291    0.0000 F   0  0  0  0  0  0  0  0  0  0  0  0
    0.7490   -0.4900    0.0000 N   0  0  0  0  0  0  0  0  0  0  0  0
    1.6007    0.6573    0.0000 C   0  0  0  0  0  0  0  0  0  0  0  0
    0.0865    0.0017    0.0000 C   0  0  2  0  0  0  0  0  0  0  0  0
    0.1811    0.8212    0.0000 C   0  0  0  0  0  0  0  0  0  0  0  0
   -0.6706   -0.3261    0.0000 C   0  0  0  0  0  0  0  0  0  0  0  0
   -1.3330    0.1656    0.0000 S   0  0  0  0  0  0  0  0  0  0  0  0
   -1.9954    0.6573    0.0000 C   0  0  0  0  0  0  0  0  0  0  0  0
   -0.4813    1.3130    0.0000 N   0  0  0  0  0  0  0  0  0  0  0  0
    0.9382    1.1491    0.0000 O   0  0  0  0  0  0  0  0  0  0  0  0
   -2.7525    0.3295    0.0000 C   0  0  2  0  0  0  0  0  0  0  0  0
   -2.9323   -0.4757    0.0000 C   0  0  0  0  0  0  0  0  0  0  0  0
   -3.7536   -0.5535    0.0000 C   0  0  0  0  0  0  0  0  0  0  0  0
   -4.0814    0.2036    0.0000 C   0  0  0  0  0  0  0  0  0  0  0  0
   -3.4627    0.7493    0.0000 N   0  0  0  0  0  0  0  0  0  0  0  0
   -4.8866    0.3834    0.0000 O   0  0  0  0  0  0  0  0  0  0  0  0
   -0.3867    2.1325    0.0000 C   0  0  0  0  0  0  0  0  0  0  0  0
   -0.0174    2.8703    0.0000 C   0  0  0  0  0  0  0  0  0  0  0  0
    0.4369    2.1817    0.0000 C   0  0  0  0  0  0  0  0  0  0  0  0
   -0.8413    0.8280    0.0000 O   0  0  0  0  0  0  0  0  0  0  0  0
   -1.8247   -0.4968    0.0000 O   0  0  0  0  0  0  0  0  0  0  0  0
    2.4202    0.5627    0.0000 F   0  0  0  0  0  0  0  0  0  0  0  0
    0.7811    0.7520    0.0000 F   0  0  0  0  0  0  0  0  0  0  0  0
    1.6953    1.4769    0.0000 F   0  0  0  0  0  0  0  0  0  0  0  0
   -1.9680    2.6036    0.0000 N   0  0  0  0  0  0  0  0  0  0  0  0
   -1.1773    2.3680    0.0000 C   0  0  0  0  0  0  0  0  0  0  0  0
    1.4390   -0.7423    0.0000 H   0  0  0  0  0  0  0  0  0  0  0  0
    0.6224    0.2337    0.0000 H   0  0  0  0  0  0  0  0  0  0  0  0
   -2.3025   -0.0426    0.0000 H   0  0  0  0  0  0  0  0  0  0  0  0
    3.0438    0.6991    0.0000 H   0  0  0  0  0  0  0  0  0  0  0  0
    1.1268   -1.8836    0.0000 H   0  0  0  0  0  0  0  0  0  0  0  0
    2.6180   -2.9904    0.0000 H   0  0  0  0  0  0  0  0  0  0  0  0
    4.5351   -0.4079    0.0000 H   0  0  0  0  0  0  0  0  0  0  0  0
    0.6320   -1.5033    0.0000 H   0  0  0  0  0  0  0  0  0  0  0  0
   -0.7934   -1.3890    0.0000 H   0  0  0  0  0  0  0  0  0  0  0  0
   -1.6525   -0.7513    0.0000 H   0  0  0  0  0  0  0  0  0  0  0  0
   -1.8726    1.7202    0.0000 H   0  0  0  0  0  0  0  0  0  0  0  0
   -2.8545    1.2951    0.0000 H   0  0  0  0  0  0  0  0  0  0  0  0
   -1.3848    0.9218    0.0000 H   0  0  0  0  0  0  0  0  0  0  0  0
   -2.2245   -1.2782    0.0000 H   0  0  0  0  0  0  0  0  0  0  0  0
   -3.3260   -1.4706    0.0000 H   0  0  0  0  0  0  0  0  0  0  0  0
   -4.2981   -1.4746    0.0000 H   0  0  0  0  0  0  0  0  0  0  0  0
   -4.8215   -0.4865    0.0000 H   0  0  0  0  0  0  0  0  0  0  0  0
   -3.5556    1.7294    0.0000 H   0  0  0  0  0  0  0  0  0  0  0  0
   -0.0811    3.9384    0.0000 H   0  0  0  0  0  0  0  0  0  0  0  0
    0.9978    3.2083    0.0000 H   0  0  0  0  0  0  0  0  0  0  0  0
    1.3938    1.7029    0.0000 H   0  0  0  0  0  0  0  0  0  0  0  0
    1.1471    2.9820    0.0000 H   0  0  0  0  0  0  0  0  0  0  0  0
  1  5  1  0  0  0  0
  1  6  2  0  0  0  0
  1  8  1  0  0  0  0
  2  3  2  0  0  0  0
  2  6  1  0  0  0  0
  2 37  1  0  0  0  0
  3  4  1  0  0  0  0
  3  7  1  0  0  0  0
  4  5  2  0  0  0  0
  4 38  1  0  0  0  0
  5 39  1  0  0  0  0
  6 40  1  0  0  0  0
  7  9  1  0  0  0  0
  7 10  1  0  0  0  0
  7 34  1  1  0  0  0
  9 41  1  0  0  0  0
 10 29  1  0  0  0  0
 10 30  1  0  0  0  0
 10 31  1  0  0  0  0
 11  9  1  0  0  0  0
 11 12  1  0  0  0  0
 11 13  1  0  0  0  0
 11 35  1  6  0  0  0
 12 16  1  0  0  0  0
 12 17  2  0  0  0  0
 13 14  1  0  0  0  0
 13 42  1  0  0  0  0
 13 43  1  0  0  0  0
 14 15  1  0  0  0  0
 14 27  2  0  0  0  0
 14 28  2  0  0  0  0
 15 44  1  0  0  0  0
 15 45  1  0  0  0  0
 16 24  1  0  0  0  0
 16 46  1  0  0  0  0
 18 15  1  0  0  0  0
 18 19  1  0  0  0  0
 18 22  1  0  0  0  0
 18 36  1  1  0  0  0
 19 20  1  0  0  0  0
 19 47  1  0  0  0  0
 19 48  1  0  0  0  0
 20 21  1  0  0  0  0
 20 49  1  0  0  0  0
 20 50  1  0  0  0  0
 21 22  1  0  0  0  0
 21 23  2  0  0  0  0
 22 51  1  0  0  0  0
 24 25  1  0  0  0  0
 24 26  1  0  0  0  0
 24 33  1  0  0  0  0
 25 26  1  0  0  0  0
 25 52  1  0  0  0  0
 25 53  1  0  0  0  0
 26 54  1  0  0  0  0
 26 55  1  0  0  0  0
 32 33  3  0  0  0  0
M  END
>  <DRUGBANK_ID>
DB07587

>  <COMMON_NAME>
N-(1-CYANOCYCLOPROPYL)-3-({[(2S)-5-OXOPYRROLIDIN-2-YL]METHYL}SULFONYL)-N~2~-[(1S)-2,2,2-TRIFLUORO-1-(4-FLUOROPHENYL)ETHYL]-L-ALANINAMIDE

$$$$
