
 OpenBabel10282417072D

 51 54  0  0  1  0  0  0  0  0999 V2000
   -0.9926    4.8844    0.0000 C   0  0  0  0  0  0  0  0  0  0  0  0
   -0.4406    4.2713    0.0000 C   0  0  0  0  0  0  0  0  0  0  0  0
   -0.6955    3.4867    0.0000 N   0  0  0  0  0  0  0  0  0  0  0  0
   -0.1435    2.8736    0.0000 C   0  0  0  0  0  0  0  0  0  0  0  0
    0.6635    3.0451    0.0000 O   0  0  0  0  0  0  0  0  0  0  0  0
   -0.3984    2.0890    0.0000 C   0  0  1  0  0  0  0  0  0  0  0  0
    0.0865    1.4216    0.0000 O   0  0  0  0  0  0  0  0  0  0  0  0
   -0.3984    0.7541    0.0000 C   0  0  2  0  0  0  0  0  0  0  0  0
   -1.1831    1.0091    0.0000 C   0  0  2  0  0  0  0  0  0  0  0  0
   -1.8505    0.5241    0.0000 O   0  0  0  0  0  0  0  0  0  0  0  0
   -1.1831    1.8341    0.0000 C   0  0  2  0  0  0  0  0  0  0  0  0
   -1.8505    2.3190    0.0000 O   0  0  0  0  0  0  0  0  0  0  0  0
   -0.1435   -0.0305    0.0000 N   0  0  0  0  0  0  0  0  0  0  0  0
   -0.6284   -0.6979    0.0000 C   0  0  0  0  0  0  0  0  0  0  0  0
   -0.1435   -1.3654    0.0000 N   0  0  0  0  0  0  0  0  0  0  0  0
    0.6411   -1.1104    0.0000 C   0  0  0  0  0  0  0  0  0  0  0  0
    0.6411   -0.2854    0.0000 C   0  0  0  0  0  0  0  0  0  0  0  0
    1.3556    0.1271    0.0000 N   0  0  0  0  0  0  0  0  0  0  0  0
    2.0701   -0.2854    0.0000 C   0  0  0  0  0  0  0  0  0  0  0  0
    2.0701   -1.1104    0.0000 N   0  0  0  0  0  0  0  0  0  0  0  0
    1.3556   -1.5229    0.0000 C   0  0  0  0  0  0  0  0  0  0  0  0
    1.3556   -2.3479    0.0000 N   0  0  0  0  0  0  0  0  0  0  0  0
    0.6411   -2.7604    0.0000 C   0  0  0  0  0  0  0  0  0  0  0  0
    0.5549   -3.5809    0.0000 C   0  0  0  0  0  0  0  0  0  0  0  0
   -0.2521   -3.7525    0.0000 C   0  0  0  0  0  0  0  0  0  0  0  0
   -0.6646   -3.0380    0.0000 C   0  0  0  0  0  0  0  0  0  0  0  0
   -0.1126   -2.4249    0.0000 C   0  0  0  0  0  0  0  0  0  0  0  0
   -0.6619    5.9020    0.0000 H   0  0  0  0  0  0  0  0  0  0  0  0
   -2.0392    4.6620    0.0000 H   0  0  0  0  0  0  0  0  0  0  0  0
   -1.7085    5.6796    0.0000 H   0  0  0  0  0  0  0  0  0  0  0  0
    0.6060    4.4938    0.0000 H   0  0  0  0  0  0  0  0  0  0  0  0
    0.2754    3.4761    0.0000 H   0  0  0  0  0  0  0  0  0  0  0  0
   -1.6585    3.2820    0.0000 H   0  0  0  0  0  0  0  0  0  0  0  0
    0.6584    2.2564    0.0000 H   0  0  0  0  0  0  0  0  0  0  0  0
    0.6584    0.5867    0.0000 H   0  0  0  0  0  0  0  0  0  0  0  0
   -1.0157   -0.0477    0.0000 H   0  0  0  0  0  0  0  0  0  0  0  0
   -2.7367    0.9185    0.0000 H   0  0  0  0  0  0  0  0  0  0  0  0
   -2.1365    1.3483    0.0000 H   0  0  0  0  0  0  0  0  0  0  0  0
   -1.7491    3.2837    0.0000 H   0  0  0  0  0  0  0  0  0  0  0  0
   -1.6604   -0.6979    0.0000 H   0  0  0  0  0  0  0  0  0  0  0  0
    2.9638    0.2306    0.0000 H   0  0  0  0  0  0  0  0  0  0  0  0
    2.2082   -2.8402    0.0000 H   0  0  0  0  0  0  0  0  0  0  0  0
   -0.2855   -3.2955    0.0000 H   0  0  0  0  0  0  0  0  0  0  0  0
    1.3501   -4.2968    0.0000 H   0  0  0  0  0  0  0  0  0  0  0  0
    0.2780   -4.6145    0.0000 H   0  0  0  0  0  0  0  0  0  0  0  0
   -0.6873   -4.7300    0.0000 H   0  0  0  0  0  0  0  0  0  0  0  0
   -1.3206   -3.8085    0.0000 H   0  0  0  0  0  0  0  0  0  0  0  0
   -1.7287   -2.9262    0.0000 H   0  0  0  0  0  0  0  0  0  0  0  0
   -1.0481   -2.0391    0.0000 H   0  0  0  0  0  0  0  0  0  0  0  0
   -0.3351   -1.3783    0.0000 H   0  0  0  0  0  0  0  0  0  0  0  0
    0.7189   -1.7515    0.0000 H   0  0  0  0  0  0  0  0  0  0  0  0
  1  2  1  0  0  0  0
  1 28  1  0  0  0  0
  1 29  1  0  0  0  0
  1 30  1  0  0  0  0
  2  3  1  0  0  0  0
  2 31  1  0  0  0  0
  2 32  1  0  0  0  0
  3  4  1  0  0  0  0
  3 33  1  0  0  0  0
  4  5  2  0  0  0  0
  6  4  1  0  0  0  0
  6  7  1  0  0  0  0
  6 34  1  6  0  0  0
  8  7  1  0  0  0  0
  8 13  1  0  0  0  0
  8 35  1  6  0  0  0
  9  8  1  0  0  0  0
  9 10  1  0  0  0  0
  9 11  1  0  0  0  0
  9 36  1  1  0  0  0
 10 37  1  0  0  0  0
 11  6  1  0  0  0  0
 11 12  1  0  0  0  0
 11 38  1  1  0  0  0
 12 39  1  0  0  0  0
 13 14  1  0  0  0  0
 13 17  1  0  0  0  0
 14 15  2  0  0  0  0
 14 40  1  0  0  0  0
 15 16  1  0  0  0  0
 16 17  2  0  0  0  0
 16 21  1  0  0  0  0
 17 18  1  0  0  0  0
 18 19  2  0  0  0  0
 19 20  1  0  0  0  0
 19 41  1  0  0  0  0
 20 21  2  0  0  0  0
 21 22  1  0  0  0  0
 22 23  1  0  0  0  0
 22 42  1  0  0  0  0
 23 24  1  0  0  0  0
 23 27  1  0  0  0  0
 23 43  1  0  0  0  0
 24 25  1  0  0  0  0
 24 44  1  0  0  0  0
 24 45  1  0  0  0  0
 25 26  1  0  0  0  0
 25 46  1  0  0  0  0
 25 47  1  0  0  0  0
 26 27  1  0  0  0  0
 26 48  1  0  0  0  0
 26 49  1  0  0  0  0
 27 50  1  0  0  0  0
 27 51  1  0  0  0  0
M  END
>  <DRUGBANK_ID>
DB16325

>  <COMMON_NAME>
Selodenoson

>  <CAS_NUMBER>
110299-05-3

>  <UNII>
103G5E953K

>  <SYNONYMS>
Selodenoson

$$$$
