
 OpenBabel10282417072D

 45 46  0  0  0  0  0  0  0  0999 V2000
   -1.0717   -0.4125    0.0000 C   0  0  0  0  0  0  0  0  0  0  0  0
   -1.7861   -0.8250    0.0000 C   0  0  0  0  0  0  0  0  0  0  0  0
   -2.5007   -0.4125    0.0000 C   0  0  0  0  0  0  0  0  0  0  0  0
   -2.5007    0.4124    0.0000 C   0  0  0  0  0  0  0  0  0  0  0  0
   -1.7862    0.8249    0.0000 C   0  0  0  0  0  0  0  0  0  0  0  0
   -1.0717    0.4124    0.0000 C   0  0  0  0  0  0  0  0  0  0  0  0
    0.3572   -0.4125    0.0000 C   0  0  0  0  0  0  0  0  0  0  0  0
   -0.3572   -0.8250    0.0000 C   0  0  3  0  0  0  0  0  0  0  0  0
    0.3572    0.4124    0.0000 O   0  0  0  0  0  0  0  0  0  0  0  0
    1.0717   -0.8250    0.0000 O   0  0  0  0  0  0  0  0  0  0  0  0
   -3.2152    0.8249    0.0000 C   0  0  0  0  0  0  0  0  0  0  0  0
   -3.2152    1.6500    0.0000 C   0  0  0  0  0  0  0  0  0  0  0  0
   -3.9296    2.0625    0.0000 C   0  0  0  0  0  0  0  0  0  0  0  0
   -2.5007    2.0625    0.0000 C   0  0  0  0  0  0  0  0  0  0  0  0
   -0.3572   -1.6500    0.0000 C   0  0  0  0  0  0  0  0  0  0  0  0
    1.7861   -0.4125    0.0000 C   0  0  0  0  0  0  0  0  0  0  0  0
    2.5007   -0.8249    0.0000 C   0  0  0  0  0  0  0  0  0  0  0  0
    3.2151   -0.4124    0.0000 C   0  0  0  0  0  0  0  0  0  0  0  0
    3.9296   -0.8249    0.0000 C   0  0  0  0  0  0  0  0  0  0  0  0
    3.9296   -1.6500    0.0000 C   0  0  0  0  0  0  0  0  0  0  0  0
    3.2151   -2.0625    0.0000 C   0  0  0  0  0  0  0  0  0  0  0  0
    2.5007   -1.6500    0.0000 N   0  0  0  0  0  0  0  0  0  0  0  0
   -1.7860   -1.8570    0.0000 H   0  0  0  0  0  0  0  0  0  0  0  0
   -3.3944   -0.9285    0.0000 H   0  0  0  0  0  0  0  0  0  0  0  0
   -1.7862    1.8569    0.0000 H   0  0  0  0  0  0  0  0  0  0  0  0
   -0.1780    0.9284    0.0000 H   0  0  0  0  0  0  0  0  0  0  0  0
   -0.3572    0.2450    0.0000 H   0  0  0  0  0  0  0  0  0  0  0  0
   -4.1418    0.2899    0.0000 H   0  0  0  0  0  0  0  0  0  0  0  0
   -3.2152   -0.2451    0.0000 H   0  0  0  0  0  0  0  0  0  0  0  0
   -3.2152    2.7200    0.0000 H   0  0  0  0  0  0  0  0  0  0  0  0
   -3.9296    3.1325    0.0000 H   0  0  0  0  0  0  0  0  0  0  0  0
   -4.8563    1.5275    0.0000 H   0  0  0  0  0  0  0  0  0  0  0  0
   -4.8562    2.5975    0.0000 H   0  0  0  0  0  0  0  0  0  0  0  0
   -1.5741    1.5275    0.0000 H   0  0  0  0  0  0  0  0  0  0  0  0
   -2.5007    3.1325    0.0000 H   0  0  0  0  0  0  0  0  0  0  0  0
   -1.5740    2.5975    0.0000 H   0  0  0  0  0  0  0  0  0  0  0  0
   -1.2838   -2.1850    0.0000 H   0  0  0  0  0  0  0  0  0  0  0  0
    0.5694   -2.1850    0.0000 H   0  0  0  0  0  0  0  0  0  0  0  0
   -0.3572   -2.7200    0.0000 H   0  0  0  0  0  0  0  0  0  0  0  0
    1.7860    0.6575    0.0000 H   0  0  0  0  0  0  0  0  0  0  0  0
    0.8594    0.1224    0.0000 H   0  0  0  0  0  0  0  0  0  0  0  0
    3.2151    0.6196    0.0000 H   0  0  0  0  0  0  0  0  0  0  0  0
    4.8233   -0.3089    0.0000 H   0  0  0  0  0  0  0  0  0  0  0  0
    4.8233   -2.1660    0.0000 H   0  0  0  0  0  0  0  0  0  0  0  0
    3.2151   -3.0945    0.0000 H   0  0  0  0  0  0  0  0  0  0  0  0
  1  2  1  0  0  0  0
  1  6  2  0  0  0  0
  1  8  1  0  0  0  0
  2  3  2  0  0  0  0
  2 23  1  0  0  0  0
  3  4  1  0  0  0  0
  3 24  1  0  0  0  0
  4  5  2  0  0  0  0
  4 11  1  0  0  0  0
  5  6  1  0  0  0  0
  5 25  1  0  0  0  0
  6 26  1  0  0  0  0
  7  8  1  0  0  0  0
  7  9  2  0  0  0  0
  7 10  1  0  0  0  0
  8 15  1  0  0  0  0
  8 27  1  0  0  0  0
 10 16  1  0  0  0  0
 11 12  1  0  0  0  0
 11 28  1  0  0  0  0
 11 29  1  0  0  0  0
 12 13  1  0  0  0  0
 12 14  1  0  0  0  0
 12 30  1  0  0  0  0
 13 31  1  0  0  0  0
 13 32  1  0  0  0  0
 13 33  1  0  0  0  0
 14 34  1  0  0  0  0
 14 35  1  0  0  0  0
 14 36  1  0  0  0  0
 15 37  1  0  0  0  0
 15 38  1  0  0  0  0
 15 39  1  0  0  0  0
 16 17  1  0  0  0  0
 16 40  1  0  0  0  0
 16 41  1  0  0  0  0
 17 18  1  0  0  0  0
 17 22  2  0  0  0  0
 18 19  2  0  0  0  0
 18 42  1  0  0  0  0
 19 20  1  0  0  0  0
 19 43  1  0  0  0  0
 20 21  2  0  0  0  0
 20 44  1  0  0  0  0
 21 22  1  0  0  0  0
 21 45  1  0  0  0  0
M  END
>  <DRUGBANK_ID>
DB16887

>  <COMMON_NAME>
Ibuprofen piconol

>  <CAS_NUMBER>
64622-45-3

>  <UNII>
B0F91K5U4N

>  <SYNONYMS>
Ibuprofen piconol

$$$$
