
 OpenBabel10282417072D

135137  0  0  0  0  0  0  0  0999 V2000
   -4.9425    0.1569    0.0000 C   0  0  0  0  0  0  0  0  0  0  0  0
   -5.6356   -0.2905    0.0000 C   0  0  0  0  0  0  0  0  0  0  0  0
   -5.6356   -1.1578    0.0000 C   0  0  0  0  0  0  0  0  0  0  0  0
   -6.3842   -1.6053    0.0000 C   0  0  0  0  0  0  0  0  0  0  0  0
   -6.3842   -2.4845    0.0000 C   0  0  1  0  0  0  0  0  0  0  0  0
   -7.3306   -3.0945    0.0000 C   0  0  0  0  0  0  0  0  0  0  0  0
   -5.6157   -2.9360    0.0000 O   0  0  0  0  0  0  0  0  0  0  0  0
   -4.8950   -2.3737    0.0000 C   0  0  0  0  0  0  0  0  0  0  0  0
   -4.8950   -1.5221    0.0000 O   0  0  0  0  0  0  0  0  0  0  0  0
   -4.1267   -2.9162    0.0000 C   0  0  0  0  0  0  0  0  0  0  0  0
   -3.3742   -2.4529    0.0000 C   0  0  2  0  0  0  0  0  0  0  0  0
   -3.3742   -1.5578    0.0000 C   0  0  1  0  0  0  0  0  0  0  0  0
   -2.5821   -1.0430    0.0000 C   0  0  2  0  0  0  0  0  0  0  0  0
   -2.5821   -0.2232    0.0000 C   0  0  2  0  0  0  0  0  0  0  0  0
   -3.4019    0.2718    0.0000 C   0  0  0  0  0  0  0  0  0  0  0  0
   -3.4019    1.0520    0.0000 C   0  0  1  0  0  0  0  0  0  0  0  0
   -2.6851    1.5550    0.0000 C   0  0  0  0  0  0  0  0  0  0  0  0
   -4.1544    1.4718    0.0000 C   0  0  1  0  0  0  0  0  0  0  0  0
   -4.1544    2.4742    0.0000 O   0  0  0  0  0  0  0  0  0  0  0  0
   -4.9425    0.9411    0.0000 C   0  0  0  0  0  0  0  0  0  0  0  0
   -1.9841    0.1965    0.0000 C   0  0  0  0  0  0  0  0  0  0  0  0
   -1.9841    1.0282    0.0000 C   0  0  0  0  0  0  0  0  0  0  0  0
   -1.2713    1.5035    0.0000 O   0  0  0  0  0  0  0  0  0  0  0  0
   -1.6351   -1.7304    0.0000 O   0  0  0  0  0  0  0  0  0  0  0  0
   -0.7430   -1.2091    0.0000 C   0  0  2  0  0  0  0  0  0  0  0  0
   -0.0745   -1.6205    0.0000 O   0  0  0  0  0  0  0  0  0  0  0  0
    0.6403   -1.2456    0.0000 C   0  0  1  0  0  0  0  0  0  0  0  0
    0.6403   -0.4594    0.0000 C   0  0  1  0  0  0  0  0  0  0  0  0
    1.6684    0.0236    0.0000 O   0  0  0  0  0  0  0  0  0  0  0  0
    2.3500    0.4149    0.0000 C   0  0  1  0  0  0  0  0  0  0  0  0
    2.3500    1.1973    0.0000 C   0  0  0  0  0  0  0  0  0  0  0  0
    3.0236    1.5887    0.0000 C   0  0  2  0  0  0  0  0  0  0  0  0
    2.3168    2.0659    0.0000 C   0  0  0  0  0  0  0  0  0  0  0  0
    3.7053    1.1973    0.0000 C   0  0  1  0  0  0  0  0  0  0  0  0
    4.3788    1.5887    0.0000 O   0  0  0  0  0  0  0  0  0  0  0  0
    5.0535    1.1905    0.0000 C   0  0  0  0  0  0  0  0  0  0  0  0
    5.7307    1.5826    0.0000 C   0  0  0  0  0  0  0  0  0  0  0  0
    6.5306    1.1154    0.0000 C   0  0  0  0  0  0  0  0  0  0  0  0
    7.3306    1.5787    0.0000 C   0  0  0  0  0  0  0  0  0  0  0  0
    6.5306    0.1925    0.0000 C   0  0  0  0  0  0  0  0  0  0  0  0
    5.0535    0.4064    0.0000 O   0  0  0  0  0  0  0  0  0  0  0  0
    3.7053    0.4149    0.0000 C   0  0  2  0  0  0  0  0  0  0  0  0
    4.3801    0.0183    0.0000 C   0  0  0  0  0  0  0  0  0  0  0  0
    3.0236    0.0236    0.0000 O   0  0  0  0  0  0  0  0  0  0  0  0
    3.6257    2.1812    0.0000 O   0  0  0  0  0  0  0  0  0  0  0  0
    1.3148   -0.8489    0.0000 H   0  0  0  0  0  0  0  0  0  0  0  0
   -0.0324   -0.0478    0.0000 C   0  0  1  0  0  0  0  0  0  0  0  0
   -0.7430   -0.4228    0.0000 C   0  0  1  0  0  0  0  0  0  0  0  0
   -1.2998   -0.0747    0.0000 O   0  0  0  0  0  0  0  0  0  0  0  0
   -0.0324    0.5801    0.0000 N   0  0  0  0  0  0  0  0  0  0  0  0
   -0.6494    0.9094    0.0000 C   0  0  0  0  0  0  0  0  0  0  0  0
    0.6574    0.9372    0.0000 C   0  0  0  0  0  0  0  0  0  0  0  0
    1.2950   -1.6449    0.0000 C   0  0  0  0  0  0  0  0  0  0  0  0
   -1.5682   -0.7856    0.0000 H   0  0  0  0  0  0  0  0  0  0  0  0
   -4.1386   -1.0074    0.0000 O   0  0  0  0  0  0  0  0  0  0  0  0
   -4.1386   -0.2588    0.0000 C   0  0  0  0  0  0  0  0  0  0  0  0
   -2.5029   -2.9519    0.0000 O   0  0  0  0  0  0  0  0  0  0  0  0
   -1.3898   -2.5184    0.0000 O   0  0  0  0  0  0  0  0  0  0  0  0
   -1.5815   -3.8789    0.0000 C   0  0  0  0  0  0  0  0  0  0  0  0
   -1.8582   -3.0923    0.0000 C   0  0  0  0  0  0  0  0  0  0  0  0
   -4.7411    2.8253    0.0000 C   0  0  0  0  0  0  0  0  0  0  0  0
   -5.2381    2.3287    0.0000 O   0  0  0  0  0  0  0  0  0  0  0  0
   -4.7411    3.5276    0.0000 C   0  0  0  0  0  0  0  0  0  0  0  0
   -5.3497    3.8789    0.0000 C   0  0  0  0  0  0  0  0  0  0  0  0
   -4.0362   -0.3368    0.0000 H   0  0  0  0  0  0  0  0  0  0  0  0
   -6.5419    0.2032    0.0000 H   0  0  0  0  0  0  0  0  0  0  0  0
   -4.7380   -1.6670    0.0000 H   0  0  0  0  0  0  0  0  0  0  0  0
   -7.3149   -1.0774    0.0000 H   0  0  0  0  0  0  0  0  0  0  0  0
   -7.3088   -2.1438    0.0000 H   0  0  0  0  0  0  0  0  0  0  0  0
   -7.3237   -1.9723    0.0000 H   0  0  0  0  0  0  0  0  0  0  0  0
   -8.2823   -2.6055    0.0000 H   0  0  0  0  0  0  0  0  0  0  0  0
   -7.2783   -4.1632    0.0000 H   0  0  0  0  0  0  0  0  0  0  0  0
   -8.2300   -3.6742    0.0000 H   0  0  0  0  0  0  0  0  0  0  0  0
   -4.1604   -3.9857    0.0000 H   0  0  0  0  0  0  0  0  0  0  0  0
   -3.2009   -3.4527    0.0000 H   0  0  0  0  0  0  0  0  0  0  0  0
   -3.3572   -3.5228    0.0000 H   0  0  0  0  0  0  0  0  0  0  0  0
   -4.3265   -2.0456    0.0000 H   0  0  0  0  0  0  0  0  0  0  0  0
   -2.6097   -2.1126    0.0000 H   0  0  0  0  0  0  0  0  0  0  0  0
   -1.6327   -0.7168    0.0000 H   0  0  0  0  0  0  0  0  0  0  0  0
   -4.3337   -0.2541    0.0000 H   0  0  0  0  0  0  0  0  0  0  0  0
   -4.3259    0.8113    0.0000 H   0  0  0  0  0  0  0  0  0  0  0  0
   -2.4525    0.5584    0.0000 H   0  0  0  0  0  0  0  0  0  0  0  0
   -1.7149    1.1038    0.0000 H   0  0  0  0  0  0  0  0  0  0  0  0
   -2.7794    2.6208    0.0000 H   0  0  0  0  0  0  0  0  0  0  0  0
   -1.8092    2.1696    0.0000 H   0  0  0  0  0  0  0  0  0  0  0  0
   -3.2317    2.0136    0.0000 H   0  0  0  0  0  0  0  0  0  0  0  0
   -5.8535    1.4259    0.0000 H   0  0  0  0  0  0  0  0  0  0  0  0
   -1.0347   -0.2971    0.0000 H   0  0  0  0  0  0  0  0  0  0  0  0
   -1.0695    0.7518    0.0000 H   0  0  0  0  0  0  0  0  0  0  0  0
   -2.8940    1.5151    0.0000 H   0  0  0  0  0  0  0  0  0  0  0  0
    0.6057   -2.3150    0.0000 H   0  0  0  0  0  0  0  0  0  0  0  0
    1.4240    0.9510    0.0000 H   0  0  0  0  0  0  0  0  0  0  0  0
    1.4226    1.7310    0.0000 H   0  0  0  0  0  0  0  0  0  0  0  0
    2.3478    2.2673    0.0000 H   0  0  0  0  0  0  0  0  0  0  0  0
    2.3919    3.1333    0.0000 H   0  0  0  0  0  0  0  0  0  0  0  0
    1.3549    1.5973    0.0000 H   0  0  0  0  0  0  0  0  0  0  0  0
    1.4300    2.6646    0.0000 H   0  0  0  0  0  0  0  0  0  0  0  0
    3.7025    2.2673    0.0000 H   0  0  0  0  0  0  0  0  0  0  0  0
    5.7327    2.6526    0.0000 H   0  0  0  0  0  0  0  0  0  0  0  0
    6.6592    2.1144    0.0000 H   0  0  0  0  0  0  0  0  0  0  0  0
    7.4576    0.5810    0.0000 H   0  0  0  0  0  0  0  0  0  0  0  0
    8.2580    1.0449    0.0000 H   0  0  0  0  0  0  0  0  0  0  0  0
    7.3292    2.6487    0.0000 H   0  0  0  0  0  0  0  0  0  0  0  0
    8.2565    2.1149    0.0000 H   0  0  0  0  0  0  0  0  0  0  0  0
    5.6040   -0.3425    0.0000 H   0  0  0  0  0  0  0  0  0  0  0  0
    7.4572   -0.3425    0.0000 H   0  0  0  0  0  0  0  0  0  0  0  0
    6.5306   -0.8775    0.0000 H   0  0  0  0  0  0  0  0  0  0  0  0
    4.6340    0.9463    0.0000 H   0  0  0  0  0  0  0  0  0  0  0  0
    4.3718   -1.0517    0.0000 H   0  0  0  0  0  0  0  0  0  0  0  0
    5.3109    0.5461    0.0000 H   0  0  0  0  0  0  0  0  0  0  0  0
    5.3026   -0.5239    0.0000 H   0  0  0  0  0  0  0  0  0  0  0  0
    4.5606    1.9226    0.0000 H   0  0  0  0  0  0  0  0  0  0  0  0
    0.9010    0.4753    0.0000 H   0  0  0  0  0  0  0  0  0  0  0  0
   -0.7039    0.6465    0.0000 H   0  0  0  0  0  0  0  0  0  0  0  0
   -1.2657    0.8947    0.0000 H   0  0  0  0  0  0  0  0  0  0  0  0
   -0.6851    1.9788    0.0000 H   0  0  0  0  0  0  0  0  0  0  0  0
   -1.5577    0.3438    0.0000 H   0  0  0  0  0  0  0  0  0  0  0  0
   -1.5934    1.4132    0.0000 H   0  0  0  0  0  0  0  0  0  0  0  0
    1.5585    0.3602    0.0000 H   0  0  0  0  0  0  0  0  0  0  0  0
    0.7065    2.0061    0.0000 H   0  0  0  0  0  0  0  0  0  0  0  0
    1.6076    1.4291    0.0000 H   0  0  0  0  0  0  0  0  0  0  0  0
    1.2693   -2.7146    0.0000 H   0  0  0  0  0  0  0  0  0  0  0  0
    2.2343   -1.1324    0.0000 H   0  0  0  0  0  0  0  0  0  0  0  0
    2.2085   -2.2020    0.0000 H   0  0  0  0  0  0  0  0  0  0  0  0
   -3.2120    0.2762    0.0000 H   0  0  0  0  0  0  0  0  0  0  0  0
   -5.0652    0.2762    0.0000 H   0  0  0  0  0  0  0  0  0  0  0  0
   -4.1386    0.8112    0.0000 H   0  0  0  0  0  0  0  0  0  0  0  0
   -2.2781   -4.6911    0.0000 H   0  0  0  0  0  0  0  0  0  0  0  0
   -0.5298   -4.0761    0.0000 H   0  0  0  0  0  0  0  0  0  0  0  0
   -1.2264   -4.8883    0.0000 H   0  0  0  0  0  0  0  0  0  0  0  0
   -3.8145    4.0626    0.0000 H   0  0  0  0  0  0  0  0  0  0  0  0
   -4.7412    4.5976    0.0000 H   0  0  0  0  0  0  0  0  0  0  0  0
   -5.3498    4.9489    0.0000 H   0  0  0  0  0  0  0  0  0  0  0  0
   -6.2763    3.3438    0.0000 H   0  0  0  0  0  0  0  0  0  0  0  0
   -6.2764    4.4138    0.0000 H   0  0  0  0  0  0  0  0  0  0  0  0
  1 20  2  0  0  0  0
  1 65  1  0  0  0  0
  2  1  1  0  0  0  0
  2 66  1  0  0  0  0
  3  2  2  0  0  0  0
  3  4  1  0  0  0  0
  3 67  1  0  0  0  0
  4  5  1  0  0  0  0
  4 68  1  0  0  0  0
  4 69  1  0  0  0  0
  5  6  1  0  0  0  0
  5  7  1  0  0  0  0
  5 70  1  1  0  0  0
  6 71  1  0  0  0  0
  6 72  1  0  0  0  0
  6 73  1  0  0  0  0
  7  8  1  0  0  0  0
  8 10  1  0  0  0  0
  9  8  2  0  0  0  0
 10 11  1  0  0  0  0
 10 74  1  0  0  0  0
 10 75  1  0  0  0  0
 11 12  1  0  0  0  0
 11 57  1  0  0  0  0
 11 76  1  1  0  0  0
 12 13  1  0  0  0  0
 12 55  1  0  0  0  0
 12 77  1  1  0  0  0
 13 24  1  0  0  0  0
 13 78  1  1  0  0  0
 14 13  1  0  0  0  0
 14 21  1  0  0  0  0
 14 79  1  1  0  0  0
 15 14  1  0  0  0  0
 15 80  1  0  0  0  0
 15 81  1  0  0  0  0
 16 15  1  0  0  0  0
 16 17  1  0  0  0  0
 16 82  1  1  0  0  0
 17 83  1  0  0  0  0
 17 84  1  0  0  0  0
 17 85  1  0  0  0  0
 18 16  1  0  0  0  0
 18 19  1  0  0  0  0
 18 86  1  1  0  0  0
 19 61  1  0  0  0  0
 20 18  1  0  0  0  0
 20 87  1  0  0  0  0
 21 88  1  0  0  0  0
 21 89  1  0  0  0  0
 22 21  1  0  0  0  0
 22 90  1  0  0  0  0
 23 22  2  0  0  0  0
 25 24  1  0  0  0  0
 25 26  1  0  0  0  0
 25 54  1  6  0  0  0
 26 27  1  0  0  0  0
 27 28  1  0  0  0  0
 27 53  1  0  0  0  0
 27 91  1  6  0  0  0
 28 29  1  0  0  0  0
 28 46  1  1  0  0  0
 28 47  1  0  0  0  0
 30 29  1  0  0  0  0
 30 44  1  0  0  0  0
 30 92  1  6  0  0  0
 31 30  1  0  0  0  0
 31 93  1  0  0  0  0
 31 94  1  0  0  0  0
 32 31  1  0  0  0  0
 32 33  1  0  0  0  0
 32 45  1  1  0  0  0
 33 95  1  0  0  0  0
 33 96  1  0  0  0  0
 33 97  1  0  0  0  0
 34 32  1  0  0  0  0
 34 35  1  0  0  0  0
 34 98  1  6  0  0  0
 35 36  1  0  0  0  0
 36 37  1  0  0  0  0
 36 41  2  0  0  0  0
 37 38  1  0  0  0  0
 37 99  1  0  0  0  0
 37100  1  0  0  0  0
 38 39  1  0  0  0  0
 38 40  1  0  0  0  0
 38101  1  0  0  0  0
 39102  1  0  0  0  0
 39103  1  0  0  0  0
 39104  1  0  0  0  0
 40105  1  0  0  0  0
 40106  1  0  0  0  0
 40107  1  0  0  0  0
 42 34  1  0  0  0  0
 42 43  1  0  0  0  0
 42108  1  1  0  0  0
 43109  1  0  0  0  0
 43110  1  0  0  0  0
 43111  1  0  0  0  0
 44 42  1  0  0  0  0
 45112  1  0  0  0  0
 47 48  1  0  0  0  0
 47 50  1  0  0  0  0
 47113  1  6  0  0  0
 48 25  1  0  0  0  0
 48 49  1  0  0  0  0
 48114  1  1  0  0  0
 49115  1  0  0  0  0
 50 51  1  0  0  0  0
 50 52  1  0  0  0  0
 51116  1  0  0  0  0
 51117  1  0  0  0  0
 51118  1  0  0  0  0
 52119  1  0  0  0  0
 52120  1  0  0  0  0
 52121  1  0  0  0  0
 53122  1  0  0  0  0
 53123  1  0  0  0  0
 53124  1  0  0  0  0
 56 55  1  0  0  0  0
 56125  1  0  0  0  0
 56126  1  0  0  0  0
 56127  1  0  0  0  0
 57 60  1  0  0  0  0
 59128  1  0  0  0  0
 59129  1  0  0  0  0
 59130  1  0  0  0  0
 60 58  2  0  0  0  0
 60 59  1  0  0  0  0
 61 62  2  0  0  0  0
 61 63  1  0  0  0  0
 63 64  1  0  0  0  0
 63131  1  0  0  0  0
 63132  1  0  0  0  0
 64133  1  0  0  0  0
 64134  1  0  0  0  0
 64135  1  0  0  0  0
M  END
>  <DRUGBANK_ID>
DB15981

>  <COMMON_NAME>
Josamycin propionate

>  <CAS_NUMBER>
40922-77-8

>  <UNII>
053VA4B06Y

>  <SYNONYMS>
Josamycin propionate

$$$$
