
 OpenBabel10282417072D

 66 71  0  0  0  0  0  0  0  0999 V2000
    9.3883    8.8719    0.0000 C   0  0  0  0  0  0  0  0  0  0  0  0
    8.7752    8.3198    0.0000 O   0  0  0  0  0  0  0  0  0  0  0  0
    8.9467    7.5129    0.0000 C   0  0  0  0  0  0  0  0  0  0  0  0
    8.3336    6.9608    0.0000 C   0  0  0  0  0  0  0  0  0  0  0  0
    8.5051    6.1539    0.0000 O   0  0  0  0  0  0  0  0  0  0  0  0
    7.8921    5.6018    0.0000 C   0  0  0  0  0  0  0  0  0  0  0  0
    8.0636    4.7948    0.0000 C   0  0  0  0  0  0  0  0  0  0  0  0
    7.4505    4.2428    0.0000 C   0  0  0  0  0  0  0  0  0  0  0  0
    6.6659    4.4978    0.0000 C   0  0  0  0  0  0  0  0  0  0  0  0
    6.4943    5.3047    0.0000 C   0  0  0  0  0  0  0  0  0  0  0  0
    7.1074    5.8568    0.0000 C   0  0  0  0  0  0  0  0  0  0  0  0
    6.0528    3.9457    0.0000 N   0  0  0  0  0  0  0  0  0  0  0  0
    6.2243    3.1387    0.0000 C   0  0  0  0  0  0  0  0  0  0  0  0
    5.6112    2.5867    0.0000 C   0  0  0  0  0  0  0  0  0  0  0  0
    4.8266    2.8417    0.0000 N   0  0  0  0  0  0  0  0  0  0  0  0
    4.6551    3.6486    0.0000 C   0  0  0  0  0  0  0  0  0  0  0  0
    5.2681    4.2007    0.0000 C   0  0  0  0  0  0  0  0  0  0  0  0
    4.2135    2.2896    0.0000 C   0  0  0  0  0  0  0  0  0  0  0  0
    3.4289    2.5446    0.0000 C   0  0  0  0  0  0  0  0  0  0  0  0
    2.8158    1.9925    0.0000 N   0  0  0  0  0  0  0  0  0  0  0  0
    2.0088    2.1641    0.0000 C   0  0  0  0  0  0  0  0  0  0  0  0
    1.5963    1.4496    0.0000 C   0  0  0  0  0  0  0  0  0  0  0  0
    2.1483    0.8365    0.0000 C   0  0  0  0  0  0  0  0  0  0  0  0
    2.9020    1.1720    0.0000 N   0  0  0  0  0  0  0  0  0  0  0  0
    0.7713    1.4496    0.0000 C   0  0  0  0  0  0  0  0  0  0  0  0
    0.2193    0.8365    0.0000 N   0  0  0  0  0  0  0  0  0  0  0  0
   -0.5344    1.1720    0.0000 C   0  0  0  0  0  0  0  0  0  0  0  0
   -0.4482    1.9925    0.0000 N   0  0  0  0  0  0  0  0  0  0  0  0
    0.3588    2.1641    0.0000 N   0  0  0  0  0  0  0  0  0  0  0  0
    0.7713    2.8785    0.0000 C   0  0  0  0  0  0  0  0  0  0  0  0
    1.5963    2.8785    0.0000 N   0  0  0  0  0  0  0  0  0  0  0  0
    0.3588    3.5930    0.0000 N   0  0  0  0  0  0  0  0  0  0  0  0
   -1.2489    0.7595    0.0000 C   0  0  0  0  0  0  0  0  0  0  0  0
   -1.3351   -0.0609    0.0000 C   0  0  0  0  0  0  0  0  0  0  0  0
   -2.1421   -0.2325    0.0000 C   0  0  0  0  0  0  0  0  0  0  0  0
   -2.5546    0.4820    0.0000 C   0  0  0  0  0  0  0  0  0  0  0  0
   -2.0026    1.0951    0.0000 O   0  0  0  0  0  0  0  0  0  0  0  0
   10.4059    8.5413    0.0000 H   0  0  0  0  0  0  0  0  0  0  0  0
    9.1658    9.9185    0.0000 H   0  0  0  0  0  0  0  0  0  0  0  0
   10.1834    9.5879    0.0000 H   0  0  0  0  0  0  0  0  0  0  0  0
    9.9643    7.1823    0.0000 H   0  0  0  0  0  0  0  0  0  0  0  0
    9.1692    6.4663    0.0000 H   0  0  0  0  0  0  0  0  0  0  0  0
    7.3160    7.2914    0.0000 H   0  0  0  0  0  0  0  0  0  0  0  0
    7.5384    6.2448    0.0000 H   0  0  0  0  0  0  0  0  0  0  0  0
    9.0451    4.4759    0.0000 H   0  0  0  0  0  0  0  0  0  0  0  0
    7.6650    3.2333    0.0000 H   0  0  0  0  0  0  0  0  0  0  0  0
    5.5128    5.6235    0.0000 H   0  0  0  0  0  0  0  0  0  0  0  0
    6.8928    6.8662    0.0000 H   0  0  0  0  0  0  0  0  0  0  0  0
    7.2419    2.8080    0.0000 H   0  0  0  0  0  0  0  0  0  0  0  0
    6.4467    2.0921    0.0000 H   0  0  0  0  0  0  0  0  0  0  0  0
    5.8336    1.5401    0.0000 H   0  0  0  0  0  0  0  0  0  0  0  0
    4.8160    1.8708    0.0000 H   0  0  0  0  0  0  0  0  0  0  0  0
    3.6374    3.9792    0.0000 H   0  0  0  0  0  0  0  0  0  0  0  0
    4.4325    4.6952    0.0000 H   0  0  0  0  0  0  0  0  0  0  0  0
    5.0456    5.2473    0.0000 H   0  0  0  0  0  0  0  0  0  0  0  0
    6.0633    4.9167    0.0000 H   0  0  0  0  0  0  0  0  0  0  0  0
    4.4360    1.2430    0.0000 H   0  0  0  0  0  0  0  0  0  0  0  0
    3.4183    1.5737    0.0000 H   0  0  0  0  0  0  0  0  0  0  0  0
    3.2064    3.5912    0.0000 H   0  0  0  0  0  0  0  0  0  0  0  0
    2.4113    2.8752    0.0000 H   0  0  0  0  0  0  0  0  0  0  0  0
    1.9337   -0.1729    0.0000 H   0  0  0  0  0  0  0  0  0  0  0  0
    0.8511    4.4456    0.0000 H   0  0  0  0  0  0  0  0  0  0  0  0
   -0.6257    3.5930    0.0000 H   0  0  0  0  0  0  0  0  0  0  0  0
   -0.5681   -0.7514    0.0000 H   0  0  0  0  0  0  0  0  0  0  0  0
   -2.5618   -1.1753    0.0000 H   0  0  0  0  0  0  0  0  0  0  0  0
   -3.5809    0.5899    0.0000 H   0  0  0  0  0  0  0  0  0  0  0  0
  1  2  1  0  0  0  0
  1 38  1  0  0  0  0
  1 39  1  0  0  0  0
  1 40  1  0  0  0  0
  2  3  1  0  0  0  0
  3  4  1  0  0  0  0
  3 41  1  0  0  0  0
  3 42  1  0  0  0  0
  4  5  1  0  0  0  0
  4 43  1  0  0  0  0
  4 44  1  0  0  0  0
  5  6  1  0  0  0  0
  6  7  2  0  0  0  0
  6 11  1  0  0  0  0
  7  8  1  0  0  0  0
  7 45  1  0  0  0  0
  8  9  2  0  0  0  0
  8 46  1  0  0  0  0
  9 10  1  0  0  0  0
  9 12  1  0  0  0  0
 10 11  2  0  0  0  0
 10 47  1  0  0  0  0
 11 48  1  0  0  0  0
 12 13  1  0  0  0  0
 12 17  1  0  0  0  0
 13 14  1  0  0  0  0
 13 49  1  0  0  0  0
 13 50  1  0  0  0  0
 14 15  1  0  0  0  0
 14 51  1  0  0  0  0
 14 52  1  0  0  0  0
 15 16  1  0  0  0  0
 15 18  1  0  0  0  0
 16 17  1  0  0  0  0
 16 53  1  0  0  0  0
 16 54  1  0  0  0  0
 17 55  1  0  0  0  0
 17 56  1  0  0  0  0
 18 19  1  0  0  0  0
 18 57  1  0  0  0  0
 18 58  1  0  0  0  0
 19 20  1  0  0  0  0
 19 59  1  0  0  0  0
 19 60  1  0  0  0  0
 20 21  1  0  0  0  0
 20 24  1  0  0  0  0
 21 22  2  0  0  0  0
 21 31  1  0  0  0  0
 22 23  1  0  0  0  0
 22 25  1  0  0  0  0
 23 24  2  0  0  0  0
 23 61  1  0  0  0  0
 25 26  2  0  0  0  0
 25 29  1  0  0  0  0
 26 27  1  0  0  0  0
 27 28  2  0  0  0  0
 27 33  1  0  0  0  0
 28 29  1  0  0  0  0
 29 30  1  0  0  0  0
 30 31  2  0  0  0  0
 30 32  1  0  0  0  0
 32 62  1  0  0  0  0
 32 63  1  0  0  0  0
 33 34  2  0  0  0  0
 33 37  1  0  0  0  0
 34 35  1  0  0  0  0
 34 64  1  0  0  0  0
 35 36  2  0  0  0  0
 35 65  1  0  0  0  0
 36 37  1  0  0  0  0
 36 66  1  0  0  0  0
M  END
>  <DRUGBANK_ID>
DB11864

>  <COMMON_NAME>
Preladenant

>  <CAS_NUMBER>
377727-87-2

>  <UNII>
950O97NUPO

>  <SYNONYMS>
Preladenant

$$$$
