
 OpenBabel10282417072D

 68 74  0  0  0  0  0  0  0  0999 V2000
   -1.6078   -0.0555    0.0000 C   0  0  0  0  0  0  0  0  0  0  0  0
   -1.3529   -0.8401    0.0000 N   0  0  0  0  0  0  0  0  0  0  0  0
   -0.5683   -1.0950    0.0000 C   0  0  0  0  0  0  0  0  0  0  0  0
   -0.5683   -1.9200    0.0000 C   0  0  0  0  0  0  0  0  0  0  0  0
   -1.3529   -2.1750    0.0000 C   0  0  0  0  0  0  0  0  0  0  0  0
   -1.6885   -2.9286    0.0000 C   0  0  0  0  0  0  0  0  0  0  0  0
   -2.5089   -3.0149    0.0000 C   0  0  0  0  0  0  0  0  0  0  0  0
   -2.9939   -2.3474    0.0000 C   0  0  0  0  0  0  0  0  0  0  0  0
   -2.6583   -1.5938    0.0000 C   0  0  0  0  0  0  0  0  0  0  0  0
   -1.8378   -1.5075    0.0000 C   0  0  0  0  0  0  0  0  0  0  0  0
    0.0992   -2.4049    0.0000 C   0  0  0  0  0  0  0  0  0  0  0  0
    0.8838   -2.1500    0.0000 C   0  0  0  0  0  0  0  0  0  0  0  0
    1.3687   -2.8174    0.0000 C   0  0  0  0  0  0  0  0  0  0  0  0
    2.1937   -2.8174    0.0000 O   0  0  0  0  0  0  0  0  0  0  0  0
    0.8838   -3.4849    0.0000 N   0  0  0  0  0  0  0  0  0  0  0  0
    0.0992   -3.2299    0.0000 C   0  0  0  0  0  0  0  0  0  0  0  0
   -0.5683   -3.7149    0.0000 O   0  0  0  0  0  0  0  0  0  0  0  0
    1.1387   -1.3654    0.0000 C   0  0  0  0  0  0  0  0  0  0  0  0
    0.6538   -0.6979    0.0000 C   0  0  0  0  0  0  0  0  0  0  0  0
    1.1387   -0.0305    0.0000 N   0  0  0  0  0  0  0  0  0  0  0  0
    1.9233   -0.2854    0.0000 C   0  0  0  0  0  0  0  0  0  0  0  0
    2.6378    0.1271    0.0000 C   0  0  0  0  0  0  0  0  0  0  0  0
    3.3523   -0.2854    0.0000 C   0  0  0  0  0  0  0  0  0  0  0  0
    3.3523   -1.1104    0.0000 C   0  0  0  0  0  0  0  0  0  0  0  0
    2.6378   -1.5229    0.0000 C   0  0  0  0  0  0  0  0  0  0  0  0
    1.9233   -1.1104    0.0000 C   0  0  0  0  0  0  0  0  0  0  0  0
    0.8838    0.7541    0.0000 C   0  0  0  0  0  0  0  0  0  0  0  0
    0.0768    0.9256    0.0000 C   0  0  0  0  0  0  0  0  0  0  0  0
   -0.1781    1.7103    0.0000 C   0  0  0  0  0  0  0  0  0  0  0  0
    0.3739    2.3234    0.0000 N   0  0  0  0  0  0  0  0  0  0  0  0
    1.1809    2.1518    0.0000 C   0  0  0  0  0  0  0  0  0  0  0  0
    1.4358    1.3672    0.0000 C   0  0  0  0  0  0  0  0  0  0  0  0
    0.1190    3.1080    0.0000 C   0  0  0  0  0  0  0  0  0  0  0  0
    0.6710    3.7211    0.0000 C   0  0  0  0  0  0  0  0  0  0  0  0
    0.4161    4.5057    0.0000 C   0  0  0  0  0  0  0  0  0  0  0  0
    0.9681    5.1188    0.0000 C   0  0  0  0  0  0  0  0  0  0  0  0
    1.7751    4.9473    0.0000 C   0  0  0  0  0  0  0  0  0  0  0  0
    2.0300    4.1626    0.0000 C   0  0  0  0  0  0  0  0  0  0  0  0
    1.4780    3.5496    0.0000 N   0  0  0  0  0  0  0  0  0  0  0  0
   -0.8918    0.7396    0.0000 H   0  0  0  0  0  0  0  0  0  0  0  0
   -2.6544    0.1670    0.0000 H   0  0  0  0  0  0  0  0  0  0  0  0
   -1.9384    0.9621    0.0000 H   0  0  0  0  0  0  0  0  0  0  0  0
    0.2666   -0.4884    0.0000 H   0  0  0  0  0  0  0  0  0  0  0  0
   -1.0819   -3.7635    0.0000 H   0  0  0  0  0  0  0  0  0  0  0  0
   -2.9286   -3.9577    0.0000 H   0  0  0  0  0  0  0  0  0  0  0  0
   -4.0202   -2.4552    0.0000 H   0  0  0  0  0  0  0  0  0  0  0  0
   -3.2649   -0.7589    0.0000 H   0  0  0  0  0  0  0  0  0  0  0  0
    1.1880   -4.4212    0.0000 H   0  0  0  0  0  0  0  0  0  0  0  0
   -0.3782   -0.6979    0.0000 H   0  0  0  0  0  0  0  0  0  0  0  0
    2.6378    1.1591    0.0000 H   0  0  0  0  0  0  0  0  0  0  0  0
    4.2460    0.2306    0.0000 H   0  0  0  0  0  0  0  0  0  0  0  0
    4.2460   -1.6264    0.0000 H   0  0  0  0  0  0  0  0  0  0  0  0
    2.6378   -2.5549    0.0000 H   0  0  0  0  0  0  0  0  0  0  0  0
    0.5531    1.7717    0.0000 H   0  0  0  0  0  0  0  0  0  0  0  0
   -0.6392    0.1304    0.0000 H   0  0  0  0  0  0  0  0  0  0  0  0
   -0.9698    1.1481    0.0000 H   0  0  0  0  0  0  0  0  0  0  0  0
   -1.2247    1.9328    0.0000 H   0  0  0  0  0  0  0  0  0  0  0  0
   -0.5088    2.7279    0.0000 H   0  0  0  0  0  0  0  0  0  0  0  0
    1.8969    2.9469    0.0000 H   0  0  0  0  0  0  0  0  0  0  0  0
    2.2275    1.9293    0.0000 H   0  0  0  0  0  0  0  0  0  0  0  0
    2.4824    1.1447    0.0000 H   0  0  0  0  0  0  0  0  0  0  0  0
    1.7665    0.3496    0.0000 H   0  0  0  0  0  0  0  0  0  0  0  0
   -0.9276    3.3305    0.0000 H   0  0  0  0  0  0  0  0  0  0  0  0
   -0.2117    4.1256    0.0000 H   0  0  0  0  0  0  0  0  0  0  0  0
   -0.5933    4.7203    0.0000 H   0  0  0  0  0  0  0  0  0  0  0  0
    0.6492    6.1003    0.0000 H   0  0  0  0  0  0  0  0  0  0  0  0
    2.4657    5.7142    0.0000 H   0  0  0  0  0  0  0  0  0  0  0  0
    3.0394    3.9480    0.0000 H   0  0  0  0  0  0  0  0  0  0  0  0
  1  2  1  0  0  0  0
  1 40  1  0  0  0  0
  1 41  1  0  0  0  0
  1 42  1  0  0  0  0
  2  3  1  0  0  0  0
  2 10  1  0  0  0  0
  3  4  2  0  0  0  0
  3 43  1  0  0  0  0
  4  5  1  0  0  0  0
  4 11  1  0  0  0  0
  5  6  2  0  0  0  0
  5 10  1  0  0  0  0
  6  7  1  0  0  0  0
  6 44  1  0  0  0  0
  7  8  2  0  0  0  0
  7 45  1  0  0  0  0
  8  9  1  0  0  0  0
  8 46  1  0  0  0  0
  9 10  2  0  0  0  0
  9 47  1  0  0  0  0
 11 12  2  0  0  0  0
 11 16  1  0  0  0  0
 12 13  1  0  0  0  0
 12 18  1  0  0  0  0
 13 14  2  0  0  0  0
 13 15  1  0  0  0  0
 15 16  1  0  0  0  0
 15 48  1  0  0  0  0
 16 17  2  0  0  0  0
 18 19  2  0  0  0  0
 18 26  1  0  0  0  0
 19 20  1  0  0  0  0
 19 49  1  0  0  0  0
 20 21  1  0  0  0  0
 20 27  1  0  0  0  0
 21 22  2  0  0  0  0
 21 26  1  0  0  0  0
 22 23  1  0  0  0  0
 22 50  1  0  0  0  0
 23 24  2  0  0  0  0
 23 51  1  0  0  0  0
 24 25  1  0  0  0  0
 24 52  1  0  0  0  0
 25 26  2  0  0  0  0
 25 53  1  0  0  0  0
 27 28  1  0  0  0  0
 27 32  1  0  0  0  0
 27 54  1  0  0  0  0
 28 29  1  0  0  0  0
 28 55  1  0  0  0  0
 28 56  1  0  0  0  0
 29 30  1  0  0  0  0
 29 57  1  0  0  0  0
 29 58  1  0  0  0  0
 30 31  1  0  0  0  0
 30 33  1  0  0  0  0
 31 32  1  0  0  0  0
 31 59  1  0  0  0  0
 31 60  1  0  0  0  0
 32 61  1  0  0  0  0
 32 62  1  0  0  0  0
 33 34  1  0  0  0  0
 33 63  1  0  0  0  0
 33 64  1  0  0  0  0
 34 35  2  0  0  0  0
 34 39  1  0  0  0  0
 35 36  1  0  0  0  0
 35 65  1  0  0  0  0
 36 37  2  0  0  0  0
 36 66  1  0  0  0  0
 37 38  1  0  0  0  0
 37 67  1  0  0  0  0
 38 39  2  0  0  0  0
 38 68  1  0  0  0  0
M  END
>  <DRUGBANK_ID>
DB06486

>  <COMMON_NAME>
Enzastaurin

>  <CAS_NUMBER>
170364-57-5

>  <UNII>
UC96G28EQF

>  <SYNONYMS>
Enzastaurin

$$$$
