
 OpenBabel10282417072D

 70 72  0  0  0  0  0  0  0  0999 V2000
    1.6499    1.0996    0.0000 O   0  0  0  0  0  0  0  0  0  0  0  0
    1.2374    1.8141    0.0000 O   0  0  0  0  0  0  0  0  0  0  0  0
   -3.2999   -1.7581    0.0000 O   0  0  0  0  0  0  0  0  0  0  0  0
   -4.9499   -1.7581    0.0000 O   0  0  0  0  0  0  0  0  0  0  0  0
   -2.8112    2.4424    0.0000 O   0  0  0  0  0  0  0  0  0  0  0  0
   -4.9499   -0.3291    0.0000 O   0  0  0  0  0  0  0  0  0  0  0  0
   -1.8927    1.3478    0.0000 O   0  0  0  0  0  0  0  0  0  0  0  0
    0.0000    1.0996    0.0000 N   0  0  0  0  0  0  0  0  0  0  0  0
    1.6499   -0.3290    0.0000 N   0  0  0  0  0  0  0  0  0  0  0  0
   -3.2999   -0.3291    0.0000 N   0  0  0  0  0  0  0  0  0  0  0  0
    0.0000   -0.3291    0.0000 C   0  0  0  0  0  0  0  0  0  0  0  0
    0.4124    0.3852    0.0000 C   0  0  1  0  0  0  0  0  0  0  0  0
   -0.8250   -0.3291    0.0000 C   0  0  0  0  0  0  0  0  0  0  0  0
   -1.2374   -1.0436    0.0000 C   0  0  0  0  0  0  0  0  0  0  0  0
   -2.0625   -1.0436    0.0000 C   0  0  0  0  0  0  0  0  0  0  0  0
   -2.4749   -0.3291    0.0000 C   0  0  0  0  0  0  0  0  0  0  0  0
   -1.2374    0.3851    0.0000 C   0  0  0  0  0  0  0  0  0  0  0  0
    1.2374    0.3852    0.0000 C   0  0  0  0  0  0  0  0  0  0  0  0
   -2.0625    0.3851    0.0000 C   0  0  0  0  0  0  0  0  0  0  0  0
    2.4749   -0.3290    0.0000 C   0  0  0  0  0  0  0  0  0  0  0  0
    2.8875   -1.0435    0.0000 C   0  0  0  0  0  0  0  0  0  0  0  0
   -0.7963   -1.7812    0.0000 C   0  0  0  0  0  0  0  0  0  0  0  0
    3.7125   -1.0435    0.0000 C   0  0  0  0  0  0  0  0  0  0  0  0
   -2.5036   -1.7812    0.0000 C   0  0  0  0  0  0  0  0  0  0  0  0
    4.1250   -1.7580    0.0000 C   0  0  0  0  0  0  0  0  0  0  0  0
   -1.2202   -2.5287    0.0000 C   0  0  0  0  0  0  0  0  0  0  0  0
   -2.0796   -2.5287    0.0000 C   0  0  0  0  0  0  0  0  0  0  0  0
   -3.7125    0.3851    0.0000 C   0  0  0  0  0  0  0  0  0  0  0  0
    0.4123    1.8141    0.0000 C   0  0  0  0  0  0  0  0  0  0  0  0
   -3.7125   -1.0436    0.0000 C   0  0  0  0  0  0  0  0  0  0  0  0
   -3.2999    1.0996    0.0000 C   0  0  0  0  0  0  0  0  0  0  0  0
    4.9499   -1.7580    0.0000 C   0  0  0  0  0  0  0  0  0  0  0  0
   -4.5375    0.3851    0.0000 C   0  0  0  0  0  0  0  0  0  0  0  0
    0.0000    2.5287    0.0000 C   0  0  0  0  0  0  0  0  0  0  0  0
   -3.7125    1.8141    0.0000 C   0  0  0  0  0  0  0  0  0  0  0  0
   -4.9499    1.0996    0.0000 C   0  0  0  0  0  0  0  0  0  0  0  0
   -4.5375    1.8141    0.0000 C   0  0  0  0  0  0  0  0  0  0  0  0
   -4.5375   -1.0436    0.0000 C   0  0  0  0  0  0  0  0  0  0  0  0
   -2.6680    1.6298    0.0000 C   0  0  0  0  0  0  0  0  0  0  0  0
   -0.5114    1.0996    0.0000 H   0  0  0  0  0  0  0  0  0  0  0  0
    1.3942   -0.7721    0.0000 H   0  0  0  0  0  0  0  0  0  0  0  0
   -5.8869   -1.7582    0.0000 H   0  0  0  0  0  0  0  0  0  0  0  0
   -2.0934    3.0446    0.0000 H   0  0  0  0  0  0  0  0  0  0  0  0
    0.5350   -1.2557    0.0000 H   0  0  0  0  0  0  0  0  0  0  0  0
   -0.5350   -1.2557    0.0000 H   0  0  0  0  0  0  0  0  0  0  0  0
   -0.6576    0.3852    0.0000 H   0  0  0  0  0  0  0  0  0  0  0  0
   -0.7214    1.2789    0.0000 H   0  0  0  0  0  0  0  0  0  0  0  0
   -2.5785    1.2789    0.0000 H   0  0  0  0  0  0  0  0  0  0  0  0
    3.0099    0.5977    0.0000 H   0  0  0  0  0  0  0  0  0  0  0  0
    3.5449   -0.3289    0.0000 H   0  0  0  0  0  0  0  0  0  0  0  0
    2.3525   -1.9702    0.0000 H   0  0  0  0  0  0  0  0  0  0  0  0
    3.4225   -1.9701    0.0000 H   0  0  0  0  0  0  0  0  0  0  0  0
    0.2356   -1.7693    0.0000 H   0  0  0  0  0  0  0  0  0  0  0  0
    4.2475   -0.1169    0.0000 H   0  0  0  0  0  0  0  0  0  0  0  0
    4.7825   -1.0435    0.0000 H   0  0  0  0  0  0  0  0  0  0  0  0
   -3.5355   -1.7693    0.0000 H   0  0  0  0  0  0  0  0  0  0  0  0
    3.5900   -2.6846    0.0000 H   0  0  0  0  0  0  0  0  0  0  0  0
    4.6600   -2.6846    0.0000 H   0  0  0  0  0  0  0  0  0  0  0  0
   -0.7007   -3.4204    0.0000 H   0  0  0  0  0  0  0  0  0  0  0  0
   -2.5990   -3.4205    0.0000 H   0  0  0  0  0  0  0  0  0  0  0  0
    5.4849   -2.6846    0.0000 H   0  0  0  0  0  0  0  0  0  0  0  0
    5.4849   -0.8314    0.0000 H   0  0  0  0  0  0  0  0  0  0  0  0
    6.0199   -1.7580    0.0000 H   0  0  0  0  0  0  0  0  0  0  0  0
   -5.0536   -0.5086    0.0000 H   0  0  0  0  0  0  0  0  0  0  0  0
    0.5353    3.4552    0.0000 H   0  0  0  0  0  0  0  0  0  0  0  0
   -1.0700    2.5290    0.0000 H   0  0  0  0  0  0  0  0  0  0  0  0
   -0.5347    3.4555    0.0000 H   0  0  0  0  0  0  0  0  0  0  0  0
   -3.1965    2.7079    0.0000 H   0  0  0  0  0  0  0  0  0  0  0  0
   -5.9819    1.0996    0.0000 H   0  0  0  0  0  0  0  0  0  0  0  0
   -5.0536    2.7078    0.0000 H   0  0  0  0  0  0  0  0  0  0  0  0
  1 18  2  0  0  0  0
  2 29  2  0  0  0  0
  3 30  2  0  0  0  0
  4 38  1  0  0  0  0
  4 42  1  0  0  0  0
  5 39  1  0  0  0  0
  5 43  1  0  0  0  0
  6 38  2  0  0  0  0
  7 39  2  0  0  0  0
  8 29  1  0  0  0  0
  8 40  1  0  0  0  0
  9 18  1  0  0  0  0
  9 20  1  0  0  0  0
  9 41  1  0  0  0  0
 10 16  1  0  0  0  0
 10 28  1  0  0  0  0
 10 30  1  0  0  0  0
 11 12  1  0  0  0  0
 11 13  1  0  0  0  0
 11 44  1  0  0  0  0
 11 45  1  0  0  0  0
 12  8  1  0  0  0  0
 12 18  1  0  0  0  0
 12 46  1  1  0  0  0
 13 14  1  0  0  0  0
 13 17  2  0  0  0  0
 14 15  1  0  0  0  0
 14 22  2  0  0  0  0
 15 16  1  0  0  0  0
 15 24  2  0  0  0  0
 16 19  2  0  0  0  0
 17 19  1  0  0  0  0
 17 47  1  0  0  0  0
 19 48  1  0  0  0  0
 20 21  1  0  0  0  0
 20 49  1  0  0  0  0
 20 50  1  0  0  0  0
 21 23  1  0  0  0  0
 21 51  1  0  0  0  0
 21 52  1  0  0  0  0
 22 26  1  0  0  0  0
 22 53  1  0  0  0  0
 23 25  1  0  0  0  0
 23 54  1  0  0  0  0
 23 55  1  0  0  0  0
 24 27  1  0  0  0  0
 24 56  1  0  0  0  0
 25 32  1  0  0  0  0
 25 57  1  0  0  0  0
 25 58  1  0  0  0  0
 26 27  2  0  0  0  0
 26 59  1  0  0  0  0
 27 60  1  0  0  0  0
 28 31  1  0  0  0  0
 28 33  2  0  0  0  0
 29 34  1  0  0  0  0
 30 38  1  0  0  0  0
 31 35  2  0  0  0  0
 31 39  1  0  0  0  0
 32 61  1  0  0  0  0
 32 62  1  0  0  0  0
 32 63  1  0  0  0  0
 33 36  1  0  0  0  0
 33 64  1  0  0  0  0
 34 65  1  0  0  0  0
 34 66  1  0  0  0  0
 34 67  1  0  0  0  0
 35 37  1  0  0  0  0
 35 68  1  0  0  0  0
 36 37  2  0  0  0  0
 36 69  1  0  0  0  0
 37 70  1  0  0  0  0
M  END
>  <DRUGBANK_ID>
DB01820

>  <SECONDARY_ACCESSION_NUMBERS>
EXPT00349

>  <COMMON_NAME>
2-{[4-(2-Acetylamino-2-pentylcarbamoyl-ethyl)-naphthalen-1-YL]-oxalyl-amino}-benzoic acid

$$$$
