
 OpenBabel10282417072D

 19 20  0  0  0  0  0  0  0  0999 V2000
   -0.6078    3.5277    0.0000 C   0  0  0  0  0  0  0  0  0  0  0  0
   -2.0367    3.5277    0.0000 C   0  0  0  0  0  0  0  0  0  0  0  0
   -0.6078    4.3527    0.0000 C   0  0  0  0  0  0  0  0  0  0  0  0
   -2.0367    4.3527    0.0000 C   0  0  0  0  0  0  0  0  0  0  0  0
   -0.6548    1.8053    0.0000 C   0  0  0  0  0  0  0  0  0  0  0  0
   -1.7347    1.0206    0.0000 C   0  0  0  0  0  0  0  0  0  0  0  0
   -1.3222    3.1152    0.0000 C   0  0  0  0  0  0  0  0  0  0  0  0
   -1.3222    4.7652    0.0000 C   0  0  0  0  0  0  0  0  0  0  0  0
   -1.3222    2.2902    0.0000 C   0  0  0  0  0  0  0  0  0  0  0  0
   -1.3222    5.5902    0.0000 Cl  0  0  0  0  0  0  0  0  0  0  0  0
   -0.9097    1.0206    0.0000 N   0  0  0  0  0  0  0  0  0  0  0  0
   -1.9897    1.8053    0.0000 N   0  0  0  0  0  0  0  0  0  0  0  0
    0.2859    3.0117    0.0000 H   0  0  0  0  0  0  0  0  0  0  0  0
   -2.9304    3.0117    0.0000 H   0  0  0  0  0  0  0  0  0  0  0  0
    0.2859    4.8687    0.0000 H   0  0  0  0  0  0  0  0  0  0  0  0
   -2.9304    4.8687    0.0000 H   0  0  0  0  0  0  0  0  0  0  0  0
    0.3267    2.1242    0.0000 H   0  0  0  0  0  0  0  0  0  0  0  0
   -2.3413    0.1857    0.0000 H   0  0  0  0  0  0  0  0  0  0  0  0
   -2.9260    2.1095    0.0000 H   0  0  0  0  0  0  0  0  0  0  0  0
  1 13  1  0  0  0  0
  2 14  1  0  0  0  0
  3  1  1  0  0  0  0
  3 15  1  0  0  0  0
  4  2  2  0  0  0  0
  4 16  1  0  0  0  0
  5 17  1  0  0  0  0
  6 18  1  0  0  0  0
  7  1  2  0  0  0  0
  7  2  1  0  0  0  0
  8  3  2  0  0  0  0
  8  4  1  0  0  0  0
  9  5  2  0  0  0  0
  9  7  1  0  0  0  0
 10  8  1  0  0  0  0
 11  5  1  0  0  0  0
 11  6  2  0  0  0  0
 12  6  1  0  0  0  0
 12  9  1  0  0  0  0
 12 19  1  0  0  0  0
M  END
>  <DRUGBANK_ID>
DB02974

>  <SECONDARY_ACCESSION_NUMBERS>
EXPT01008

>  <COMMON_NAME>
4-(4-Chlorophenyl)Imidazole

$$$$
