
 OpenBabel10282417072D

 72 75  0  0  0  0  0  0  0  0999 V2000
    1.2197   -6.7208    0.0000 C   0  0  0  0  0  0  0  0  0  0  0  0
    1.9341   -6.3083    0.0000 C   0  0  0  0  0  0  0  0  0  0  0  0
    2.6486   -6.7208    0.0000 C   0  0  0  0  0  0  0  0  0  0  0  0
    3.3631   -6.3083    0.0000 C   0  0  0  0  0  0  0  0  0  0  0  0
    4.0776   -6.7208    0.0000 C   0  0  0  0  0  0  0  0  0  0  0  0
    4.0776   -7.5458    0.0000 C   0  0  0  0  0  0  0  0  0  0  0  0
    3.3631   -7.9583    0.0000 C   0  0  0  0  0  0  0  0  0  0  0  0
    2.6486   -7.5458    0.0000 C   0  0  0  0  0  0  0  0  0  0  0  0
    1.9341   -7.9583    0.0000 C   0  0  0  0  0  0  0  0  0  0  0  0
    1.9341   -8.7833    0.0000 N   0  0  0  0  0  0  0  0  0  0  0  0
    2.5175   -9.3667    0.0000 C   0  0  0  0  0  0  0  0  0  0  0  0
    1.9341   -9.9500    0.0000 C   0  0  3  0  0  0  0  0  0  0  0  0
    1.3508   -9.3667    0.0000 C   0  0  0  0  0  0  0  0  0  0  0  0
    1.9341  -10.7750    0.0000 C   0  0  0  0  0  0  0  0  0  0  0  0
    1.2197  -11.1875    0.0000 O   0  0  0  0  0  0  0  0  0  0  0  0
    2.6486  -11.1875    0.0000 O   0  0  0  0  0  0  0  0  0  0  0  0
    4.7920   -6.3083    0.0000 C   0  0  0  0  0  0  0  0  0  0  0  0
    5.5065   -6.7208    0.0000 N   0  0  0  0  0  0  0  0  0  0  0  0
    6.2210   -6.3083    0.0000 O   0  0  0  0  0  0  0  0  0  0  0  0
    6.2210   -5.4833    0.0000 C   0  0  0  0  0  0  0  0  0  0  0  0
    6.9354   -5.0708    0.0000 C   0  0  0  0  0  0  0  0  0  0  0  0
    6.9354   -4.2458    0.0000 C   0  0  0  0  0  0  0  0  0  0  0  0
    7.6499   -3.8333    0.0000 C   0  0  0  0  0  0  0  0  0  0  0  0
    8.3644   -4.2458    0.0000 C   0  0  0  0  0  0  0  0  0  0  0  0
    8.3644   -5.0708    0.0000 C   0  0  0  0  0  0  0  0  0  0  0  0
    7.6499   -5.4833    0.0000 C   0  0  0  0  0  0  0  0  0  0  0  0
    9.0789   -5.4833    0.0000 C   0  0  0  0  0  0  0  0  0  0  0  0
    9.7933   -5.8958    0.0000 F   0  0  0  0  0  0  0  0  0  0  0  0
    8.6664   -6.1978    0.0000 F   0  0  0  0  0  0  0  0  0  0  0  0
    9.4914   -4.7688    0.0000 F   0  0  0  0  0  0  0  0  0  0  0  0
    9.0789   -3.8333    0.0000 C   0  0  0  0  0  0  0  0  0  0  0  0
    9.0789   -3.0083    0.0000 C   0  0  0  0  0  0  0  0  0  0  0  0
    9.7933   -2.5958    0.0000 C   0  0  0  0  0  0  0  0  0  0  0  0
   10.5078   -3.0083    0.0000 C   0  0  0  0  0  0  0  0  0  0  0  0
   10.5078   -3.8333    0.0000 C   0  0  0  0  0  0  0  0  0  0  0  0
    9.7933   -4.2458    0.0000 C   0  0  0  0  0  0  0  0  0  0  0  0
    4.7920   -5.4833    0.0000 C   0  0  0  0  0  0  0  0  0  0  0  0
    0.2930   -6.1858    0.0000 H   0  0  0  0  0  0  0  0  0  0  0  0
    1.2197   -7.7908    0.0000 H   0  0  0  0  0  0  0  0  0  0  0  0
    0.2931   -7.2558    0.0000 H   0  0  0  0  0  0  0  0  0  0  0  0
    1.9341   -5.2383    0.0000 H   0  0  0  0  0  0  0  0  0  0  0  0
    2.8607   -5.7733    0.0000 H   0  0  0  0  0  0  0  0  0  0  0  0
    3.3631   -5.2763    0.0000 H   0  0  0  0  0  0  0  0  0  0  0  0
    4.9713   -8.0618    0.0000 H   0  0  0  0  0  0  0  0  0  0  0  0
    3.3631   -8.9903    0.0000 H   0  0  0  0  0  0  0  0  0  0  0  0
    1.0075   -7.4233    0.0000 H   0  0  0  0  0  0  0  0  0  0  0  0
    1.0075   -8.4933    0.0000 H   0  0  0  0  0  0  0  0  0  0  0  0
    3.5875   -9.3667    0.0000 H   0  0  0  0  0  0  0  0  0  0  0  0
    2.9269  -10.3553    0.0000 H   0  0  0  0  0  0  0  0  0  0  0  0
    1.9341   -8.8800    0.0000 H   0  0  0  0  0  0  0  0  0  0  0  0
    0.2808   -9.3667    0.0000 H   0  0  0  0  0  0  0  0  0  0  0  0
    0.9413   -8.3782    0.0000 H   0  0  0  0  0  0  0  0  0  0  0  0
    2.6486  -12.1245    0.0000 H   0  0  0  0  0  0  0  0  0  0  0  0
    5.2943   -4.9483    0.0000 H   0  0  0  0  0  0  0  0  0  0  0  0
    6.2210   -4.4133    0.0000 H   0  0  0  0  0  0  0  0  0  0  0  0
    6.0417   -3.7298    0.0000 H   0  0  0  0  0  0  0  0  0  0  0  0
    7.6499   -2.8013    0.0000 H   0  0  0  0  0  0  0  0  0  0  0  0
    7.6499   -6.5153    0.0000 H   0  0  0  0  0  0  0  0  0  0  0  0
   10.0056   -3.2983    0.0000 H   0  0  0  0  0  0  0  0  0  0  0  0
    8.1522   -2.4733    0.0000 H   0  0  0  0  0  0  0  0  0  0  0  0
    9.0789   -1.9383    0.0000 H   0  0  0  0  0  0  0  0  0  0  0  0
    9.7933   -1.5258    0.0000 H   0  0  0  0  0  0  0  0  0  0  0  0
   10.7199   -2.0608    0.0000 H   0  0  0  0  0  0  0  0  0  0  0  0
   11.4344   -2.4733    0.0000 H   0  0  0  0  0  0  0  0  0  0  0  0
   11.4344   -3.5433    0.0000 H   0  0  0  0  0  0  0  0  0  0  0  0
   11.4344   -4.3683    0.0000 H   0  0  0  0  0  0  0  0  0  0  0  0
   10.5078   -4.9033    0.0000 H   0  0  0  0  0  0  0  0  0  0  0  0
    9.7933   -5.3158    0.0000 H   0  0  0  0  0  0  0  0  0  0  0  0
    8.8666   -4.7808    0.0000 H   0  0  0  0  0  0  0  0  0  0  0  0
    5.7186   -4.9483    0.0000 H   0  0  0  0  0  0  0  0  0  0  0  0
    3.8654   -4.9483    0.0000 H   0  0  0  0  0  0  0  0  0  0  0  0
    4.7920   -4.4133    0.0000 H   0  0  0  0  0  0  0  0  0  0  0  0
  1  2  1  0  0  0  0
  1 38  1  0  0  0  0
  1 39  1  0  0  0  0
  1 40  1  0  0  0  0
  2  3  1  0  0  0  0
  2 41  1  0  0  0  0
  2 42  1  0  0  0  0
  3  4  2  0  0  0  0
  3  8  1  0  0  0  0
  4  5  1  0  0  0  0
  4 43  1  0  0  0  0
  5  6  2  0  0  0  0
  5 17  1  0  0  0  0
  6  7  1  0  0  0  0
  6 44  1  0  0  0  0
  7  8  2  0  0  0  0
  7 45  1  0  0  0  0
  8  9  1  0  0  0  0
  9 10  1  0  0  0  0
  9 46  1  0  0  0  0
  9 47  1  0  0  0  0
 10 11  1  0  0  0  0
 10 13  1  0  0  0  0
 11 12  1  0  0  0  0
 11 48  1  0  0  0  0
 11 49  1  0  0  0  0
 12 13  1  0  0  0  0
 12 14  1  0  0  0  0
 12 50  1  0  0  0  0
 13 51  1  0  0  0  0
 13 52  1  0  0  0  0
 14 15  2  0  0  0  0
 14 16  1  0  0  0  0
 16 53  1  0  0  0  0
 17 18  2  0  0  0  0
 17 37  1  0  0  0  0
 18 19  1  0  0  0  0
 19 20  1  0  0  0  0
 20 21  1  0  0  0  0
 20 54  1  0  0  0  0
 20 55  1  0  0  0  0
 21 22  2  0  0  0  0
 21 26  1  0  0  0  0
 22 23  1  0  0  0  0
 22 56  1  0  0  0  0
 23 24  2  0  0  0  0
 23 57  1  0  0  0  0
 24 25  1  0  0  0  0
 24 31  1  0  0  0  0
 25 26  2  0  0  0  0
 25 27  1  0  0  0  0
 26 58  1  0  0  0  0
 27 28  1  0  0  0  0
 27 29  1  0  0  0  0
 27 30  1  0  0  0  0
 31 32  1  0  0  0  0
 31 36  1  0  0  0  0
 31 59  1  0  0  0  0
 32 33  1  0  0  0  0
 32 60  1  0  0  0  0
 32 61  1  0  0  0  0
 33 34  1  0  0  0  0
 33 62  1  0  0  0  0
 33 63  1  0  0  0  0
 34 35  1  0  0  0  0
 34 64  1  0  0  0  0
 34 65  1  0  0  0  0
 35 36  1  0  0  0  0
 35 66  1  0  0  0  0
 35 67  1  0  0  0  0
 36 68  1  0  0  0  0
 36 69  1  0  0  0  0
 37 70  1  0  0  0  0
 37 71  1  0  0  0  0
 37 72  1  0  0  0  0
M  END
>  <DRUGBANK_ID>
DB12371

>  <COMMON_NAME>
Siponimod

>  <CAS_NUMBER>
1230487-00-9

>  <UNII>
RR6P8L282I

>  <SYNONYMS>
Siponimod

$$$$
