
 OpenBabel10282417072D

 50 53  0  0  1  0  0  0  0  0999 V2000
   -2.3029   -0.8635    0.0000 O   0  0  0  0  0  0  0  0  0  0  0  0
   -1.5884   -1.2760    0.0000 C   0  0  1  0  0  0  0  0  0  0  0  0
   -0.8739   -1.6885    0.0000 C   0  0  0  0  0  0  0  0  0  0  0  0
   -0.8739   -2.5135    0.0000 N   0  0  0  0  0  0  0  0  0  0  0  0
   -0.2065   -2.9984    0.0000 C   0  0  0  0  0  0  0  0  0  0  0  0
   -0.4614   -3.7830    0.0000 N   0  0  0  0  0  0  0  0  0  0  0  0
   -1.2864   -3.7830    0.0000 N   0  0  0  0  0  0  0  0  0  0  0  0
   -1.5414   -2.9984    0.0000 N   0  0  0  0  0  0  0  0  0  0  0  0
   -1.1759   -0.5615    0.0000 C   0  0  0  0  0  0  0  0  0  0  0  0
   -1.5884    0.1530    0.0000 C   0  0  0  0  0  0  0  0  0  0  0  0
   -1.1759    0.8674    0.0000 C   0  0  0  0  0  0  0  0  0  0  0  0
   -0.3509    0.8674    0.0000 C   0  0  0  0  0  0  0  0  0  0  0  0
    0.0616    1.5819    0.0000 F   0  0  0  0  0  0  0  0  0  0  0  0
    0.0616    0.1530    0.0000 C   0  0  0  0  0  0  0  0  0  0  0  0
   -0.3509   -0.5615    0.0000 C   0  0  0  0  0  0  0  0  0  0  0  0
    0.0616   -1.2760    0.0000 F   0  0  0  0  0  0  0  0  0  0  0  0
   -2.0009   -1.9904    0.0000 C   0  0  0  0  0  0  0  0  0  0  0  0
   -2.7154   -1.5779    0.0000 F   0  0  0  0  0  0  0  0  0  0  0  0
   -1.2864   -2.4029    0.0000 F   0  0  0  0  0  0  0  0  0  0  0  0
   -2.4134   -2.7049    0.0000 C   0  0  0  0  0  0  0  0  0  0  0  0
   -2.0009   -3.4194    0.0000 C   0  0  0  0  0  0  0  0  0  0  0  0
   -2.4134   -4.1339    0.0000 C   0  0  0  0  0  0  0  0  0  0  0  0
   -3.2384   -4.1339    0.0000 C   0  0  0  0  0  0  0  0  0  0  0  0
   -3.6509   -3.4194    0.0000 C   0  0  0  0  0  0  0  0  0  0  0  0
   -3.2384   -2.7049    0.0000 N   0  0  0  0  0  0  0  0  0  0  0  0
   -3.6509   -4.8483    0.0000 C   0  0  0  0  0  0  0  0  0  0  0  0
   -3.2384   -5.5628    0.0000 C   0  0  0  0  0  0  0  0  0  0  0  0
   -3.6509   -6.2773    0.0000 C   0  0  0  0  0  0  0  0  0  0  0  0
   -4.4759   -6.2773    0.0000 C   0  0  0  0  0  0  0  0  0  0  0  0
   -4.8884   -6.9917    0.0000 O   0  0  0  0  0  0  0  0  0  0  0  0
   -4.4759   -7.7062    0.0000 C   0  0  0  0  0  0  0  0  0  0  0  0
   -4.0634   -8.4207    0.0000 F   0  0  0  0  0  0  0  0  0  0  0  0
   -5.1904   -8.1187    0.0000 F   0  0  0  0  0  0  0  0  0  0  0  0
   -3.7614   -7.2937    0.0000 F   0  0  0  0  0  0  0  0  0  0  0  0
   -4.8884   -5.5628    0.0000 C   0  0  0  0  0  0  0  0  0  0  0  0
   -4.4759   -4.8483    0.0000 C   0  0  0  0  0  0  0  0  0  0  0  0
   -2.3029    0.1065    0.0000 H   0  0  0  0  0  0  0  0  0  0  0  0
    0.0527   -1.1535    0.0000 H   0  0  0  0  0  0  0  0  0  0  0  0
    0.0527   -2.2235    0.0000 H   0  0  0  0  0  0  0  0  0  0  0  0
    0.7750   -2.6795    0.0000 H   0  0  0  0  0  0  0  0  0  0  0  0
   -2.6204    0.1530    0.0000 H   0  0  0  0  0  0  0  0  0  0  0  0
   -1.6919    1.7611    0.0000 H   0  0  0  0  0  0  0  0  0  0  0  0
    1.0936    0.1530    0.0000 H   0  0  0  0  0  0  0  0  0  0  0  0
   -0.9689   -3.4194    0.0000 H   0  0  0  0  0  0  0  0  0  0  0  0
   -1.8974   -5.0276    0.0000 H   0  0  0  0  0  0  0  0  0  0  0  0
   -4.6829   -3.4194    0.0000 H   0  0  0  0  0  0  0  0  0  0  0  0
   -2.2064   -5.5628    0.0000 H   0  0  0  0  0  0  0  0  0  0  0  0
   -3.1349   -7.1710    0.0000 H   0  0  0  0  0  0  0  0  0  0  0  0
   -5.9204   -5.5628    0.0000 H   0  0  0  0  0  0  0  0  0  0  0  0
   -4.9919   -3.9546    0.0000 H   0  0  0  0  0  0  0  0  0  0  0  0
  1 37  1  0  0  0  0
  2  1  1  6  0  0  0
  2  3  1  0  0  0  0
  2  9  1  0  0  0  0
  2 17  1  0  0  0  0
  3  4  1  0  0  0  0
  3 38  1  0  0  0  0
  3 39  1  0  0  0  0
  4  5  1  0  0  0  0
  4  8  1  0  0  0  0
  5  6  2  0  0  0  0
  5 40  1  0  0  0  0
  6  7  1  0  0  0  0
  7  8  2  0  0  0  0
  9 10  2  0  0  0  0
  9 15  1  0  0  0  0
 10 11  1  0  0  0  0
 10 41  1  0  0  0  0
 11 12  2  0  0  0  0
 11 42  1  0  0  0  0
 12 13  1  0  0  0  0
 12 14  1  0  0  0  0
 14 15  2  0  0  0  0
 14 43  1  0  0  0  0
 15 16  1  0  0  0  0
 17 18  1  0  0  0  0
 17 19  1  0  0  0  0
 17 20  1  0  0  0  0
 20 21  2  0  0  0  0
 20 25  1  0  0  0  0
 21 22  1  0  0  0  0
 21 44  1  0  0  0  0
 22 23  2  0  0  0  0
 22 45  1  0  0  0  0
 23 24  1  0  0  0  0
 23 26  1  0  0  0  0
 24 25  2  0  0  0  0
 24 46  1  0  0  0  0
 26 27  2  0  0  0  0
 26 36  1  0  0  0  0
 27 28  1  0  0  0  0
 27 47  1  0  0  0  0
 28 29  2  0  0  0  0
 28 48  1  0  0  0  0
 29 30  1  0  0  0  0
 29 35  1  0  0  0  0
 30 31  1  0  0  0  0
 31 32  1  0  0  0  0
 31 33  1  0  0  0  0
 31 34  1  0  0  0  0
 35 36  2  0  0  0  0
 35 49  1  0  0  0  0
 36 50  1  0  0  0  0
M  END
>  <DRUGBANK_ID>
DB17758

>  <COMMON_NAME>
Quilseconazole

>  <CAS_NUMBER>
1340593-70-5

>  <UNII>
7WJ1XH4Z6A

>  <SYNONYMS>
2-pyridineethanol, .alpha.-(2,4-difluorophenyl)-.beta.,.beta.-difluoro-.alpha.-(1h-tetrazol-1-ylmethyl)-5-(4-(trifluoromethoxy)phenyl)-, (.alpha.r)-

$$$$
