TNS
 OpenBabel10282417072D

 48 49  0  0  0  0  0  0  0  0999 V2000
   -5.0835    3.4052    0.0000 O   0  0  0  0  0  0  0  0  0  0  0  0
   -4.3691    2.9927    0.0000 C   0  0  0  0  0  0  0  0  0  0  0  0
   -4.3691    2.1677    0.0000 O   0  0  0  0  0  0  0  0  0  0  0  0
   -3.6546    3.4052    0.0000 C   0  0  0  0  0  0  0  0  0  0  0  0
   -2.9401    2.9927    0.0000 C   0  0  0  0  0  0  0  0  0  0  0  0
   -2.2257    3.4052    0.0000 C   0  0  0  0  0  0  0  0  0  0  0  0
   -1.5112    2.9927    0.0000 C   0  0  0  0  0  0  0  0  0  0  0  0
   -0.7967    3.4052    0.0000 N   0  0  0  0  0  0  0  0  0  0  0  0
   -0.7967    4.2302    0.0000 C   0  0  0  0  0  0  0  0  0  0  0  0
   -0.0822    2.9927    0.0000 C   0  0  0  0  0  0  0  0  0  0  0  0
    0.6322    3.4052    0.0000 C   0  0  0  0  0  0  0  0  0  0  0  0
    1.3467    2.9927    0.0000 C   0  0  0  0  0  0  0  0  0  0  0  0
   -0.0822    2.1677    0.0000 C   0  0  0  0  0  0  0  0  0  0  0  0
    0.6322    1.7552    0.0000 C   0  0  0  0  0  0  0  0  0  0  0  0
    1.3467    2.1677    0.0000 C   0  0  0  0  0  0  0  0  0  0  0  0
    2.0612    1.7552    0.0000 C   0  0  0  0  0  0  0  0  0  0  0  0
    2.0612    0.9302    0.0000 C   0  0  0  0  0  0  0  0  0  0  0  0
    2.7756    0.5177    0.0000 C   0  0  0  0  0  0  0  0  0  0  0  0
    3.4901    0.9302    0.0000 C   0  0  0  0  0  0  0  0  0  0  0  0
    2.7756   -0.3073    0.0000 C   0  0  0  0  0  0  0  0  0  0  0  0
    3.4901   -0.7198    0.0000 C   0  0  0  0  0  0  0  0  0  0  0  0
    4.2046   -0.3073    0.0000 C   0  0  0  0  0  0  0  0  0  0  0  0
    4.2046    0.5177    0.0000 C   0  0  0  0  0  0  0  0  0  0  0  0
    4.9190   -0.7198    0.0000 N   0  3  0  0  0  0  0  0  0  0  0  0
    5.6335   -0.3073    0.0000 O   0  0  0  0  0  0  0  0  0  0  0  0
    4.9190   -1.5448    0.0000 O   0  5  0  0  0  0  0  0  0  0  0  0
   -5.1806    1.6992    0.0000 H   0  0  0  0  0  0  0  0  0  0  0  0
   -3.6546    4.4752    0.0000 H   0  0  0  0  0  0  0  0  0  0  0  0
   -2.7280    3.9402    0.0000 H   0  0  0  0  0  0  0  0  0  0  0  0
   -2.9401    1.9227    0.0000 H   0  0  0  0  0  0  0  0  0  0  0  0
   -2.0134    2.4577    0.0000 H   0  0  0  0  0  0  0  0  0  0  0  0
   -2.2257    4.4752    0.0000 H   0  0  0  0  0  0  0  0  0  0  0  0
   -1.2991    3.9402    0.0000 H   0  0  0  0  0  0  0  0  0  0  0  0
   -1.5112    1.9227    0.0000 H   0  0  0  0  0  0  0  0  0  0  0  0
   -0.5846    2.4577    0.0000 H   0  0  0  0  0  0  0  0  0  0  0  0
    0.1299    4.7652    0.0000 H   0  0  0  0  0  0  0  0  0  0  0  0
   -1.7233    4.7652    0.0000 H   0  0  0  0  0  0  0  0  0  0  0  0
   -0.7967    5.3002    0.0000 H   0  0  0  0  0  0  0  0  0  0  0  0
    0.6322    4.4372    0.0000 H   0  0  0  0  0  0  0  0  0  0  0  0
    2.2404    3.5087    0.0000 H   0  0  0  0  0  0  0  0  0  0  0  0
   -0.9759    1.6517    0.0000 H   0  0  0  0  0  0  0  0  0  0  0  0
    0.6322    0.7232    0.0000 H   0  0  0  0  0  0  0  0  0  0  0  0
    2.9549    2.2712    0.0000 H   0  0  0  0  0  0  0  0  0  0  0  0
    1.1675    0.4142    0.0000 H   0  0  0  0  0  0  0  0  0  0  0  0
    3.4901    1.9622    0.0000 H   0  0  0  0  0  0  0  0  0  0  0  0
    1.8819   -0.8233    0.0000 H   0  0  0  0  0  0  0  0  0  0  0  0
    3.4901   -1.7518    0.0000 H   0  0  0  0  0  0  0  0  0  0  0  0
    5.0983    1.0337    0.0000 H   0  0  0  0  0  0  0  0  0  0  0  0
  1  2  2  0  0  0  0
  2  3  1  0  0  0  0
  2  4  1  0  0  0  0
  3 27  1  0  0  0  0
  4  5  1  0  0  0  0
  4 28  1  0  0  0  0
  4 29  1  0  0  0  0
  5  6  1  0  0  0  0
  5 30  1  0  0  0  0
  5 31  1  0  0  0  0
  6  7  1  0  0  0  0
  6 32  1  0  0  0  0
  6 33  1  0  0  0  0
  7  8  1  0  0  0  0
  7 34  1  0  0  0  0
  7 35  1  0  0  0  0
  8  9  1  0  0  0  0
  8 10  1  0  0  0  0
  9 36  1  0  0  0  0
  9 37  1  0  0  0  0
  9 38  1  0  0  0  0
 10 11  1  0  0  0  0
 10 13  2  0  0  0  0
 11 12  2  0  0  0  0
 11 39  1  0  0  0  0
 12 15  1  0  0  0  0
 12 40  1  0  0  0  0
 13 14  1  0  0  0  0
 13 41  1  0  0  0  0
 14 15  2  0  0  0  0
 14 42  1  0  0  0  0
 15 16  1  0  0  0  0
 16 17  2  0  0  0  0
 16 43  1  0  0  0  0
 17 18  1  0  0  0  0
 17 44  1  0  0  0  0
 18 19  2  0  0  0  0
 18 20  1  0  0  0  0
 19 23  1  0  0  0  0
 19 45  1  0  0  0  0
 20 21  2  0  0  0  0
 20 46  1  0  0  0  0
 21 22  1  0  0  0  0
 21 47  1  0  0  0  0
 22 23  2  0  0  0  0
 22 24  1  0  0  0  0
 23 48  1  0  0  0  0
 24 25  2  0  0  0  0
 24 26  1  0  0  0  0
M  CHG  2  24   1  26  -1
M  END
>  <DRUGBANK_ID>
DB08635

>  <COMMON_NAME>
N-(TRANS-4'-NITRO-4-STILBENYL)-N-METHYL-5-AMINO-PENTANOIC ACID

$$$$
