ICL
 OpenBabel10282417072D

 47 47  0  0  0  0  0  0  0  0999 V2000
   -1.5535   -1.5580    0.0000 C   0  0  0  0  0  0  0  0  0  0  0  0
   -1.5535   -2.3830    0.0000 O   0  0  0  0  0  0  0  0  0  0  0  0
   -2.2680   -1.1455    0.0000 C   0  0  0  0  0  0  0  0  0  0  0  0
   -2.9824   -1.5580    0.0000 C   0  0  0  0  0  0  0  0  0  0  0  0
   -2.9824   -2.3830    0.0000 Cl  0  0  0  0  0  0  0  0  0  0  0  0
   -3.6969   -1.1455    0.0000 C   0  0  0  0  0  0  0  0  0  0  0  0
   -3.6969   -0.3205    0.0000 C   0  0  0  0  0  0  0  0  0  0  0  0
   -2.9824    0.0920    0.0000 C   0  0  0  0  0  0  0  0  0  0  0  0
   -2.2680   -0.3205    0.0000 C   0  0  0  0  0  0  0  0  0  0  0  0
   -1.5535    0.0920    0.0000 N   0  0  0  0  0  0  0  0  0  0  0  0
   -0.8390   -0.3205    0.0000 C   0  0  0  0  0  0  0  0  0  0  0  0
   -0.8390   -1.1455    0.0000 O   0  0  0  0  0  0  0  0  0  0  0  0
   -0.1245    0.0920    0.0000 C   0  0  2  0  0  0  0  0  0  0  0  0
   -0.1245    0.9170    0.0000 C   0  0  0  0  0  0  0  0  0  0  0  0
    0.5899    1.3295    0.0000 C   0  0  0  0  0  0  0  0  0  0  0  0
   -0.8390    1.3295    0.0000 C   0  0  0  0  0  0  0  0  0  0  0  0
    0.5899   -0.3205    0.0000 N   0  0  0  0  0  0  0  0  0  0  0  0
    1.3044    0.0920    0.0000 C   0  0  0  0  0  0  0  0  0  0  0  0
    1.3044    0.9170    0.0000 O   0  0  0  0  0  0  0  0  0  0  0  0
    2.0189   -0.3205    0.0000 O   0  0  0  0  0  0  0  0  0  0  0  0
    2.7333    0.0920    0.0000 C   0  0  0  0  0  0  0  0  0  0  0  0
    3.4478    0.5045    0.0000 C   0  0  0  0  0  0  0  0  0  0  0  0
    3.1458   -0.6225    0.0000 C   0  0  0  0  0  0  0  0  0  0  0  0
    2.3208    0.8064    0.0000 C   0  0  0  0  0  0  0  0  0  0  0  0
   -0.6302    0.3839    0.0000 H   0  0  0  0  0  0  0  0  0  0  0  0
   -0.6598   -1.0420    0.0000 H   0  0  0  0  0  0  0  0  0  0  0  0
   -4.5906   -1.6615    0.0000 H   0  0  0  0  0  0  0  0  0  0  0  0
   -4.5906    0.1955    0.0000 H   0  0  0  0  0  0  0  0  0  0  0  0
   -2.9824    1.1240    0.0000 H   0  0  0  0  0  0  0  0  0  0  0  0
   -1.5535    1.0765    0.0000 H   0  0  0  0  0  0  0  0  0  0  0  0
   -0.1245    1.9870    0.0000 H   0  0  0  0  0  0  0  0  0  0  0  0
    1.5166    0.7945    0.0000 H   0  0  0  0  0  0  0  0  0  0  0  0
    0.5899    2.3995    0.0000 H   0  0  0  0  0  0  0  0  0  0  0  0
    1.5165    1.8645    0.0000 H   0  0  0  0  0  0  0  0  0  0  0  0
   -0.8390    2.3995    0.0000 H   0  0  0  0  0  0  0  0  0  0  0  0
   -1.7656    0.7945    0.0000 H   0  0  0  0  0  0  0  0  0  0  0  0
   -1.7657    1.8645    0.0000 H   0  0  0  0  0  0  0  0  0  0  0  0
    0.5899   -1.3050    0.0000 H   0  0  0  0  0  0  0  0  0  0  0  0
    4.3744   -0.0305    0.0000 H   0  0  0  0  0  0  0  0  0  0  0  0
    3.4478    1.5745    0.0000 H   0  0  0  0  0  0  0  0  0  0  0  0
    4.3745    1.0395    0.0000 H   0  0  0  0  0  0  0  0  0  0  0  0
    2.6108   -1.5491    0.0000 H   0  0  0  0  0  0  0  0  0  0  0  0
    4.2158   -0.6225    0.0000 H   0  0  0  0  0  0  0  0  0  0  0  0
    3.6808   -1.5492    0.0000 H   0  0  0  0  0  0  0  0  0  0  0  0
    2.8558    1.7331    0.0000 H   0  0  0  0  0  0  0  0  0  0  0  0
    1.2508    0.8064    0.0000 H   0  0  0  0  0  0  0  0  0  0  0  0
    1.7858    1.7330    0.0000 H   0  0  0  0  0  0  0  0  0  0  0  0
  1  2  2  0  0  0  0
  1  3  1  0  0  0  0
  1 26  1  0  0  0  0
  3  4  2  0  0  0  0
  3  9  1  0  0  0  0
  4  5  1  0  0  0  0
  4  6  1  0  0  0  0
  6  7  2  0  0  0  0
  6 27  1  0  0  0  0
  7  8  1  0  0  0  0
  7 28  1  0  0  0  0
  8  9  2  0  0  0  0
  8 29  1  0  0  0  0
  9 10  1  0  0  0  0
 10 11  1  0  0  0  0
 10 30  1  0  0  0  0
 11 12  2  0  0  0  0
 11 13  1  0  0  0  0
 13 14  1  0  0  0  0
 13 17  1  0  0  0  0
 13 25  1  1  0  0  0
 14 15  1  0  0  0  0
 14 16  1  0  0  0  0
 14 31  1  0  0  0  0
 15 32  1  0  0  0  0
 15 33  1  0  0  0  0
 15 34  1  0  0  0  0
 16 35  1  0  0  0  0
 16 36  1  0  0  0  0
 16 37  1  0  0  0  0
 17 18  1  0  0  0  0
 17 38  1  0  0  0  0
 18 19  2  0  0  0  0
 18 20  1  0  0  0  0
 20 21  1  0  0  0  0
 21 22  1  0  0  0  0
 21 23  1  0  0  0  0
 21 24  1  0  0  0  0
 22 39  1  0  0  0  0
 22 40  1  0  0  0  0
 22 41  1  0  0  0  0
 23 42  1  0  0  0  0
 23 43  1  0  0  0  0
 23 44  1  0  0  0  0
 24 45  1  0  0  0  0
 24 46  1  0  0  0  0
 24 47  1  0  0  0  0
M  END
>  <DRUGBANK_ID>
DB07956

>  <COMMON_NAME>
[1-(3-CHLORO-2-FORMYL-PHENYLCARBAMOYL)-2-METHYL-PROPYL]-CARBAMIC ACID TERT-BUTYL ESTER

$$$$
