822
 OpenBabel10282417072D

 36 35  0  0  0  0  0  0  0  0999 V2000
    5.2219    0.2063    0.0000 S   0  0  0  0  0  0  0  0  0  0  0  0
    4.5076   -0.2063    0.0000 S   0  0  0  0  0  0  0  0  0  0  0  0
    5.9365   -1.0312    0.0000 S   0  0  0  0  0  0  0  0  0  0  0  0
    3.7932    1.0312    0.0000 S   0  0  0  0  0  0  0  0  0  0  0  0
    6.6509    0.2063    0.0000 N   0  0  0  0  0  0  0  0  0  0  0  0
    3.0788   -0.2063    0.0000 N   0  0  0  0  0  0  0  0  0  0  0  0
    6.6509    1.0312    0.0000 C   0  0  0  0  0  0  0  0  0  0  0  0
    7.3652   -0.2063    0.0000 C   0  0  0  0  0  0  0  0  0  0  0  0
    3.0788   -1.0312    0.0000 C   0  0  0  0  0  0  0  0  0  0  0  0
    2.3643    0.2063    0.0000 C   0  0  0  0  0  0  0  0  0  0  0  0
    7.3652    1.4437    0.0000 C   0  0  0  0  0  0  0  0  0  0  0  0
    8.0797    0.2063    0.0000 C   0  0  0  0  0  0  0  0  0  0  0  0
    2.3643   -1.4437    0.0000 C   0  0  0  0  0  0  0  0  0  0  0  0
    1.6498   -0.2063    0.0000 C   0  0  0  0  0  0  0  0  0  0  0  0
    5.9365   -0.2063    0.0000 C   0  0  0  0  0  0  0  0  0  0  0  0
    3.7932    0.2063    0.0000 C   0  0  0  0  0  0  0  0  0  0  0  0
    5.7242    1.5662    0.0000 H   0  0  0  0  0  0  0  0  0  0  0  0
    6.6508    2.1012    0.0000 H   0  0  0  0  0  0  0  0  0  0  0  0
    7.3651   -1.2763    0.0000 H   0  0  0  0  0  0  0  0  0  0  0  0
    8.2919   -0.7413    0.0000 H   0  0  0  0  0  0  0  0  0  0  0  0
    4.0054   -1.5662    0.0000 H   0  0  0  0  0  0  0  0  0  0  0  0
    3.0788   -2.1012    0.0000 H   0  0  0  0  0  0  0  0  0  0  0  0
    2.3643    1.2763    0.0000 H   0  0  0  0  0  0  0  0  0  0  0  0
    1.4376    0.7413    0.0000 H   0  0  0  0  0  0  0  0  0  0  0  0
    8.2919    0.9088    0.0000 H   0  0  0  0  0  0  0  0  0  0  0  0
    7.3651    2.5137    0.0000 H   0  0  0  0  0  0  0  0  0  0  0  0
    8.2918    1.9788    0.0000 H   0  0  0  0  0  0  0  0  0  0  0  0
    9.0064   -0.3286    0.0000 H   0  0  0  0  0  0  0  0  0  0  0  0
    8.0796    1.2763    0.0000 H   0  0  0  0  0  0  0  0  0  0  0  0
    9.0063    0.7414    0.0000 H   0  0  0  0  0  0  0  0  0  0  0  0
    1.4377   -0.9087    0.0000 H   0  0  0  0  0  0  0  0  0  0  0  0
    2.3643   -2.5137    0.0000 H   0  0  0  0  0  0  0  0  0  0  0  0
    1.4376   -1.9787    0.0000 H   0  0  0  0  0  0  0  0  0  0  0  0
    0.7231    0.3286    0.0000 H   0  0  0  0  0  0  0  0  0  0  0  0
    1.6499   -1.2763    0.0000 H   0  0  0  0  0  0  0  0  0  0  0  0
    0.7232   -0.7414    0.0000 H   0  0  0  0  0  0  0  0  0  0  0  0
  1  2  1  0  0  0  0
  1 15  1  0  0  0  0
  2 16  1  0  0  0  0
  3 15  2  0  0  0  0
  4 16  2  0  0  0  0
  5  7  1  0  0  0  0
  5  8  1  0  0  0  0
  5 15  1  0  0  0  0
  6  9  1  0  0  0  0
  6 10  1  0  0  0  0
  6 16  1  0  0  0  0
  7 11  1  0  0  0  0
  7 17  1  0  0  0  0
  7 18  1  0  0  0  0
  8 12  1  0  0  0  0
  8 19  1  0  0  0  0
  8 20  1  0  0  0  0
  9 13  1  0  0  0  0
  9 21  1  0  0  0  0
  9 22  1  0  0  0  0
 10 14  1  0  0  0  0
 10 23  1  0  0  0  0
 10 24  1  0  0  0  0
 11 25  1  0  0  0  0
 11 26  1  0  0  0  0
 11 27  1  0  0  0  0
 12 28  1  0  0  0  0
 12 29  1  0  0  0  0
 12 30  1  0  0  0  0
 13 31  1  0  0  0  0
 13 32  1  0  0  0  0
 13 33  1  0  0  0  0
 14 34  1  0  0  0  0
 14 35  1  0  0  0  0
 14 36  1  0  0  0  0
M  END
>  <DRUGBANK_ID>
DB00822

>  <SECONDARY_ACCESSION_NUMBERS>
APRD00767

>  <COMMON_NAME>
Disulfiram

>  <CAS_NUMBER>
97-77-8

>  <UNII>
TR3MLJ1UAI

>  <SYNONYMS>
1,1'-dithiobis(N,N-diethylthioformamide); bis(diethylthiocarbamoyl) disulfide; Disulfiram; N,N,N',N'-tetraethylthiuram disulfide; Tetraethylthioperoxydicarbonic diamide; Tetraethylthiuram disulfide; Tetraethylthiuram disulphide

$$$$
