
 OpenBabel10282417072D

 70 74  0  0  0  0  0  0  0  0999 V2000
    0.3896   -0.3913    0.0000 C   0  0  0  0  0  0  0  0  0  0  0  0
   -4.7529    2.8735    0.0000 C   0  0  0  0  0  0  0  0  0  0  0  0
    3.4817   -3.4342    0.0000 C   0  0  0  0  0  0  0  0  0  0  0  0
   -4.5699    2.0691    0.0000 C   0  0  0  0  0  0  0  0  0  0  0  0
   -4.1476    3.4342    0.0000 C   0  0  0  0  0  0  0  0  0  0  0  0
    4.1784   -2.9924    0.0000 C   0  0  0  0  0  0  0  0  0  0  0  0
    2.7507   -3.0518    0.0000 C   0  0  0  0  0  0  0  0  0  0  0  0
   -3.7818    1.8253    0.0000 C   0  0  0  0  0  0  0  0  0  0  0  0
   -3.3595    3.1904    0.0000 C   0  0  0  0  0  0  0  0  0  0  0  0
    4.1441   -2.1681    0.0000 C   0  0  0  0  0  0  0  0  0  0  0  0
    2.7164   -2.2275    0.0000 C   0  0  0  0  0  0  0  0  0  0  0  0
   -2.2054    1.3377    0.0000 C   0  0  0  0  0  0  0  0  0  0  0  0
   -1.7832    2.7028    0.0000 C   0  0  0  0  0  0  0  0  0  0  0  0
   -1.4173    1.0939    0.0000 C   0  0  0  0  0  0  0  0  0  0  0  0
   -0.9950    2.4591    0.0000 C   0  0  0  0  0  0  0  0  0  0  0  0
   -0.8408   -0.5437    0.0000 C   0  0  0  0  0  0  0  0  0  0  0  0
   -0.8408    0.2812    0.0000 C   0  0  0  0  0  0  0  0  0  0  0  0
    0.6084   -0.8745    0.0000 C   0  0  0  0  0  0  0  0  0  0  0  0
    0.6084    0.6120    0.0000 C   0  0  0  0  0  0  0  0  0  0  0  0
    0.1871    0.4825    0.0000 C   0  0  0  0  0  0  0  0  0  0  0  0
    3.9461   -0.3330    0.0000 C   0  0  0  0  0  0  0  0  0  0  0  0
   -3.1765    2.3860    0.0000 C   0  0  0  0  0  0  0  0  0  0  0  0
   -2.3884    2.1422    0.0000 C   0  0  0  0  0  0  0  0  0  0  0  0
    3.4131   -1.7856    0.0000 C   0  0  0  0  0  0  0  0  0  0  0  0
   -0.8121    1.6546    0.0000 C   0  0  0  0  0  0  0  0  0  0  0  0
   -0.1958   -1.0581    0.0000 C   0  0  2  0  0  0  0  0  0  0  0  0
   -0.1958    0.7955    0.0000 C   0  0  1  0  0  0  0  0  0  0  0  0
    0.9664   -0.1312    0.0000 C   0  0  1  0  0  0  0  0  0  0  0  0
    3.3788   -0.9614    0.0000 C   0  0  2  0  0  0  0  0  0  0  0  0
   -0.0239    1.4108    0.0000 C   0  0  0  0  0  0  0  0  0  0  0  0
    2.6085   -0.5583    0.0000 C   0  0  0  0  0  0  0  0  0  0  0  0
   -0.4275   -0.1312    0.0000 N   0  3  3  0  0  0  0  0  0  0  0  0
    4.7529   -0.5056    0.0000 O   0  0  0  0  0  0  0  0  0  0  0  0
    0.5812    1.9715    0.0000 O   0  0  0  0  0  0  0  0  0  0  0  0
    2.6054   -1.3833    0.0000 O   0  0  0  0  0  0  0  0  0  0  0  0
    1.8798   -0.1341    0.0000 O   0  0  0  0  0  0  0  0  0  0  0  0
   -0.3794   -1.8624    0.0000 H   0  0  0  0  0  0  0  0  0  0  0  0
   -0.8836    1.2511    0.0000 H   0  0  0  0  0  0  0  0  0  0  0  0
    1.4064    0.5665    0.0000 H   0  0  0  0  0  0  0  0  0  0  0  0
    4.1548   -1.2415    0.0000 H   0  0  0  0  0  0  0  0  0  0  0  0
    0.6183   -1.4366    0.0000 H   0  0  0  0  0  0  0  0  0  0  0  0
    1.1805    0.3294    0.0000 H   0  0  0  0  0  0  0  0  0  0  0  0
    1.4092   -0.7159    0.0000 H   0  0  0  0  0  0  0  0  0  0  0  0
   -5.7388    3.1784    0.0000 H   0  0  0  0  0  0  0  0  0  0  0  0
    3.5246   -4.4653    0.0000 H   0  0  0  0  0  0  0  0  0  0  0  0
   -5.3269    1.3677    0.0000 H   0  0  0  0  0  0  0  0  0  0  0  0
   -4.3764    4.4405    0.0000 H   0  0  0  0  0  0  0  0  0  0  0  0
    5.0928   -3.4708    0.0000 H   0  0  0  0  0  0  0  0  0  0  0  0
    1.8792   -3.6045    0.0000 H   0  0  0  0  0  0  0  0  0  0  0  0
   -3.5530    0.8190    0.0000 H   0  0  0  0  0  0  0  0  0  0  0  0
   -2.6025    3.8918    0.0000 H   0  0  0  0  0  0  0  0  0  0  0  0
    5.0156   -1.6154    0.0000 H   0  0  0  0  0  0  0  0  0  0  0  0
    1.8020   -1.7491    0.0000 H   0  0  0  0  0  0  0  0  0  0  0  0
   -2.9625    0.6363    0.0000 H   0  0  0  0  0  0  0  0  0  0  0  0
   -2.0121    3.7091    0.0000 H   0  0  0  0  0  0  0  0  0  0  0  0
   -1.1884    0.0876    0.0000 H   0  0  0  0  0  0  0  0  0  0  0  0
   -0.2380    3.1605    0.0000 H   0  0  0  0  0  0  0  0  0  0  0  0
   -1.8048   -1.0079    0.0000 H   0  0  0  0  0  0  0  0  0  0  0  0
   -0.9606   -1.6070    0.0000 H   0  0  0  0  0  0  0  0  0  0  0  0
   -1.8048    0.7455    0.0000 H   0  0  0  0  0  0  0  0  0  0  0  0
   -0.9605    1.3445    0.0000 H   0  0  0  0  0  0  0  0  0  0  0  0
    1.2755   -1.7111    0.0000 H   0  0  0  0  0  0  0  0  0  0  0  0
    1.6717   -0.7547    0.0000 H   0  0  0  0  0  0  0  0  0  0  0  0
    1.2755    1.4486    0.0000 H   0  0  0  0  0  0  0  0  0  0  0  0
    1.6717    0.4923    0.0000 H   0  0  0  0  0  0  0  0  0  0  0  0
    1.2150    0.1854    0.0000 H   0  0  0  0  0  0  0  0  0  0  0  0
    0.4536   -0.5538    0.0000 H   0  0  0  0  0  0  0  0  0  0  0  0
    3.6168    0.6851    0.0000 H   0  0  0  0  0  0  0  0  0  0  0  0
    4.6631    0.4612    0.0000 H   0  0  0  0  0  0  0  0  0  0  0  0
    5.0514   -1.4285    0.0000 H   0  0  0  0  0  0  0  0  0  0  0  0
  1 41  1  0  0  0  0
  1 42  1  0  0  0  0
  1 43  1  0  0  0  0
  2 44  1  0  0  0  0
  3 45  1  0  0  0  0
  4  2  2  0  0  0  0
  4 46  1  0  0  0  0
  5  2  1  0  0  0  0
  5 47  1  0  0  0  0
  6  3  2  0  0  0  0
  6 48  1  0  0  0  0
  7  3  1  0  0  0  0
  7 49  1  0  0  0  0
  8  4  1  0  0  0  0
  8 50  1  0  0  0  0
  9  5  2  0  0  0  0
  9 51  1  0  0  0  0
 10  6  1  0  0  0  0
 10 52  1  0  0  0  0
 11  7  2  0  0  0  0
 11 53  1  0  0  0  0
 12 54  1  0  0  0  0
 13 55  1  0  0  0  0
 14 12  1  0  0  0  0
 14 56  1  0  0  0  0
 15 13  2  0  0  0  0
 15 57  1  0  0  0  0
 16 58  1  0  0  0  0
 16 59  1  0  0  0  0
 17 16  1  0  0  0  0
 17 60  1  0  0  0  0
 17 61  1  0  0  0  0
 18 62  1  0  0  0  0
 18 63  1  0  0  0  0
 19 64  1  0  0  0  0
 19 65  1  0  0  0  0
 20 66  1  0  0  0  0
 20 67  1  0  0  0  0
 21 68  1  0  0  0  0
 21 69  1  0  0  0  0
 22  8  2  0  0  0  0
 22  9  1  0  0  0  0
 23 12  2  0  0  0  0
 23 13  1  0  0  0  0
 23 22  1  0  0  0  0
 24 10  2  0  0  0  0
 24 11  1  0  0  0  0
 25 14  2  0  0  0  0
 25 15  1  0  0  0  0
 26 16  1  0  0  0  0
 26 18  1  0  0  0  0
 26 37  1  6  0  0  0
 27 17  1  0  0  0  0
 27 19  1  0  0  0  0
 27 38  1  6  0  0  0
 28 18  1  0  0  0  0
 28 19  1  0  0  0  0
 28 36  1  0  0  0  0
 28 39  1  6  0  0  0
 29 21  1  0  0  0  0
 29 24  1  0  0  0  0
 29 31  1  0  0  0  0
 29 40  1  1  0  0  0
 30 20  1  0  0  0  0
 30 25  1  0  0  0  0
 32  1  1  0  0  0  0
 32 20  1  0  0  0  0
 32 26  1  0  0  0  0
 32 27  1  0  0  0  0
 33 21  1  0  0  0  0
 33 70  1  0  0  0  0
 34 30  2  0  0  0  0
 35 31  2  0  0  0  0
 36 31  1  0  0  0  0
M  CHG  1  32   1
M  END
>  <DRUGBANK_ID>
DB08978

>  <COMMON_NAME>
Fentonium

>  <CAS_NUMBER>
34786-74-8

>  <UNII>
26BF4S8FO5

$$$$
