243
 OpenBabel10282417072D

 64 66  0  0  1  0  0  0  0  0999 V2000
    5.9370    2.0625    0.0000 O   0  0  0  0  0  0  0  0  0  0  0  0
    7.3659    2.8876    0.0000 O   0  0  0  0  0  0  0  0  0  0  0  0
    4.5080   -2.0625    0.0000 O   0  0  0  0  0  0  0  0  0  0  0  0
    8.7949    2.0625    0.0000 O   0  0  0  0  0  0  0  0  0  0  0  0
    5.9370    0.4125    0.0000 N   0  0  0  0  0  0  0  0  0  0  0  0
    4.5080   -0.4125    0.0000 N   0  0  0  0  0  0  0  0  0  0  0  0
    3.0791   -2.0625    0.0000 N   0  0  0  0  0  0  0  0  0  0  0  0
    5.9370   -0.4125    0.0000 C   0  0  0  0  0  0  0  0  0  0  0  0
    5.2224    0.8250    0.0000 C   0  0  0  0  0  0  0  0  0  0  0  0
    5.2224   -0.8250    0.0000 C   0  0  0  0  0  0  0  0  0  0  0  0
    4.5080    0.4125    0.0000 C   0  0  0  0  0  0  0  0  0  0  0  0
    6.6515    0.8250    0.0000 C   0  0  0  0  0  0  0  0  0  0  0  0
    3.7935   -0.8250    0.0000 C   0  0  0  0  0  0  0  0  0  0  0  0
    6.6515    1.6500    0.0000 C   0  0  3  0  0  0  0  0  0  0  0  0
    7.3659    2.0625    0.0000 C   0  0  0  0  0  0  0  0  0  0  0  0
    3.7935   -1.6500    0.0000 C   0  0  0  0  0  0  0  0  0  0  0  0
    3.0791   -2.8876    0.0000 C   0  0  0  0  0  0  0  0  0  0  0  0
    8.0804    3.3001    0.0000 C   0  0  0  0  0  0  0  0  0  0  0  0
    3.7935   -3.3001    0.0000 C   0  0  0  0  0  0  0  0  0  0  0  0
    2.3645   -3.3001    0.0000 C   0  0  0  0  0  0  0  0  0  0  0  0
    3.7935   -4.1251    0.0000 C   0  0  0  0  0  0  0  0  0  0  0  0
    2.3645   -4.1251    0.0000 C   0  0  0  0  0  0  0  0  0  0  0  0
    8.7949    2.8876    0.0000 C   0  0  0  0  0  0  0  0  0  0  0  0
    4.5080   -2.8876    0.0000 C   0  0  0  0  0  0  0  0  0  0  0  0
    1.6500   -2.8876    0.0000 C   0  0  0  0  0  0  0  0  0  0  0  0
    8.0804    4.1251    0.0000 C   0  0  0  0  0  0  0  0  0  0  0  0
    3.0791   -4.5376    0.0000 C   0  0  0  0  0  0  0  0  0  0  0  0
    9.5094    3.3001    0.0000 C   0  0  0  0  0  0  0  0  0  0  0  0
    8.7949    4.5376    0.0000 C   0  0  0  0  0  0  0  0  0  0  0  0
    9.5094    4.1251    0.0000 C   0  0  0  0  0  0  0  0  0  0  0  0
    9.5094    1.6500    0.0000 C   0  0  0  0  0  0  0  0  0  0  0  0
    5.9370    3.0325    0.0000 H   0  0  0  0  0  0  0  0  0  0  0  0
    2.2265   -1.5703    0.0000 H   0  0  0  0  0  0  0  0  0  0  0  0
    6.8636   -0.9475    0.0000 H   0  0  0  0  0  0  0  0  0  0  0  0
    5.9369   -1.4825    0.0000 H   0  0  0  0  0  0  0  0  0  0  0  0
    5.2223    1.8950    0.0000 H   0  0  0  0  0  0  0  0  0  0  0  0
    4.2957    1.3600    0.0000 H   0  0  0  0  0  0  0  0  0  0  0  0
    5.2223   -1.8950    0.0000 H   0  0  0  0  0  0  0  0  0  0  0  0
    6.1490   -1.3601    0.0000 H   0  0  0  0  0  0  0  0  0  0  0  0
    3.5813    0.9475    0.0000 H   0  0  0  0  0  0  0  0  0  0  0  0
    4.5080    1.4825    0.0000 H   0  0  0  0  0  0  0  0  0  0  0  0
    7.5781    0.2900    0.0000 H   0  0  0  0  0  0  0  0  0  0  0  0
    7.5781    1.3600    0.0000 H   0  0  0  0  0  0  0  0  0  0  0  0
    2.8669   -0.2900    0.0000 H   0  0  0  0  0  0  0  0  0  0  0  0
    2.8669   -1.3600    0.0000 H   0  0  0  0  0  0  0  0  0  0  0  0
    5.7249    1.1150    0.0000 H   0  0  0  0  0  0  0  0  0  0  0  0
    8.2926    1.5275    0.0000 H   0  0  0  0  0  0  0  0  0  0  0  0
    7.3659    0.9925    0.0000 H   0  0  0  0  0  0  0  0  0  0  0  0
    4.6872   -4.6411    0.0000 H   0  0  0  0  0  0  0  0  0  0  0  0
    1.4708   -4.6411    0.0000 H   0  0  0  0  0  0  0  0  0  0  0  0
    5.4346   -3.4226    0.0000 H   0  0  0  0  0  0  0  0  0  0  0  0
    4.5080   -1.8176    0.0000 H   0  0  0  0  0  0  0  0  0  0  0  0
    5.4347   -2.3526    0.0000 H   0  0  0  0  0  0  0  0  0  0  0  0
    1.6500   -1.8176    0.0000 H   0  0  0  0  0  0  0  0  0  0  0  0
    0.7234   -3.4226    0.0000 H   0  0  0  0  0  0  0  0  0  0  0  0
    0.7233   -2.3526    0.0000 H   0  0  0  0  0  0  0  0  0  0  0  0
    7.1867    4.6411    0.0000 H   0  0  0  0  0  0  0  0  0  0  0  0
    3.0792   -5.5696    0.0000 H   0  0  0  0  0  0  0  0  0  0  0  0
   10.4031    2.7841    0.0000 H   0  0  0  0  0  0  0  0  0  0  0  0
    8.7949    5.5696    0.0000 H   0  0  0  0  0  0  0  0  0  0  0  0
   10.4031    4.6411    0.0000 H   0  0  0  0  0  0  0  0  0  0  0  0
    9.5094    0.5800    0.0000 H   0  0  0  0  0  0  0  0  0  0  0  0
   10.4360    2.1850    0.0000 H   0  0  0  0  0  0  0  0  0  0  0  0
   10.4361    1.1150    0.0000 H   0  0  0  0  0  0  0  0  0  0  0  0
  1 14  1  0  0  0  0
  1 32  1  0  0  0  0
  2 15  1  0  0  0  0
  2 18  1  0  0  0  0
  3 16  2  0  0  0  0
  4 23  1  0  0  0  0
  4 31  1  0  0  0  0
  5  8  1  0  0  0  0
  5  9  1  0  0  0  0
  5 12  1  0  0  0  0
  6 10  1  0  0  0  0
  6 11  1  0  0  0  0
  6 13  1  0  0  0  0
  7 16  1  0  0  0  0
  7 17  1  0  0  0  0
  7 33  1  0  0  0  0
  8 10  1  0  0  0  0
  8 34  1  0  0  0  0
  8 35  1  0  0  0  0
  9 11  1  0  0  0  0
  9 36  1  0  0  0  0
  9 37  1  0  0  0  0
 10 38  1  0  0  0  0
 10 39  1  0  0  0  0
 11 40  1  0  0  0  0
 11 41  1  0  0  0  0
 12 14  1  0  0  0  0
 12 42  1  0  0  0  0
 12 43  1  0  0  0  0
 13 16  1  0  0  0  0
 13 44  1  0  0  0  0
 13 45  1  0  0  0  0
 14 15  1  0  0  0  0
 14 46  1  0  0  0  0
 15 47  1  0  0  0  0
 15 48  1  0  0  0  0
 17 19  2  0  0  0  0
 17 20  1  0  0  0  0
 18 23  1  0  0  0  0
 18 26  2  0  0  0  0
 19 21  1  0  0  0  0
 19 24  1  0  0  0  0
 20 22  2  0  0  0  0
 20 25  1  0  0  0  0
 21 27  2  0  0  0  0
 21 49  1  0  0  0  0
 22 27  1  0  0  0  0
 22 50  1  0  0  0  0
 23 28  2  0  0  0  0
 24 51  1  0  0  0  0
 24 52  1  0  0  0  0
 24 53  1  0  0  0  0
 25 54  1  0  0  0  0
 25 55  1  0  0  0  0
 25 56  1  0  0  0  0
 26 29  1  0  0  0  0
 26 57  1  0  0  0  0
 27 58  1  0  0  0  0
 28 30  1  0  0  0  0
 28 59  1  0  0  0  0
 29 30  2  0  0  0  0
 29 60  1  0  0  0  0
 30 61  1  0  0  0  0
 31 62  1  0  0  0  0
 31 63  1  0  0  0  0
 31 64  1  0  0  0  0
M  END
>  <DRUGBANK_ID>
DB00243

>  <SECONDARY_ACCESSION_NUMBERS>
APRD01300

>  <COMMON_NAME>
Ranolazine

>  <CAS_NUMBER>
95635-55-5

>  <UNII>
A6IEZ5M406

>  <SYNONYMS>
Ranolazina; Ranolazine

$$$$
