
 OpenBabel10282417072D

108111  0  0  1  0  0  0  0  0999 V2000
   -3.5724    8.6625    0.0000 C   0  0  0  0  0  0  0  0  0  0  0  0
   -4.2868    7.4250    0.0000 C   0  0  0  0  0  0  0  0  0  0  0  0
    1.4289    1.6500    0.0000 C   0  0  0  0  0  0  0  0  0  0  0  0
    2.1434    2.8875    0.0000 C   0  0  0  0  0  0  0  0  0  0  0  0
   -1.4289    9.0750    0.0000 C   0  0  0  0  0  0  0  0  0  0  0  0
   -0.7145    1.2375    0.0000 C   0  0  0  0  0  0  0  0  0  0  0  0
   -7.1447    2.4750    0.0000 C   0  0  0  0  0  0  0  0  0  0  0  0
    5.0013    7.8375    0.0000 C   0  0  0  0  0  0  0  0  0  0  0  0
   -6.4302    2.8875    0.0000 C   0  0  0  0  0  0  0  0  0  0  0  0
    4.2868    7.4250    0.0000 C   0  0  0  0  0  0  0  0  0  0  0  0
   -5.0013    5.3625    0.0000 C   0  0  0  0  0  0  0  0  0  0  0  0
   -4.2868    4.1250    0.0000 C   0  0  0  0  0  0  0  0  0  0  0  0
    2.8579    4.9500    0.0000 C   0  0  0  0  0  0  0  0  0  0  0  0
    2.1434    6.1875    0.0000 C   0  0  0  0  0  0  0  0  0  0  0  0
   -5.7158    4.9500    0.0000 C   0  0  0  0  0  0  0  0  0  0  0  0
   -5.0013    3.7125    0.0000 C   0  0  0  0  0  0  0  0  0  0  0  0
    3.5724    5.3625    0.0000 C   0  0  0  0  0  0  0  0  0  0  0  0
    2.8579    6.6000    0.0000 C   0  0  0  0  0  0  0  0  0  0  0  0
   -7.8592    2.8875    0.0000 C   0  0  0  0  0  0  0  0  0  0  0  0
    5.7158    7.4250    0.0000 C   0  0  0  0  0  0  0  0  0  0  0  0
   -7.1447    4.1250    0.0000 C   0  0  0  0  0  0  0  0  0  0  0  0
    5.0013    6.1875    0.0000 C   0  0  0  0  0  0  0  0  0  0  0  0
   -3.5724    5.3625    0.0000 C   0  0  0  0  0  0  0  0  0  0  0  0
    1.4289    4.9500    0.0000 C   0  0  0  0  0  0  0  0  0  0  0  0
   -3.5724    7.8375    0.0000 C   0  0  0  0  0  0  0  0  0  0  0  0
    1.4289    2.4750    0.0000 C   0  0  0  0  0  0  0  0  0  0  0  0
   -4.2868    4.9500    0.0000 C   0  0  0  0  0  0  0  0  0  0  0  0
    2.1434    5.3625    0.0000 C   0  0  0  0  0  0  0  0  0  0  0  0
   -5.7158    4.1250    0.0000 C   0  0  0  0  0  0  0  0  0  0  0  0
    3.5724    6.1875    0.0000 C   0  0  0  0  0  0  0  0  0  0  0  0
   -6.4302    3.7125    0.0000 C   0  0  0  0  0  0  0  0  0  0  0  0
    4.2868    6.6000    0.0000 C   0  0  0  0  0  0  0  0  0  0  0  0
   -2.8579    7.4250    0.0000 C   0  0  1  0  0  0  0  0  0  0  0  0
    0.7145    2.8875    0.0000 C   0  0  1  0  0  0  0  0  0  0  0  0
   -1.4289    4.9500    0.0000 C   0  0  2  0  0  0  0  0  0  0  0  0
   -0.7145    5.3625    0.0000 C   0  0  2  0  0  0  0  0  0  0  0  0
   -2.1434    5.3625    0.0000 C   0  0  2  0  0  0  0  0  0  0  0  0
    0.0000    4.9500    0.0000 C   0  0  2  0  0  0  0  0  0  0  0  0
   -2.1434    7.8375    0.0000 C   0  0  0  0  0  0  0  0  0  0  0  0
    0.0000    2.4750    0.0000 C   0  0  0  0  0  0  0  0  0  0  0  0
   -2.1434    6.1875    0.0000 C   0  0  0  0  0  0  0  0  0  0  0  0
    0.0000    4.1250    0.0000 C   0  0  0  0  0  0  0  0  0  0  0  0
   -2.1434    8.6625    0.0000 N   0  0  0  0  0  0  0  0  0  0  0  0
    0.0000    1.6500    0.0000 N   0  0  0  0  0  0  0  0  0  0  0  0
   -7.8592    3.7125    0.0000 N   0  0  0  0  0  0  0  0  0  0  0  0
    5.7158    6.6000    0.0000 N   0  0  0  0  0  0  0  0  0  0  0  0
   -2.8579    6.6000    0.0000 N   0  0  0  0  0  0  0  0  0  0  0  0
    0.7145    3.7125    0.0000 N   0  0  0  0  0  0  0  0  0  0  0  0
   -1.4289    4.1250    0.0000 O   0  0  0  0  0  0  0  0  0  0  0  0
   -0.7145    6.1875    0.0000 O   0  0  0  0  0  0  0  0  0  0  0  0
   -1.4289    7.4250    0.0000 O   0  0  0  0  0  0  0  0  0  0  0  0
   -0.7145    2.8875    0.0000 O   0  0  0  0  0  0  0  0  0  0  0  0
   -1.4289    6.6000    0.0000 O   0  0  0  0  0  0  0  0  0  0  0  0
   -0.7145    3.7125    0.0000 O   0  0  0  0  0  0  0  0  0  0  0  0
   -2.8579    4.9500    0.0000 O   0  0  0  0  0  0  0  0  0  0  0  0
    0.7145    5.3625    0.0000 O   0  0  0  0  0  0  0  0  0  0  0  0
   -2.8579    8.2500    0.0000 H   0  0  0  0  0  0  0  0  0  0  0  0
    0.7145    2.0625    0.0000 H   0  0  0  0  0  0  0  0  0  0  0  0
   -1.7111    5.7252    0.0000 H   0  0  0  0  0  0  0  0  0  0  0  0
   -0.4323    4.5873    0.0000 H   0  0  0  0  0  0  0  0  0  0  0  0
   -1.6131    5.9945    0.0000 H   0  0  0  0  0  0  0  0  0  0  0  0
   -0.5303    4.3180    0.0000 H   0  0  0  0  0  0  0  0  0  0  0  0
   -2.6458    9.1975    0.0000 H   0  0  0  0  0  0  0  0  0  0  0  0
   -4.4990    9.1975    0.0000 H   0  0  0  0  0  0  0  0  0  0  0  0
   -3.5724    9.7325    0.0000 H   0  0  0  0  0  0  0  0  0  0  0  0
   -5.2135    7.9600    0.0000 H   0  0  0  0  0  0  0  0  0  0  0  0
   -4.2868    6.3550    0.0000 H   0  0  0  0  0  0  0  0  0  0  0  0
   -5.2134    6.8900    0.0000 H   0  0  0  0  0  0  0  0  0  0  0  0
    0.5023    1.1150    0.0000 H   0  0  0  0  0  0  0  0  0  0  0  0
    2.3555    1.1150    0.0000 H   0  0  0  0  0  0  0  0  0  0  0  0
    1.4289    0.5800    0.0000 H   0  0  0  0  0  0  0  0  0  0  0  0
    3.0700    2.3525    0.0000 H   0  0  0  0  0  0  0  0  0  0  0  0
    2.1434    3.9575    0.0000 H   0  0  0  0  0  0  0  0  0  0  0  0
    3.0701    3.4225    0.0000 H   0  0  0  0  0  0  0  0  0  0  0  0
   -0.5023    8.5400    0.0000 H   0  0  0  0  0  0  0  0  0  0  0  0
   -1.4289   10.1450    0.0000 H   0  0  0  0  0  0  0  0  0  0  0  0
   -0.5022    9.6100    0.0000 H   0  0  0  0  0  0  0  0  0  0  0  0
   -1.6411    1.7725    0.0000 H   0  0  0  0  0  0  0  0  0  0  0  0
   -0.7145    0.1675    0.0000 H   0  0  0  0  0  0  0  0  0  0  0  0
   -1.6412    0.7025    0.0000 H   0  0  0  0  0  0  0  0  0  0  0  0
   -7.1447    1.4430    0.0000 H   0  0  0  0  0  0  0  0  0  0  0  0
    5.0013    8.8695    0.0000 H   0  0  0  0  0  0  0  0  0  0  0  0
   -5.5365    2.3715    0.0000 H   0  0  0  0  0  0  0  0  0  0  0  0
    3.3931    7.9410    0.0000 H   0  0  0  0  0  0  0  0  0  0  0  0
   -5.0013    6.3945    0.0000 H   0  0  0  0  0  0  0  0  0  0  0  0
   -3.3931    3.6090    0.0000 H   0  0  0  0  0  0  0  0  0  0  0  0
    2.8579    3.9180    0.0000 H   0  0  0  0  0  0  0  0  0  0  0  0
    1.2497    6.7035    0.0000 H   0  0  0  0  0  0  0  0  0  0  0  0
   -6.6095    5.4660    0.0000 H   0  0  0  0  0  0  0  0  0  0  0  0
   -5.0013    2.6805    0.0000 H   0  0  0  0  0  0  0  0  0  0  0  0
    4.4661    4.8465    0.0000 H   0  0  0  0  0  0  0  0  0  0  0  0
    2.8579    7.6320    0.0000 H   0  0  0  0  0  0  0  0  0  0  0  0
   -8.7529    2.3715    0.0000 H   0  0  0  0  0  0  0  0  0  0  0  0
    6.6095    7.9410    0.0000 H   0  0  0  0  0  0  0  0  0  0  0  0
   -7.1447    5.1570    0.0000 H   0  0  0  0  0  0  0  0  0  0  0  0
    5.0013    5.1555    0.0000 H   0  0  0  0  0  0  0  0  0  0  0  0
   -3.5724    6.4325    0.0000 H   0  0  0  0  0  0  0  0  0  0  0  0
   -2.6458    5.8975    0.0000 H   0  0  0  0  0  0  0  0  0  0  0  0
    1.4289    3.8800    0.0000 H   0  0  0  0  0  0  0  0  0  0  0  0
    0.5022    4.4150    0.0000 H   0  0  0  0  0  0  0  0  0  0  0  0
   -3.5724    6.7675    0.0000 H   0  0  0  0  0  0  0  0  0  0  0  0
    1.4289    3.5450    0.0000 H   0  0  0  0  0  0  0  0  0  0  0  0
   -2.2689    3.6400    0.0000 H   0  0  0  0  0  0  0  0  0  0  0  0
    0.1255    6.6725    0.0000 H   0  0  0  0  0  0  0  0  0  0  0  0
   -1.4289    6.4880    0.0000 H   0  0  0  0  0  0  0  0  0  0  0  0
   -0.7145    3.8245    0.0000 H   0  0  0  0  0  0  0  0  0  0  0  0
   -0.6174    6.1315    0.0000 H   0  0  0  0  0  0  0  0  0  0  0  0
   -1.5260    4.1810    0.0000 H   0  0  0  0  0  0  0  0  0  0  0  0
  1 63  1  0  0  0  0
  1 64  1  0  0  0  0
  1 65  1  0  0  0  0
  2 66  1  0  0  0  0
  2 67  1  0  0  0  0
  2 68  1  0  0  0  0
  3 69  1  0  0  0  0
  3 70  1  0  0  0  0
  3 71  1  0  0  0  0
  4 72  1  0  0  0  0
  4 73  1  0  0  0  0
  4 74  1  0  0  0  0
  5 75  1  0  0  0  0
  5 76  1  0  0  0  0
  5 77  1  0  0  0  0
  6 78  1  0  0  0  0
  6 79  1  0  0  0  0
  6 80  1  0  0  0  0
  7 81  1  0  0  0  0
  8 82  1  0  0  0  0
  9  7  2  0  0  0  0
  9 83  1  0  0  0  0
 10  8  2  0  0  0  0
 10 84  1  0  0  0  0
 11 85  1  0  0  0  0
 12 86  1  0  0  0  0
 13 87  1  0  0  0  0
 14 88  1  0  0  0  0
 15 11  1  0  0  0  0
 15 89  1  0  0  0  0
 16 12  2  0  0  0  0
 16 90  1  0  0  0  0
 17 13  1  0  0  0  0
 17 91  1  0  0  0  0
 18 14  2  0  0  0  0
 18 92  1  0  0  0  0
 19  7  1  0  0  0  0
 19 93  1  0  0  0  0
 20  8  1  0  0  0  0
 20 94  1  0  0  0  0
 21 95  1  0  0  0  0
 22 96  1  0  0  0  0
 23 97  1  0  0  0  0
 23 98  1  0  0  0  0
 24 99  1  0  0  0  0
 24100  1  0  0  0  0
 25  1  1  0  0  0  0
 25  2  1  0  0  0  0
 25101  1  0  0  0  0
 26  3  1  0  0  0  0
 26  4  1  0  0  0  0
 26102  1  0  0  0  0
 27 11  2  0  0  0  0
 27 12  1  0  0  0  0
 27 23  1  0  0  0  0
 28 13  2  0  0  0  0
 28 14  1  0  0  0  0
 28 24  1  0  0  0  0
 29 15  2  0  0  0  0
 29 16  1  0  0  0  0
 30 17  2  0  0  0  0
 30 18  1  0  0  0  0
 31  9  1  0  0  0  0
 31 21  2  0  0  0  0
 31 29  1  0  0  0  0
 32 10  1  0  0  0  0
 32 22  2  0  0  0  0
 32 30  1  0  0  0  0
 33 25  1  0  0  0  0
 33 47  1  0  0  0  0
 33 57  1  6  0  0  0
 34 26  1  0  0  0  0
 34 48  1  0  0  0  0
 34 58  1  6  0  0  0
 35 49  1  0  0  0  0
 35 59  1  6  0  0  0
 36 35  1  0  0  0  0
 36 50  1  0  0  0  0
 36 60  1  6  0  0  0
 37 35  1  0  0  0  0
 37 55  1  0  0  0  0
 37 61  1  6  0  0  0
 38 36  1  0  0  0  0
 38 56  1  0  0  0  0
 38 62  1  6  0  0  0
 39 33  1  0  0  0  0
 40 34  1  0  0  0  0
 41 37  1  0  0  0  0
 41 53  1  0  0  0  0
 42 38  1  0  0  0  0
 42 54  1  0  0  0  0
 43  5  1  0  0  0  0
 43 39  2  3  0  0  0
 44  6  1  0  0  0  0
 44 40  2  3  0  0  0
 45 19  2  0  0  0  0
 45 21  1  0  0  0  0
 46 20  2  0  0  0  0
 46 22  1  0  0  0  0
 47 41  2  3  0  0  0
 48 42  2  3  0  0  0
 49103  1  0  0  0  0
 50104  1  0  0  0  0
 51 39  1  0  0  0  0
 51105  1  0  0  0  0
 52 40  1  0  0  0  0
 52106  1  0  0  0  0
 53107  1  0  0  0  0
 54108  1  0  0  0  0
 55 23  1  0  0  0  0
 56 24  1  0  0  0  0
M  END
>  <DRUGBANK_ID>
DB02683

>  <SECONDARY_ACCESSION_NUMBERS>
EXPT00666

>  <COMMON_NAME>
Inhibitor Bea428

$$$$
