739
 OpenBabel10282417072D

 50 53  0  0  1  0  0  0  0  0999 V2000
    7.4805    0.5950    0.0000 S   0  0  0  0  0  0  0  0  0  0  0  0
    5.2819   -1.0729    0.0000 O   0  0  0  0  0  0  0  0  0  0  0  0
    4.0907    0.0663    0.0000 O   0  0  0  0  0  0  0  0  0  0  0  0
    7.1834   -2.1376    0.0000 O   0  0  0  0  0  0  0  0  0  0  0  0
    8.5424   -1.6960    0.0000 O   0  0  0  0  0  0  0  0  0  0  0  0
    6.6959   -0.4849    0.0000 N   0  0  0  0  0  0  0  0  0  0  0  0
    5.2819    0.9280    0.0000 N   0  0  0  0  0  0  0  0  0  0  0  0
    4.6784    2.1187    0.0000 N   0  0  0  0  0  0  0  0  0  0  0  0
    6.6959    0.3401    0.0000 C   0  0  1  0  0  0  0  0  0  0  0  0
    5.8640    0.3435    0.0000 C   0  0  1  0  0  0  0  0  0  0  0  0
    7.4805   -0.7399    0.0000 C   0  0  2  0  0  0  0  0  0  0  0  0
    7.9654   -0.0724    0.0000 C   0  0  0  0  0  0  0  0  0  0  0  0
    5.8640   -0.4883    0.0000 C   0  0  0  0  0  0  0  0  0  0  0  0
    5.4126    1.7427    0.0000 C   0  0  0  0  0  0  0  0  0  0  0  0
    4.4668    0.8007    0.0000 C   0  0  0  0  0  0  0  0  0  0  0  0
    4.0938    1.5365    0.0000 C   0  0  1  0  0  0  0  0  0  0  0  0
    8.6329   -0.5574    0.0000 C   0  0  0  0  0  0  0  0  0  0  0  0
    8.6329    0.4125    0.0000 C   0  0  0  0  0  0  0  0  0  0  0  0
    7.7355   -1.5245    0.0000 C   0  0  0  0  0  0  0  0  0  0  0  0
    6.2272    1.6119    0.0000 C   0  0  0  0  0  0  0  0  0  0  0  0
    5.7886    2.4769    0.0000 C   0  0  0  0  0  0  0  0  0  0  0  0
    3.2791    1.6673    0.0000 C   0  0  0  0  0  0  0  0  0  0  0  0
    2.7586    1.0272    0.0000 C   0  0  0  0  0  0  0  0  0  0  0  0
    2.9851    2.4381    0.0000 C   0  0  0  0  0  0  0  0  0  0  0  0
    1.9440    1.1579    0.0000 C   0  0  0  0  0  0  0  0  0  0  0  0
    2.1705    2.5688    0.0000 C   0  0  0  0  0  0  0  0  0  0  0  0
    1.6500    1.9287    0.0000 C   0  0  0  0  0  0  0  0  0  0  0  0
    6.5940    0.9922    0.0000 H   0  0  0  0  0  0  0  0  0  0  0  0
    6.2669   -1.9427    0.0000 H   0  0  0  0  0  0  0  0  0  0  0  0
    4.5209    3.1265    0.0000 H   0  0  0  0  0  0  0  0  0  0  0  0
    6.2765    1.3308    0.0000 H   0  0  0  0  0  0  0  0  0  0  0  0
    6.7239   -1.4965    0.0000 H   0  0  0  0  0  0  0  0  0  0  0  0
    3.7653    2.5548    0.0000 H   0  0  0  0  0  0  0  0  0  0  0  0
    8.5210   -1.6215    0.0000 H   0  0  0  0  0  0  0  0  0  0  0  0
    9.6104   -0.1222    0.0000 H   0  0  0  0  0  0  0  0  0  0  0  0
    9.4985   -1.1864    0.0000 H   0  0  0  0  0  0  0  0  0  0  0  0
    9.6104   -0.0228    0.0000 H   0  0  0  0  0  0  0  0  0  0  0  0
    8.5211    1.4766    0.0000 H   0  0  0  0  0  0  0  0  0  0  0  0
    9.4986    1.0414    0.0000 H   0  0  0  0  0  0  0  0  0  0  0  0
    6.6085    0.6122    0.0000 H   0  0  0  0  0  0  0  0  0  0  0  0
    6.9023    2.4420    0.0000 H   0  0  0  0  0  0  0  0  0  0  0  0
    7.2837    1.4423    0.0000 H   0  0  0  0  0  0  0  0  0  0  0  0
    6.8572    2.5307    0.0000 H   0  0  0  0  0  0  0  0  0  0  0  0
    5.2077    3.3755    0.0000 H   0  0  0  0  0  0  0  0  0  0  0  0
    6.2763    3.4293    0.0000 H   0  0  0  0  0  0  0  0  0  0  0  0
    3.1265    0.0630    0.0000 H   0  0  0  0  0  0  0  0  0  0  0  0
    3.6362    3.2388    0.0000 H   0  0  0  0  0  0  0  0  0  0  0  0
    1.2929    0.3572    0.0000 H   0  0  0  0  0  0  0  0  0  0  0  0
    1.8026    3.5330    0.0000 H   0  0  0  0  0  0  0  0  0  0  0  0
    0.6310    2.0923    0.0000 H   0  0  0  0  0  0  0  0  0  0  0  0
  1  9  1  0  0  0  0
  1 12  1  0  0  0  0
  2 13  2  0  0  0  0
  3 15  2  0  0  0  0
  4 19  1  0  0  0  0
  4 29  1  0  0  0  0
  5 19  2  0  0  0  0
  6  9  1  0  0  0  0
  6 11  1  0  0  0  0
  6 13  1  0  0  0  0
  7 14  1  0  0  0  0
  7 15  1  0  0  0  0
  8 14  1  0  0  0  0
  8 16  1  0  0  0  0
  8 30  1  0  0  0  0
  9 10  1  0  0  0  0
  9 28  1  6  0  0  0
 10  7  1  0  0  0  0
 10 13  1  0  0  0  0
 10 31  1  6  0  0  0
 11 12  1  0  0  0  0
 11 19  1  0  0  0  0
 11 32  1  1  0  0  0
 12 17  1  0  0  0  0
 12 18  1  0  0  0  0
 14 20  1  0  0  0  0
 14 21  1  0  0  0  0
 15 16  1  0  0  0  0
 16 22  1  0  0  0  0
 16 33  1  6  0  0  0
 17 34  1  0  0  0  0
 17 35  1  0  0  0  0
 17 36  1  0  0  0  0
 18 37  1  0  0  0  0
 18 38  1  0  0  0  0
 18 39  1  0  0  0  0
 20 40  1  0  0  0  0
 20 41  1  0  0  0  0
 20 42  1  0  0  0  0
 21 43  1  0  0  0  0
 21 44  1  0  0  0  0
 21 45  1  0  0  0  0
 22 23  2  0  0  0  0
 22 24  1  0  0  0  0
 23 25  1  0  0  0  0
 23 46  1  0  0  0  0
 24 26  2  0  0  0  0
 24 47  1  0  0  0  0
 25 27  2  0  0  0  0
 25 48  1  0  0  0  0
 26 27  1  0  0  0  0
 26 49  1  0  0  0  0
 27 50  1  0  0  0  0
M  END
>  <DRUGBANK_ID>
DB00739

>  <SECONDARY_ACCESSION_NUMBERS>
APRD01012

>  <COMMON_NAME>
Hetacillin

>  <CAS_NUMBER>
3511-16-8

>  <UNII>
TN4JSC48CV

>  <SYNONYMS>
(2S,5R,6R)-6-[(4R)-2,2-dimethyl-5-oxo-4-phenylimidazolidin-1-yl]-3,3-dimethyl-7-oxo-4-thia-1-azabicyclo[3.2.0]heptane-2-carboxylic acid; 6β-[(4R)-2,2-dimethyl-5-oxo-4-phenylimidazolidin-1-yl]penicillanic acid; Hetacilina; Hetacillin; Hétacilline; Hetacillinum

$$$$
