
 OpenBabel10282417072D

 53 56  0  0  0  0  0  0  0  0999 V2000
   -1.9287    0.4451    0.0000 O   0  0  0  0  0  0  0  0  0  0  0  0
   -4.0225    0.8613    0.0000 O   0  0  0  0  0  0  0  0  0  0  0  0
   -2.9650    2.3115    0.0000 O   0  0  0  0  0  0  0  0  0  0  0  0
    1.4989    2.8684    0.0000 O   0  0  0  0  0  0  0  0  0  0  0  0
    1.7533    0.4064    0.0000 O   0  0  0  0  0  0  0  0  0  0  0  0
    3.2596   -0.2672    0.0000 O   0  0  0  0  0  0  0  0  0  0  0  0
    5.1796    2.0047    0.0000 O   0  5  0  0  0  0  0  0  0  0  0  0
    4.3417    3.1622    0.0000 O   0  0  0  0  0  0  0  0  0  0  0  0
   -2.9700   -0.5926    0.0000 N   0  0  0  0  0  0  0  0  0  0  0  0
   -2.9700   -1.9203    0.0000 N   0  0  0  0  0  0  0  0  0  0  0  0
   -4.4652   -0.4314    0.0000 N   0  0  0  0  0  0  0  0  0  0  0  0
    0.9155    1.5640    0.0000 N   0  0  0  0  0  0  0  0  0  0  0  0
   -5.1796   -1.6689    0.0000 N   0  0  0  0  0  0  0  0  0  0  0  0
   -4.4652   -2.9065    0.0000 N   0  0  0  0  0  0  0  0  0  0  0  0
    4.4265    2.3416    0.0000 N   0  3  0  0  0  0  0  0  0  0  0  0
   -3.1975    0.8599    0.0000 C   0  0  1  0  0  0  0  0  0  0  0  0
   -2.7137    0.1916    0.0000 C   0  0  1  0  0  0  0  0  0  0  0  0
   -2.7114    1.5265    0.0000 C   0  0  1  0  0  0  0  0  0  0  0  0
   -1.9272    1.2701    0.0000 C   0  0  1  0  0  0  0  0  0  0  0  0
   -1.2589    1.7539    0.0000 C   0  0  0  0  0  0  0  0  0  0  0  0
   -3.7506   -0.8439    0.0000 C   0  0  0  0  0  0  0  0  0  0  0  0
   -2.4885   -1.2564    0.0000 C   0  0  0  0  0  0  0  0  0  0  0  0
   -3.7506   -1.6689    0.0000 C   0  0  0  0  0  0  0  0  0  0  0  0
   -0.5058    1.4171    0.0000 C   0  0  0  0  0  0  0  0  0  0  0  0
    0.1624    1.9009    0.0000 C   0  0  0  0  0  0  0  0  0  0  0  0
   -4.4652   -2.0815    0.0000 C   0  0  0  0  0  0  0  0  0  0  0  0
   -5.1796   -0.8439    0.0000 C   0  0  0  0  0  0  0  0  0  0  0  0
    1.5837    2.0478    0.0000 C   0  0  0  0  0  0  0  0  0  0  0  0
    2.3369    1.7109    0.0000 C   0  0  0  0  0  0  0  0  0  0  0  0
    2.4217    0.8902    0.0000 C   0  0  0  0  0  0  0  0  0  0  0  0
    3.0051    2.1946    0.0000 C   0  0  0  0  0  0  0  0  0  0  0  0
    3.7582    1.8578    0.0000 C   0  0  0  0  0  0  0  0  0  0  0  0
    3.1748    0.5534    0.0000 C   0  0  0  0  0  0  0  0  0  0  0  0
    3.8431    1.0372    0.0000 C   0  0  0  0  0  0  0  0  0  0  0  0
    0.9680    1.0552    0.0000 H   0  0  0  0  0  0  0  0  0  0  0  0
   -4.9081   -3.1622    0.0000 H   0  0  0  0  0  0  0  0  0  0  0  0
   -4.0221   -3.1622    0.0000 H   0  0  0  0  0  0  0  0  0  0  0  0
   -4.5061    1.7022    0.0000 H   0  0  0  0  0  0  0  0  0  0  0  0
   -2.3147    3.0313    0.0000 H   0  0  0  0  0  0  0  0  0  0  0  0
    0.8980    0.7890    0.0000 H   0  0  0  0  0  0  0  0  0  0  0  0
    2.5006   -0.8166    0.0000 H   0  0  0  0  0  0  0  0  0  0  0  0
   -3.6849   -0.0926    0.0000 H   0  0  0  0  0  0  0  0  0  0  0  0
   -1.9584   -0.5663    0.0000 H   0  0  0  0  0  0  0  0  0  0  0  0
   -3.7679    1.6957    0.0000 H   0  0  0  0  0  0  0  0  0  0  0  0
   -0.9747    0.7826    0.0000 H   0  0  0  0  0  0  0  0  0  0  0  0
   -1.3650    2.7804    0.0000 H   0  0  0  0  0  0  0  0  0  0  0  0
   -1.4565   -1.2564    0.0000 H   0  0  0  0  0  0  0  0  0  0  0  0
   -0.3996    0.3906    0.0000 H   0  0  0  0  0  0  0  0  0  0  0  0
    0.0524    2.9652    0.0000 H   0  0  0  0  0  0  0  0  0  0  0  0
   -0.8144    2.3377    0.0000 H   0  0  0  0  0  0  0  0  0  0  0  0
   -6.0733   -0.3279    0.0000 H   0  0  0  0  0  0  0  0  0  0  0  0
    2.8990    3.2211    0.0000 H   0  0  0  0  0  0  0  0  0  0  0  0
    4.7852    0.6159    0.0000 H   0  0  0  0  0  0  0  0  0  0  0  0
  1 17  1  0  0  0  0
  1 19  1  0  0  0  0
  2 38  1  0  0  0  0
  3 39  1  0  0  0  0
  4 28  2  0  0  0  0
  5 30  1  0  0  0  0
  5 40  1  0  0  0  0
  6 33  1  0  0  0  0
  6 41  1  0  0  0  0
  7 15  1  0  0  0  0
  8 15  2  0  0  0  0
  9 21  1  0  0  0  0
  9 22  1  0  0  0  0
 10 22  2  0  0  0  0
 10 23  1  0  0  0  0
 11 21  2  0  0  0  0
 11 27  1  0  0  0  0
 12 25  1  0  0  0  0
 12 28  1  0  0  0  0
 12 35  1  0  0  0  0
 13 26  1  0  0  0  0
 13 27  2  0  0  0  0
 14 26  1  0  0  0  0
 14 36  1  0  0  0  0
 14 37  1  0  0  0  0
 15 32  1  0  0  0  0
 16  2  1  0  0  0  0
 16 17  1  0  0  0  0
 16 18  1  0  0  0  0
 16 42  1  1  0  0  0
 17  9  1  0  0  0  0
 17 43  1  6  0  0  0
 18  3  1  0  0  0  0
 18 19  1  0  0  0  0
 18 44  1  1  0  0  0
 19 20  1  0  0  0  0
 19 45  1  6  0  0  0
 20 24  2  0  0  0  0
 20 46  1  0  0  0  0
 21 23  1  0  0  0  0
 22 47  1  0  0  0  0
 23 26  2  0  0  0  0
 24 25  1  0  0  0  0
 24 48  1  0  0  0  0
 25 49  1  0  0  0  0
 25 50  1  0  0  0  0
 27 51  1  0  0  0  0
 28 29  1  0  0  0  0
 29 30  2  0  0  0  0
 29 31  1  0  0  0  0
 30 33  1  0  0  0  0
 31 32  2  0  0  0  0
 31 52  1  0  0  0  0
 32 34  1  0  0  0  0
 33 34  2  0  0  0  0
 34 53  1  0  0  0  0
M  CHG  2   7  -1  15   1
M  END
>  <DRUGBANK_ID>
DB03907

>  <SECONDARY_ACCESSION_NUMBERS>
EXPT00934

>  <COMMON_NAME>
N-[(E)-3-[(2R,3S,4R,5R)-5-(6-Aminopurin-9-yl)-3,4-dihydroxyoxolan-2-yl]prop-2-enyl]-2,3-dihydroxy-5-nitrobenzamide

$$$$
