
 OpenBabel10282417072D

 75 77  0  0  1  0  0  0  0  0999 V2000
    0.0000   -0.8250    0.0000 C   0  0  0  0  0  0  0  0  0  0  0  0
    0.0000    0.0000    0.0000 S   0  0  0  0  0  0  0  0  0  0  0  0
    0.0000    0.8250    0.0000 O   0  5  0  0  0  0  0  0  0  0  0  0
    0.8250   -0.0000    0.0000 O   0  0  0  0  0  0  0  0  0  0  0  0
   -0.8250    0.0000    0.0000 O   0  0  0  0  0  0  0  0  0  0  0  0
    7.5942    0.4216    0.0000 C   0  0  0  0  0  0  0  0  0  0  0  0
    6.8797    0.0091    0.0000 O   0  0  0  0  0  0  0  0  0  0  0  0
    6.1652    0.4216    0.0000 C   0  0  0  0  0  0  0  0  0  0  0  0
    6.6501    1.0891    0.0000 O   0  0  0  0  0  0  0  0  0  0  0  0
    5.4507    0.0091    0.0000 C   0  0  0  0  0  0  0  0  0  0  0  0
    5.4507   -0.8159    0.0000 C   0  0  0  0  0  0  0  0  0  0  0  0
    6.1652   -1.2284    0.0000 C   0  0  0  0  0  0  0  0  0  0  0  0
    4.7363   -1.2284    0.0000 N   0  0  0  0  0  0  0  0  0  0  0  0
    4.0218   -0.8159    0.0000 C   0  0  0  0  0  0  0  0  0  0  0  0
    3.2372   -1.0708    0.0000 N   0  0  0  0  0  0  0  0  0  0  0  0
    2.7523   -0.4034    0.0000 N   0  0  0  0  0  0  0  0  0  0  0  0
    3.2372    0.2641    0.0000 C   0  0  0  0  0  0  0  0  0  0  0  0
    2.9822    1.0487    0.0000 O   0  0  0  0  0  0  0  0  0  0  0  0
    4.0218    0.0091    0.0000 N   0  0  0  0  0  0  0  0  0  0  0  0
    4.7363    0.4216    0.0000 C   0  0  2  0  0  0  0  0  0  0  0  0
    4.7363    1.2466    0.0000 C   0  0  0  0  0  0  0  0  0  0  0  0
    4.0218    1.6591    0.0000 C   0  0  0  0  0  0  0  0  0  0  0  0
    4.0218    2.4841    0.0000 C   0  0  0  0  0  0  0  0  0  0  0  0
    4.7363    2.8966    0.0000 C   0  0  0  0  0  0  0  0  0  0  0  0
    5.4507    2.4841    0.0000 C   0  0  0  0  0  0  0  0  0  0  0  0
    5.4507    1.6591    0.0000 C   0  0  0  0  0  0  0  0  0  0  0  0
    6.1652    1.2466    0.0000 C   0  0  0  0  0  0  0  0  0  0  0  0
    6.8797    1.6591    0.0000 C   0  0  0  0  0  0  0  0  0  0  0  0
    6.8797    2.4841    0.0000 N   0  3  0  0  0  0  0  0  0  0  0  0
    6.8797    3.3091    0.0000 C   0  0  0  0  0  0  0  0  0  0  0  0
    6.0547    2.4841    0.0000 C   0  0  0  0  0  0  0  0  0  0  0  0
    7.7047    2.4841    0.0000 C   0  0  0  0  0  0  0  0  0  0  0  0
    4.7363    3.7216    0.0000 C   0  0  0  0  0  0  0  0  0  0  0  0
    4.7363    4.5466    0.0000 N   0  0  0  0  0  0  0  0  0  0  0  0
    4.7363   -2.0534    0.0000 C   0  0  0  0  0  0  0  0  0  0  0  0
    5.4507   -2.4659    0.0000 C   0  0  0  0  0  0  0  0  0  0  0  0
    5.4507   -3.2909    0.0000 C   0  0  0  0  0  0  0  0  0  0  0  0
    4.7363   -3.7034    0.0000 C   0  0  0  0  0  0  0  0  0  0  0  0
    4.0218   -3.2909    0.0000 C   0  0  0  0  0  0  0  0  0  0  0  0
    4.0218   -2.4659    0.0000 C   0  0  0  0  0  0  0  0  0  0  0  0
    3.3073   -3.7034    0.0000 C   0  0  0  0  0  0  0  0  0  0  0  0
    2.5929   -4.1159    0.0000 F   0  0  0  0  0  0  0  0  0  0  0  0
    2.8948   -2.9889    0.0000 F   0  0  0  0  0  0  0  0  0  0  0  0
    3.7198   -4.4179    0.0000 F   0  0  0  0  0  0  0  0  0  0  0  0
   -0.9266   -1.3600    0.0000 H   0  0  0  0  0  0  0  0  0  0  0  0
    0.9266   -1.3600    0.0000 H   0  0  0  0  0  0  0  0  0  0  0  0
    0.0000   -1.8950    0.0000 H   0  0  0  0  0  0  0  0  0  0  0  0
    8.5208   -0.1134    0.0000 H   0  0  0  0  0  0  0  0  0  0  0  0
    7.5942    1.4916    0.0000 H   0  0  0  0  0  0  0  0  0  0  0  0
    8.5209    0.9566    0.0000 H   0  0  0  0  0  0  0  0  0  0  0  0
    6.1652   -2.2984    0.0000 H   0  0  0  0  0  0  0  0  0  0  0  0
    7.0918   -0.6934    0.0000 H   0  0  0  0  0  0  0  0  0  0  0  0
    7.0919   -1.7634    0.0000 H   0  0  0  0  0  0  0  0  0  0  0  0
    1.7678   -0.4034    0.0000 H   0  0  0  0  0  0  0  0  0  0  0  0
    3.8097    0.9566    0.0000 H   0  0  0  0  0  0  0  0  0  0  0  0
    3.1281    1.1431    0.0000 H   0  0  0  0  0  0  0  0  0  0  0  0
    3.1281    3.0001    0.0000 H   0  0  0  0  0  0  0  0  0  0  0  0
    6.3444    3.0001    0.0000 H   0  0  0  0  0  0  0  0  0  0  0  0
    6.1652    0.1766    0.0000 H   0  0  0  0  0  0  0  0  0  0  0  0
    7.0918    0.7116    0.0000 H   0  0  0  0  0  0  0  0  0  0  0  0
    7.8063    1.1241    0.0000 H   0  0  0  0  0  0  0  0  0  0  0  0
    7.8063    2.1941    0.0000 H   0  0  0  0  0  0  0  0  0  0  0  0
    7.8063    3.8441    0.0000 H   0  0  0  0  0  0  0  0  0  0  0  0
    5.9531    3.8441    0.0000 H   0  0  0  0  0  0  0  0  0  0  0  0
    6.8797    4.3791    0.0000 H   0  0  0  0  0  0  0  0  0  0  0  0
    5.5197    3.4107    0.0000 H   0  0  0  0  0  0  0  0  0  0  0  0
    5.5197    1.5575    0.0000 H   0  0  0  0  0  0  0  0  0  0  0  0
    4.9847    2.4841    0.0000 H   0  0  0  0  0  0  0  0  0  0  0  0
    8.2397    1.5575    0.0000 H   0  0  0  0  0  0  0  0  0  0  0  0
    8.2397    3.4107    0.0000 H   0  0  0  0  0  0  0  0  0  0  0  0
    8.7747    2.4841    0.0000 H   0  0  0  0  0  0  0  0  0  0  0  0
    6.3444   -1.9499    0.0000 H   0  0  0  0  0  0  0  0  0  0  0  0
    6.3444   -3.8069    0.0000 H   0  0  0  0  0  0  0  0  0  0  0  0
    4.7363   -4.7354    0.0000 H   0  0  0  0  0  0  0  0  0  0  0  0
    3.1281   -1.9499    0.0000 H   0  0  0  0  0  0  0  0  0  0  0  0
  1  2  1  0  0  0  0
  1 45  1  0  0  0  0
  1 46  1  0  0  0  0
  1 47  1  0  0  0  0
  2  3  1  0  0  0  0
  2  4  2  0  0  0  0
  2  5  2  0  0  0  0
  6  7  1  0  0  0  0
  6 48  1  0  0  0  0
  6 49  1  0  0  0  0
  6 50  1  0  0  0  0
  7  8  1  0  0  0  0
  8  9  2  0  0  0  0
  8 10  1  0  0  0  0
 10 11  2  0  0  0  0
 11 12  1  0  0  0  0
 11 13  1  0  0  0  0
 12 51  1  0  0  0  0
 12 52  1  0  0  0  0
 12 53  1  0  0  0  0
 13 14  1  0  0  0  0
 13 35  1  0  0  0  0
 14 15  2  0  0  0  0
 14 19  1  0  0  0  0
 15 16  1  0  0  0  0
 16 17  1  0  0  0  0
 16 54  1  0  0  0  0
 17 18  2  0  0  0  0
 17 19  1  0  0  0  0
 20 19  1  0  0  0  0
 20 10  1  0  0  0  0
 20 21  1  0  0  0  0
 20 55  1  1  0  0  0
 21 22  2  0  0  0  0
 21 26  1  0  0  0  0
 22 23  1  0  0  0  0
 22 56  1  0  0  0  0
 23 24  2  0  0  0  0
 23 57  1  0  0  0  0
 24 25  1  0  0  0  0
 24 33  1  0  0  0  0
 25 26  2  0  0  0  0
 25 58  1  0  0  0  0
 26 27  1  0  0  0  0
 27 28  1  0  0  0  0
 27 59  1  0  0  0  0
 27 60  1  0  0  0  0
 28 29  1  0  0  0  0
 28 61  1  0  0  0  0
 28 62  1  0  0  0  0
 29 30  1  0  0  0  0
 29 31  1  0  0  0  0
 29 32  1  0  0  0  0
 30 63  1  0  0  0  0
 30 64  1  0  0  0  0
 30 65  1  0  0  0  0
 31 66  1  0  0  0  0
 31 67  1  0  0  0  0
 31 68  1  0  0  0  0
 32 69  1  0  0  0  0
 32 70  1  0  0  0  0
 32 71  1  0  0  0  0
 33 34  3  0  0  0  0
 35 36  2  0  0  0  0
 35 40  1  0  0  0  0
 36 37  1  0  0  0  0
 36 72  1  0  0  0  0
 37 38  2  0  0  0  0
 37 73  1  0  0  0  0
 38 39  1  0  0  0  0
 38 74  1  0  0  0  0
 39 40  2  0  0  0  0
 39 41  1  0  0  0  0
 40 75  1  0  0  0  0
 41 42  1  0  0  0  0
 41 43  1  0  0  0  0
 41 44  1  0  0  0  0
M  CHG  2   3  -1  29   1
M  END
>  <DRUGBANK_ID>
DB17815

>  <COMMON_NAME>
CHF-6333

>  <CAS_NUMBER>
1613621-54-7

>  <UNII>
Q0656F336Y

>  <SYNONYMS>
(r)-2-(5-cyano-2-(6-(methoxycarbonyl)-7-methyl-3-oxo-8-(3-(trifluoromethyl)phenyl)-2,3,5,8-tetrahydro-(1,2,4)triazolo(4,3-a)pyrimidin-5-yl)phenyl)-n,n,n-trimethylethanaminium methanesulfonate; (r)-2-(5-cyano-2-(6-(methoxycarbonyl)-7-methyl-3-oxo-8-(3-(trifluoromethyl)phenyl)-2,3,5,8-tetrahydro-(1,2,4)triazolo(4,3-a)pyrimidin-5-yl)phenyl)-n,n,n-trimethylethanaminium methanesulfonate dehydrate; Benzeneethanaminium, 5-cyano-n,n,n-trimethyl-2-((5r)-2,3,5,8-tetrahydro-6-(methoxycarbonyl)-7-methyl-3-oxo-8-(3-(trifluoromethyl)phenyl)-1,2,4-triazolo(4,3-a)pyrimidin-5-yl)-, methanesulfonate (1:1); Chf-6333 mesylate; Gplscd01

$$$$
