255
 OpenBabel10282417072D

 55 58  0  0  0  0  0  0  0  0999 V2000
   -2.1830    1.0982    0.0000 O   0  0  0  0  0  0  0  0  0  0  0  0
   -2.5955    0.3837    0.0000 S   0  0  0  0  0  0  0  0  0  0  0  0
   -3.0080   -0.3307    0.0000 O   0  0  0  0  0  0  0  0  0  0  0  0
   -3.3100    0.7962    0.0000 N   0  0  0  0  0  0  0  0  0  0  0  0
   -3.3100    1.6212    0.0000 C   0  0  0  0  0  0  0  0  0  0  0  0
   -3.3100    2.4462    0.0000 C   0  0  0  0  0  0  0  0  0  0  0  0
   -2.4850    1.6212    0.0000 C   0  0  0  0  0  0  0  0  0  0  0  0
   -4.1350    1.6212    0.0000 C   0  0  0  0  0  0  0  0  0  0  0  0
   -1.8810   -0.0288    0.0000 C   0  0  0  0  0  0  0  0  0  0  0  0
   -1.8810   -0.8538    0.0000 C   0  0  0  0  0  0  0  0  0  0  0  0
   -1.1665   -1.2663    0.0000 C   0  0  0  0  0  0  0  0  0  0  0  0
   -0.4521   -0.8538    0.0000 C   0  0  0  0  0  0  0  0  0  0  0  0
   -0.4521   -0.0288    0.0000 C   0  0  0  0  0  0  0  0  0  0  0  0
   -1.1665    0.3837    0.0000 C   0  0  0  0  0  0  0  0  0  0  0  0
    0.2624   -1.2663    0.0000 C   0  0  0  0  0  0  0  0  0  0  0  0
    0.2624   -2.0913    0.0000 C   0  0  0  0  0  0  0  0  0  0  0  0
    0.9769   -2.5038    0.0000 N   0  0  0  0  0  0  0  0  0  0  0  0
    1.6913   -2.0913    0.0000 C   0  0  0  0  0  0  0  0  0  0  0  0
    2.4058   -2.5038    0.0000 C   0  0  0  0  0  0  0  0  0  0  0  0
    3.1203   -2.0913    0.0000 C   0  0  0  0  0  0  0  0  0  0  0  0
    3.1203   -1.2663    0.0000 C   0  0  0  0  0  0  0  0  0  0  0  0
    2.4058   -0.8538    0.0000 C   0  0  0  0  0  0  0  0  0  0  0  0
    1.6913   -1.2663    0.0000 C   0  0  0  0  0  0  0  0  0  0  0  0
    0.9769   -0.8538    0.0000 C   0  0  0  0  0  0  0  0  0  0  0  0
    2.4058   -0.0288    0.0000 N   0  0  0  0  0  0  0  0  0  0  0  0
    3.1203    0.3837    0.0000 C   0  0  0  0  0  0  0  0  0  0  0  0
    3.1203    1.2087    0.0000 N   0  0  0  0  0  0  0  0  0  0  0  0
    3.8347    1.6212    0.0000 C   0  0  0  0  0  0  0  0  0  0  0  0
    4.5492    1.2087    0.0000 C   0  0  0  0  0  0  0  0  0  0  0  0
    4.5492    0.3837    0.0000 C   0  0  0  0  0  0  0  0  0  0  0  0
    3.8347   -0.0288    0.0000 C   0  0  0  0  0  0  0  0  0  0  0  0
   -4.1933    0.2862    0.0000 H   0  0  0  0  0  0  0  0  0  0  0  0
   -2.3834    2.9812    0.0000 H   0  0  0  0  0  0  0  0  0  0  0  0
   -4.2366    2.9812    0.0000 H   0  0  0  0  0  0  0  0  0  0  0  0
   -3.3100    3.5162    0.0000 H   0  0  0  0  0  0  0  0  0  0  0  0
   -1.9500    0.6946    0.0000 H   0  0  0  0  0  0  0  0  0  0  0  0
   -1.9500    2.5478    0.0000 H   0  0  0  0  0  0  0  0  0  0  0  0
   -1.4150    1.6212    0.0000 H   0  0  0  0  0  0  0  0  0  0  0  0
   -4.6700    2.5478    0.0000 H   0  0  0  0  0  0  0  0  0  0  0  0
   -4.6700    0.6946    0.0000 H   0  0  0  0  0  0  0  0  0  0  0  0
   -5.2050    1.6212    0.0000 H   0  0  0  0  0  0  0  0  0  0  0  0
   -2.7747   -1.3698    0.0000 H   0  0  0  0  0  0  0  0  0  0  0  0
   -1.1665   -2.2983    0.0000 H   0  0  0  0  0  0  0  0  0  0  0  0
    0.4416    0.4872    0.0000 H   0  0  0  0  0  0  0  0  0  0  0  0
   -1.1665    1.4157    0.0000 H   0  0  0  0  0  0  0  0  0  0  0  0
   -0.6313   -2.6073    0.0000 H   0  0  0  0  0  0  0  0  0  0  0  0
    2.4058   -3.5358    0.0000 H   0  0  0  0  0  0  0  0  0  0  0  0
    4.0140   -2.6073    0.0000 H   0  0  0  0  0  0  0  0  0  0  0  0
    4.0140   -0.7503    0.0000 H   0  0  0  0  0  0  0  0  0  0  0  0
    0.9769    0.1782    0.0000 H   0  0  0  0  0  0  0  0  0  0  0  0
    1.5532    0.4635    0.0000 H   0  0  0  0  0  0  0  0  0  0  0  0
    3.8347    2.6532    0.0000 H   0  0  0  0  0  0  0  0  0  0  0  0
    5.4429    1.7247    0.0000 H   0  0  0  0  0  0  0  0  0  0  0  0
    5.4429   -0.1323    0.0000 H   0  0  0  0  0  0  0  0  0  0  0  0
    3.8347   -1.0608    0.0000 H   0  0  0  0  0  0  0  0  0  0  0  0
  2  1  2  0  0  0  0
  2  4  1  0  0  0  0
  3  2  2  0  0  0  0
  4  5  1  0  0  0  0
  4 32  1  0  0  0  0
  5  7  1  0  0  0  0
  5  6  1  0  0  0  0
  6 33  1  0  0  0  0
  6 34  1  0  0  0  0
  6 35  1  0  0  0  0
  7 36  1  0  0  0  0
  7 37  1  0  0  0  0
  7 38  1  0  0  0  0
  8  5  1  0  0  0  0
  8 39  1  0  0  0  0
  8 40  1  0  0  0  0
  8 41  1  0  0  0  0
  9  2  1  0  0  0  0
 10  9  2  0  0  0  0
 10 42  1  0  0  0  0
 11 10  1  0  0  0  0
 11 43  1  0  0  0  0
 12 11  2  0  0  0  0
 12 13  1  0  0  0  0
 13 14  2  0  0  0  0
 13 44  1  0  0  0  0
 14  9  1  0  0  0  0
 14 45  1  0  0  0  0
 15 12  1  0  0  0  0
 16 15  2  0  0  0  0
 16 46  1  0  0  0  0
 17 16  1  0  0  0  0
 18 17  2  0  0  0  0
 18 23  1  0  0  0  0
 19 18  1  0  0  0  0
 19 47  1  0  0  0  0
 20 19  2  0  0  0  0
 20 21  1  0  0  0  0
 20 48  1  0  0  0  0
 21 22  2  0  0  0  0
 21 49  1  0  0  0  0
 22 23  1  0  0  0  0
 22 25  1  0  0  0  0
 23 24  2  0  0  0  0
 24 15  1  0  0  0  0
 24 50  1  0  0  0  0
 25 26  1  0  0  0  0
 25 51  1  0  0  0  0
 26 27  1  0  0  0  0
 27 28  2  0  0  0  0
 28 52  1  0  0  0  0
 29 28  1  0  0  0  0
 29 53  1  0  0  0  0
 30 29  2  0  0  0  0
 30 54  1  0  0  0  0
 31 26  2  0  0  0  0
 31 30  1  0  0  0  0
 31 55  1  0  0  0  0
M  END
>  <DRUGBANK_ID>
DB06933

>  <COMMON_NAME>
N-(tert-butyl)-4-[5-(pyridin-2-ylamino)quinolin-3-yl]benzenesulfonamide

$$$$
