NTD
 OpenBabel10282417072D

 33 34  0  0  0  0  0  0  0  0999 V2000
   -1.2013   -1.5791    0.0000 O   0  0  0  0  0  0  0  0  0  0  0  0
   -1.2013   -0.7541    0.0000 C   0  0  0  0  0  0  0  0  0  0  0  0
   -1.9158   -0.3416    0.0000 C   0  0  0  0  0  0  0  0  0  0  0  0
   -1.9158    0.4834    0.0000 C   0  0  0  0  0  0  0  0  0  0  0  0
   -1.2013    0.8959    0.0000 C   0  0  0  0  0  0  0  0  0  0  0  0
   -0.4868    0.4834    0.0000 C   0  0  0  0  0  0  0  0  0  0  0  0
    0.2277    0.8959    0.0000 O   0  0  0  0  0  0  0  0  0  0  0  0
   -0.4868   -0.3416    0.0000 C   0  0  0  0  0  0  0  0  0  0  0  0
    0.2277   -0.7541    0.0000 C   0  0  0  0  0  0  0  0  0  0  0  0
    0.2277   -1.5791    0.0000 O   0  0  0  0  0  0  0  0  0  0  0  0
    0.9421   -0.3416    0.0000 C   0  0  0  0  0  0  0  0  0  0  0  0
    0.9421    0.4834    0.0000 C   0  0  0  0  0  0  0  0  0  0  0  0
    1.6566    0.8959    0.0000 C   0  0  0  0  0  0  0  0  0  0  0  0
    2.3711    0.4834    0.0000 C   0  0  0  0  0  0  0  0  0  0  0  0
    3.0855    0.8959    0.0000 C   0  0  0  0  0  0  0  0  0  0  0  0
    3.8000    1.3084    0.0000 F   0  0  0  0  0  0  0  0  0  0  0  0
    3.4980    0.1815    0.0000 F   0  0  0  0  0  0  0  0  0  0  0  0
    2.6730    1.6104    0.0000 F   0  0  0  0  0  0  0  0  0  0  0  0
    2.3711   -0.3416    0.0000 C   0  0  0  0  0  0  0  0  0  0  0  0
    1.6566   -0.7541    0.0000 C   0  0  0  0  0  0  0  0  0  0  0  0
    1.6566   -1.5791    0.0000 N   0  3  0  0  0  0  0  0  0  0  0  0
    2.3711   -1.9916    0.0000 O   0  0  0  0  0  0  0  0  0  0  0  0
    0.9421   -1.9916    0.0000 O   0  5  0  0  0  0  0  0  0  0  0  0
   -2.8424   -0.8766    0.0000 H   0  0  0  0  0  0  0  0  0  0  0  0
   -2.8424    0.1934    0.0000 H   0  0  0  0  0  0  0  0  0  0  0  0
   -2.8424    1.0184    0.0000 H   0  0  0  0  0  0  0  0  0  0  0  0
   -1.9158    1.5534    0.0000 H   0  0  0  0  0  0  0  0  0  0  0  0
   -1.2013    1.9659    0.0000 H   0  0  0  0  0  0  0  0  0  0  0  0
   -0.2747    1.4309    0.0000 H   0  0  0  0  0  0  0  0  0  0  0  0
   -0.5838   -2.0476    0.0000 H   0  0  0  0  0  0  0  0  0  0  0  0
    0.0484    0.9994    0.0000 H   0  0  0  0  0  0  0  0  0  0  0  0
    1.6566    1.9279    0.0000 H   0  0  0  0  0  0  0  0  0  0  0  0
    3.2648   -0.8576    0.0000 H   0  0  0  0  0  0  0  0  0  0  0  0
  1  2  2  0  0  0  0
  2  3  1  0  0  0  0
  2  8  1  0  0  0  0
  3  4  1  0  0  0  0
  3 24  1  0  0  0  0
  3 25  1  0  0  0  0
  4  5  1  0  0  0  0
  4 26  1  0  0  0  0
  4 27  1  0  0  0  0
  5  6  1  0  0  0  0
  5 28  1  0  0  0  0
  5 29  1  0  0  0  0
  6  7  2  0  0  0  0
  6  8  1  0  0  0  0
  8  9  2  0  0  0  0
  9 10  1  0  0  0  0
  9 11  1  0  0  0  0
 10 30  1  0  0  0  0
 11 12  2  0  0  0  0
 11 20  1  0  0  0  0
 12 13  1  0  0  0  0
 12 31  1  0  0  0  0
 13 14  2  0  0  0  0
 13 32  1  0  0  0  0
 14 15  1  0  0  0  0
 14 19  1  0  0  0  0
 15 16  1  0  0  0  0
 15 17  1  0  0  0  0
 15 18  1  0  0  0  0
 19 20  2  0  0  0  0
 19 33  1  0  0  0  0
 20 21  1  0  0  0  0
 21 22  2  0  0  0  0
 21 23  1  0  0  0  0
M  CHG  2  21   1  23  -1
M  END
>  <DRUGBANK_ID>
DB08307

>  <COMMON_NAME>
2-{HYDROXY[2-NITRO-4-(TRIFLUOROMETHYL)PHENYL]METHYLENE}CYCLOHEXANE-1,3-DIONE

$$$$
