
 OpenBabel10282417072D

 45 48  0  0  0  0  0  0  0  0999 V2000
    1.5030    0.6785    0.0000 C   0  0  1  0  0  0  0  0  0  0  0  0
    1.5030   -0.1301    0.0000 C   0  0  2  0  0  0  0  0  0  0  0  0
    0.0720   -0.1301    0.0000 C   0  0  1  0  0  0  0  0  0  0  0  0
    0.8031   -0.5269    0.0000 C   0  0  1  0  0  0  0  0  0  0  0  0
   -0.6434   -0.5269    0.0000 C   0  0  1  0  0  0  0  0  0  0  0  0
    2.2888    0.9353    0.0000 C   0  0  0  0  0  0  0  0  0  0  0  0
    0.8031    1.0987    0.0000 C   0  0  0  0  0  0  0  0  0  0  0  0
    0.0720    0.6785    0.0000 C   0  0  0  0  0  0  0  0  0  0  0  0
    2.2888   -0.3867    0.0000 C   0  0  0  0  0  0  0  0  0  0  0  0
    2.7554    0.2663    0.0000 C   0  0  0  0  0  0  0  0  0  0  0  0
    0.8031   -1.3591    0.0000 C   0  0  0  0  0  0  0  0  0  0  0  0
   -0.6434   -1.3591    0.0000 C   0  0  0  0  0  0  0  0  0  0  0  0
    0.0720   -1.7711    0.0000 C   0  0  0  0  0  0  0  0  0  0  0  0
   -0.6434    0.2820    0.0000 C   0  0  0  0  0  0  0  0  0  0  0  0
   -1.3513   -0.1301    0.0000 C   0  0  0  0  0  0  0  0  0  0  0  0
   -1.3513   -1.7711    0.0000 C   0  0  0  0  0  0  0  0  0  0  0  0
   -2.0747   -0.5269    0.0000 C   0  0  0  0  0  0  0  0  0  0  0  0
   -2.0747   -1.3591    0.0000 C   0  0  0  0  0  0  0  0  0  0  0  0
    1.5030   -0.9623    0.0000 H   0  0  0  0  0  0  0  0  0  0  0  0
    0.8031    0.2975    0.0000 H   0  0  0  0  0  0  0  0  0  0  0  0
    0.0720   -0.9623    0.0000 H   0  0  0  0  0  0  0  0  0  0  0  0
   -2.7554   -1.7409    0.0000 O   0  0  0  0  0  0  0  0  0  0  0  0
    2.5481    1.7711    0.0000 O   0  0  0  0  0  0  0  0  0  0  0  0
    1.5030    1.4725    0.0000 C   0  0  0  0  0  0  0  0  0  0  0  0
    0.8133    2.1687    0.0000 H   0  0  0  0  0  0  0  0  0  0  0  0
   -0.1205    1.6390    0.0000 H   0  0  0  0  0  0  0  0  0  0  0  0
   -0.8541    1.2144    0.0000 H   0  0  0  0  0  0  0  0  0  0  0  0
    0.0736    1.7485    0.0000 H   0  0  0  0  0  0  0  0  0  0  0  0
    2.6227   -1.4033    0.0000 H   0  0  0  0  0  0  0  0  0  0  0  0
    3.3465   -0.5482    0.0000 H   0  0  0  0  0  0  0  0  0  0  0  0
    3.8254    0.2602    0.0000 H   0  0  0  0  0  0  0  0  0  0  0  0
    3.2422   -0.6865    0.0000 H   0  0  0  0  0  0  0  0  0  0  0  0
    1.7269   -1.8989    0.0000 H   0  0  0  0  0  0  0  0  0  0  0  0
    0.7947   -2.4291    0.0000 H   0  0  0  0  0  0  0  0  0  0  0  0
    0.0670   -2.8411    0.0000 H   0  0  0  0  0  0  0  0  0  0  0  0
   -0.8556   -2.3044    0.0000 H   0  0  0  0  0  0  0  0  0  0  0  0
    0.2832    0.8170    0.0000 H   0  0  0  0  0  0  0  0  0  0  0  0
   -1.5700    0.8170    0.0000 H   0  0  0  0  0  0  0  0  0  0  0  0
   -0.6434    1.3520    0.0000 H   0  0  0  0  0  0  0  0  0  0  0  0
   -1.3466    0.9019    0.0000 H   0  0  0  0  0  0  0  0  0  0  0  0
   -1.3465   -2.8031    0.0000 H   0  0  0  0  0  0  0  0  0  0  0  0
   -2.9627   -0.0011    0.0000 H   0  0  0  0  0  0  0  0  0  0  0  0
    2.4296    2.0075    0.0000 H   0  0  0  0  0  0  0  0  0  0  0  0
    0.5764    2.0075    0.0000 H   0  0  0  0  0  0  0  0  0  0  0  0
    1.5030    2.5425    0.0000 H   0  0  0  0  0  0  0  0  0  0  0  0
  1 24  1  1  0  0  0
  2  1  1  0  0  0  0
  2 19  1  6  0  0  0
  3 21  1  6  0  0  0
  4  2  1  0  0  0  0
  4  3  1  0  0  0  0
  4 20  1  1  0  0  0
  5  3  1  0  0  0  0
  5 14  1  1  0  0  0
  6  1  1  0  0  0  0
  7  1  1  0  0  0  0
  7 25  1  0  0  0  0
  7 26  1  0  0  0  0
  8  3  1  0  0  0  0
  8  7  1  0  0  0  0
  8 27  1  0  0  0  0
  8 28  1  0  0  0  0
  9  2  1  0  0  0  0
  9 29  1  0  0  0  0
  9 30  1  0  0  0  0
 10  6  1  0  0  0  0
 10  9  1  0  0  0  0
 10 31  1  0  0  0  0
 10 32  1  0  0  0  0
 11  4  1  0  0  0  0
 11 33  1  0  0  0  0
 11 34  1  0  0  0  0
 12  5  1  0  0  0  0
 13 11  1  0  0  0  0
 13 12  1  0  0  0  0
 13 35  1  0  0  0  0
 13 36  1  0  0  0  0
 14 37  1  0  0  0  0
 14 38  1  0  0  0  0
 14 39  1  0  0  0  0
 15  5  1  0  0  0  0
 15 40  1  0  0  0  0
 16 12  2  0  0  0  0
 16 41  1  0  0  0  0
 17 15  2  0  0  0  0
 17 42  1  0  0  0  0
 18 16  1  0  0  0  0
 18 17  1  0  0  0  0
 22 18  2  0  0  0  0
 23  6  2  0  0  0  0
 24 43  1  0  0  0  0
 24 44  1  0  0  0  0
 24 45  1  0  0  0  0
M  END
>  <DRUGBANK_ID>
DB07373

>  <COMMON_NAME>
Boldione

>  <CAS_NUMBER>
897-06-3

>  <UNII>
2166Q8568W

>  <SYNONYMS>
1-Dehydroandrostenedione; 1,4-Androstadiene-3,17-dione; Androsta-1,4-diene-3,17-dione; Androstadienedione

$$$$
