73Q
 OpenBabel10282417072D

 28 30  0  0  0  0  0  0  0  0999 V2000
   -1.2177   -1.4445    0.0000 C   0  0  0  0  0  0  0  0  0  0  0  0
   -0.9627   -0.6599    0.0000 C   0  0  0  0  0  0  0  0  0  0  0  0
   -1.4476    0.0076    0.0000 N   0  0  0  0  0  0  0  0  0  0  0  0
   -0.9627    0.6750    0.0000 N   0  0  0  0  0  0  0  0  0  0  0  0
   -1.2177    1.4596    0.0000 C   0  0  0  0  0  0  0  0  0  0  0  0
   -0.1781    0.4201    0.0000 C   0  0  0  0  0  0  0  0  0  0  0  0
    0.5364    0.8326    0.0000 N   0  0  0  0  0  0  0  0  0  0  0  0
    0.5364    1.6576    0.0000 O   0  0  0  0  0  0  0  0  0  0  0  0
    1.2508    0.4201    0.0000 C   0  0  0  0  0  0  0  0  0  0  0  0
    1.9653    0.8326    0.0000 C   0  0  0  0  0  0  0  0  0  0  0  0
    2.6798    0.4201    0.0000 C   0  0  0  0  0  0  0  0  0  0  0  0
    2.6798   -0.4049    0.0000 C   0  0  0  0  0  0  0  0  0  0  0  0
    3.3943   -0.8174    0.0000 Cl  0  0  0  0  0  0  0  0  0  0  0  0
    1.9653   -0.8174    0.0000 C   0  0  0  0  0  0  0  0  0  0  0  0
    1.2508   -0.4049    0.0000 C   0  0  0  0  0  0  0  0  0  0  0  0
    0.5364   -0.8174    0.0000 C   0  0  0  0  0  0  0  0  0  0  0  0
    0.5364   -1.6424    0.0000 O   0  0  0  0  0  0  0  0  0  0  0  0
   -0.1781   -0.4049    0.0000 C   0  0  0  0  0  0  0  0  0  0  0  0
   -2.2643   -1.6669    0.0000 H   0  0  0  0  0  0  0  0  0  0  0  0
   -0.5018   -2.2397    0.0000 H   0  0  0  0  0  0  0  0  0  0  0  0
   -1.5484   -2.4621    0.0000 H   0  0  0  0  0  0  0  0  0  0  0  0
   -0.5018    2.2548    0.0000 H   0  0  0  0  0  0  0  0  0  0  0  0
   -2.2643    1.6820    0.0000 H   0  0  0  0  0  0  0  0  0  0  0  0
   -1.5484    2.4772    0.0000 H   0  0  0  0  0  0  0  0  0  0  0  0
    1.3479    2.1261    0.0000 H   0  0  0  0  0  0  0  0  0  0  0  0
    1.9653    1.8646    0.0000 H   0  0  0  0  0  0  0  0  0  0  0  0
    3.5735    0.9361    0.0000 H   0  0  0  0  0  0  0  0  0  0  0  0
    1.9653   -1.8494    0.0000 H   0  0  0  0  0  0  0  0  0  0  0  0
  1  2  1  0  0  0  0
  1 19  1  0  0  0  0
  1 20  1  0  0  0  0
  1 21  1  0  0  0  0
  2  3  2  0  0  0  0
  2 18  1  0  0  0  0
  3  4  1  0  0  0  0
  4  5  1  0  0  0  0
  4  6  1  0  0  0  0
  5 22  1  0  0  0  0
  5 23  1  0  0  0  0
  5 24  1  0  0  0  0
  6  7  1  0  0  0  0
  6 18  2  0  0  0  0
  7  8  1  0  0  0  0
  7  9  1  0  0  0  0
  8 25  1  0  0  0  0
  9 10  1  0  0  0  0
  9 15  2  0  0  0  0
 10 11  2  0  0  0  0
 10 26  1  0  0  0  0
 11 12  1  0  0  0  0
 11 27  1  0  0  0  0
 12 13  1  0  0  0  0
 12 14  2  0  0  0  0
 14 15  1  0  0  0  0
 14 28  1  0  0  0  0
 15 16  1  0  0  0  0
 16 17  2  0  0  0  0
 16 18  1  0  0  0  0
M  END
>  <DRUGBANK_ID>
DB07218

>  <COMMON_NAME>
6-CHLORO-9-HYDROXY-1,3-DIMETHYL-1,9-DIHYDRO-4H-PYRAZOLO[3,4-B]QUINOLIN-4-ONE

$$$$
