1024
 OpenBabel10282417072D

 43 44  0  0  0  0  0  0  0  0999 V2000
    9.7855   -0.1279    0.0000 O   0  0  0  0  0  0  0  0  0  0  0  0
    6.3799   -0.9529    0.0000 O   0  0  0  0  0  0  0  0  0  0  0  0
    7.8089    1.5222    0.0000 O   0  0  0  0  0  0  0  0  0  0  0  0
    9.5603    1.3203    0.0000 O   0  0  0  0  0  0  0  0  0  0  0  0
    2.0930    0.6971    0.0000 O   0  0  0  0  0  0  0  0  0  0  0  0
    2.8075   -0.5404    0.0000 O   0  0  0  0  0  0  0  0  0  0  0  0
    8.5234   -0.5404    0.0000 C   0  0  0  0  0  0  0  0  0  0  0  0
    7.0944    0.2846    0.0000 C   0  0  0  0  0  0  0  0  0  0  0  0
    8.5234    0.2846    0.0000 C   0  0  0  0  0  0  0  0  0  0  0  0
    7.8089   -0.9529    0.0000 C   0  0  0  0  0  0  0  0  0  0  0  0
    7.0944   -0.5404    0.0000 C   0  0  0  0  0  0  0  0  0  0  0  0
    7.8089    0.6971    0.0000 C   0  0  0  0  0  0  0  0  0  0  0  0
    6.3799    0.6971    0.0000 C   0  0  0  0  0  0  0  0  0  0  0  0
    9.3041   -0.7918    0.0000 C   0  0  0  0  0  0  0  0  0  0  0  0
    9.3041    0.5360    0.0000 C   0  0  0  0  0  0  0  0  0  0  0  0
    5.6655    0.2846    0.0000 C   0  0  0  0  0  0  0  0  0  0  0  0
    7.8089   -1.7779    0.0000 C   0  0  0  0  0  0  0  0  0  0  0  0
    4.9509    0.6971    0.0000 C   0  0  0  0  0  0  0  0  0  0  0  0
    4.2365    0.2846    0.0000 C   0  0  0  0  0  0  0  0  0  0  0  0
    3.5220    0.6971    0.0000 C   0  0  0  0  0  0  0  0  0  0  0  0
    4.9509    1.5222    0.0000 C   0  0  0  0  0  0  0  0  0  0  0  0
    6.3799   -1.7779    0.0000 C   0  0  0  0  0  0  0  0  0  0  0  0
    2.8075    0.2846    0.0000 C   0  0  0  0  0  0  0  0  0  0  0  0
    8.6204    1.9907    0.0000 H   0  0  0  0  0  0  0  0  0  0  0  0
    2.0930    1.6341    0.0000 H   0  0  0  0  0  0  0  0  0  0  0  0
    6.3799    1.7671    0.0000 H   0  0  0  0  0  0  0  0  0  0  0  0
    5.4532    1.2321    0.0000 H   0  0  0  0  0  0  0  0  0  0  0  0
    9.6366   -1.8088    0.0000 H   0  0  0  0  0  0  0  0  0  0  0  0
    8.5492   -1.5501    0.0000 H   0  0  0  0  0  0  0  0  0  0  0  0
    5.6656   -0.7474    0.0000 H   0  0  0  0  0  0  0  0  0  0  0  0
    6.8823   -2.3129    0.0000 H   0  0  0  0  0  0  0  0  0  0  0  0
    8.7355   -2.3129    0.0000 H   0  0  0  0  0  0  0  0  0  0  0  0
    7.8089   -2.8479    0.0000 H   0  0  0  0  0  0  0  0  0  0  0  0
    4.2365   -0.7854    0.0000 H   0  0  0  0  0  0  0  0  0  0  0  0
    3.3099   -0.2504    0.0000 H   0  0  0  0  0  0  0  0  0  0  0  0
    3.5220    1.7671    0.0000 H   0  0  0  0  0  0  0  0  0  0  0  0
    2.5954    1.2321    0.0000 H   0  0  0  0  0  0  0  0  0  0  0  0
    5.8775    2.0572    0.0000 H   0  0  0  0  0  0  0  0  0  0  0  0
    4.0243    2.0572    0.0000 H   0  0  0  0  0  0  0  0  0  0  0  0
    4.9509    2.5922    0.0000 H   0  0  0  0  0  0  0  0  0  0  0  0
    5.4533   -2.3129    0.0000 H   0  0  0  0  0  0  0  0  0  0  0  0
    7.3065   -2.3129    0.0000 H   0  0  0  0  0  0  0  0  0  0  0  0
    6.3799   -2.8479    0.0000 H   0  0  0  0  0  0  0  0  0  0  0  0
  1 14  1  0  0  0  0
  1 15  1  0  0  0  0
  2 11  1  0  0  0  0
  2 22  1  0  0  0  0
  3 12  1  0  0  0  0
  3 24  1  0  0  0  0
  4 15  2  0  0  0  0
  5 23  1  0  0  0  0
  5 25  1  0  0  0  0
  6 23  2  0  0  0  0
  7  9  1  0  0  0  0
  7 10  2  0  0  0  0
  7 14  1  0  0  0  0
  8 11  2  0  0  0  0
  8 12  1  0  0  0  0
  8 13  1  0  0  0  0
  9 12  2  0  0  0  0
  9 15  1  0  0  0  0
 10 11  1  0  0  0  0
 10 17  1  0  0  0  0
 13 16  1  0  0  0  0
 13 26  1  0  0  0  0
 13 27  1  0  0  0  0
 14 28  1  0  0  0  0
 14 29  1  0  0  0  0
 16 18  2  0  0  0  0
 16 30  1  0  0  0  0
 17 31  1  0  0  0  0
 17 32  1  0  0  0  0
 17 33  1  0  0  0  0
 18 19  1  0  0  0  0
 18 21  1  0  0  0  0
 19 20  1  0  0  0  0
 19 34  1  0  0  0  0
 19 35  1  0  0  0  0
 20 23  1  0  0  0  0
 20 36  1  0  0  0  0
 20 37  1  0  0  0  0
 21 38  1  0  0  0  0
 21 39  1  0  0  0  0
 21 40  1  0  0  0  0
 22 41  1  0  0  0  0
 22 42  1  0  0  0  0
 22 43  1  0  0  0  0
M  END
>  <DRUGBANK_ID>
DB01024

>  <SECONDARY_ACCESSION_NUMBERS>
APRD01603; EXPT02208

>  <COMMON_NAME>
Mycophenolic acid

>  <CAS_NUMBER>
24280-93-1

>  <UNII>
HU9DX48N0T

>  <SYNONYMS>
(e)-6-(4-Hydroxy-6-methoxy-7-methyl-3-oxo-5-phthalanyl)-4-methyl-4-hexenoic acid; Acide mycophenolique; Acido micofenolico; Acidum mycophenolicum; Micofenolico acido; Mycophenolate; Mycophenolic acid; Mycophenols√§ure

$$$$
