
 OpenBabel10282417072D

 51 54  0  0  0  0  0  0  0  0999 V2000
    5.6091   -1.7116    0.0000 C   0  0  0  0  0  0  0  0  0  0  0  0
    5.6091   -2.5366    0.0000 C   0  0  0  0  0  0  0  0  0  0  0  0
    6.2765   -3.0215    0.0000 C   0  0  0  0  0  0  0  0  0  0  0  0
    6.0216   -3.8062    0.0000 C   0  0  0  0  0  0  0  0  0  0  0  0
    5.1966   -3.8062    0.0000 N   0  0  0  0  0  0  0  0  0  0  0  0
    4.9416   -3.0215    0.0000 O   0  0  0  0  0  0  0  0  0  0  0  0
    6.5065   -4.4736    0.0000 C   0  0  0  0  0  0  0  0  0  0  0  0
    7.3270   -4.3874    0.0000 C   0  0  0  0  0  0  0  0  0  0  0  0
    7.8119   -5.0548    0.0000 C   0  0  0  0  0  0  0  0  0  0  0  0
    7.4763   -5.8085    0.0000 C   0  0  0  0  0  0  0  0  0  0  0  0
    6.6558   -5.8947    0.0000 C   0  0  0  0  0  0  0  0  0  0  0  0
    6.1709   -5.2273    0.0000 C   0  0  0  0  0  0  0  0  0  0  0  0
    7.9613   -6.4759    0.0000 F   0  0  0  0  0  0  0  0  0  0  0  0
    7.0611   -2.7666    0.0000 C   0  0  0  0  0  0  0  0  0  0  0  0
    7.2326   -1.9596    0.0000 O   0  0  0  0  0  0  0  0  0  0  0  0
    8.0173   -1.7047    0.0000 C   0  0  0  0  0  0  0  0  0  0  0  0
    8.1888   -0.8977    0.0000 C   0  0  0  0  0  0  0  0  0  0  0  0
    8.9734   -0.6428    0.0000 C   0  0  0  0  0  0  0  0  0  0  0  0
    9.5865   -1.1948    0.0000 C   0  0  0  0  0  0  0  0  0  0  0  0
    9.4150   -2.0018    0.0000 C   0  0  0  0  0  0  0  0  0  0  0  0
    8.6304   -2.2567    0.0000 N   0  0  0  0  0  0  0  0  0  0  0  0
   10.3711   -0.9399    0.0000 C   0  0  0  0  0  0  0  0  0  0  0  0
   10.5427   -0.1329    0.0000 O   0  0  0  0  0  0  0  0  0  0  0  0
   10.9842   -1.4919    0.0000 N   0  0  0  0  0  0  0  0  0  0  0  0
   11.7689   -1.2370    0.0000 C   0  0  0  0  0  0  0  0  0  0  0  0
   12.3819   -1.7890    0.0000 C   0  0  0  0  0  0  0  0  0  0  0  0
   12.2104   -2.5960    0.0000 S   0  0  0  0  0  0  0  0  0  0  0  0
   13.0349   -2.6248    0.0000 O   0  0  0  0  0  0  0  0  0  0  0  0
   12.3252   -3.4129    0.0000 O   0  0  0  0  0  0  0  0  0  0  0  0
   11.4258   -2.8509    0.0000 C   0  0  0  0  0  0  0  0  0  0  0  0
   10.8127   -2.2989    0.0000 C   0  0  0  0  0  0  0  0  0  0  0  0
    6.5357   -1.1766    0.0000 H   0  0  0  0  0  0  0  0  0  0  0  0
    4.6825   -1.1766    0.0000 H   0  0  0  0  0  0  0  0  0  0  0  0
    5.6091   -0.6416    0.0000 H   0  0  0  0  0  0  0  0  0  0  0  0
    7.7468   -3.4446    0.0000 H   0  0  0  0  0  0  0  0  0  0  0  0
    8.8382   -4.9469    0.0000 H   0  0  0  0  0  0  0  0  0  0  0  0
    6.2360   -6.8375    0.0000 H   0  0  0  0  0  0  0  0  0  0  0  0
    5.1446   -5.3352    0.0000 H   0  0  0  0  0  0  0  0  0  0  0  0
    7.8563   -3.4826    0.0000 H   0  0  0  0  0  0  0  0  0  0  0  0
    8.0787   -2.4359    0.0000 H   0  0  0  0  0  0  0  0  0  0  0  0
    7.4219   -0.2072    0.0000 H   0  0  0  0  0  0  0  0  0  0  0  0
    9.1880    0.3666    0.0000 H   0  0  0  0  0  0  0  0  0  0  0  0
   10.1819   -2.6923    0.0000 H   0  0  0  0  0  0  0  0  0  0  0  0
   11.9914   -0.1904    0.0000 H   0  0  0  0  0  0  0  0  0  0  0  0
   12.7865   -0.9064    0.0000 H   0  0  0  0  0  0  0  0  0  0  0  0
   13.3995   -1.4584    0.0000 H   0  0  0  0  0  0  0  0  0  0  0  0
   13.1771   -2.5050    0.0000 H   0  0  0  0  0  0  0  0  0  0  0  0
   11.2033   -3.8975    0.0000 H   0  0  0  0  0  0  0  0  0  0  0  0
   10.4082   -3.1816    0.0000 H   0  0  0  0  0  0  0  0  0  0  0  0
    9.7951   -2.6296    0.0000 H   0  0  0  0  0  0  0  0  0  0  0  0
   10.0175   -1.5830    0.0000 H   0  0  0  0  0  0  0  0  0  0  0  0
  1  2  1  0  0  0  0
  1 32  1  0  0  0  0
  1 33  1  0  0  0  0
  1 34  1  0  0  0  0
  2  3  2  0  0  0  0
  2  6  1  0  0  0  0
  3  4  1  0  0  0  0
  3 14  1  0  0  0  0
  4  5  2  0  0  0  0
  4  7  1  0  0  0  0
  5  6  1  0  0  0  0
  7  8  2  0  0  0  0
  7 12  1  0  0  0  0
  8  9  1  0  0  0  0
  8 35  1  0  0  0  0
  9 10  2  0  0  0  0
  9 36  1  0  0  0  0
 10 11  1  0  0  0  0
 10 13  1  0  0  0  0
 11 12  2  0  0  0  0
 11 37  1  0  0  0  0
 12 38  1  0  0  0  0
 14 15  1  0  0  0  0
 14 39  1  0  0  0  0
 14 40  1  0  0  0  0
 15 16  1  0  0  0  0
 16 17  2  0  0  0  0
 16 21  1  0  0  0  0
 17 18  1  0  0  0  0
 17 41  1  0  0  0  0
 18 19  2  0  0  0  0
 18 42  1  0  0  0  0
 19 20  1  0  0  0  0
 19 22  1  0  0  0  0
 20 21  2  0  0  0  0
 20 43  1  0  0  0  0
 22 23  2  0  0  0  0
 22 24  1  0  0  0  0
 24 25  1  0  0  0  0
 24 31  1  0  0  0  0
 25 26  1  0  0  0  0
 25 44  1  0  0  0  0
 25 45  1  0  0  0  0
 26 27  1  0  0  0  0
 26 46  1  0  0  0  0
 26 47  1  0  0  0  0
 27 28  2  0  0  0  0
 27 29  2  0  0  0  0
 27 30  1  0  0  0  0
 30 31  1  0  0  0  0
 30 48  1  0  0  0  0
 30 49  1  0  0  0  0
 31 50  1  0  0  0  0
 31 51  1  0  0  0  0
M  END
>  <DRUGBANK_ID>
DB11877

>  <COMMON_NAME>
Basmisanil

>  <CAS_NUMBER>
1159600-41-5

>  <UNII>
788PET5SUA

>  <SYNONYMS>
Basmisanil

$$$$
