STX
 OpenBabel10282417072D

 29 29  0  0  0  0  0  0  0  0999 V2000
    0.6225   -2.5515    0.0000 N   0  0  0  0  0  0  0  0  0  0  0  0
    0.1376   -1.8841    0.0000 C   0  0  0  0  0  0  0  0  0  0  0  0
    0.4732   -1.1304    0.0000 C   0  0  0  0  0  0  0  0  0  0  0  0
    1.2937   -1.0442    0.0000 O   0  0  0  0  0  0  0  0  0  0  0  0
    0.2870   -3.3052    0.0000 C   0  0  0  0  0  0  0  0  0  0  0  0
   -0.0117   -0.4629    0.0000 C   0  0  0  0  0  0  0  0  0  0  0  0
   -0.8367   -0.4629    0.0000 N   0  0  0  0  0  0  0  0  0  0  0  0
   -1.0917    0.3217    0.0000 N   0  0  0  0  0  0  0  0  0  0  0  0
   -0.4242    0.8066    0.0000 C   0  0  0  0  0  0  0  0  0  0  0  0
    0.2432    0.3217    0.0000 O   0  0  0  0  0  0  0  0  0  0  0  0
   -0.4242    1.6316    0.0000 C   0  0  0  0  0  0  0  0  0  0  0  0
   -0.4242    2.4566    0.0000 C   0  0  0  0  0  0  0  0  0  0  0  0
    0.4008    1.6316    0.0000 C   0  0  0  0  0  0  0  0  0  0  0  0
   -1.2492    1.6316    0.0000 C   0  0  0  0  0  0  0  0  0  0  0  0
    1.6369   -2.4448    0.0000 H   0  0  0  0  0  0  0  0  0  0  0  0
   -0.9265   -1.9959    0.0000 H   0  0  0  0  0  0  0  0  0  0  0  0
   -0.4913   -1.0184    0.0000 H   0  0  0  0  0  0  0  0  0  0  0  0
   -0.7771   -3.4171    0.0000 H   0  0  0  0  0  0  0  0  0  0  0  0
    0.9160   -4.1708    0.0000 H   0  0  0  0  0  0  0  0  0  0  0  0
   -0.1481   -4.2827    0.0000 H   0  0  0  0  0  0  0  0  0  0  0  0
    0.5024    2.9916    0.0000 H   0  0  0  0  0  0  0  0  0  0  0  0
   -1.3508    2.9916    0.0000 H   0  0  0  0  0  0  0  0  0  0  0  0
   -0.4242    3.5266    0.0000 H   0  0  0  0  0  0  0  0  0  0  0  0
    0.9358    0.7050    0.0000 H   0  0  0  0  0  0  0  0  0  0  0  0
    0.9358    2.5582    0.0000 H   0  0  0  0  0  0  0  0  0  0  0  0
    1.4708    1.6316    0.0000 H   0  0  0  0  0  0  0  0  0  0  0  0
   -1.7842    2.5582    0.0000 H   0  0  0  0  0  0  0  0  0  0  0  0
   -1.7842    0.7050    0.0000 H   0  0  0  0  0  0  0  0  0  0  0  0
   -2.3192    1.6316    0.0000 H   0  0  0  0  0  0  0  0  0  0  0  0
  1  2  1  0  0  0  0
  1  5  1  0  0  0  0
  1 15  1  0  0  0  0
  2  3  1  0  0  0  0
  2 16  1  0  0  0  0
  2 17  1  0  0  0  0
  3  4  2  0  0  0  0
  3  6  1  0  0  0  0
  5 18  1  0  0  0  0
  5 19  1  0  0  0  0
  5 20  1  0  0  0  0
  6  7  2  0  0  0  0
  6 10  1  0  0  0  0
  7  8  1  0  0  0  0
  8  9  2  0  0  0  0
  9 10  1  0  0  0  0
  9 11  1  0  0  0  0
 11 12  1  0  0  0  0
 11 13  1  0  0  0  0
 11 14  1  0  0  0  0
 12 21  1  0  0  0  0
 12 22  1  0  0  0  0
 12 23  1  0  0  0  0
 13 24  1  0  0  0  0
 13 25  1  0  0  0  0
 13 26  1  0  0  0  0
 14 27  1  0  0  0  0
 14 28  1  0  0  0  0
 14 29  1  0  0  0  0
M  END
>  <DRUGBANK_ID>
DB08576

>  <COMMON_NAME>
1-(5-TERT-BUTYL-1,3,4-OXADIAZOL-2-YL)-2-(METHYLAMINO)ETHANONE

$$$$
