
 OpenBabel10282417072D

200207  0  0  0  0  0  0  0  0999 V2000
    5.4433    3.6816    0.0000 N   0  0  0  0  0  0  0  0  0  0  0  0
   -5.4765   -5.2308    0.0000 N   0  0  0  0  0  0  0  0  0  0  0  0
    4.6936    4.0190    0.0000 C   0  0  0  0  0  0  0  0  0  0  0  0
   -5.4640   -6.0555    0.0000 C   0  0  0  0  0  0  0  0  0  0  0  0
    4.8311    2.4030    0.0000 C   0  0  0  0  0  0  0  0  0  0  0  0
   -4.0522   -5.2308    0.0000 C   0  0  0  0  0  0  0  0  0  0  0  0
   -6.9008   -6.1305    0.0000 C   0  0  0  0  0  0  0  0  0  0  0  0
    5.3058    5.3183    0.0000 C   0  0  0  0  0  0  0  0  0  0  0  0
    5.5057    2.8570    0.0000 C   0  0  2  0  0  0  0  0  0  0  0  0
   -4.7768   -4.8186    0.0000 C   0  0  2  0  0  0  0  0  0  0  0  0
   -8.3752   -5.3683    0.0000 C   0  0  0  0  0  0  0  0  0  0  0  0
    6.6551    6.2554    0.0000 C   0  0  0  0  0  0  0  0  0  0  0  0
    4.6311    4.8560    0.0000 C   0  0  2  0  0  0  0  0  0  0  0  0
   -6.1637   -6.5052    0.0000 C   0  0  2  0  0  0  0  0  0  0  0  0
   -8.3127   -6.2054    0.0000 C   0  0  0  0  0  0  0  0  0  0  0  0
   -7.6755   -4.9310    0.0000 C   0  0  0  0  0  0  0  0  0  0  0  0
    5.9055    6.6052    0.0000 C   0  0  0  0  0  0  0  0  0  0  0  0
    6.7302    5.4308    0.0000 C   0  0  0  0  0  0  0  0  0  0  0  0
   -3.3400   -4.8061    0.0000 O   0  0  0  0  0  0  0  0  0  0  0  0
    4.8935    1.5784    0.0000 O   0  0  0  0  0  0  0  0  0  0  0  0
   -7.5880   -6.5802    0.0000 C   0  0  0  0  0  0  0  0  0  0  0  0
    6.0555    4.9560    0.0000 C   0  0  0  0  0  0  0  0  0  0  0  0
   -6.9384   -5.3058    0.0000 C   0  0  0  0  0  0  0  0  0  0  0  0
    5.2308    6.1387    0.0000 C   0  0  0  0  0  0  0  0  0  0  0  0
   -3.3525   -3.9815    0.0000 C   0  0  1  0  0  0  0  0  0  0  0  0
    5.6307    1.2285    0.0000 C   0  0  1  0  0  0  0  0  0  0  0  0
   -6.2136   -2.3572    0.0000 C   0  0  0  0  0  0  0  0  0  0  0  0
    8.3544    3.0693    0.0000 C   0  0  0  0  0  0  0  0  0  0  0  0
    5.6931    0.4039    0.0000 C   0  0  0  0  0  0  0  0  0  0  0  0
   -2.6403   -3.5691    0.0000 C   0  0  0  0  0  0  0  0  0  0  0  0
    4.0190    3.5691    0.0000 O   0  0  0  0  0  0  0  0  0  0  0  0
   -4.7518   -6.4678    0.0000 O   0  0  0  0  0  0  0  0  0  0  0  0
    3.7815   -2.6321    0.0000 C   0  0  0  0  0  0  0  0  0  0  0  0
    0.9329   -3.9439    0.0000 C   0  0  0  0  0  0  0  0  0  0  0  0
    4.0814    2.7445    0.0000 O   0  0  0  0  0  0  0  0  0  0  0  0
   -4.0522   -6.0555    0.0000 O   0  0  0  0  0  0  0  0  0  0  0  0
    9.1040    2.7196    0.0000 C   0  0  0  0  0  0  0  0  0  0  0  0
   -6.2387   -1.5326    0.0000 C   0  0  0  0  0  0  0  0  0  0  0  0
   -5.5015   -2.7570    0.0000 C   0  0  0  0  0  0  0  0  0  0  0  0
    7.6797    2.6071    0.0000 C   0  0  0  0  0  0  0  0  0  0  0  0
   -1.9282   -3.9690    0.0000 C   0  0  0  0  0  0  0  0  0  0  0  0
    5.0184   -0.0583    0.0000 C   0  0  0  0  0  0  0  0  0  0  0  0
    3.0444   -2.2822    0.0000 O   0  0  0  0  0  0  0  0  0  0  0  0
    0.9329   -4.7686    0.0000 O   0  0  0  0  0  0  0  0  0  0  0  0
   -4.0772   -3.5816    0.0000 C   0  0  0  0  0  0  0  0  0  0  0  0
    6.3178    1.6908    0.0000 C   0  0  0  0  0  0  0  0  0  0  0  0
    9.1665    1.9157    0.0000 C   0  0  0  0  0  0  0  0  0  0  0  0
   -5.5140   -1.1078    0.0000 C   0  0  0  0  0  0  0  0  0  0  0  0
    3.8565   -3.4567    0.0000 N   0  0  0  0  0  0  0  0  0  0  0  0
    1.6325   -3.5317    0.0000 N   0  0  0  0  0  0  0  0  0  0  0  0
    4.4062   -1.3452    0.0000 O   0  0  0  0  0  0  0  0  0  0  0  0
   -0.5039   -3.9564    0.0000 O   0  0  0  0  0  0  0  0  0  0  0  0
   -6.2011   -4.8311    0.0000 C   0  0  0  0  0  0  0  0  0  0  0  0
    6.1180    4.1439    0.0000 C   0  0  0  0  0  0  0  0  0  0  0  0
    7.7422    1.8033    0.0000 C   0  0  0  0  0  0  0  0  0  0  0  0
   -4.7893   -2.3447    0.0000 C   0  0  0  0  0  0  0  0  0  0  0  0
    4.4687   -2.1698    0.0000 C   0  0  0  0  0  0  0  0  0  0  0  0
    0.2082   -3.5442    0.0000 C   0  0  0  0  0  0  0  0  0  0  0  0
    5.0809   -0.8829    0.0000 C   0  0  0  0  0  0  0  0  0  0  0  0
   -1.2160   -3.5566    0.0000 C   0  0  0  0  0  0  0  0  0  0  0  0
   -9.1124   -5.0060    0.0000 O   0  0  0  0  0  0  0  0  0  0  0  0
    7.3423    6.7302    0.0000 O   0  0  0  0  0  0  0  0  0  0  0  0
   -8.9999   -6.6551    0.0000 O   0  0  0  0  0  0  0  0  0  0  0  0
    5.8430    7.4299    0.0000 O   0  0  0  0  0  0  0  0  0  0  0  0
   -7.7005   -4.1064    0.0000 O   0  0  0  0  0  0  0  0  0  0  0  0
    7.4798    5.0809    0.0000 O   0  0  0  0  0  0  0  0  0  0  0  0
   -4.0772   -2.7570    0.0000 C   0  0  0  0  0  0  0  0  0  0  0  0
    7.0550    1.3409    0.0000 C   0  0  0  0  0  0  0  0  0  0  0  0
   -4.8018   -1.5201    0.0000 C   0  0  0  0  0  0  0  0  0  0  0  0
    8.4918    1.4409    0.0000 C   0  0  0  0  0  0  0  0  0  0  0  0
   -6.9259   -2.7820    0.0000 O   0  0  0  0  0  0  0  0  0  0  0  0
    8.2919    3.9064    0.0000 O   0  0  0  0  0  0  0  0  0  0  0  0
    9.7912    3.1943    0.0000 O   0  0  0  0  0  0  0  0  0  0  0  0
   -6.9509   -1.1202    0.0000 O   0  0  0  0  0  0  0  0  0  0  0  0
    6.2554    2.5029    0.0000 C   0  0  0  0  0  0  0  0  0  0  0  0
   -4.7768   -3.9940    0.0000 C   0  0  0  0  0  0  0  0  0  0  0  0
   -6.1262   -7.3298    0.0000 C   0  0  0  0  0  0  0  0  0  0  0  0
    3.8814    5.2017    0.0000 C   0  0  0  0  0  0  0  0  0  0  0  0
    6.4428    0.0540    0.0000 C   0  0  0  0  0  0  0  0  0  0  0  0
   -2.6528   -2.7445    0.0000 C   0  0  0  0  0  0  0  0  0  0  0  0
   -1.9532   -2.3197    0.0000 C   0  0  0  0  0  0  0  0  0  0  0  0
    6.5052   -0.7705    0.0000 C   0  0  0  0  0  0  0  0  0  0  0  0
    2.3572   -3.9314    0.0000 C   0  0  0  0  0  0  0  0  0  0  0  0
    3.1693   -3.9189    0.0000 C   0  0  0  0  0  0  0  0  0  0  0  0
   -1.2285   -2.7321    0.0000 C   0  0  0  0  0  0  0  0  0  0  0  0
    5.8305   -1.2452    0.0000 C   0  0  0  0  0  0  0  0  0  0  0  0
    7.2674    7.5548    0.0000 C   0  0  0  0  0  0  0  0  0  0  0  0
   -9.7912   -5.4433    0.0000 C   0  0  0  0  0  0  0  0  0  0  0  0
   -8.9499   -7.4798    0.0000 C   0  0  0  0  0  0  0  0  0  0  0  0
   -8.4377   -3.7315    0.0000 C   0  0  0  0  0  0  0  0  0  0  0  0
    5.0934    7.7796    0.0000 C   0  0  0  0  0  0  0  0  0  0  0  0
    8.1545    5.5515    0.0000 C   0  0  0  0  0  0  0  0  0  0  0  0
    7.5423    4.2438    0.0000 C   0  0  0  0  0  0  0  0  0  0  0  0
   -6.9134   -3.6066    0.0000 C   0  0  0  0  0  0  0  0  0  0  0  0
    9.7163    4.0065    0.0000 C   0  0  0  0  0  0  0  0  0  0  0  0
   -7.6630   -1.5326    0.0000 C   0  0  0  0  0  0  0  0  0  0  0  0
   -6.2011   -4.0065    0.0000 C   0  0  0  0  0  0  0  0  0  0  0  0
    6.8551    3.8023    0.0000 C   0  0  0  0  0  0  0  0  0  0  0  0
   -6.8134   -7.7796    0.0000 C   0  0  0  0  0  0  0  0  0  0  0  0
    3.2068    4.7311    0.0000 C   0  0  0  0  0  0  0  0  0  0  0  0
   -5.5015   -3.5816    0.0000 C   0  0  0  0  0  0  0  0  0  0  0  0
    6.9301    2.9694    0.0000 C   0  0  0  0  0  0  0  0  0  0  0  0
    4.5429    3.3238    0.0000 H   0  0  0  0  0  0  0  0  0  0  0  0
   -4.7687   -5.8886    0.0000 H   0  0  0  0  0  0  0  0  0  0  0  0
    4.5410    5.9222    0.0000 H   0  0  0  0  0  0  0  0  0  0  0  0
   -7.0628   -7.0853    0.0000 H   0  0  0  0  0  0  0  0  0  0  0  0
   -7.5353   -7.6109    0.0000 H   0  0  0  0  0  0  0  0  0  0  0  0
    6.1395    3.9274    0.0000 H   0  0  0  0  0  0  0  0  0  0  0  0
   -6.0712   -4.7463    0.0000 H   0  0  0  0  0  0  0  0  0  0  0  0
    4.2959    6.5758    0.0000 H   0  0  0  0  0  0  0  0  0  0  0  0
   -2.4215   -4.5089    0.0000 H   0  0  0  0  0  0  0  0  0  0  0  0
    4.7486    0.6229    0.0000 H   0  0  0  0  0  0  0  0  0  0  0  0
   -5.4947   -3.7890    0.0000 H   0  0  0  0  0  0  0  0  0  0  0  0
    6.7488    3.0525    0.0000 H   0  0  0  0  0  0  0  0  0  0  0  0
   -1.9214   -5.0010    0.0000 H   0  0  0  0  0  0  0  0  0  0  0  0
    4.0879    0.3880    0.0000 H   0  0  0  0  0  0  0  0  0  0  0  0
   -4.9986   -4.1255    0.0000 H   0  0  0  0  0  0  0  0  0  0  0  0
   -5.0064   -3.0511    0.0000 H   0  0  0  0  0  0  0  0  0  0  0  0
    6.2381    2.7578    0.0000 H   0  0  0  0  0  0  0  0  0  0  0  0
    7.2002    2.2959    0.0000 H   0  0  0  0  0  0  0  0  0  0  0  0
   10.1002    1.4761    0.0000 H   0  0  0  0  0  0  0  0  0  0  0  0
   -5.5168   -0.0758    0.0000 H   0  0  0  0  0  0  0  0  0  0  0  0
    4.7455   -3.8796    0.0000 H   0  0  0  0  0  0  0  0  0  0  0  0
    1.6185   -2.5473    0.0000 H   0  0  0  0  0  0  0  0  0  0  0  0
   -7.1225   -5.3751    0.0000 H   0  0  0  0  0  0  0  0  0  0  0  0
   -7.1303   -4.3006    0.0000 H   0  0  0  0  0  0  0  0  0  0  0  0
    6.0289    5.2102    0.0000 H   0  0  0  0  0  0  0  0  0  0  0  0
    6.9950    4.7570    0.0000 H   0  0  0  0  0  0  0  0  0  0  0  0
    5.4315   -2.6366    0.0000 H   0  0  0  0  0  0  0  0  0  0  0  0
    5.3533   -1.5679    0.0000 H   0  0  0  0  0  0  0  0  0  0  0  0
    0.1971   -2.4743    0.0000 H   0  0  0  0  0  0  0  0  0  0  0  0
    1.1267   -2.9954    0.0000 H   0  0  0  0  0  0  0  0  0  0  0  0
   -3.1502   -2.2226    0.0000 H   0  0  0  0  0  0  0  0  0  0  0  0
   -3.1507   -3.2923    0.0000 H   0  0  0  0  0  0  0  0  0  0  0  0
    7.1347    0.2739    0.0000 H   0  0  0  0  0  0  0  0  0  0  0  0
    6.1726    0.7358    0.0000 H   0  0  0  0  0  0  0  0  0  0  0  0
   -3.9117   -0.9979    0.0000 H   0  0  0  0  0  0  0  0  0  0  0  0
    8.5758    0.4123    0.0000 H   0  0  0  0  0  0  0  0  0  0  0  0
    6.3429    1.4365    0.0000 H   0  0  0  0  0  0  0  0  0  0  0  0
    7.2226    2.0452    0.0000 H   0  0  0  0  0  0  0  0  0  0  0  0
   -3.8518   -3.4561    0.0000 H   0  0  0  0  0  0  0  0  0  0  0  0
   -4.7818   -2.9240    0.0000 H   0  0  0  0  0  0  0  0  0  0  0  0
   -5.1736   -7.8171    0.0000 H   0  0  0  0  0  0  0  0  0  0  0  0
   -6.0692   -8.3983    0.0000 H   0  0  0  0  0  0  0  0  0  0  0  0
    3.7868    6.2675    0.0000 H   0  0  0  0  0  0  0  0  0  0  0  0
    2.9118    5.6541    0.0000 H   0  0  0  0  0  0  0  0  0  0  0  0
    7.2917    0.6408    0.0000 H   0  0  0  0  0  0  0  0  0  0  0  0
   -3.5560   -2.2452    0.0000 H   0  0  0  0  0  0  0  0  0  0  0  0
   -1.9678   -1.2878    0.0000 H   0  0  0  0  0  0  0  0  0  0  0  0
    7.4384   -1.2111    0.0000 H   0  0  0  0  0  0  0  0  0  0  0  0
    2.0984   -4.9696    0.0000 H   0  0  0  0  0  0  0  0  0  0  0  0
    3.0224   -4.7695    0.0000 H   0  0  0  0  0  0  0  0  0  0  0  0
    3.4893   -4.9399    0.0000 H   0  0  0  0  0  0  0  0  0  0  0  0
    4.1789   -4.2732    0.0000 H   0  0  0  0  0  0  0  0  0  0  0  0
   -0.3403   -2.2066    0.0000 H   0  0  0  0  0  0  0  0  0  0  0  0
    5.9145   -2.2738    0.0000 H   0  0  0  0  0  0  0  0  0  0  0  0
    8.1419    8.1714    0.0000 H   0  0  0  0  0  0  0  0  0  0  0  0
    6.2962    8.0038    0.0000 H   0  0  0  0  0  0  0  0  0  0  0  0
    7.1706    8.6204    0.0000 H   0  0  0  0  0  0  0  0  0  0  0  0
  -10.7428   -4.9540    0.0000 H   0  0  0  0  0  0  0  0  0  0  0  0
   -9.7391   -6.5120    0.0000 H   0  0  0  0  0  0  0  0  0  0  0  0
  -10.6907   -6.0228    0.0000 H   0  0  0  0  0  0  0  0  0  0  0  0
   -9.8425   -8.0699    0.0000 H   0  0  0  0  0  0  0  0  0  0  0  0
   -7.9926   -7.9577    0.0000 H   0  0  0  0  0  0  0  0  0  0  0  0
   -8.8851   -8.5478    0.0000 H   0  0  0  0  0  0  0  0  0  0  0  0
   -8.4945   -2.6630    0.0000 H   0  0  0  0  0  0  0  0  0  0  0  0
   -9.3346   -4.3150    0.0000 H   0  0  0  0  0  0  0  0  0  0  0  0
   -9.3915   -3.2465    0.0000 H   0  0  0  0  0  0  0  0  0  0  0  0
    5.0003    8.8455    0.0000 H   0  0  0  0  0  0  0  0  0  0  0  0
    4.2168    7.1660    0.0000 H   0  0  0  0  0  0  0  0  0  0  0  0
    4.1237    8.2320    0.0000 H   0  0  0  0  0  0  0  0  0  0  0  0
    9.1234    5.0975    0.0000 H   0  0  0  0  0  0  0  0  0  0  0  0
    8.0632    6.6176    0.0000 H   0  0  0  0  0  0  0  0  0  0  0  0
    9.0321    6.1636    0.0000 H   0  0  0  0  0  0  0  0  0  0  0  0
    7.4348    5.3084    0.0000 H   0  0  0  0  0  0  0  0  0  0  0  0
    6.6741    3.6184    0.0000 H   0  0  0  0  0  0  0  0  0  0  0  0
    6.5666    4.6830    0.0000 H   0  0  0  0  0  0  0  0  0  0  0  0
   -7.8318   -4.1556    0.0000 H   0  0  0  0  0  0  0  0  0  0  0  0
   -5.9788   -4.1275    0.0000 H   0  0  0  0  0  0  0  0  0  0  0  0
   -6.8972   -4.6765    0.0000 H   0  0  0  0  0  0  0  0  0  0  0  0
   10.5899    4.6243    0.0000 H   0  0  0  0  0  0  0  0  0  0  0  0
    8.7444    4.4541    0.0000 H   0  0  0  0  0  0  0  0  0  0  0  0
    9.6180    5.0720    0.0000 H   0  0  0  0  0  0  0  0  0  0  0  0
   -8.5904   -0.9988    0.0000 H   0  0  0  0  0  0  0  0  0  0  0  0
   -7.6616   -2.6026    0.0000 H   0  0  0  0  0  0  0  0  0  0  0  0
   -8.5889   -2.0688    0.0000 H   0  0  0  0  0  0  0  0  0  0  0  0
   -7.1336   -3.4818    0.0000 H   0  0  0  0  0  0  0  0  0  0  0  0
   -7.1248   -4.5466    0.0000 H   0  0  0  0  0  0  0  0  0  0  0  0
    7.7301    4.4182    0.0000 H   0  0  0  0  0  0  0  0  0  0  0  0
    7.8260    3.3525    0.0000 H   0  0  0  0  0  0  0  0  0  0  0  0
   -7.7685   -7.2973    0.0000 H   0  0  0  0  0  0  0  0  0  0  0  0
   -6.7536   -8.8479    0.0000 H   0  0  0  0  0  0  0  0  0  0  0  0
   -7.7087   -8.3656    0.0000 H   0  0  0  0  0  0  0  0  0  0  0  0
    2.2378    5.1850    0.0000 H   0  0  0  0  0  0  0  0  0  0  0  0
    3.2982    3.6650    0.0000 H   0  0  0  0  0  0  0  0  0  0  0  0
    2.3292    4.1189    0.0000 H   0  0  0  0  0  0  0  0  0  0  0  0
   -5.5167   -2.5117    0.0000 H   0  0  0  0  0  0  0  0  0  0  0  0
   -4.5804   -3.0371    0.0000 H   0  0  0  0  0  0  0  0  0  0  0  0
    7.8991    2.5156    0.0000 H   0  0  0  0  0  0  0  0  0  0  0  0
    7.0193    1.9031    0.0000 H   0  0  0  0  0  0  0  0  0  0  0  0
  2 10  1  0  0  0  0
  3  1  1  0  0  0  0
  4  2  1  0  0  0  0
  6 19  1  0  0  0  0
  7 14  1  0  0  0  0
  8 13  1  0  0  0  0
  9  5  1  0  0  0  0
  9  1  1  0  0  0  0
  9103  1  6  0  0  0
 10  6  1  0  0  0  0
 10104  1  6  0  0  0
 11 16  2  0  0  0  0
 11 15  1  0  0  0  0
 12 17  1  0  0  0  0
 12 18  2  0  0  0  0
 13  3  1  0  0  0  0
 13 78  1  0  0  0  0
 13105  1  6  0  0  0
 14  4  1  0  0  0  0
 14 77  1  0  0  0  0
 14106  1  6  0  0  0
 15 21  2  0  0  0  0
 16 23  1  0  0  0  0
 17 24  2  0  0  0  0
 18 22  1  0  0  0  0
 20  5  1  0  0  0  0
 21  7  1  0  0  0  0
 21107  1  0  0  0  0
 22  8  2  0  0  0  0
 22108  1  0  0  0  0
 23  7  2  0  0  0  0
 23109  1  0  0  0  0
 24  8  1  0  0  0  0
 24110  1  0  0  0  0
 25 19  1  0  0  0  0
 25 30  1  0  0  0  0
 25111  1  1  0  0  0
 26 20  1  0  0  0  0
 26112  1  1  0  0  0
 27 39  2  0  0  0  0
 28 40  2  0  0  0  0
 29 26  1  0  0  0  0
 30 41  2  0  0  0  0
 30 80  1  0  0  0  0
 31  3  2  0  0  0  0
 32  4  2  0  0  0  0
 33 57  1  0  0  0  0
 34 50  1  0  0  0  0
 35  5  2  0  0  0  0
 36  6  2  0  0  0  0
 37 47  2  0  0  0  0
 37 28  1  0  0  0  0
 38 48  2  0  0  0  0
 38 27  1  0  0  0  0
 39 56  1  0  0  0  0
 39113  1  0  0  0  0
 40 55  1  0  0  0  0
 40114  1  0  0  0  0
 41 60  1  0  0  0  0
 41115  1  0  0  0  0
 42 29  2  0  0  0  0
 42116  1  0  0  0  0
 43 33  2  0  0  0  0
 44 34  2  0  0  0  0
 45 25  1  0  0  0  0
 45117  1  0  0  0  0
 45118  1  0  0  0  0
 46 26  1  0  0  0  0
 46119  1  0  0  0  0
 46120  1  0  0  0  0
 47 70  1  0  0  0  0
 47121  1  0  0  0  0
 48 69  1  0  0  0  0
 48122  1  0  0  0  0
 49 33  1  0  0  0  0
 49123  1  0  0  0  0
 50 83  1  0  0  0  0
 50124  1  0  0  0  0
 51 59  1  0  0  0  0
 52 58  1  0  0  0  0
 53  2  1  0  0  0  0
 53 97  1  0  0  0  0
 53125  1  0  0  0  0
 53126  1  0  0  0  0
 54  1  1  0  0  0  0
 54127  1  0  0  0  0
 54128  1  0  0  0  0
 55 68  1  0  0  0  0
 56 67  1  0  0  0  0
 57 51  1  0  0  0  0
 57129  1  0  0  0  0
 57130  1  0  0  0  0
 58 34  1  0  0  0  0
 58131  1  0  0  0  0
 58132  1  0  0  0  0
 59 42  1  0  0  0  0
 60 52  1  0  0  0  0
 61 11  1  0  0  0  0
 62 12  1  0  0  0  0
 63 15  1  0  0  0  0
 64 17  1  0  0  0  0
 65 16  1  0  0  0  0
 66 18  1  0  0  0  0
 67 45  1  0  0  0  0
 67133  1  0  0  0  0
 67134  1  0  0  0  0
 68 46  1  0  0  0  0
 68135  1  0  0  0  0
 68136  1  0  0  0  0
 69 56  2  0  0  0  0
 69137  1  0  0  0  0
 70 55  2  0  0  0  0
 70138  1  0  0  0  0
 71 27  1  0  0  0  0
 72 28  1  0  0  0  0
 73 37  1  0  0  0  0
 74 38  1  0  0  0  0
 75  9  1  0  0  0  0
 75139  1  0  0  0  0
 75140  1  0  0  0  0
 76 10  1  0  0  0  0
 76141  1  0  0  0  0
 76142  1  0  0  0  0
 77143  1  0  0  0  0
 77144  1  0  0  0  0
 78145  1  0  0  0  0
 78146  1  0  0  0  0
 79 29  1  0  0  0  0
 79147  1  0  0  0  0
 80 81  2  0  0  0  0
 80148  1  0  0  0  0
 81 85  1  0  0  0  0
 81149  1  0  0  0  0
 82 79  2  0  0  0  0
 82150  1  0  0  0  0
 83 84  1  0  0  0  0
 83151  1  0  0  0  0
 83152  1  0  0  0  0
 84 49  1  0  0  0  0
 84153  1  0  0  0  0
 84154  1  0  0  0  0
 85 60  2  0  0  0  0
 85155  1  0  0  0  0
 86 82  1  0  0  0  0
 86 59  2  0  0  0  0
 86156  1  0  0  0  0
 87 62  1  0  0  0  0
 87157  1  0  0  0  0
 87158  1  0  0  0  0
 87159  1  0  0  0  0
 88 61  1  0  0  0  0
 88160  1  0  0  0  0
 88161  1  0  0  0  0
 88162  1  0  0  0  0
 89 63  1  0  0  0  0
 89163  1  0  0  0  0
 89164  1  0  0  0  0
 89165  1  0  0  0  0
 90 65  1  0  0  0  0
 90166  1  0  0  0  0
 90167  1  0  0  0  0
 90168  1  0  0  0  0
 91 64  1  0  0  0  0
 91169  1  0  0  0  0
 91170  1  0  0  0  0
 91171  1  0  0  0  0
 92 66  1  0  0  0  0
 92172  1  0  0  0  0
 92173  1  0  0  0  0
 92174  1  0  0  0  0
 93 72  1  0  0  0  0
 93175  1  0  0  0  0
 93176  1  0  0  0  0
 93177  1  0  0  0  0
 94 71  1  0  0  0  0
 94178  1  0  0  0  0
 94179  1  0  0  0  0
 94180  1  0  0  0  0
 95 73  1  0  0  0  0
 95181  1  0  0  0  0
 95182  1  0  0  0  0
 95183  1  0  0  0  0
 96 74  1  0  0  0  0
 96184  1  0  0  0  0
 96185  1  0  0  0  0
 96186  1  0  0  0  0
 97101  1  0  0  0  0
 97187  1  0  0  0  0
 97188  1  0  0  0  0
 98 54  1  0  0  0  0
 98189  1  0  0  0  0
 98190  1  0  0  0  0
 99 77  1  0  0  0  0
 99191  1  0  0  0  0
 99192  1  0  0  0  0
 99193  1  0  0  0  0
100 78  1  0  0  0  0
100194  1  0  0  0  0
100195  1  0  0  0  0
100196  1  0  0  0  0
101 76  1  0  0  0  0
101197  1  0  0  0  0
101198  1  0  0  0  0
102 98  1  0  0  0  0
102 75  1  0  0  0  0
102199  1  0  0  0  0
102200  1  0  0  0  0
M  END
>  <DRUGBANK_ID>
DB04974

>  <COMMON_NAME>
Rimiducid

>  <CAS_NUMBER>
195514-63-7

>  <UNII>
H564L1W5J2

>  <SYNONYMS>
Rimiducid

$$$$
