
 OpenBabel10282417072D

 18 18  0  0  0  0  0  0  0  0999 V2000
   21.7327  -15.9637    0.0000 O   0  0  0  0  0  0  0  0  0  0  0  0
   23.1615  -15.9637    0.0000 N   0  0  0  0  0  0  0  0  0  0  0  0
   21.7327  -18.4386    0.0000 N   0  0  0  0  0  0  0  0  0  0  0  0
   23.1615  -15.1388    0.0000 C   0  0  0  0  0  0  0  0  0  0  0  0
   22.4470  -16.3762    0.0000 C   0  0  0  0  0  0  0  0  0  0  0  0
   22.4470  -17.2012    0.0000 C   0  0  0  0  0  0  0  0  0  0  0  0
   21.7327  -17.6136    0.0000 C   0  0  0  0  0  0  0  0  0  0  0  0
   22.4470  -18.8510    0.0000 C   0  0  0  0  0  0  0  0  0  0  0  0
   23.1615  -17.6136    0.0000 C   0  0  0  0  0  0  0  0  0  0  0  0
   23.1615  -18.4386    0.0000 C   0  0  0  0  0  0  0  0  0  0  0  0
   24.0141  -16.4560    0.0000 H   0  0  0  0  0  0  0  0  0  0  0  0
   24.0881  -14.6038    0.0000 H   0  0  0  0  0  0  0  0  0  0  0  0
   22.2349  -14.6038    0.0000 H   0  0  0  0  0  0  0  0  0  0  0  0
   23.1615  -14.0688    0.0000 H   0  0  0  0  0  0  0  0  0  0  0  0
   20.8390  -17.0976    0.0000 H   0  0  0  0  0  0  0  0  0  0  0  0
   22.4469  -19.8830    0.0000 H   0  0  0  0  0  0  0  0  0  0  0  0
   24.0552  -17.0975    0.0000 H   0  0  0  0  0  0  0  0  0  0  0  0
   24.0552  -18.9547    0.0000 H   0  0  0  0  0  0  0  0  0  0  0  0
  1  5  2  0  0  0  0
  2  4  1  0  0  0  0
  2  5  1  0  0  0  0
  2 11  1  0  0  0  0
  3  7  1  0  0  0  0
  3  8  2  0  0  0  0
  4 12  1  0  0  0  0
  4 13  1  0  0  0  0
  4 14  1  0  0  0  0
  5  6  1  0  0  0  0
  6  7  2  0  0  0  0
  6  9  1  0  0  0  0
  7 15  1  0  0  0  0
  8 10  1  0  0  0  0
  8 16  1  0  0  0  0
  9 10  2  0  0  0  0
  9 17  1  0  0  0  0
 10 18  1  0  0  0  0
M  END
>  <DRUGBANK_ID>
DB08840

>  <COMMON_NAME>
N-methylnicotinamide

>  <CAS_NUMBER>
114-33-0

>  <UNII>
X3I82S5L8I

>  <SYNONYMS>
3-(Methylcarbamoyl)pyridine; 3-(N-Methylcarbamoyl)pyridine; N-Methyl nicotineamide; N-Methyl-3-pyridinecarboxamide; N-methylpyridine-3-carboxamide; Nicotinic acid methylamide; Nicotinyl methylamide

$$$$
