879
 OpenBabel10282417072D

 13 13  0  0  1  0  0  0  0  0999 V2000
    4.5080    2.2494    0.0000 F   0  0  0  0  0  0  0  0  0  0  0  0
    1.6500    0.5993    0.0000 O   0  0  0  0  0  0  0  0  0  0  0  0
    3.0791    0.5993    0.0000 N   0  0  0  0  0  0  0  0  0  0  0  0
    2.3645    1.8369    0.0000 N   0  0  0  0  0  0  0  0  0  0  0  0
    3.0791    3.0743    0.0000 N   0  0  0  0  0  0  0  0  0  0  0  0
    3.7935    1.0119    0.0000 C   0  0  0  0  0  0  0  0  0  0  0  0
    2.3645    1.0119    0.0000 C   0  0  0  0  0  0  0  0  0  0  0  0
    3.7935    1.8369    0.0000 C   0  0  0  0  0  0  0  0  0  0  0  0
    3.0791    2.2494    0.0000 C   0  0  0  0  0  0  0  0  0  0  0  0
    3.0792   -0.3852    0.0000 H   0  0  0  0  0  0  0  0  0  0  0  0
    3.9317    3.5666    0.0000 H   0  0  0  0  0  0  0  0  0  0  0  0
    2.2265    3.5665    0.0000 H   0  0  0  0  0  0  0  0  0  0  0  0
    4.6873    0.4960    0.0000 H   0  0  0  0  0  0  0  0  0  0  0  0
  1  8  1  0  0  0  0
  2  7  2  0  0  0  0
  3  6  1  0  0  0  0
  3  7  1  0  0  0  0
  3 10  1  0  0  0  0
  4  7  1  0  0  0  0
  4  9  2  0  0  0  0
  5  9  1  0  0  0  0
  5 11  1  0  0  0  0
  5 12  1  0  0  0  0
  6  8  2  0  0  0  0
  6 13  1  0  0  0  0
  8  9  1  0  0  0  0
M  END
>  <DRUGBANK_ID>
DB01099

>  <SECONDARY_ACCESSION_NUMBERS>
APRD00299

>  <COMMON_NAME>
Flucytosine

>  <CAS_NUMBER>
2022-85-7

>  <UNII>
D83282DT06

>  <SYNONYMS>
5-FC; 5-Fluorocystosine; 5-Fluorocytosine; flucytosina; Flucytosine; Flucytosinum

$$$$
