
 OpenBabel10282417072D

 43 47  0  0  1  0  0  0  0  0999 V2000
    0.4525   -2.9454    0.0000 C   0  0  0  0  0  0  0  0  0  0  0  0
   -0.3545   -2.7739    0.0000 C   0  0  0  0  0  0  0  0  0  0  0  0
   -0.9676   -3.3259    0.0000 N   0  0  0  0  0  0  0  0  0  0  0  0
   -1.6820   -2.9134    0.0000 N   0  0  0  0  0  0  0  0  0  0  0  0
   -1.5105   -2.1064    0.0000 C   0  0  0  0  0  0  0  0  0  0  0  0
   -0.6900   -2.0202    0.0000 C   0  0  0  0  0  0  0  0  0  0  0  0
   -0.2775   -1.3057    0.0000 C   0  0  0  0  0  0  0  0  0  0  0  0
    0.5429   -1.2195    0.0000 C   0  0  0  0  0  0  0  0  0  0  0  0
    0.7145   -0.4125    0.0000 C   0  0  0  0  0  0  0  0  0  0  0  0
    0.0000    0.0000    0.0000 C   0  0  0  0  0  0  0  0  0  0  0  0
   -0.6131   -0.5520    0.0000 S   0  0  0  0  0  0  0  0  0  0  0  0
   -0.0000    0.8250    0.0000 C   0  0  0  0  0  0  0  0  0  0  0  0
   -0.7145    1.2375    0.0000 O   0  0  0  0  0  0  0  0  0  0  0  0
    0.7145    1.2375    0.0000 N   0  0  0  0  0  0  0  0  0  0  0  0
    1.4289    0.8250    0.0000 C   0  0  0  0  0  0  0  0  0  0  0  0
    1.4289    0.0000    0.0000 N   0  0  0  0  0  0  0  0  0  0  0  0
    2.1434    1.2375    0.0000 C   0  0  2  0  0  0  0  0  0  0  0  0
    2.1434    2.0625    0.0000 C   0  0  0  0  0  0  0  0  0  0  0  0
    2.8579    2.4750    0.0000 C   0  0  3  0  0  0  0  0  0  0  0  0
    3.5724    2.0625    0.0000 C   0  0  0  0  0  0  0  0  0  0  0  0
    3.5724    1.2375    0.0000 C   0  0  0  0  0  0  0  0  0  0  0  0
    2.8579    0.8250    0.0000 N   0  0  3  0  0  0  0  0  0  0  0  0
    2.9954    1.3750    0.0000 C   0  0  0  0  0  0  0  0  0  0  0  0
    2.9954    1.9250    0.0000 C   0  0  0  0  0  0  0  0  0  0  0  0
    0.7832   -3.9630    0.0000 H   0  0  0  0  0  0  0  0  0  0  0  0
    1.1684   -2.1502    0.0000 H   0  0  0  0  0  0  0  0  0  0  0  0
    1.4991   -3.1678    0.0000 H   0  0  0  0  0  0  0  0  0  0  0  0
   -2.5814   -3.3138    0.0000 H   0  0  0  0  0  0  0  0  0  0  0  0
   -2.2010   -1.3395    0.0000 H   0  0  0  0  0  0  0  0  0  0  0  0
    1.2334   -1.9865    0.0000 H   0  0  0  0  0  0  0  0  0  0  0  0
    0.7145    2.2220    0.0000 H   0  0  0  0  0  0  0  0  0  0  0  0
    1.2168    1.7725    0.0000 H   0  0  0  0  0  0  0  0  0  0  0  0
    1.2168    2.5975    0.0000 H   0  0  0  0  0  0  0  0  0  0  0  0
    2.1434    3.1325    0.0000 H   0  0  0  0  0  0  0  0  0  0  0  0
    2.8579    1.4050    0.0000 H   0  0  0  0  0  0  0  0  0  0  0  0
    4.4990    2.5975    0.0000 H   0  0  0  0  0  0  0  0  0  0  0  0
    4.4990    1.5275    0.0000 H   0  0  0  0  0  0  0  0  0  0  0  0
    4.4990    0.7025    0.0000 H   0  0  0  0  0  0  0  0  0  0  0  0
    3.5724    0.1675    0.0000 H   0  0  0  0  0  0  0  0  0  0  0  0
    4.0574    1.2443    0.0000 H   0  0  0  0  0  0  0  0  0  0  0  0
    3.7969    2.0839    0.0000 H   0  0  0  0  0  0  0  0  0  0  0  0
    4.0574    2.0557    0.0000 H   0  0  0  0  0  0  0  0  0  0  0  0
    3.6010    2.8071    0.0000 H   0  0  0  0  0  0  0  0  0  0  0  0
  1  2  1  0  0  0  0
  1 25  1  0  0  0  0
  1 26  1  0  0  0  0
  1 27  1  0  0  0  0
  2  3  2  0  0  0  0
  2  6  1  0  0  0  0
  3  4  1  0  0  0  0
  4  5  1  0  0  0  0
  4 28  1  0  0  0  0
  5  6  2  0  0  0  0
  5 29  1  0  0  0  0
  6  7  1  0  0  0  0
  7  8  2  0  0  0  0
  7 11  1  0  0  0  0
  8  9  1  0  0  0  0
  8 30  1  0  0  0  0
  9 10  2  0  0  0  0
  9 16  1  0  0  0  0
 10 11  1  0  0  0  0
 10 12  1  0  0  0  0
 12 13  2  0  0  0  0
 12 14  1  0  0  0  0
 14 15  1  0  0  0  0
 14 31  1  0  0  0  0
 15 16  2  0  0  0  0
 17 15  1  0  0  0  0
 17 18  1  0  0  0  0
 17 22  1  0  0  0  0
 17 32  1  1  0  0  0
 18 19  1  0  0  0  0
 18 33  1  0  0  0  0
 18 34  1  0  0  0  0
 19 20  1  0  0  0  0
 19 24  1  0  0  0  0
 19 35  1  0  0  0  0
 20 21  1  0  0  0  0
 20 36  1  0  0  0  0
 20 37  1  0  0  0  0
 21 22  1  0  0  0  0
 21 38  1  0  0  0  0
 21 39  1  0  0  0  0
 22 23  1  0  0  0  0
 23 24  1  0  0  0  0
 23 40  1  0  0  0  0
 23 41  1  0  0  0  0
 24 42  1  0  0  0  0
 24 43  1  0  0  0  0
M  END
>  <DRUGBANK_ID>
DB16330

>  <COMMON_NAME>
Simurosertib

>  <CAS_NUMBER>
1330782-76-7

>  <UNII>
LST350G3XU

>  <SYNONYMS>
2-[(2S)-1-azabicyclo[2.2.2]oct-2-yl]-6-(3-methyl-1H-pyrazol-4-yl)thieno[3,2-d]pyrimidin-4(3H)-one; Simurosertib

$$$$
