830
 OpenBabel10282417072D

 28 29  0  0  1  0  0  0  0  0999 V2000
    4.5080    0.4620    0.0000 O   0  0  0  0  0  0  0  0  0  0  0  0
    4.5080   -1.1880    0.0000 N   0  0  0  0  0  0  0  0  0  0  0  0
    3.7935   -0.7755    0.0000 C   0  0  3  0  0  0  0  0  0  0  0  0
    3.7935    0.0495    0.0000 C   0  0  3  0  0  0  0  0  0  0  0  0
    5.2224   -0.7755    0.0000 C   0  0  0  0  0  0  0  0  0  0  0  0
    5.2224    0.0495    0.0000 C   0  0  0  0  0  0  0  0  0  0  0  0
    3.0791    0.4620    0.0000 C   0  0  0  0  0  0  0  0  0  0  0  0
    3.0791   -1.1880    0.0000 C   0  0  0  0  0  0  0  0  0  0  0  0
    2.3645    0.0495    0.0000 C   0  0  0  0  0  0  0  0  0  0  0  0
    3.0791    1.2870    0.0000 C   0  0  0  0  0  0  0  0  0  0  0  0
    1.6500    0.4620    0.0000 C   0  0  0  0  0  0  0  0  0  0  0  0
    2.3645    1.6995    0.0000 C   0  0  0  0  0  0  0  0  0  0  0  0
    1.6500    1.2870    0.0000 C   0  0  0  0  0  0  0  0  0  0  0  0
    4.5080   -2.2080    0.0000 H   0  0  0  0  0  0  0  0  0  0  0  0
    4.7201   -0.2405    0.0000 H   0  0  0  0  0  0  0  0  0  0  0  0
    4.7201   -0.4855    0.0000 H   0  0  0  0  0  0  0  0  0  0  0  0
    6.1491   -1.3105    0.0000 H   0  0  0  0  0  0  0  0  0  0  0  0
    6.1490   -0.2405    0.0000 H   0  0  0  0  0  0  0  0  0  0  0  0
    6.1491    0.5845    0.0000 H   0  0  0  0  0  0  0  0  0  0  0  0
    6.1490   -0.4855    0.0000 H   0  0  0  0  0  0  0  0  0  0  0  0
    2.1524   -0.6530    0.0000 H   0  0  0  0  0  0  0  0  0  0  0  0
    3.0791   -2.2580    0.0000 H   0  0  0  0  0  0  0  0  0  0  0  0
    2.1525   -1.7230    0.0000 H   0  0  0  0  0  0  0  0  0  0  0  0
    2.3645   -0.9825    0.0000 H   0  0  0  0  0  0  0  0  0  0  0  0
    3.9728    1.8030    0.0000 H   0  0  0  0  0  0  0  0  0  0  0  0
    0.7563   -0.0540    0.0000 H   0  0  0  0  0  0  0  0  0  0  0  0
    2.3645    2.7315    0.0000 H   0  0  0  0  0  0  0  0  0  0  0  0
    0.7563    1.8030    0.0000 H   0  0  0  0  0  0  0  0  0  0  0  0
  1  4  1  0  0  0  0
  1  6  1  0  0  0  0
  2  3  1  0  0  0  0
  2  5  1  0  0  0  0
  2 14  1  0  0  0  0
  3  4  1  0  0  0  0
  3  8  1  0  0  0  0
  3 15  1  0  0  0  0
  4  7  1  0  0  0  0
  4 16  1  0  0  0  0
  5  6  1  0  0  0  0
  5 17  1  0  0  0  0
  5 18  1  0  0  0  0
  6 19  1  0  0  0  0
  6 20  1  0  0  0  0
  7  9  2  0  0  0  0
  7 10  1  0  0  0  0
  8 21  1  0  0  0  0
  8 22  1  0  0  0  0
  8 23  1  0  0  0  0
  9 11  1  0  0  0  0
  9 24  1  0  0  0  0
 10 12  2  0  0  0  0
 10 25  1  0  0  0  0
 11 13  2  0  0  0  0
 11 26  1  0  0  0  0
 12 13  1  0  0  0  0
 12 27  1  0  0  0  0
 13 28  1  0  0  0  0
M  END
>  <DRUGBANK_ID>
DB00830

>  <SECONDARY_ACCESSION_NUMBERS>
APRD00262

>  <COMMON_NAME>
Phenmetrazine

>  <CAS_NUMBER>
134-49-6

>  <UNII>
XA501VL3VR

>  <SYNONYMS>
2-phenyl-3-methylmorpholine; Fenmetrazin; Fenmetrazina; Phenmetrazin; Phenmetrazine; Phenmetrazinum

$$$$
