
 OpenBabel10282417072D

 72 76  0  0  1  0  0  0  0  0999 V2000
    1.4289    4.1250    0.0000 C   0  0  0  0  0  0  0  0  0  0  0  0
    3.0493   10.1724    0.0000 C   0  0  0  0  0  0  0  0  0  0  0  0
   -0.7145    1.2375    0.0000 C   0  0  0  0  0  0  0  0  0  0  0  0
    3.8743   10.1724    0.0000 C   0  0  0  0  0  0  0  0  0  0  0  0
   -0.7145    2.0625    0.0000 C   0  0  0  0  0  0  0  0  0  0  0  0
    2.6368    9.4579    0.0000 C   0  0  0  0  0  0  0  0  0  0  0  0
   -0.0000    0.8250    0.0000 C   0  0  0  0  0  0  0  0  0  0  0  0
    4.2868    9.4579    0.0000 C   0  0  0  0  0  0  0  0  0  0  0  0
    0.0000    2.4750    0.0000 C   0  0  0  0  0  0  0  0  0  0  0  0
    2.6368    8.0289    0.0000 C   0  0  0  0  0  0  0  0  0  0  0  0
    1.4289    0.8250    0.0000 C   0  0  0  0  0  0  0  0  0  0  0  0
    4.2868    4.1250    0.0000 C   0  0  0  0  0  0  0  0  0  0  0  0
    3.0493    7.3145    0.0000 C   0  0  0  0  0  0  0  0  0  0  0  0
    2.1434    1.2375    0.0000 C   0  0  0  0  0  0  0  0  0  0  0  0
    4.2868    4.9500    0.0000 C   0  0  0  0  0  0  0  0  0  0  0  0
    4.2868    8.0289    0.0000 C   0  0  0  0  0  0  0  0  0  0  0  0
    1.4289    2.4750    0.0000 C   0  0  0  0  0  0  0  0  0  0  0  0
    2.8579    4.1250    0.0000 C   0  0  0  0  0  0  0  0  0  0  0  0
   -0.0000    4.9500    0.0000 C   0  0  0  0  0  0  0  0  0  0  0  0
    3.0493    8.7434    0.0000 C   0  0  0  0  0  0  0  0  0  0  0  0
    0.7145    1.2375    0.0000 C   0  0  0  0  0  0  0  0  0  0  0  0
    3.8743    8.7434    0.0000 C   0  0  0  0  0  0  0  0  0  0  0  0
    0.7145    2.0625    0.0000 C   0  0  0  0  0  0  0  0  0  0  0  0
    3.5724    3.7125    0.0000 C   0  0  0  0  0  0  0  0  0  0  0  0
    3.8743    7.3145    0.0000 C   0  0  0  0  0  0  0  0  0  0  0  0
    2.1434    2.0625    0.0000 C   0  0  0  0  0  0  0  0  0  0  0  0
    2.8579    4.9500    0.0000 C   0  0  0  0  0  0  0  0  0  0  0  0
    3.5724    5.3625    0.0000 C   0  0  0  0  0  0  0  0  0  0  0  0
    0.7145    5.3625    0.0000 C   0  0  1  0  0  0  0  0  0  0  0  0
   -0.7145    5.3625    0.0000 C   0  0  0  0  0  0  0  0  0  0  0  0
    2.1434    5.3625    0.0000 C   0  0  0  0  0  0  0  0  0  0  0  0
    0.7145    6.1875    0.0000 C   0  0  0  0  0  0  0  0  0  0  0  0
    3.5724    6.1875    0.0000 N   0  0  0  0  0  0  0  0  0  0  0  0
    1.4289    4.9500    0.0000 N   0  0  0  0  0  0  0  0  0  0  0  0
   -1.4289    4.9500    0.0000 O   0  0  0  0  0  0  0  0  0  0  0  0
   -0.7145    6.1875    0.0000 O   0  0  0  0  0  0  0  0  0  0  0  0
    2.1434    6.1875    0.0000 O   0  0  0  0  0  0  0  0  0  0  0  0
    1.4289    6.6000    0.0000 O   0  0  0  0  0  0  0  0  0  0  0  0
   -0.0000    6.6000    0.0000 O   0  0  0  0  0  0  0  0  0  0  0  0
    4.6993    5.8855    0.0000 O   0  0  0  0  0  0  0  0  0  0  0  0
    5.0013    7.0125    0.0000 O   0  0  0  0  0  0  0  0  0  0  0  0
    2.4454    3.1895    0.0000 O   0  0  0  0  0  0  0  0  0  0  0  0
    3.2704    1.7605    0.0000 O   0  0  0  0  0  0  0  0  0  0  0  0
    3.5724    2.8875    0.0000 O   0  0  0  0  0  0  0  0  0  0  0  0
    4.2868    6.6000    0.0000 S   0  0  0  0  0  0  0  0  0  0  0  0
    2.8579    2.4750    0.0000 S   0  0  0  0  0  0  0  0  0  0  0  0
   -0.0000    5.7750    0.0000 H   0  0  0  0  0  0  0  0  0  0  0  0
    0.5023    3.5900    0.0000 H   0  0  0  0  0  0  0  0  0  0  0  0
    2.3555    3.5900    0.0000 H   0  0  0  0  0  0  0  0  0  0  0  0
    1.4289    3.0550    0.0000 H   0  0  0  0  0  0  0  0  0  0  0  0
    2.5333   11.0661    0.0000 H   0  0  0  0  0  0  0  0  0  0  0  0
   -1.6082    0.7215    0.0000 H   0  0  0  0  0  0  0  0  0  0  0  0
    4.3903   11.0661    0.0000 H   0  0  0  0  0  0  0  0  0  0  0  0
   -1.6082    2.5785    0.0000 H   0  0  0  0  0  0  0  0  0  0  0  0
    1.6048    9.4579    0.0000 H   0  0  0  0  0  0  0  0  0  0  0  0
    0.0000   -0.2070    0.0000 H   0  0  0  0  0  0  0  0  0  0  0  0
    5.3188    9.4579    0.0000 H   0  0  0  0  0  0  0  0  0  0  0  0
    0.0000    3.5070    0.0000 H   0  0  0  0  0  0  0  0  0  0  0  0
    1.6048    8.0289    0.0000 H   0  0  0  0  0  0  0  0  0  0  0  0
    1.4289   -0.2070    0.0000 H   0  0  0  0  0  0  0  0  0  0  0  0
    5.1805    3.6090    0.0000 H   0  0  0  0  0  0  0  0  0  0  0  0
    2.5333    6.4208    0.0000 H   0  0  0  0  0  0  0  0  0  0  0  0
    3.0371    0.7215    0.0000 H   0  0  0  0  0  0  0  0  0  0  0  0
    5.1805    5.4660    0.0000 H   0  0  0  0  0  0  0  0  0  0  0  0
    5.3188    8.0289    0.0000 H   0  0  0  0  0  0  0  0  0  0  0  0
    1.4289    3.5070    0.0000 H   0  0  0  0  0  0  0  0  0  0  0  0
    1.9642    3.6090    0.0000 H   0  0  0  0  0  0  0  0  0  0  0  0
    0.0000    3.8800    0.0000 H   0  0  0  0  0  0  0  0  0  0  0  0
   -0.9266    4.4150    0.0000 H   0  0  0  0  0  0  0  0  0  0  0  0
    2.7198    6.6797    0.0000 H   0  0  0  0  0  0  0  0  0  0  0  0
    0.0970    6.6560    0.0000 H   0  0  0  0  0  0  0  0  0  0  0  0
   -0.0000    7.5370    0.0000 H   0  0  0  0  0  0  0  0  0  0  0  0
  1 48  1  0  0  0  0
  1 49  1  0  0  0  0
  1 50  1  0  0  0  0
  2 51  1  0  0  0  0
  3 52  1  0  0  0  0
  4  2  2  0  0  0  0
  4 53  1  0  0  0  0
  5  3  2  0  0  0  0
  5 54  1  0  0  0  0
  6  2  1  0  0  0  0
  6 55  1  0  0  0  0
  7  3  1  0  0  0  0
  7 56  1  0  0  0  0
  8  4  1  0  0  0  0
  8 57  1  0  0  0  0
  9  5  1  0  0  0  0
  9 58  1  0  0  0  0
 10 59  1  0  0  0  0
 11 60  1  0  0  0  0
 12 61  1  0  0  0  0
 13 10  2  0  0  0  0
 13 62  1  0  0  0  0
 14 11  2  0  0  0  0
 14 63  1  0  0  0  0
 15 12  2  0  0  0  0
 15 64  1  0  0  0  0
 16 65  1  0  0  0  0
 17 66  1  0  0  0  0
 18 67  1  0  0  0  0
 19 68  1  0  0  0  0
 19 69  1  0  0  0  0
 20  6  2  0  0  0  0
 20 10  1  0  0  0  0
 21  7  2  0  0  0  0
 21 11  1  0  0  0  0
 22  8  2  0  0  0  0
 22 16  1  0  0  0  0
 22 20  1  0  0  0  0
 23  9  2  0  0  0  0
 23 17  1  0  0  0  0
 23 21  1  0  0  0  0
 24 12  1  0  0  0  0
 24 18  2  0  0  0  0
 25 13  1  0  0  0  0
 25 16  2  0  0  0  0
 26 14  1  0  0  0  0
 26 17  2  0  0  0  0
 27 18  1  0  0  0  0
 28 15  1  0  0  0  0
 28 27  2  0  0  0  0
 29 19  1  0  0  0  0
 29 34  1  0  0  0  0
 29 47  1  6  0  0  0
 30 19  1  0  0  0  0
 31 27  1  0  0  0  0
 32 29  1  0  0  0  0
 33 28  1  0  0  0  0
 33 70  1  0  0  0  0
 34  1  1  0  0  0  0
 34 31  1  0  0  0  0
 35 30  2  0  0  0  0
 36 30  1  0  0  0  0
 36 71  1  0  0  0  0
 37 31  2  0  0  0  0
 38 32  2  0  0  0  0
 39 32  1  0  0  0  0
 39 72  1  0  0  0  0
 44 24  1  0  0  0  0
 45 25  1  0  0  0  0
 45 33  1  0  0  0  0
 45 40  2  0  0  0  0
 45 41  2  0  0  0  0
 46 26  1  0  0  0  0
 46 42  2  0  0  0  0
 46 43  2  0  0  0  0
 46 44  1  0  0  0  0
M  END
>  <DRUGBANK_ID>
DB01879

>  <SECONDARY_ACCESSION_NUMBERS>
EXPT03011

>  <COMMON_NAME>
(S)-2-{Methyl-[2-(Naphthalene-2-Sulfonylamino)-5-(Naphthalene-2-Sulfonyloxy)-Benzoyl]-Amino}-Succinicacid

$$$$
