
 OpenBabel10282417072D

132138  0  0  0  0  0  0  0  0999 V2000
   -3.5653   -0.6684    0.0000 O   0  0  0  0  0  0  0  0  0  0  0  0
    0.7313   -0.6799    0.0000 O   0  0  0  0  0  0  0  0  0  0  0  0
   -4.9708   -1.4912    0.0000 O   0  0  0  0  0  0  0  0  0  0  0  0
   -1.4398   -1.8912    0.0000 O   0  0  0  0  0  0  0  0  0  0  0  0
   -2.1255    1.8112    0.0000 O   0  0  0  0  0  0  0  0  0  0  0  0
   -0.7198    1.8112    0.0000 O   0  0  0  0  0  0  0  0  0  0  0  0
   -0.7198   -3.1596    0.0000 O   0  0  0  0  0  0  0  0  0  0  0  0
    0.0229    2.3940    0.0000 O   0  0  0  0  0  0  0  0  0  0  0  0
   -4.9708    0.9885    0.0000 O   0  0  0  0  0  0  0  0  0  0  0  0
   -4.2738    2.3940    0.0000 O   0  0  0  0  0  0  0  0  0  0  0  0
   -3.5653    3.6738    0.0000 O   0  0  0  0  0  0  0  0  0  0  0  0
   -1.4169    2.4282    0.0000 O   0  0  0  0  0  0  0  0  0  0  0  0
   -5.0166    3.6282    0.0000 O   0  0  0  0  0  0  0  0  0  0  0  0
   -0.7313   -1.4912    0.0000 N   0  0  0  0  0  0  0  0  0  0  0  0
    0.7313    0.9885    0.0000 N   0  0  0  0  0  0  0  0  0  0  0  0
    2.1369   -3.1825    0.0000 N   0  0  0  0  0  0  0  0  0  0  0  0
    3.5538   -4.0281    0.0000 N   0  0  0  0  0  0  0  0  0  0  0  0
   -1.4169   -0.2570    0.0000 C   0  0  0  0  0  0  0  0  0  0  0  0
   -2.1255   -0.6684    0.0000 C   0  0  0  0  0  0  0  0  0  0  0  0
   -1.4169    0.5770    0.0000 C   0  0  0  0  0  0  0  0  0  0  0  0
   -2.8682   -0.2570    0.0000 C   0  0  0  0  0  0  0  0  0  0  0  0
   -0.7198   -0.6684    0.0000 C   0  0  0  0  0  0  0  0  0  0  0  0
   -2.1255   -1.4912    0.0000 C   0  0  0  0  0  0  0  0  0  0  0  0
   -3.5653   -1.4912    0.0000 C   0  0  2  0  0  0  0  0  0  0  0  0
    0.0229   -0.2570    0.0000 C   0  0  0  0  0  0  0  0  0  0  0  0
   -2.1255    0.9885    0.0000 C   0  0  0  0  0  0  0  0  0  0  0  0
   -2.8682    0.5770    0.0000 C   0  0  0  0  0  0  0  0  0  0  0  0
   -0.7198    0.9885    0.0000 C   0  0  0  0  0  0  0  0  0  0  0  0
    0.0229    0.5770    0.0000 C   0  0  0  0  0  0  0  0  0  0  0  0
   -0.0229   -1.9140    0.0000 C   0  0  0  0  0  0  0  0  0  0  0  0
    0.7198   -1.5027    0.0000 C   0  0  0  0  0  0  0  0  0  0  0  0
   -3.5653   -2.3140    0.0000 C   0  0  0  0  0  0  0  0  0  0  0  0
    0.0000   -2.7369    0.0000 C   0  0  0  0  0  0  0  0  0  0  0  0
   -2.8682    1.3997    0.0000 C   0  0  0  0  0  0  0  0  0  0  0  0
    1.4284   -1.9255    0.0000 C   0  0  0  0  0  0  0  0  0  0  0  0
    1.4169   -2.7483    0.0000 C   0  0  0  0  0  0  0  0  0  0  0  0
    0.7313    1.9712    0.0000 C   0  0  0  0  0  0  0  0  0  0  0  0
    0.6742   -3.1596    0.0000 C   0  0  0  0  0  0  0  0  0  0  0  0
   -4.9708   -0.6684    0.0000 C   0  0  0  0  0  0  0  0  0  0  0  0
    1.4284    2.3940    0.0000 C   0  0  0  0  0  0  0  0  0  0  0  0
   -4.2738   -0.2570    0.0000 C   0  0  0  0  0  0  0  0  0  0  0  0
    2.1255   -4.0052    0.0000 C   0  0  0  0  0  0  0  0  0  0  0  0
    2.8568   -2.7825    0.0000 C   0  0  0  0  0  0  0  0  0  0  0  0
   -4.2738    0.5770    0.0000 C   0  0  1  0  0  0  0  0  0  0  0  0
    1.4284    3.2511    0.0000 C   0  0  0  0  0  0  0  0  0  0  0  0
    2.1255    1.9712    0.0000 C   0  0  0  0  0  0  0  0  0  0  0  0
    2.8339   -4.4281    0.0000 C   0  0  0  0  0  0  0  0  0  0  0  0
    3.5653   -3.2167    0.0000 C   0  0  0  0  0  0  0  0  0  0  0  0
   -3.5653    0.9885    0.0000 C   0  0  2  0  0  0  0  0  0  0  0  0
   -3.5653    1.9712    0.0000 C   0  0  2  0  0  0  0  0  0  0  0  0
    0.7313    3.6738    0.0000 C   0  0  0  0  0  0  0  0  0  0  0  0
   -2.8682    2.3940    0.0000 C   0  0  1  0  0  0  0  0  0  0  0  0
    4.2852   -4.4738    0.0000 C   0  0  0  0  0  0  0  0  0  0  0  0
   -4.2738    1.5598    0.0000 C   0  0  0  0  0  0  0  0  0  0  0  0
   -0.0114    3.2511    0.0000 C   0  0  0  0  0  0  0  0  0  0  0  0
   -2.8682    3.2511    0.0000 C   0  0  1  0  0  0  0  0  0  0  0  0
   -2.1597    3.6738    0.0000 C   0  0  1  0  0  0  0  0  0  0  0  0
   -0.7198    3.6738    0.0000 C   0  0  1  0  0  0  0  0  0  0  0  0
   -5.6679    0.5770    0.0000 C   0  0  0  0  0  0  0  0  0  0  0  0
   -1.4169    3.2511    0.0000 C   0  0  2  0  0  0  0  0  0  0  0  0
    5.0052   -4.0738    0.0000 C   0  0  0  0  0  0  0  0  0  0  0  0
   -5.0166    2.8054    0.0000 C   0  0  0  0  0  0  0  0  0  0  0  0
   -3.5653    3.0453    0.0000 C   0  0  0  0  0  0  0  0  0  0  0  0
   -2.1597    4.4966    0.0000 C   0  0  0  0  0  0  0  0  0  0  0  0
   -0.7198    4.4966    0.0000 C   0  0  0  0  0  0  0  0  0  0  0  0
    5.7136   -4.4966    0.0000 C   0  0  0  0  0  0  0  0  0  0  0  0
    5.0166   -3.2282    0.0000 C   0  0  0  0  0  0  0  0  0  0  0  0
   -5.7136    2.3940    0.0000 C   0  0  0  0  0  0  0  0  0  0  0  0
   -1.3140    2.2797    0.0000 H   0  0  0  0  0  0  0  0  0  0  0  0
   -1.5347   -2.6971    0.0000 H   0  0  0  0  0  0  0  0  0  0  0  0
   -3.5445    4.6436    0.0000 H   0  0  0  0  0  0  0  0  0  0  0  0
   -2.2569    1.9432    0.0000 H   0  0  0  0  0  0  0  0  0  0  0  0
    1.5846    0.4974    0.0000 H   0  0  0  0  0  0  0  0  0  0  0  0
   -4.4919   -2.8490    0.0000 H   0  0  0  0  0  0  0  0  0  0  0  0
   -2.6387   -2.8490    0.0000 H   0  0  0  0  0  0  0  0  0  0  0  0
   -3.5653   -3.3840    0.0000 H   0  0  0  0  0  0  0  0  0  0  0  0
   -1.9416    1.9347    0.0000 H   0  0  0  0  0  0  0  0  0  0  0  0
   -3.7948    1.9347    0.0000 H   0  0  0  0  0  0  0  0  0  0  0  0
   -2.8682    2.4697    0.0000 H   0  0  0  0  0  0  0  0  0  0  0  0
    2.3294   -1.4222    0.0000 H   0  0  0  0  0  0  0  0  0  0  0  0
    0.6462   -4.1912    0.0000 H   0  0  0  0  0  0  0  0  0  0  0  0
   -5.8670   -0.1567    0.0000 H   0  0  0  0  0  0  0  0  0  0  0  0
   -3.3776   -0.7687    0.0000 H   0  0  0  0  0  0  0  0  0  0  0  0
    1.1913   -4.5270    0.0000 H   0  0  0  0  0  0  0  0  0  0  0  0
    2.1101   -5.0751    0.0000 H   0  0  0  0  0  0  0  0  0  0  0  0
    2.8796   -1.7127    0.0000 H   0  0  0  0  0  0  0  0  0  0  0  0
    3.7959   -2.2697    0.0000 H   0  0  0  0  0  0  0  0  0  0  0  0
   -5.2030    0.0465    0.0000 H   0  0  0  0  0  0  0  0  0  0  0  0
    2.3276    3.7575    0.0000 H   0  0  0  0  0  0  0  0  0  0  0  0
    2.1024    0.9014    0.0000 H   0  0  0  0  0  0  0  0  0  0  0  0
    3.0635    2.4861    0.0000 H   0  0  0  0  0  0  0  0  0  0  0  0
    3.0404    1.4163    0.0000 H   0  0  0  0  0  0  0  0  0  0  0  0
    2.8173   -5.4980    0.0000 H   0  0  0  0  0  0  0  0  0  0  0  0
    1.8993   -4.9491    0.0000 H   0  0  0  0  0  0  0  0  0  0  0  0
    4.5026   -2.7005    0.0000 H   0  0  0  0  0  0  0  0  0  0  0  0
    3.5901   -2.1470    0.0000 H   0  0  0  0  0  0  0  0  0  0  0  0
   -4.6322    1.0700    0.0000 H   0  0  0  0  0  0  0  0  0  0  0  0
   -4.4958    1.4429    0.0000 H   0  0  0  0  0  0  0  0  0  0  0  0
    0.7456    4.7057    0.0000 H   0  0  0  0  0  0  0  0  0  0  0  0
   -3.9325    2.5041    0.0000 H   0  0  0  0  0  0  0  0  0  0  0  0
    4.2637   -5.5436    0.0000 H   0  0  0  0  0  0  0  0  0  0  0  0
    5.2019   -5.0257    0.0000 H   0  0  0  0  0  0  0  0  0  0  0  0
   -4.1086    2.6170    0.0000 H   0  0  0  0  0  0  0  0  0  0  0  0
   -5.2719    1.1743    0.0000 H   0  0  0  0  0  0  0  0  0  0  0  0
   -5.1067    2.2314    0.0000 H   0  0  0  0  0  0  0  0  0  0  0  0
   -0.0220    2.2192    0.0000 H   0  0  0  0  0  0  0  0  0  0  0  0
   -3.8005    2.7261    0.0000 H   0  0  0  0  0  0  0  0  0  0  0  0
   -3.0902    4.2021    0.0000 H   0  0  0  0  0  0  0  0  0  0  0  0
    0.2107    4.2021    0.0000 H   0  0  0  0  0  0  0  0  0  0  0  0
   -6.5997    1.1030    0.0000 H   0  0  0  0  0  0  0  0  0  0  0  0
   -5.6576   -0.4930    0.0000 H   0  0  0  0  0  0  0  0  0  0  0  0
   -6.5893    0.0331    0.0000 H   0  0  0  0  0  0  0  0  0  0  0  0
   -2.3419    2.7132    0.0000 H   0  0  0  0  0  0  0  0  0  0  0  0
    5.9392   -3.5518    0.0000 H   0  0  0  0  0  0  0  0  0  0  0  0
   -3.3236    4.0876    0.0000 H   0  0  0  0  0  0  0  0  0  0  0  0
   -4.5888    2.7334    0.0000 H   0  0  0  0  0  0  0  0  0  0  0  0
   -4.3472    3.7758    0.0000 H   0  0  0  0  0  0  0  0  0  0  0  0
   -1.2331    5.0316    0.0000 H   0  0  0  0  0  0  0  0  0  0  0  0
   -3.0863    5.0316    0.0000 H   0  0  0  0  0  0  0  0  0  0  0  0
   -2.1597    5.5666    0.0000 H   0  0  0  0  0  0  0  0  0  0  0  0
    0.2068    5.0316    0.0000 H   0  0  0  0  0  0  0  0  0  0  0  0
   -1.6464    5.0316    0.0000 H   0  0  0  0  0  0  0  0  0  0  0  0
   -0.7198    5.5666    0.0000 H   0  0  0  0  0  0  0  0  0  0  0  0
    5.6981   -5.5665    0.0000 H   0  0  0  0  0  0  0  0  0  0  0  0
    6.6479   -3.9751    0.0000 H   0  0  0  0  0  0  0  0  0  0  0  0
    6.6324   -5.0450    0.0000 H   0  0  0  0  0  0  0  0  0  0  0  0
    5.9504   -2.7057    0.0000 H   0  0  0  0  0  0  0  0  0  0  0  0
    4.0972   -2.6808    0.0000 H   0  0  0  0  0  0  0  0  0  0  0  0
    5.0310   -2.1583    0.0000 H   0  0  0  0  0  0  0  0  0  0  0  0
   -6.6453    2.9201    0.0000 H   0  0  0  0  0  0  0  0  0  0  0  0
   -5.7033    1.3240    0.0000 H   0  0  0  0  0  0  0  0  0  0  0  0
   -6.6351    1.8501    0.0000 H   0  0  0  0  0  0  0  0  0  0  0  0
  1 21  1  0  0  0  0
  1 24  1  0  0  0  0
  2 25  1  0  0  0  0
  2 31  1  0  0  0  0
  3 24  1  0  0  0  0
  3 39  1  0  0  0  0
  4 23  2  0  0  0  0
  5 26  1  0  0  0  0
  5 69  1  0  0  0  0
  6 28  2  0  0  0  0
  7 33  1  0  0  0  0
  7 70  1  0  0  0  0
  8 37  2  0  0  0  0
  9 59  1  0  0  0  0
 10 62  1  0  0  0  0
 11 71  1  0  0  0  0
 12 72  1  0  0  0  0
 13 62  2  0  0  0  0
 14 22  2  0  0  0  0
 14 30  1  0  0  0  0
 15 29  1  0  0  0  0
 15 37  1  0  0  0  0
 15 73  1  0  0  0  0
 16 36  1  0  0  0  0
 16 42  1  0  0  0  0
 16 43  1  0  0  0  0
 17 47  1  0  0  0  0
 17 48  1  0  0  0  0
 17 53  1  0  0  0  0
 18 19  2  0  0  0  0
 18 20  1  0  0  0  0
 18 22  1  0  0  0  0
 19 21  1  0  0  0  0
 19 23  1  0  0  0  0
 20 26  2  0  0  0  0
 20 28  1  0  0  0  0
 21 27  2  0  0  0  0
 22 25  1  0  0  0  0
 23 24  1  0  0  0  0
 24 32  1  6  0  0  0
 25 29  2  0  0  0  0
 26 27  1  0  0  0  0
 27 34  1  0  0  0  0
 28 29  1  0  0  0  0
 30 31  1  0  0  0  0
 30 33  2  0  0  0  0
 31 35  2  0  0  0  0
 32 74  1  0  0  0  0
 32 75  1  0  0  0  0
 32 76  1  0  0  0  0
 33 38  1  0  0  0  0
 34 77  1  0  0  0  0
 34 78  1  0  0  0  0
 34 79  1  0  0  0  0
 35 36  1  0  0  0  0
 35 80  1  0  0  0  0
 36 38  2  0  0  0  0
 37 40  1  0  0  0  0
 38 81  1  0  0  0  0
 39 41  2  0  0  0  0
 39 82  1  0  0  0  0
 40 45  2  0  0  0  0
 40 46  1  0  0  0  0
 41 44  1  0  0  0  0
 41 83  1  0  0  0  0
 42 47  1  0  0  0  0
 42 84  1  0  0  0  0
 42 85  1  0  0  0  0
 43 48  1  0  0  0  0
 43 86  1  0  0  0  0
 43 87  1  0  0  0  0
 44  9  1  0  0  0  0
 44 49  1  0  0  0  0
 44 88  1  1  0  0  0
 45 51  1  0  0  0  0
 45 89  1  0  0  0  0
 46 90  1  0  0  0  0
 46 91  1  0  0  0  0
 46 92  1  0  0  0  0
 47 93  1  0  0  0  0
 47 94  1  0  0  0  0
 48 95  1  0  0  0  0
 48 96  1  0  0  0  0
 49 50  1  0  0  0  0
 49 54  1  0  0  0  0
 49 97  1  6  0  0  0
 50 10  1  0  0  0  0
 50 52  1  0  0  0  0
 50 98  1  6  0  0  0
 51 55  2  0  0  0  0
 51 99  1  0  0  0  0
 52 56  1  0  0  0  0
 52 63  1  0  0  0  0
 52100  1  1  0  0  0
 53 61  1  0  0  0  0
 53101  1  0  0  0  0
 53102  1  0  0  0  0
 54103  1  0  0  0  0
 54104  1  0  0  0  0
 54105  1  0  0  0  0
 55 58  1  0  0  0  0
 55106  1  0  0  0  0
 56 11  1  0  0  0  0
 56 57  1  0  0  0  0
 56107  1  1  0  0  0
 57 60  1  0  0  0  0
 57 64  1  0  0  0  0
 57108  1  1  0  0  0
 58 60  1  0  0  0  0
 58 65  1  0  0  0  0
 58109  1  6  0  0  0
 59110  1  0  0  0  0
 59111  1  0  0  0  0
 59112  1  0  0  0  0
 60 12  1  0  0  0  0
 60113  1  1  0  0  0
 61 66  1  0  0  0  0
 61 67  1  0  0  0  0
 61114  1  0  0  0  0
 62 68  1  0  0  0  0
 63115  1  0  0  0  0
 63116  1  0  0  0  0
 63117  1  0  0  0  0
 64118  1  0  0  0  0
 64119  1  0  0  0  0
 64120  1  0  0  0  0
 65121  1  0  0  0  0
 65122  1  0  0  0  0
 65123  1  0  0  0  0
 66124  1  0  0  0  0
 66125  1  0  0  0  0
 66126  1  0  0  0  0
 67127  1  0  0  0  0
 67128  1  0  0  0  0
 67129  1  0  0  0  0
 68130  1  0  0  0  0
 68131  1  0  0  0  0
 68132  1  0  0  0  0
M  END
>  <DRUGBANK_ID>
DB04934

>  <COMMON_NAME>
Rifalazil

>  <CAS_NUMBER>
129791-92-0

>  <UNII>
S1976TE8QK

>  <SYNONYMS>
3'-hydroxy-5'-(4-isobutyl-1-piperazinyl)benzoxazinorifamycin; Rifalazil; Rifalazilo; Rifalazilum

$$$$
