
 OpenBabel10282417072D

 38 38  0  0  0  0  0  0  0  0999 V2000
    0.0000   -0.8250    0.0000 C   0  0  0  0  0  0  0  0  0  0  0  0
   -0.7144   -0.4124    0.0000 C   0  0  0  0  0  0  0  0  0  0  0  0
   -0.7144    0.4125    0.0000 C   0  0  0  0  0  0  0  0  0  0  0  0
    0.0000    0.8250    0.0000 C   0  0  0  0  0  0  0  0  0  0  0  0
    0.7144    0.4125    0.0000 C   0  0  0  0  0  0  0  0  0  0  0  0
    0.7144   -0.4124    0.0000 C   0  0  0  0  0  0  0  0  0  0  0  0
   -1.4289   -0.8250    0.0000 C   0  0  0  0  0  0  0  0  0  0  0  0
   -2.1434   -0.4124    0.0000 C   0  0  0  0  0  0  0  0  0  0  0  0
   -1.4289   -1.6500    0.0000 C   0  0  0  0  0  0  0  0  0  0  0  0
   -2.1400   -1.2319    0.0000 C   0  0  0  0  0  0  0  0  0  0  0  0
   -1.4288    0.8249    0.0000 O   0  0  0  0  0  0  0  0  0  0  0  0
    1.4289   -0.8249    0.0000 O   0  0  0  0  0  0  0  0  0  0  0  0
    1.4289    0.8250    0.0000 C   0  0  0  0  0  0  0  0  0  0  0  0
    2.1434    0.4124    0.0000 C   0  0  0  0  0  0  0  0  0  0  0  0
    1.4289    1.6500    0.0000 C   0  0  0  0  0  0  0  0  0  0  0  0
    2.1400    1.2319    0.0000 C   0  0  0  0  0  0  0  0  0  0  0  0
    0.0000   -1.8570    0.0000 H   0  0  0  0  0  0  0  0  0  0  0  0
    0.0000    1.8570    0.0000 H   0  0  0  0  0  0  0  0  0  0  0  0
   -2.1433    0.6576    0.0000 H   0  0  0  0  0  0  0  0  0  0  0  0
   -3.0701   -0.9473    0.0000 H   0  0  0  0  0  0  0  0  0  0  0  0
   -3.0700    0.1227    0.0000 H   0  0  0  0  0  0  0  0  0  0  0  0
   -2.3555   -2.1850    0.0000 H   0  0  0  0  0  0  0  0  0  0  0  0
   -0.5023   -2.1850    0.0000 H   0  0  0  0  0  0  0  0  0  0  0  0
   -1.4289   -2.7200    0.0000 H   0  0  0  0  0  0  0  0  0  0  0  0
   -3.0646   -0.6933    0.0000 H   0  0  0  0  0  0  0  0  0  0  0  0
   -2.1441   -2.3019    0.0000 H   0  0  0  0  0  0  0  0  0  0  0  0
   -3.0687   -1.7633    0.0000 H   0  0  0  0  0  0  0  0  0  0  0  0
   -1.4289    1.7619    0.0000 H   0  0  0  0  0  0  0  0  0  0  0  0
    1.4289   -1.7619    0.0000 H   0  0  0  0  0  0  0  0  0  0  0  0
    2.1433   -0.6576    0.0000 H   0  0  0  0  0  0  0  0  0  0  0  0
    3.0701    0.9473    0.0000 H   0  0  0  0  0  0  0  0  0  0  0  0
    3.0700   -0.1227    0.0000 H   0  0  0  0  0  0  0  0  0  0  0  0
    2.3555    2.1850    0.0000 H   0  0  0  0  0  0  0  0  0  0  0  0
    0.5023    2.1850    0.0000 H   0  0  0  0  0  0  0  0  0  0  0  0
    1.4289    2.7200    0.0000 H   0  0  0  0  0  0  0  0  0  0  0  0
    3.0646    0.6933    0.0000 H   0  0  0  0  0  0  0  0  0  0  0  0
    2.1441    2.3019    0.0000 H   0  0  0  0  0  0  0  0  0  0  0  0
    3.0687    1.7633    0.0000 H   0  0  0  0  0  0  0  0  0  0  0  0
  1 17  1  0  0  0  0
  2  1  1  0  0  0  0
  3  2  2  0  0  0  0
  3 11  1  0  0  0  0
  4  3  1  0  0  0  0
  4 18  1  0  0  0  0
  5  4  2  0  0  0  0
  5 13  1  0  0  0  0
  6  1  2  0  0  0  0
  6  5  1  0  0  0  0
  6 12  1  0  0  0  0
  7  2  1  0  0  0  0
  7  8  1  0  0  0  0
  7  9  1  0  0  0  0
  7 10  1  0  0  0  0
  8 19  1  0  0  0  0
  8 20  1  0  0  0  0
  8 21  1  0  0  0  0
  9 22  1  0  0  0  0
  9 23  1  0  0  0  0
  9 24  1  0  0  0  0
 10 25  1  0  0  0  0
 10 26  1  0  0  0  0
 10 27  1  0  0  0  0
 11 28  1  0  0  0  0
 12 29  1  0  0  0  0
 13 14  1  0  0  0  0
 13 15  1  0  0  0  0
 13 16  1  0  0  0  0
 14 30  1  0  0  0  0
 14 31  1  0  0  0  0
 14 32  1  0  0  0  0
 15 33  1  0  0  0  0
 15 34  1  0  0  0  0
 15 35  1  0  0  0  0
 16 36  1  0  0  0  0
 16 37  1  0  0  0  0
 16 38  1  0  0  0  0
M  END
>  <DRUGBANK_ID>
DB04638

>  <COMMON_NAME>
2,5-di-tert-butylhydroquinone

>  <CAS_NUMBER>
88-58-4

>  <UNII>
26XK13B61B

>  <SYNONYMS>
2,5-di-tert-butylbenzene-1,4-diol

$$$$
