
 OpenBabel10282417072D

 20 20  0  0  0  0  0  0  0  0999 V2000
   -0.7942   -0.0787    0.0000 C   0  0  0  0  0  0  0  0  0  0  0  0
   -0.0796    0.3337    0.0000 C   0  0  0  0  0  0  0  0  0  0  0  0
    0.6348   -0.0787    0.0000 C   0  0  2  0  0  0  0  0  0  0  0  0
   -0.7942   -0.9037    0.0000 C   0  0  0  0  0  0  0  0  0  0  0  0
    0.6348   -0.9037    0.0000 N   0  0  0  0  0  0  0  0  0  0  0  0
   -1.5788    0.1761    0.0000 N   0  0  0  0  0  0  0  0  0  0  0  0
   -2.0635   -0.4912    0.0000 C   0  0  0  0  0  0  0  0  0  0  0  0
   -1.5787   -1.1587    0.0000 N   0  0  0  0  0  0  0  0  0  0  0  0
    1.3492    1.1587    0.0000 O   0  0  0  0  0  0  0  0  0  0  0  0
    1.3493    0.3337    0.0000 C   0  0  0  0  0  0  0  0  0  0  0  0
    2.0636   -0.0786    0.0000 O   0  0  0  0  0  0  0  0  0  0  0  0
   -0.0795    1.4037    0.0000 H   0  0  0  0  0  0  0  0  0  0  0  0
    0.8470    0.8687    0.0000 H   0  0  0  0  0  0  0  0  0  0  0  0
   -0.2918   -0.6137    0.0000 H   0  0  0  0  0  0  0  0  0  0  0  0
    0.0407   -1.5102    0.0000 H   0  0  0  0  0  0  0  0  0  0  0  0
   -0.2485   -1.4137    0.0000 H   0  0  0  0  0  0  0  0  0  0  0  0
    1.5181   -1.4137    0.0000 H   0  0  0  0  0  0  0  0  0  0  0  0
   -3.0955   -0.4912    0.0000 H   0  0  0  0  0  0  0  0  0  0  0  0
   -1.8829   -2.0950    0.0000 H   0  0  0  0  0  0  0  0  0  0  0  0
    2.0637   -1.0156    0.0000 H   0  0  0  0  0  0  0  0  0  0  0  0
  1  2  1  0  0  0  0
  2  3  1  0  0  0  0
  2 12  1  0  0  0  0
  2 13  1  0  0  0  0
  3 10  1  0  0  0  0
  3  5  1  0  0  0  0
  3 14  1  6  0  0  0
  4  1  2  0  0  0  0
  4 15  1  0  0  0  0
  5 16  1  0  0  0  0
  5 17  1  0  0  0  0
  6  1  1  0  0  0  0
  7  6  2  0  0  0  0
  7  8  1  0  0  0  0
  7 18  1  0  0  0  0
  8  4  1  0  0  0  0
  8 19  1  0  0  0  0
 10  9  2  0  0  0  0
 11 10  1  0  0  0  0
 11 20  1  0  0  0  0
M  END
>  <DRUGBANK_ID>
DB00117

>  <SECONDARY_ACCESSION_NUMBERS>
NUTR00030

>  <COMMON_NAME>
Histidine

>  <CAS_NUMBER>
71-00-1

>  <UNII>
4QD397987E

>  <SYNONYMS>
(S)-4-(2-Amino-2-carboxyethyl)imidazole; (S)-a-Amino-1H-imidazole-4-propanoic acid; (S)-alpha-amino-1H-Imidazole-4-propanoic acid; (S)-alpha-Amino-1H-imidazole-4-propionic acid; (S)-α-amino-1H-Imidazole-4-propanoic acid; HIS; Histidina; Histidine; L-(−)-histidine; L-Histidin; L-Histidine

$$$$
