WRB
 OpenBabel10282417072D

 42 43  0  0  0  0  0  0  0  0999 V2000
   -1.8217   -0.5007    0.0000 C   0  0  0  0  0  0  0  0  0  0  0  0
   -2.5361   -0.9132    0.0000 N   0  0  0  0  0  0  0  0  0  0  0  0
   -3.2506   -0.5007    0.0000 C   0  0  0  0  0  0  0  0  0  0  0  0
   -3.2506    0.3243    0.0000 N   0  0  0  0  0  0  0  0  0  0  0  0
   -2.5361    0.7368    0.0000 C   0  0  0  0  0  0  0  0  0  0  0  0
   -1.8217    0.3243    0.0000 N   0  0  0  0  0  0  0  0  0  0  0  0
   -1.1072    0.7368    0.0000 O   0  0  0  0  0  0  0  0  0  0  0  0
   -0.3927    0.3243    0.0000 C   0  0  0  0  0  0  0  0  0  0  0  0
    0.3217    0.7368    0.0000 C   0  0  0  0  0  0  0  0  0  0  0  0
    1.0362    0.3243    0.0000 C   0  0  0  0  0  0  0  0  0  0  0  0
    1.7507    0.7368    0.0000 O   0  0  0  0  0  0  0  0  0  0  0  0
    2.4651    0.3243    0.0000 C   0  0  0  0  0  0  0  0  0  0  0  0
    3.1796    0.7368    0.0000 C   0  0  0  0  0  0  0  0  0  0  0  0
    3.8941    0.3243    0.0000 C   0  0  0  0  0  0  0  0  0  0  0  0
    2.4651   -0.5007    0.0000 C   0  0  0  0  0  0  0  0  0  0  0  0
    3.1796   -0.9132    0.0000 C   0  0  0  0  0  0  0  0  0  0  0  0
    3.8941   -0.5007    0.0000 C   0  0  0  0  0  0  0  0  0  0  0  0
   -1.3845   -1.2004    0.0000 C   0  0  0  0  0  0  0  0  0  0  0  0
   -0.9972   -0.5295    0.0000 C   0  0  0  0  0  0  0  0  0  0  0  0
   -3.9651   -0.9132    0.0000 N   0  0  0  0  0  0  0  0  0  0  0  0
   -2.5361    1.5618    0.0000 N   0  0  0  0  0  0  0  0  0  0  0  0
    4.6086   -0.9132    0.0000 Br  0  0  0  0  0  0  0  0  0  0  0  0
   -0.3927   -0.7457    0.0000 H   0  0  0  0  0  0  0  0  0  0  0  0
    0.5340   -0.2107    0.0000 H   0  0  0  0  0  0  0  0  0  0  0  0
    0.3217    1.8068    0.0000 H   0  0  0  0  0  0  0  0  0  0  0  0
    1.2483    1.2718    0.0000 H   0  0  0  0  0  0  0  0  0  0  0  0
    1.0362   -0.7457    0.0000 H   0  0  0  0  0  0  0  0  0  0  0  0
    1.9628   -0.2107    0.0000 H   0  0  0  0  0  0  0  0  0  0  0  0
    3.1796    1.7688    0.0000 H   0  0  0  0  0  0  0  0  0  0  0  0
    4.7878    0.8403    0.0000 H   0  0  0  0  0  0  0  0  0  0  0  0
    1.5714   -1.0167    0.0000 H   0  0  0  0  0  0  0  0  0  0  0  0
    3.1796   -1.9452    0.0000 H   0  0  0  0  0  0  0  0  0  0  0  0
   -1.8869   -2.1451    0.0000 H   0  0  0  0  0  0  0  0  0  0  0  0
   -0.3152   -1.1631    0.0000 H   0  0  0  0  0  0  0  0  0  0  0  0
   -0.8175   -2.1078    0.0000 H   0  0  0  0  0  0  0  0  0  0  0  0
   -0.4949   -1.4743    0.0000 H   0  0  0  0  0  0  0  0  0  0  0  0
   -0.4302    0.3779    0.0000 H   0  0  0  0  0  0  0  0  0  0  0  0
    0.0721   -0.5669    0.0000 H   0  0  0  0  0  0  0  0  0  0  0  0
   -4.8177   -0.4209    0.0000 H   0  0  0  0  0  0  0  0  0  0  0  0
   -3.9651   -1.8977    0.0000 H   0  0  0  0  0  0  0  0  0  0  0  0
   -1.6835    2.0541    0.0000 H   0  0  0  0  0  0  0  0  0  0  0  0
   -3.3887    2.0541    0.0000 H   0  0  0  0  0  0  0  0  0  0  0  0
  1  2  1  0  0  0  0
  1  6  1  0  0  0  0
  1 18  1  0  0  0  0
  1 19  1  0  0  0  0
  2  3  2  0  0  0  0
  3  4  1  0  0  0  0
  3 20  1  0  0  0  0
  4  5  2  0  0  0  0
  5  6  1  0  0  0  0
  5 21  1  0  0  0  0
  6  7  1  0  0  0  0
  7  8  1  0  0  0  0
  8  9  1  0  0  0  0
  8 23  1  0  0  0  0
  8 24  1  0  0  0  0
  9 10  1  0  0  0  0
  9 25  1  0  0  0  0
  9 26  1  0  0  0  0
 10 11  1  0  0  0  0
 10 27  1  0  0  0  0
 10 28  1  0  0  0  0
 11 12  1  0  0  0  0
 12 13  2  0  0  0  0
 12 15  1  0  0  0  0
 13 14  1  0  0  0  0
 13 29  1  0  0  0  0
 14 17  2  0  0  0  0
 14 30  1  0  0  0  0
 15 16  2  0  0  0  0
 15 31  1  0  0  0  0
 16 17  1  0  0  0  0
 16 32  1  0  0  0  0
 17 22  1  0  0  0  0
 18 33  1  0  0  0  0
 18 34  1  0  0  0  0
 18 35  1  0  0  0  0
 19 36  1  0  0  0  0
 19 37  1  0  0  0  0
 19 38  1  0  0  0  0
 20 39  1  0  0  0  0
 20 40  1  0  0  0  0
 21 41  1  0  0  0  0
 21 42  1  0  0  0  0
M  END
>  <DRUGBANK_ID>
DB04007

>  <SECONDARY_ACCESSION_NUMBERS>
EXPT03244

>  <COMMON_NAME>
Bromo-WR99210

>  <UNII>
8S51TS26BA

$$$$
