
 OpenBabel10282417072D

 74 76  0  0  0  0  0  0  0  0999 V2000
   -1.4641    1.7336    0.0000 C   0  0  0  0  0  0  0  0  0  0  0  0
   -1.4641    0.0835    0.0000 C   0  0  0  0  0  0  0  0  0  0  0  0
    0.0349    0.2412    0.0000 C   0  0  0  0  0  0  0  0  0  0  0  0
    0.5199    0.9086    0.0000 C   0  0  0  0  0  0  0  0  0  0  0  0
   -2.1786    1.3211    0.0000 C   0  0  0  0  0  0  0  0  0  0  0  0
   -1.4641   -0.7414    0.0000 C   0  0  0  0  0  0  0  0  0  0  0  0
   -2.1786    0.4961    0.0000 C   0  0  0  0  0  0  0  0  0  0  0  0
   -2.1786   -1.1539    0.0000 C   0  0  0  0  0  0  0  0  0  0  0  0
   -2.1786   -1.9790    0.0000 C   0  0  0  0  0  0  0  0  0  0  0  0
   -1.4641   -2.3915    0.0000 C   0  0  0  0  0  0  0  0  0  0  0  0
   -2.8931   -2.3915    0.0000 C   0  0  0  0  0  0  0  0  0  0  0  0
   -1.4641   -3.2165    0.0000 C   0  0  2  0  0  0  0  0  0  0  0  0
   -0.7496   -1.9790    0.0000 C   0  0  0  0  0  0  0  0  0  0  0  0
   -2.8931   -3.2165    0.0000 C   0  0  2  0  0  0  0  0  0  0  0  0
   -2.1786   -3.6291    0.0000 C   0  0  0  0  0  0  0  0  0  0  0  0
   -3.6076   -3.6291    0.0000 O   0  0  0  0  0  0  0  0  0  0  0  0
   -0.6795    2.8137    0.0000 C   0  0  0  0  0  0  0  0  0  0  0  0
    0.0349    2.4012    0.0000 C   0  0  2  0  0  0  0  0  0  0  0  0
    0.7496    2.8137    0.0000 C   0  0  0  0  0  0  0  0  0  0  0  0
    1.4639    2.4012    0.0000 C   0  0  0  0  0  0  0  0  0  0  0  0
    3.6076    2.8137    0.0000 C   0  0  0  0  0  0  0  0  0  0  0  0
    2.8931    2.4012    0.0000 C   0  0  0  0  0  0  0  0  0  0  0  0
    2.8931    1.5762    0.0000 C   0  0  0  0  0  0  0  0  0  0  0  0
    2.1785    2.8137    0.0000 C   0  0  1  0  0  0  0  0  0  0  0  0
    2.1785    3.6388    0.0000 C   0  0  0  0  0  0  0  0  0  0  0  0
    0.0349    1.5762    0.0000 C   0  0  2  0  0  0  0  0  0  0  0  0
    0.8269    1.4729    0.0000 H   0  0  0  0  0  0  0  0  0  0  0  0
   -0.7496    0.4961    0.0000 C   0  0  2  0  0  0  0  0  0  0  0  0
   -0.7496   -0.3289    0.0000 H   0  0  0  0  0  0  0  0  0  0  0  0
   -0.7496    1.3211    0.0000 C   0  0  2  0  0  0  0  0  0  0  0  0
   -0.7496    2.1462    0.0000 C   0  0  0  0  0  0  0  0  0  0  0  0
   -0.7492   -3.6388    0.0000 O   0  0  0  0  0  0  0  0  0  0  0  0
   -1.4641    2.8036    0.0000 H   0  0  0  0  0  0  0  0  0  0  0  0
   -2.3907    2.2686    0.0000 H   0  0  0  0  0  0  0  0  0  0  0  0
    0.3655   -0.7764    0.0000 H   0  0  0  0  0  0  0  0  0  0  0  0
    1.0917    0.0737    0.0000 H   0  0  0  0  0  0  0  0  0  0  0  0
    1.5899    0.9085    0.0000 H   0  0  0  0  0  0  0  0  0  0  0  0
    1.0056   -0.0448    0.0000 H   0  0  0  0  0  0  0  0  0  0  0  0
   -3.1052    1.8561    0.0000 H   0  0  0  0  0  0  0  0  0  0  0  0
   -3.1052    0.7861    0.0000 H   0  0  0  0  0  0  0  0  0  0  0  0
   -0.5704   -1.2574    0.0000 H   0  0  0  0  0  0  0  0  0  0  0  0
   -3.1053   -0.0389    0.0000 H   0  0  0  0  0  0  0  0  0  0  0  0
   -3.1052    1.0311    0.0000 H   0  0  0  0  0  0  0  0  0  0  0  0
   -3.0723   -0.6379    0.0000 H   0  0  0  0  0  0  0  0  0  0  0  0
   -3.8197   -1.8565    0.0000 H   0  0  0  0  0  0  0  0  0  0  0  0
   -3.8197   -2.9265    0.0000 H   0  0  0  0  0  0  0  0  0  0  0  0
   -0.5348   -2.6861    0.0000 H   0  0  0  0  0  0  0  0  0  0  0  0
    0.1441   -2.4950    0.0000 H   0  0  0  0  0  0  0  0  0  0  0  0
   -0.7496   -0.9470    0.0000 H   0  0  0  0  0  0  0  0  0  0  0  0
   -3.8198   -2.6815    0.0000 H   0  0  0  0  0  0  0  0  0  0  0  0
   -2.1786   -4.6991    0.0000 H   0  0  0  0  0  0  0  0  0  0  0  0
   -3.1053   -4.1641    0.0000 H   0  0  0  0  0  0  0  0  0  0  0  0
   -4.4477   -3.1442    0.0000 H   0  0  0  0  0  0  0  0  0  0  0  0
   -0.6795    3.8837    0.0000 H   0  0  0  0  0  0  0  0  0  0  0  0
   -1.6062    2.2787    0.0000 H   0  0  0  0  0  0  0  0  0  0  0  0
   -1.6061    3.3487    0.0000 H   0  0  0  0  0  0  0  0  0  0  0  0
   -0.8918    1.8662    0.0000 H   0  0  0  0  0  0  0  0  0  0  0  0
    0.7497    3.8457    0.0000 H   0  0  0  0  0  0  0  0  0  0  0  0
    1.4638    1.3692    0.0000 H   0  0  0  0  0  0  0  0  0  0  0  0
    4.5342    2.2787    0.0000 H   0  0  0  0  0  0  0  0  0  0  0  0
    3.6076    3.8837    0.0000 H   0  0  0  0  0  0  0  0  0  0  0  0
    4.5343    3.3487    0.0000 H   0  0  0  0  0  0  0  0  0  0  0  0
    3.8197    1.8662    0.0000 H   0  0  0  0  0  0  0  0  0  0  0  0
    1.9665    1.0412    0.0000 H   0  0  0  0  0  0  0  0  0  0  0  0
    3.8197    1.0412    0.0000 H   0  0  0  0  0  0  0  0  0  0  0  0
    2.8931    0.5062    0.0000 H   0  0  0  0  0  0  0  0  0  0  0  0
    1.2519    3.3487    0.0000 H   0  0  0  0  0  0  0  0  0  0  0  0
    3.1051    4.1738    0.0000 H   0  0  0  0  0  0  0  0  0  0  0  0
    1.2519    4.1738    0.0000 H   0  0  0  0  0  0  0  0  0  0  0  0
    2.1785    4.7088    0.0000 H   0  0  0  0  0  0  0  0  0  0  0  0
    0.1770    2.6812    0.0000 H   0  0  0  0  0  0  0  0  0  0  0  0
   -1.6762    2.6812    0.0000 H   0  0  0  0  0  0  0  0  0  0  0  0
   -0.7496    3.2162    0.0000 H   0  0  0  0  0  0  0  0  0  0  0  0
   -0.7589   -4.6088    0.0000 H   0  0  0  0  0  0  0  0  0  0  0  0
  1  5  1  0  0  0  0
  1 33  1  0  0  0  0
  1 34  1  0  0  0  0
  2  6  2  0  0  0  0
  2  7  1  0  0  0  0
  3  4  1  0  0  0  0
  3 35  1  0  0  0  0
  3 36  1  0  0  0  0
  4 37  1  0  0  0  0
  4 38  1  0  0  0  0
  5  7  1  0  0  0  0
  5 39  1  0  0  0  0
  5 40  1  0  0  0  0
  6  8  1  0  0  0  0
  6 41  1  0  0  0  0
  7 42  1  0  0  0  0
  7 43  1  0  0  0  0
  8  9  2  0  0  0  0
  8 44  1  0  0  0  0
  9 10  1  0  0  0  0
  9 11  1  0  0  0  0
 10 12  1  0  0  0  0
 10 13  2  0  0  0  0
 11 14  1  0  0  0  0
 11 45  1  0  0  0  0
 11 46  1  0  0  0  0
 12 15  1  0  0  0  0
 12 32  1  0  0  0  0
 12 47  1  6  0  0  0
 13 48  1  0  0  0  0
 13 49  1  0  0  0  0
 14 16  1  0  0  0  0
 14 15  1  0  0  0  0
 14 50  1  1  0  0  0
 15 51  1  0  0  0  0
 15 52  1  0  0  0  0
 16 53  1  0  0  0  0
 17 54  1  0  0  0  0
 17 55  1  0  0  0  0
 17 56  1  0  0  0  0
 18 17  1  0  0  0  0
 18 19  1  0  0  0  0
 18 57  1  1  0  0  0
 19 20  2  0  0  0  0
 19 58  1  0  0  0  0
 20 24  1  0  0  0  0
 20 59  1  0  0  0  0
 21 60  1  0  0  0  0
 21 61  1  0  0  0  0
 21 62  1  0  0  0  0
 22 21  1  0  0  0  0
 22 23  1  0  0  0  0
 22 63  1  0  0  0  0
 23 64  1  0  0  0  0
 23 65  1  0  0  0  0
 23 66  1  0  0  0  0
 24 22  1  0  0  0  0
 24 25  1  0  0  0  0
 24 67  1  1  0  0  0
 25 68  1  0  0  0  0
 25 69  1  0  0  0  0
 25 70  1  0  0  0  0
 26  4  1  0  0  0  0
 26 18  1  0  0  0  0
 26 27  1  6  0  0  0
 28 30  1  0  0  0  0
 28  2  1  0  0  0  0
 28  3  1  0  0  0  0
 28 29  1  6  0  0  0
 30 26  1  0  0  0  0
 30  1  1  0  0  0  0
 30 31  1  1  0  0  0
 31 71  1  0  0  0  0
 31 72  1  0  0  0  0
 31 73  1  0  0  0  0
 32 74  1  0  0  0  0
M  END
>  <DRUGBANK_ID>
DB06410

>  <COMMON_NAME>
Doxercalciferol

>  <CAS_NUMBER>
54573-75-0

>  <UNII>
3DIZ9LF5Y9

>  <SYNONYMS>
(1S,3R,5Z,7E,22E)-9,10-Secoergosta-5,7,10,22-tetraene-1,3-diol; 1-Hydroxyergocalciferol; 1-Hydroxyvitamin D2; 1α-Hydroxyergocalciferol; 1α-hydroxyvitamin D2; Doxercalciferol; Doxercalciferolum; Doxercalciférolum

$$$$
