357
 OpenBabel10282417072D

 33 34  0  0  1  0  0  0  0  0999 V2000
    1.6500   -0.4129    0.0000 O   0  0  0  0  0  0  0  0  0  0  0  0
    3.0791   -2.8880    0.0000 O   0  0  0  0  0  0  0  0  0  0  0  0
    2.3645   -1.6504    0.0000 N   0  0  0  0  0  0  0  0  0  0  0  0
    4.7291    2.4450    0.0000 N   0  0  0  0  0  0  0  0  0  0  0  0
    3.0791   -0.4129    0.0000 C   0  0  3  0  0  0  0  0  0  0  0  0
    3.7935   -0.8254    0.0000 C   0  0  0  0  0  0  0  0  0  0  0  0
    2.6665    0.3015    0.0000 C   0  0  0  0  0  0  0  0  0  0  0  0
    3.4916    0.3015    0.0000 C   0  0  0  0  0  0  0  0  0  0  0  0
    3.7935   -1.6504    0.0000 C   0  0  0  0  0  0  0  0  0  0  0  0
    2.3645   -0.8254    0.0000 C   0  0  0  0  0  0  0  0  0  0  0  0
    3.0791   -2.0630    0.0000 C   0  0  0  0  0  0  0  0  0  0  0  0
    1.8415    0.3015    0.0000 C   0  0  0  0  0  0  0  0  0  0  0  0
    3.0791    1.0160    0.0000 C   0  0  0  0  0  0  0  0  0  0  0  0
    4.3166    0.3015    0.0000 C   0  0  0  0  0  0  0  0  0  0  0  0
    3.4916    1.7306    0.0000 C   0  0  0  0  0  0  0  0  0  0  0  0
    4.7291    1.0160    0.0000 C   0  0  0  0  0  0  0  0  0  0  0  0
    4.3166    1.7306    0.0000 C   0  0  0  0  0  0  0  0  0  0  0  0
    1.5119   -2.1426    0.0000 H   0  0  0  0  0  0  0  0  0  0  0  0
    5.7136    2.4450    0.0000 H   0  0  0  0  0  0  0  0  0  0  0  0
    4.2369    3.2976    0.0000 H   0  0  0  0  0  0  0  0  0  0  0  0
    4.7202   -0.2904    0.0000 H   0  0  0  0  0  0  0  0  0  0  0  0
    4.7201   -1.3604    0.0000 H   0  0  0  0  0  0  0  0  0  0  0  0
    3.2014    1.2282    0.0000 H   0  0  0  0  0  0  0  0  0  0  0  0
    2.1315    1.2281    0.0000 H   0  0  0  0  0  0  0  0  0  0  0  0
    4.7202   -2.1853    0.0000 H   0  0  0  0  0  0  0  0  0  0  0  0
    3.7936   -2.7204    0.0000 H   0  0  0  0  0  0  0  0  0  0  0  0
    1.3065    1.2281    0.0000 H   0  0  0  0  0  0  0  0  0  0  0  0
    1.3065   -0.6251    0.0000 H   0  0  0  0  0  0  0  0  0  0  0  0
    0.7715    0.3015    0.0000 H   0  0  0  0  0  0  0  0  0  0  0  0
    2.0471    1.0160    0.0000 H   0  0  0  0  0  0  0  0  0  0  0  0
    4.8326   -0.5922    0.0000 H   0  0  0  0  0  0  0  0  0  0  0  0
    2.9756    2.6243    0.0000 H   0  0  0  0  0  0  0  0  0  0  0  0
    5.7611    1.0160    0.0000 H   0  0  0  0  0  0  0  0  0  0  0  0
  1 10  2  0  0  0  0
  2 11  2  0  0  0  0
  3 10  1  0  0  0  0
  3 11  1  0  0  0  0
  3 18  1  0  0  0  0
  4 17  1  0  0  0  0
  4 19  1  0  0  0  0
  4 20  1  0  0  0  0
  5  6  1  0  0  0  0
  5  7  1  0  0  0  0
  5  8  1  0  0  0  0
  5 10  1  0  0  0  0
  6  9  1  0  0  0  0
  6 21  1  0  0  0  0
  6 22  1  0  0  0  0
  7 12  1  0  0  0  0
  7 23  1  0  0  0  0
  7 24  1  0  0  0  0
  8 13  2  0  0  0  0
  8 14  1  0  0  0  0
  9 11  1  0  0  0  0
  9 25  1  0  0  0  0
  9 26  1  0  0  0  0
 12 27  1  0  0  0  0
 12 28  1  0  0  0  0
 12 29  1  0  0  0  0
 13 15  1  0  0  0  0
 13 30  1  0  0  0  0
 14 16  2  0  0  0  0
 14 31  1  0  0  0  0
 15 17  2  0  0  0  0
 15 32  1  0  0  0  0
 16 17  1  0  0  0  0
 16 33  1  0  0  0  0
M  END
>  <DRUGBANK_ID>
DB00357

>  <SECONDARY_ACCESSION_NUMBERS>
APRD00592

>  <COMMON_NAME>
Aminoglutethimide

>  <CAS_NUMBER>
125-84-8

>  <UNII>
0O54ZQ14I9

>  <SYNONYMS>
2-(p-Aminophenyl)-2-ethylglutarimide; 3-Ethyl-3-(p-aminophenyl)-2,6-dioxopiperidine; Aminoglutethimid; Aminoglutéthimide; Aminoglutethimide; Aminoglutethimidum; Aminoglutetimida; Aminoglutetimide; DL-Aminoglutethimide; p-Aminoglutethimide; α-(p-Aminophenyl)-α-ethylglutarimide

$$$$
