316
 OpenBabel10282417072D

 20 20  0  0  0  0  0  0  0  0999 V2000
    2.3645   -2.1409    0.0000 O   0  0  0  0  0  0  0  0  0  0  0  0
    3.7934    1.1591    0.0000 O   0  0  0  0  0  0  0  0  0  0  0  0
    2.3645    1.1591    0.0000 N   0  0  0  0  0  0  0  0  0  0  0  0
    2.3645    0.3341    0.0000 C   0  0  0  0  0  0  0  0  0  0  0  0
    3.0790   -0.0784    0.0000 C   0  0  0  0  0  0  0  0  0  0  0  0
    1.6500   -0.0784    0.0000 C   0  0  0  0  0  0  0  0  0  0  0  0
    3.0790   -0.9034    0.0000 C   0  0  0  0  0  0  0  0  0  0  0  0
    1.6500   -0.9034    0.0000 C   0  0  0  0  0  0  0  0  0  0  0  0
    2.3645   -1.3159    0.0000 C   0  0  0  0  0  0  0  0  0  0  0  0
    3.0790    1.5716    0.0000 C   0  0  0  0  0  0  0  0  0  0  0  0
    3.0790    2.3966    0.0000 C   0  0  0  0  0  0  0  0  0  0  0  0
    1.5530   -2.6094    0.0000 H   0  0  0  0  0  0  0  0  0  0  0  0
    1.5119    1.6514    0.0000 H   0  0  0  0  0  0  0  0  0  0  0  0
    3.9727    0.4376    0.0000 H   0  0  0  0  0  0  0  0  0  0  0  0
    0.7563    0.4376    0.0000 H   0  0  0  0  0  0  0  0  0  0  0  0
    3.9727   -1.4194    0.0000 H   0  0  0  0  0  0  0  0  0  0  0  0
    0.7563   -1.4194    0.0000 H   0  0  0  0  0  0  0  0  0  0  0  0
    4.0056    2.9316    0.0000 H   0  0  0  0  0  0  0  0  0  0  0  0
    2.1524    2.9316    0.0000 H   0  0  0  0  0  0  0  0  0  0  0  0
    3.0790    3.4666    0.0000 H   0  0  0  0  0  0  0  0  0  0  0  0
  1  9  1  0  0  0  0
  1 12  1  0  0  0  0
  2 10  2  0  0  0  0
  3  4  1  0  0  0  0
  3 10  1  0  0  0  0
  3 13  1  0  0  0  0
  4  5  2  0  0  0  0
  4  6  1  0  0  0  0
  5  7  1  0  0  0  0
  5 14  1  0  0  0  0
  6  8  2  0  0  0  0
  6 15  1  0  0  0  0
  7  9  2  0  0  0  0
  7 16  1  0  0  0  0
  8  9  1  0  0  0  0
  8 17  1  0  0  0  0
 10 11  1  0  0  0  0
 11 18  1  0  0  0  0
 11 19  1  0  0  0  0
 11 20  1  0  0  0  0
M  END
>  <DRUGBANK_ID>
DB00316

>  <SECONDARY_ACCESSION_NUMBERS>
APRD00252

>  <COMMON_NAME>
Acetaminophen

>  <CAS_NUMBER>
103-90-2

>  <UNII>
362O9ITL9D

>  <SYNONYMS>
4-(Acetylamino)phenol; 4-acetamidophenol; 4'-hydroxyacetanilide; Acenol; Acetaminofén; Acetaminophen; Acétaminophène; APAP; N-acetyl-p-aminophenol; p-acetamidophenol; p-acetaminophenol; p-Acetylaminophenol; p-hydroxy-acetanilid; p-hydroxyacetanilide; p-hydroxyphenolacetamide; Paracétamol; Paracetamol; Paracetamolum

$$$$
