
 OpenBabel10282417072D

 57 58  0  0  1  0  0  0  0  0999 V2000
   -0.4226   -9.5745    0.0000 C   0  0  0  0  0  0  0  0  0  0  0  0
    0.2919   -9.1620    0.0000 O   0  0  0  0  0  0  0  0  0  0  0  0
    1.0063   -9.5745    0.0000 C   0  0  0  0  0  0  0  0  0  0  0  0
    1.0063  -10.3995    0.0000 O   0  0  0  0  0  0  0  0  0  0  0  0
    1.7208   -9.1620    0.0000 C   0  0  0  0  0  0  0  0  0  0  0  0
    2.4353   -9.5745    0.0000 C   0  0  0  0  0  0  0  0  0  0  0  0
    3.1497   -9.1620    0.0000 C   0  0  0  0  0  0  0  0  0  0  0  0
    3.8642   -9.5745    0.0000 C   0  0  0  0  0  0  0  0  0  0  0  0
    4.5787   -9.9870    0.0000 C   0  0  0  0  0  0  0  0  0  0  0  0
    5.2931   -9.5745    0.0000 C   0  0  0  0  0  0  0  0  0  0  0  0
    6.0076   -9.9870    0.0000 C   0  0  1  0  0  0  0  0  0  0  0  0
    6.7613   -9.6515    0.0000 C   0  0  1  0  0  0  0  0  0  0  0  0
    7.3133  -10.2646    0.0000 C   0  0  2  0  0  0  0  0  0  0  0  0
    6.9008  -10.9790    0.0000 C   0  0  0  0  0  0  0  0  0  0  0  0
    6.0939  -10.8075    0.0000 C   0  0  0  0  0  0  0  0  0  0  0  0
    5.4808  -11.3595    0.0000 O   0  0  0  0  0  0  0  0  0  0  0  0
    8.1338  -10.1783    0.0000 O   0  0  0  0  0  0  0  0  0  0  0  0
    6.9328   -8.8445    0.0000 C   0  0  0  0  0  0  0  0  0  0  0  0
    7.7174   -8.5896    0.0000 C   0  0  0  0  0  0  0  0  0  0  0  0
    7.8890   -7.7826    0.0000 C   0  0  1  0  0  0  0  0  0  0  0  0
    8.6736   -7.5276    0.0000 C   0  0  0  0  0  0  0  0  0  0  0  0
    8.8451   -6.7207    0.0000 O   0  0  0  0  0  0  0  0  0  0  0  0
    9.6297   -6.4657    0.0000 C   0  0  0  0  0  0  0  0  0  0  0  0
    9.8013   -5.6588    0.0000 C   0  0  0  0  0  0  0  0  0  0  0  0
   10.5859   -5.4038    0.0000 C   0  0  0  0  0  0  0  0  0  0  0  0
   11.1990   -5.9559    0.0000 C   0  0  0  0  0  0  0  0  0  0  0  0
   11.0275   -6.7628    0.0000 C   0  0  0  0  0  0  0  0  0  0  0  0
   10.2428   -7.0178    0.0000 C   0  0  0  0  0  0  0  0  0  0  0  0
    7.2759   -7.2306    0.0000 O   0  0  0  0  0  0  0  0  0  0  0  0
   -1.3492   -9.0395    0.0000 H   0  0  0  0  0  0  0  0  0  0  0  0
   -0.4226  -10.6445    0.0000 H   0  0  0  0  0  0  0  0  0  0  0  0
   -1.3493  -10.1095    0.0000 H   0  0  0  0  0  0  0  0  0  0  0  0
    1.7208   -8.0920    0.0000 H   0  0  0  0  0  0  0  0  0  0  0  0
    2.6474   -8.6270    0.0000 H   0  0  0  0  0  0  0  0  0  0  0  0
    2.4353  -10.6445    0.0000 H   0  0  0  0  0  0  0  0  0  0  0  0
    3.3620  -10.1095    0.0000 H   0  0  0  0  0  0  0  0  0  0  0  0
    3.1497   -8.1300    0.0000 H   0  0  0  0  0  0  0  0  0  0  0  0
    4.5787  -11.0190    0.0000 H   0  0  0  0  0  0  0  0  0  0  0  0
    5.2931   -8.5045    0.0000 H   0  0  0  0  0  0  0  0  0  0  0  0
    6.2197   -9.0395    0.0000 H   0  0  0  0  0  0  0  0  0  0  0  0
    6.0636   -8.9185    0.0000 H   0  0  0  0  0  0  0  0  0  0  0  0
    5.9298   -8.9781    0.0000 H   0  0  0  0  0  0  0  0  0  0  0  0
    7.6967   -9.2657    0.0000 H   0  0  0  0  0  0  0  0  0  0  0  0
    7.3360  -11.9565    0.0000 H   0  0  0  0  0  0  0  0  0  0  0  0
    6.2274  -11.8105    0.0000 H   0  0  0  0  0  0  0  0  0  0  0  0
    8.7040  -10.9630    0.0000 H   0  0  0  0  0  0  0  0  0  0  0  0
    6.1659   -8.1540    0.0000 H   0  0  0  0  0  0  0  0  0  0  0  0
    8.4843   -9.2802    0.0000 H   0  0  0  0  0  0  0  0  0  0  0  0
    6.8714   -8.1132    0.0000 H   0  0  0  0  0  0  0  0  0  0  0  0
    9.4688   -8.2435    0.0000 H   0  0  0  0  0  0  0  0  0  0  0  0
    9.6912   -7.1969    0.0000 H   0  0  0  0  0  0  0  0  0  0  0  0
    9.0344   -4.9682    0.0000 H   0  0  0  0  0  0  0  0  0  0  0  0
   10.8005   -4.3943    0.0000 H   0  0  0  0  0  0  0  0  0  0  0  0
   12.1805   -5.6370    0.0000 H   0  0  0  0  0  0  0  0  0  0  0  0
   11.7944   -7.4533    0.0000 H   0  0  0  0  0  0  0  0  0  0  0  0
   10.0282   -8.0272    0.0000 H   0  0  0  0  0  0  0  0  0  0  0  0
    7.4775   -6.2818    0.0000 H   0  0  0  0  0  0  0  0  0  0  0  0
  1  2  1  0  0  0  0
  1 30  1  0  0  0  0
  1 31  1  0  0  0  0
  1 32  1  0  0  0  0
  2  3  1  0  0  0  0
  3  4  2  0  0  0  0
  3  5  1  0  0  0  0
  5  6  1  0  0  0  0
  5 33  1  0  0  0  0
  5 34  1  0  0  0  0
  6  7  1  0  0  0  0
  6 35  1  0  0  0  0
  6 36  1  0  0  0  0
  7  8  2  0  0  0  0
  7 37  1  0  0  0  0
  8  9  2  0  0  0  0
  9 10  1  0  0  0  0
  9 38  1  0  0  0  0
 10 39  1  0  0  0  0
 10 40  1  0  0  0  0
 11 10  1  0  0  0  0
 11 12  1  0  0  0  0
 11 15  1  0  0  0  0
 11 41  1  6  0  0  0
 12 13  1  0  0  0  0
 12 18  1  0  0  0  0
 12 42  1  1  0  0  0
 13 14  1  0  0  0  0
 13 17  1  0  0  0  0
 13 43  1  6  0  0  0
 14 15  1  0  0  0  0
 14 44  1  0  0  0  0
 14 45  1  0  0  0  0
 15 16  2  0  0  0  0
 17 46  1  0  0  0  0
 18 19  2  0  0  0  0
 18 47  1  0  0  0  0
 19 20  1  0  0  0  0
 19 48  1  0  0  0  0
 20 21  1  0  0  0  0
 20 29  1  0  0  0  0
 20 49  1  1  0  0  0
 21 22  1  0  0  0  0
 21 50  1  0  0  0  0
 21 51  1  0  0  0  0
 22 23  1  0  0  0  0
 23 24  2  0  0  0  0
 23 28  1  0  0  0  0
 24 25  1  0  0  0  0
 24 52  1  0  0  0  0
 25 26  2  0  0  0  0
 25 53  1  0  0  0  0
 26 27  1  0  0  0  0
 26 54  1  0  0  0  0
 27 28  2  0  0  0  0
 27 55  1  0  0  0  0
 28 56  1  0  0  0  0
 29 57  1  0  0  0  0
M  END
>  <DRUGBANK_ID>
DB13824

>  <COMMON_NAME>
Enprostil

>  <CAS_NUMBER>
73121-56-9

>  <UNII>
J4IP5Z9DAU

>  <SYNONYMS>
Enprostil

$$$$
