
 OpenBabel10282417072D

 50 50  0  0  0  0  0  0  0  0999 V2000
    2.8463    1.7054    0.0000 C   0  0  2  0  0  0  0  0  0  0  0  0
    2.4265    2.4146    0.0000 C   0  0  0  0  0  0  0  0  0  0  0  0
    3.2467    2.4193    0.0000 C   0  0  0  0  0  0  0  0  0  0  0  0
    2.8560    0.8804    0.0000 C   0  0  0  0  0  0  0  0  0  0  0  0
    2.1468    0.4655    0.0000 N   0  0  0  0  0  0  0  0  0  0  0  0
    2.1468   -0.3594    0.0000 C   0  0  0  0  0  0  0  0  0  0  0  0
    2.8608   -0.7742    0.0000 C   0  0  0  0  0  0  0  0  0  0  0  0
   -2.1420   -2.0044    0.0000 C   0  0  0  0  0  0  0  0  0  0  0  0
   -2.8608   -1.5896    0.0000 C   0  0  1  0  0  0  0  0  0  0  0  0
    3.5699    0.4800    0.0000 O   0  0  0  0  0  0  0  0  0  0  0  0
    3.5699   -0.3642    0.0000 O   0  0  0  0  0  0  0  0  0  0  0  0
    2.8560   -1.5992    0.0000 O   0  0  0  0  0  0  0  0  0  0  0  0
   -2.1420   -2.8294    0.0000 O   0  0  0  0  0  0  0  0  0  0  0  0
    1.4279   -0.7742    0.0000 C   0  0  0  0  0  0  0  0  0  0  0  0
   -3.5699   -2.0044    0.0000 N   0  0  0  0  0  0  0  0  0  0  0  0
   -1.4328   -1.5896    0.0000 O   0  0  0  0  0  0  0  0  0  0  0  0
    1.7078    2.0140    0.0000 C   0  0  0  0  0  0  0  0  0  0  0  0
    1.7078    2.8294    0.0000 C   0  0  0  0  0  0  0  0  0  0  0  0
   -2.1420   -0.3545    0.0000 S   0  0  0  0  0  0  0  0  0  0  0  0
   -2.8608   -0.7646    0.0000 C   0  0  0  0  0  0  0  0  0  0  0  0
    0.7140   -0.3594    0.0000 C   0  0  0  0  0  0  0  0  0  0  0  0
   -1.4328   -0.7694    0.0000 C   0  0  0  0  0  0  0  0  0  0  0  0
    0.0000   -0.7694    0.0000 C   0  0  0  0  0  0  0  0  0  0  0  0
   -0.7140   -0.3545    0.0000 C   0  0  0  0  0  0  0  0  0  0  0  0
    1.8160    1.4168    0.0000 H   0  0  0  0  0  0  0  0  0  0  0  0
    4.1684    2.9627    0.0000 H   0  0  0  0  0  0  0  0  0  0  0  0
    2.9621    3.4508    0.0000 H   0  0  0  0  0  0  0  0  0  0  0  0
    1.2928    0.9553    0.0000 H   0  0  0  0  0  0  0  0  0  0  0  0
   -1.9342   -1.0545    0.0000 H   0  0  0  0  0  0  0  0  0  0  0  0
    4.3817   -0.8322    0.0000 H   0  0  0  0  0  0  0  0  0  0  0  0
    1.4263   -1.8062    0.0000 H   0  0  0  0  0  0  0  0  0  0  0  0
   -4.4561   -1.4994    0.0000 H   0  0  0  0  0  0  0  0  0  0  0  0
   -3.5641   -3.0244    0.0000 H   0  0  0  0  0  0  0  0  0  0  0  0
   -0.6187   -2.0535    0.0000 H   0  0  0  0  0  0  0  0  0  0  0  0
    0.7893    2.5629    0.0000 H   0  0  0  0  0  0  0  0  0  0  0  0
    1.6916    0.9441    0.0000 H   0  0  0  0  0  0  0  0  0  0  0  0
    0.7732    1.4930    0.0000 H   0  0  0  0  0  0  0  0  0  0  0  0
    1.7076    3.8994    0.0000 H   0  0  0  0  0  0  0  0  0  0  0  0
    0.7812    2.2943    0.0000 H   0  0  0  0  0  0  0  0  0  0  0  0
    0.7811    3.3643    0.0000 H   0  0  0  0  0  0  0  0  0  0  0  0
   -3.7861   -0.2272    0.0000 H   0  0  0  0  0  0  0  0  0  0  0  0
   -2.8567    0.3054    0.0000 H   0  0  0  0  0  0  0  0  0  0  0  0
    0.7167    0.7106    0.0000 H   0  0  0  0  0  0  0  0  0  0  0  0
   -0.2113    0.1779    0.0000 H   0  0  0  0  0  0  0  0  0  0  0  0
   -1.4359   -1.8394    0.0000 H   0  0  0  0  0  0  0  0  0  0  0  0
   -0.5070   -1.3058    0.0000 H   0  0  0  0  0  0  0  0  0  0  0  0
   -0.0028   -1.8394    0.0000 H   0  0  0  0  0  0  0  0  0  0  0  0
   -0.9281   -1.3019    0.0000 H   0  0  0  0  0  0  0  0  0  0  0  0
   -0.7124    0.7155    0.0000 H   0  0  0  0  0  0  0  0  0  0  0  0
    0.2138    0.1785    0.0000 H   0  0  0  0  0  0  0  0  0  0  0  0
  1  4  1  0  0  0  0
  1 25  1  1  0  0  0
  2  1  1  0  0  0  0
  3  1  1  0  0  0  0
  3  2  1  0  0  0  0
  3 26  1  0  0  0  0
  3 27  1  0  0  0  0
  5  4  1  0  0  0  0
  5 28  1  0  0  0  0
  6  5  1  0  0  0  0
  7  6  1  0  0  0  0
  8  9  1  0  0  0  0
  9 20  1  0  0  0  0
  9 29  1  6  0  0  0
 10  4  2  0  0  0  0
 11  7  1  0  0  0  0
 11 30  1  0  0  0  0
 12  7  2  0  0  0  0
 13  8  2  0  0  0  0
 14  6  2  0  0  0  0
 14 31  1  0  0  0  0
 15  9  1  0  0  0  0
 15 32  1  0  0  0  0
 15 33  1  0  0  0  0
 16  8  1  0  0  0  0
 16 34  1  0  0  0  0
 17  2  1  0  0  0  0
 17 35  1  0  0  0  0
 17 36  1  0  0  0  0
 17 37  1  0  0  0  0
 18  2  1  0  0  0  0
 18 38  1  0  0  0  0
 18 39  1  0  0  0  0
 18 40  1  0  0  0  0
 19 22  1  0  0  0  0
 20 19  1  0  0  0  0
 20 41  1  0  0  0  0
 20 42  1  0  0  0  0
 21 14  1  0  0  0  0
 21 43  1  0  0  0  0
 21 44  1  0  0  0  0
 22 24  1  0  0  0  0
 22 45  1  0  0  0  0
 22 46  1  0  0  0  0
 23 21  1  0  0  0  0
 23 47  1  0  0  0  0
 23 48  1  0  0  0  0
 24 23  1  0  0  0  0
 24 49  1  0  0  0  0
 24 50  1  0  0  0  0
M  END
>  <DRUGBANK_ID>
DB01597

>  <SECONDARY_ACCESSION_NUMBERS>
EXPT00918

>  <COMMON_NAME>
Cilastatin

>  <CAS_NUMBER>
82009-34-5

>  <UNII>
141A6AMN38

>  <SYNONYMS>
(L)-7-(2-Amino-2-carboxy-ethylsulfanyl)-2-[(2,2-dimethyl-cyclopropanecarbonyl)-amino]-hept-2-enoic acid; (Z)-(S)-6-carboxy-6-[(S)-2,2-dimethylcyclopropanecarboxamido]hex-5-enyl-L-cysteine; (Z)-7-((R)-2-Amino-2-carboxy-ethylsulfanyl)-2-[((S)-2,2-dimethyl-cyclopropanecarbonyl)-amino]-hept-2-enoic acid; Cilastatin; Cilastatina; Cilastatine; Cilastatinum

$$$$
