
 OpenBabel10282417072D

122128  0  0  0  0  0  0  0  0999 V2000
   -6.1060    2.7621    0.0000 C   0  0  0  0  0  0  0  0  0  0  0  0
   -6.1060    1.9314    0.0000 C   0  0  0  0  0  0  0  0  0  0  0  0
   -5.3583    1.5160    0.0000 C   0  0  0  0  0  0  0  0  0  0  0  0
   -4.6522    1.9314    0.0000 C   0  0  0  0  0  0  0  0  0  0  0  0
   -4.6522    2.7621    0.0000 C   0  0  0  0  0  0  0  0  0  0  0  0
   -5.3583    3.1775    0.0000 C   0  0  0  0  0  0  0  0  0  0  0  0
   -3.9461    1.5160    0.0000 C   0  0  0  0  0  0  0  0  0  0  0  0
   -3.1984    1.9314    0.0000 C   0  0  0  0  0  0  0  0  0  0  0  0
   -3.1984    2.7621    0.0000 C   0  0  1  0  0  0  0  0  0  0  0  0
   -3.9461    3.1775    0.0000 C   0  0  1  0  0  0  0  0  0  0  0  0
   -2.4922    1.5160    0.0000 C   0  0  0  0  0  0  0  0  0  0  0  0
   -1.7860    1.9314    0.0000 C   0  0  1  0  0  0  0  0  0  0  0  0
   -1.7860    2.7621    0.0000 C   0  0  1  0  0  0  0  0  0  0  0  0
   -2.4922    3.1775    0.0000 C   0  0  0  0  0  0  0  0  0  0  0  0
   -1.0384    1.5160    0.0000 C   0  0  0  0  0  0  0  0  0  0  0  0
   -0.3323    1.9314    0.0000 C   0  0  0  0  0  0  0  0  0  0  0  0
   -0.3323    2.7621    0.0000 C   0  0  0  0  0  0  0  0  0  0  0  0
   -1.0384    3.1775    0.0000 C   0  0  1  0  0  0  0  0  0  0  0  0
   -5.3583    0.6853    0.0000 O   0  0  0  0  0  0  0  0  0  0  0  0
   -2.4922    0.6853    0.0000 O   0  0  0  0  0  0  0  0  0  0  0  0
   -3.9461    0.6853    0.0000 O   0  0  0  0  0  0  0  0  0  0  0  0
   -1.0384    0.6853    0.0000 O   0  0  0  0  0  0  0  0  0  0  0  0
    0.3739    1.5160    0.0000 C   0  0  0  0  0  0  0  0  0  0  0  0
    1.1215    1.9314    0.0000 N   0  0  0  0  0  0  0  0  0  0  0  0
    0.3739    3.1775    0.0000 O   0  0  0  0  0  0  0  0  0  0  0  0
    0.3739    0.6853    0.0000 O   0  0  0  0  0  0  0  0  0  0  0  0
    1.8277    1.5160    0.0000 C   0  0  0  0  0  0  0  0  0  0  0  0
    2.5337    1.8898    0.0000 N   0  0  0  0  0  0  0  0  0  0  0  0
    3.2399    1.5160    0.0000 C   0  0  0  0  0  0  0  0  0  0  0  0
    3.9461    1.9314    0.0000 C   0  0  0  0  0  0  0  0  0  0  0  0
    3.9461    2.7621    0.0000 N   0  0  0  0  0  0  0  0  0  0  0  0
    3.2399    3.1775    0.0000 C   0  0  0  0  0  0  0  0  0  0  0  0
    2.5337    2.7621    0.0000 C   0  0  0  0  0  0  0  0  0  0  0  0
    4.6938    3.1775    0.0000 C   0  0  0  0  0  0  0  0  0  0  0  0
    5.3999    2.7621    0.0000 C   0  0  0  0  0  0  0  0  0  0  0  0
    6.1060    3.1775    0.0000 O   0  0  0  0  0  0  0  0  0  0  0  0
   -1.0384    4.0083    0.0000 N   0  0  0  0  0  0  0  0  0  0  0  0
   -1.7860    4.4235    0.0000 C   0  0  0  0  0  0  0  0  0  0  0  0
   -0.3323    4.4235    0.0000 C   0  0  0  0  0  0  0  0  0  0  0  0
   -1.7860    1.1005    0.0000 O   0  0  0  0  0  0  0  0  0  0  0  0
   -1.7860    3.5928    0.0000 H   0  0  0  0  0  0  0  0  0  0  0  0
   -3.1984    3.5928    0.0000 H   0  0  0  0  0  0  0  0  0  0  0  0
   -3.9461    4.0083    0.0000 C   0  0  0  0  0  0  0  0  0  0  0  0
   -4.6522    3.5928    0.0000 O   0  0  0  0  0  0  0  0  0  0  0  0
    1.2144   -1.8897    0.0000 C   0  0  2  0  0  0  0  0  0  0  0  0
    1.2144   -2.7205    0.0000 C   0  0  0  0  0  0  0  0  0  0  0  0
    2.0452   -2.7205    0.0000 N   0  0  0  0  0  0  0  0  0  0  0  0
    2.0452   -1.8897    0.0000 C   0  0  2  0  0  0  0  0  0  0  0  0
    2.8344   -2.9697    0.0000 C   0  0  2  0  0  0  0  0  0  0  0  0
    3.3328   -2.3050    0.0000 C   0  0  0  0  0  0  0  0  0  0  0  0
    2.8344   -1.6405    0.0000 S   0  0  0  0  0  0  0  0  0  0  0  0
    3.9142   -2.8866    0.0000 C   0  0  0  0  0  0  0  0  0  0  0  0
    3.9142   -1.7236    0.0000 C   0  0  0  0  0  0  0  0  0  0  0  0
    3.1252   -3.7590    0.0000 C   0  0  0  0  0  0  0  0  0  0  0  0
    3.9558   -3.7590    0.0000 O   0  0  0  0  0  0  0  0  0  0  0  0
    2.6266   -4.4235    0.0000 O   0  0  0  0  0  0  0  0  0  0  0  0
    2.0452   -1.0589    0.0000 H   0  0  0  0  0  0  0  0  0  0  0  0
    0.5082   -1.4744    0.0000 N   0  0  0  0  0  0  0  0  0  0  0  0
   -0.1978   -1.8897    0.0000 C   0  0  0  0  0  0  0  0  0  0  0  0
    0.5082   -3.1359    0.0000 O   0  0  0  0  0  0  0  0  0  0  0  0
   -0.1978   -2.7205    0.0000 O   0  0  0  0  0  0  0  0  0  0  0  0
   -0.9040   -1.4744    0.0000 C   0  0  0  0  0  0  0  0  0  0  0  0
   -1.6102   -1.8897    0.0000 O   0  0  0  0  0  0  0  0  0  0  0  0
   -2.3578   -1.4744    0.0000 C   0  0  0  0  0  0  0  0  0  0  0  0
   -2.3578   -0.6436    0.0000 C   0  0  0  0  0  0  0  0  0  0  0  0
   -3.0640   -0.2282    0.0000 C   0  0  0  0  0  0  0  0  0  0  0  0
   -3.7701   -0.6436    0.0000 C   0  0  0  0  0  0  0  0  0  0  0  0
   -3.7701   -1.4744    0.0000 C   0  0  0  0  0  0  0  0  0  0  0  0
   -3.0640   -1.8897    0.0000 C   0  0  0  0  0  0  0  0  0  0  0  0
   -6.9955    3.2855    0.0000 H   0  0  0  0  0  0  0  0  0  0  0  0
   -6.9955    1.4080    0.0000 H   0  0  0  0  0  0  0  0  0  0  0  0
   -5.3456    4.2094    0.0000 H   0  0  0  0  0  0  0  0  0  0  0  0
   -2.4922    4.2475    0.0000 H   0  0  0  0  0  0  0  0  0  0  0  0
   -3.4210    3.7087    0.0000 H   0  0  0  0  0  0  0  0  0  0  0  0
   -0.1096    3.7087    0.0000 H   0  0  0  0  0  0  0  0  0  0  0  0
   -6.1698    0.2168    0.0000 H   0  0  0  0  0  0  0  0  0  0  0  0
   -3.3037    0.2168    0.0000 H   0  0  0  0  0  0  0  0  0  0  0  0
    1.1336    2.9158    0.0000 H   0  0  0  0  0  0  0  0  0  0  0  0
    1.1891    2.7156    0.0000 H   0  0  0  0  0  0  0  0  0  0  0  0
    1.8037    0.4463    0.0000 H   0  0  0  0  0  0  0  0  0  0  0  0
    2.7382    0.9539    0.0000 H   0  0  0  0  0  0  0  0  0  0  0  0
    3.2639    0.4463    0.0000 H   0  0  0  0  0  0  0  0  0  0  0  0
    4.1746    0.9952    0.0000 H   0  0  0  0  0  0  0  0  0  0  0  0
    4.8749    1.4002    0.0000 H   0  0  0  0  0  0  0  0  0  0  0  0
    4.8717    2.4683    0.0000 H   0  0  0  0  0  0  0  0  0  0  0  0
    3.2399    4.2475    0.0000 H   0  0  0  0  0  0  0  0  0  0  0  0
    2.3111    3.7087    0.0000 H   0  0  0  0  0  0  0  0  0  0  0  0
    1.6049    3.2933    0.0000 H   0  0  0  0  0  0  0  0  0  0  0  0
    1.6081    2.2252    0.0000 H   0  0  0  0  0  0  0  0  0  0  0  0
    4.7070    4.2474    0.0000 H   0  0  0  0  0  0  0  0  0  0  0  0
    5.6259    3.7030    0.0000 H   0  0  0  0  0  0  0  0  0  0  0  0
    5.3999    1.6921    0.0000 H   0  0  0  0  0  0  0  0  0  0  0  0
    6.3287    2.2309    0.0000 H   0  0  0  0  0  0  0  0  0  0  0  0
    6.9500    2.6994    0.0000 H   0  0  0  0  0  0  0  0  0  0  0  0
   -1.8038    5.4934    0.0000 H   0  0  0  0  0  0  0  0  0  0  0  0
   -2.7036    3.8732    0.0000 H   0  0  0  0  0  0  0  0  0  0  0  0
   -2.7214    4.9430    0.0000 H   0  0  0  0  0  0  0  0  0  0  0  0
    0.5986    3.8959    0.0000 H   0  0  0  0  0  0  0  0  0  0  0  0
   -0.3408    5.4935    0.0000 H   0  0  0  0  0  0  0  0  0  0  0  0
    0.5901    4.9659    0.0000 H   0  0  0  0  0  0  0  0  0  0  0  0
   -2.6260    0.6155    0.0000 H   0  0  0  0  0  0  0  0  0  0  0  0
   -3.0195    4.5433    0.0000 H   0  0  0  0  0  0  0  0  0  0  0  0
   -4.8727    4.5433    0.0000 H   0  0  0  0  0  0  0  0  0  0  0  0
   -3.9461    5.0783    0.0000 H   0  0  0  0  0  0  0  0  0  0  0  0
   -4.6444    4.5628    0.0000 H   0  0  0  0  0  0  0  0  0  0  0  0
    0.2856   -2.4210    0.0000 H   0  0  0  0  0  0  0  0  0  0  0  0
    2.0958   -3.7439    0.0000 H   0  0  0  0  0  0  0  0  0  0  0  0
    3.6371   -3.9201    0.0000 H   0  0  0  0  0  0  0  0  0  0  0  0
    4.9478   -2.6098    0.0000 H   0  0  0  0  0  0  0  0  0  0  0  0
    4.6707   -3.6433    0.0000 H   0  0  0  0  0  0  0  0  0  0  0  0
    4.9477   -2.0005    0.0000 H   0  0  0  0  0  0  0  0  0  0  0  0
    3.6373   -0.6901    0.0000 H   0  0  0  0  0  0  0  0  0  0  0  0
    4.6708   -0.9670    0.0000 H   0  0  0  0  0  0  0  0  0  0  0  0
    4.4243   -4.5705    0.0000 H   0  0  0  0  0  0  0  0  0  0  0  0
    0.5081   -0.4899    0.0000 H   0  0  0  0  0  0  0  0  0  0  0  0
   -0.9040   -0.4044    0.0000 H   0  0  0  0  0  0  0  0  0  0  0  0
   -1.8328   -0.9431    0.0000 H   0  0  0  0  0  0  0  0  0  0  0  0
   -1.4620   -0.1312    0.0000 H   0  0  0  0  0  0  0  0  0  0  0  0
   -3.0640    0.8038    0.0000 H   0  0  0  0  0  0  0  0  0  0  0  0
   -4.6659   -0.1313    0.0000 H   0  0  0  0  0  0  0  0  0  0  0  0
   -4.6659   -1.9868    0.0000 H   0  0  0  0  0  0  0  0  0  0  0  0
   -3.0640   -2.9217    0.0000 H   0  0  0  0  0  0  0  0  0  0  0  0
  1  2  2  0  0  0  0
  1  6  1  0  0  0  0
  1 70  1  0  0  0  0
  2  3  1  0  0  0  0
  2 71  1  0  0  0  0
  3  4  2  0  0  0  0
  3 19  1  0  0  0  0
  4  5  1  0  0  0  0
  4  7  1  0  0  0  0
  5  6  2  0  0  0  0
  5 10  1  0  0  0  0
  6 72  1  0  0  0  0
  7  8  1  0  0  0  0
  7 21  2  0  0  0  0
  8  9  1  0  0  0  0
  8 11  2  0  0  0  0
  9 10  1  0  0  0  0
  9 14  1  0  0  0  0
  9 42  1  6  0  0  0
 10 43  1  0  0  0  0
 10 44  1  1  0  0  0
 11 12  1  0  0  0  0
 11 20  1  0  0  0  0
 12 13  1  0  0  0  0
 12 15  1  0  0  0  0
 12 40  1  6  0  0  0
 13 14  1  0  0  0  0
 13 18  1  0  0  0  0
 13 41  1  6  0  0  0
 14 73  1  0  0  0  0
 14 74  1  0  0  0  0
 15 16  1  0  0  0  0
 15 22  2  0  0  0  0
 16 17  2  0  0  0  0
 16 23  1  0  0  0  0
 17 18  1  0  0  0  0
 17 25  1  0  0  0  0
 18 37  1  0  0  0  0
 18 75  1  1  0  0  0
 19 76  1  0  0  0  0
 20 77  1  0  0  0  0
 23 24  1  0  0  0  0
 23 26  2  0  0  0  0
 24 27  1  0  0  0  0
 24 78  1  0  0  0  0
 25 79  1  0  0  0  0
 27 28  1  0  0  0  0
 27 80  1  0  0  0  0
 27 81  1  0  0  0  0
 28 29  1  0  0  0  0
 28 33  1  0  0  0  0
 29 30  1  0  0  0  0
 29 82  1  0  0  0  0
 29 83  1  0  0  0  0
 30 31  1  0  0  0  0
 30 84  1  0  0  0  0
 30 85  1  0  0  0  0
 31 32  1  0  0  0  0
 31 34  1  0  0  0  0
 32 33  1  0  0  0  0
 32 86  1  0  0  0  0
 32 87  1  0  0  0  0
 33 88  1  0  0  0  0
 33 89  1  0  0  0  0
 34 35  1  0  0  0  0
 34 90  1  0  0  0  0
 34 91  1  0  0  0  0
 35 36  1  0  0  0  0
 35 92  1  0  0  0  0
 35 93  1  0  0  0  0
 36 94  1  0  0  0  0
 37 38  1  0  0  0  0
 37 39  1  0  0  0  0
 38 95  1  0  0  0  0
 38 96  1  0  0  0  0
 38 97  1  0  0  0  0
 39 98  1  0  0  0  0
 39 99  1  0  0  0  0
 39100  1  0  0  0  0
 40101  1  0  0  0  0
 43102  1  0  0  0  0
 43103  1  0  0  0  0
 43104  1  0  0  0  0
 44105  1  0  0  0  0
 45 46  1  0  0  0  0
 45 48  1  0  0  0  0
 45 58  1  0  0  0  0
 45106  1  6  0  0  0
 46 47  1  0  0  0  0
 46 60  2  0  0  0  0
 47 48  1  0  0  0  0
 47 49  1  0  0  0  0
 48 51  1  0  0  0  0
 48 57  1  6  0  0  0
 49 50  1  0  0  0  0
 49 54  1  0  0  0  0
 49107  1  1  0  0  0
 50 51  1  0  0  0  0
 50 52  1  0  0  0  0
 50 53  1  0  0  0  0
 52108  1  0  0  0  0
 52109  1  0  0  0  0
 52110  1  0  0  0  0
 53111  1  0  0  0  0
 53112  1  0  0  0  0
 53113  1  0  0  0  0
 54 55  1  0  0  0  0
 54 56  2  0  0  0  0
 55114  1  0  0  0  0
 58 59  1  0  0  0  0
 58115  1  0  0  0  0
 59 61  2  0  0  0  0
 59 62  1  0  0  0  0
 62 63  1  0  0  0  0
 62116  1  0  0  0  0
 62117  1  0  0  0  0
 63 64  1  0  0  0  0
 64 65  2  0  0  0  0
 64 69  1  0  0  0  0
 65 66  1  0  0  0  0
 65118  1  0  0  0  0
 66 67  2  0  0  0  0
 66119  1  0  0  0  0
 67 68  1  0  0  0  0
 67120  1  0  0  0  0
 68 69  2  0  0  0  0
 68121  1  0  0  0  0
 69122  1  0  0  0  0
M  END
>  <DRUGBANK_ID>
DB13264

>  <COMMON_NAME>
Penimepicycline

>  <CAS_NUMBER>
4599-60-4

>  <UNII>
3RGQ4B6E87

>  <SYNONYMS>
Duamine; Hydrocycline; Mepicycline penicillinate; Penetracyne; Penimepiciclina; Penimepicycline; Pénimépicycline; Penimepicyclinum; Pipacycline-penicillin V; Pipacycline/penicillin V

$$$$
