HWG
 OpenBabel10282417072D

 57 59  0  0  0  0  0  0  0  0999 V2000
    1.7584   -2.7399    0.0000 C   0  0  0  0  0  0  0  0  0  0  0  0
    1.0439   -2.3274    0.0000 C   0  0  0  0  0  0  0  0  0  0  0  0
    1.0439   -1.5024    0.0000 C   0  0  0  0  0  0  0  0  0  0  0  0
    1.7584   -1.0899    0.0000 C   0  0  0  0  0  0  0  0  0  0  0  0
    2.4729   -1.5024    0.0000 C   0  0  0  0  0  0  0  0  0  0  0  0
    2.4729   -2.3274    0.0000 C   0  0  0  0  0  0  0  0  0  0  0  0
   -1.0995    2.2101    0.0000 C   0  0  0  0  0  0  0  0  0  0  0  0
   -1.8140    2.6226    0.0000 C   0  0  0  0  0  0  0  0  0  0  0  0
   -2.5284    2.2101    0.0000 C   0  0  0  0  0  0  0  0  0  0  0  0
   -2.5284    1.3851    0.0000 C   0  0  0  0  0  0  0  0  0  0  0  0
   -1.8140    0.9726    0.0000 C   0  0  0  0  0  0  0  0  0  0  0  0
   -1.0995    1.3851    0.0000 C   0  0  0  0  0  0  0  0  0  0  0  0
   -3.2429    2.6226    0.0000 O   0  0  0  0  0  0  0  0  0  0  0  0
   -3.9574    2.2101    0.0000 C   0  0  0  0  0  0  0  0  0  0  0  0
   -3.9574    1.3851    0.0000 C   0  0  0  0  0  0  0  0  0  0  0  0
   -3.2429    0.9726    0.0000 O   0  0  0  0  0  0  0  0  0  0  0  0
    1.7584   -3.5649    0.0000 C   0  0  0  0  0  0  0  0  0  0  0  0
    3.1873   -1.0899    0.0000 C   0  0  0  0  0  0  0  0  0  0  0  0
   -1.8140    0.1476    0.0000 C   0  0  0  0  0  0  0  0  0  0  0  0
    0.3294   -1.0899    0.0000 C   0  0  0  0  0  0  0  0  0  0  0  0
   -0.3850    0.9726    0.0000 C   0  0  0  0  0  0  0  0  0  0  0  0
    0.3294   -0.2649    0.0000 N   0  0  0  0  0  0  0  0  0  0  0  0
   -0.3850    0.1476    0.0000 N   0  0  0  0  0  0  0  0  0  0  0  0
   -0.3850   -1.5024    0.0000 O   0  0  0  0  0  0  0  0  0  0  0  0
    0.3294    1.3851    0.0000 O   0  0  0  0  0  0  0  0  0  0  0  0
    1.0439    0.1476    0.0000 C   0  0  0  0  0  0  0  0  0  0  0  0
    1.4564   -0.5668    0.0000 C   0  0  0  0  0  0  0  0  0  0  0  0
    0.6314    0.8621    0.0000 C   0  0  0  0  0  0  0  0  0  0  0  0
    1.7584    0.5601    0.0000 C   0  0  0  0  0  0  0  0  0  0  0  0
    0.1502   -2.8434    0.0000 H   0  0  0  0  0  0  0  0  0  0  0  0
    1.7584   -0.0579    0.0000 H   0  0  0  0  0  0  0  0  0  0  0  0
    3.3666   -2.8434    0.0000 H   0  0  0  0  0  0  0  0  0  0  0  0
   -0.2058    2.7261    0.0000 H   0  0  0  0  0  0  0  0  0  0  0  0
   -1.8140    3.6546    0.0000 H   0  0  0  0  0  0  0  0  0  0  0  0
   -4.8840    2.7451    0.0000 H   0  0  0  0  0  0  0  0  0  0  0  0
   -4.8840    1.6751    0.0000 H   0  0  0  0  0  0  0  0  0  0  0  0
   -4.8840    0.8501    0.0000 H   0  0  0  0  0  0  0  0  0  0  0  0
   -3.9574    0.3151    0.0000 H   0  0  0  0  0  0  0  0  0  0  0  0
    0.8318   -4.0999    0.0000 H   0  0  0  0  0  0  0  0  0  0  0  0
    2.6850   -4.0999    0.0000 H   0  0  0  0  0  0  0  0  0  0  0  0
    1.7584   -4.6349    0.0000 H   0  0  0  0  0  0  0  0  0  0  0  0
    4.1140   -1.6249    0.0000 H   0  0  0  0  0  0  0  0  0  0  0  0
    3.1873   -0.0199    0.0000 H   0  0  0  0  0  0  0  0  0  0  0  0
    4.1139   -0.5549    0.0000 H   0  0  0  0  0  0  0  0  0  0  0  0
   -2.7406   -0.3874    0.0000 H   0  0  0  0  0  0  0  0  0  0  0  0
   -0.8874   -0.3874    0.0000 H   0  0  0  0  0  0  0  0  0  0  0  0
   -1.8140   -0.9224    0.0000 H   0  0  0  0  0  0  0  0  0  0  0  0
   -1.2376   -0.3446    0.0000 H   0  0  0  0  0  0  0  0  0  0  0  0
    0.9214   -1.4935    0.0000 H   0  0  0  0  0  0  0  0  0  0  0  0
    2.5264   -0.5668    0.0000 H   0  0  0  0  0  0  0  0  0  0  0  0
    1.9914   -1.4934    0.0000 H   0  0  0  0  0  0  0  0  0  0  0  0
    1.1664    1.7887    0.0000 H   0  0  0  0  0  0  0  0  0  0  0  0
   -0.4386    0.8621    0.0000 H   0  0  0  0  0  0  0  0  0  0  0  0
    0.0964    1.7888    0.0000 H   0  0  0  0  0  0  0  0  0  0  0  0
    2.6850    0.0251    0.0000 H   0  0  0  0  0  0  0  0  0  0  0  0
    1.7584    1.6301    0.0000 H   0  0  0  0  0  0  0  0  0  0  0  0
    2.6851    1.0951    0.0000 H   0  0  0  0  0  0  0  0  0  0  0  0
  1  2  2  0  0  0  0
  1  6  1  0  0  0  0
  1 17  1  0  0  0  0
  2  3  1  0  0  0  0
  2 30  1  0  0  0  0
  3  4  2  0  0  0  0
  3 20  1  0  0  0  0
  4  5  1  0  0  0  0
  4 31  1  0  0  0  0
  5  6  2  0  0  0  0
  5 18  1  0  0  0  0
  6 32  1  0  0  0  0
  7  8  2  0  0  0  0
  7 12  1  0  0  0  0
  7 33  1  0  0  0  0
  8  9  1  0  0  0  0
  8 34  1  0  0  0  0
  9 10  2  0  0  0  0
  9 13  1  0  0  0  0
 10 11  1  0  0  0  0
 10 16  1  0  0  0  0
 11 12  2  0  0  0  0
 11 19  1  0  0  0  0
 12 21  1  0  0  0  0
 13 14  1  0  0  0  0
 14 15  1  0  0  0  0
 14 35  1  0  0  0  0
 14 36  1  0  0  0  0
 15 16  1  0  0  0  0
 15 37  1  0  0  0  0
 15 38  1  0  0  0  0
 17 39  1  0  0  0  0
 17 40  1  0  0  0  0
 17 41  1  0  0  0  0
 18 42  1  0  0  0  0
 18 43  1  0  0  0  0
 18 44  1  0  0  0  0
 19 45  1  0  0  0  0
 19 46  1  0  0  0  0
 19 47  1  0  0  0  0
 20 22  1  0  0  0  0
 20 24  2  0  0  0  0
 21 23  1  0  0  0  0
 21 25  2  0  0  0  0
 22 23  1  0  0  0  0
 22 26  1  0  0  0  0
 23 48  1  0  0  0  0
 26 27  1  0  0  0  0
 26 28  1  0  0  0  0
 26 29  1  0  0  0  0
 27 49  1  0  0  0  0
 27 50  1  0  0  0  0
 27 51  1  0  0  0  0
 28 52  1  0  0  0  0
 28 53  1  0  0  0  0
 28 54  1  0  0  0  0
 29 55  1  0  0  0  0
 29 56  1  0  0  0  0
 29 57  1  0  0  0  0
M  END
>  <DRUGBANK_ID>
DB07929

>  <COMMON_NAME>
N-(TERT-BUTYL)-3,5-DIMETHYL-N'-[(5-METHYL-2,3-DIHYDRO-1,4-BENZODIOXIN-6-YL)CARBONYL]BENZOHYDRAZIDE

$$$$
