
 OpenBabel10282417072D

 62 65  0  0  0  0  0  0  0  0999 V2000
   -5.7158   11.5500    0.0000 C   0  0  0  0  0  0  0  0  0  0  0  0
   -5.0013   11.1375    0.0000 C   0  0  0  0  0  0  0  0  0  0  0  0
   -4.2868   11.5500    0.0000 C   0  0  0  0  0  0  0  0  0  0  0  0
   -3.5724   11.1375    0.0000 C   0  0  0  0  0  0  0  0  0  0  0  0
   -3.5724   10.3125    0.0000 C   0  0  0  0  0  0  0  0  0  0  0  0
   -4.2868    9.9000    0.0000 C   0  0  0  0  0  0  0  0  0  0  0  0
   -5.0013   10.3125    0.0000 N   0  0  0  0  0  0  0  0  0  0  0  0
   -2.8579    9.9000    0.0000 O   0  0  0  0  0  0  0  0  0  0  0  0
   -2.8579    9.0750    0.0000 C   0  0  0  0  0  0  0  0  0  0  0  0
   -2.1434    8.6625    0.0000 C   0  0  0  0  0  0  0  0  0  0  0  0
   -2.1434    7.8375    0.0000 C   0  0  0  0  0  0  0  0  0  0  0  0
   -2.8579    7.4250    0.0000 C   0  0  0  0  0  0  0  0  0  0  0  0
   -3.5724    7.8375    0.0000 C   0  0  0  0  0  0  0  0  0  0  0  0
   -3.5724    8.6625    0.0000 C   0  0  0  0  0  0  0  0  0  0  0  0
   -4.2868    9.0750    0.0000 C   0  0  0  0  0  0  0  0  0  0  0  0
   -2.8579    6.6000    0.0000 N   0  0  0  0  0  0  0  0  0  0  0  0
   -3.5724    6.1875    0.0000 C   0  0  0  0  0  0  0  0  0  0  0  0
   -3.5724    5.3625    0.0000 C   0  0  0  0  0  0  0  0  0  0  0  0
   -2.8579    4.9500    0.0000 C   0  0  0  0  0  0  0  0  0  0  0  0
   -2.8579    4.1250    0.0000 C   0  0  0  0  0  0  0  0  0  0  0  0
   -3.5724    3.7125    0.0000 C   0  0  0  0  0  0  0  0  0  0  0  0
   -4.2868    4.1250    0.0000 C   0  0  0  0  0  0  0  0  0  0  0  0
   -4.2868    4.9500    0.0000 C   0  0  0  0  0  0  0  0  0  0  0  0
   -5.0013    5.3625    0.0000 N   0  0  0  0  0  0  0  0  0  0  0  0
   -5.0013    6.1875    0.0000 C   0  0  0  0  0  0  0  0  0  0  0  0
   -4.2868    6.6000    0.0000 N   0  0  0  0  0  0  0  0  0  0  0  0
   -2.1434    3.7125    0.0000 C   0  0  0  0  0  0  0  0  0  0  0  0
   -2.1434    2.8875    0.0000 C   0  0  0  0  0  0  0  0  0  0  0  0
   -1.4289    2.4750    0.0000 C   0  0  0  0  0  0  0  0  0  0  0  0
   -0.7145    2.8875    0.0000 N   0  0  0  0  0  0  0  0  0  0  0  0
    0.0000    2.4750    0.0000 C   0  0  0  0  0  0  0  0  0  0  0  0
    0.0000    1.6500    0.0000 O   0  0  0  0  0  0  0  0  0  0  0  0
    0.7145    2.8875    0.0000 C   0  0  0  0  0  0  0  0  0  0  0  0
    1.4289    2.4750    0.0000 O   0  0  0  0  0  0  0  0  0  0  0  0
    2.1434    2.8875    0.0000 C   0  0  0  0  0  0  0  0  0  0  0  0
   -5.7158   12.6200    0.0000 H   0  0  0  0  0  0  0  0  0  0  0  0
   -6.6424   11.0150    0.0000 H   0  0  0  0  0  0  0  0  0  0  0  0
   -6.6425   12.0850    0.0000 H   0  0  0  0  0  0  0  0  0  0  0  0
   -4.2868   12.5820    0.0000 H   0  0  0  0  0  0  0  0  0  0  0  0
   -2.6787   11.6535    0.0000 H   0  0  0  0  0  0  0  0  0  0  0  0
   -4.2868    8.8680    0.0000 H   0  0  0  0  0  0  0  0  0  0  0  0
   -1.2497    9.1785    0.0000 H   0  0  0  0  0  0  0  0  0  0  0  0
   -1.2497    7.3215    0.0000 H   0  0  0  0  0  0  0  0  0  0  0  0
   -4.4661    7.3215    0.0000 H   0  0  0  0  0  0  0  0  0  0  0  0
   -4.2868   10.1450    0.0000 H   0  0  0  0  0  0  0  0  0  0  0  0
   -5.2135    8.5400    0.0000 H   0  0  0  0  0  0  0  0  0  0  0  0
   -5.2134    9.6100    0.0000 H   0  0  0  0  0  0  0  0  0  0  0  0
   -2.0053    6.1077    0.0000 H   0  0  0  0  0  0  0  0  0  0  0  0
   -1.9642    5.4660    0.0000 H   0  0  0  0  0  0  0  0  0  0  0  0
   -3.5724    2.6805    0.0000 H   0  0  0  0  0  0  0  0  0  0  0  0
   -5.1805    3.6090    0.0000 H   0  0  0  0  0  0  0  0  0  0  0  0
   -5.8950    6.7035    0.0000 H   0  0  0  0  0  0  0  0  0  0  0  0
   -1.2497    4.2285    0.0000 H   0  0  0  0  0  0  0  0  0  0  0  0
   -3.0371    2.3715    0.0000 H   0  0  0  0  0  0  0  0  0  0  0  0
   -1.4289    1.4050    0.0000 H   0  0  0  0  0  0  0  0  0  0  0  0
   -0.5022    1.9400    0.0000 H   0  0  0  0  0  0  0  0  0  0  0  0
   -0.7145    3.8720    0.0000 H   0  0  0  0  0  0  0  0  0  0  0  0
    0.7145    3.9575    0.0000 H   0  0  0  0  0  0  0  0  0  0  0  0
    1.6412    3.4225    0.0000 H   0  0  0  0  0  0  0  0  0  0  0  0
    3.0700    2.3525    0.0000 H   0  0  0  0  0  0  0  0  0  0  0  0
    2.1434    3.9575    0.0000 H   0  0  0  0  0  0  0  0  0  0  0  0
    3.0701    3.4225    0.0000 H   0  0  0  0  0  0  0  0  0  0  0  0
  1  2  1  0  0  0  0
  1 36  1  0  0  0  0
  1 37  1  0  0  0  0
  1 38  1  0  0  0  0
  2  3  2  0  0  0  0
  2  7  1  0  0  0  0
  3  4  1  0  0  0  0
  3 39  1  0  0  0  0
  4  5  2  0  0  0  0
  4 40  1  0  0  0  0
  5  6  1  0  0  0  0
  5  8  1  0  0  0  0
  6  7  2  0  0  0  0
  6 41  1  0  0  0  0
  8  9  1  0  0  0  0
  9 10  2  0  0  0  0
  9 14  1  0  0  0  0
 10 11  1  0  0  0  0
 10 42  1  0  0  0  0
 11 12  2  0  0  0  0
 11 43  1  0  0  0  0
 12 13  1  0  0  0  0
 12 16  1  0  0  0  0
 13 14  2  0  0  0  0
 13 44  1  0  0  0  0
 14 15  1  0  0  0  0
 15 45  1  0  0  0  0
 15 46  1  0  0  0  0
 15 47  1  0  0  0  0
 16 17  1  0  0  0  0
 16 48  1  0  0  0  0
 17 18  1  0  0  0  0
 17 26  2  0  0  0  0
 18 19  2  0  0  0  0
 18 23  1  0  0  0  0
 19 20  1  0  0  0  0
 19 49  1  0  0  0  0
 20 21  2  0  0  0  0
 20 27  1  0  0  0  0
 21 22  1  0  0  0  0
 21 50  1  0  0  0  0
 22 23  2  0  0  0  0
 22 51  1  0  0  0  0
 23 24  1  0  0  0  0
 24 25  2  0  0  0  0
 25 26  1  0  0  0  0
 25 52  1  0  0  0  0
 27 28  2  0  0  0  0
 27 53  1  0  0  0  0
 28 29  1  0  0  0  0
 28 54  1  0  0  0  0
 29 30  1  0  0  0  0
 29 55  1  0  0  0  0
 29 56  1  0  0  0  0
 30 31  1  0  0  0  0
 30 57  1  0  0  0  0
 31 32  2  0  0  0  0
 31 33  1  0  0  0  0
 33 34  1  0  0  0  0
 33 58  1  0  0  0  0
 33 59  1  0  0  0  0
 34 35  1  0  0  0  0
 35 60  1  0  0  0  0
 35 61  1  0  0  0  0
 35 62  1  0  0  0  0
M  END
>  <DRUGBANK_ID>
DB12302

>  <COMMON_NAME>
CP-724714

>  <CAS_NUMBER>
537705-08-1

>  <UNII>
I05QZ0S4V3

$$$$
