
 OpenBabel10282417072D

 32 31  0  0  0  0  0  0  0  0999 V2000
   -1.0612   -0.2729    0.0000 C   0  0  2  0  0  0  0  0  0  0  0  0
   -1.7834    0.1198    0.0000 C   0  0  0  0  0  0  0  0  0  0  0  0
   -0.3579    0.1582    0.0000 C   0  0  0  0  0  0  0  0  0  0  0  0
   -1.0466   -1.0250    0.0000 O   0  0  0  0  0  0  0  0  0  0  0  0
   -2.5122    0.5158    0.0000 C   0  0  0  0  0  0  0  0  0  0  0  0
   -2.1863   -0.6024    0.0000 C   0  0  0  0  0  0  0  0  0  0  0  0
   -1.3941    0.8419    0.0000 C   0  0  0  0  0  0  0  0  0  0  0  0
    0.3642   -0.2446    0.0000 N   0  0  0  0  0  0  0  0  0  0  0  0
   -0.3663    0.9891    0.0000 O   0  0  0  0  0  0  0  0  0  0  0  0
   -3.2087    0.0812    0.0000 O   0  0  0  0  0  0  0  0  0  0  0  0
    1.0609    0.1796    0.0000 C   0  0  0  0  0  0  0  0  0  0  0  0
    1.7831   -0.2198    0.0000 C   0  0  0  0  0  0  0  0  0  0  0  0
    2.4866    0.1942    0.0000 C   0  0  0  0  0  0  0  0  0  0  0  0
    3.2087   -0.2052    0.0000 O   0  0  0  0  0  0  0  0  0  0  0  0
    2.4782    1.0250    0.0000 O   0  0  0  0  0  0  0  0  0  0  0  0
   -1.9756   -0.8286    0.0000 H   0  0  0  0  0  0  0  0  0  0  0  0
   -1.8771   -1.5262    0.0000 H   0  0  0  0  0  0  0  0  0  0  0  0
   -2.5444    1.5853    0.0000 H   0  0  0  0  0  0  0  0  0  0  0  0
   -3.4556    1.0207    0.0000 H   0  0  0  0  0  0  0  0  0  0  0  0
   -3.2562   -0.6182    0.0000 H   0  0  0  0  0  0  0  0  0  0  0  0
   -1.6377   -1.5211    0.0000 H   0  0  0  0  0  0  0  0  0  0  0  0
   -2.7076   -1.5368    0.0000 H   0  0  0  0  0  0  0  0  0  0  0  0
   -0.3246    0.8731    0.0000 H   0  0  0  0  0  0  0  0  0  0  0  0
   -1.9559    1.7526    0.0000 H   0  0  0  0  0  0  0  0  0  0  0  0
   -0.8863    1.7837    0.0000 H   0  0  0  0  0  0  0  0  0  0  0  0
    0.3829   -1.2289    0.0000 H   0  0  0  0  0  0  0  0  0  0  0  0
   -4.0649    0.5371    0.0000 H   0  0  0  0  0  0  0  0  0  0  0  0
    1.0386    1.2494    0.0000 H   0  0  0  0  0  0  0  0  0  0  0  0
    1.9769    0.7327    0.0000 H   0  0  0  0  0  0  0  0  0  0  0  0
    1.7974   -1.2897    0.0000 H   0  0  0  0  0  0  0  0  0  0  0  0
    2.7155   -0.7447    0.0000 H   0  0  0  0  0  0  0  0  0  0  0  0
    3.2259   -1.1420    0.0000 H   0  0  0  0  0  0  0  0  0  0  0  0
  1  2  1  0  0  0  0
  1  3  1  0  0  0  0
  1  4  1  0  0  0  0
  1 16  1  1  0  0  0
  2  5  1  0  0  0  0
  2  6  1  0  0  0  0
  2  7  1  0  0  0  0
  3  8  1  0  0  0  0
  3  9  2  0  0  0  0
  4 17  1  0  0  0  0
  5 10  1  0  0  0  0
  5 18  1  0  0  0  0
  5 19  1  0  0  0  0
  6 20  1  0  0  0  0
  6 21  1  0  0  0  0
  6 22  1  0  0  0  0
  7 23  1  0  0  0  0
  7 24  1  0  0  0  0
  7 25  1  0  0  0  0
  8 11  1  0  0  0  0
  8 26  1  0  0  0  0
 10 27  1  0  0  0  0
 11 12  1  0  0  0  0
 11 28  1  0  0  0  0
 11 29  1  0  0  0  0
 12 13  1  0  0  0  0
 12 30  1  0  0  0  0
 12 31  1  0  0  0  0
 13 14  1  0  0  0  0
 13 15  2  0  0  0  0
 14 32  1  0  0  0  0
M  END
>  <DRUGBANK_ID>
DB01783

>  <SECONDARY_ACCESSION_NUMBERS>
EXPT02501

>  <COMMON_NAME>
Pantothenic acid

>  <CAS_NUMBER>
79-83-4

>  <UNII>
19F5HK2737

>  <SYNONYMS>
(+)-Pantothenic acid; D-pantothenic acid; Pantothenate; Vitamin B5

$$$$
