494
 OpenBabel10282417072D

 37 37  0  0  0  0  0  0  0  0999 V2000
    3.7935    1.9842    0.0000 O   0  0  0  0  0  0  0  0  0  0  0  0
    5.2224   -2.1409    0.0000 O   0  0  0  0  0  0  0  0  0  0  0  0
    3.7935   -2.9659    0.0000 O   0  0  0  0  0  0  0  0  0  0  0  0
    1.6500   -1.7284    0.0000 O   0  5  0  0  0  0  0  0  0  0  0  0
    2.3645   -2.9659    0.0000 O   0  0  0  0  0  0  0  0  0  0  0  0
    5.2224    1.9842    0.0000 N   0  0  0  0  0  0  0  0  0  0  0  0
    2.3645   -2.1409    0.0000 N   0  3  0  0  0  0  0  0  0  0  0  0
    5.9370   -0.0784    0.0000 N   0  0  0  0  0  0  0  0  0  0  0  0
    5.2224    2.8092    0.0000 C   0  0  0  0  0  0  0  0  0  0  0  0
    5.9370    1.5717    0.0000 C   0  0  0  0  0  0  0  0  0  0  0  0
    4.5080    1.5717    0.0000 C   0  0  0  0  0  0  0  0  0  0  0  0
    5.9370    3.2217    0.0000 C   0  0  0  0  0  0  0  0  0  0  0  0
    6.6515    1.9842    0.0000 C   0  0  0  0  0  0  0  0  0  0  0  0
    3.7935   -0.4909    0.0000 C   0  0  0  0  0  0  0  0  0  0  0  0
    4.5080    0.7466    0.0000 C   0  0  0  0  0  0  0  0  0  0  0  0
    3.7935    0.3341    0.0000 C   0  0  0  0  0  0  0  0  0  0  0  0
    3.0791   -0.9034    0.0000 C   0  0  0  0  0  0  0  0  0  0  0  0
    4.5080   -0.9034    0.0000 C   0  0  0  0  0  0  0  0  0  0  0  0
    3.0791   -1.7284    0.0000 C   0  0  0  0  0  0  0  0  0  0  0  0
    4.5080   -1.7284    0.0000 C   0  0  0  0  0  0  0  0  0  0  0  0
    3.7935   -2.1409    0.0000 C   0  0  0  0  0  0  0  0  0  0  0  0
    5.2224    0.3341    0.0000 C   0  0  0  0  0  0  0  0  0  0  0  0
    5.2224   -3.0779    0.0000 H   0  0  0  0  0  0  0  0  0  0  0  0
    2.9820   -3.4344    0.0000 H   0  0  0  0  0  0  0  0  0  0  0  0
    4.2958    3.3442    0.0000 H   0  0  0  0  0  0  0  0  0  0  0  0
    5.2225    3.8792    0.0000 H   0  0  0  0  0  0  0  0  0  0  0  0
    5.9370    0.5017    0.0000 H   0  0  0  0  0  0  0  0  0  0  0  0
    6.8637    1.0367    0.0000 H   0  0  0  0  0  0  0  0  0  0  0  0
    6.8636    2.6866    0.0000 H   0  0  0  0  0  0  0  0  0  0  0  0
    5.9371    4.2917    0.0000 H   0  0  0  0  0  0  0  0  0  0  0  0
    6.8637    3.7566    0.0000 H   0  0  0  0  0  0  0  0  0  0  0  0
    7.5781    1.4492    0.0000 H   0  0  0  0  0  0  0  0  0  0  0  0
    6.6515    3.0542    0.0000 H   0  0  0  0  0  0  0  0  0  0  0  0
    7.5782    2.5192    0.0000 H   0  0  0  0  0  0  0  0  0  0  0  0
    2.8998    0.8501    0.0000 H   0  0  0  0  0  0  0  0  0  0  0  0
    2.1854   -0.3874    0.0000 H   0  0  0  0  0  0  0  0  0  0  0  0
    5.4017   -0.3874    0.0000 H   0  0  0  0  0  0  0  0  0  0  0  0
  1 11  2  0  0  0  0
  2 20  1  0  0  0  0
  2 23  1  0  0  0  0
  3 21  1  0  0  0  0
  3 24  1  0  0  0  0
  4  7  1  0  0  0  0
  5  7  2  0  0  0  0
  6  9  1  0  0  0  0
  6 10  1  0  0  0  0
  6 11  1  0  0  0  0
  7 19  1  0  0  0  0
  8 22  3  0  0  0  0
  9 12  1  0  0  0  0
  9 25  1  0  0  0  0
  9 26  1  0  0  0  0
 10 13  1  0  0  0  0
 10 27  1  0  0  0  0
 10 28  1  0  0  0  0
 11 15  1  0  0  0  0
 12 29  1  0  0  0  0
 12 30  1  0  0  0  0
 12 31  1  0  0  0  0
 13 32  1  0  0  0  0
 13 33  1  0  0  0  0
 13 34  1  0  0  0  0
 14 16  1  0  0  0  0
 14 17  2  0  0  0  0
 14 18  1  0  0  0  0
 15 16  2  0  0  0  0
 15 22  1  0  0  0  0
 16 35  1  0  0  0  0
 17 19  1  0  0  0  0
 17 36  1  0  0  0  0
 18 20  2  0  0  0  0
 18 37  1  0  0  0  0
 19 21  2  0  0  0  0
 20 21  1  0  0  0  0
M  CHG  2   4  -1   7   1
M  END
>  <DRUGBANK_ID>
DB00494

>  <SECONDARY_ACCESSION_NUMBERS>
APRD00416

>  <COMMON_NAME>
Entacapone

>  <CAS_NUMBER>
130929-57-6

>  <UNII>
4975G9NM6T

>  <SYNONYMS>
(E)-alpha-Cyano-N,N-diethyl-3,4-dihydroxy-5-nitrocinnamamide; Entacapona; Entacapone; Entacaponum; N,N-diethyl-2-cyano-3-(3,4-dihydroxy-5-nitrophenyl) acrylamide

$$$$
