
 OpenBabel10282417072D

  6  4  0  0  0  0  0  0  0  0999 V2000
   -1.5947    0.0000    0.0000 Ca  0  2  0  0  0  0  0  0  0  0  0  0
    0.7697    0.8250    0.0000 O   0  5  0  0  0  0  0  0  0  0  0  0
    0.7697   -0.8250    0.0000 O   0  5  0  0  0  0  0  0  0  0  0  0
    1.5947    0.0000    0.0000 O   0  0  0  0  0  0  0  0  0  0  0  0
    0.7697    0.0000    0.0000 S   0  0  0  0  0  0  0  0  0  0  0  0
   -0.0552    0.0000    0.0000 O   0  0  0  0  0  0  0  0  0  0  0  0
  2  5  1  0  0  0  0
  5  3  1  0  0  0  0
  5  4  2  0  0  0  0
  5  6  2  0  0  0  0
M  CHG  3   1   2   2  -1   3  -1
M  END
>  <DRUGBANK_ID>
DB15533

>  <COMMON_NAME>
Calcium sulfate

>  <CAS_NUMBER>
7778-18-9

>  <UNII>
E934B3V59H

>  <SYNONYMS>
Anhydrous gypsum; Calcium sulfate, anhydrous; Calcium sulphate

$$$$
