815
 OpenBabel10282417072D

 50 54  0  0  0  0  0  0  0  0999 V2000
   -3.0543   -1.2850    0.0000 C   0  0  0  0  0  0  0  0  0  0  0  0
   -3.1406   -2.1055    0.0000 C   0  0  0  0  0  0  0  0  0  0  0  0
   -2.4731   -2.5904    0.0000 C   0  0  0  0  0  0  0  0  0  0  0  0
   -1.7194   -2.2549    0.0000 C   0  0  0  0  0  0  0  0  0  0  0  0
   -1.6332   -1.4344    0.0000 C   0  0  0  0  0  0  0  0  0  0  0  0
   -2.3007   -0.9495    0.0000 C   0  0  0  0  0  0  0  0  0  0  0  0
   -2.5594   -3.4109    0.0000 C   0  0  0  0  0  0  0  0  0  0  0  0
   -1.8919   -3.8958    0.0000 C   0  0  0  0  0  0  0  0  0  0  0  0
   -1.1382   -3.5603    0.0000 N   0  0  0  0  0  0  0  0  0  0  0  0
   -1.0520   -2.7398    0.0000 C   0  0  0  0  0  0  0  0  0  0  0  0
    2.8633    2.2268    0.0000 C   0  0  0  0  0  0  0  0  0  0  0  0
    3.5778    2.6393    0.0000 C   0  0  0  0  0  0  0  0  0  0  0  0
    4.2923    2.2268    0.0000 C   0  0  0  0  0  0  0  0  0  0  0  0
    4.2923    1.4018    0.0000 C   0  0  0  0  0  0  0  0  0  0  0  0
    3.5778    0.9893    0.0000 N   0  0  0  0  0  0  0  0  0  0  0  0
    2.8633    1.4018    0.0000 C   0  0  0  0  0  0  0  0  0  0  0  0
    2.0787    1.1468    0.0000 C   0  0  0  0  0  0  0  0  0  0  0  0
    1.5938    1.8143    0.0000 C   0  0  0  0  0  0  0  0  0  0  0  0
    2.0787    2.4817    0.0000 S   0  0  0  0  0  0  0  0  0  0  0  0
   -1.4607    0.2066    0.0000 N   0  0  0  0  0  0  0  0  0  0  0  0
   -1.2892    1.0136    0.0000 C   0  0  0  0  0  0  0  0  0  0  0  0
   -0.4687    1.0998    0.0000 C   0  0  2  0  0  0  0  0  0  0  0  0
   -0.1332    0.3461    0.0000 C   0  0  0  0  0  0  0  0  0  0  0  0
   -0.7463   -0.2059    0.0000 C   0  0  0  0  0  0  0  0  0  0  0  0
   -0.0562    1.8143    0.0000 N   0  0  0  0  0  0  0  0  0  0  0  0
    0.7688    1.8143    0.0000 S   0  0  0  0  0  0  0  0  0  0  0  0
    0.7688    0.9893    0.0000 O   0  0  0  0  0  0  0  0  0  0  0  0
    0.7688    2.6393    0.0000 O   0  0  0  0  0  0  0  0  0  0  0  0
   -1.8412    1.6266    0.0000 O   0  0  0  0  0  0  0  0  0  0  0  0
   -0.2983   -2.4042    0.0000 N   0  0  0  0  0  0  0  0  0  0  0  0
   -2.2144   -0.1290    0.0000 C   0  0  0  0  0  0  0  0  0  0  0  0
   -0.7868    1.5895    0.0000 H   0  0  0  0  0  0  0  0  0  0  0  0
   -3.8892   -0.6784    0.0000 H   0  0  0  0  0  0  0  0  0  0  0  0
   -4.0834   -2.5252    0.0000 H   0  0  0  0  0  0  0  0  0  0  0  0
   -0.6904   -1.0146    0.0000 H   0  0  0  0  0  0  0  0  0  0  0  0
   -3.5022   -3.8306    0.0000 H   0  0  0  0  0  0  0  0  0  0  0  0
   -1.9998   -4.9221    0.0000 H   0  0  0  0  0  0  0  0  0  0  0  0
    3.5778    3.6713    0.0000 H   0  0  0  0  0  0  0  0  0  0  0  0
    5.1860    2.7428    0.0000 H   0  0  0  0  0  0  0  0  0  0  0  0
    5.1860    0.8858    0.0000 H   0  0  0  0  0  0  0  0  0  0  0  0
    1.7598    0.1653    0.0000 H   0  0  0  0  0  0  0  0  0  0  0  0
    0.9134    0.1236    0.0000 H   0  0  0  0  0  0  0  0  0  0  0  0
    0.1437   -0.6875    0.0000 H   0  0  0  0  0  0  0  0  0  0  0  0
   -0.6345   -1.2700    0.0000 H   0  0  0  0  0  0  0  0  0  0  0  0
    0.2526   -0.5894    0.0000 H   0  0  0  0  0  0  0  0  0  0  0  0
   -0.5662    2.6976    0.0000 H   0  0  0  0  0  0  0  0  0  0  0  0
    0.4982   -2.9828    0.0000 H   0  0  0  0  0  0  0  0  0  0  0  0
   -0.1954   -1.4251    0.0000 H   0  0  0  0  0  0  0  0  0  0  0  0
   -3.0800    0.4999    0.0000 H   0  0  0  0  0  0  0  0  0  0  0  0
   -2.1026    0.9351    0.0000 H   0  0  0  0  0  0  0  0  0  0  0  0
  1  2  2  0  0  0  0
  1  6  1  0  0  0  0
  1 33  1  0  0  0  0
  2  3  1  0  0  0  0
  2 34  1  0  0  0  0
  3  4  2  0  0  0  0
  3  7  1  0  0  0  0
  4  5  1  0  0  0  0
  4 10  1  0  0  0  0
  5  6  2  0  0  0  0
  5 35  1  0  0  0  0
  6 31  1  0  0  0  0
  7  8  2  0  0  0  0
  7 36  1  0  0  0  0
  8  9  1  0  0  0  0
  8 37  1  0  0  0  0
  9 10  2  0  0  0  0
 10 30  1  0  0  0  0
 11 12  1  0  0  0  0
 11 16  2  0  0  0  0
 11 19  1  0  0  0  0
 12 13  2  0  0  0  0
 12 38  1  0  0  0  0
 13 14  1  0  0  0  0
 13 39  1  0  0  0  0
 14 15  2  0  0  0  0
 14 40  1  0  0  0  0
 15 16  1  0  0  0  0
 16 17  1  0  0  0  0
 17 18  2  0  0  0  0
 17 41  1  0  0  0  0
 18 19  1  0  0  0  0
 18 26  1  0  0  0  0
 20 21  1  0  0  0  0
 20 24  1  0  0  0  0
 20 31  1  0  0  0  0
 21 22  1  0  0  0  0
 21 29  2  0  0  0  0
 22 23  1  0  0  0  0
 22 25  1  0  0  0  0
 22 32  1  6  0  0  0
 23 24  1  0  0  0  0
 23 42  1  0  0  0  0
 23 43  1  0  0  0  0
 24 44  1  0  0  0  0
 24 45  1  0  0  0  0
 25 26  1  0  0  0  0
 25 46  1  0  0  0  0
 26 27  2  0  0  0  0
 26 28  2  0  0  0  0
 30 47  1  0  0  0  0
 30 48  1  0  0  0  0
 31 49  1  0  0  0  0
 31 50  1  0  0  0  0
M  END
>  <DRUGBANK_ID>
DB07261

>  <COMMON_NAME>
THIENO[3,2-B]PYRIDINE-2-SULFONIC ACID [1-(1-AMINO-ISOQUINOLIN-7-YLMETHYL)-2-OXO-PYRROLDIN-3-YL]-AMIDE

$$$$
