4830
 OpenBabel10282417072D

 26 25  0  0  0  0  0  0  0  0999 V2000
    4.2365    0.3630    0.0000 N   0  0  0  0  0  0  0  0  0  0  0  0
    3.5220    1.6005    0.0000 N   0  0  0  0  0  0  0  0  0  0  0  0
    4.9509    1.6005    0.0000 N   0  0  0  0  0  0  0  0  0  0  0  0
    2.0930    1.6005    0.0000 N   0  0  0  0  0  0  0  0  0  0  0  0
    2.8075    0.3630    0.0000 N   0  0  0  0  0  0  0  0  0  0  0  0
    4.9509   -0.8745    0.0000 C   0  0  0  0  0  0  0  0  0  0  0  0
    5.6655   -1.2870    0.0000 C   0  0  0  0  0  0  0  0  0  0  0  0
    4.9509   -0.0495    0.0000 C   0  0  0  0  0  0  0  0  0  0  0  0
    5.6655   -2.1120    0.0000 C   0  0  0  0  0  0  0  0  0  0  0  0
    4.2365    1.1880    0.0000 C   0  0  0  0  0  0  0  0  0  0  0  0
    2.8075    1.1880    0.0000 C   0  0  0  0  0  0  0  0  0  0  0  0
    5.8035    1.1083    0.0000 H   0  0  0  0  0  0  0  0  0  0  0  0
    4.9509    2.5850    0.0000 H   0  0  0  0  0  0  0  0  0  0  0  0
    2.0930    2.5850    0.0000 H   0  0  0  0  0  0  0  0  0  0  0  0
    1.2404    1.1082    0.0000 H   0  0  0  0  0  0  0  0  0  0  0  0
    1.9549   -0.1293    0.0000 H   0  0  0  0  0  0  0  0  0  0  0  0
    3.6601   -0.1292    0.0000 H   0  0  0  0  0  0  0  0  0  0  0  0
    4.0243   -1.4095    0.0000 H   0  0  0  0  0  0  0  0  0  0  0  0
    4.0242   -0.3395    0.0000 H   0  0  0  0  0  0  0  0  0  0  0  0
    6.5921   -0.7520    0.0000 H   0  0  0  0  0  0  0  0  0  0  0  0
    6.5922   -1.8220    0.0000 H   0  0  0  0  0  0  0  0  0  0  0  0
    5.8776    0.4855    0.0000 H   0  0  0  0  0  0  0  0  0  0  0  0
    5.8775   -0.5845    0.0000 H   0  0  0  0  0  0  0  0  0  0  0  0
    4.7389   -2.6470    0.0000 H   0  0  0  0  0  0  0  0  0  0  0  0
    6.5921   -2.6470    0.0000 H   0  0  0  0  0  0  0  0  0  0  0  0
    5.6655   -3.1820    0.0000 H   0  0  0  0  0  0  0  0  0  0  0  0
  1  8  1  0  0  0  0
  1 10  2  0  0  0  0
  2 10  1  0  0  0  0
  2 11  2  0  0  0  0
  3 10  1  0  0  0  0
  3 12  1  0  0  0  0
  3 13  1  0  0  0  0
  4 11  1  0  0  0  0
  4 14  1  0  0  0  0
  4 15  1  0  0  0  0
  5 11  1  0  0  0  0
  5 16  1  0  0  0  0
  5 17  1  0  0  0  0
  6  7  1  0  0  0  0
  6  8  1  0  0  0  0
  6 18  1  0  0  0  0
  6 19  1  0  0  0  0
  7  9  1  0  0  0  0
  7 20  1  0  0  0  0
  7 21  1  0  0  0  0
  8 22  1  0  0  0  0
  8 23  1  0  0  0  0
  9 24  1  0  0  0  0
  9 25  1  0  0  0  0
  9 26  1  0  0  0  0
M  END
>  <DRUGBANK_ID>
DB04830

>  <COMMON_NAME>
Buformin

>  <CAS_NUMBER>
692-13-7

>  <UNII>
W2115E9C7B

>  <SYNONYMS>
1-Butylbiguanide; Buformin; Buformina; Buformine; Buforminum

$$$$
