
 OpenBabel10282417072D

 68 70  0  0  1  0  0  0  0  0999 V2000
   -1.7111   -3.2502    0.0000 C   0  0  0  0  0  0  0  0  0  0  0  0
   -0.0000   -4.1250    0.0000 C   0  0  0  0  0  0  0  0  0  0  0  0
   -2.8579   -0.0000    0.0000 C   0  0  0  0  0  0  0  0  0  0  0  0
   -2.8579    0.8250    0.0000 C   0  0  0  0  0  0  0  0  0  0  0  0
    1.4289    0.8250    0.0000 C   0  0  0  0  0  0  0  0  0  0  0  0
   -2.1434   -1.2375    0.0000 C   0  0  0  0  0  0  0  0  0  0  0  0
   -1.4289   -1.6500    0.0000 C   0  0  0  0  0  0  0  0  0  0  0  0
   -2.1434   -0.4125    0.0000 C   0  0  0  0  0  0  0  0  0  0  0  0
   -2.1434    1.2375    0.0000 C   0  0  2  0  0  0  0  0  0  0  0  0
    0.7145    1.2375    0.0000 C   0  0  1  0  0  0  0  0  0  0  0  0
    1.4289   -0.0000    0.0000 C   0  0  2  0  0  0  0  0  0  0  0  0
    0.0000   -0.0000    0.0000 C   0  0  1  0  0  0  0  0  0  0  0  0
   -0.0000   -2.4750    0.0000 C   0  0  2  0  0  0  0  0  0  0  0  0
    0.0000    0.8250    0.0000 C   0  0  2  0  0  0  0  0  0  0  0  0
    0.7145   -0.4125    0.0000 C   0  0  1  0  0  0  0  0  0  0  0  0
   -0.7145   -2.8875    0.0000 C   0  0  2  0  0  0  0  0  0  0  0  0
   -1.4289    0.8250    0.0000 C   0  0  2  0  0  0  0  0  0  0  0  0
    0.0000   -1.6500    0.0000 C   0  0  2  0  0  0  0  0  0  0  0  0
   -1.4289   -2.4750    0.0000 C   0  0  2  0  0  0  0  0  0  0  0  0
   -2.8579   -1.6500    0.0000 N   0  0  0  0  0  0  0  0  0  0  0  0
   -2.1434    2.0625    0.0000 N   0  0  0  0  0  0  0  0  0  0  0  0
    0.7145    2.0625    0.0000 N   0  0  0  0  0  0  0  0  0  0  0  0
    2.1434   -0.4125    0.0000 N   0  0  0  0  0  0  0  0  0  0  0  0
   -0.7145   -3.7125    0.0000 N   0  0  0  0  0  0  0  0  0  0  0  0
   -0.7145   -0.4125    0.0000 O   0  0  0  0  0  0  0  0  0  0  0  0
    0.7145   -2.8875    0.0000 O   0  0  0  0  0  0  0  0  0  0  0  0
   -2.2414   -2.3317    0.0000 O   0  0  0  0  0  0  0  0  0  0  0  0
   -0.7145   -1.2375    0.0000 O   0  0  0  0  0  0  0  0  0  0  0  0
   -1.4289   -0.0000    0.0000 O   0  0  0  0  0  0  0  0  0  0  0  0
   -0.7145    1.2375    0.0000 O   0  0  0  0  0  0  0  0  0  0  0  0
    0.7145   -1.2375    0.0000 O   0  0  0  0  0  0  0  0  0  0  0  0
   -2.8579    1.6500    0.0000 H   0  0  0  0  0  0  0  0  0  0  0  0
    1.4289    1.6500    0.0000 H   0  0  0  0  0  0  0  0  0  0  0  0
    2.1434    0.4125    0.0000 H   0  0  0  0  0  0  0  0  0  0  0  0
   -0.7145    0.4125    0.0000 H   0  0  0  0  0  0  0  0  0  0  0  0
    0.2822   -3.2502    0.0000 H   0  0  0  0  0  0  0  0  0  0  0  0
    0.0000    1.6500    0.0000 H   0  0  0  0  0  0  0  0  0  0  0  0
    1.4289   -0.8250    0.0000 H   0  0  0  0  0  0  0  0  0  0  0  0
   -0.1842   -3.5195    0.0000 H   0  0  0  0  0  0  0  0  0  0  0  0
   -1.4289    1.6500    0.0000 H   0  0  0  0  0  0  0  0  0  0  0  0
    0.7145   -2.0625    0.0000 H   0  0  0  0  0  0  0  0  0  0  0  0
   -2.7649   -3.4359    0.0000 H   0  0  0  0  0  0  0  0  0  0  0  0
   -1.0234   -4.0699    0.0000 H   0  0  0  0  0  0  0  0  0  0  0  0
   -2.0771   -4.2557    0.0000 H   0  0  0  0  0  0  0  0  0  0  0  0
    0.0000   -5.1950    0.0000 H   0  0  0  0  0  0  0  0  0  0  0  0
    0.9266   -3.5900    0.0000 H   0  0  0  0  0  0  0  0  0  0  0  0
    0.9267   -4.6600    0.0000 H   0  0  0  0  0  0  0  0  0  0  0  0
   -3.7516   -0.5160    0.0000 H   0  0  0  0  0  0  0  0  0  0  0  0
   -3.7845    1.3600    0.0000 H   0  0  0  0  0  0  0  0  0  0  0  0
   -2.8579    1.8950    0.0000 H   0  0  0  0  0  0  0  0  0  0  0  0
    2.3556    1.3600    0.0000 H   0  0  0  0  0  0  0  0  0  0  0  0
    2.3555    0.2900    0.0000 H   0  0  0  0  0  0  0  0  0  0  0  0
   -1.2168   -1.7725    0.0000 H   0  0  0  0  0  0  0  0  0  0  0  0
   -2.1434   -2.3075    0.0000 H   0  0  0  0  0  0  0  0  0  0  0  0
   -2.3556   -1.1150    0.0000 H   0  0  0  0  0  0  0  0  0  0  0  0
   -1.4289   -0.5800    0.0000 H   0  0  0  0  0  0  0  0  0  0  0  0
   -3.7412   -1.1400    0.0000 H   0  0  0  0  0  0  0  0  0  0  0  0
   -2.8579   -2.6700    0.0000 H   0  0  0  0  0  0  0  0  0  0  0  0
   -1.2601    2.5725    0.0000 H   0  0  0  0  0  0  0  0  0  0  0  0
   -3.0267    2.5725    0.0000 H   0  0  0  0  0  0  0  0  0  0  0  0
    1.5978    2.5725    0.0000 H   0  0  0  0  0  0  0  0  0  0  0  0
   -0.1688    2.5725    0.0000 H   0  0  0  0  0  0  0  0  0  0  0  0
    2.1434   -1.4325    0.0000 H   0  0  0  0  0  0  0  0  0  0  0  0
    3.0267    0.0975    0.0000 H   0  0  0  0  0  0  0  0  0  0  0  0
   -1.5978   -4.2225    0.0000 H   0  0  0  0  0  0  0  0  0  0  0  0
   -1.5545    0.0725    0.0000 H   0  0  0  0  0  0  0  0  0  0  0  0
    0.7145   -3.8575    0.0000 H   0  0  0  0  0  0  0  0  0  0  0  0
   -2.5731   -1.4202    0.0000 H   0  0  0  0  0  0  0  0  0  0  0  0
  1 42  1  0  0  0  0
  1 43  1  0  0  0  0
  1 44  1  0  0  0  0
  2 45  1  0  0  0  0
  2 46  1  0  0  0  0
  2 47  1  0  0  0  0
  3 48  1  0  0  0  0
  4  3  1  0  0  0  0
  4 49  1  0  0  0  0
  4 50  1  0  0  0  0
  5 51  1  0  0  0  0
  5 52  1  0  0  0  0
  6 53  1  0  0  0  0
  6 54  1  0  0  0  0
  7 55  1  0  0  0  0
  7 56  1  0  0  0  0
  8  3  2  0  0  0  0
  8  6  1  0  0  0  0
  9  4  1  0  0  0  0
  9 21  1  0  0  0  0
  9 32  1  6  0  0  0
 10  5  1  0  0  0  0
 10 22  1  0  0  0  0
 10 33  1  6  0  0  0
 11  5  1  0  0  0  0
 11 23  1  0  0  0  0
 11 34  1  6  0  0  0
 12 25  1  0  0  0  0
 12 35  1  6  0  0  0
 13 26  1  0  0  0  0
 13 36  1  1  0  0  0
 14 10  1  0  0  0  0
 14 12  1  0  0  0  0
 14 30  1  0  0  0  0
 14 37  1  1  0  0  0
 15 11  1  0  0  0  0
 15 12  1  0  0  0  0
 15 31  1  0  0  0  0
 15 38  1  1  0  0  0
 16 13  1  0  0  0  0
 16 24  1  0  0  0  0
 16 39  1  6  0  0  0
 17  9  1  0  0  0  0
 17 30  1  0  0  0  0
 17 40  1  6  0  0  0
 18 13  1  0  0  0  0
 18 31  1  0  0  0  0
 18 41  1  1  0  0  0
 19  1  1  0  0  0  0
 19  7  1  0  0  0  0
 19 16  1  0  0  0  0
 19 27  1  1  0  0  0
 20  6  1  0  0  0  0
 20 57  1  0  0  0  0
 20 58  1  0  0  0  0
 21 59  1  0  0  0  0
 21 60  1  0  0  0  0
 22 61  1  0  0  0  0
 22 62  1  0  0  0  0
 23 63  1  0  0  0  0
 23 64  1  0  0  0  0
 24  2  1  0  0  0  0
 24 65  1  0  0  0  0
 25 66  1  0  0  0  0
 26 67  1  0  0  0  0
 27 68  1  0  0  0  0
 28  7  1  0  0  0  0
 28 18  1  0  0  0  0
 29  8  1  0  0  0  0
 29 17  1  0  0  0  0
M  END
>  <DRUGBANK_ID>
DB12604

>  <COMMON_NAME>
Sisomicin

>  <CAS_NUMBER>
32385-11-8

>  <UNII>
X55XSL74YQ

>  <SYNONYMS>
Sisomicin

$$$$
