4DE
 OpenBabel10282417072D

 38 39  0  0  0  0  0  0  0  0999 V2000
   -0.4243    2.0775    0.0000 O   0  0  0  0  0  0  0  0  0  0  0  0
    0.2902    1.6650    0.0000 C   0  0  0  0  0  0  0  0  0  0  0  0
    1.0047    2.0775    0.0000 O   0  0  0  0  0  0  0  0  0  0  0  0
    1.0047    2.9025    0.0000 C   0  0  0  0  0  0  0  0  0  0  0  0
    1.7192    3.3150    0.0000 C   0  0  0  0  0  0  0  0  0  0  0  0
    0.2902    0.8400    0.0000 C   0  0  0  0  0  0  0  0  0  0  0  0
    0.9577    0.3551    0.0000 C   0  0  0  0  0  0  0  0  0  0  0  0
    1.7423    0.6100    0.0000 C   0  0  0  0  0  0  0  0  0  0  0  0
    0.7027   -0.4295    0.0000 N   0  0  0  0  0  0  0  0  0  0  0  0
   -0.1223   -0.4295    0.0000 N   0  0  0  0  0  0  0  0  0  0  0  0
   -0.3772    0.3551    0.0000 C   0  0  0  0  0  0  0  0  0  0  0  0
   -1.1618    0.6100    0.0000 C   0  0  0  0  0  0  0  0  0  0  0  0
   -0.6072   -1.0970    0.0000 C   0  0  0  0  0  0  0  0  0  0  0  0
   -0.2716   -1.8506    0.0000 C   0  0  0  0  0  0  0  0  0  0  0  0
   -0.7566   -2.5181    0.0000 C   0  0  0  0  0  0  0  0  0  0  0  0
   -1.5770   -2.4318    0.0000 C   0  0  0  0  0  0  0  0  0  0  0  0
   -1.9126   -1.6782    0.0000 C   0  0  0  0  0  0  0  0  0  0  0  0
   -1.4277   -1.0107    0.0000 C   0  0  0  0  0  0  0  0  0  0  0  0
   -2.0620   -3.0993    0.0000 O   0  0  0  0  0  0  0  0  0  0  0  0
   -1.7264   -3.8530    0.0000 C   0  0  0  0  0  0  0  0  0  0  0  0
    0.0781    3.4375    0.0000 H   0  0  0  0  0  0  0  0  0  0  0  0
    1.0047    3.9725    0.0000 H   0  0  0  0  0  0  0  0  0  0  0  0
    2.6458    2.7800    0.0000 H   0  0  0  0  0  0  0  0  0  0  0  0
    1.7192    4.3850    0.0000 H   0  0  0  0  0  0  0  0  0  0  0  0
    2.6459    3.8500    0.0000 H   0  0  0  0  0  0  0  0  0  0  0  0
    2.5374   -0.1060    0.0000 H   0  0  0  0  0  0  0  0  0  0  0  0
    1.9648    1.6566    0.0000 H   0  0  0  0  0  0  0  0  0  0  0  0
    2.7599    0.9406    0.0000 H   0  0  0  0  0  0  0  0  0  0  0  0
   -1.3843    1.6566    0.0000 H   0  0  0  0  0  0  0  0  0  0  0  0
   -1.9569   -0.1060    0.0000 H   0  0  0  0  0  0  0  0  0  0  0  0
   -2.1794    0.9406    0.0000 H   0  0  0  0  0  0  0  0  0  0  0  0
    0.7547   -1.9584    0.0000 H   0  0  0  0  0  0  0  0  0  0  0  0
   -0.3369   -3.4609    0.0000 H   0  0  0  0  0  0  0  0  0  0  0  0
   -2.9390   -1.5704    0.0000 H   0  0  0  0  0  0  0  0  0  0  0  0
   -1.8474   -0.0679    0.0000 H   0  0  0  0  0  0  0  0  0  0  0  0
   -2.3553   -4.7187    0.0000 H   0  0  0  0  0  0  0  0  0  0  0  0
   -0.6623   -3.9648    0.0000 H   0  0  0  0  0  0  0  0  0  0  0  0
   -1.2912   -4.8305    0.0000 H   0  0  0  0  0  0  0  0  0  0  0  0
  1  2  2  0  0  0  0
  2  3  1  0  0  0  0
  2  6  1  0  0  0  0
  3  4  1  0  0  0  0
  4  5  1  0  0  0  0
  4 21  1  0  0  0  0
  4 22  1  0  0  0  0
  5 23  1  0  0  0  0
  5 24  1  0  0  0  0
  5 25  1  0  0  0  0
  6  7  1  0  0  0  0
  6 11  2  0  0  0  0
  7  8  1  0  0  0  0
  7  9  2  0  0  0  0
  8 26  1  0  0  0  0
  8 27  1  0  0  0  0
  8 28  1  0  0  0  0
  9 10  1  0  0  0  0
 10 11  1  0  0  0  0
 10 13  1  0  0  0  0
 11 12  1  0  0  0  0
 12 29  1  0  0  0  0
 12 30  1  0  0  0  0
 12 31  1  0  0  0  0
 13 14  2  0  0  0  0
 13 18  1  0  0  0  0
 14 15  1  0  0  0  0
 14 32  1  0  0  0  0
 15 16  2  0  0  0  0
 15 33  1  0  0  0  0
 16 17  1  0  0  0  0
 16 19  1  0  0  0  0
 17 18  2  0  0  0  0
 17 34  1  0  0  0  0
 18 35  1  0  0  0  0
 19 20  1  0  0  0  0
 20 36  1  0  0  0  0
 20 37  1  0  0  0  0
 20 38  1  0  0  0  0
M  END
>  <DRUGBANK_ID>
DB04469

>  <SECONDARY_ACCESSION_NUMBERS>
EXPT00210

>  <COMMON_NAME>
1-(4-Methoxyphenyl)-3,5-Dimethyl-1h-Pyrazole-4-Carboxylic Acid Ethyl Ester

$$$$
