B23
 OpenBabel10282417072D

 24 25  0  0  0  0  0  0  0  0999 V2000
   -1.4031    2.5399    0.0000 O   0  0  0  0  0  0  0  0  0  0  0  0
   -0.6887    2.1274    0.0000 C   0  0  0  0  0  0  0  0  0  0  0  0
    0.0258    2.5399    0.0000 O   0  0  0  0  0  0  0  0  0  0  0  0
   -0.6887    1.3024    0.0000 C   0  0  0  0  0  0  0  0  0  0  0  0
   -0.0212    0.8174    0.0000 O   0  0  0  0  0  0  0  0  0  0  0  0
   -1.3561    0.8174    0.0000 C   0  0  0  0  0  0  0  0  0  0  0  0
   -1.1012    0.0328    0.0000 C   0  0  0  0  0  0  0  0  0  0  0  0
   -0.2762    0.0328    0.0000 C   0  0  0  0  0  0  0  0  0  0  0  0
    0.2088   -0.6346    0.0000 C   0  0  0  0  0  0  0  0  0  0  0  0
    1.0293   -0.5484    0.0000 C   0  0  0  0  0  0  0  0  0  0  0  0
    1.5142   -1.2158    0.0000 C   0  0  0  0  0  0  0  0  0  0  0  0
    1.1786   -1.9695    0.0000 C   0  0  0  0  0  0  0  0  0  0  0  0
    0.3581   -2.0557    0.0000 C   0  0  0  0  0  0  0  0  0  0  0  0
   -0.1268   -1.3883    0.0000 C   0  0  0  0  0  0  0  0  0  0  0  0
   -0.9473   -1.4745    0.0000 N   0  3  0  0  0  0  0  0  0  0  0  0
   -1.2828   -2.2282    0.0000 O   0  5  0  0  0  0  0  0  0  0  0  0
   -1.4322   -0.8071    0.0000 O   0  0  0  0  0  0  0  0  0  0  0  0
   -1.4031    3.4769    0.0000 H   0  0  0  0  0  0  0  0  0  0  0  0
   -2.3376    1.1363    0.0000 H   0  0  0  0  0  0  0  0  0  0  0  0
   -1.7078   -0.8021    0.0000 H   0  0  0  0  0  0  0  0  0  0  0  0
    1.4491    0.3944    0.0000 H   0  0  0  0  0  0  0  0  0  0  0  0
    2.5405   -1.1079    0.0000 H   0  0  0  0  0  0  0  0  0  0  0  0
    1.7852   -2.8044    0.0000 H   0  0  0  0  0  0  0  0  0  0  0  0
   -0.0617   -2.9985    0.0000 H   0  0  0  0  0  0  0  0  0  0  0  0
  1  2  1  0  0  0  0
  1 18  1  0  0  0  0
  2  3  2  0  0  0  0
  2  4  1  0  0  0  0
  4  5  1  0  0  0  0
  4  6  2  0  0  0  0
  5  8  1  0  0  0  0
  6  7  1  0  0  0  0
  6 19  1  0  0  0  0
  7  8  2  0  0  0  0
  7 20  1  0  0  0  0
  8  9  1  0  0  0  0
  9 10  1  0  0  0  0
  9 14  2  0  0  0  0
 10 11  2  0  0  0  0
 10 21  1  0  0  0  0
 11 12  1  0  0  0  0
 11 22  1  0  0  0  0
 12 13  2  0  0  0  0
 12 23  1  0  0  0  0
 13 14  1  0  0  0  0
 13 24  1  0  0  0  0
 14 15  1  0  0  0  0
 15 16  1  0  0  0  0
 15 17  2  0  0  0  0
M  CHG  2  15   1  16  -1
M  END
>  <DRUGBANK_ID>
DB07408

>  <COMMON_NAME>
5-(2-NITROPHENYL)-2-FUROIC ACID

>  <UNII>
GAR5WG9DZJ

$$$$
