
 OpenBabel10282417072D

 40 43  0  0  1  0  0  0  0  0999 V2000
    0.7311    7.0348    0.0000 C   0  0  0  0  0  0  0  0  0  0  0  0
    0.3956    6.2811    0.0000 N   0  0  0  0  0  0  0  0  0  0  0  0
    0.8805    5.6136    0.0000 C   0  0  0  0  0  0  0  0  0  0  0  0
    1.7010    5.6999    0.0000 O   0  0  0  0  0  0  0  0  0  0  0  0
    0.5449    4.8600    0.0000 C   0  0  0  0  0  0  0  0  0  0  0  0
    1.0298    4.1925    0.0000 C   0  0  0  0  0  0  0  0  0  0  0  0
    0.6943    3.4389    0.0000 C   0  0  0  0  0  0  0  0  0  0  0  0
   -0.1262    3.3526    0.0000 C   0  0  0  0  0  0  0  0  0  0  0  0
   -0.4617    2.5989    0.0000 C   0  0  0  0  0  0  0  0  0  0  0  0
   -1.2822    2.5127    0.0000 C   0  0  0  0  0  0  0  0  0  0  0  0
   -1.7672    3.1801    0.0000 C   0  0  0  0  0  0  0  0  0  0  0  0
   -1.4316    3.9338    0.0000 C   0  0  0  0  0  0  0  0  0  0  0  0
   -0.6111    4.0201    0.0000 C   0  0  0  0  0  0  0  0  0  0  0  0
   -0.2756    4.7737    0.0000 C   0  0  0  0  0  0  0  0  0  0  0  0
   -1.6178    1.7590    0.0000 C   0  0  1  0  0  0  0  0  0  0  0  0
   -2.1027    1.0916    0.0000 C   0  0  0  0  0  0  0  0  0  0  0  0
   -1.6178    0.4242    0.0000 C   0  0  0  0  0  0  0  0  0  0  0  0
   -0.8332    0.6791    0.0000 N   0  0  0  0  0  0  0  0  0  0  0  0
   -0.8332    1.5041    0.0000 C   0  0  0  0  0  0  0  0  0  0  0  0
   -0.0485    1.7590    0.0000 C   0  0  0  0  0  0  0  0  0  0  0  0
    0.4364    1.0916    0.0000 N   0  0  0  0  0  0  0  0  0  0  0  0
   -0.0485    0.4242    0.0000 C   0  0  0  0  0  0  0  0  0  0  0  0
   -2.3323    2.1715    0.0000 O   0  0  0  0  0  0  0  0  0  0  0  0
    1.7952    7.1467    0.0000 H   0  0  0  0  0  0  0  0  0  0  0  0
    0.1021    7.9004    0.0000 H   0  0  0  0  0  0  0  0  0  0  0  0
    1.1662    8.0123    0.0000 H   0  0  0  0  0  0  0  0  0  0  0  0
   -0.5835    6.1782    0.0000 H   0  0  0  0  0  0  0  0  0  0  0  0
    2.0561    4.3004    0.0000 H   0  0  0  0  0  0  0  0  0  0  0  0
    1.3009    2.6040    0.0000 H   0  0  0  0  0  0  0  0  0  0  0  0
    0.1449    1.7640    0.0000 H   0  0  0  0  0  0  0  0  0  0  0  0
   -2.7935    3.0722    0.0000 H   0  0  0  0  0  0  0  0  0  0  0  0
   -2.0382    4.7687    0.0000 H   0  0  0  0  0  0  0  0  0  0  0  0
   -0.8822    5.6086    0.0000 H   0  0  0  0  0  0  0  0  0  0  0  0
   -3.1727    1.0916    0.0000 H   0  0  0  0  0  0  0  0  0  0  0  0
   -2.5885    0.1382    0.0000 H   0  0  0  0  0  0  0  0  0  0  0  0
   -1.9485   -0.5934    0.0000 H   0  0  0  0  0  0  0  0  0  0  0  0
   -0.8612   -0.3324    0.0000 H   0  0  0  0  0  0  0  0  0  0  0  0
    0.2704    2.7405    0.0000 H   0  0  0  0  0  0  0  0  0  0  0  0
    0.2704   -0.5573    0.0000 H   0  0  0  0  0  0  0  0  0  0  0  0
   -2.3323    3.1415    0.0000 H   0  0  0  0  0  0  0  0  0  0  0  0
  1  2  1  0  0  0  0
  1 24  1  0  0  0  0
  1 25  1  0  0  0  0
  1 26  1  0  0  0  0
  2  3  1  0  0  0  0
  2 27  1  0  0  0  0
  3  4  2  0  0  0  0
  3  5  1  0  0  0  0
  5  6  2  0  0  0  0
  5 14  1  0  0  0  0
  6  7  1  0  0  0  0
  6 28  1  0  0  0  0
  7  8  2  0  0  0  0
  7 29  1  0  0  0  0
  8  9  1  0  0  0  0
  8 13  1  0  0  0  0
  9 10  2  0  0  0  0
  9 30  1  0  0  0  0
 10 11  1  0  0  0  0
 11 12  2  0  0  0  0
 11 31  1  0  0  0  0
 12 13  1  0  0  0  0
 12 32  1  0  0  0  0
 13 14  2  0  0  0  0
 14 33  1  0  0  0  0
 15 10  1  0  0  0  0
 15 16  1  0  0  0  0
 15 19  1  0  0  0  0
 15 23  1  1  0  0  0
 16 17  1  0  0  0  0
 16 34  1  0  0  0  0
 16 35  1  0  0  0  0
 17 18  1  0  0  0  0
 17 36  1  0  0  0  0
 17 37  1  0  0  0  0
 18 19  1  0  0  0  0
 18 22  1  0  0  0  0
 19 20  2  0  0  0  0
 20 21  1  0  0  0  0
 20 38  1  0  0  0  0
 21 22  2  0  0  0  0
 22 39  1  0  0  0  0
 23 40  1  0  0  0  0
M  END
>  <DRUGBANK_ID>
DB12066

>  <COMMON_NAME>
Orteronel

>  <CAS_NUMBER>
566939-85-3

>  <UNII>
UE5K2FNS92

>  <SYNONYMS>
Orteronel

$$$$
