
 OpenBabel10282417072D

  5  4  0  0  0  0  0  0  0  0999 V2000
    0.8250   -0.8250    0.0000 O   0  5  0  0  0  0  0  0  0  0  0  0
    0.8250    0.0000    0.0000 P   0  0  0  0  0  0  0  0  0  0  0  0
    0.8250    0.8250    0.0000 O   0  5  0  0  0  0  0  0  0  0  0  0
    1.6500    0.0000    0.0000 F   0  0  0  0  0  0  0  0  0  0  0  0
    0.0000    0.0000    0.0000 O   0  0  0  0  0  0  0  0  0  0  0  0
  1  2  1  0  0  0  0
  2  3  1  0  0  0  0
  2  4  1  0  0  0  0
  2  5  2  0  0  0  0
M  CHG  2   1  -1   3  -1
M  END
>  <DRUGBANK_ID>
DB02348

>  <SECONDARY_ACCESSION_NUMBERS>
EXPT01478

>  <COMMON_NAME>
Monofluorophosphate ion

>  <CAS_NUMBER>
15181-43-8

>  <UNII>
4964UZ79MI

>  <SYNONYMS>
Fluoridophosphate; Fluorophosphate; Phosphorofluoridate

$$$$
