
 OpenBabel10282417072D

 16 16  0  0  1  0  0  0  0  0999 V2000
    1.4289    0.8250    0.0000 C   0  0  0  0  0  0  0  0  0  0  0  0
    0.0000    0.0000    0.0000 C   0  0  0  0  0  0  0  0  0  0  0  0
    0.7145    1.2375    0.0000 C   0  0  2  0  0  0  0  0  0  0  0  0
    0.0000    0.8250    0.0000 C   0  0  2  0  0  0  0  0  0  0  0  0
    0.7145    2.0625    0.0000 O   0  0  0  0  0  0  0  0  0  0  0  0
   -0.7145    1.2375    0.0000 O   0  0  0  0  0  0  0  0  0  0  0  0
    1.4289   -0.0000    0.0000 S   0  0  0  0  0  0  0  0  0  0  0  0
    0.7145   -0.4125    0.0000 S   0  0  0  0  0  0  0  0  0  0  0  0
    1.4289    1.6500    0.0000 H   0  0  0  0  0  0  0  0  0  0  0  0
   -0.7145    0.4125    0.0000 H   0  0  0  0  0  0  0  0  0  0  0  0
    2.3556    1.3600    0.0000 H   0  0  0  0  0  0  0  0  0  0  0  0
    2.3555    0.2900    0.0000 H   0  0  0  0  0  0  0  0  0  0  0  0
   -0.9266   -0.5350    0.0000 H   0  0  0  0  0  0  0  0  0  0  0  0
    0.0000   -1.0700    0.0000 H   0  0  0  0  0  0  0  0  0  0  0  0
    1.5545    2.5475    0.0000 H   0  0  0  0  0  0  0  0  0  0  0  0
   -0.7145    2.2075    0.0000 H   0  0  0  0  0  0  0  0  0  0  0  0
  1 11  1  0  0  0  0
  1 12  1  0  0  0  0
  2 13  1  0  0  0  0
  2 14  1  0  0  0  0
  3  1  1  0  0  0  0
  3  5  1  0  0  0  0
  3  9  1  1  0  0  0
  4  2  1  0  0  0  0
  4  3  1  0  0  0  0
  4  6  1  0  0  0  0
  4 10  1  6  0  0  0
  5 15  1  0  0  0  0
  6 16  1  0  0  0  0
  7  1  1  0  0  0  0
  8  2  1  0  0  0  0
  8  7  1  0  0  0  0
M  END
>  <DRUGBANK_ID>
DB02693

>  <SECONDARY_ACCESSION_NUMBERS>
EXPT01093

>  <COMMON_NAME>
(4S,5S)-1,2-dithiane-4,5-diol

>  <UNII>
8T052MD8AP

>  <SYNONYMS>
oxidized dithiothreitol

$$$$
