
 OpenBabel10282417072D

 68 70  0  0  1  0  0  0  0  0999 V2000
   -0.7145    0.8250    0.0000 C   0  0  2  0  0  0  0  0  0  0  0  0
    0.0000    0.4125    0.0000 C   0  0  1  0  0  0  0  0  0  0  0  0
    0.0000   -0.4125    0.0000 C   0  0  0  0  0  0  0  0  0  0  0  0
    0.7145    0.8250    0.0000 C   0  0  2  0  0  0  0  0  0  0  0  0
   -1.4289    0.4125    0.0000 C   0  0  0  0  0  0  0  0  0  0  0  0
    0.7145   -0.8250    0.0000 C   0  0  0  0  0  0  0  0  0  0  0  0
   -0.7145   -0.8250    0.0000 C   0  0  0  0  0  0  0  0  0  0  0  0
    1.4289    0.4125    0.0000 C   0  0  2  0  0  0  0  0  0  0  0  0
   -1.4289   -0.4125    0.0000 C   0  0  2  0  0  0  0  0  0  0  0  0
    1.4289   -0.4125    0.0000 C   0  0  0  0  0  0  0  0  0  0  0  0
    0.7173    1.6494    0.0000 C   0  0  0  0  0  0  0  0  0  0  0  0
   -2.1447   -0.8316    0.0000 C   0  0  0  0  0  0  0  0  0  0  0  0
   -0.0107    1.3303    0.0000 H   0  0  0  0  0  0  0  0  0  0  0  0
    2.1427    0.8155    0.0000 C   0  0  0  0  0  0  0  0  0  0  0  0
    1.4245    2.0538    0.0000 C   0  0  0  0  0  0  0  0  0  0  0  0
    1.4455    2.8693    0.0000 C   0  0  1  0  0  0  0  0  0  0  0  0
    2.1525    3.2848    0.0000 O   0  0  0  0  0  0  0  0  0  0  0  0
    2.1463    4.1002    0.0000 C   0  0  0  0  0  0  0  0  0  0  0  0
    1.4370    4.5025    0.0000 C   0  0  0  0  0  0  0  0  0  0  0  0
    0.7572    4.0872    0.0000 C   0  0  1  0  0  0  0  0  0  0  0  0
    0.7633    3.2718    0.0000 C   0  0  0  0  0  0  0  0  0  0  0  0
    0.0416    4.5009    0.0000 O   0  0  0  0  0  0  0  0  0  0  0  0
    2.8531    4.5156    0.0000 O   0  0  0  0  0  0  0  0  0  0  0  0
   -1.4325    2.8866    0.0000 O   0  0  0  0  0  0  0  0  0  0  0  0
   -1.4311    2.0616    0.0000 C   0  0  0  0  0  0  0  0  0  0  0  0
   -0.7159    1.6503    0.0000 O   0  0  0  0  0  0  0  0  0  0  0  0
   -2.8600    2.0591    0.0000 C   0  0  0  0  0  0  0  0  0  0  0  0
   -3.5738    1.6453    0.0000 C   0  0  0  0  0  0  0  0  0  0  0  0
   -1.9299    0.8513    0.0000 C   0  0  0  0  0  0  0  0  0  0  0  0
   -2.1448    1.6478    0.0000 C   0  0  0  0  0  0  0  0  0  0  0  0
   -2.3570    0.8506    0.0000 C   0  0  0  0  0  0  0  0  0  0  0  0
    0.2117    1.3608    0.0000 H   0  0  0  0  0  0  0  0  0  0  0  0
   -0.2112    1.3616    0.0000 H   0  0  0  0  0  0  0  0  0  0  0  0
   -2.3556    0.9475    0.0000 H   0  0  0  0  0  0  0  0  0  0  0  0
   -2.3555   -0.1225    0.0000 H   0  0  0  0  0  0  0  0  0  0  0  0
    0.7145   -1.8570    0.0000 H   0  0  0  0  0  0  0  0  0  0  0  0
   -0.7145   -1.8570    0.0000 H   0  0  0  0  0  0  0  0  0  0  0  0
    1.4341    1.4825    0.0000 H   0  0  0  0  0  0  0  0  0  0  0  0
   -1.4257   -1.4825    0.0000 H   0  0  0  0  0  0  0  0  0  0  0  0
    2.3226   -0.9285    0.0000 H   0  0  0  0  0  0  0  0  0  0  0  0
   -0.2073    2.1879    0.0000 H   0  0  0  0  0  0  0  0  0  0  0  0
    0.7215    2.7194    0.0000 H   0  0  0  0  0  0  0  0  0  0  0  0
   -3.0746   -0.3023    0.0000 H   0  0  0  0  0  0  0  0  0  0  0  0
   -2.1382   -1.9016    0.0000 H   0  0  0  0  0  0  0  0  0  0  0  0
   -3.0681   -1.3722    0.0000 H   0  0  0  0  0  0  0  0  0  0  0  0
    3.0642    0.2716    0.0000 H   0  0  0  0  0  0  0  0  0  0  0  0
    2.1530    1.8855    0.0000 H   0  0  0  0  0  0  0  0  0  0  0  0
    3.0745    1.3416    0.0000 H   0  0  0  0  0  0  0  0  0  0  0  0
    2.3430    1.5050    0.0000 H   0  0  0  0  0  0  0  0  0  0  0  0
    2.3618    2.5698    0.0000 H   0  0  0  0  0  0  0  0  0  0  0  0
    2.3673    2.3260    0.0000 H   0  0  0  0  0  0  0  0  0  0  0  0
    1.4196    5.5724    0.0000 H   0  0  0  0  0  0  0  0  0  0  0  0
    0.4996    5.0184    0.0000 H   0  0  0  0  0  0  0  0  0  0  0  0
    0.7442    5.1571    0.0000 H   0  0  0  0  0  0  0  0  0  0  0  0
   -0.1639    2.7377    0.0000 H   0  0  0  0  0  0  0  0  0  0  0  0
   -0.1651    3.8038    0.0000 H   0  0  0  0  0  0  0  0  0  0  0  0
    0.0422    5.4709    0.0000 H   0  0  0  0  0  0  0  0  0  0  0  0
   -2.8619    3.1291    0.0000 H   0  0  0  0  0  0  0  0  0  0  0  0
   -3.7876    2.5925    0.0000 H   0  0  0  0  0  0  0  0  0  0  0  0
   -4.5014    2.1787    0.0000 H   0  0  0  0  0  0  0  0  0  0  0  0
   -3.5719    0.5753    0.0000 H   0  0  0  0  0  0  0  0  0  0  0  0
   -4.4995    1.1087    0.0000 H   0  0  0  0  0  0  0  0  0  0  0  0
   -2.6852    0.0934    0.0000 H   0  0  0  0  0  0  0  0  0  0  0  0
   -0.8959    0.5762    0.0000 H   0  0  0  0  0  0  0  0  0  0  0  0
   -1.6512   -0.1818    0.0000 H   0  0  0  0  0  0  0  0  0  0  0  0
   -3.3901    0.5720    0.0000 H   0  0  0  0  0  0  0  0  0  0  0  0
   -1.5991    0.0952    0.0000 H   0  0  0  0  0  0  0  0  0  0  0  0
   -2.6322   -0.1834    0.0000 H   0  0  0  0  0  0  0  0  0  0  0  0
  1 26  1  0  0  0  0
  1  5  1  0  0  0  0
  1 32  1  1  0  0  0
  2  1  1  0  0  0  0
  2 13  1  1  0  0  0
  2  3  1  0  0  0  0
  2  4  1  0  0  0  0
  3  6  1  0  0  0  0
  3  7  2  0  0  0  0
  4 11  1  0  0  0  0
  4  8  1  0  0  0  0
  4 33  1  6  0  0  0
  5  9  1  0  0  0  0
  5 34  1  0  0  0  0
  5 35  1  0  0  0  0
  6 10  2  0  0  0  0
  6 36  1  0  0  0  0
  7  9  1  0  0  0  0
  7 37  1  0  0  0  0
  8 14  1  0  0  0  0
  8 10  1  0  0  0  0
  8 38  1  6  0  0  0
  9 12  1  0  0  0  0
  9 39  1  1  0  0  0
 10 40  1  0  0  0  0
 11 15  1  0  0  0  0
 11 41  1  0  0  0  0
 11 42  1  0  0  0  0
 12 43  1  0  0  0  0
 12 44  1  0  0  0  0
 12 45  1  0  0  0  0
 14 46  1  0  0  0  0
 14 47  1  0  0  0  0
 14 48  1  0  0  0  0
 15 49  1  0  0  0  0
 15 50  1  0  0  0  0
 16 15  1  0  0  0  0
 16 17  1  0  0  0  0
 16 21  1  0  0  0  0
 16 51  1  1  0  0  0
 17 18  1  0  0  0  0
 18 19  1  0  0  0  0
 18 23  2  0  0  0  0
 19 20  1  0  0  0  0
 19 52  1  0  0  0  0
 19 53  1  0  0  0  0
 20 21  1  0  0  0  0
 20 22  1  0  0  0  0
 20 54  1  6  0  0  0
 21 55  1  0  0  0  0
 21 56  1  0  0  0  0
 22 57  1  0  0  0  0
 24 25  2  0  0  0  0
 25 30  1  0  0  0  0
 25 26  1  0  0  0  0
 27 28  1  0  0  0  0
 27 58  1  0  0  0  0
 27 59  1  0  0  0  0
 28 60  1  0  0  0  0
 28 61  1  0  0  0  0
 28 62  1  0  0  0  0
 29 63  1  0  0  0  0
 29 64  1  0  0  0  0
 29 65  1  0  0  0  0
 30 27  1  0  0  0  0
 30 29  1  0  0  0  0
 30 31  1  0  0  0  0
 31 66  1  0  0  0  0
 31 67  1  0  0  0  0
 31 68  1  0  0  0  0
M  END
>  <DRUGBANK_ID>
DB00641

>  <SECONDARY_ACCESSION_NUMBERS>
APRD00104

>  <COMMON_NAME>
Simvastatin

>  <CAS_NUMBER>
79902-63-9

>  <UNII>
AGG2FN16EV

>  <SYNONYMS>
2,2-dimethylbutyric acid, 8-ester with (4R,6R)-6-(2-((1S,2S,6R,8S,8aR)-1,2,6,7,8,8a-hexahydro-8-hydroxy-2,6-dimethyl-1-naphthyl)ethyl)tetrahydro-4-hydroxy-2H-pyran-2-one; Simvastatin; Simvastatina; Simvastatine; Simvastatinum

$$$$
