
 OpenBabel10282417072D

 55 57  0  0  0  0  0  0  0  0999 V2000
    0.7400    0.8260    0.0000 F   0  0  0  0  0  0  0  0  0  0  0  0
   -0.6883   -1.6349    0.0000 O   0  0  0  0  0  0  0  0  0  0  0  0
    0.0258    0.4216    0.0000 O   0  0  0  0  0  0  0  0  0  0  0  0
    4.3024    0.4043    0.0000 O   0  0  0  0  0  0  0  0  0  0  0  0
    3.5968    1.6349    0.0000 O   0  0  0  0  0  0  0  0  0  0  0  0
    0.7400   -0.8174    0.0000 N   0  0  0  0  0  0  0  0  0  0  0  0
   -3.5881   -0.7916    0.0000 C   0  0  0  0  0  0  0  0  0  0  0  0
   -3.5881    0.8518    0.0000 C   0  0  0  0  0  0  0  0  0  0  0  0
   -4.3024   -0.3786    0.0000 C   0  0  0  0  0  0  0  0  0  0  0  0
   -4.3024    0.4388    0.0000 C   0  0  0  0  0  0  0  0  0  0  0  0
   -2.8740   -0.3786    0.0000 C   0  0  0  0  0  0  0  0  0  0  0  0
   -2.8740    0.4388    0.0000 C   0  0  0  0  0  0  0  0  0  0  0  0
   -4.0012   -1.5058    0.0000 C   0  0  0  0  0  0  0  0  0  0  0  0
   -3.1751   -1.5058    0.0000 C   0  0  0  0  0  0  0  0  0  0  0  0
   -4.0012    1.5660    0.0000 C   0  0  0  0  0  0  0  0  0  0  0  0
   -3.1751    1.5660    0.0000 C   0  0  0  0  0  0  0  0  0  0  0  0
   -2.1426   -0.8174    0.0000 C   0  0  0  0  0  0  0  0  0  0  0  0
   -2.1426    0.8776    0.0000 C   0  0  0  0  0  0  0  0  0  0  0  0
   -1.3939   -0.3958    0.0000 C   0  0  0  0  0  0  0  0  0  0  0  0
   -1.3939    0.4560    0.0000 C   0  0  0  0  0  0  0  0  0  0  0  0
   -0.6883   -0.8088    0.0000 C   0  0  1  0  0  0  0  0  0  0  0  0
    0.0258   -0.4044    0.0000 C   0  0  0  0  0  0  0  0  0  0  0  0
    1.4542   -0.4130    0.0000 C   0  0  0  0  0  0  0  0  0  0  0  0
    1.4542    0.4130    0.0000 C   0  0  0  0  0  0  0  0  0  0  0  0
    2.1598   -0.8260    0.0000 C   0  0  0  0  0  0  0  0  0  0  0  0
    2.1684    0.8174    0.0000 C   0  0  0  0  0  0  0  0  0  0  0  0
    2.8740   -0.4130    0.0000 C   0  0  0  0  0  0  0  0  0  0  0  0
    2.8740    0.4043    0.0000 C   0  0  0  0  0  0  0  0  0  0  0  0
    3.5882    0.8174    0.0000 C   0  0  0  0  0  0  0  0  0  0  0  0
   -1.5283   -2.1199    0.0000 H   0  0  0  0  0  0  0  0  0  0  0  0
    4.3017   -0.5327    0.0000 H   0  0  0  0  0  0  0  0  0  0  0  0
    0.7355   -1.8019    0.0000 H   0  0  0  0  0  0  0  0  0  0  0  0
   -5.2292   -0.9133    0.0000 H   0  0  0  0  0  0  0  0  0  0  0  0
   -5.2290    0.1565    0.0000 H   0  0  0  0  0  0  0  0  0  0  0  0
   -5.2292    0.9735    0.0000 H   0  0  0  0  0  0  0  0  0  0  0  0
   -5.2290   -0.0963    0.0000 H   0  0  0  0  0  0  0  0  0  0  0  0
   -5.0712   -1.5050    0.0000 H   0  0  0  0  0  0  0  0  0  0  0  0
   -3.4669   -2.4329    0.0000 H   0  0  0  0  0  0  0  0  0  0  0  0
   -4.5369   -2.4320    0.0000 H   0  0  0  0  0  0  0  0  0  0  0  0
   -3.7095   -2.4328    0.0000 H   0  0  0  0  0  0  0  0  0  0  0  0
   -2.1051   -1.5051    0.0000 H   0  0  0  0  0  0  0  0  0  0  0  0
   -2.6395   -2.4321    0.0000 H   0  0  0  0  0  0  0  0  0  0  0  0
   -3.4669    2.4931    0.0000 H   0  0  0  0  0  0  0  0  0  0  0  0
   -5.0712    1.5652    0.0000 H   0  0  0  0  0  0  0  0  0  0  0  0
   -4.5369    2.4922    0.0000 H   0  0  0  0  0  0  0  0  0  0  0  0
   -2.1051    1.5653    0.0000 H   0  0  0  0  0  0  0  0  0  0  0  0
   -3.7095    2.4930    0.0000 H   0  0  0  0  0  0  0  0  0  0  0  0
   -2.6395    2.4923    0.0000 H   0  0  0  0  0  0  0  0  0  0  0  0
   -2.1568   -1.8493    0.0000 H   0  0  0  0  0  0  0  0  0  0  0  0
   -2.1568    1.9095    0.0000 H   0  0  0  0  0  0  0  0  0  0  0  0
   -0.5029    0.9768    0.0000 H   0  0  0  0  0  0  0  0  0  0  0  0
   -1.6165   -1.3410    0.0000 H   0  0  0  0  0  0  0  0  0  0  0  0
    2.1571   -1.8580    0.0000 H   0  0  0  0  0  0  0  0  0  0  0  0
    2.1759    1.8494    0.0000 H   0  0  0  0  0  0  0  0  0  0  0  0
    3.7679   -0.9287    0.0000 H   0  0  0  0  0  0  0  0  0  0  0  0
  1 24  1  0  0  0  0
  2 30  1  0  0  0  0
  3 22  2  0  0  0  0
  4 29  1  0  0  0  0
  4 31  1  0  0  0  0
  5 29  2  0  0  0  0
  6 22  1  0  0  0  0
  6 23  1  0  0  0  0
  6 32  1  0  0  0  0
  7  9  1  0  0  0  0
  7 11  1  0  0  0  0
  7 13  1  0  0  0  0
  7 14  1  0  0  0  0
  8 10  1  0  0  0  0
  8 12  1  0  0  0  0
  8 15  1  0  0  0  0
  8 16  1  0  0  0  0
  9 10  1  0  0  0  0
  9 33  1  0  0  0  0
  9 34  1  0  0  0  0
 10 35  1  0  0  0  0
 10 36  1  0  0  0  0
 11 12  2  0  0  0  0
 11 17  1  0  0  0  0
 12 18  1  0  0  0  0
 13 37  1  0  0  0  0
 13 38  1  0  0  0  0
 13 39  1  0  0  0  0
 14 40  1  0  0  0  0
 14 41  1  0  0  0  0
 14 42  1  0  0  0  0
 15 43  1  0  0  0  0
 15 44  1  0  0  0  0
 15 45  1  0  0  0  0
 16 46  1  0  0  0  0
 16 47  1  0  0  0  0
 16 48  1  0  0  0  0
 17 19  2  0  0  0  0
 17 49  1  0  0  0  0
 18 20  2  0  0  0  0
 18 50  1  0  0  0  0
 19 20  1  0  0  0  0
 19 21  1  0  0  0  0
 20 51  1  0  0  0  0
 21  2  1  0  0  0  0
 21 22  1  0  0  0  0
 21 52  1  6  0  0  0
 23 24  2  0  0  0  0
 23 25  1  0  0  0  0
 24 26  1  0  0  0  0
 25 27  2  0  0  0  0
 25 53  1  0  0  0  0
 26 28  2  0  0  0  0
 26 54  1  0  0  0  0
 27 28  1  0  0  0  0
 27 55  1  0  0  0  0
 28 29  1  0  0  0  0
M  END
>  <DRUGBANK_ID>
DB07294

>  <COMMON_NAME>
3-fluoro-4-[2-hydroxy-2-(5,5,8,8-tetramethyl-5,6,7,8,-tetrahydro-naphtalen-2-yl)-acetylamino]-benzoic acid

$$$$
