
 OpenBabel10282417072D

 39 38  0  0  0  0  0  0  0  0999 V2000
   -4.9508   -0.3412    0.0000 Br  0  0  0  0  0  0  0  0  0  0  0  0
    4.5019    0.0771    0.0000 O   0  0  0  0  0  0  0  0  0  0  0  0
   -4.1989    0.0771    0.0000 C   0  0  0  0  0  0  0  0  0  0  0  0
    3.7909   -0.3412    0.0000 C   0  0  0  0  0  0  0  0  0  0  0  0
   -3.4873   -0.3412    0.0000 C   0  0  0  0  0  0  0  0  0  0  0  0
    3.0384    0.0771    0.0000 C   0  0  0  0  0  0  0  0  0  0  0  0
   -0.6016   -0.3412    0.0000 C   0  0  0  0  0  0  0  0  0  0  0  0
    0.1093    0.0771    0.0000 C   0  0  0  0  0  0  0  0  0  0  0  0
   -2.7762    0.0771    0.0000 C   0  0  0  0  0  0  0  0  0  0  0  0
   -2.0237   -0.3412    0.0000 C   0  0  0  0  0  0  0  0  0  0  0  0
   -1.3126    0.0771    0.0000 C   0  0  0  0  0  0  0  0  0  0  0  0
    2.3274   -0.3412    0.0000 C   0  0  0  0  0  0  0  0  0  0  0  0
    1.5742    0.0771    0.0000 C   0  0  0  0  0  0  0  0  0  0  0  0
    0.8631   -0.3412    0.0000 C   0  0  0  0  0  0  0  0  0  0  0  0
    4.9508    0.3412    0.0000 H   0  0  0  0  0  0  0  0  0  0  0  0
   -4.1862    1.1470    0.0000 H   0  0  0  0  0  0  0  0  0  0  0  0
   -3.2670    0.6029    0.0000 H   0  0  0  0  0  0  0  0  0  0  0  0
    3.8040   -1.4111    0.0000 H   0  0  0  0  0  0  0  0  0  0  0  0
    2.8720   -0.8893    0.0000 H   0  0  0  0  0  0  0  0  0  0  0  0
   -3.4871   -1.4112    0.0000 H   0  0  0  0  0  0  0  0  0  0  0  0
   -2.5584   -0.8724    0.0000 H   0  0  0  0  0  0  0  0  0  0  0  0
    3.0253    1.1470    0.0000 H   0  0  0  0  0  0  0  0  0  0  0  0
    2.1063    0.6026    0.0000 H   0  0  0  0  0  0  0  0  0  0  0  0
   -0.6016   -1.4112    0.0000 H   0  0  0  0  0  0  0  0  0  0  0  0
    0.3273   -0.8724    0.0000 H   0  0  0  0  0  0  0  0  0  0  0  0
    0.0958    1.1470    0.0000 H   0  0  0  0  0  0  0  0  0  0  0  0
    1.0279    0.6258    0.0000 H   0  0  0  0  0  0  0  0  0  0  0  0
   -2.7892    1.1470    0.0000 H   0  0  0  0  0  0  0  0  0  0  0  0
   -1.8573    0.6252    0.0000 H   0  0  0  0  0  0  0  0  0  0  0  0
   -2.0107   -1.4111    0.0000 H   0  0  0  0  0  0  0  0  0  0  0  0
   -1.0917   -0.8668    0.0000 H   0  0  0  0  0  0  0  0  0  0  0  0
   -1.3126    1.1471    0.0000 H   0  0  0  0  0  0  0  0  0  0  0  0
   -2.2414    0.6083    0.0000 H   0  0  0  0  0  0  0  0  0  0  0  0
    2.3407   -1.4111    0.0000 H   0  0  0  0  0  0  0  0  0  0  0  0
    1.4086   -0.8896    0.0000 H   0  0  0  0  0  0  0  0  0  0  0  0
    1.5609    1.1470    0.0000 H   0  0  0  0  0  0  0  0  0  0  0  0
    0.6421    0.6026    0.0000 H   0  0  0  0  0  0  0  0  0  0  0  0
    0.8765   -1.4111    0.0000 H   0  0  0  0  0  0  0  0  0  0  0  0
   -0.0555   -0.8898    0.0000 H   0  0  0  0  0  0  0  0  0  0  0  0
  2  4  1  0  0  0  0
  3  1  1  0  0  0  0
  3 16  1  0  0  0  0
  3 17  1  0  0  0  0
  4  6  1  0  0  0  0
  4 18  1  0  0  0  0
  4 19  1  0  0  0  0
  5  3  1  0  0  0  0
  5 20  1  0  0  0  0
  5 21  1  0  0  0  0
  6 12  1  0  0  0  0
  6 22  1  0  0  0  0
  6 23  1  0  0  0  0
  7 11  1  0  0  0  0
  7 24  1  0  0  0  0
  7 25  1  0  0  0  0
  8  7  1  0  0  0  0
  8 26  1  0  0  0  0
  8 27  1  0  0  0  0
  9  5  1  0  0  0  0
  9 28  1  0  0  0  0
  9 29  1  0  0  0  0
 10  9  1  0  0  0  0
 10 30  1  0  0  0  0
 10 31  1  0  0  0  0
 11 10  1  0  0  0  0
 11 32  1  0  0  0  0
 11 33  1  0  0  0  0
 12 13  1  0  0  0  0
 12 34  1  0  0  0  0
 12 35  1  0  0  0  0
 13 14  1  0  0  0  0
 13 36  1  0  0  0  0
 13 37  1  0  0  0  0
 14  8  1  0  0  0  0
 14 38  1  0  0  0  0
 14 39  1  0  0  0  0
 15  2  1  0  0  0  0
M  END
>  <DRUGBANK_ID>
DB02619

>  <SECONDARY_ACCESSION_NUMBERS>
EXPT00648

>  <COMMON_NAME>
12-Bromo-1-dodecanol

>  <CAS_NUMBER>
3344-77-2

>  <UNII>
L7CYF0086V

$$$$
