ZEC
 OpenBabel10282417072D

 20 21  0  0  0  0  0  0  0  0999 V2000
    2.8148   -0.5244    0.0000 O   0  0  0  0  0  0  0  0  0  0  0  0
    2.1003   -0.1119    0.0000 C   0  0  0  0  0  0  0  0  0  0  0  0
    1.3858   -0.5244    0.0000 C   0  0  0  0  0  0  0  0  0  0  0  0
    0.6714   -0.1119    0.0000 C   0  0  0  0  0  0  0  0  0  0  0  0
   -0.1133   -0.3669    0.0000 S   0  0  0  0  0  0  0  0  0  0  0  0
   -0.5982    0.3006    0.0000 C   0  0  0  0  0  0  0  0  0  0  0  0
   -1.4232    0.3006    0.0000 S   0  0  0  0  0  0  0  0  0  0  0  0
   -2.2482    0.3006    0.0000 N   0  0  0  0  0  0  0  0  0  0  0  0
   -1.4232    1.1256    0.0000 O   0  0  0  0  0  0  0  0  0  0  0  0
   -1.4232   -0.5244    0.0000 O   0  0  0  0  0  0  0  0  0  0  0  0
   -0.1133    0.9680    0.0000 N   0  0  0  0  0  0  0  0  0  0  0  0
    0.6714    0.7131    0.0000 C   0  0  0  0  0  0  0  0  0  0  0  0
    1.3858    1.1256    0.0000 C   0  0  0  0  0  0  0  0  0  0  0  0
    2.1003    0.7131    0.0000 C   0  0  0  0  0  0  0  0  0  0  0  0
    2.8148   -1.4614    0.0000 H   0  0  0  0  0  0  0  0  0  0  0  0
    1.3858   -1.5564    0.0000 H   0  0  0  0  0  0  0  0  0  0  0  0
   -2.7582    1.1839    0.0000 H   0  0  0  0  0  0  0  0  0  0  0  0
   -2.7582   -0.5827    0.0000 H   0  0  0  0  0  0  0  0  0  0  0  0
    1.3858    2.1576    0.0000 H   0  0  0  0  0  0  0  0  0  0  0  0
    2.9940    1.2291    0.0000 H   0  0  0  0  0  0  0  0  0  0  0  0
  1  2  1  0  0  0  0
  1 15  1  0  0  0  0
  2  3  2  0  0  0  0
  2 14  1  0  0  0  0
  3  4  1  0  0  0  0
  3 16  1  0  0  0  0
  4  5  1  0  0  0  0
  4 12  2  0  0  0  0
  5  6  1  0  0  0  0
  6  7  1  0  0  0  0
  6 11  2  0  0  0  0
  7  8  1  0  0  0  0
  7  9  2  0  0  0  0
  7 10  2  0  0  0  0
  8 17  1  0  0  0  0
  8 18  1  0  0  0  0
 11 12  1  0  0  0  0
 12 13  1  0  0  0  0
 13 14  2  0  0  0  0
 13 19  1  0  0  0  0
 14 20  1  0  0  0  0
M  END
>  <DRUGBANK_ID>
DB08765

>  <COMMON_NAME>
6-HYDROXY-1,3-BENZOTHIAZOLE-2-SULFONAMIDE

$$$$
