
 OpenBabel10282417072D

 43 45  0  0  0  0  0  0  0  0999 V2000
   -3.0312    2.1375    0.0000 C   0  0  0  0  0  0  0  0  0  0  0  0
   -3.7457    1.7250    0.0000 C   0  0  0  0  0  0  0  0  0  0  0  0
   -3.0312    2.9625    0.0000 C   0  0  0  0  0  0  0  0  0  0  0  0
   -3.0312    3.7875    0.0000 F   0  0  0  0  0  0  0  0  0  0  0  0
   -2.2062    2.9625    0.0000 F   0  0  0  0  0  0  0  0  0  0  0  0
   -3.8562    2.9625    0.0000 F   0  0  0  0  0  0  0  0  0  0  0  0
   -3.0312    0.4875    0.0000 N   0  0  0  0  0  0  0  0  0  0  0  0
   -3.7457    0.9000    0.0000 C   0  0  0  0  0  0  0  0  0  0  0  0
   -4.4602    0.4875    0.0000 O   0  0  0  0  0  0  0  0  0  0  0  0
   -2.3168    1.7250    0.0000 C   0  0  0  0  0  0  0  0  0  0  0  0
   -2.3168    0.9000    0.0000 C   0  0  0  0  0  0  0  0  0  0  0  0
   -1.6023    2.1375    0.0000 C   0  0  0  0  0  0  0  0  0  0  0  0
   -1.6023    0.4875    0.0000 C   0  0  0  0  0  0  0  0  0  0  0  0
   -0.8879    0.9000    0.0000 C   0  0  0  0  0  0  0  0  0  0  0  0
   -0.8879    1.7250    0.0000 C   0  0  0  0  0  0  0  0  0  0  0  0
    0.7326    3.1178    0.0000 C   0  0  0  0  0  0  0  0  0  0  0  0
   -0.0765    2.9567    0.0000 C   0  0  2  0  0  0  0  0  0  0  0  0
    0.5759    1.7922    0.0000 C   0  0  1  0  0  0  0  0  0  0  0  0
    1.1358    2.3980    0.0000 C   0  0  0  0  0  0  0  0  0  0  0  0
   -0.1734    2.1375    0.0000 N   0  0  0  0  0  0  0  0  0  0  0  0
   -0.6824    3.5166    0.0000 C   0  0  0  0  0  0  0  0  0  0  0  0
    0.7369    0.9830    0.0000 C   0  0  2  0  0  0  0  0  0  0  0  0
    1.5181    0.7178    0.0000 C   0  0  0  0  0  0  0  0  0  0  0  0
    2.1384    1.2617    0.0000 F   0  0  0  0  0  0  0  0  0  0  0  0
    2.2993    0.4526    0.0000 F   0  0  0  0  0  0  0  0  0  0  0  0
    1.6790   -0.0914    0.0000 F   0  0  0  0  0  0  0  0  0  0  0  0
    0.1166    0.4390    0.0000 O   0  0  0  0  0  0  0  0  0  0  0  0
   -4.6394    2.2410    0.0000 H   0  0  0  0  0  0  0  0  0  0  0  0
   -3.0312   -0.4970    0.0000 H   0  0  0  0  0  0  0  0  0  0  0  0
   -1.6023    3.1695    0.0000 H   0  0  0  0  0  0  0  0  0  0  0  0
   -1.6023   -0.5445    0.0000 H   0  0  0  0  0  0  0  0  0  0  0  0
    0.0058    0.3840    0.0000 H   0  0  0  0  0  0  0  0  0  0  0  0
    1.1804    4.0896    0.0000 H   0  0  0  0  0  0  0  0  0  0  0  0
    1.8018    3.1599    0.0000 H   0  0  0  0  0  0  0  0  0  0  0  0
   -1.0803    2.5862    0.0000 H   0  0  0  0  0  0  0  0  0  0  0  0
    0.3670    2.8416    0.0000 H   0  0  0  0  0  0  0  0  0  0  0  0
    2.1984    2.2723    0.0000 H   0  0  0  0  0  0  0  0  0  0  0  0
    1.5062    1.3942    0.0000 H   0  0  0  0  0  0  0  0  0  0  0  0
   -0.4464    4.5603    0.0000 H   0  0  0  0  0  0  0  0  0  0  0  0
   -1.7042    3.1991    0.0000 H   0  0  0  0  0  0  0  0  0  0  0  0
   -1.4682    4.2428    0.0000 H   0  0  0  0  0  0  0  0  0  0  0  0
   -0.2763    1.3269    0.0000 H   0  0  0  0  0  0  0  0  0  0  0  0
   -0.8019    0.7508    0.0000 H   0  0  0  0  0  0  0  0  0  0  0  0
  1  2  2  0  0  0  0
  1 10  1  0  0  0  0
  1  3  1  0  0  0  0
  2  8  1  0  0  0  0
  2 28  1  0  0  0  0
  3  4  1  0  0  0  0
  3  6  1  0  0  0  0
  3  5  1  0  0  0  0
  7 11  1  0  0  0  0
  7 29  1  0  0  0  0
  8  7  1  0  0  0  0
  8  9  2  0  0  0  0
 10 11  2  0  0  0  0
 11 13  1  0  0  0  0
 12 10  1  0  0  0  0
 12 15  2  0  0  0  0
 12 30  1  0  0  0  0
 13 14  2  0  0  0  0
 13 31  1  0  0  0  0
 14 15  1  0  0  0  0
 14 32  1  0  0  0  0
 15 20  1  0  0  0  0
 16 17  1  0  0  0  0
 16 19  1  0  0  0  0
 16 33  1  0  0  0  0
 16 34  1  0  0  0  0
 17 20  1  0  0  0  0
 17 21  1  0  0  0  0
 17 35  1  1  0  0  0
 18 20  1  0  0  0  0
 18 19  1  0  0  0  0
 18 36  1  1  0  0  0
 19 37  1  0  0  0  0
 19 38  1  0  0  0  0
 21 39  1  0  0  0  0
 21 40  1  0  0  0  0
 21 41  1  0  0  0  0
 22 18  1  0  0  0  0
 22 23  1  0  0  0  0
 22 27  1  0  0  0  0
 22 42  1  1  0  0  0
 23 26  1  0  0  0  0
 23 24  1  0  0  0  0
 23 25  1  0  0  0  0
 27 43  1  0  0  0  0
M  END
>  <DRUGBANK_ID>
DB05234

>  <COMMON_NAME>
LGD2941

>  <UNII>
27H8PR7JGK

$$$$
