H12
 OpenBabel10282417072D

 44 46  0  0  0  0  0  0  0  0999 V2000
    0.3883    0.9139    0.0000 C   0  0  0  0  0  0  0  0  0  0  0  0
   -0.3262    0.5014    0.0000 C   0  0  0  0  0  0  0  0  0  0  0  0
   -1.0406    0.9139    0.0000 C   0  0  0  0  0  0  0  0  0  0  0  0
   -1.0406    1.7389    0.0000 C   0  0  0  0  0  0  0  0  0  0  0  0
   -0.3262    2.1514    0.0000 C   0  0  0  0  0  0  0  0  0  0  0  0
    0.3883    1.7389    0.0000 C   0  0  0  0  0  0  0  0  0  0  0  0
    1.1028   -1.9736    0.0000 N   0  0  0  0  0  0  0  0  0  0  0  0
    0.3883   -1.5611    0.0000 C   0  0  0  0  0  0  0  0  0  0  0  0
   -0.3262   -1.9736    0.0000 O   0  0  0  0  0  0  0  0  0  0  0  0
    0.3883   -0.7361    0.0000 C   0  0  0  0  0  0  0  0  0  0  0  0
    1.1028   -0.3236    0.0000 C   0  0  0  0  0  0  0  0  0  0  0  0
    1.1028    0.5014    0.0000 O   0  0  0  0  0  0  0  0  0  0  0  0
    1.8173   -1.5611    0.0000 C   0  0  0  0  0  0  0  0  0  0  0  0
    1.8173   -0.7361    0.0000 C   0  0  0  0  0  0  0  0  0  0  0  0
    2.5317   -0.3236    0.0000 C   0  0  0  0  0  0  0  0  0  0  0  0
    3.2462   -0.7361    0.0000 C   0  0  0  0  0  0  0  0  0  0  0  0
    3.2462   -1.5611    0.0000 C   0  0  0  0  0  0  0  0  0  0  0  0
    2.5317   -1.9736    0.0000 C   0  0  0  0  0  0  0  0  0  0  0  0
    3.9607   -0.3236    0.0000 Cl  0  0  0  0  0  0  0  0  0  0  0  0
   -0.3262   -0.3236    0.0000 C   0  0  0  0  0  0  0  0  0  0  0  0
   -1.0406   -0.7361    0.0000 C   0  0  0  0  0  0  0  0  0  0  0  0
   -1.7551   -0.3236    0.0000 C   0  0  0  0  0  0  0  0  0  0  0  0
    1.3149    1.4489    0.0000 H   0  0  0  0  0  0  0  0  0  0  0  0
   -0.3262   -0.5686    0.0000 H   0  0  0  0  0  0  0  0  0  0  0  0
   -1.2529   -0.0336    0.0000 H   0  0  0  0  0  0  0  0  0  0  0  0
   -1.9673    0.3789    0.0000 H   0  0  0  0  0  0  0  0  0  0  0  0
   -1.9672    1.4489    0.0000 H   0  0  0  0  0  0  0  0  0  0  0  0
   -1.9673    2.2739    0.0000 H   0  0  0  0  0  0  0  0  0  0  0  0
   -1.0406    2.8089    0.0000 H   0  0  0  0  0  0  0  0  0  0  0  0
   -0.3262    3.2214    0.0000 H   0  0  0  0  0  0  0  0  0  0  0  0
    0.6004    2.6864    0.0000 H   0  0  0  0  0  0  0  0  0  0  0  0
    1.3149    2.2739    0.0000 H   0  0  0  0  0  0  0  0  0  0  0  0
    0.3883    2.8089    0.0000 H   0  0  0  0  0  0  0  0  0  0  0  0
    1.1028   -2.9581    0.0000 H   0  0  0  0  0  0  0  0  0  0  0  0
    2.5317    0.7084    0.0000 H   0  0  0  0  0  0  0  0  0  0  0  0
    4.1399   -2.0771    0.0000 H   0  0  0  0  0  0  0  0  0  0  0  0
    2.5317   -3.0056    0.0000 H   0  0  0  0  0  0  0  0  0  0  0  0
   -0.3262    0.7464    0.0000 H   0  0  0  0  0  0  0  0  0  0  0  0
   -1.2529    0.2114    0.0000 H   0  0  0  0  0  0  0  0  0  0  0  0
   -1.0406   -1.8061    0.0000 H   0  0  0  0  0  0  0  0  0  0  0  0
   -1.9672   -1.2711    0.0000 H   0  0  0  0  0  0  0  0  0  0  0  0
   -1.7551    0.7464    0.0000 H   0  0  0  0  0  0  0  0  0  0  0  0
   -2.6817   -0.8586    0.0000 H   0  0  0  0  0  0  0  0  0  0  0  0
   -2.6818    0.2114    0.0000 H   0  0  0  0  0  0  0  0  0  0  0  0
  1  2  1  0  0  0  0
  1  6  1  0  0  0  0
  1 12  1  0  0  0  0
  1 23  1  0  0  0  0
  2  3  1  0  0  0  0
  2 24  1  0  0  0  0
  2 25  1  0  0  0  0
  3  4  1  0  0  0  0
  3 26  1  0  0  0  0
  3 27  1  0  0  0  0
  4  5  1  0  0  0  0
  4 28  1  0  0  0  0
  4 29  1  0  0  0  0
  5  6  1  0  0  0  0
  5 30  1  0  0  0  0
  5 31  1  0  0  0  0
  6 32  1  0  0  0  0
  6 33  1  0  0  0  0
  7  8  1  0  0  0  0
  7 13  1  0  0  0  0
  7 34  1  0  0  0  0
  8  9  2  0  0  0  0
  8 10  1  0  0  0  0
 10 11  2  0  0  0  0
 10 20  1  0  0  0  0
 11 12  1  0  0  0  0
 11 14  1  0  0  0  0
 13 14  1  0  0  0  0
 13 18  2  0  0  0  0
 14 15  2  0  0  0  0
 15 16  1  0  0  0  0
 15 35  1  0  0  0  0
 16 17  2  0  0  0  0
 16 19  1  0  0  0  0
 17 18  1  0  0  0  0
 17 36  1  0  0  0  0
 18 37  1  0  0  0  0
 20 21  1  0  0  0  0
 20 38  1  0  0  0  0
 20 39  1  0  0  0  0
 21 22  1  0  0  0  0
 21 40  1  0  0  0  0
 21 41  1  0  0  0  0
 22 42  1  0  0  0  0
 22 43  1  0  0  0  0
 22 44  1  0  0  0  0
M  END
>  <DRUGBANK_ID>
DB07867

>  <COMMON_NAME>
6-CHLORO-4-(CYCLOHEXYLOXY)-3-PROPYLQUINOLIN-2(1H)-ONE

$$$$
