
 OpenBabel10282417072D

 54 55  0  0  0  0  0  0  0  0999 V2000
   -2.0415    0.8318    0.0000 C   0  0  0  0  0  0  0  0  0  0  0  0
   -2.4539    0.1174    0.0000 C   0  0  0  0  0  0  0  0  0  0  0  0
   -2.0414   -0.5971    0.0000 C   0  0  0  0  0  0  0  0  0  0  0  0
   -1.2164   -0.5971    0.0000 C   0  0  0  0  0  0  0  0  0  0  0  0
   -0.8039    0.1173    0.0000 C   0  0  0  0  0  0  0  0  0  0  0  0
   -1.2164    0.8318    0.0000 C   0  0  0  0  0  0  0  0  0  0  0  0
    0.0210    0.1173    0.0000 C   0  0  0  0  0  0  0  0  0  0  0  0
    0.4335   -0.5970    0.0000 C   0  0  0  0  0  0  0  0  0  0  0  0
    1.2586   -0.5971    0.0000 N   0  0  0  0  0  0  0  0  0  0  0  0
    1.6711    0.1172    0.0000 C   0  0  0  0  0  0  0  0  0  0  0  0
    1.2586    0.8317    0.0000 C   0  0  0  0  0  0  0  0  0  0  0  0
    0.4335    0.8318    0.0000 C   0  0  0  0  0  0  0  0  0  0  0  0
   -2.4540    1.5463    0.0000 C   0  0  0  0  0  0  0  0  0  0  0  0
   -3.2790    1.5463    0.0000 C   0  0  0  0  0  0  0  0  0  0  0  0
   -2.0415    2.2608    0.0000 C   0  0  0  0  0  0  0  0  0  0  0  0
   -2.8665    2.2608    0.0000 C   0  0  0  0  0  0  0  0  0  0  0  0
   -2.4539   -1.3115    0.0000 C   0  0  0  0  0  0  0  0  0  0  0  0
   -3.2789   -1.3115    0.0000 N   0  0  0  0  0  0  0  0  0  0  0  0
   -3.6914   -2.0260    0.0000 C   0  0  0  0  0  0  0  0  0  0  0  0
   -4.5164   -2.0260    0.0000 C   0  0  0  0  0  0  0  0  0  0  0  0
   -3.2789   -2.7405    0.0000 C   0  0  0  0  0  0  0  0  0  0  0  0
   -4.1039   -2.7404    0.0000 C   0  0  0  0  0  0  0  0  0  0  0  0
   -0.8039   -1.3116    0.0000 O   0  0  0  0  0  0  0  0  0  0  0  0
    1.6712    1.5462    0.0000 F   0  0  0  0  0  0  0  0  0  0  0  0
    2.4961    0.1172    0.0000 C   0  0  0  0  0  0  0  0  0  0  0  0
    2.9086   -0.5972    0.0000 F   0  0  0  0  0  0  0  0  0  0  0  0
    2.9086    0.8316    0.0000 F   0  0  0  0  0  0  0  0  0  0  0  0
    3.3211    0.1171    0.0000 F   0  0  0  0  0  0  0  0  0  0  0  0
   -3.4859    0.1174    0.0000 H   0  0  0  0  0  0  0  0  0  0  0  0
   -0.7004    1.7255    0.0000 H   0  0  0  0  0  0  0  0  0  0  0  0
   -0.0825   -1.4907    0.0000 H   0  0  0  0  0  0  0  0  0  0  0  0
   -0.0825    1.7256    0.0000 H   0  0  0  0  0  0  0  0  0  0  0  0
   -3.8140    2.4729    0.0000 H   0  0  0  0  0  0  0  0  0  0  0  0
   -3.8140    0.6197    0.0000 H   0  0  0  0  0  0  0  0  0  0  0  0
   -4.3490    1.5463    0.0000 H   0  0  0  0  0  0  0  0  0  0  0  0
   -0.9715    2.2608    0.0000 H   0  0  0  0  0  0  0  0  0  0  0  0
   -2.5765    3.1874    0.0000 H   0  0  0  0  0  0  0  0  0  0  0  0
   -1.5065    3.1875    0.0000 H   0  0  0  0  0  0  0  0  0  0  0  0
   -2.3315    3.1874    0.0000 H   0  0  0  0  0  0  0  0  0  0  0  0
   -3.9365    2.2608    0.0000 H   0  0  0  0  0  0  0  0  0  0  0  0
   -3.4015    3.1875    0.0000 H   0  0  0  0  0  0  0  0  0  0  0  0
   -1.9189   -2.2382    0.0000 H   0  0  0  0  0  0  0  0  0  0  0  0
   -2.9889   -2.2381    0.0000 H   0  0  0  0  0  0  0  0  0  0  0  0
   -3.7889   -0.4282    0.0000 H   0  0  0  0  0  0  0  0  0  0  0  0
   -5.0514   -1.0994    0.0000 H   0  0  0  0  0  0  0  0  0  0  0  0
   -5.0514   -2.9526    0.0000 H   0  0  0  0  0  0  0  0  0  0  0  0
   -5.5864   -2.0260    0.0000 H   0  0  0  0  0  0  0  0  0  0  0  0
   -3.8139   -3.6671    0.0000 H   0  0  0  0  0  0  0  0  0  0  0  0
   -2.2089   -2.7405    0.0000 H   0  0  0  0  0  0  0  0  0  0  0  0
   -2.7439   -3.6672    0.0000 H   0  0  0  0  0  0  0  0  0  0  0  0
   -5.1739   -2.7404    0.0000 H   0  0  0  0  0  0  0  0  0  0  0  0
   -3.5689   -3.6671    0.0000 H   0  0  0  0  0  0  0  0  0  0  0  0
   -4.6389   -3.6670    0.0000 H   0  0  0  0  0  0  0  0  0  0  0  0
   -1.2724   -2.1231    0.0000 H   0  0  0  0  0  0  0  0  0  0  0  0
  1  2  2  0  0  0  0
  1 13  1  0  0  0  0
  2  3  1  0  0  0  0
  2 29  1  0  0  0  0
  3  4  2  0  0  0  0
  3 17  1  0  0  0  0
  4  5  1  0  0  0  0
  4 23  1  0  0  0  0
  5  6  2  0  0  0  0
  5  7  1  0  0  0  0
  6  1  1  0  0  0  0
  6 30  1  0  0  0  0
  7  8  2  0  0  0  0
  8  9  1  0  0  0  0
  8 31  1  0  0  0  0
  9 10  2  0  0  0  0
 10 11  1  0  0  0  0
 10 25  1  0  0  0  0
 11 12  2  0  0  0  0
 11 24  1  0  0  0  0
 12  7  1  0  0  0  0
 12 32  1  0  0  0  0
 13 14  1  0  0  0  0
 13 15  1  0  0  0  0
 13 16  1  0  0  0  0
 14 33  1  0  0  0  0
 14 34  1  0  0  0  0
 14 35  1  0  0  0  0
 15 36  1  0  0  0  0
 15 37  1  0  0  0  0
 15 38  1  0  0  0  0
 16 39  1  0  0  0  0
 16 40  1  0  0  0  0
 16 41  1  0  0  0  0
 17 18  1  0  0  0  0
 17 42  1  0  0  0  0
 17 43  1  0  0  0  0
 18 19  1  0  0  0  0
 18 44  1  0  0  0  0
 19 20  1  0  0  0  0
 19 21  1  0  0  0  0
 19 22  1  0  0  0  0
 20 45  1  0  0  0  0
 20 46  1  0  0  0  0
 20 47  1  0  0  0  0
 21 48  1  0  0  0  0
 21 49  1  0  0  0  0
 21 50  1  0  0  0  0
 22 51  1  0  0  0  0
 22 52  1  0  0  0  0
 22 53  1  0  0  0  0
 23 54  1  0  0  0  0
 25 27  1  0  0  0  0
 25 28  1  0  0  0  0
 25 26  1  0  0  0  0
M  END
>  <DRUGBANK_ID>
DB15609

>  <COMMON_NAME>
JPC-3210

>  <CAS_NUMBER>
1609655-35-7

$$$$
