
 OpenBabel10282417072D

155164  0  0  1  0  0  0  0  0999 V2000
   12.1614    0.8886    0.0000 C   0  0  0  0  0  0  0  0  0  0  0  0
   11.5060    0.3876    0.0000 C   0  0  0  0  0  0  0  0  0  0  0  0
   10.7154    0.6235    0.0000 S   0  0  0  0  0  0  0  0  0  0  0  0
   10.2468   -0.0556    0.0000 C   0  0  0  0  0  0  0  0  0  0  0  0
   10.7478   -0.7110    0.0000 N   0  0  0  0  0  0  0  0  0  0  0  0
   11.5260   -0.4371    0.0000 C   0  0  0  0  0  0  0  0  0  0  0  0
   12.4926   -1.0003    0.0000 C   0  0  0  0  0  0  0  0  0  0  0  0
   13.0111   -0.3586    0.0000 O   0  0  0  0  0  0  0  0  0  0  0  0
   13.0485   -1.6100    0.0000 N   0  0  0  0  0  0  0  0  0  0  0  0
   13.4602   -2.3248    0.0000 C   0  0  2  0  0  0  0  0  0  0  0  0
   13.7087   -3.1115    0.0000 C   0  0  0  0  0  0  0  0  0  0  0  0
   12.9194   -3.3515    0.0000 S   0  0  0  0  0  0  0  0  0  0  0  0
   12.9037   -4.1763    0.0000 C   0  0  0  0  0  0  0  0  0  0  0  0
   13.6833   -4.4462    0.0000 C   0  0  0  0  0  0  0  0  0  0  0  0
   14.1809   -3.7881    0.0000 N   0  0  0  0  0  0  0  0  0  0  0  0
   13.3992   -5.5282    0.0000 C   0  0  0  0  0  0  0  0  0  0  0  0
   14.1563   -5.8561    0.0000 O   0  0  0  0  0  0  0  0  0  0  0  0
   12.9605   -6.2269    0.0000 N   0  0  0  0  0  0  0  0  0  0  0  0
   12.3818   -6.8149    0.0000 C   0  0  0  0  0  0  0  0  0  0  0  0
   11.6903   -7.2648    0.0000 C   0  0  0  0  0  0  0  0  0  0  0  0
   12.0628   -8.0009    0.0000 O   0  0  0  0  0  0  0  0  0  0  0  0
   10.9182   -7.5555    0.0000 N   0  0  0  0  0  0  0  0  0  0  0  0
   10.1017   -7.6735    0.0000 C   0  0  2  0  0  0  0  0  0  0  0  0
    9.2789   -7.6131    0.0000 C   0  0  0  0  0  0  0  0  0  0  0  0
    8.7397   -8.2375    0.0000 S   0  0  0  0  0  0  0  0  0  0  0  0
    7.9792   -7.9176    0.0000 C   0  0  0  0  0  0  0  0  0  0  0  0
    8.0485   -7.0955    0.0000 C   0  0  0  0  0  0  0  0  0  0  0  0
    8.8517   -6.9073    0.0000 N   0  0  0  0  0  0  0  0  0  0  0  0
    7.1484   -6.4311    0.0000 C   0  0  0  0  0  0  0  0  0  0  0  0
    6.3413   -6.6018    0.0000 S   0  0  0  0  0  0  0  0  0  0  0  0
    5.9295   -5.8869    0.0000 C   0  0  0  0  0  0  0  0  0  0  0  0
    6.4821   -5.2744    0.0000 C   0  0  0  0  0  0  0  0  0  0  0  0
    7.2355   -5.6107    0.0000 N   0  0  0  0  0  0  0  0  0  0  0  0
    6.1677   -4.2008    0.0000 C   0  0  0  0  0  0  0  0  0  0  0  0
    5.4455   -4.5996    0.0000 N   0  0  0  0  0  0  0  0  0  0  0  0
    4.7390   -4.1735    0.0000 C   0  0  0  0  0  0  0  0  0  0  0  0
    4.7547   -3.3487    0.0000 C   0  0  0  0  0  0  0  0  0  0  0  0
    5.4769   -2.9499    0.0000 C   0  0  0  0  0  0  0  0  0  0  0  0
    6.1834   -3.3759    0.0000 C   0  0  0  0  0  0  0  0  0  0  0  0
    6.3761   -2.5737    0.0000 C   0  0  0  0  0  0  0  0  0  0  0  0
    5.8472   -1.9406    0.0000 S   0  0  0  0  0  0  0  0  0  0  0  0
    6.2859   -1.2419    0.0000 C   0  0  0  0  0  0  0  0  0  0  0  0
    7.0859   -1.4432    0.0000 C   0  0  0  0  0  0  0  0  0  0  0  0
    7.1417   -2.2663    0.0000 N   0  0  0  0  0  0  0  0  0  0  0  0
    7.8872   -0.6625    0.0000 C   0  0  0  0  0  0  0  0  0  0  0  0
    7.4076    0.0087    0.0000 O   0  0  0  0  0  0  0  0  0  0  0  0
    8.6233   -0.2900    0.0000 N   0  0  0  0  0  0  0  0  0  0  0  0
    9.4223   -0.0845    0.0000 C   0  0  1  0  0  0  0  0  0  0  0  0
    9.3044    0.7320    0.0000 C   0  0  0  0  0  0  0  0  0  0  0  0
    8.5383    1.0381    0.0000 C   0  0  0  0  0  0  0  0  0  0  0  0
    8.4204    1.8547    0.0000 O   0  0  0  0  0  0  0  0  0  0  0  0
    7.8901    0.5277    0.0000 N   0  0  0  0  0  0  0  0  0  0  0  0
    7.1240    0.8339    0.0000 C   0  0  0  0  0  0  0  0  0  0  0  0
    4.0168   -4.5724    0.0000 C   0  0  0  0  0  0  0  0  0  0  0  0
    3.2697   -4.2225    0.0000 S   0  0  0  0  0  0  0  0  0  0  0  0
    2.7061   -4.8250    0.0000 C   0  0  0  0  0  0  0  0  0  0  0  0
    3.1049   -5.5472    0.0000 C   0  0  0  0  0  0  0  0  0  0  0  0
    3.9150   -5.3910    0.0000 N   0  0  0  0  0  0  0  0  0  0  0  0
    2.7550   -6.2943    0.0000 N   0  0  0  0  0  0  0  0  0  0  0  0
    1.9331   -6.3649    0.0000 C   0  0  0  0  0  0  0  0  0  0  0  0
    1.4609   -5.6883    0.0000 O   0  0  0  0  0  0  0  0  0  0  0  0
    1.5832   -7.1121    0.0000 O   0  0  0  0  0  0  0  0  0  0  0  0
    0.7612   -7.1826    0.0000 C   0  0  1  0  0  0  0  0  0  0  0  0
    0.4114   -7.9298    0.0000 C   0  0  0  0  0  0  0  0  0  0  0  0
   -0.4106   -8.0004    0.0000 C   0  0  0  0  0  0  0  0  0  0  0  0
   -0.8827   -7.3238    0.0000 C   0  0  1  0  0  0  0  0  0  0  0  0
   -0.5329   -6.5767    0.0000 C   0  0  0  0  0  0  0  0  0  0  0  0
    0.2891   -6.5061    0.0000 C   0  0  0  0  0  0  0  0  0  0  0  0
   -1.7047   -7.3944    0.0000 C   0  0  0  0  0  0  0  0  0  0  0  0
   -2.1768   -6.7179    0.0000 O   0  0  0  0  0  0  0  0  0  0  0  0
   -2.0546   -8.1416    0.0000 O   0  0  0  0  0  0  0  0  0  0  0  0
    3.2271   -6.9709    0.0000 C   0  0  0  0  0  0  0  0  0  0  0  0
    4.0491   -6.9003    0.0000 C   0  0  0  0  0  0  0  0  0  0  0  0
    4.5212   -7.5768    0.0000 C   0  0  0  0  0  0  0  0  0  0  0  0
    5.3432   -7.5062    0.0000 C   0  0  0  0  0  0  0  0  0  0  0  0
    5.8153   -8.1828    0.0000 C   0  0  0  0  0  0  0  0  0  0  0  0
    5.4655   -8.9299    0.0000 O   0  0  0  0  0  0  0  0  0  0  0  0
    6.6373   -8.1122    0.0000 O   0  0  0  0  0  0  0  0  0  0  0  0
   10.1307   -8.4980    0.0000 C   0  0  1  0  0  0  0  0  0  0  0  0
    9.4311   -8.9353    0.0000 O   0  0  0  0  0  0  0  0  0  0  0  0
   10.8592   -8.8851    0.0000 C   0  0  0  0  0  0  0  0  0  0  0  0
   11.5587   -8.4478    0.0000 C   0  0  0  0  0  0  0  0  0  0  0  0
   12.2872   -8.8349    0.0000 C   0  0  0  0  0  0  0  0  0  0  0  0
   12.3162   -9.6594    0.0000 C   0  0  0  0  0  0  0  0  0  0  0  0
   11.6167  -10.0968    0.0000 C   0  0  0  0  0  0  0  0  0  0  0  0
   10.8881   -9.7096    0.0000 C   0  0  0  0  0  0  0  0  0  0  0  0
   12.2271   -4.6485    0.0000 C   0  0  0  0  0  0  0  0  0  0  0  0
   11.4800   -4.2986    0.0000 O   0  0  0  0  0  0  0  0  0  0  0  0
   11.4094   -3.4766    0.0000 C   0  0  0  0  0  0  0  0  0  0  0  0
   14.2155   -1.9928    0.0000 C   0  0  0  0  0  0  0  0  0  0  0  0
   14.8807   -2.4808    0.0000 C   0  0  0  0  0  0  0  0  0  0  0  0
   14.3055   -1.1727    0.0000 C   0  0  0  0  0  0  0  0  0  0  0  0
   13.1492    0.4773    0.0000 H   0  0  0  0  0  0  0  0  0  0  0  0
   12.0237    1.9497    0.0000 H   0  0  0  0  0  0  0  0  0  0  0  0
   13.0115    1.5384    0.0000 H   0  0  0  0  0  0  0  0  0  0  0  0
   13.8435   -1.0293    0.0000 H   0  0  0  0  0  0  0  0  0  0  0  0
   13.7938   -1.3081    0.0000 H   0  0  0  0  0  0  0  0  0  0  0  0
   13.7328   -6.8375    0.0000 H   0  0  0  0  0  0  0  0  0  0  0  0
   13.0588   -7.6435    0.0000 H   0  0  0  0  0  0  0  0  0  0  0  0
   12.2172   -7.8722    0.0000 H   0  0  0  0  0  0  0  0  0  0  0  0
   11.1635   -8.5090    0.0000 H   0  0  0  0  0  0  0  0  0  0  0  0
   10.9228   -8.3596    0.0000 H   0  0  0  0  0  0  0  0  0  0  0  0
    7.0963   -8.4520    0.0000 H   0  0  0  0  0  0  0  0  0  0  0  0
    4.9033   -5.7780    0.0000 H   0  0  0  0  0  0  0  0  0  0  0  0
    3.8710   -2.8158    0.0000 H   0  0  0  0  0  0  0  0  0  0  0  0
    5.4965   -1.9181    0.0000 H   0  0  0  0  0  0  0  0  0  0  0  0
    5.9014   -0.2842    0.0000 H   0  0  0  0  0  0  0  0  0  0  0  0
    8.2764    0.6314    0.0000 H   0  0  0  0  0  0  0  0  0  0  0  0
    8.5319    0.5089    0.0000 H   0  0  0  0  0  0  0  0  0  0  0  0
   10.1451    1.3940    0.0000 H   0  0  0  0  0  0  0  0  0  0  0  0
    9.1514    1.7910    0.0000 H   0  0  0  0  0  0  0  0  0  0  0  0
    8.0308   -0.4467    0.0000 H   0  0  0  0  0  0  0  0  0  0  0  0
    6.9711    1.8929    0.0000 H   0  0  0  0  0  0  0  0  0  0  0  0
    6.2833    0.1720    0.0000 H   0  0  0  0  0  0  0  0  0  0  0  0
    6.1304    1.2310    0.0000 H   0  0  0  0  0  0  0  0  0  0  0  0
    1.6820   -4.6976    0.0000 H   0  0  0  0  0  0  0  0  0  0  0  0
    1.3735   -8.0601    0.0000 H   0  0  0  0  0  0  0  0  0  0  0  0
    1.0238   -8.8072    0.0000 H   0  0  0  0  0  0  0  0  0  0  0  0
   -0.0423   -8.8988    0.0000 H   0  0  0  0  0  0  0  0  0  0  0  0
   -0.8644   -8.9694    0.0000 H   0  0  0  0  0  0  0  0  0  0  0  0
   -1.4767   -8.0919    0.0000 H   0  0  0  0  0  0  0  0  0  0  0  0
   -1.3365   -8.2928    0.0000 H   0  0  0  0  0  0  0  0  0  0  0  0
   -1.1452   -5.6992    0.0000 H   0  0  0  0  0  0  0  0  0  0  0  0
   -0.0792   -5.6077    0.0000 H   0  0  0  0  0  0  0  0  0  0  0  0
    0.7428   -5.5371    0.0000 H   0  0  0  0  0  0  0  0  0  0  0  0
    1.3552   -6.4145    0.0000 H   0  0  0  0  0  0  0  0  0  0  0  0
   -2.9882   -8.2218    0.0000 H   0  0  0  0  0  0  0  0  0  0  0  0
    2.7733   -7.9399    0.0000 H   0  0  0  0  0  0  0  0  0  0  0  0
    3.8394   -7.8484    0.0000 H   0  0  0  0  0  0  0  0  0  0  0  0
    4.5028   -5.9313    0.0000 H   0  0  0  0  0  0  0  0  0  0  0  0
    5.1152   -6.8087    0.0000 H   0  0  0  0  0  0  0  0  0  0  0  0
    4.0675   -8.5458    0.0000 H   0  0  0  0  0  0  0  0  0  0  0  0
    5.1335   -8.4543    0.0000 H   0  0  0  0  0  0  0  0  0  0  0  0
    5.7970   -6.5372    0.0000 H   0  0  0  0  0  0  0  0  0  0  0  0
    6.4093   -7.4147    0.0000 H   0  0  0  0  0  0  0  0  0  0  0  0
    7.1735   -8.8806    0.0000 H   0  0  0  0  0  0  0  0  0  0  0  0
   10.1683   -9.5673    0.0000 H   0  0  0  0  0  0  0  0  0  0  0  0
    8.5746   -8.4800    0.0000 H   0  0  0  0  0  0  0  0  0  0  0  0
   11.5224   -7.4164    0.0000 H   0  0  0  0  0  0  0  0  0  0  0  0
   13.1622   -8.2878    0.0000 H   0  0  0  0  0  0  0  0  0  0  0  0
   13.2275  -10.1436    0.0000 H   0  0  0  0  0  0  0  0  0  0  0  0
   11.6530  -11.1282    0.0000 H   0  0  0  0  0  0  0  0  0  0  0  0
   10.0130  -10.2566    0.0000 H   0  0  0  0  0  0  0  0  0  0  0  0
   12.3186   -5.7146    0.0000 H   0  0  0  0  0  0  0  0  0  0  0  0
   11.3496   -5.2608    0.0000 H   0  0  0  0  0  0  0  0  0  0  0  0
   12.2869   -2.8643    0.0000 H   0  0  0  0  0  0  0  0  0  0  0  0
   10.4404   -3.0229    0.0000 H   0  0  0  0  0  0  0  0  0  0  0  0
   11.3178   -2.4105    0.0000 H   0  0  0  0  0  0  0  0  0  0  0  0
   15.1950   -1.5621    0.0000 H   0  0  0  0  0  0  0  0  0  0  0  0
   14.7639   -3.5444    0.0000 H   0  0  0  0  0  0  0  0  0  0  0  0
   15.8602   -2.0501    0.0000 H   0  0  0  0  0  0  0  0  0  0  0  0
   15.7434   -3.1137    0.0000 H   0  0  0  0  0  0  0  0  0  0  0  0
   15.2850   -0.7420    0.0000 H   0  0  0  0  0  0  0  0  0  0  0  0
   13.4427   -0.5398    0.0000 H   0  0  0  0  0  0  0  0  0  0  0  0
   14.4222   -0.1091    0.0000 H   0  0  0  0  0  0  0  0  0  0  0  0
  1  2  1  0  0  0  0
  1 93  1  0  0  0  0
  1 94  1  0  0  0  0
  1 95  1  0  0  0  0
  2  3  1  0  0  0  0
  2  6  2  0  0  0  0
  3  4  1  0  0  0  0
  4  5  2  0  0  0  0
  4 48  1  0  0  0  0
  5  6  1  0  0  0  0
  6  7  1  0  0  0  0
  7  8  2  0  0  0  0
  7  9  1  0  0  0  0
  9 10  1  0  0  0  0
  9 96  1  0  0  0  0
 10 11  1  0  0  0  0
 10 90  1  0  0  0  0
 10 97  1  6  0  0  0
 11 12  1  0  0  0  0
 11 15  2  0  0  0  0
 12 13  1  0  0  0  0
 13 14  2  0  0  0  0
 13 87  1  0  0  0  0
 14 15  1  0  0  0  0
 14 16  1  0  0  0  0
 16 17  2  0  0  0  0
 16 18  1  0  0  0  0
 18 19  1  0  0  0  0
 18 98  1  0  0  0  0
 19 20  1  0  0  0  0
 19 99  1  0  0  0  0
 19100  1  0  0  0  0
 20 21  2  0  0  0  0
 20 22  1  0  0  0  0
 22 23  1  0  0  0  0
 22101  1  0  0  0  0
 23 24  1  0  0  0  0
 23 79  1  0  0  0  0
 23102  1  6  0  0  0
 24 25  1  0  0  0  0
 24 28  2  0  0  0  0
 25 26  1  0  0  0  0
 26 27  2  0  0  0  0
 26103  1  0  0  0  0
 27 28  1  0  0  0  0
 27 29  1  0  0  0  0
 29 30  1  0  0  0  0
 29 33  2  0  0  0  0
 30 31  1  0  0  0  0
 31 32  2  0  0  0  0
 31104  1  0  0  0  0
 32 33  1  0  0  0  0
 32 34  1  0  0  0  0
 34 35  2  0  0  0  0
 34 39  1  0  0  0  0
 35 36  1  0  0  0  0
 36 37  2  0  0  0  0
 36 54  1  0  0  0  0
 37 38  1  0  0  0  0
 37105  1  0  0  0  0
 38 39  2  0  0  0  0
 38106  1  0  0  0  0
 39 40  1  0  0  0  0
 40 41  1  0  0  0  0
 40 44  2  0  0  0  0
 41 42  1  0  0  0  0
 42 43  2  0  0  0  0
 42107  1  0  0  0  0
 43 44  1  0  0  0  0
 43 45  1  0  0  0  0
 45 46  2  0  0  0  0
 45 47  1  0  0  0  0
 47 48  1  0  0  0  0
 47108  1  0  0  0  0
 48 49  1  0  0  0  0
 48109  1  6  0  0  0
 49 50  1  0  0  0  0
 49110  1  0  0  0  0
 49111  1  0  0  0  0
 50 51  2  0  0  0  0
 50 52  1  0  0  0  0
 52 53  1  0  0  0  0
 52112  1  0  0  0  0
 53113  1  0  0  0  0
 53114  1  0  0  0  0
 53115  1  0  0  0  0
 54 55  1  0  0  0  0
 54 58  2  0  0  0  0
 55 56  1  0  0  0  0
 56 57  2  0  0  0  0
 56116  1  0  0  0  0
 57 58  1  0  0  0  0
 57 59  1  0  0  0  0
 59 60  1  0  0  0  0
 59 72  1  0  0  0  0
 60 61  2  0  0  0  0
 60 62  1  0  0  0  0
 63 62  1  0  0  0  0
 63 64  1  0  0  0  0
 63 68  1  0  0  0  0
 63117  1  6  0  0  0
 64 65  1  0  0  0  0
 64118  1  0  0  0  0
 64119  1  0  0  0  0
 65 66  1  0  0  0  0
 65120  1  0  0  0  0
 65121  1  0  0  0  0
 66 67  1  0  0  0  0
 66 69  1  0  0  0  0
 66122  1  1  0  0  0
 67 68  1  0  0  0  0
 67123  1  0  0  0  0
 67124  1  0  0  0  0
 68125  1  0  0  0  0
 68126  1  0  0  0  0
 69 70  2  0  0  0  0
 69 71  1  0  0  0  0
 71127  1  0  0  0  0
 72 73  1  0  0  0  0
 72128  1  0  0  0  0
 72129  1  0  0  0  0
 73 74  1  0  0  0  0
 73130  1  0  0  0  0
 73131  1  0  0  0  0
 74 75  1  0  0  0  0
 74132  1  0  0  0  0
 74133  1  0  0  0  0
 75 76  1  0  0  0  0
 75134  1  0  0  0  0
 75135  1  0  0  0  0
 76 77  2  0  0  0  0
 76 78  1  0  0  0  0
 78136  1  0  0  0  0
 79 80  1  0  0  0  0
 79 81  1  0  0  0  0
 79137  1  1  0  0  0
 80138  1  0  0  0  0
 81 82  2  0  0  0  0
 81 86  1  0  0  0  0
 82 83  1  0  0  0  0
 82139  1  0  0  0  0
 83 84  2  0  0  0  0
 83140  1  0  0  0  0
 84 85  1  0  0  0  0
 84141  1  0  0  0  0
 85 86  2  0  0  0  0
 85142  1  0  0  0  0
 86143  1  0  0  0  0
 87 88  1  0  0  0  0
 87144  1  0  0  0  0
 87145  1  0  0  0  0
 88 89  1  0  0  0  0
 89146  1  0  0  0  0
 89147  1  0  0  0  0
 89148  1  0  0  0  0
 90 91  1  0  0  0  0
 90 92  1  0  0  0  0
 90149  1  0  0  0  0
 91150  1  0  0  0  0
 91151  1  0  0  0  0
 91152  1  0  0  0  0
 92153  1  0  0  0  0
 92154  1  0  0  0  0
 92155  1  0  0  0  0
M  END
>  <DRUGBANK_ID>
DB13013

>  <COMMON_NAME>
LFF-571

>  <CAS_NUMBER>
1160959-55-6

>  <UNII>
W7AUL2R95Z

$$$$
