
 OpenBabel10282417072D

 50 54  0  0  1  0  0  0  0  0999 V2000
    5.4176    2.6122    0.0000 C   0  0  0  0  0  0  0  0  0  0  0  0
    5.9255    1.9620    0.0000 C   0  0  0  0  0  0  0  0  0  0  0  0
    5.6165    1.1971    0.0000 C   0  0  1  0  0  0  0  0  0  0  0  0
    4.9168    1.6343    0.0000 O   0  0  0  0  0  0  0  0  0  0  0  0
    6.4235    1.0256    0.0000 C   0  0  0  0  0  0  0  0  0  0  0  0
    6.9755    1.6387    0.0000 O   0  0  0  0  0  0  0  0  0  0  0  0
    6.6784    0.2410    0.0000 O   0  0  0  0  0  0  0  0  0  0  0  0
    6.1264   -0.3721    0.0000 C   0  0  0  0  0  0  0  0  0  0  0  0
    5.3194   -0.2006    0.0000 C   0  0  0  0  0  0  0  0  0  0  0  0
    5.0645    0.5840    0.0000 C   0  0  0  0  0  0  0  0  0  0  0  0
    4.2575    0.7556    0.0000 C   0  0  0  0  0  0  0  0  0  0  0  0
    3.7054    0.1425    0.0000 C   0  0  0  0  0  0  0  0  0  0  0  0
    3.9604   -0.6422    0.0000 N   0  0  0  0  0  0  0  0  0  0  0  0
    3.2929   -1.1271    0.0000 C   0  0  3  0  0  0  0  0  0  0  0  0
    3.2929   -1.9521    0.0000 O   0  0  0  0  0  0  0  0  0  0  0  0
    4.0074   -2.3646    0.0000 C   0  0  0  0  0  0  0  0  0  0  0  0
    4.0074   -3.1896    0.0000 C   0  0  0  0  0  0  0  0  0  0  0  0
    4.7219   -3.6021    0.0000 O   0  0  0  0  0  0  0  0  0  0  0  0
    2.6255   -0.6422    0.0000 C   0  0  0  0  0  0  0  0  0  0  0  0
    1.8185   -0.8137    0.0000 C   0  0  0  0  0  0  0  0  0  0  0  0
    1.2665   -0.2006    0.0000 C   0  0  0  0  0  0  0  0  0  0  0  0
    0.4595   -0.3721    0.0000 C   0  0  0  0  0  0  0  0  0  0  0  0
   -0.0925    0.2410    0.0000 C   0  0  0  0  0  0  0  0  0  0  0  0
    0.1624    1.0256    0.0000 C   0  0  0  0  0  0  0  0  0  0  0  0
    0.9694    1.1971    0.0000 C   0  0  0  0  0  0  0  0  0  0  0  0
    1.5214    0.5840    0.0000 C   0  0  0  0  0  0  0  0  0  0  0  0
    2.3284    0.7556    0.0000 N   0  0  0  0  0  0  0  0  0  0  0  0
    2.8804    0.1425    0.0000 C   0  0  0  0  0  0  0  0  0  0  0  0
    4.7674   -0.8137    0.0000 C   0  0  0  0  0  0  0  0  0  0  0  0
    5.0223   -1.5983    0.0000 O   0  0  0  0  0  0  0  0  0  0  0  0
    5.8185    3.6043    0.0000 H   0  0  0  0  0  0  0  0  0  0  0  0
    4.3580    2.4634    0.0000 H   0  0  0  0  0  0  0  0  0  0  0  0
    4.7589    3.4554    0.0000 H   0  0  0  0  0  0  0  0  0  0  0  0
    6.9851    2.1109    0.0000 H   0  0  0  0  0  0  0  0  0  0  0  0
    6.5843    1.1188    0.0000 H   0  0  0  0  0  0  0  0  0  0  0  0
    4.9506    2.6037    0.0000 H   0  0  0  0  0  0  0  0  0  0  0  0
    6.4571   -1.3897    0.0000 H   0  0  0  0  0  0  0  0  0  0  0  0
    5.4105   -1.1673    0.0000 H   0  0  0  0  0  0  0  0  0  0  0  0
    3.9387    1.7371    0.0000 H   0  0  0  0  0  0  0  0  0  0  0  0
    4.2463   -1.6129    0.0000 H   0  0  0  0  0  0  0  0  0  0  0  0
    4.9340   -1.8296    0.0000 H   0  0  0  0  0  0  0  0  0  0  0  0
    4.9340   -2.8996    0.0000 H   0  0  0  0  0  0  0  0  0  0  0  0
    3.0808   -3.7246    0.0000 H   0  0  0  0  0  0  0  0  0  0  0  0
    4.0074   -4.2596    0.0000 H   0  0  0  0  0  0  0  0  0  0  0  0
    4.7219   -4.5721    0.0000 H   0  0  0  0  0  0  0  0  0  0  0  0
    1.4996   -1.7952    0.0000 H   0  0  0  0  0  0  0  0  0  0  0  0
    0.1406   -1.3536    0.0000 H   0  0  0  0  0  0  0  0  0  0  0  0
   -1.1019    0.0264    0.0000 H   0  0  0  0  0  0  0  0  0  0  0  0
   -0.5281    1.7925    0.0000 H   0  0  0  0  0  0  0  0  0  0  0  0
    1.2883    2.1786    0.0000 H   0  0  0  0  0  0  0  0  0  0  0  0
  1  2  1  0  0  0  0
  1 31  1  0  0  0  0
  1 32  1  0  0  0  0
  1 33  1  0  0  0  0
  2 34  1  0  0  0  0
  2 35  1  0  0  0  0
  3  2  1  0  0  0  0
  3  4  1  6  0  0  0
  3  5  1  0  0  0  0
  3 10  1  0  0  0  0
  4 36  1  0  0  0  0
  5  6  2  0  0  0  0
  5  7  1  0  0  0  0
  7  8  1  0  0  0  0
  8  9  1  0  0  0  0
  8 37  1  0  0  0  0
  8 38  1  0  0  0  0
  9 10  2  0  0  0  0
  9 29  1  0  0  0  0
 10 11  1  0  0  0  0
 11 12  2  0  0  0  0
 11 39  1  0  0  0  0
 12 13  1  0  0  0  0
 12 28  1  0  0  0  0
 13 14  1  0  0  0  0
 13 29  1  0  0  0  0
 14 15  1  0  0  0  0
 14 19  1  0  0  0  0
 14 40  1  0  0  0  0
 15 16  1  0  0  0  0
 16 17  1  0  0  0  0
 16 41  1  0  0  0  0
 16 42  1  0  0  0  0
 17 18  1  0  0  0  0
 17 43  1  0  0  0  0
 17 44  1  0  0  0  0
 18 45  1  0  0  0  0
 19 20  2  0  0  0  0
 19 28  1  0  0  0  0
 20 21  1  0  0  0  0
 20 46  1  0  0  0  0
 21 22  2  0  0  0  0
 21 26  1  0  0  0  0
 22 23  1  0  0  0  0
 22 47  1  0  0  0  0
 23 24  2  0  0  0  0
 23 48  1  0  0  0  0
 24 25  1  0  0  0  0
 24 49  1  0  0  0  0
 25 26  2  0  0  0  0
 25 50  1  0  0  0  0
 26 27  1  0  0  0  0
 27 28  2  0  0  0  0
 29 30  2  0  0  0  0
M  END
>  <DRUGBANK_ID>
DB17152

>  <COMMON_NAME>
DRF-1042

>  <CAS_NUMBER>
200619-13-2

>  <UNII>
461WVF206P

>  <SYNONYMS>
1h-pyrano(3',4':6,7)indolizino(1,2-b)quinoline-3,14(4h,12h)-dione, 4-ethyl-4-hydroxy-12-(2-hydroxyethoxy)-, (4s)-; 5-(2'-hydroxyethoxy)-20(s)-camptothecin

$$$$
