./init_pose/1_0.pdbqt
 OpenBabel03252514103D

  6  6  0  0  0  0  0  0  0  0999 V2000
   40.0780   22.6540   37.5820 C   0  0  0  0  0  0  0  0  0  0  0  0
   39.0590   23.2970   38.3170 C   0  0  0  0  0  0  0  0  0  0  0  0
   37.7860   23.3800   37.7340 C   0  0  0  0  0  0  0  0  0  0  0  0
   37.6080   22.8390   36.4930 N   0  0  0  0  0  0  0  0  0  0  0  0
   38.6090   22.2280   35.8200 C   0  0  0  0  0  0  0  0  0  0  0  0
   39.8360   22.1360   36.3660 N   0  0  0  0  0  0  0  0  0  0  0  0
  1  2  1  0  0  0  0
  3  2  2  0  0  0  0
  4  3  1  0  0  0  0
  5  6  1  0  0  0  0
  5  4  2  0  0  0  0
  6  1  2  0  0  0  0
M  END
>  <MODEL>
1

>  <REMARK>
 minimizedAffinity -2.44204974REMARK  Name = 7
  0 active torsions:
  status: ('A' for Active; 'I' for Inactive)
                            x       y       z     vdW  Elec       q    Type
                         _______ _______ _______ _____ _____    ______ ____

>  <TORSDO>
F 0

$$$$
