./init_pose/1_1.pdbqt
 OpenBabel03252514103D

  6  6  0  0  0  0  0  0  0  0999 V2000
   37.8540   23.5640   38.0060 C   0  0  0  0  0  0  0  0  0  0  0  0
   39.1530   23.3260   38.5030 C   0  0  0  0  0  0  0  0  0  0  0  0
   40.0570   22.6470   37.6720 C   0  0  0  0  0  0  0  0  0  0  0  0
   39.6260   22.2530   36.4370 N   0  0  0  0  0  0  0  0  0  0  0  0
   38.3730   22.5010   35.9950 C   0  0  0  0  0  0  0  0  0  0  0  0
   37.4940   23.1550   36.7770 N   0  0  0  0  0  0  0  0  0  0  0  0
  1  2  1  0  0  0  0
  3  2  2  0  0  0  0
  4  3  1  0  0  0  0
  5  4  2  0  0  0  0
  5  6  1  0  0  0  0
  6  1  2  0  0  0  0
M  END
>  <MODEL>
2

>  <REMARK>
 minimizedAffinity -2.42896199REMARK  Name = 7
  0 active torsions:
  status: ('A' for Active; 'I' for Inactive)
                            x       y       z     vdW  Elec       q    Type
                         _______ _______ _______ _____ _____    ______ ____

>  <TORSDO>
F 0

$$$$
