./init_pose/1_1.pdbqt
     RDKit          3D

 10 10  0  0  0  0  0  0  0  0999 V2000
   37.8540   23.5640   38.0060 C   0  0  0  0  0  0  0  0  0  0  0  0
   39.1530   23.3260   38.5030 C   0  0  0  0  0  0  0  0  0  0  0  0
   40.0570   22.6470   37.6720 C   0  0  0  0  0  0  0  0  0  0  0  0
   39.6260   22.2530   36.4370 N   0  0  0  0  0  0  0  0  0  0  0  0
   38.3730   22.5010   35.9950 C   0  0  0  0  0  0  0  0  0  0  0  0
   37.4940   23.1550   36.7770 N   0  0  0  0  0  0  0  0  0  0  0  0
   37.1232   24.0934   38.6351 H   0  0  0  0  0  0  0  0  0  0  0  0
   39.4472   23.6616   39.5084 H   0  0  0  0  0  0  0  0  0  0  0  0
   41.0841   22.4378   38.0057 H   0  0  0  0  0  0  0  0  0  0  0  0
   38.0702   22.1669   34.9917 H   0  0  0  0  0  0  0  0  0  0  0  0
  1  2  2  0
  3  2  1  0
  4  3  2  0
  5  4  1  0
  5  6  2  0
  6  1  1  0
  1  7  1  0
  2  8  1  0
  3  9  1  0
  5 10  1  0
M  END
>  <MODEL>  (1) 
2

>  <REMARK>  (1) 
 minimizedAffinity -2.42896199REMARK  Name = 7
  0 active torsions:
  status: ('A' for Active; 'I' for Inactive)
                            x       y       z     vdW  Elec       q    Type
                         _______ _______ _______ _____ _____    ______ ____

>  <TORSDO>  (1) 
F 0

$$$$
