MODEL 3
REMARK minimizedAffinity -2.37584949REMARK  Name = 7
REMARK  0 active torsions:
REMARK  status: ('A' for Active; 'I' for Inactive)
REMARK                            x       y       z     vdW  Elec       q    Type
REMARK                         _______ _______ _______ _____ _____    ______ ____
ROOT
ATOM      1  C   UNL     1      38.743  23.400  38.580  0.00  0.00    +0.000 A 
ATOM      2  C   UNL     1      39.751  22.832  37.772  0.00  0.00    +0.000 A 
ATOM      3  C   UNL     1      39.815  23.231  36.428  0.00  0.00    +0.000 A 
ATOM      4  N   UNL     1      38.900  24.140  35.982  0.00  0.00    +0.000 NA
ATOM      5  C   UNL     1      37.948  24.665  36.787  0.00  0.00    +0.000 A 
ATOM      6  N   UNL     1      37.875  24.296  38.080  0.00  0.00    +0.000 NA
ENDROOT
TORSDOF 0
ENDMDL
