./init_pose/1_2.pdbqt
     RDKit          3D

 10 10  0  0  0  0  0  0  0  0999 V2000
   38.7430   23.4000   38.5800 C   0  0  0  0  0  0  0  0  0  0  0  0
   39.7510   22.8320   37.7720 C   0  0  0  0  0  0  0  0  0  0  0  0
   39.8150   23.2310   36.4280 C   0  0  0  0  0  0  0  0  0  0  0  0
   38.9000   24.1400   35.9820 N   0  0  0  0  0  0  0  0  0  0  0  0
   37.9480   24.6650   36.7870 C   0  0  0  0  0  0  0  0  0  0  0  0
   37.8750   24.2960   38.0800 N   0  0  0  0  0  0  0  0  0  0  0  0
   38.6665   23.1044   39.6368 H   0  0  0  0  0  0  0  0  0  0  0  0
   40.4630   22.1007   38.1821 H   0  0  0  0  0  0  0  0  0  0  0  0
   40.5813   22.8224   35.7529 H   0  0  0  0  0  0  0  0  0  0  0  0
   37.2312   25.3957   36.3841 H   0  0  0  0  0  0  0  0  0  0  0  0
  2  1  2  0
  3  2  1  0
  4  3  2  0
  4  5  1  0
  5  6  2  0
  6  1  1  0
  1  7  1  0
  2  8  1  0
  3  9  1  0
  5 10  1  0
M  END
>  <MODEL>  (1) 
3

>  <REMARK>  (1) 
 minimizedAffinity -2.37584949REMARK  Name = 7
  0 active torsions:
  status: ('A' for Active; 'I' for Inactive)
                            x       y       z     vdW  Elec       q    Type
                         _______ _______ _______ _____ _____    ______ ____

>  <TORSDO>  (1) 
F 0

$$$$
