MODEL 4
REMARK minimizedAffinity -2.36751866REMARK  Name = 7
REMARK  0 active torsions:
REMARK  status: ('A' for Active; 'I' for Inactive)
REMARK                            x       y       z     vdW  Elec       q    Type
REMARK                         _______ _______ _______ _____ _____    ______ ____
ROOT
ATOM      1  C   UNL     1      39.812  23.223  36.411  0.00  0.00    +0.000 A 
ATOM      2  C   UNL     1      39.785  22.860  37.775  0.00  0.00    +0.000 A 
ATOM      3  C   UNL     1      38.748  23.374  38.567  0.00  0.00    +0.000 A 
ATOM      4  N   UNL     1      37.830  24.195  37.976  0.00  0.00    +0.000 NA
ATOM      5  C   UNL     1      37.889  24.519  36.665  0.00  0.00    +0.000 A 
ATOM      6  N   UNL     1      38.874  24.031  35.889  0.00  0.00    +0.000 NA
ENDROOT
TORSDOF 0
ENDMDL
