./init_pose/1_4.pdbqt
 OpenBabel03252514103D

  6  6  0  0  0  0  0  0  0  0999 V2000
   38.8330   24.2750   36.0030 C   0  0  0  0  0  0  0  0  0  0  0  0
   37.9130   24.7260   36.9730 C   0  0  0  0  0  0  0  0  0  0  0  0
   38.0030   24.1810   38.2630 C   0  0  0  0  0  0  0  0  0  0  0  0
   38.9700   23.2470   38.5020 N   0  0  0  0  0  0  0  0  0  0  0  0
   39.8360   22.8400   37.5460 C   0  0  0  0  0  0  0  0  0  0  0  0
   39.7660   23.3560   36.3050 N   0  0  0  0  0  0  0  0  0  0  0  0
  1  6  2  0  0  0  0
  1  2  1  0  0  0  0
  2  3  2  0  0  0  0
  3  4  1  0  0  0  0
  5  4  2  0  0  0  0
  6  5  1  0  0  0  0
M  END
>  <MODEL>
5

>  <REMARK>
 minimizedAffinity -2.35947132REMARK  Name = 7
  0 active torsions:
  status: ('A' for Active; 'I' for Inactive)
                            x       y       z     vdW  Elec       q    Type
                         _______ _______ _______ _____ _____    ______ ____

>  <TORSDO>
F 0

$$$$
