./init_pose/1_4.pdbqt
     RDKit          3D

 10 10  0  0  0  0  0  0  0  0999 V2000
   38.8330   24.2750   36.0030 C   0  0  0  0  0  0  0  0  0  0  0  0
   37.9130   24.7260   36.9730 C   0  0  0  0  0  0  0  0  0  0  0  0
   38.0030   24.1810   38.2630 C   0  0  0  0  0  0  0  0  0  0  0  0
   38.9700   23.2470   38.5020 N   0  0  0  0  0  0  0  0  0  0  0  0
   39.8360   22.8400   37.5460 C   0  0  0  0  0  0  0  0  0  0  0  0
   39.7660   23.3560   36.3050 N   0  0  0  0  0  0  0  0  0  0  0  0
   38.7858   24.6824   34.9823 H   0  0  0  0  0  0  0  0  0  0  0  0
   37.1507   25.4796   36.7263 H   0  0  0  0  0  0  0  0  0  0  0  0
   37.3136   24.4974   39.0596 H   0  0  0  0  0  0  0  0  0  0  0  0
   40.5998   22.0849   37.7836 H   0  0  0  0  0  0  0  0  0  0  0  0
  1  6  2  0
  1  2  1  0
  2  3  2  0
  3  4  1  0
  5  4  2  0
  6  5  1  0
  1  7  1  0
  2  8  1  0
  3  9  1  0
  5 10  1  0
M  END
>  <MODEL>  (1) 
5

>  <REMARK>  (1) 
 minimizedAffinity -2.35947132REMARK  Name = 7
  0 active torsions:
  status: ('A' for Active; 'I' for Inactive)
                            x       y       z     vdW  Elec       q    Type
                         _______ _______ _______ _____ _____    ______ ____

>  <TORSDO>  (1) 
F 0

$$$$
