./init_pose/1_5.pdbqt
 OpenBabel03252514103D

  6  6  0  0  0  0  0  0  0  0999 V2000
   35.5290   24.0280   31.2690 C   0  0  0  0  0  0  0  0  0  0  0  0
   34.9960   25.2620   30.8410 C   0  0  0  0  0  0  0  0  0  0  0  0
   35.6030   26.4360   31.3130 C   0  0  0  0  0  0  0  0  0  0  0  0
   36.6680   26.3150   32.1590 N   0  0  0  0  0  0  0  0  0  0  0  0
   37.1520   25.1140   32.5470 C   0  0  0  0  0  0  0  0  0  0  0  0
   36.5850   23.9780   32.1000 N   0  0  0  0  0  0  0  0  0  0  0  0
  1  6  1  0  0  0  0
  2  1  2  0  0  0  0
  2  3  1  0  0  0  0
  3  4  2  0  0  0  0
  4  5  1  0  0  0  0
  6  5  2  0  0  0  0
M  END
>  <MODEL>
6

>  <REMARK>
 minimizedAffinity -2.07112026REMARK  Name = 7
  0 active torsions:
  status: ('A' for Active; 'I' for Inactive)
                            x       y       z     vdW  Elec       q    Type
                         _______ _______ _______ _____ _____    ______ ____

>  <TORSDO>
F 0

$$$$
