MODEL 6
REMARK minimizedAffinity -2.07112026REMARK  Name = 7
REMARK  0 active torsions:
REMARK  status: ('A' for Active; 'I' for Inactive)
REMARK                            x       y       z     vdW  Elec       q    Type
REMARK                         _______ _______ _______ _____ _____    ______ ____
ROOT
ATOM      1  C   UNL     1      35.529  24.028  31.269  0.00  0.00    +0.000 A 
ATOM      2  C   UNL     1      34.996  25.262  30.841  0.00  0.00    +0.000 A 
ATOM      3  C   UNL     1      35.603  26.436  31.313  0.00  0.00    +0.000 A 
ATOM      4  N   UNL     1      36.668  26.315  32.159  0.00  0.00    +0.000 NA
ATOM      5  C   UNL     1      37.152  25.114  32.547  0.00  0.00    +0.000 A 
ATOM      6  N   UNL     1      36.585  23.978  32.100  0.00  0.00    +0.000 NA
ENDROOT
TORSDOF 0
ENDMDL
