./init_pose/1_5.pdbqt
     RDKit          3D

 10 10  0  0  0  0  0  0  0  0999 V2000
   35.5290   24.0280   31.2690 C   0  0  0  0  0  0  0  0  0  0  0  0
   34.9960   25.2620   30.8410 C   0  0  0  0  0  0  0  0  0  0  0  0
   35.6030   26.4360   31.3130 C   0  0  0  0  0  0  0  0  0  0  0  0
   36.6680   26.3150   32.1590 N   0  0  0  0  0  0  0  0  0  0  0  0
   37.1520   25.1140   32.5470 C   0  0  0  0  0  0  0  0  0  0  0  0
   36.5850   23.9780   32.1000 N   0  0  0  0  0  0  0  0  0  0  0  0
   35.0731   23.0909   30.9170 H   0  0  0  0  0  0  0  0  0  0  0  0
   34.1332   25.3027   30.1599 H   0  0  0  0  0  0  0  0  0  0  0  0
   35.2313   27.4259   31.0099 H   0  0  0  0  0  0  0  0  0  0  0  0
   38.0124   25.0648   33.2306 H   0  0  0  0  0  0  0  0  0  0  0  0
  1  6  2  0
  2  1  1  0
  2  3  2  0
  3  4  1  0
  4  5  2  0
  6  5  1  0
  1  7  1  0
  2  8  1  0
  3  9  1  0
  5 10  1  0
M  END
>  <MODEL>  (1) 
6

>  <REMARK>  (1) 
 minimizedAffinity -2.07112026REMARK  Name = 7
  0 active torsions:
  status: ('A' for Active; 'I' for Inactive)
                            x       y       z     vdW  Elec       q    Type
                         _______ _______ _______ _____ _____    ______ ____

>  <TORSDO>  (1) 
F 0

$$$$
