MODEL 7
REMARK minimizedAffinity -2.06926155REMARK  Name = 7
REMARK  0 active torsions:
REMARK  status: ('A' for Active; 'I' for Inactive)
REMARK                            x       y       z     vdW  Elec       q    Type
REMARK                         _______ _______ _______ _____ _____    ______ ____
ROOT
ATOM      1  C   UNL     1      34.124  30.368  34.938  0.00  0.00    +0.000 A 
ATOM      2  C   UNL     1      35.494  30.710  34.935  0.00  0.00    +0.000 A 
ATOM      3  C   UNL     1      35.955  31.568  35.945  0.00  0.00    +0.000 A 
ATOM      4  N   UNL     1      35.056  32.023  36.866  0.00  0.00    +0.000 NA
ATOM      5  C   UNL     1      33.750  31.672  36.837  0.00  0.00    +0.000 A 
ATOM      6  N   UNL     1      33.291  30.846  35.878  0.00  0.00    +0.000 NA
ENDROOT
TORSDOF 0
ENDMDL
