./init_pose/1_6.pdbqt
 OpenBabel03252514103D

  6  6  0  0  0  0  0  0  0  0999 V2000
   34.1240   30.3680   34.9380 C   0  0  0  0  0  0  0  0  0  0  0  0
   35.4940   30.7100   34.9350 C   0  0  0  0  0  0  0  0  0  0  0  0
   35.9550   31.5680   35.9450 C   0  0  0  0  0  0  0  0  0  0  0  0
   35.0560   32.0230   36.8660 N   0  0  0  0  0  0  0  0  0  0  0  0
   33.7500   31.6720   36.8370 C   0  0  0  0  0  0  0  0  0  0  0  0
   33.2910   30.8460   35.8780 N   0  0  0  0  0  0  0  0  0  0  0  0
  1  6  1  0  0  0  0
  2  1  2  0  0  0  0
  2  3  1  0  0  0  0
  3  4  2  0  0  0  0
  5  4  1  0  0  0  0
  6  5  2  0  0  0  0
M  END
>  <MODEL>
7

>  <REMARK>
 minimizedAffinity -2.06926155REMARK  Name = 7
  0 active torsions:
  status: ('A' for Active; 'I' for Inactive)
                            x       y       z     vdW  Elec       q    Type
                         _______ _______ _______ _____ _____    ______ ____

>  <TORSDO>
F 0

$$$$
