./init_pose/1_7.pdbqt
 OpenBabel03252514103D

  6  6  0  0  0  0  0  0  0  0999 V2000
   39.5780   26.9630   33.8260 C   0  0  0  0  0  0  0  0  0  0  0  0
   39.4770   27.0100   35.2330 C   0  0  0  0  0  0  0  0  0  0  0  0
   38.2170   27.2730   35.7890 C   0  0  0  0  0  0  0  0  0  0  0  0
   37.1650   27.4700   34.9410 N   0  0  0  0  0  0  0  0  0  0  0  0
   37.3010   27.4160   33.5960 C   0  0  0  0  0  0  0  0  0  0  0  0
   38.5020   27.1610   33.0450 N   0  0  0  0  0  0  0  0  0  0  0  0
  1  2  1  0  0  0  0
  2  3  2  0  0  0  0
  4  3  1  0  0  0  0
  5  4  2  0  0  0  0
  6  5  1  0  0  0  0
  6  1  2  0  0  0  0
M  END
>  <MODEL>
8

>  <REMARK>
 minimizedAffinity -2.05337286REMARK  Name = 7
  0 active torsions:
  status: ('A' for Active; 'I' for Inactive)
                            x       y       z     vdW  Elec       q    Type
                         _______ _______ _______ _____ _____    ______ ____

>  <TORSDO>
F 0

$$$$
