MODEL 9
REMARK minimizedAffinity -2.03457427REMARK  Name = 7
REMARK  0 active torsions:
REMARK  status: ('A' for Active; 'I' for Inactive)
REMARK                            x       y       z     vdW  Elec       q    Type
REMARK                         _______ _______ _______ _____ _____    ______ ____
ROOT
ATOM      1  C   UNL     1      38.780  27.219  35.787  0.00  0.00    +0.000 A 
ATOM      2  C   UNL     1      37.519  27.434  35.190  0.00  0.00    +0.000 A 
ATOM      3  C   UNL     1      37.441  27.384  33.790  0.00  0.00    +0.000 A 
ATOM      4  N   UNL     1      38.587  27.136  33.089  0.00  0.00    +0.000 NA
ATOM      5  C   UNL     1      39.778  26.934  33.697  0.00  0.00    +0.000 A 
ATOM      6  N   UNL     1      39.870  26.973  35.039  0.00  0.00    +0.000 NA
ENDROOT
TORSDOF 0
ENDMDL
