
     RDKit          3D

 34 36  0  0  0  0  0  0  0  0999 V2000
   44.6540   35.9910   44.1430 C   0  0  0  0  0  0  0  0  0  0  0  0
   45.2260   35.7240   42.8740 C   0  0  0  0  0  0  0  0  0  0  0  0
   46.0610   34.6050   42.7530 C   0  0  0  0  0  0  0  0  0  0  0  0
   46.2850   33.8260   43.8600 N   0  0  0  0  0  0  0  0  0  0  0  0
   45.7150   34.1260   45.0410 C   0  0  0  0  0  0  0  0  0  0  0  0
   44.9110   35.1860   45.1970 N   0  0  0  0  0  0  0  0  0  0  0  0
   45.9740   33.2910   46.1600 N   0  0  0  0  0  0  0  0  0  0  0  0
   46.9520   32.3830   46.1240 C   0  0  0  0  0  0  0  0  0  0  0  0
   47.3370   31.5020   47.1060 C   0  0  0  0  0  0  0  0  0  0  0  0
   46.5950   31.5880   48.2790 C   0  0  0  0  0  0  0  0  0  0  0  0
   46.9170   30.7150   49.3610 N   0  0  0  0  0  0  0  0  0  0  0  0
   45.6100   32.4870   48.3460 N   0  0  0  0  0  0  0  0  0  0  0  0
   45.2860   33.3300   47.3280 C   0  0  0  0  0  0  0  0  0  0  0  0
   44.3460   34.1700   47.4230 O   0  0  0  0  0  0  0  0  0  0  0  0
   46.6160   34.3660   41.4730 N   0  0  0  0  0  0  0  0  0  0  0  0
   46.0580   33.6910   40.4630 C   0  0  0  0  0  0  0  0  0  0  0  0
   46.6950   33.5170   39.2510 C   0  0  0  0  0  0  0  0  0  0  0  0
   47.9520   34.0920   39.1550 C   0  0  0  0  0  0  0  0  0  0  0  0
   48.5860   33.9660   38.0640 O   0  0  0  0  0  0  0  0  0  0  0  0
   48.5290   34.7770   40.1670 N   0  0  0  0  0  0  0  0  0  0  0  0
   47.8540   34.9120   41.3310 C   0  0  0  0  0  0  0  0  0  0  0  0
   48.4580   35.5620   42.2200 O   0  0  0  0  0  0  0  0  0  0  0  0
   46.0600   32.7690   38.1520 C   0  0  0  0  0  0  0  0  0  0  0  0
   43.9945   36.8620   44.2709 H   0  0  0  0  0  0  0  0  0  0  0  0
   45.0210   36.3747   42.0111 H   0  0  0  0  0  0  0  0  0  0  0  0
   47.5244   32.3335   45.1859 H   0  0  0  0  0  0  0  0  0  0  0  0
   48.1635   30.7880   46.9750 H   0  0  0  0  0  0  0  0  0  0  0  0
   46.3797   30.7625   50.2385 H   0  0  0  0  0  0  0  0  0  0  0  0
   47.6867   30.0374   49.2645 H   0  0  0  0  0  0  0  0  0  0  0  0
   45.0560   33.2591   40.6028 H   0  0  0  0  0  0  0  0  0  0  0  0
   49.4662   35.1889   40.0538 H   0  0  0  0  0  0  0  0  0  0  0  0
   45.4013   31.9931   38.5692 H   0  0  0  0  0  0  0  0  0  0  0  0
   45.4676   33.4590   37.5331 H   0  0  0  0  0  0  0  0  0  0  0  0
   46.8370   32.2965   37.5331 H   0  0  0  0  0  0  0  0  0  0  0  0
  1  6  2  0
  2  1  1  0
  3  2  2  0
  3  4  1  0
  4  5  2  0
  5  6  1  0
  5  7  1  0
  7 13  1  0
  8  7  1  0
  8  9  2  0
  9 10  1  0
 10 12  2  0
 10 11  1  0
 13 14  2  0
 13 12  1  0
 15  3  1  0
 16 15  1  0
 17 16  2  0
 18 17  1  0
 18 20  1  0
 19 18  2  0
 20 21  1  0
 21 15  1  0
 21 22  2  0
 23 17  1  0
  1 24  1  0
  2 25  1  0
  8 26  1  0
  9 27  1  0
 11 28  1  0
 11 29  1  0
 16 30  1  0
 20 31  1  0
 23 32  1  0
 23 33  1  0
 23 34  1  0
M  END
>  <Score>  (1) 
-7.25515

$$$$
