
     RDKit          3D

 35 38  0  0  0  0  0  0  0  0999 V2000
   45.3070   33.8310   41.1750 C   0  0  0  0  0  0  0  0  0  0  0  0
   45.0100   33.4660   42.4960 C   0  0  0  0  0  0  0  0  0  0  0  0
   45.9860   33.7570   43.4600 C   0  0  0  0  0  0  0  0  0  0  0  0
   47.1260   34.3650   43.0300 N   0  0  0  0  0  0  0  0  0  0  0  0
   47.3800   34.7010   41.7630 C   0  0  0  0  0  0  0  0  0  0  0  0
   46.4620   34.4290   40.8450 N   0  0  0  0  0  0  0  0  0  0  0  0
   45.8300   33.4520   44.8140 N   0  0  0  0  0  0  0  0  0  0  0  0
   46.3810   32.2810   45.2340 C   0  0  0  0  0  0  0  0  0  0  0  0
   46.2840   31.8850   46.5530 C   0  0  0  0  0  0  0  0  0  0  0  0
   45.6150   32.7030   47.4410 C   0  0  0  0  0  0  0  0  0  0  0  0
   45.4720   32.4240   48.6790 O   0  0  0  0  0  0  0  0  0  0  0  0
   45.0620   33.8750   47.0310 N   0  0  0  0  0  0  0  0  0  0  0  0
   45.1950   34.1940   45.7390 C   0  0  0  0  0  0  0  0  0  0  0  0
   44.6880   35.2760   45.3480 O   0  0  0  0  0  0  0  0  0  0  0  0
   48.6410   35.3600   41.3690 C   0  0  0  0  0  0  0  0  0  0  0  0
   48.6660   35.5230   39.9880 F   0  0  0  0  0  0  0  0  0  0  0  0
   49.7130   34.5470   41.6990 F   0  0  0  0  0  0  0  0  0  0  0  0
   48.8580   36.5610   42.0290 F   0  0  0  0  0  0  0  0  0  0  0  0
   44.0770   33.4760   39.8830 S   0  0  0  0  0  0  0  0  0  0  0  0
   39.7670   32.8740   42.2240 N   0  0  0  0  0  0  0  0  0  0  0  0
   40.5040   31.7380   42.2120 C   0  0  0  0  0  0  0  0  0  0  0  0
   41.6530   32.0320   41.5460 N   0  0  0  0  0  0  0  0  0  0  0  0
   41.5830   33.3100   41.1800 C   0  0  0  0  0  0  0  0  0  0  0  0
   42.5020   34.0600   40.4860 C   0  0  0  0  0  0  0  0  0  0  0  0
   42.2610   35.3620   40.1990 N   0  0  0  0  0  0  0  0  0  0  0  0
   41.0760   35.8750   40.6290 C   0  0  0  0  0  0  0  0  0  0  0  0
   40.1740   35.1470   41.3090 N   0  0  0  0  0  0  0  0  0  0  0  0
   40.4200   33.8600   41.5890 C   0  0  0  0  0  0  0  0  0  0  0  0
   44.0612   32.9771   42.7621 H   0  0  0  0  0  0  0  0  0  0  0  0
   46.9109   31.6412   44.5129 H   0  0  0  0  0  0  0  0  0  0  0  0
   46.7305   30.9376   46.8892 H   0  0  0  0  0  0  0  0  0  0  0  0
   44.5618   34.4913   47.6874 H   0  0  0  0  0  0  0  0  0  0  0  0
   38.8379   32.9681   42.6584 H   0  0  0  0  0  0  0  0  0  0  0  0
   40.2280   30.7690   42.6535 H   0  0  0  0  0  0  0  0  0  0  0  0
   40.8472   36.9286   40.4110 H   0  0  0  0  0  0  0  0  0  0  0  0
  1  2  2  0
  2  3  1  0
  3  7  1  0
  4  3  2  0
  5  4  1  0
  6  1  1  0
  6  5  2  0
  7  8  1  0
  7 13  1  0
  8  9  2  0
  9 10  1  0
 10 11  2  0
 12 10  1  0
 13 12  1  0
 14 13  2  0
 15 17  1  0
 15  5  1  0
 15 18  1  0
 16 15  1  0
 19 24  1  0
 19  1  1  0
 21 20  1  0
 22 21  2  0
 23 22  1  0
 23 28  2  0
 24 23  1  0
 25 24  2  0
 25 26  1  0
 26 27  2  0
 27 28  1  0
 28 20  1  0
  2 29  1  0
  8 30  1  0
  9 31  1  0
 12 32  1  0
 20 33  1  0
 21 34  1  0
 26 35  1  0
M  END
>  <Score>  (1) 
-8.33533

$$$$
