
     RDKit          3D

 42 46  0  0  0  0  0  0  0  0999 V2000
   45.9410   33.2410   38.8160 C   0  0  0  0  0  0  0  0  0  0  0  0
   46.6460   32.8110   37.7270 C   0  0  0  0  0  0  0  0  0  0  0  0
   45.9660   32.1560   36.6920 C   0  0  0  0  0  0  0  0  0  0  0  0
   44.6080   32.0080   36.8900 C   0  0  0  0  0  0  0  0  0  0  0  0
   43.8800   32.4340   37.9800 C   0  0  0  0  0  0  0  0  0  0  0  0
   44.6280   33.0580   38.9280 N   0  0  0  0  0  0  0  0  0  0  0  0
   42.4800   32.1620   37.9550 C   0  0  0  0  0  0  0  0  0  0  0  0
   42.0120   30.9700   37.5510 N   0  0  0  0  0  0  0  0  0  0  0  0
   40.7230   30.6210   37.4930 C   0  0  0  0  0  0  0  0  0  0  0  0
   39.7360   31.4780   37.8530 N   0  0  0  0  0  0  0  0  0  0  0  0
   40.1050   32.7110   38.2770 C   0  0  0  0  0  0  0  0  0  0  0  0
   39.1420   33.6180   38.6530 C   0  0  0  0  0  0  0  0  0  0  0  0
   39.4770   34.8870   39.0930 C   0  0  0  0  0  0  0  0  0  0  0  0
   40.8390   35.1900   39.1310 C   0  0  0  0  0  0  0  0  0  0  0  0
   41.7540   34.2570   38.7470 C   0  0  0  0  0  0  0  0  0  0  0  0
   41.4440   32.9910   38.3080 C   0  0  0  0  0  0  0  0  0  0  0  0
   46.7120   34.7000   42.1130 C   0  0  0  0  0  0  0  0  0  0  0  0
   47.9900   35.1950   42.0010 C   0  0  0  0  0  0  0  0  0  0  0  0
   48.5830   35.0190   40.7740 C   0  0  0  0  0  0  0  0  0  0  0  0
   47.9390   34.3850   39.7140 C   0  0  0  0  0  0  0  0  0  0  0  0
   46.6400   33.9050   39.8950 C   0  0  0  0  0  0  0  0  0  0  0  0
   46.0770   34.0890   41.1080 N   0  0  0  0  0  0  0  0  0  0  0  0
   44.4700   35.9670   44.8080 C   0  0  0  0  0  0  0  0  0  0  0  0
   45.1350   35.8860   43.5650 C   0  0  0  0  0  0  0  0  0  0  0  0
   45.9950   34.8360   43.3760 C   0  0  0  0  0  0  0  0  0  0  0  0
   46.1670   33.9260   44.3850 N   0  0  0  0  0  0  0  0  0  0  0  0
   45.5180   34.0270   45.5650 C   0  0  0  0  0  0  0  0  0  0  0  0
   44.6780   35.0390   45.7720 N   0  0  0  0  0  0  0  0  0  0  0  0
   47.7316   32.9768   37.6641 H   0  0  0  0  0  0  0  0  0  0  0  0
   46.4758   31.7875   35.7896 H   0  0  0  0  0  0  0  0  0  0  0  0
   44.0477   31.4960   36.0938 H   0  0  0  0  0  0  0  0  0  0  0  0
   40.4561   29.6125   37.1442 H   0  0  0  0  0  0  0  0  0  0  0  0
   38.0819   33.3286   38.6030 H   0  0  0  0  0  0  0  0  0  0  0  0
   38.7117   35.6167   39.3961 H   0  0  0  0  0  0  0  0  0  0  0  0
   41.1731   36.1814   39.4708 H   0  0  0  0  0  0  0  0  0  0  0  0
   42.8171   34.5360   38.7912 H   0  0  0  0  0  0  0  0  0  0  0  0
   48.5019   35.6968   42.8354 H   0  0  0  0  0  0  0  0  0  0  0  0
   49.6062   35.3934   40.6229 H   0  0  0  0  0  0  0  0  0  0  0  0
   48.4474   34.2639   38.7461 H   0  0  0  0  0  0  0  0  0  0  0  0
   43.7724   36.7965   44.9961 H   0  0  0  0  0  0  0  0  0  0  0  0
   44.9691   36.6370   42.7785 H   0  0  0  0  0  0  0  0  0  0  0  0
   45.6827   33.2762   46.3519 H   0  0  0  0  0  0  0  0  0  0  0  0
  1  6  1  0
  1 21  1  0
  2  1  2  0
  3  4  2  0
  3  2  1  0
  4  5  1  0
  5  6  2  0
  7  5  1  0
  7 16  1  0
  8  7  2  0
  9  8  1  0
  9 10  2  0
 10 11  1  0
 11 16  2  0
 11 12  1  0
 12 13  2  0
 13 14  1  0
 15 14  2  0
 16 15  1  0
 17 25  1  0
 18 17  2  0
 19 18  1  0
 20 21  1  0
 20 19  2  0
 21 22  2  0
 22 17  1  0
 23 28  2  0
 24 23  1  0
 25 24  2  0
 25 26  1  0
 26 27  2  0
 27 28  1  0
  2 29  1  0
  3 30  1  0
  4 31  1  0
  9 32  1  0
 12 33  1  0
 13 34  1  0
 14 35  1  0
 15 36  1  0
 18 37  1  0
 19 38  1  0
 20 39  1  0
 23 40  1  0
 24 41  1  0
 27 42  1  0
M  END
>  <Score>  (1) 
-7.39673

$$$$
