ligand
  PyMOL2.5          3D                             0

 42 44  0  0  0  0  0  0  0  0999 V2000
   46.3460   79.3817   58.2557 H   0  0  0  0  0  0  0  0  0  0  0  0
   49.6823   77.5141   59.3457 C   0  0  0  0  0  0  0  0  0  0  0  0
   47.3090   78.8247   58.1507 C   0  0  0  0  0  0  0  0  0  0  0  0
   49.7903   78.8839   58.6567 C   0  0  0  0  0  0  0  0  0  0  0  0
   42.3136   76.4612   55.9711 H   0  0  0  0  0  0  0  0  0  0  0  0
   48.7540   76.4550   57.6817 H   0  0  0  0  0  0  0  0  0  0  0  0
   46.9263   77.5989   59.9123 H   0  0  0  0  0  0  0  0  0  0  0  0
   47.4829   78.6782   57.0574 H   0  0  0  0  0  0  0  0  0  0  0  0
   48.5468   80.6273   58.2102 H   0  0  0  0  0  0  0  0  0  0  0  0
   50.6087   79.4833   59.1250 H   0  0  0  0  0  0  0  0  0  0  0  0
   45.3239   74.9113   55.4820 H   0  0  0  0  0  0  0  0  0  0  0  0
   44.2686   78.6434   59.2838 H   0  0  0  0  0  0  0  0  0  0  0  0
   50.6452   76.9571   59.2407 H   0  0  0  0  0  0  0  0  0  0  0  0
   48.4445   75.7115   59.2862 H   0  0  0  0  0  0  0  0  0  0  0  0
   47.2010   77.4548   58.8397 C   0  0  0  0  0  0  0  0  0  0  0  0
   49.5084   77.6605   60.4390 H   0  0  0  0  0  0  0  0  0  0  0  0
   48.5304   76.6883   58.7506 C   0  0  0  0  0  0  0  0  0  0  0  0
   50.0650   78.7397   57.5841 H   0  0  0  0  0  0  0  0  0  0  0  0
   48.2373   79.8837   59.8147 H   0  0  0  0  0  0  0  0  0  0  0  0
   43.2786   77.9412   54.8407 H   0  0  0  0  0  0  0  0  0  0  0  0
   48.4609   79.6504   58.7458 C   0  0  0  0  0  0  0  0  0  0  0  0
   42.7426   76.4381   57.6980 H   0  0  0  0  0  0  0  0  0  0  0  0
   43.0435   76.1133   56.7020 C   0  0  0  0  0  0  0  0  0  0  0  0
   43.0944   75.0249   56.6741 H   0  0  0  0  0  0  0  0  0  0  0  0
   45.4278   75.6568   56.1554 N   0  0  0  0  0  0  0  0  0  0  0  0
   45.2405   77.8750   54.4169 O   0  0  0  0  0  0  0  0  0  0  0  0
   44.4265   76.7015   56.3655 C   0  0  0  0  0  0  0  0  0  0  0  0
   44.9880   77.5152   57.5562 C   0  0  0  0  0  0  0  0  0  0  0  0
   46.0731   76.6286   58.1941 C   0  0  0  0  0  0  0  0  0  0  0  0
   46.6023   75.8061   57.0282 C   0  0  0  0  0  0  0  0  0  0  0  0
   45.3520   75.7972   59.2682 C   0  0  0  0  0  0  0  0  0  0  0  0
   44.0248   76.5054   59.5189 C   0  0  0  0  0  0  0  0  0  0  0  0
   43.9961   77.7685   58.6935 C   0  0  0  0  0  0  0  0  0  0  0  0
   44.2681   77.5763   55.1163 C   0  0  0  0  0  0  0  0  0  0  0  0
   45.3935   78.4633   57.2084 H   0  0  0  0  0  0  0  0  0  0  0  0
   47.4276   76.2880   56.5054 H   0  0  0  0  0  0  0  0  0  0  0  0
   46.9975   74.8687   57.4102 H   0  0  0  0  0  0  0  0  0  0  0  0
   45.1964   74.7759   58.9242 H   0  0  0  0  0  0  0  0  0  0  0  0
   45.9461   75.6967   60.1759 H   0  0  0  0  0  0  0  0  0  0  0  0
   43.8960   76.7334   60.5761 H   0  0  0  0  0  0  0  0  0  0  0  0
   43.1821   75.8559   59.2824 H   0  0  0  0  0  0  0  0  0  0  0  0
   42.9978   77.9869   58.3181 H   0  0  0  0  0  0  0  0  0  0  0  0
  2  4  1  0  0  0  0
  2 13  1  0  0  0  0
  2 16  1  0  0  0  0
  1  3  1  0  0  0  0
  3  8  1  0  0  0  0
  4 10  1  0  0  0  0
  4 18  1  0  0  0  0
  4 21  1  0  0  0  0
  3 15  1  0  0  0  0
  7 15  1  0  0  0  0
 15 17  1  0  0  0  0
  2 17  1  0  0  0  0
  6 17  1  0  0  0  0
 14 17  1  0  0  0  0
  3 21  1  0  0  0  0
  9 21  1  0  0  0  0
 19 21  1  0  0  0  0
 22 23  1  0  0  0  0
  5 23  1  0  0  0  0
 23 24  1  0  0  0  0
 23 27  1  0  0  0  0
 11 25  1  0  0  0  0
 25 27  1  0  0  0  0
 25 30  1  0  0  0  0
 26 34  2  0  0  0  0
 27 28  1  0  0  0  0
 27 34  1  0  0  0  0
 28 29  1  0  0  0  0
 28 33  1  0  0  0  0
 28 35  1  0  0  0  0
 15 29  1  0  0  0  0
 29 30  1  0  0  0  0
 29 31  1  0  0  0  0
 30 36  1  0  0  0  0
 30 37  1  0  0  0  0
 31 32  1  0  0  0  0
 31 38  1  0  0  0  0
 31 39  1  0  0  0  0
 32 33  1  0  0  0  0
 32 40  1  0  0  0  0
 32 41  1  0  0  0  0
 12 33  1  0  0  0  0
 33 42  1  0  0  0  0
 20 34  1  0  0  0  0
M  END
>  <pdb_header>
CRYST1   81.561   97.031  102.599  90.00  90.00  90.00               1

$$$$
