MODEL 1
REMARK minimizedAffinity -2.82644749REMARK  Name = 7
REMARK  0 active torsions:
REMARK  status: ('A' for Active; 'I' for Inactive)
REMARK                            x       y       z     vdW  Elec       q    Type
REMARK                         _______ _______ _______ _____ _____    ______ ____
ROOT
ATOM      1  C   UNL     1      37.316  30.222  51.388  0.00  0.00    +0.000 A 
ATOM      2  C   UNL     1      38.088  30.758  50.336  0.00  0.00    +0.000 A 
ATOM      3  C   UNL     1      37.731  30.416  49.023  0.00  0.00    +0.000 A 
ATOM      4  N   UNL     1      36.663  29.585  48.841  0.00  0.00    +0.000 NA
ATOM      5  C   UNL     1      35.945  29.092  49.875  0.00  0.00    +0.000 A 
ATOM      6  N   UNL     1      36.271  29.413  51.141  0.00  0.00    +0.000 NA
ENDROOT
TORSDOF 0
ENDMDL
