./init_pose/1_1.pdbqt
 OpenBabel03252509433D

  6  6  0  0  0  0  0  0  0  0999 V2000
   37.5230   30.2630   48.9760 C   0  0  0  0  0  0  0  0  0  0  0  0
   38.0260   30.6520   50.2360 C   0  0  0  0  0  0  0  0  0  0  0  0
   37.3380   30.2140   51.3780 C   0  0  0  0  0  0  0  0  0  0  0  0
   36.2240   29.4430   51.2040 N   0  0  0  0  0  0  0  0  0  0  0  0
   35.7730   29.0900   49.9790 C   0  0  0  0  0  0  0  0  0  0  0  0
   36.4240   29.4970   48.8730 N   0  0  0  0  0  0  0  0  0  0  0  0
  1  2  1  0  0  0  0
  2  3  2  0  0  0  0
  4  3  1  0  0  0  0
  5  4  2  0  0  0  0
  6  1  2  0  0  0  0
  6  5  1  0  0  0  0
M  END
>  <MODEL>
2

>  <REMARK>
 minimizedAffinity -2.79987931REMARK  Name = 7
  0 active torsions:
  status: ('A' for Active; 'I' for Inactive)
                            x       y       z     vdW  Elec       q    Type
                         _______ _______ _______ _____ _____    ______ ____

>  <TORSDO>
F 0

$$$$
