./init_pose/1_2.pdbqt
     RDKit          3D

 10 10  0  0  0  0  0  0  0  0999 V2000
   37.3600   30.2650   51.3540 C   0  0  0  0  0  0  0  0  0  0  0  0
   36.3090   29.3920   51.0010 C   0  0  0  0  0  0  0  0  0  0  0  0
   36.0850   29.1560   49.6360 C   0  0  0  0  0  0  0  0  0  0  0  0
   36.8930   29.7850   48.7320 N   0  0  0  0  0  0  0  0  0  0  0  0
   37.8920   30.6150   49.1090 C   0  0  0  0  0  0  0  0  0  0  0  0
   38.1230   30.8490   50.4140 N   0  0  0  0  0  0  0  0  0  0  0  0
   37.5582   30.4710   52.4162 H   0  0  0  0  0  0  0  0  0  0  0  0
   35.6860   28.9124   51.7703 H   0  0  0  0  0  0  0  0  0  0  0  0
   35.2810   28.4831   49.3032 H   0  0  0  0  0  0  0  0  0  0  0  0
   38.5181   31.1007   48.3461 H   0  0  0  0  0  0  0  0  0  0  0  0
  2  1  2  0
  3  2  1  0
  4  5  1  0
  4  3  2  0
  5  6  2  0
  6  1  1  0
  1  7  1  0
  2  8  1  0
  3  9  1  0
  5 10  1  0
M  END
>  <MODEL>  (1) 
3

>  <REMARK>  (1) 
 minimizedAffinity -2.76077771REMARK  Name = 7
  0 active torsions:
  status: ('A' for Active; 'I' for Inactive)
                            x       y       z     vdW  Elec       q    Type
                         _______ _______ _______ _____ _____    ______ ____

>  <TORSDO>  (1) 
F 0

$$$$
