MODEL 4
REMARK minimizedAffinity -2.74657178REMARK  Name = 7
REMARK  0 active torsions:
REMARK  status: ('A' for Active; 'I' for Inactive)
REMARK                            x       y       z     vdW  Elec       q    Type
REMARK                         _______ _______ _______ _____ _____    ______ ____
ROOT
ATOM      1  C   UNL     1      36.708  29.736  48.813  0.00  0.00    +0.000 A 
ATOM      2  C   UNL     1      36.011  29.169  49.901  0.00  0.00    +0.000 A 
ATOM      3  C   UNL     1      36.434  29.506  51.195  0.00  0.00    +0.000 A 
ATOM      4  N   UNL     1      37.494  30.357  51.326  0.00  0.00    +0.000 NA
ATOM      5  C   UNL     1      38.137  30.882  50.259  0.00  0.00    +0.000 A 
ATOM      6  N   UNL     1      37.741  30.573  49.010  0.00  0.00    +0.000 NA
ENDROOT
TORSDOF 0
ENDMDL
