./init_pose/1_4.pdbqt
 OpenBabel03252509433D

  6  6  0  0  0  0  0  0  0  0999 V2000
   35.7730   29.1560   50.0090 C   0  0  0  0  0  0  0  0  0  0  0  0
   36.4970   29.6130   48.8870 C   0  0  0  0  0  0  0  0  0  0  0  0
   37.6640   30.3560   49.1200 C   0  0  0  0  0  0  0  0  0  0  0  0
   38.0280   30.5960   50.4140 N   0  0  0  0  0  0  0  0  0  0  0  0
   37.3090   30.1410   51.4650 C   0  0  0  0  0  0  0  0  0  0  0  0
   36.1890   29.4220   51.2590 N   0  0  0  0  0  0  0  0  0  0  0  0
  1  6  1  0  0  0  0
  2  3  1  0  0  0  0
  2  1  2  0  0  0  0
  3  4  2  0  0  0  0
  4  5  1  0  0  0  0
  6  5  2  0  0  0  0
M  END
>  <MODEL>
5

>  <REMARK>
 minimizedAffinity -2.73233724REMARK  Name = 7
  0 active torsions:
  status: ('A' for Active; 'I' for Inactive)
                            x       y       z     vdW  Elec       q    Type
                         _______ _______ _______ _____ _____    ______ ____

>  <TORSDO>
F 0

$$$$
