./init_pose/1_4.pdbqt
     RDKit          3D

 10 10  0  0  0  0  0  0  0  0999 V2000
   35.7730   29.1560   50.0090 C   0  0  0  0  0  0  0  0  0  0  0  0
   36.4970   29.6130   48.8870 C   0  0  0  0  0  0  0  0  0  0  0  0
   37.6640   30.3560   49.1200 C   0  0  0  0  0  0  0  0  0  0  0  0
   38.0280   30.5960   50.4140 N   0  0  0  0  0  0  0  0  0  0  0  0
   37.3090   30.1410   51.4650 C   0  0  0  0  0  0  0  0  0  0  0  0
   36.1890   29.4220   51.2590 N   0  0  0  0  0  0  0  0  0  0  0  0
   34.8529   28.5724   49.8579 H   0  0  0  0  0  0  0  0  0  0  0  0
   36.1576   29.3939   47.8639 H   0  0  0  0  0  0  0  0  0  0  0  0
   38.2692   30.7348   48.2832 H   0  0  0  0  0  0  0  0  0  0  0  0
   37.6399   30.3588   52.4912 H   0  0  0  0  0  0  0  0  0  0  0  0
  1  6  2  0
  2  3  2  0
  2  1  1  0
  3  4  1  0
  4  5  2  0
  6  5  1  0
  1  7  1  0
  2  8  1  0
  3  9  1  0
  5 10  1  0
M  END
>  <MODEL>  (1) 
5

>  <REMARK>  (1) 
 minimizedAffinity -2.73233724REMARK  Name = 7
  0 active torsions:
  status: ('A' for Active; 'I' for Inactive)
                            x       y       z     vdW  Elec       q    Type
                         _______ _______ _______ _____ _____    ______ ____

>  <TORSDO>  (1) 
F 0

$$$$
