MODEL 6
REMARK minimizedAffinity -2.6972971REMARK  Name = 7
REMARK  0 active torsions:
REMARK  status: ('A' for Active; 'I' for Inactive)
REMARK                            x       y       z     vdW  Elec       q    Type
REMARK                         _______ _______ _______ _____ _____    ______ ____
ROOT
ATOM      1  C   UNL     1      27.761  27.022  51.363  0.00  0.00    +0.000 A 
ATOM      2  C   UNL     1      26.878  28.039  50.938  0.00  0.00    +0.000 A 
ATOM      3  C   UNL     1      27.361  28.981  50.018  0.00  0.00    +0.000 A 
ATOM      4  N   UNL     1      28.652  28.863  49.591  0.00  0.00    +0.000 NA
ATOM      5  C   UNL     1      29.468  27.873  50.019  0.00  0.00    +0.000 A 
ATOM      6  N   UNL     1      29.020  26.958  50.898  0.00  0.00    +0.000 NA
ENDROOT
TORSDOF 0
ENDMDL
