./init_pose/1_5.pdbqt
     RDKit          3D

 10 10  0  0  0  0  0  0  0  0999 V2000
   27.7610   27.0220   51.3630 C   0  0  0  0  0  0  0  0  0  0  0  0
   26.8780   28.0390   50.9380 C   0  0  0  0  0  0  0  0  0  0  0  0
   27.3610   28.9810   50.0180 C   0  0  0  0  0  0  0  0  0  0  0  0
   28.6520   28.8630   49.5910 N   0  0  0  0  0  0  0  0  0  0  0  0
   29.4680   27.8730   50.0190 C   0  0  0  0  0  0  0  0  0  0  0  0
   29.0200   26.9580   50.8980 N   0  0  0  0  0  0  0  0  0  0  0  0
   27.4124   26.2702   52.0864 H   0  0  0  0  0  0  0  0  0  0  0  0
   25.8462   28.0906   51.3158 H   0  0  0  0  0  0  0  0  0  0  0  0
   26.7166   29.7932   49.6504 H   0  0  0  0  0  0  0  0  0  0  0  0
   30.5017   27.8156   49.6472 H   0  0  0  0  0  0  0  0  0  0  0  0
  2  1  2  0
  3  2  1  0
  4  3  2  0
  4  5  1  0
  5  6  2  0
  6  1  1  0
  1  7  1  0
  2  8  1  0
  3  9  1  0
  5 10  1  0
M  END
>  <MODEL>  (1) 
6

>  <REMARK>  (1) 
 minimizedAffinity -2.6972971REMARK  Name = 7
  0 active torsions:
  status: ('A' for Active; 'I' for Inactive)
                            x       y       z     vdW  Elec       q    Type
                         _______ _______ _______ _____ _____    ______ ____

>  <TORSDO>  (1) 
F 0

$$$$
