./init_pose/1_6.pdbqt
     RDKit          3D

 10 10  0  0  0  0  0  0  0  0999 V2000
   27.4520   28.9800   50.0240 C   0  0  0  0  0  0  0  0  0  0  0  0
   26.9340   28.0590   50.9600 C   0  0  0  0  0  0  0  0  0  0  0  0
   27.7720   27.0170   51.3850 C   0  0  0  0  0  0  0  0  0  0  0  0
   29.0340   26.9530   50.8670 N   0  0  0  0  0  0  0  0  0  0  0  0
   29.4960   27.8550   49.9720 C   0  0  0  0  0  0  0  0  0  0  0  0
   28.7070   28.8640   49.5570 N   0  0  0  0  0  0  0  0  0  0  0  0
   26.8179   29.8065   49.6709 H   0  0  0  0  0  0  0  0  0  0  0  0
   25.9075   28.1550   51.3434 H   0  0  0  0  0  0  0  0  0  0  0  0
   27.4222   26.2723   52.1151 H   0  0  0  0  0  0  0  0  0  0  0  0
   30.5203   27.7642   49.5814 H   0  0  0  0  0  0  0  0  0  0  0  0
  1  2  2  0
  2  3  1  0
  4  3  2  0
  5  4  1  0
  6  5  2  0
  6  1  1  0
  1  7  1  0
  2  8  1  0
  3  9  1  0
  5 10  1  0
M  END
>  <MODEL>  (1) 
7

>  <REMARK>  (1) 
 minimizedAffinity -2.68634629REMARK  Name = 7
  0 active torsions:
  status: ('A' for Active; 'I' for Inactive)
                            x       y       z     vdW  Elec       q    Type
                         _______ _______ _______ _____ _____    ______ ____

>  <TORSDO>  (1) 
F 0

$$$$
