./init_pose/1_6.pdbqt
 OpenBabel03252509433D

  6  6  0  0  0  0  0  0  0  0999 V2000
   27.4520   28.9800   50.0240 C   0  0  0  0  0  0  0  0  0  0  0  0
   26.9340   28.0590   50.9600 C   0  0  0  0  0  0  0  0  0  0  0  0
   27.7720   27.0170   51.3850 C   0  0  0  0  0  0  0  0  0  0  0  0
   29.0340   26.9530   50.8670 N   0  0  0  0  0  0  0  0  0  0  0  0
   29.4960   27.8550   49.9720 C   0  0  0  0  0  0  0  0  0  0  0  0
   28.7070   28.8640   49.5570 N   0  0  0  0  0  0  0  0  0  0  0  0
  1  2  1  0  0  0  0
  2  3  2  0  0  0  0
  4  3  1  0  0  0  0
  5  4  2  0  0  0  0
  6  5  1  0  0  0  0
  6  1  2  0  0  0  0
M  END
>  <MODEL>
7

>  <REMARK>
 minimizedAffinity -2.68634629REMARK  Name = 7
  0 active torsions:
  status: ('A' for Active; 'I' for Inactive)
                            x       y       z     vdW  Elec       q    Type
                         _______ _______ _______ _____ _____    ______ ____

>  <TORSDO>
F 0

$$$$
