MODEL 9
REMARK minimizedAffinity -2.62384057REMARK  Name = 7
REMARK  0 active torsions:
REMARK  status: ('A' for Active; 'I' for Inactive)
REMARK                            x       y       z     vdW  Elec       q    Type
REMARK                         _______ _______ _______ _____ _____    ______ ____
ROOT
ATOM      1  C   UNL     1      29.054  27.139  50.612  0.00  0.00    +0.000 A 
ATOM      2  C   UNL     1      27.799  27.015  51.246  0.00  0.00    +0.000 A 
ATOM      3  C   UNL     1      26.812  27.962  50.932  0.00  0.00    +0.000 A 
ATOM      4  N   UNL     1      27.124  28.946  50.038  0.00  0.00    +0.000 NA
ATOM      5  C   UNL     1      28.338  29.032  49.450  0.00  0.00    +0.000 A 
ATOM      6  N   UNL     1      29.296  28.129  49.736  0.00  0.00    +0.000 NA
ENDROOT
TORSDOF 0
ENDMDL
