
     RDKit          3D

 45 48  0  0  0  0  0  0  0  0999 V2000
   36.4107   30.9728   48.7656 N   0  0  0  0  0  0  0  0  0  0  0  0
   36.3887   31.7328   49.8756 C   0  0  0  0  0  0  0  0  0  0  0  0
   37.3704   32.6606   49.7841 N   0  0  0  0  0  0  0  0  0  0  0  0
   37.9896   32.4550   48.6042 C   0  0  0  0  0  0  0  0  0  0  0  0
   39.0474   33.0701   47.9595 C   0  0  0  0  0  0  0  0  0  0  0  0
   39.4770   32.6578   46.7589 N   0  0  0  0  0  0  0  0  0  0  0  0
   38.8937   31.6189   46.1224 C   0  0  0  0  0  0  0  0  0  0  0  0
   37.8665   31.0229   46.7499 N   0  0  0  0  0  0  0  0  0  0  0  0
   37.3982   31.3962   47.9502 C   0  0  0  0  0  0  0  0  0  0  0  0
   39.6948   34.1660   48.5823 N   0  0  0  0  0  0  0  0  0  0  0  0
   34.6469   30.0018   47.4032 C   0  0  0  0  0  0  0  0  0  0  0  0
   35.5162   29.8952   48.5184 C   0  0  0  0  0  0  0  0  0  0  0  0
   35.4216   28.7351   49.2706 C   0  0  0  0  0  0  0  0  0  0  0  0
   34.5319   27.7755   48.9245 N   0  0  0  0  0  0  0  0  0  0  0  0
   33.7155   27.8972   47.8591 C   0  0  0  0  0  0  0  0  0  0  0  0
   33.7835   29.0004   47.1194 N   0  0  0  0  0  0  0  0  0  0  0  0
   32.7604   26.8317   47.4829 C   0  0  0  0  0  0  0  0  0  0  0  0
   31.5495   26.8954   48.4253 C   0  0  0  0  0  0  0  0  0  0  0  0
   32.1662   27.1247   46.1037 C   0  0  0  0  0  0  0  0  0  0  0  0
   33.3324   25.4698   47.4704 C   0  0  0  0  0  0  0  0  0  0  0  0
   35.7020   31.6176   50.6971 H   0  0  0  0  0  0  0  0  0  0  0  0
   39.2454   31.2944   45.1585 H   0  0  0  0  0  0  0  0  0  0  0  0
   39.4192   35.1633   48.4389 H   0  0  0  0  0  0  0  0  0  0  0  0
   40.4953   34.2176   49.2438 H   0  0  0  0  0  0  0  0  0  0  0  0
   34.6667   30.8804   46.7729 H   0  0  0  0  0  0  0  0  0  0  0  0
   36.0890   28.6778   50.1098 H   0  0  0  0  0  0  0  0  0  0  0  0
   31.2640   27.9642   48.5550 H   0  0  0  0  0  0  0  0  0  0  0  0
   30.6668   26.3994   47.9637 H   0  0  0  0  0  0  0  0  0  0  0  0
   31.7773   26.4573   49.4018 H   0  0  0  0  0  0  0  0  0  0  0  0
   31.6197   28.1142   46.1649 H   0  0  0  0  0  0  0  0  0  0  0  0
   31.3975   26.4059   45.8189 H   0  0  0  0  0  0  0  0  0  0  0  0
   32.9299   27.1771   45.3106 H   0  0  0  0  0  0  0  0  0  0  0  0
   32.4933   24.7663   47.1873 H   0  0  0  0  0  0  0  0  0  0  0  0
   33.5407   25.1915   48.5377 H   0  0  0  0  0  0  0  0  0  0  0  0
   34.4092   25.1806   46.6048 N   0  0  0  0  0  0  0  0  0  0  0  0
   34.4156   24.2404   45.6434 C   0  0  0  0  0  0  0  0  0  0  0  0
   35.4503   23.9381   44.7923 C   0  0  0  0  0  0  0  0  0  0  0  0
   36.6234   24.6670   44.9191 C   0  0  0  0  0  0  0  0  0  0  0  0
   37.5901   24.4308   44.1714 O   0  0  0  0  0  0  0  0  0  0  0  0
   36.6629   25.6114   45.8600 N   0  0  0  0  0  0  0  0  0  0  0  0
   35.6029   25.8443   46.6536 C   0  0  0  0  0  0  0  0  0  0  0  0
   35.8018   26.7658   47.4848 O   0  0  0  0  0  0  0  0  0  0  0  0
   33.5384   23.6383   45.4827 H   0  0  0  0  0  0  0  0  0  0  0  0
   35.3935   23.1692   44.0389 H   0  0  0  0  0  0  0  0  0  0  0  0
   37.5513   26.1303   45.9222 H   0  0  0  0  0  0  0  0  0  0  0  0
  1  2  1  0
  3  2  2  0
  4  3  1  0
  5 10  1  0
  5  4  2  0
  6  5  1  0
  7  8  1  0
  7  6  2  0
  8  9  2  0
  9  4  1  0
  9  1  1  0
 11 12  2  0
 12  1  1  0
 12 13  1  0
 14 13  2  0
 15 14  1  0
 16 11  1  0
 16 15  2  0
 17 15  1  0
 17 18  1  0
 19 17  1  0
 20 17  1  0
  2 21  1  0
  7 22  1  0
 10 23  1  0
 10 24  1  0
 11 25  1  0
 13 26  1  0
 18 27  1  0
 18 28  1  0
 18 29  1  0
 19 30  1  0
 19 31  1  0
 19 32  1  0
 20 33  1  0
 20 34  1  0
 35 36  1  0
 36 37  2  0
 37 38  1  0
 38 39  2  0
 38 40  1  0
 40 41  1  0
 41 42  2  0
 41 35  1  0
 36 43  1  0
 37 44  1  0
 40 45  1  0
 20 35  1  0
M  ISO  8  21  14  22  14  25  14  26  14  27   8  28   8  29   8  30   8
M  ISO  4  31   8  32   8  33   8  34   8
M  END
>  <DihAtoms>  (1) 
16,19,34,35

>  <DihDeg>  (1) 
88.82482119219738

$$$$
