
     RDKit          3D

 33 34  0  0  0  0  0  0  0  0999 V2000
   38.3530   32.4560   49.2530 C   0  0  0  0  0  0  0  0  0  0  0  0
   38.7350   32.0720   47.8520 C   0  0  0  0  0  0  0  0  0  0  0  0
   38.5600   30.8030   47.3830 C   0  0  0  0  0  0  0  0  0  0  0  0
   38.9260   30.4590   46.0950 C   0  0  0  0  0  0  0  0  0  0  0  0
   39.4660   31.4390   45.3170 N   0  0  0  0  0  0  0  0  0  0  0  0
   39.6360   32.6730   45.7730 C   0  0  0  0  0  0  0  0  0  0  0  0
   39.2820   33.0270   47.0340 N   0  0  0  0  0  0  0  0  0  0  0  0
   40.2230   33.7300   44.9080 C   0  0  0  0  0  0  0  0  0  0  0  0
   39.8090   33.5010   43.4430 C   0  0  0  0  0  0  0  0  0  0  0  0
   38.2650   31.1670   50.0120 C   0  0  0  0  0  0  0  0  0  0  0  0
   36.9060   29.1410   49.9370 C   0  0  0  0  0  0  0  0  0  0  0  0
   37.0120   30.5230   49.8690 C   0  0  0  0  0  0  0  0  0  0  0  0
   35.8630   31.2320   49.6780 C   0  0  0  0  0  0  0  0  0  0  0  0
   34.6490   30.6000   49.5570 N   0  0  0  0  0  0  0  0  0  0  0  0
   34.5690   29.2620   49.6250 C   0  0  0  0  0  0  0  0  0  0  0  0
   35.6850   28.5590   49.8120 N   0  0  0  0  0  0  0  0  0  0  0  0
   33.2600   28.5550   49.4970 C   0  0  0  0  0  0  0  0  0  0  0  0
   37.3818   32.9725   49.2587 H   0  0  0  0  0  0  0  0  0  0  0  0
   39.0848   33.1442   49.7012 H   0  0  0  0  0  0  0  0  0  0  0  0
   38.1198   30.0397   48.0415 H   0  0  0  0  0  0  0  0  0  0  0  0
   38.7871   29.4365   45.7139 H   0  0  0  0  0  0  0  0  0  0  0  0
   39.8611   34.7145   45.2393 H   0  0  0  0  0  0  0  0  0  0  0  0
   41.3197   33.6911   44.9838 H   0  0  0  0  0  0  0  0  0  0  0  0
   38.8468   32.9688   43.4128 H   0  0  0  0  0  0  0  0  0  0  0  0
   39.7075   34.4712   42.9347 H   0  0  0  0  0  0  0  0  0  0  0  0
   40.5769   32.8994   42.9347 H   0  0  0  0  0  0  0  0  0  0  0  0
   39.0505   30.4901   49.6448 H   0  0  0  0  0  0  0  0  0  0  0  0
   38.3919   31.4048   51.0785 H   0  0  0  0  0  0  0  0  0  0  0  0
   37.8026   28.5225   50.0907 H   0  0  0  0  0  0  0  0  0  0  0  0
   35.9088   32.3295   49.6198 H   0  0  0  0  0  0  0  0  0  0  0  0
   32.8604   28.3391   50.4988 H   0  0  0  0  0  0  0  0  0  0  0  0
   32.5509   29.1928   48.9489 H   0  0  0  0  0  0  0  0  0  0  0  0
   33.4045   27.6123   48.9489 H   0  0  0  0  0  0  0  0  0  0  0  0
  1 10  1  0
  2  1  1  0
  3  2  2  0
  4  3  1  0
  5  6  1  0
  5  4  2  0
  6  7  2  0
  7  2  1  0
  8  6  1  0
  9  8  1  0
 12 11  2  0
 12 10  1  0
 13 12  1  0
 14 15  1  0
 14 13  2  0
 15 16  2  0
 16 11  1  0
 17 15  1  0
  1 18  1  0
  1 19  1  0
  3 20  1  0
  4 21  1  0
  8 22  1  0
  8 23  1  0
  9 24  1  0
  9 25  1  0
  9 26  1  0
 10 27  1  0
 10 28  1  0
 11 29  1  0
 13 30  1  0
 17 31  1  0
 17 32  1  0
 17 33  1  0
M  ISO  8  18   8  19   8  20  14  21  14  22   8  23   8  24   8  25   8
M  ISO  8  26   8  27   8  28   8  29  14  30  14  31   8  32   8  33   8
M  END
>  <minimizedAffinity>  (1) 
-5.07299471

>  <minimizedRMSD>  (1) 
0.648065388

$$$$
