
     RDKit          3D

 19 20  0  0  0  0  0  0  0  0999 V2000
   37.3430   31.1920   47.0570 C   0  0  0  0  0  0  0  0  0  0  0  0
   38.3710   31.9730   47.5770 C   0  0  0  0  0  0  0  0  0  0  0  0
   39.3450   32.4590   46.6620 C   0  0  0  0  0  0  0  0  0  0  0  0
   39.1920   32.1200   45.3490 N   0  0  0  0  0  0  0  0  0  0  0  0
   38.1810   31.3620   44.9050 C   0  0  0  0  0  0  0  0  0  0  0  0
   37.2520   30.8910   45.7350 N   0  0  0  0  0  0  0  0  0  0  0  0
   36.3630   30.7060   47.9980 C   0  0  0  0  0  0  0  0  0  0  0  0
   35.1250   30.5620   47.7560 O   0  0  0  0  0  0  0  0  0  0  0  0
   37.2550   30.4980   51.4990 N   0  0  0  0  0  0  0  0  0  0  0  0
   36.9190   31.1650   50.3980 N   0  0  0  0  0  0  0  0  0  0  0  0
   36.7370   30.3260   49.3620 C   0  0  0  0  0  0  0  0  0  0  0  0
   36.9870   29.0840   49.9070 C   0  0  0  0  0  0  0  0  0  0  0  0
   37.3110   29.1810   51.2420 C   0  0  0  0  0  0  0  0  0  0  0  0
   38.4277   32.2046   48.6508 H   0  0  0  0  0  0  0  0  0  0  0  0
   40.1867   33.0822   46.9985 H   0  0  0  0  0  0  0  0  0  0  0  0
   38.1166   31.1236   43.8331 H   0  0  0  0  0  0  0  0  0  0  0  0
   37.4446   30.9289   52.4151 H   0  0  0  0  0  0  0  0  0  0  0  0
   36.9344   28.1383   49.3477 H   0  0  0  0  0  0  0  0  0  0  0  0
   37.5589   28.3663   51.9383 H   0  0  0  0  0  0  0  0  0  0  0  0
  1  2  2  0
  1  7  1  0
  3  2  1  0
  4  3  2  0
  5  4  1  0
  5  6  2  0
  6  1  1  0
  7 11  1  0
  8  7  2  0
 10  9  1  0
 11 12  1  0
 11 10  2  0
 12 13  2  0
 13  9  1  0
  2 14  1  0
  3 15  1  0
  5 16  1  0
  9 17  1  0
 12 18  1  0
 13 19  1  0
M  ISO  6  14  14  15  14  16  14  17   9  18  14  19  14
M  END
>  <minimizedAffinity>  (1) 
-4.08977652

>  <minimizedRMSD>  (1) 
3.20840812

$$$$
