
     RDKit          3D

 46 49  0  0  0  0  0  0  0  0999 V2000
   36.4164   30.9673   48.7426 N   0  0  0  0  0  0  0  0  0  0  0  0
   36.3962   31.7333   49.8713 C   0  0  0  0  0  0  0  0  0  0  0  0
   37.3741   32.6564   49.7838 N   0  0  0  0  0  0  0  0  0  0  0  0
   37.9904   32.4571   48.6074 C   0  0  0  0  0  0  0  0  0  0  0  0
   39.0467   33.0767   47.9710 C   0  0  0  0  0  0  0  0  0  0  0  0
   39.4721   32.6728   46.7759 N   0  0  0  0  0  0  0  0  0  0  0  0
   38.8863   31.6225   46.1137 C   0  0  0  0  0  0  0  0  0  0  0  0
   37.8611   31.0365   46.7538 N   0  0  0  0  0  0  0  0  0  0  0  0
   37.3954   31.3976   47.9458 C   0  0  0  0  0  0  0  0  0  0  0  0
   39.7000   34.1665   48.5922 N   0  0  0  0  0  0  0  0  0  0  0  0
   34.6704   29.9683   47.3926 C   0  0  0  0  0  0  0  0  0  0  0  0
   35.5225   29.8929   48.4958 C   0  0  0  0  0  0  0  0  0  0  0  0
   35.4164   28.7442   49.2726 C   0  0  0  0  0  0  0  0  0  0  0  0
   34.5218   27.7847   48.9344 N   0  0  0  0  0  0  0  0  0  0  0  0
   33.7203   27.8955   47.8647 C   0  0  0  0  0  0  0  0  0  0  0  0
   33.8027   28.9849   47.1059 N   0  0  0  0  0  0  0  0  0  0  0  0
   32.7522   26.8324   47.5122 C   0  0  0  0  0  0  0  0  0  0  0  0
   31.5355   26.9060   48.4310 C   0  0  0  0  0  0  0  0  0  0  0  0
   32.1641   27.1161   46.1164 C   0  0  0  0  0  0  0  0  0  0  0  0
   33.3163   25.4683   47.4469 C   0  0  0  0  0  0  0  0  0  0  0  0
   35.7155   31.6413   50.7223 H   0  0  0  0  0  0  0  0  0  0  0  0
   39.2331   31.2915   45.1367 H   0  0  0  0  0  0  0  0  0  0  0  0
   39.2492   34.6508   49.4017 H   0  0  0  0  0  0  0  0  0  0  0  0
   40.6388   34.5060   48.2566 H   0  0  0  0  0  0  0  0  0  0  0  0
   34.7220   30.8497   46.7604 H   0  0  0  0  0  0  0  0  0  0  0  0
   36.0716   28.6719   50.1319 H   0  0  0  0  0  0  0  0  0  0  0  0
   30.7579   26.2098   48.0814 H   0  0  0  0  0  0  0  0  0  0  0  0
   31.0628   27.9251   48.3100 H   0  0  0  0  0  0  0  0  0  0  0  0
   31.7963   26.8369   49.4951 H   0  0  0  0  0  0  0  0  0  0  0  0
   32.0686   28.2152   46.0550 H   0  0  0  0  0  0  0  0  0  0  0  0
   32.9615   26.8191   45.4064 H   0  0  0  0  0  0  0  0  0  0  0  0
   31.2148   26.5785   46.0015 H   0  0  0  0  0  0  0  0  0  0  0  0
   33.9870   25.3864   46.5406 H   0  0  0  0  0  0  0  0  0  0  0  0
   32.4628   24.7772   47.1797 H   0  0  0  0  0  0  0  0  0  0  0  0
   33.9167   24.9304   48.6142 N   0  0  0  0  0  0  0  0  0  0  0  0
   34.4352   23.6977   48.7647 C   0  0  0  0  0  0  0  0  0  0  0  0
   35.0014   23.2029   49.9209 C   0  0  0  0  0  0  0  0  0  0  0  0
   35.0506   24.0235   51.0293 C   0  0  0  0  0  0  0  0  0  0  0  0
   35.6422   23.4733   52.1987 N   0  0  0  0  0  0  0  0  0  0  0  0
   34.5369   25.2637   50.9040 N   0  0  0  0  0  0  0  0  0  0  0  0
   33.9974   25.6839   49.7420 C   0  0  0  0  0  0  0  0  0  0  0  0
   33.5730   26.8652   49.8219 O   0  0  0  0  0  0  0  0  0  0  0  0
   34.4026   23.0277   47.9168 H   0  0  0  0  0  0  0  0  0  0  0  0
   35.3990   22.1787   49.9427 H   0  0  0  0  0  0  0  0  0  0  0  0
   36.6577   23.2659   51.9937 H   0  0  0  0  0  0  0  0  0  0  0  0
   35.0575   23.3471   53.0541 H   0  0  0  0  0  0  0  0  0  0  0  0
  1  2  1  0
  3  2  2  0
  4  3  1  0
  5 10  1  0
  5  4  2  0
  6  5  1  0
  7  8  1  0
  7  6  2  0
  8  9  2  0
  9  4  1  0
  9  1  1  0
 11 12  2  0
 12  1  1  0
 12 13  1  0
 14 13  2  0
 15 14  1  0
 16 11  1  0
 16 15  2  0
 17 15  1  0
 17 18  1  0
 19 17  1  0
 20 17  1  0
  2 21  1  0
  7 22  1  0
 10 23  1  0
 10 24  1  0
 11 25  1  0
 13 26  1  0
 18 27  1  0
 18 28  1  0
 18 29  1  0
 19 30  1  0
 19 31  1  0
 19 32  1  0
 20 33  1  0
 20 34  1  0
 35 36  1  0
 36 37  2  0
 37 38  1  0
 38 39  1  0
 38 40  2  0
 40 41  1  0
 41 42  2  0
 41 35  1  0
 36 43  1  0
 37 44  1  0
 39 45  1  0
 39 46  1  0
 20 35  1  0
M  ISO  8  21  14  22  14  25  14  26  14  27   8  28   8  29   8  30   8
M  ISO  4  31   8  32   8  33   8  34   8
M  END
>  <DihAtoms>  (1) 
16,19,34,35

>  <DihDeg>  (1) 
-92.71567351620189

$$$$
