
     RDKit          3D

 40 42  0  0  1  0  0  0  0  0999 V2000
   33.8050   29.2970   47.7810 C   0  0  0  0  0  0  0  0  0  0  0  0
   33.6970   30.2610   46.8130 C   0  0  0  0  0  0  0  0  0  0  0  0
   32.5960   30.0840   46.0350 N   0  0  0  0  0  0  0  0  0  0  0  0
   31.9750   28.9990   46.4910 C   0  0  0  0  0  0  0  0  0  0  0  0
   32.7050   28.5190   47.5500 N   0  0  0  0  0  0  0  0  0  0  0  0
   34.6970   28.9570   48.8320 C   0  0  0  0  0  0  0  0  0  0  0  0
   35.1640   29.9760   49.7560 C   0  0  2  0  0  0  0  0  0  0  0  0
   36.4100   30.6830   49.2690 C   0  0  0  0  0  0  0  0  0  0  0  0
   36.7820   31.8480   49.9340 C   0  0  0  0  0  0  0  0  0  0  0  0
   37.9360   32.4820   49.4240 C   0  0  0  0  0  0  0  0  0  0  0  0
   38.5910   31.9470   48.3620 N   0  0  0  0  0  0  0  0  0  0  0  0
   38.1810   30.7860   47.7370 C   0  0  0  0  0  0  0  0  0  0  0  0
   37.0710   30.1540   48.2070 N   0  0  0  0  0  0  0  0  0  0  0  0
   35.5400   29.2560   51.1070 C   0  0  0  0  0  0  0  0  0  0  0  0
   32.2690   27.3190   48.2630 C   0  0  0  0  0  0  0  0  0  0  0  0
   30.9050   27.3950   48.6980 N   0  0  0  0  0  0  0  0  0  0  0  0
   30.4010   28.0450   49.7610 C   0  0  0  0  0  0  0  0  0  0  0  0
   29.0640   28.0520   50.0950 C   0  0  0  0  0  0  0  0  0  0  0  0
   28.1540   27.3650   49.3190 C   0  0  0  0  0  0  0  0  0  0  0  0
   26.7700   27.3590   49.6460 N   0  0  0  0  0  0  0  0  0  0  0  0
   28.6330   26.7060   48.2480 N   0  0  0  0  0  0  0  0  0  0  0  0
   29.9680   26.7280   47.9580 C   0  0  0  0  0  0  0  0  0  0  0  0
   30.2040   26.0540   46.9240 O   0  0  0  0  0  0  0  0  0  0  0  0
   34.4169   31.0821   46.6808 H   0  0  0  0  0  0  0  0  0  0  0  0
   31.0460   28.5656   46.0921 H   0  0  0  0  0  0  0  0  0  0  0  0
   34.1940   28.1883   49.4371 H   0  0  0  0  0  0  0  0  0  0  0  0
   35.6133   28.6666   48.2972 H   0  0  0  0  0  0  0  0  0  0  0  0
   34.3637   30.7228   49.8650 H   0  0  0  0  0  0  0  0  0  0  0  0
   36.2194   32.2447   50.7920 H   0  0  0  0  0  0  0  0  0  0  0  0
   38.3043   33.4093   49.8871 H   0  0  0  0  0  0  0  0  0  0  0  0
   38.7384   30.3814   46.8794 H   0  0  0  0  0  0  0  0  0  0  0  0
   35.2160   29.8764   51.9556 H   0  0  0  0  0  0  0  0  0  0  0  0
   35.0371   28.2788   51.1541 H   0  0  0  0  0  0  0  0  0  0  0  0
   36.6293   29.1104   51.1541 H   0  0  0  0  0  0  0  0  0  0  0  0
   32.3762   26.4536   47.5925 H   0  0  0  0  0  0  0  0  0  0  0  0
   32.8974   27.2208   49.1604 H   0  0  0  0  0  0  0  0  0  0  0  0
   31.0973   28.6048   50.4027 H   0  0  0  0  0  0  0  0  0  0  0  0
   28.7222   28.6062   50.9816 H   0  0  0  0  0  0  0  0  0  0  0  0
   26.1036   26.8408   49.0558 H   0  0  0  0  0  0  0  0  0  0  0  0
   26.4340   27.8728   50.4730 H   0  0  0  0  0  0  0  0  0  0  0  0
  1  6  1  0
  2  1  2  0
  3  4  2  0
  3  2  1  0
  4  5  1  0
  5  1  1  0
  5 15  1  0
  6  7  1  0
  7 14  1  0
  8  7  1  0
  8  9  2  0
 10  9  1  0
 11 10  2  0
 12 13  2  0
 12 11  1  0
 13  8  1  0
 15 16  1  0
 16 17  1  0
 17 18  2  0
 19 20  1  0
 19 18  1  0
 21 19  2  0
 22 21  1  0
 22 16  1  0
 23 22  2  0
  2 24  1  0
  4 25  1  0
  6 26  1  0
  6 27  1  0
  7 28  1  1
  9 29  1  0
 10 30  1  0
 12 31  1  0
 14 32  1  0
 14 33  1  0
 14 34  1  0
 15 35  1  0
 15 36  1  0
 17 37  1  0
 18 38  1  0
 20 39  1  0
 20 40  1  0
M  ISO  8  24  14  25  14  26   8  27   8  28   8  29  14  30  14  31  14
M  ISO  7  32   8  33   8  34   8  35   8  36   8  37  14  38  14
M  END
>  <minimizedAffinity>  (1) 
-5.92717028

>  <minimizedRMSD>  (1) 
2.5529418

$$$$
