
     RDKit          3D

 42 44  0  0  0  0  0  0  0  0999 V2000
   37.3440   30.7080   50.1990 C   0  0  0  0  0  0  0  0  0  0  0  0
   36.0850   28.6450   49.7920 C   0  0  0  0  0  0  0  0  0  0  0  0
   36.1470   30.0390   49.8950 C   0  0  0  0  0  0  0  0  0  0  0  0
   34.9740   30.6960   49.7000 C   0  0  0  0  0  0  0  0  0  0  0  0
   33.8040   30.0410   49.4190 N   0  0  0  0  0  0  0  0  0  0  0  0
   33.7910   28.7060   49.3280 C   0  0  0  0  0  0  0  0  0  0  0  0
   34.9110   28.0550   49.5140 N   0  0  0  0  0  0  0  0  0  0  0  0
   32.5540   27.9770   49.0320 C   0  0  0  0  0  0  0  0  0  0  0  0
   32.5160   27.0900   48.1560 O   0  0  0  0  0  0  0  0  0  0  0  0
   31.3820   28.2450   49.7100 O   0  0  0  0  0  0  0  0  0  0  0  0
   30.1560   27.7880   49.2740 C   0  0  0  0  0  0  0  0  0  0  0  0
   29.2980   27.2510   50.2270 C   0  0  0  0  0  0  0  0  0  0  0  0
   28.0450   26.7610   49.9120 C   0  0  0  0  0  0  0  0  0  0  0  0
   27.6020   26.7950   48.6020 C   0  0  0  0  0  0  0  0  0  0  0  0
   28.4810   27.3370   47.6720 C   0  0  0  0  0  0  0  0  0  0  0  0
   29.6820   27.8020   47.9940 N   0  0  0  0  0  0  0  0  0  0  0  0
   37.4960   32.0070   49.5210 C   0  0  0  0  0  0  0  0  0  0  0  0
   38.1600   31.7800   48.2240 C   0  0  0  0  0  0  0  0  0  0  0  0
   38.0160   30.6140   47.5670 C   0  0  0  0  0  0  0  0  0  0  0  0
   38.6320   30.3830   46.3460 C   0  0  0  0  0  0  0  0  0  0  0  0
   39.3960   31.4030   45.8410 N   0  0  0  0  0  0  0  0  0  0  0  0
   39.5350   32.5510   46.4920 C   0  0  0  0  0  0  0  0  0  0  0  0
   38.9350   32.7550   47.6650 N   0  0  0  0  0  0  0  0  0  0  0  0
   40.3840   33.6410   45.9300 C   0  0  0  0  0  0  0  0  0  0  0  0
   40.0970   33.8280   44.4470 C   0  0  0  0  0  0  0  0  0  0  0  0
   37.3778   30.8792   51.2851 H   0  0  0  0  0  0  0  0  0  0  0  0
   38.1645   30.0671   49.8441 H   0  0  0  0  0  0  0  0  0  0  0  0
   36.9903   28.0374   49.9375 H   0  0  0  0  0  0  0  0  0  0  0  0
   34.9633   31.7937   49.7703 H   0  0  0  0  0  0  0  0  0  0  0  0
   29.6303   27.2147   51.2750 H   0  0  0  0  0  0  0  0  0  0  0  0
   27.4014   26.3449   50.7010 H   0  0  0  0  0  0  0  0  0  0  0  0
   26.6110   26.4149   48.3130 H   0  0  0  0  0  0  0  0  0  0  0  0
   28.1666   27.3829   46.6189 H   0  0  0  0  0  0  0  0  0  0  0  0
   36.5065   32.4589   49.3578 H   0  0  0  0  0  0  0  0  0  0  0  0
   38.0983   32.6883   50.1399 H   0  0  0  0  0  0  0  0  0  0  0  0
   37.3931   29.8232   48.0104 H   0  0  0  0  0  0  0  0  0  0  0  0
   38.5135   29.4297   45.8101 H   0  0  0  0  0  0  0  0  0  0  0  0
   40.1677   34.5793   46.4619 H   0  0  0  0  0  0  0  0  0  0  0  0
   41.4424   33.3692   46.0565 H   0  0  0  0  0  0  0  0  0  0  0  0
   39.1812   34.4247   44.3231 H   0  0  0  0  0  0  0  0  0  0  0  0
   40.9415   34.3497   43.9730 H   0  0  0  0  0  0  0  0  0  0  0  0
   39.9609   32.8447   43.9730 H   0  0  0  0  0  0  0  0  0  0  0  0
  2  3  2  0
  3  1  1  0
  4  3  1  0
  5  4  2  0
  6  5  1  0
  6  7  2  0
  7  2  1  0
  8  6  1  0
  8 10  1  0
  9  8  2  0
 11 10  1  0
 11 12  2  0
 13 12  1  0
 14 13  2  0
 15 16  2  0
 15 14  1  0
 16 11  1  0
 17  1  1  0
 18 17  1  0
 19 18  2  0
 20 19  1  0
 21 20  2  0
 21 22  1  0
 22 23  2  0
 23 18  1  0
 24 22  1  0
 25 24  1  0
  1 26  1  0
  1 27  1  0
  2 28  1  0
  4 29  1  0
 12 30  1  0
 13 31  1  0
 14 32  1  0
 15 33  1  0
 17 34  1  0
 17 35  1  0
 19 36  1  0
 20 37  1  0
 24 38  1  0
 24 39  1  0
 25 40  1  0
 25 41  1  0
 25 42  1  0
M  ISO  8  26   8  27   8  28  14  29  14  30  14  31  14  32  14  33  14
M  ISO  8  34   8  35   8  36  14  37  14  38   8  39   8  40   8  41   8
M  ISO  1  42   8
M  END
>  <minimizedAffinity>  (1) 
-5.66725588

>  <minimizedRMSD>  (1) 
0.851891816

$$$$
