
     RDKit          3D

 40 43  0  0  0  0  0  0  0  0999 V2000
   32.3890   28.3160   47.5070 C   0  0  0  0  0  0  0  0  0  0  0  0
   32.9890   29.3240   46.7930 C   0  0  0  0  0  0  0  0  0  0  0  0
   34.1330   29.8860   47.3170 C   0  0  0  0  0  0  0  0  0  0  0  0
   34.7300   29.5270   48.4960 C   0  0  0  0  0  0  0  0  0  0  0  0
   34.0740   28.5060   49.1680 C   0  0  0  0  0  0  0  0  0  0  0  0
   32.9230   27.8930   48.7060 C   0  0  0  0  0  0  0  0  0  0  0  0
   37.3340   30.5330   50.8210 C   0  0  0  0  0  0  0  0  0  0  0  0
   38.2200   31.2660   49.9910 C   0  0  0  0  0  0  0  0  0  0  0  0
   37.8940   31.4000   48.6280 C   0  0  0  0  0  0  0  0  0  0  0  0
   36.7470   30.8230   48.1670 N   0  0  0  0  0  0  0  0  0  0  0  0
   35.9300   30.1280   49.0110 C   0  0  0  0  0  0  0  0  0  0  0  0
   36.2220   29.9890   50.3070 N   0  0  0  0  0  0  0  0  0  0  0  0
   38.7540   32.1480   47.6680 C   0  0  0  0  0  0  0  0  0  0  0  0
   38.0640   32.6670   46.6110 F   0  0  0  0  0  0  0  0  0  0  0  0
   39.3670   33.2290   48.3060 F   0  0  0  0  0  0  0  0  0  0  0  0
   39.7080   31.2860   47.1400 F   0  0  0  0  0  0  0  0  0  0  0  0
   30.9220   27.5340   46.9810 S   0  0  0  0  0  0  0  0  0  0  0  0
   30.9360   26.1110   47.4060 O   0  0  0  0  0  0  0  0  0  0  0  0
   30.8600   27.5830   45.4620 O   0  0  0  0  0  0  0  0  0  0  0  0
   29.5080   28.3080   47.6430 C   0  0  0  0  0  0  0  0  0  0  0  0
   28.8920   29.2390   46.8540 N   0  0  0  0  0  0  0  0  0  0  0  0
   27.8010   29.9120   47.2160 C   0  0  0  0  0  0  0  0  0  0  0  0
   27.1930   29.7360   48.4140 N   0  0  0  0  0  0  0  0  0  0  0  0
   27.7580   28.8340   49.2250 C   0  0  0  0  0  0  0  0  0  0  0  0
   27.2450   28.5300   50.4910 C   0  0  0  0  0  0  0  0  0  0  0  0
   27.8100   27.5930   51.3400 C   0  0  0  0  0  0  0  0  0  0  0  0
   28.9490   26.9210   50.9040 C   0  0  0  0  0  0  0  0  0  0  0  0
   29.4610   27.2090   49.6670 C   0  0  0  0  0  0  0  0  0  0  0  0
   28.8810   28.1430   48.8470 C   0  0  0  0  0  0  0  0  0  0  0  0
   32.5711   29.6707   45.8363 H   0  0  0  0  0  0  0  0  0  0  0  0
   34.6074   30.6923   46.7384 H   0  0  0  0  0  0  0  0  0  0  0  0
   34.4940   28.1634   50.1252 H   0  0  0  0  0  0  0  0  0  0  0  0
   32.4449   27.0868   49.2818 H   0  0  0  0  0  0  0  0  0  0  0  0
   37.5602   30.4104   51.8905 H   0  0  0  0  0  0  0  0  0  0  0  0
   39.1359   31.7170   50.4005 H   0  0  0  0  0  0  0  0  0  0  0  0
   27.3753   30.6422   46.5120 H   0  0  0  0  0  0  0  0  0  0  0  0
   26.3449   29.0638   50.8299 H   0  0  0  0  0  0  0  0  0  0  0  0
   27.3727   27.3861   52.3279 H   0  0  0  0  0  0  0  0  0  0  0  0
   29.4313   26.1684   51.5451 H   0  0  0  0  0  0  0  0  0  0  0  0
   30.3604   26.6777   49.3222 H   0  0  0  0  0  0  0  0  0  0  0  0
  1  6  2  0
  2  3  2  0
  2  1  1  0
  3  4  1  0
  4 11  1  0
  4  5  2  0
  6  5  1  0
  8  7  2  0
  9  8  1  0
 10  9  2  0
 10 11  1  0
 11 12  2  0
 12  7  1  0
 13 15  1  0
 13  9  1  0
 14 13  1  0
 16 13  1  0
 17 18  2  0
 17  1  1  0
 17 20  1  0
 19 17  2  0
 20 29  2  0
 21 22  2  0
 21 20  1  0
 22 23  1  0
 23 24  2  0
 24 25  1  0
 25 26  2  0
 27 26  1  0
 28 27  2  0
 29 24  1  0
 29 28  1  0
  2 30  1  0
  3 31  1  0
  5 32  1  0
  6 33  1  0
  7 34  1  0
  8 35  1  0
 22 36  1  0
 25 37  1  0
 26 38  1  0
 27 39  1  0
 28 40  1  0
M  END
>  <minimizedAffinity>  (1) 
-8.24184322

>  <minimizedRMSD>  (1) 
4.0316329

$$$$
