
     RDKit          3D

 32 34  0  0  0  0  0  0  0  0999 V2000
   36.4370   30.2710   47.2520 N   0  0  0  0  0  0  0  0  0  0  0  0
   35.1720   30.0600   46.8090 C   0  0  0  0  0  0  0  0  0  0  0  0
   34.8670   30.1170   45.4630 C   0  0  0  0  0  0  0  0  0  0  0  0
   35.9300   30.3960   44.6500 C   0  0  0  0  0  0  0  0  0  0  0  0
   35.6890   30.4570   43.3980 O   0  0  0  0  0  0  0  0  0  0  0  0
   37.2060   30.6140   45.0240 N   0  0  0  0  0  0  0  0  0  0  0  0
   37.4060   30.5360   46.3670 C   0  0  0  0  0  0  0  0  0  0  0  0
   38.5610   30.7240   46.7900 O   0  0  0  0  0  0  0  0  0  0  0  0
   36.9250   31.4550   49.2250 C   0  0  0  0  0  0  0  0  0  0  0  0
   36.6610   30.1990   48.6240 C   0  0  0  0  0  0  0  0  0  0  0  0
   36.6700   29.0830   49.4360 C   0  0  0  0  0  0  0  0  0  0  0  0
   36.9290   29.2350   50.7640 N   0  0  0  0  0  0  0  0  0  0  0  0
   37.1790   30.4470   51.3150 C   0  0  0  0  0  0  0  0  0  0  0  0
   37.1740   31.5650   50.5240 N   0  0  0  0  0  0  0  0  0  0  0  0
   38.2010   30.8970   44.0860 C   0  0  0  0  0  0  0  0  0  0  0  0
   38.5710   32.1470   43.6190 C   0  0  0  0  0  0  0  0  0  0  0  0
   39.5590   32.3410   42.6980 C   0  0  0  0  0  0  0  0  0  0  0  0
   40.2370   31.2480   42.1930 C   0  0  0  0  0  0  0  0  0  0  0  0
   39.8540   30.0050   42.6720 C   0  0  0  0  0  0  0  0  0  0  0  0
   38.8680   29.8280   43.5890 N   0  0  0  0  0  0  0  0  0  0  0  0
   40.5590   28.7880   42.1540 C   0  0  0  0  0  0  0  0  0  0  0  0
   41.9280   28.9620   42.3070 F   0  0  0  0  0  0  0  0  0  0  0  0
   40.2640   28.6200   40.8210 F   0  0  0  0  0  0  0  0  0  0  0  0
   40.1290   27.6550   42.8080 F   0  0  0  0  0  0  0  0  0  0  0  0
   34.3752   29.8396   47.5346 H   0  0  0  0  0  0  0  0  0  0  0  0
   33.8506   29.9512   45.0764 H   0  0  0  0  0  0  0  0  0  0  0  0
   36.9235   32.3602   48.6000 H   0  0  0  0  0  0  0  0  0  0  0  0
   36.4709   28.0858   49.0166 H   0  0  0  0  0  0  0  0  0  0  0  0
   37.3849   30.5328   52.3921 H   0  0  0  0  0  0  0  0  0  0  0  0
   38.0416   33.0283   44.0103 H   0  0  0  0  0  0  0  0  0  0  0  0
   39.8131   33.3569   42.3611 H   0  0  0  0  0  0  0  0  0  0  0  0
   41.0396   31.3587   41.4490 H   0  0  0  0  0  0  0  0  0  0  0  0
  1 10  1  0
  2  1  1  0
  3  2  2  0
  4  6  1  0
  4  3  1  0
  5  4  2  0
  6  7  1  0
  7  8  2  0
  7  1  1  0
  9 14  2  0
 10  9  1  0
 10 11  2  0
 11 12  1  0
 12 13  2  0
 14 13  1  0
 15  6  1  0
 16 15  2  0
 17 16  1  0
 18 19  1  0
 18 17  2  0
 19 20  2  0
 20 15  1  0
 21 22  1  0
 21 19  1  0
 21 24  1  0
 23 21  1  0
  2 25  1  0
  3 26  1  0
  9 27  1  0
 11 28  1  0
 13 29  1  0
 16 30  1  0
 17 31  1  0
 18 32  1  0
M  ISO  8  25  14  26  14  27  14  28  14  29  14  30  14  31  14  32  14
M  END
>  <minimizedAffinity>  (1) 
-5.41539669

>  <minimizedRMSD>  (1) 
0.72292757

$$$$
