
     RDKit          3D

 23 24  0  0  0  0  0  0  0  0999 V2000
   36.8050   30.9320   47.6850 C   0  0  0  0  0  0  0  0  0  0  0  0
   36.5980   29.3870   51.1310 C   0  0  0  0  0  0  0  0  0  0  0  0
   37.1810   29.9700   49.9830 C   0  0  0  0  0  0  0  0  0  0  0  0
   36.3460   30.3320   48.9430 C   0  0  0  0  0  0  0  0  0  0  0  0
   34.9990   30.1080   49.0780 N   0  0  0  0  0  0  0  0  0  0  0  0
   34.4670   29.5560   50.1690 C   0  0  0  0  0  0  0  0  0  0  0  0
   35.2520   29.1960   51.1900 N   0  0  0  0  0  0  0  0  0  0  0  0
   38.3000   30.9730   47.5590 C   0  0  0  0  0  0  0  0  0  0  0  0
   38.8570   32.2550   47.8800 N   0  0  0  0  0  0  0  0  0  0  0  0
   38.7810   33.0670   48.9260 C   0  0  0  0  0  0  0  0  0  0  0  0
   39.4980   34.2320   48.7800 C   0  0  0  0  0  0  0  0  0  0  0  0
   40.0640   34.1350   47.5470 N   0  0  0  0  0  0  0  0  0  0  0  0
   39.6680   32.9500   47.0320 C   0  0  0  0  0  0  0  0  0  0  0  0
   36.3999   30.3432   46.8488 H   0  0  0  0  0  0  0  0  0  0  0  0
   36.4476   31.9722   47.6700 H   0  0  0  0  0  0  0  0  0  0  0  0
   37.2330   29.0873   51.9777 H   0  0  0  0  0  0  0  0  0  0  0  0
   38.2673   30.1308   49.9192 H   0  0  0  0  0  0  0  0  0  0  0  0
   33.3803   29.3964   50.2293 H   0  0  0  0  0  0  0  0  0  0  0  0
   38.7294   30.2242   48.2408 H   0  0  0  0  0  0  0  0  0  0  0  0
   38.5463   30.7624   46.5078 H   0  0  0  0  0  0  0  0  0  0  0  0
   38.1977   32.8304   49.8281 H   0  0  0  0  0  0  0  0  0  0  0  0
   39.5925   35.0581   49.5002 H   0  0  0  0  0  0  0  0  0  0  0  0
   39.9670   32.5860   46.0380 H   0  0  0  0  0  0  0  0  0  0  0  0
  1  4  1  0
  2  7  2  0
  3  2  1  0
  4  5  1  0
  4  3  2  0
  5  6  2  0
  6  7  1  0
  8  1  1  0
  8  9  1  0
  9 10  1  0
 11 10  2  0
 12 11  1  0
 13 12  2  0
 13  9  1  0
  1 14  1  0
  1 15  1  0
  2 16  1  0
  3 17  1  0
  6 18  1  0
  8 19  1  0
  8 20  1  0
 10 21  1  0
 11 22  1  0
 13 23  1  0
M  ISO  8  14   8  15   8  16  14  17  14  18  14  19   8  20   8  21  14
M  ISO  2  22  14  23  14
M  END
>  <minimizedAffinity>  (1) 
-3.91227198

>  <minimizedRMSD>  (1) 
2.1255877

$$$$
