
     RDKit          3D

 26 28  0  0  0  0  0  0  0  0999 V2000
   38.0360   31.8870   46.4760 N   0  0  0  0  0  0  0  0  0  0  0  0
   39.2210   32.5210   46.6540 C   0  0  0  0  0  0  0  0  0  0  0  0
   39.6500   32.9920   45.4600 N   0  0  0  0  0  0  0  0  0  0  0  0
   38.7260   32.6450   44.5530 C   0  0  0  0  0  0  0  0  0  0  0  0
   38.5970   32.8320   43.1930 C   0  0  0  0  0  0  0  0  0  0  0  0
   37.5310   32.3610   42.5140 N   0  0  0  0  0  0  0  0  0  0  0  0
   36.5390   31.6840   43.1280 C   0  0  0  0  0  0  0  0  0  0  0  0
   36.6760   31.5070   44.4550 N   0  0  0  0  0  0  0  0  0  0  0  0
   37.7060   31.9500   45.1750 C   0  0  0  0  0  0  0  0  0  0  0  0
   39.6010   33.5350   42.4840 N   0  0  0  0  0  0  0  0  0  0  0  0
   36.2670   30.3760   47.1670 C   0  0  0  0  0  0  0  0  0  0  0  0
   37.3010   31.2720   47.5230 C   0  0  0  0  0  0  0  0  0  0  0  0
   37.5100   31.4780   48.8810 C   0  0  0  0  0  0  0  0  0  0  0  0
   36.7250   30.8180   49.7740 N   0  0  0  0  0  0  0  0  0  0  0  0
   35.7550   29.9750   49.4090 C   0  0  0  0  0  0  0  0  0  0  0  0
   35.5240   29.7520   48.0950 N   0  0  0  0  0  0  0  0  0  0  0  0
   34.9600   29.3100   50.4780 C   0  0  0  0  0  0  0  0  0  0  0  0
   33.7260   29.9160   50.6720 F   0  0  0  0  0  0  0  0  0  0  0  0
   35.6190   29.2220   51.6760 F   0  0  0  0  0  0  0  0  0  0  0  0
   34.6530   27.9950   50.1170 F   0  0  0  0  0  0  0  0  0  0  0  0
   39.7480   32.6342   47.6129 H   0  0  0  0  0  0  0  0  0  0  0  0
   35.6688   31.2990   42.5762 H   0  0  0  0  0  0  0  0  0  0  0  0
   39.5099   33.6777   41.4680 H   0  0  0  0  0  0  0  0  0  0  0  0
   40.4224   33.9037   42.9842 H   0  0  0  0  0  0  0  0  0  0  0  0
   36.0661   30.1852   46.1025 H   0  0  0  0  0  0  0  0  0  0  0  0
   38.2972   32.1635   49.2280 H   0  0  0  0  0  0  0  0  0  0  0  0
  1  2  1  0
  1 12  1  0
  3  2  2  0
  4  9  2  0
  4  3  1  0
  5  4  1  0
  6  7  1  0
  6  5  2  0
  7  8  2  0
  8  9  1  0
  9  1  1  0
 10  5  1  0
 11 12  2  0
 11 16  1  0
 12 13  1  0
 13 14  2  0
 15 14  1  0
 15 17  1  0
 16 15  2  0
 17 18  1  0
 17 19  1  0
 20 17  1  0
  2 21  1  0
  7 22  1  0
 10 23  1  0
 10 24  1  0
 11 25  1  0
 13 26  1  0
M  ISO  4  21  14  22  14  25  14  26  14
M  END
>  <minimizedAffinity>  (1) 
-5.56035137

>  <minimizedRMSD>  (1) 
2.70884967

$$$$
