
     RDKit          3D

 25 26  0  0  1  0  0  0  0  0999 V2000
   36.0650   30.0850   48.7760 N   0  0  0  0  0  0  0  0  0  0  0  0
   37.3830   30.2770   48.1910 C   0  0  0  0  0  0  0  0  0  0  0  0
   37.6410   31.7340   48.4700 C   0  0  0  0  0  0  0  0  0  0  0  0
   37.2210   31.8280   49.9170 C   0  0  0  0  0  0  0  0  0  0  0  0
   36.2640   30.6830   50.0640 C   0  0  2  0  0  0  0  0  0  0  0  0
   34.9310   29.4640   48.1760 C   0  0  0  0  0  0  0  0  0  0  0  0
   34.1740   30.1080   47.1780 C   0  0  0  0  0  0  0  0  0  0  0  0
   33.0770   29.4180   46.6470 C   0  0  0  0  0  0  0  0  0  0  0  0
   32.8030   28.1700   47.1210 N   0  0  0  0  0  0  0  0  0  0  0  0
   33.5490   27.5740   48.0800 C   0  0  0  0  0  0  0  0  0  0  0  0
   34.6160   28.2450   48.5970 N   0  0  0  0  0  0  0  0  0  0  0  0
   36.7550   29.7350   51.1230 C   0  0  0  0  0  0  0  0  0  0  0  0
   37.4550   28.6800   50.5790 F   0  0  0  0  0  0  0  0  0  0  0  0
   35.6410   29.2010   51.7340 F   0  0  0  0  0  0  0  0  0  0  0  0
   37.5340   30.3380   52.0780 F   0  0  0  0  0  0  0  0  0  0  0  0
   37.3740   30.0726   47.1102 H   0  0  0  0  0  0  0  0  0  0  0  0
   38.1516   29.6046   48.5998 H   0  0  0  0  0  0  0  0  0  0  0  0
   38.7033   31.9884   48.3402 H   0  0  0  0  0  0  0  0  0  0  0  0
   37.1116   32.4254   47.7980 H   0  0  0  0  0  0  0  0  0  0  0  0
   38.0846   31.7104   50.5880 H   0  0  0  0  0  0  0  0  0  0  0  0
   36.7778   32.8003   50.1781 H   0  0  0  0  0  0  0  0  0  0  0  0
   35.2774   31.0221   50.4128 H   0  0  0  0  0  0  0  0  0  0  0  0
   34.4352   31.1175   46.8279 H   0  0  0  0  0  0  0  0  0  0  0  0
   32.4509   29.8729   45.8653 H   0  0  0  0  0  0  0  0  0  0  0  0
   33.2979   26.5641   48.4363 H   0  0  0  0  0  0  0  0  0  0  0  0
  1  5  1  0
  2  3  1  0
  2  1  1  0
  3  4  1  0
  4  5  1  0
  5 12  1  0
  6 11  1  0
  6  1  1  0
  7  6  2  0
  8  9  2  0
  8  7  1  0
  9 10  1  0
 10 11  2  0
 12 14  1  0
 12 15  1  0
 13 12  1  0
  2 16  1  0
  2 17  1  0
  3 18  1  0
  3 19  1  0
  4 20  1  0
  4 21  1  0
  5 22  1  1
  7 23  1  0
  8 24  1  0
 10 25  1  0
M  ISO  8  16  13  17  13  18  13  19  13  20  13  21  13  22  13  23  14
M  ISO  2  24  14  25  14
M  END
>  <minimizedAffinity>  (1) 
-5.30829

>  <minimizedRMSD>  (1) 
1.66439676

$$$$
