
     RDKit          3D

 35 37  0  0  0  0  0  0  0  0999 V2000
   33.9790   28.8200   48.3440 C   0  0  0  0  0  0  0  0  0  0  0  0
   34.0840   28.8170   49.7460 C   0  0  0  0  0  0  0  0  0  0  0  0
   35.0710   29.4550   50.4330 C   0  0  0  0  0  0  0  0  0  0  0  0
   36.0420   30.1560   49.7550 C   0  0  0  0  0  0  0  0  0  0  0  0
   35.9930   30.1950   48.3980 C   0  0  0  0  0  0  0  0  0  0  0  0
   36.9870   30.9040   47.7540 C   0  0  0  0  0  0  0  0  0  0  0  0
   37.0040   30.9850   46.3940 C   0  0  0  0  0  0  0  0  0  0  0  0
   36.0000   30.3350   45.6940 C   0  0  0  0  0  0  0  0  0  0  0  0
   35.0400   29.6460   46.3880 C   0  0  0  0  0  0  0  0  0  0  0  0
   34.9820   29.5390   47.7360 C   0  0  0  0  0  0  0  0  0  0  0  0
   32.2540   25.9790   46.9770 C   0  0  0  0  0  0  0  0  0  0  0  0
   31.1020   26.4330   46.3620 C   0  0  0  0  0  0  0  0  0  0  0  0
   30.8970   27.7950   46.4140 C   0  0  0  0  0  0  0  0  0  0  0  0
   31.8030   28.5540   47.0390 N   0  0  0  0  0  0  0  0  0  0  0  0
   32.9140   28.1330   47.6340 C   0  0  0  0  0  0  0  0  0  0  0  0
   33.0810   26.8290   47.5670 N   0  0  0  0  0  0  0  0  0  0  0  0
   37.0680   30.8190   50.6020 C   0  0  0  0  0  0  0  0  0  0  0  0
   38.4020   30.7770   49.8450 C   0  0  0  0  0  0  0  0  0  0  0  0
   37.3160   29.9970   51.8770 C   0  0  0  0  0  0  0  0  0  0  0  0
   33.3245   28.2672   50.3212 H   0  0  0  0  0  0  0  0  0  0  0  0
   35.0924   29.4101   51.5319 H   0  0  0  0  0  0  0  0  0  0  0  0
   37.7695   31.4062   48.3418 H   0  0  0  0  0  0  0  0  0  0  0  0
   37.7893   31.5482   45.8686 H   0  0  0  0  0  0  0  0  0  0  0  0
   35.9740   30.3717   44.5949 H   0  0  0  0  0  0  0  0  0  0  0  0
   34.2561   29.1410   45.8045 H   0  0  0  0  0  0  0  0  0  0  0  0
   32.4856   24.9036   46.9763 H   0  0  0  0  0  0  0  0  0  0  0  0
   30.3958   25.7523   45.8641 H   0  0  0  0  0  0  0  0  0  0  0  0
   30.0075   28.2476   45.9514 H   0  0  0  0  0  0  0  0  0  0  0  0
   36.7242   31.8369   50.8380 H   0  0  0  0  0  0  0  0  0  0  0  0
   39.2322   30.7509   50.5662 H   0  0  0  0  0  0  0  0  0  0  0  0
   38.4368   29.8773   49.2131 H   0  0  0  0  0  0  0  0  0  0  0  0
   38.4933   31.6727   49.2131 H   0  0  0  0  0  0  0  0  0  0  0  0
   37.1267   30.6245   52.7604 H   0  0  0  0  0  0  0  0  0  0  0  0
   36.6395   29.1297   51.8915 H   0  0  0  0  0  0  0  0  0  0  0  0
   38.3593   29.6486   51.8915 H   0  0  0  0  0  0  0  0  0  0  0  0
  1  2  2  0
  2  3  1  0
  4  3  2  0
  4 17  1  0
  5  4  1  0
  6  5  2  0
  7  6  1  0
  8  9  1  0
  8  7  2  0
  9 10  2  0
 10  1  1  0
 10  5  1  0
 11 16  2  0
 12 13  2  0
 12 11  1  0
 13 14  1  0
 14 15  2  0
 15  1  1  0
 16 15  1  0
 17 19  1  0
 18 17  1  0
  2 20  1  0
  3 21  1  0
  6 22  1  0
  7 23  1  0
  8 24  1  0
  9 25  1  0
 11 26  1  0
 12 27  1  0
 13 28  1  0
 17 29  1  0
 18 30  1  0
 18 31  1  0
 18 32  1  0
 19 33  1  0
 19 34  1  0
 19 35  1  0
M  ISO  8  20  14  21  14  22  14  23  14  24  14  25  14  26  14  27  14
M  ISO  8  28  14  29   8  30   8  31   8  32   8  33   8  34   8  35   8
M  END
>  <minimizedAffinity>  (1) 
-6.14448214

>  <minimizedRMSD>  (1) 
2.17790484

$$$$
