
     RDKit          3D

 48 51  0  0  0  0  0  0  0  0999 V2000
   36.4131   30.9626   48.7506 N   0  0  0  0  0  0  0  0  0  0  0  0
   36.3860   31.7341   49.8706 C   0  0  0  0  0  0  0  0  0  0  0  0
   37.3679   32.6622   49.7714 N   0  0  0  0  0  0  0  0  0  0  0  0
   37.9865   32.4586   48.6040 C   0  0  0  0  0  0  0  0  0  0  0  0
   39.0420   33.0779   47.9671 C   0  0  0  0  0  0  0  0  0  0  0  0
   39.4772   32.6695   46.7742 N   0  0  0  0  0  0  0  0  0  0  0  0
   38.9003   31.6163   46.1203 C   0  0  0  0  0  0  0  0  0  0  0  0
   37.8709   31.0220   46.7551 N   0  0  0  0  0  0  0  0  0  0  0  0
   37.4024   31.3965   47.9479 C   0  0  0  0  0  0  0  0  0  0  0  0
   39.6817   34.1765   48.5949 N   0  0  0  0  0  0  0  0  0  0  0  0
   34.6599   29.9774   47.4050 C   0  0  0  0  0  0  0  0  0  0  0  0
   35.5260   29.8850   48.5048 C   0  0  0  0  0  0  0  0  0  0  0  0
   35.4311   28.7313   49.2590 C   0  0  0  0  0  0  0  0  0  0  0  0
   34.5441   27.7701   48.9262 N   0  0  0  0  0  0  0  0  0  0  0  0
   33.7246   27.8928   47.8592 C   0  0  0  0  0  0  0  0  0  0  0  0
   33.7923   28.9922   47.1133 N   0  0  0  0  0  0  0  0  0  0  0  0
   32.7369   26.8390   47.4753 C   0  0  0  0  0  0  0  0  0  0  0  0
   31.5419   26.9146   48.4439 C   0  0  0  0  0  0  0  0  0  0  0  0
   32.1529   27.1291   46.1133 C   0  0  0  0  0  0  0  0  0  0  0  0
   33.3231   25.4724   47.4738 C   0  0  0  0  0  0  0  0  0  0  0  0
   35.7246   31.6739   50.7294 H   0  0  0  0  0  0  0  0  0  0  0  0
   39.2584   31.2849   45.1452 H   0  0  0  0  0  0  0  0  0  0  0  0
   39.4354   34.5037   49.5541 H   0  0  0  0  0  0  0  0  0  0  0  0
   40.4386   34.7146   48.1184 H   0  0  0  0  0  0  0  0  0  0  0  0
   34.6412   30.8344   46.7386 H   0  0  0  0  0  0  0  0  0  0  0  0
   36.0913   28.6421   50.1114 H   0  0  0  0  0  0  0  0  0  0  0  0
   31.1855   27.9506   48.5334 H   0  0  0  0  0  0  0  0  0  0  0  0
   31.8633   26.6038   49.4655 H   0  0  0  0  0  0  0  0  0  0  0  0
   30.7100   26.3077   48.0882 H   0  0  0  0  0  0  0  0  0  0  0  0
   31.7562   28.1826   46.0909 H   0  0  0  0  0  0  0  0  0  0  0  0
   31.3116   26.4553   45.9151 H   0  0  0  0  0  0  0  0  0  0  0  0
   32.8967   27.0945   45.2903 H   0  0  0  0  0  0  0  0  0  0  0  0
   34.2418   25.4072   46.8382 H   0  0  0  0  0  0  0  0  0  0  0  0
   33.6963   25.2534   48.5125 H   0  0  0  0  0  0  0  0  0  0  0  0
   32.4001   24.4209   47.1075 N   0  0  0  0  0  0  0  0  0  0  0  0
   31.0778   24.7465   47.0760 C   0  0  0  0  0  0  0  0  0  0  0  0
   30.0672   23.8716   46.7403 C   0  0  0  0  0  0  0  0  0  0  0  0
   28.6425   24.3137   46.7316 C   0  0  0  0  0  0  0  0  0  0  0  0
   30.4021   22.5803   46.4129 C   0  0  0  0  0  0  0  0  0  0  0  0
   29.4993   21.7595   46.1020 O   0  0  0  0  0  0  0  0  0  0  0  0
   31.7020   22.2864   46.4514 N   0  0  0  0  0  0  0  0  0  0  0  0
   32.6758   23.1462   46.7797 C   0  0  0  0  0  0  0  0  0  0  0  0
   33.8675   22.8153   46.7992 O   0  0  0  0  0  0  0  0  0  0  0  0
   30.7609   25.7556   47.3267 H   0  0  0  0  0  0  0  0  0  0  0  0
   28.1441   24.0148   47.6880 H   0  0  0  0  0  0  0  0  0  0  0  0
   28.5554   25.4126   46.6193 H   0  0  0  0  0  0  0  0  0  0  0  0
   28.0624   23.8275   45.9195 H   0  0  0  0  0  0  0  0  0  0  0  0
   32.0191   21.3233   46.2135 H   0  0  0  0  0  0  0  0  0  0  0  0
  1  2  1  0
  3  2  2  0
  4  3  1  0
  5 10  1  0
  5  4  2  0
  6  5  1  0
  7  8  1  0
  7  6  2  0
  8  9  2  0
  9  4  1  0
  9  1  1  0
 11 12  2  0
 12  1  1  0
 12 13  1  0
 14 13  2  0
 15 14  1  0
 16 11  1  0
 16 15  2  0
 17 15  1  0
 17 18  1  0
 19 17  1  0
 20 17  1  0
  2 21  1  0
  7 22  1  0
 10 23  1  0
 10 24  1  0
 11 25  1  0
 13 26  1  0
 18 27  1  0
 18 28  1  0
 18 29  1  0
 19 30  1  0
 19 31  1  0
 19 32  1  0
 20 33  1  0
 20 34  1  0
 35 36  1  0
 36 37  2  0
 37 38  1  0
 37 39  1  0
 39 40  2  0
 39 41  1  0
 41 42  1  0
 42 43  2  0
 42 35  1  0
 36 44  1  0
 38 45  1  0
 38 46  1  0
 38 47  1  0
 41 48  1  0
 20 35  1  0
M  ISO  8  21  14  22  14  25  14  26  14  27   8  28   8  29   8  30   8
M  ISO  4  31   8  32   8  33   8  34   8
M  END
>  <DihAtoms>  (1) 
16,19,34,35

>  <DihDeg>  (1) 
-87.89787156430205

$$$$
