
     RDKit          3D

 45 48  0  0  1  0  0  0  0  0999 V2000
   35.8010   30.5550   47.1960 C   0  0  0  0  0  0  0  0  0  0  0  0
   36.8090   30.8080   48.1080 C   0  0  0  0  0  0  0  0  0  0  0  0
   36.8650   29.8820   49.1980 C   0  0  0  0  0  0  0  0  0  0  0  0
   35.9670   28.8580   49.2720 N   0  0  0  0  0  0  0  0  0  0  0  0
   35.0250   28.6810   48.3560 C   0  0  0  0  0  0  0  0  0  0  0  0
   34.9430   29.5320   47.3150 N   0  0  0  0  0  0  0  0  0  0  0  0
   37.8080   31.8530   48.1360 C   0  0  0  0  0  0  0  0  0  0  0  0
   37.8150   32.5140   49.3420 C   0  0  0  0  0  0  0  0  0  0  0  0
   38.6980   33.5580   49.5930 C   0  0  0  0  0  0  0  0  0  0  0  0
   39.5900   33.9420   48.6050 C   0  0  0  0  0  0  0  0  0  0  0  0
   39.5720   33.2680   47.3980 C   0  0  0  0  0  0  0  0  0  0  0  0
   40.4330   33.5810   46.3400 C   0  0  0  0  0  0  0  0  0  0  0  0
   40.3610   32.8700   45.1620 C   0  0  0  0  0  0  0  0  0  0  0  0
   39.4650   31.8490   44.9820 C   0  0  0  0  0  0  0  0  0  0  0  0
   38.6100   31.5310   46.0200 C   0  0  0  0  0  0  0  0  0  0  0  0
   38.6950   32.2470   47.1790 C   0  0  0  0  0  0  0  0  0  0  0  0
   34.0660   27.5570   48.4850 C   0  0  1  0  0  0  0  0  0  0  0  0
   32.6180   27.8410   48.6670 C   0  0  0  0  0  0  0  0  0  0  0  0
   33.1180   27.2480   47.3610 C   0  0  2  0  0  0  0  0  0  0  0  0
   32.6700   25.8450   47.1130 C   0  0  0  0  0  0  0  0  0  0  0  0
   32.2310   25.6320   45.6670 C   0  0  0  0  0  0  0  0  0  0  0  0
   31.5100   25.5360   48.0380 C   0  0  0  0  0  0  0  0  0  0  0  0
   33.7430   24.8170   47.3900 C   0  0  0  0  0  0  0  0  0  0  0  0
   35.6981   31.2260   46.3305 H   0  0  0  0  0  0  0  0  0  0  0  0
   37.6332   29.9963   49.9770 H   0  0  0  0  0  0  0  0  0  0  0  0
   37.1058   32.2097   50.1258 H   0  0  0  0  0  0  0  0  0  0  0  0
   38.6885   34.0732   50.5648 H   0  0  0  0  0  0  0  0  0  0  0  0
   40.2979   34.7661   48.7773 H   0  0  0  0  0  0  0  0  0  0  0  0
   41.1663   34.3937   46.4488 H   0  0  0  0  0  0  0  0  0  0  0  0
   41.0443   33.1302   44.3402 H   0  0  0  0  0  0  0  0  0  0  0  0
   39.4272   31.2949   44.0325 H   0  0  0  0  0  0  0  0  0  0  0  0
   37.8765   30.7181   45.9145 H   0  0  0  0  0  0  0  0  0  0  0  0
   34.8154   26.9758   49.0423 H   0  0  0  0  0  0  0  0  0  0  0  0
   32.0195   27.2273   49.3563 H   0  0  0  0  0  0  0  0  0  0  0  0
   32.0277   28.7271   48.9435 H   0  0  0  0  0  0  0  0  0  0  0  0
   33.1167   27.5028   46.2909 H   0  0  0  0  0  0  0  0  0  0  0  0
   31.2414   25.1519   45.6512 H   0  0  0  0  0  0  0  0  0  0  0  0
   32.1755   26.6034   45.1538 H   0  0  0  0  0  0  0  0  0  0  0  0
   32.9596   24.9872   45.1538 H   0  0  0  0  0  0  0  0  0  0  0  0
   31.8410   25.6242   49.0833 H   0  0  0  0  0  0  0  0  0  0  0  0
   30.6923   26.2477   47.8511 H   0  0  0  0  0  0  0  0  0  0  0  0
   31.1547   24.5119   47.8511 H   0  0  0  0  0  0  0  0  0  0  0  0
   33.8660   24.6991   48.4767 H   0  0  0  0  0  0  0  0  0  0  0  0
   33.4506   23.8534   46.9474 H   0  0  0  0  0  0  0  0  0  0  0  0
   34.6932   25.1504   46.9474 H   0  0  0  0  0  0  0  0  0  0  0  0
  1  6  2  0
  1  2  1  0
  2  7  1  0
  2  3  2  0
  3  4  1  0
  5 17  1  0
  5  4  2  0
  6  5  1  0
  7  8  2  0
  8  9  1  0
 10  9  2  0
 11 10  1  0
 12 11  2  0
 13 12  1  0
 14 13  2  0
 14 15  1  0
 15 16  2  0
 16 11  1  0
 16  7  1  0
 17 18  1  0
 19 17  1  0
 19 18  1  0
 20 19  1  0
 20 23  1  0
 20 22  1  0
 21 20  1  0
  1 24  1  0
  3 25  1  0
  8 26  1  0
  9 27  1  0
 10 28  1  0
 12 29  1  0
 13 30  1  0
 14 31  1  0
 15 32  1  0
 17 33  1  1
 18 34  1  0
 18 35  1  0
 19 36  1  6
 21 37  1  0
 21 38  1  0
 21 39  1  0
 22 40  1  0
 22 41  1  0
 22 42  1  0
 23 43  1  0
 23 44  1  0
 23 45  1  0
M  ISO  8  24  14  25  14  26  14  27  14  28  14  29  14  30  14  31  14
M  ISO  8  32  14  33  13  34  13  35  13  36  13  37   8  38   8  39   8
M  ISO  6  40   8  41   8  42   8  43   8  44   8  45   8
M  END
>  <minimizedAffinity>  (1) 
-6.53935957

>  <minimizedRMSD>  (1) 
0.828918755

$$$$
