
     RDKit          3D

 34 36  0  0  0  0  0  0  0  0999 V2000
   38.5500   31.8620   47.9070 C   0  0  0  0  0  0  0  0  0  0  0  0
   39.3130   32.9890   47.9100 N   0  0  0  0  0  0  0  0  0  0  0  0
   39.7620   33.2140   46.7090 O   0  0  0  0  0  0  0  0  0  0  0  0
   39.3150   32.2670   45.9190 C   0  0  0  0  0  0  0  0  0  0  0  0
   38.5470   31.3950   46.6360 N   0  0  0  0  0  0  0  0  0  0  0  0
   39.5510   32.1050   44.5210 N   0  0  0  0  0  0  0  0  0  0  0  0
   39.0550   32.9650   43.6140 N   0  0  0  0  0  0  0  0  0  0  0  0
   39.4470   32.5480   42.3870 C   0  0  0  0  0  0  0  0  0  0  0  0
   40.2110   31.3840   42.5760 C   0  0  0  0  0  0  0  0  0  0  0  0
   40.2570   31.1340   43.9300 C   0  0  0  0  0  0  0  0  0  0  0  0
   37.5610   30.3540   51.1980 C   0  0  0  0  0  0  0  0  0  0  0  0
   38.3280   31.0380   50.2500 C   0  0  0  0  0  0  0  0  0  0  0  0
   37.8120   31.1600   48.9640 C   0  0  0  0  0  0  0  0  0  0  0  0
   36.6030   30.6190   48.6720 N   0  0  0  0  0  0  0  0  0  0  0  0
   35.9000   29.9660   49.6250 C   0  0  0  0  0  0  0  0  0  0  0  0
   36.3740   29.8330   50.8810 N   0  0  0  0  0  0  0  0  0  0  0  0
   34.5820   29.3780   49.3050 C   0  0  0  0  0  0  0  0  0  0  0  0
   34.0590   30.0910   48.0690 C   0  0  0  0  0  0  0  0  0  0  0  0
   33.6090   29.6530   50.4450 C   0  0  0  0  0  0  0  0  0  0  0  0
   34.6470   27.8780   49.1230 C   0  0  0  0  0  0  0  0  0  0  0  0
   39.2122   33.0286   41.4258 H   0  0  0  0  0  0  0  0  0  0  0  0
   40.6857   30.7823   41.7870 H   0  0  0  0  0  0  0  0  0  0  0  0
   40.7730   30.2997   44.4277 H   0  0  0  0  0  0  0  0  0  0  0  0
   37.9429   30.2433   52.2236 H   0  0  0  0  0  0  0  0  0  0  0  0
   39.3070   31.4655   50.5124 H   0  0  0  0  0  0  0  0  0  0  0  0
   33.4339   30.9431   48.3742 H   0  0  0  0  0  0  0  0  0  0  0  0
   34.9065   30.4542   47.4691 H   0  0  0  0  0  0  0  0  0  0  0  0
   33.4580   29.3918   47.4691 H   0  0  0  0  0  0  0  0  0  0  0  0
   34.1215   29.5082   51.4075 H   0  0  0  0  0  0  0  0  0  0  0  0
   33.2458   30.6890   50.3752 H   0  0  0  0  0  0  0  0  0  0  0  0
   32.7573   28.9604   50.3752 H   0  0  0  0  0  0  0  0  0  0  0  0
   34.6682   27.3897   50.1084 H   0  0  0  0  0  0  0  0  0  0  0  0
   33.7628   27.5378   48.5641 H   0  0  0  0  0  0  0  0  0  0  0  0
   35.5574   27.6156   48.5641 H   0  0  0  0  0  0  0  0  0  0  0  0
  1  2  2  0
  1 13  1  0
  3  2  1  0
  4  5  2  0
  4  3  1  0
  5  1  1  0
  6  4  1  0
  7  6  1  0
  8  9  1  0
  8  7  2  0
  9 10  2  0
 10  6  1  0
 12 11  2  0
 13 12  1  0
 14 13  2  0
 14 15  1  0
 15 16  2  0
 16 11  1  0
 17 15  1  0
 17 19  1  0
 18 17  1  0
 20 17  1  0
  8 21  1  0
  9 22  1  0
 10 23  1  0
 11 24  1  0
 12 25  1  0
 18 26  1  0
 18 27  1  0
 18 28  1  0
 19 29  1  0
 19 30  1  0
 19 31  1  0
 20 32  1  0
 20 33  1  0
 20 34  1  0
M  ISO  8  21  14  22  14  23  14  24  14  25  14  26   8  27   8  28   8
M  ISO  6  29   8  30   8  31   8  32   8  33   8  34   8
M  END
>  <minimizedAffinity>  (1) 
-6.24272346

>  <minimizedRMSD>  (1) 
1.00870538

$$$$
