
     RDKit          3D

 46 50  0  0  1  0  0  0  0  0999 V2000
   38.6190   32.6250   44.6060 C   0  0  0  0  0  0  0  0  0  0  0  0
   37.8430   31.6070   43.9590 N   0  0  0  0  0  0  0  0  0  0  0  0
   36.5130   31.4310   43.8290 C   0  0  0  0  0  0  0  0  0  0  0  0
   36.3180   30.3020   43.1210 N   0  0  0  0  0  0  0  0  0  0  0  0
   37.4980   29.7430   42.7890 C   0  0  0  0  0  0  0  0  0  0  0  0
   37.8000   28.5970   42.0800 C   0  0  0  0  0  0  0  0  0  0  0  0
   36.9190   27.8390   41.5920 O   0  0  0  0  0  0  0  0  0  0  0  0
   39.0730   28.2640   41.8930 N   0  0  0  0  0  0  0  0  0  0  0  0
   40.0110   29.0720   42.4120 C   0  0  0  0  0  0  0  0  0  0  0  0
   41.3990   28.7610   42.2370 N   0  0  0  0  0  0  0  0  0  0  0  0
   39.7380   30.1970   43.1080 N   0  0  0  0  0  0  0  0  0  0  0  0
   38.4710   30.5720   43.3220 C   0  0  0  0  0  0  0  0  0  0  0  0
   39.7430   24.9850   40.6900 N   0  0  0  0  0  0  0  0  0  0  0  0
   39.2120   25.8420   41.5110 N   0  0  0  0  0  0  0  0  0  0  0  0
   39.5120   27.1120   41.1810 C   0  0  0  0  0  0  0  0  0  0  0  0
   40.2900   26.9640   40.0660 C   0  0  0  0  0  0  0  0  0  0  0  0
   40.4490   25.6340   39.7370 C   0  0  0  0  0  0  0  0  0  0  0  0
   39.6120   32.0610   45.6360 C   0  0  2  0  0  0  0  0  0  0  0  0
   37.7100   31.7020   48.7570 C   0  0  0  0  0  0  0  0  0  0  0  0
   38.1540   32.8900   49.3880 C   0  0  0  0  0  0  0  0  0  0  0  0
   39.3010   33.6430   48.1830 S   0  0  0  0  0  0  0  0  0  0  0  0
   38.9700   32.1660   46.9920 C   0  0  0  0  0  0  0  0  0  0  0  0
   38.2520   31.5570   47.5760 N   0  0  0  0  0  0  0  0  0  0  0  0
   37.0720   30.2840   50.6770 C   0  0  0  0  0  0  0  0  0  0  0  0
   36.7600   30.8390   49.4450 C   0  0  0  0  0  0  0  0  0  0  0  0
   35.4960   30.5190   48.9330 C   0  0  0  0  0  0  0  0  0  0  0  0
   34.6720   29.7190   49.6310 N   0  0  0  0  0  0  0  0  0  0  0  0
   35.0270   29.2040   50.8280 C   0  0  0  0  0  0  0  0  0  0  0  0
   36.2270   29.4910   51.3430 N   0  0  0  0  0  0  0  0  0  0  0  0
   40.8570   32.8570   45.6630 C   0  0  0  0  0  0  0  0  0  0  0  0
   37.9334   33.3140   45.1211 H   0  0  0  0  0  0  0  0  0  0  0  0
   39.2063   33.1348   43.8281 H   0  0  0  0  0  0  0  0  0  0  0  0
   35.7286   32.0903   44.2289 H   0  0  0  0  0  0  0  0  0  0  0  0
   42.1196   29.3802   42.6347 H   0  0  0  0  0  0  0  0  0  0  0  0
   41.6759   27.9183   41.7135 H   0  0  0  0  0  0  0  0  0  0  0  0
   39.6408   23.9622   40.7559 H   0  0  0  0  0  0  0  0  0  0  0  0
   40.7325   27.7992   39.5033 H   0  0  0  0  0  0  0  0  0  0  0  0
   41.0157   25.2035   38.8983 H   0  0  0  0  0  0  0  0  0  0  0  0
   39.8572   31.0223   45.3696 H   0  0  0  0  0  0  0  0  0  0  0  0
   37.8716   33.2726   50.3799 H   0  0  0  0  0  0  0  0  0  0  0  0
   38.0528   30.5049   51.1233 H   0  0  0  0  0  0  0  0  0  0  0  0
   35.1780   30.9223   47.9602 H   0  0  0  0  0  0  0  0  0  0  0  0
   34.3320   28.5514   51.3767 H   0  0  0  0  0  0  0  0  0  0  0  0
   41.1499   33.0443   46.7066 H   0  0  0  0  0  0  0  0  0  0  0  0
   41.6577   32.3029   45.1512 H   0  0  0  0  0  0  0  0  0  0  0  0
   40.6901   33.8163   45.1512 H   0  0  0  0  0  0  0  0  0  0  0  0
  1 18  1  0
  2  1  1  0
  3  2  1  0
  4  3  2  0
  5  4  1  0
  5 12  2  0
  6  5  1  0
  7  6  2  0
  8  6  1  0
  8  9  1  0
  9 11  2  0
 10  9  1  0
 11 12  1  0
 12  2  1  0
 13 14  1  0
 15 14  2  0
 15  8  1  0
 16 15  1  0
 17 16  2  0
 17 13  1  0
 18 30  1  0
 18 22  1  0
 19 20  2  0
 19 25  1  0
 21 20  1  0
 22 23  2  0
 22 21  1  0
 23 19  1  0
 24 29  2  0
 25 24  1  0
 26 25  2  0
 26 27  1  0
 27 28  2  0
 28 29  1  0
  1 31  1  0
  1 32  1  0
  3 33  1  0
 10 34  1  0
 10 35  1  0
 13 36  1  0
 16 37  1  0
 17 38  1  0
 18 39  1  6
 20 40  1  0
 24 41  1  0
 26 42  1  0
 28 43  1  0
 30 44  1  0
 30 45  1  0
 30 46  1  0
M  ISO  8  31   8  32   8  33  14  36   9  37  14  38  14  39   8  40  14
M  ISO  6  41  14  42  14  43  14  44   8  45   8  46   8
M  END
>  <minimizedAffinity>  (1) 
-6.60162401

>  <minimizedRMSD>  (1) 
0.76134032

$$$$
