
     RDKit          3D

 41 44  0  0  0  0  0  0  0  0999 V2000
   36.4174   30.9684   48.7357 N   0  0  0  0  0  0  0  0  0  0  0  0
   36.3939   31.7294   49.8637 C   0  0  0  0  0  0  0  0  0  0  0  0
   37.3729   32.6569   49.7864 N   0  0  0  0  0  0  0  0  0  0  0  0
   37.9932   32.4565   48.6041 C   0  0  0  0  0  0  0  0  0  0  0  0
   39.0492   33.0755   47.9719 C   0  0  0  0  0  0  0  0  0  0  0  0
   39.4769   32.6645   46.7638 N   0  0  0  0  0  0  0  0  0  0  0  0
   38.8912   31.6286   46.1184 C   0  0  0  0  0  0  0  0  0  0  0  0
   37.8639   31.0316   46.7410 N   0  0  0  0  0  0  0  0  0  0  0  0
   37.3992   31.4026   47.9450 C   0  0  0  0  0  0  0  0  0  0  0  0
   39.6923   34.1662   48.6157 N   0  0  0  0  0  0  0  0  0  0  0  0
   34.6607   29.9785   47.3904 C   0  0  0  0  0  0  0  0  0  0  0  0
   35.5194   29.8953   48.4888 C   0  0  0  0  0  0  0  0  0  0  0  0
   35.4233   28.7385   49.2723 C   0  0  0  0  0  0  0  0  0  0  0  0
   34.5274   27.7853   48.9348 N   0  0  0  0  0  0  0  0  0  0  0  0
   33.7197   27.8874   47.8831 C   0  0  0  0  0  0  0  0  0  0  0  0
   33.7895   28.9908   47.1095 N   0  0  0  0  0  0  0  0  0  0  0  0
   32.7378   26.8515   47.5067 C   0  0  0  0  0  0  0  0  0  0  0  0
   31.5366   26.9006   48.4342 C   0  0  0  0  0  0  0  0  0  0  0  0
   32.1717   27.1060   46.1101 C   0  0  0  0  0  0  0  0  0  0  0  0
   33.3248   25.4659   47.4543 C   0  0  0  0  0  0  0  0  0  0  0  0
   35.6952   31.6037   50.6900 H   0  0  0  0  0  0  0  0  0  0  0  0
   39.2381   31.3018   45.1480 H   0  0  0  0  0  0  0  0  0  0  0  0
   40.6084   34.5162   48.2495 H   0  0  0  0  0  0  0  0  0  0  0  0
   39.2580   34.6238   49.4541 H   0  0  0  0  0  0  0  0  0  0  0  0
   34.6440   30.8294   46.7089 H   0  0  0  0  0  0  0  0  0  0  0  0
   36.0861   28.6704   50.1232 H   0  0  0  0  0  0  0  0  0  0  0  0
   30.7381   26.3004   47.9230 H   0  0  0  0  0  0  0  0  0  0  0  0
   31.7238   26.4172   49.4099 H   0  0  0  0  0  0  0  0  0  0  0  0
   31.1989   27.9475   48.4951 H   0  0  0  0  0  0  0  0  0  0  0  0
   31.5811   26.2224   45.8086 H   0  0  0  0  0  0  0  0  0  0  0  0
   33.0387   27.2075   45.4250 H   0  0  0  0  0  0  0  0  0  0  0  0
   31.5852   28.0351   46.1349 H   0  0  0  0  0  0  0  0  0  0  0  0
   32.4633   24.7798   47.2203 H   0  0  0  0  0  0  0  0  0  0  0  0
   33.9986   25.3511   46.5804 H   0  0  0  0  0  0  0  0  0  0  0  0
   33.8799   25.0116   48.6992 N   0  0  0  0  0  0  0  0  0  0  0  0
   35.1769   24.6460   48.9199 C   0  0  0  0  0  0  0  0  0  0  0  0
   35.3644   24.2707   50.1988 N   0  0  0  0  0  0  0  0  0  0  0  0
   34.1553   24.4101   50.7717 C   0  0  0  0  0  0  0  0  0  0  0  0
   33.2807   24.8484   49.8813 N   0  0  0  0  0  0  0  0  0  0  0  0
   35.9990   24.6365   48.2006 H   0  0  0  0  0  0  0  0  0  0  0  0
   33.8475   24.2173   51.8004 H   0  0  0  0  0  0  0  0  0  0  0  0
  1  2  1  0
  3  2  2  0
  4  3  1  0
  5 10  1  0
  5  4  2  0
  6  5  1  0
  7  8  1  0
  7  6  2  0
  8  9  2  0
  9  4  1  0
  9  1  1  0
 11 12  2  0
 12  1  1  0
 12 13  1  0
 14 13  2  0
 15 14  1  0
 16 11  1  0
 16 15  2  0
 17 15  1  0
 17 18  1  0
 19 17  1  0
 20 17  1  0
  2 21  1  0
  7 22  1  0
 10 23  1  0
 10 24  1  0
 11 25  1  0
 13 26  1  0
 18 27  1  0
 18 28  1  0
 18 29  1  0
 19 30  1  0
 19 31  1  0
 19 32  1  0
 20 33  1  0
 20 34  1  0
 35 36  1  0
 36 37  2  0
 37 38  1  0
 38 39  2  0
 39 35  1  0
 36 40  1  0
 38 41  1  0
 20 35  1  0
M  ISO  8  21  14  22  14  25  14  26  14  27   8  28   8  29   8  30   8
M  ISO  4  31   8  32   8  33   8  34   8
M  END
>  <DihAtoms>  (1) 
16,19,34,35

>  <DihDeg>  (1) 
89.98131884396052

$$$$
