
     RDKit          3D

 42 46  0  0  0  0  0  0  0  0999 V2000
   32.3230   29.8310   46.1790 C   0  0  0  0  0  0  0  0  0  0  0  0
   32.0710   28.4530   46.1870 C   0  0  0  0  0  0  0  0  0  0  0  0
   33.0490   27.6140   46.7580 C   0  0  0  0  0  0  0  0  0  0  0  0
   34.1730   28.1680   47.2660 N   0  0  0  0  0  0  0  0  0  0  0  0
   34.3840   29.5120   47.2410 C   0  0  0  0  0  0  0  0  0  0  0  0
   33.4700   30.3220   46.7050 N   0  0  0  0  0  0  0  0  0  0  0  0
   32.8310   26.1770   46.7900 C   0  0  0  0  0  0  0  0  0  0  0  0
   33.7810   25.3790   47.4060 C   0  0  0  0  0  0  0  0  0  0  0  0
   33.5120   24.0280   47.4000 C   0  0  0  0  0  0  0  0  0  0  0  0
   32.3950   23.5090   46.8300 N   0  0  0  0  0  0  0  0  0  0  0  0
   31.4860   24.3320   46.2330 C   0  0  0  0  0  0  0  0  0  0  0  0
   31.7360   25.6710   46.2310 N   0  0  0  0  0  0  0  0  0  0  0  0
   30.3290   23.7590   45.6460 N   0  0  0  0  0  0  0  0  0  0  0  0
   29.3890   24.4360   44.9660 C   0  0  0  0  0  0  0  0  0  0  0  0
   28.2830   23.7740   44.4250 C   0  0  0  0  0  0  0  0  0  0  0  0
   28.2130   22.4150   44.6270 C   0  0  0  0  0  0  0  0  0  0  0  0
   27.2210   21.7680   44.1520 O   0  0  0  0  0  0  0  0  0  0  0  0
   29.1660   21.7490   45.3150 N   0  0  0  0  0  0  0  0  0  0  0  0
   30.2210   22.4130   45.8240 C   0  0  0  0  0  0  0  0  0  0  0  0
   31.0290   21.6720   46.4380 O   0  0  0  0  0  0  0  0  0  0  0  0
   35.6200   30.0090   47.8110 C   0  0  0  0  0  0  0  0  0  0  0  0
   36.6060   30.6650   47.0770 C   0  0  0  0  0  0  0  0  0  0  0  0
   37.6220   31.0020   47.8800 N   0  0  0  0  0  0  0  0  0  0  0  0
   37.3250   30.5800   49.1290 C   0  0  0  0  0  0  0  0  0  0  0  0
   38.0360   30.6760   50.3300 C   0  0  0  0  0  0  0  0  0  0  0  0
   37.4610   30.1370   51.4750 C   0  0  0  0  0  0  0  0  0  0  0  0
   36.2320   29.5350   51.4020 C   0  0  0  0  0  0  0  0  0  0  0  0
   35.5030   29.4260   50.2240 C   0  0  0  0  0  0  0  0  0  0  0  0
   36.0970   29.9700   49.0970 C   0  0  0  0  0  0  0  0  0  0  0  0
   31.5840   30.5189   45.7424 H   0  0  0  0  0  0  0  0  0  0  0  0
   31.1435   28.0407   45.7630 H   0  0  0  0  0  0  0  0  0  0  0  0
   34.6881   25.7956   47.8683 H   0  0  0  0  0  0  0  0  0  0  0  0
   34.2300   23.3436   47.8754 H   0  0  0  0  0  0  0  0  0  0  0  0
   29.4906   25.5232   44.8334 H   0  0  0  0  0  0  0  0  0  0  0  0
   27.5057   24.3140   43.8645 H   0  0  0  0  0  0  0  0  0  0  0  0
   29.0854   20.7311   45.4505 H   0  0  0  0  0  0  0  0  0  0  0  0
   36.5566   30.8746   45.9983 H   0  0  0  0  0  0  0  0  0  0  0  0
   38.4799   31.4963   47.5960 H   0  0  0  0  0  0  0  0  0  0  0  0
   39.0213   31.1638   50.3671 H   0  0  0  0  0  0  0  0  0  0  0  0
   37.9911   30.1935   52.4372 H   0  0  0  0  0  0  0  0  0  0  0  0
   35.8004   29.1166   52.3232 H   0  0  0  0  0  0  0  0  0  0  0  0
   34.5173   28.9389   50.1887 H   0  0  0  0  0  0  0  0  0  0  0  0
  1  2  2  0
  1  6  1  0
  2  3  1  0
  3  7  1  0
  3  4  2  0
  5  4  1  0
  5 21  1  0
  6  5  2  0
  7  8  2  0
  9  8  1  0
 10  9  2  0
 11 10  1  0
 12 11  2  0
 12  7  1  0
 13 19  1  0
 13 11  1  0
 14 13  1  0
 15 16  1  0
 15 14  2  0
 16 18  1  0
 17 16  2  0
 18 19  1  0
 19 20  2  0
 21 29  1  0
 22 21  2  0
 22 23  1  0
 23 24  1  0
 24 25  2  0
 25 26  1  0
 27 26  2  0
 28 27  1  0
 29 24  1  0
 29 28  2  0
  1 30  1  0
  2 31  1  0
  8 32  1  0
  9 33  1  0
 14 34  1  0
 15 35  1  0
 18 36  1  0
 22 37  1  0
 23 38  1  0
 25 39  1  0
 26 40  1  0
 27 41  1  0
 28 42  1  0
M  ISO  8  30  14  31  14  32  14  33  14  34  14  35  14  36   9  37  14
M  ISO  5  38   9  39  14  40  14  41  14  42  14
M  END
>  <minimizedAffinity>  (1) 
-6.89755726

>  <minimizedRMSD>  (1) 
0.341063589

$$$$
