
     RDKit          3D

 36 38  0  0  1  0  0  0  0  0999 V2000
   39.3970   31.4920   46.7650 C   0  0  2  0  0  0  0  0  0  0  0  0
   39.6880   32.7800   46.1800 C   0  0  0  0  0  0  0  0  0  0  0  0
   40.6980   32.7220   45.0800 C   0  0  0  0  0  0  0  0  0  0  0  0
   40.3890   31.6810   44.0670 C   0  0  0  0  0  0  0  0  0  0  0  0
   39.9620   30.3900   44.6350 C   0  0  0  0  0  0  0  0  0  0  0  0
   38.8680   30.5530   45.7220 C   0  0  2  0  0  0  0  0  0  0  0  0
   38.1610   32.7140   48.6360 C   0  0  0  0  0  0  0  0  0  0  0  0
   38.5040   31.5320   47.9110 C   0  0  0  0  0  0  0  0  0  0  0  0
   37.9480   30.3490   48.3000 C   0  0  0  0  0  0  0  0  0  0  0  0
   37.0870   30.3530   49.3680 N   0  0  0  0  0  0  0  0  0  0  0  0
   36.7790   31.5090   50.0440 C   0  0  0  0  0  0  0  0  0  0  0  0
   37.3290   32.7000   49.6630 N   0  0  0  0  0  0  0  0  0  0  0  0
   37.6910   31.1090   45.0270 C   0  0  0  0  0  0  0  0  0  0  0  0
   36.5500   31.3760   45.5310 O   0  0  0  0  0  0  0  0  0  0  0  0
   37.9010   31.3460   43.6980 O   0  0  0  0  0  0  0  0  0  0  0  0
   36.9580   32.1000   42.9660 C   0  0  0  0  0  0  0  0  0  0  0  0
   36.8640   31.8370   41.5940 C   0  0  0  0  0  0  0  0  0  0  0  0
   35.9050   32.6770   41.1320 N   0  0  0  0  0  0  0  0  0  0  0  0
   35.4560   33.3960   42.1750 C   0  0  0  0  0  0  0  0  0  0  0  0
   36.0920   33.0540   43.3090 N   0  0  0  0  0  0  0  0  0  0  0  0
   40.3571   31.1243   47.1562 H   0  0  0  0  0  0  0  0  0  0  0  0
   38.7545   33.1965   45.7736 H   0  0  0  0  0  0  0  0  0  0  0  0
   40.1137   33.4078   46.9766 H   0  0  0  0  0  0  0  0  0  0  0  0
   40.7285   33.7010   44.5794 H   0  0  0  0  0  0  0  0  0  0  0  0
   41.6663   32.4643   45.5338 H   0  0  0  0  0  0  0  0  0  0  0  0
   41.2920   31.5097   43.4626 H   0  0  0  0  0  0  0  0  0  0  0  0
   39.5432   32.0595   43.4742 H   0  0  0  0  0  0  0  0  0  0  0  0
   39.5633   29.7624   43.8244 H   0  0  0  0  0  0  0  0  0  0  0  0
   40.8394   29.9270   45.1102 H   0  0  0  0  0  0  0  0  0  0  0  0
   38.5949   29.6118   46.2215 H   0  0  0  0  0  0  0  0  0  0  0  0
   38.6059   33.6717   48.3281 H   0  0  0  0  0  0  0  0  0  0  0  0
   38.1842   29.4143   47.7703 H   0  0  0  0  0  0  0  0  0  0  0  0
   36.0854   31.4752   50.8971 H   0  0  0  0  0  0  0  0  0  0  0  0
   37.4447   31.1046   41.0141 H   0  0  0  0  0  0  0  0  0  0  0  0
   34.6710   34.1637   42.1094 H   0  0  0  0  0  0  0  0  0  0  0  0
   35.9414   33.4477   44.2488 H   0  0  0  0  0  0  0  0  0  0  0  0
  1  8  1  0
  2  1  1  0
  3  2  1  0
  4  5  1  0
  4  3  1  0
  5  6  1  0
  6  1  1  0
  7 12  2  0
  8  9  2  0
  8  7  1  0
  9 10  1  0
 10 11  2  0
 12 11  1  0
 13 14  2  0
 13  6  1  0
 15 13  1  0
 16 20  1  0
 16 15  1  0
 17 16  2  0
 18 17  1  0
 18 19  2  0
 19 20  1  0
  1 21  1  1
  2 22  1  0
  2 23  1  0
  3 24  1  0
  3 25  1  0
  4 26  1  0
  4 27  1  0
  5 28  1  0
  5 29  1  0
  6 30  1  1
  7 31  1  0
  9 32  1  0
 11 33  1  0
 17 34  1  0
 19 35  1  0
 20 36  1  0
M  ISO  8  21  13  22  13  23  13  24  13  25  13  26  13  27  13  28  13
M  ISO  8  29  13  30  13  31  14  32  14  33  14  34  14  35  14  36   9
M  END
>  <minimizedAffinity>  (1) 
-5.19964838

>  <minimizedRMSD>  (1) 
1.45350325

$$$$
