
     RDKit          3D

 28 30  0  0  1  0  0  0  0  0999 V2000
   35.3760   29.3970   49.0060 C   0  0  2  0  0  0  0  0  0  0  0  0
   34.2370   29.4460   49.9340 C   0  0  0  0  0  0  0  0  0  0  0  0
   34.5780   28.1370   49.3830 C   0  0  1  0  0  0  0  0  0  0  0  0
   36.7810   29.3670   49.6000 C   0  0  0  0  0  0  0  0  0  0  0  0
   38.2060   32.7410   49.4640 C   0  0  0  0  0  0  0  0  0  0  0  0
   38.8160   32.7740   48.2010 C   0  0  0  0  0  0  0  0  0  0  0  0
   38.7300   31.6210   47.4020 C   0  0  0  0  0  0  0  0  0  0  0  0
   38.0500   30.5280   47.9090 N   0  0  0  0  0  0  0  0  0  0  0  0
   37.4850   30.5640   49.1350 C   0  0  0  0  0  0  0  0  0  0  0  0
   37.5700   31.6760   49.9040 N   0  0  0  0  0  0  0  0  0  0  0  0
   33.6000   27.6250   48.3590 C   0  0  0  0  0  0  0  0  0  0  0  0
   33.9330   26.5060   47.8020 O   0  0  0  0  0  0  0  0  0  0  0  0
   32.4060   28.2110   47.9700 O   0  0  0  0  0  0  0  0  0  0  0  0
   31.2230   27.7980   48.5650 C   0  0  0  0  0  0  0  0  0  0  0  0
   30.3540   27.1080   47.7840 N   0  0  0  0  0  0  0  0  0  0  0  0
   29.2880   26.7810   48.4620 O   0  0  0  0  0  0  0  0  0  0  0  0
   29.4530   27.2480   49.6730 C   0  0  0  0  0  0  0  0  0  0  0  0
   30.6420   27.8790   49.7570 N   0  0  0  0  0  0  0  0  0  0  0  0
   35.6412   29.9701   48.1053 H   0  0  0  0  0  0  0  0  0  0  0  0
   34.4169   29.6471   51.0004 H   0  0  0  0  0  0  0  0  0  0  0  0
   33.3097   30.0369   49.9649 H   0  0  0  0  0  0  0  0  0  0  0  0
   34.8408   27.1447   49.7783 H   0  0  0  0  0  0  0  0  0  0  0  0
   36.7237   29.3687   50.6985 H   0  0  0  0  0  0  0  0  0  0  0  0
   37.3143   28.4584   49.2838 H   0  0  0  0  0  0  0  0  0  0  0  0
   38.2610   33.6324   50.1061 H   0  0  0  0  0  0  0  0  0  0  0  0
   39.3439   33.6722   47.8480 H   0  0  0  0  0  0  0  0  0  0  0  0
   39.1897   31.5886   46.4032 H   0  0  0  0  0  0  0  0  0  0  0  0
   28.7319   27.1421   50.4969 H   0  0  0  0  0  0  0  0  0  0  0  0
  1  3  1  0
  1  4  1  0
  1  2  1  0
  3  2  1  0
  5 10  2  0
  6  5  1  0
  7  8  1  0
  7  6  2  0
  8  9  2  0
  9  4  1  0
  9 10  1  0
 11  3  1  0
 12 11  2  0
 13 11  1  0
 13 14  1  0
 14 18  1  0
 15 16  1  0
 15 14  2  0
 16 17  1  0
 17 18  2  0
  1 19  1  6
  2 20  1  0
  2 21  1  0
  3 22  1  1
  4 23  1  0
  4 24  1  0
  5 25  1  0
  6 26  1  0
  7 27  1  0
 17 28  1  0
M  ISO  8  19  13  20  13  21  13  22  13  23   8  24   8  25  14  26  14
M  ISO  2  27  14  28  14
M  END
>  <minimizedAffinity>  (1) 
-5.11282015

>  <minimizedRMSD>  (1) 
1.44131041

$$$$
