
     RDKit          3D

 46 50  0  0  0  0  0  0  0  0999 V2000
   36.4271   30.9592   48.7451 N   0  0  0  0  0  0  0  0  0  0  0  0
   36.3913   31.7332   49.8684 C   0  0  0  0  0  0  0  0  0  0  0  0
   37.3597   32.6679   49.7843 N   0  0  0  0  0  0  0  0  0  0  0  0
   37.9811   32.4570   48.6071 C   0  0  0  0  0  0  0  0  0  0  0  0
   39.0418   33.0799   47.9594 C   0  0  0  0  0  0  0  0  0  0  0  0
   39.4768   32.6689   46.7721 N   0  0  0  0  0  0  0  0  0  0  0  0
   38.9048   31.6163   46.1299 C   0  0  0  0  0  0  0  0  0  0  0  0
   37.8747   31.0150   46.7631 N   0  0  0  0  0  0  0  0  0  0  0  0
   37.4044   31.3883   47.9484 C   0  0  0  0  0  0  0  0  0  0  0  0
   39.6747   34.1844   48.5782 N   0  0  0  0  0  0  0  0  0  0  0  0
   34.6646   29.9820   47.3980 C   0  0  0  0  0  0  0  0  0  0  0  0
   35.5357   29.8791   48.5111 C   0  0  0  0  0  0  0  0  0  0  0  0
   35.4333   28.7288   49.2680 C   0  0  0  0  0  0  0  0  0  0  0  0
   34.5286   27.7809   48.9172 N   0  0  0  0  0  0  0  0  0  0  0  0
   33.7129   27.8935   47.8623 C   0  0  0  0  0  0  0  0  0  0  0  0
   33.7936   28.9933   47.1184 N   0  0  0  0  0  0  0  0  0  0  0  0
   32.7352   26.8473   47.4975 C   0  0  0  0  0  0  0  0  0  0  0  0
   31.5436   26.9027   48.4402 C   0  0  0  0  0  0  0  0  0  0  0  0
   32.1487   27.1296   46.1114 C   0  0  0  0  0  0  0  0  0  0  0  0
   33.3283   25.4727   47.4501 C   0  0  0  0  0  0  0  0  0  0  0  0
   35.7468   31.6991   50.7390 H   0  0  0  0  0  0  0  0  0  0  0  0
   39.2749   31.2963   45.1613 H   0  0  0  0  0  0  0  0  0  0  0  0
   39.4173   35.2018   48.4388 H   0  0  0  0  0  0  0  0  0  0  0  0
   40.4819   34.2428   49.2642 H   0  0  0  0  0  0  0  0  0  0  0  0
   34.7322   30.8827   46.7905 H   0  0  0  0  0  0  0  0  0  0  0  0
   36.0913   28.6479   50.1112 H   0  0  0  0  0  0  0  0  0  0  0  0
   30.7145   26.3402   47.9576 H   0  0  0  0  0  0  0  0  0  0  0  0
   31.8145   26.4524   49.4106 H   0  0  0  0  0  0  0  0  0  0  0  0
   31.2593   27.9676   48.5801 H   0  0  0  0  0  0  0  0  0  0  0  0
   32.8994   27.3901   45.3669 H   0  0  0  0  0  0  0  0  0  0  0  0
   31.5367   28.0631   46.2565 H   0  0  0  0  0  0  0  0  0  0  0  0
   31.4548   26.3170   45.8428 H   0  0  0  0  0  0  0  0  0  0  0  0
   32.5021   24.7816   47.1716 H   0  0  0  0  0  0  0  0  0  0  0  0
   33.8082   25.1891   48.4141 H   0  0  0  0  0  0  0  0  0  0  0  0
   34.3896   25.4448   46.4648 N   0  0  0  0  0  0  0  0  0  0  0  0
   34.4852   24.6798   45.3604 C   0  0  0  0  0  0  0  0  0  0  0  0
   35.6106   24.9126   44.6651 N   0  0  0  0  0  0  0  0  0  0  0  0
   36.2944   25.8623   45.3195 C   0  0  0  0  0  0  0  0  0  0  0  0
   37.5040   26.5114   45.1033 C   0  0  0  0  0  0  0  0  0  0  0  0
   38.1014   26.2661   44.2430 H   0  0  0  0  0  0  0  0  0  0  0  0
   37.9606   27.4508   45.9463 N   0  0  0  0  0  0  0  0  0  0  0  0
   37.2004   27.7443   47.0164 C   0  0  0  0  0  0  0  0  0  0  0  0
   36.0217   27.1208   47.2390 N   0  0  0  0  0  0  0  0  0  0  0  0
   35.5275   26.1753   46.4214 C   0  0  0  0  0  0  0  0  0  0  0  0
   33.7738   23.9435   45.0148 H   0  0  0  0  0  0  0  0  0  0  0  0
   37.4169   28.4820   47.8051 H   0  0  0  0  0  0  0  0  0  0  0  0
  1  2  1  0
  3  2  2  0
  4  3  1  0
  5 10  1  0
  5  4  2  0
  6  5  1  0
  7  8  1  0
  7  6  2  0
  8  9  2  0
  9  4  1  0
  9  1  1  0
 11 12  2  0
 12  1  1  0
 12 13  1  0
 14 13  2  0
 15 14  1  0
 16 11  1  0
 16 15  2  0
 17 15  1  0
 17 18  1  0
 19 17  1  0
 20 17  1  0
  2 21  1  0
  7 22  1  0
 10 23  1  0
 10 24  1  0
 11 25  1  0
 13 26  1  0
 18 27  1  0
 18 28  1  0
 18 29  1  0
 19 30  1  0
 19 31  1  0
 19 32  1  0
 20 33  1  0
 20 34  1  0
 35 36  1  0
 36 37  2  0
 37 38  1  0
 38 39  2  0
 39 40  1  0
 39 41  1  0
 41 42  2  0
 42 43  1  0
 43 44  2  0
 44 35  1  0
 44 38  1  0
 36 45  1  0
 42 46  1  0
 20 35  1  0
M  ISO  8  21  14  22  14  25  14  26  14  27   8  28   8  29   8  30   8
M  ISO  5  31   8  32   8  33   8  34   8  40  14
M  END
>  <DihAtoms>  (1) 
16,19,34,35

>  <DihDeg>  (1) 
89.93296481503137

$$$$
