
     RDKit          3D

 38 41  0  0  0  0  0  0  0  0999 V2000
   39.3370   31.8530   45.7280 C   0  0  0  0  0  0  0  0  0  0  0  0
   40.6020   31.2940   45.5700 C   0  0  0  0  0  0  0  0  0  0  0  0
   40.8880   31.2590   44.2080 C   0  0  0  0  0  0  0  0  0  0  0  0
   39.7570   31.8080   43.6090 C   0  0  0  0  0  0  0  0  0  0  0  0
   38.8850   32.1370   44.5370 O   0  0  0  0  0  0  0  0  0  0  0  0
   39.5620   31.9940   42.1730 C   0  0  0  0  0  0  0  0  0  0  0  0
   40.0990   31.1870   41.2040 C   0  0  0  0  0  0  0  0  0  0  0  0
   39.6540   31.7350   40.0220 C   0  0  0  0  0  0  0  0  0  0  0  0
   38.8800   32.8310   40.2710 N   0  0  0  0  0  0  0  0  0  0  0  0
   38.8490   32.9530   41.5800 N   0  0  0  0  0  0  0  0  0  0  0  0
   38.2140   33.7050   39.3660 C   0  0  0  0  0  0  0  0  0  0  0  0
   38.7510   34.0810   38.1430 C   0  0  0  0  0  0  0  0  0  0  0  0
   37.8880   34.9310   37.4820 C   0  0  0  0  0  0  0  0  0  0  0  0
   36.8370   35.0540   38.3220 N   0  0  0  0  0  0  0  0  0  0  0  0
   37.0300   34.3410   39.4150 N   0  0  0  0  0  0  0  0  0  0  0  0
   37.1610   31.3810   48.5990 C   0  0  0  0  0  0  0  0  0  0  0  0
   37.5320   32.4280   49.4750 C   0  0  0  0  0  0  0  0  0  0  0  0
   38.5440   33.2880   49.0420 C   0  0  0  0  0  0  0  0  0  0  0  0
   39.1010   33.0530   47.8070 N   0  0  0  0  0  0  0  0  0  0  0  0
   38.7110   32.0460   47.0190 C   0  0  0  0  0  0  0  0  0  0  0  0
   37.7330   31.1990   47.4110 N   0  0  0  0  0  0  0  0  0  0  0  0
   36.1060   30.4900   49.0560 C   0  0  0  0  0  0  0  0  0  0  0  0
   34.9040   30.7130   48.7550 O   0  0  0  0  0  0  0  0  0  0  0  0
   36.4480   29.3750   49.8410 O   0  0  0  0  0  0  0  0  0  0  0  0
   36.4930   29.4330   51.2320 C   0  0  0  0  0  0  0  0  0  0  0  0
   37.6690   29.7180   51.9490 N   0  0  0  0  0  0  0  0  0  0  0  0
   35.4000   29.2110   51.7840 O   0  0  0  0  0  0  0  0  0  0  0  0
   41.2596   30.9421   46.3786 H   0  0  0  0  0  0  0  0  0  0  0  0
   41.7983   30.8838   43.7176 H   0  0  0  0  0  0  0  0  0  0  0  0
   40.7395   30.3031   41.3398 H   0  0  0  0  0  0  0  0  0  0  0  0
   39.8887   31.3453   39.0205 H   0  0  0  0  0  0  0  0  0  0  0  0
   39.7255   33.7489   37.7557 H   0  0  0  0  0  0  0  0  0  0  0  0
   38.0245   35.4008   36.4968 H   0  0  0  0  0  0  0  0  0  0  0  0
   36.0007   35.6254   38.1349 H   0  0  0  0  0  0  0  0  0  0  0  0
   37.0456   32.5590   50.4529 H   0  0  0  0  0  0  0  0  0  0  0  0
   38.8842   34.1258   49.6685 H   0  0  0  0  0  0  0  0  0  0  0  0
   37.6498   29.7493   52.9783 H   0  0  0  0  0  0  0  0  0  0  0  0
   38.5494   29.8954   51.4447 H   0  0  0  0  0  0  0  0  0  0  0  0
  1 20  1  0
  2  1  2  0
  3  2  1  0
  4  3  2  0
  4  5  1  0
  5  1  1  0
  6  4  1  0
  7  6  1  0
  8  9  1  0
  8  7  2  0
  9 10  1  0
 10  6  2  0
 11 15  2  0
 11  9  1  0
 12 11  1  0
 13 12  2  0
 13 14  1  0
 14 15  1  0
 16 22  1  0
 16 17  2  0
 18 17  1  0
 19 18  2  0
 20 21  2  0
 20 19  1  0
 21 16  1  0
 22 24  1  0
 23 22  2  0
 24 25  1  0
 25 27  2  0
 25 26  1  0
  2 28  1  0
  3 29  1  0
  7 30  1  0
  8 31  1  0
 12 32  1  0
 13 33  1  0
 14 34  1  0
 17 35  1  0
 18 36  1  0
 26 37  1  0
 26 38  1  0
M  ISO  8  28  14  29  14  30  14  31  14  32  14  33  14  34   9  35  14
M  ISO  1  36  14
M  END
>  <minimizedAffinity>  (1) 
-6.2315383

>  <minimizedRMSD>  (1) 
0.788425148

$$$$
