
     RDKit          3D

 31 33  0  0  0  0  0  0  0  0999 V2000
   37.2600   31.4330   48.5280 C   0  0  0  0  0  0  0  0  0  0  0  0
   37.7170   32.4030   49.4480 C   0  0  0  0  0  0  0  0  0  0  0  0
   38.7000   33.2830   49.0010 C   0  0  0  0  0  0  0  0  0  0  0  0
   39.1510   33.1450   47.7070 N   0  0  0  0  0  0  0  0  0  0  0  0
   38.6800   32.2090   46.8830 C   0  0  0  0  0  0  0  0  0  0  0  0
   37.7170   31.3300   47.2860 N   0  0  0  0  0  0  0  0  0  0  0  0
   39.1860   32.1020   45.5250 C   0  0  0  0  0  0  0  0  0  0  0  0
   40.3760   31.4420   45.2170 C   0  0  0  0  0  0  0  0  0  0  0  0
   40.5640   31.5260   43.8340 C   0  0  0  0  0  0  0  0  0  0  0  0
   39.4610   32.2410   43.3920 C   0  0  0  0  0  0  0  0  0  0  0  0
   38.7010   32.5480   44.4060 O   0  0  0  0  0  0  0  0  0  0  0  0
   39.2120   32.5800   42.0320 N   0  0  0  0  0  0  0  0  0  0  0  0
   38.6910   33.7400   41.5760 C   0  0  0  0  0  0  0  0  0  0  0  0
   38.6220   33.6490   40.2090 C   0  0  0  0  0  0  0  0  0  0  0  0
   39.0890   32.4660   39.8370 N   0  0  0  0  0  0  0  0  0  0  0  0
   39.4520   31.8030   40.9490 C   0  0  0  0  0  0  0  0  0  0  0  0
   36.2220   30.5100   49.0110 C   0  0  0  0  0  0  0  0  0  0  0  0
   35.0070   30.7090   48.7080 O   0  0  0  0  0  0  0  0  0  0  0  0
   36.5980   29.4210   49.8040 O   0  0  0  0  0  0  0  0  0  0  0  0
   36.5590   29.4650   51.1930 C   0  0  0  0  0  0  0  0  0  0  0  0
   37.6960   29.7710   51.9890 N   0  0  0  0  0  0  0  0  0  0  0  0
   35.4340   29.2110   51.6730 O   0  0  0  0  0  0  0  0  0  0  0  0
   37.3150   32.4607   50.4703 H   0  0  0  0  0  0  0  0  0  0  0  0
   39.1038   34.0645   49.6615 H   0  0  0  0  0  0  0  0  0  0  0  0
   41.0462   30.9447   45.9337 H   0  0  0  0  0  0  0  0  0  0  0  0
   41.3932   31.1198   43.2362 H   0  0  0  0  0  0  0  0  0  0  0  0
   38.3795   34.5992   42.1881 H   0  0  0  0  0  0  0  0  0  0  0  0
   38.2418   34.4292   39.5332 H   0  0  0  0  0  0  0  0  0  0  0  0
   39.8771   30.7888   40.9750 H   0  0  0  0  0  0  0  0  0  0  0  0
   37.6156   29.7910   53.0157 H   0  0  0  0  0  0  0  0  0  0  0  0
   38.6004   29.9727   51.5392 H   0  0  0  0  0  0  0  0  0  0  0  0
  1 17  1  0
  1  2  2  0
  3  2  1  0
  4  3  2  0
  5  6  2  0
  5  4  1  0
  6  1  1  0
  7  5  1  0
  8  7  2  0
  9  8  1  0
 10  9  2  0
 10 11  1  0
 11  7  1  0
 12 10  1  0
 13 12  1  0
 14 13  2  0
 15 14  1  0
 15 16  2  0
 16 12  1  0
 17 19  1  0
 18 17  2  0
 19 20  1  0
 20 22  2  0
 20 21  1  0
  2 23  1  0
  3 24  1  0
  8 25  1  0
  9 26  1  0
 13 27  1  0
 14 28  1  0
 16 29  1  0
 21 30  1  0
 21 31  1  0
M  ISO  7  23  14  24  14  25  14  26  14  27  14  28  14  29  14
M  END
>  <minimizedAffinity>  (1) 
-5.74679804

>  <minimizedRMSD>  (1) 
0.828759372

$$$$
