
     RDKit          3D

 37 40  0  0  0  0  0  0  0  0999 V2000
   35.3020   29.2850   49.3720 C   0  0  0  0  0  0  0  0  0  0  0  0
   35.5740   30.2380   48.4150 C   0  0  0  0  0  0  0  0  0  0  0  0
   34.7020   30.3380   47.3270 C   0  0  0  0  0  0  0  0  0  0  0  0
   33.6360   29.4840   47.2830 N   0  0  0  0  0  0  0  0  0  0  0  0
   33.4050   28.5660   48.2400 C   0  0  0  0  0  0  0  0  0  0  0  0
   34.2410   28.4540   49.3050 N   0  0  0  0  0  0  0  0  0  0  0  0
   32.2330   27.8230   47.9340 N   0  0  0  0  0  0  0  0  0  0  0  0
   31.1890   27.7460   48.7780 C   0  0  0  0  0  0  0  0  0  0  0  0
   30.0700   27.0090   48.4270 C   0  0  0  0  0  0  0  0  0  0  0  0
   28.9110   26.9230   49.3620 C   0  0  0  0  0  0  0  0  0  0  0  0
   30.0720   26.3690   47.2030 C   0  0  0  0  0  0  0  0  0  0  0  0
   29.0750   25.6840   46.8380 O   0  0  0  0  0  0  0  0  0  0  0  0
   31.1100   26.4390   46.3520 N   0  0  0  0  0  0  0  0  0  0  0  0
   32.1740   27.1680   46.7370 C   0  0  0  0  0  0  0  0  0  0  0  0
   33.1810   27.2640   45.9660 O   0  0  0  0  0  0  0  0  0  0  0  0
   36.7370   31.0850   48.5740 C   0  0  0  0  0  0  0  0  0  0  0  0
   37.0080   31.7420   49.7570 C   0  0  0  0  0  0  0  0  0  0  0  0
   38.1750   32.5320   49.7680 C   0  0  0  0  0  0  0  0  0  0  0  0
   39.0000   32.6710   48.7190 N   0  0  0  0  0  0  0  0  0  0  0  0
   38.6810   32.0050   47.5910 C   0  0  0  0  0  0  0  0  0  0  0  0
   37.5670   31.2250   47.5180 N   0  0  0  0  0  0  0  0  0  0  0  0
   39.5240   32.1170   46.4490 N   0  0  0  0  0  0  0  0  0  0  0  0
   40.0920   33.1360   45.7690 C   0  0  0  0  0  0  0  0  0  0  0  0
   40.7990   32.5810   44.7490 N   0  0  0  0  0  0  0  0  0  0  0  0
   40.6430   31.2360   44.8350 C   0  0  0  0  0  0  0  0  0  0  0  0
   39.8460   30.9420   45.8980 N   0  0  0  0  0  0  0  0  0  0  0  0
   35.9823   29.1973   50.2319 H   0  0  0  0  0  0  0  0  0  0  0  0
   34.8685   31.0799   46.5321 H   0  0  0  0  0  0  0  0  0  0  0  0
   31.2236   28.2676   49.7459 H   0  0  0  0  0  0  0  0  0  0  0  0
   29.2744   26.9500   50.3999 H   0  0  0  0  0  0  0  0  0  0  0  0
   28.2355   27.7735   49.1878 H   0  0  0  0  0  0  0  0  0  0  0  0
   28.3684   25.9821   49.1878 H   0  0  0  0  0  0  0  0  0  0  0  0
   31.0920   25.9549   45.4430 H   0  0  0  0  0  0  0  0  0  0  0  0
   36.3536   31.6545   50.6369 H   0  0  0  0  0  0  0  0  0  0  0  0
   38.4253   33.0685   50.6951 H   0  0  0  0  0  0  0  0  0  0  0  0
   40.0003   34.2083   45.9965 H   0  0  0  0  0  0  0  0  0  0  0  0
   41.0907   30.4987   44.1524 H   0  0  0  0  0  0  0  0  0  0  0  0
  2 16  1  0
  2  1  2  0
  3  2  1  0
  4  3  2  0
  4  5  1  0
  5  6  2  0
  6  1  1  0
  7  5  1  0
  7  8  1  0
  9  8  2  0
  9 10  1  0
 11  9  1  0
 12 11  2  0
 13 14  1  0
 13 11  1  0
 14  7  1  0
 15 14  2  0
 16 17  2  0
 17 18  1  0
 19 18  2  0
 20 19  1  0
 21 20  2  0
 21 16  1  0
 22 20  1  0
 23 22  1  0
 24 25  1  0
 24 23  2  0
 25 26  2  0
 26 22  1  0
  1 27  1  0
  3 28  1  0
  8 29  1  0
 10 30  1  0
 10 31  1  0
 10 32  1  0
 13 33  1  0
 17 34  1  0
 18 35  1  0
 23 36  1  0
 25 37  1  0
M  END
>  <minimizedAffinity>  (1) 
-7.26275206

>  <minimizedRMSD>  (1) 
0.918068826

$$$$
