
     RDKit          3D

 43 47  0  0  0  0  0  0  0  0999 V2000
   37.9760   31.3040   44.3590 C   0  0  0  0  0  0  0  0  0  0  0  0
   38.3830   32.6100   44.1430 C   0  0  0  0  0  0  0  0  0  0  0  0
   39.3050   32.9690   43.2070 C   0  0  0  0  0  0  0  0  0  0  0  0
   39.8760   31.9970   42.4210 C   0  0  0  0  0  0  0  0  0  0  0  0
   39.4590   30.6760   42.6440 C   0  0  0  0  0  0  0  0  0  0  0  0
   38.5460   30.3580   43.5770 N   0  0  0  0  0  0  0  0  0  0  0  0
   40.0280   29.6370   41.8510 N   0  0  0  0  0  0  0  0  0  0  0  0
   40.0250   28.3180   42.1630 C   0  0  0  0  0  0  0  0  0  0  0  0
   40.6410   27.5940   41.2090 N   0  0  0  0  0  0  0  0  0  0  0  0
   41.0570   28.4540   40.2530 C   0  0  0  0  0  0  0  0  0  0  0  0
   41.7340   28.2300   39.0720 C   0  0  0  0  0  0  0  0  0  0  0  0
   42.0780   27.0700   38.7160 O   0  0  0  0  0  0  0  0  0  0  0  0
   42.0220   29.3030   38.2990 N   0  0  0  0  0  0  0  0  0  0  0  0
   41.6200   30.5270   38.7440 C   0  0  0  0  0  0  0  0  0  0  0  0
   41.9370   31.6380   37.9090 N   0  0  0  0  0  0  0  0  0  0  0  0
   40.9590   30.7640   39.8930 N   0  0  0  0  0  0  0  0  0  0  0  0
   40.6670   29.7120   40.6700 C   0  0  0  0  0  0  0  0  0  0  0  0
   36.3790   30.3040   47.5110 N   0  0  0  0  0  0  0  0  0  0  0  0
   35.1290   29.9820   47.0910 C   0  0  0  0  0  0  0  0  0  0  0  0
   34.7810   30.0840   45.7570 C   0  0  0  0  0  0  0  0  0  0  0  0
   35.7880   30.5250   44.9390 C   0  0  0  0  0  0  0  0  0  0  0  0
   35.5110   30.6350   43.6980 O   0  0  0  0  0  0  0  0  0  0  0  0
   37.0430   30.8590   45.2940 N   0  0  0  0  0  0  0  0  0  0  0  0
   37.2790   30.7230   46.6250 C   0  0  0  0  0  0  0  0  0  0  0  0
   38.4250   31.0110   47.0330 O   0  0  0  0  0  0  0  0  0  0  0  0
   36.8580   31.3940   49.5370 C   0  0  0  0  0  0  0  0  0  0  0  0
   36.6670   30.1790   48.8710 C   0  0  0  0  0  0  0  0  0  0  0  0
   36.7900   29.0030   49.6080 C   0  0  0  0  0  0  0  0  0  0  0  0
   37.0850   29.0550   50.9240 N   0  0  0  0  0  0  0  0  0  0  0  0
   37.2680   30.2580   51.5450 C   0  0  0  0  0  0  0  0  0  0  0  0
   37.1510   31.4270   50.8390 N   0  0  0  0  0  0  0  0  0  0  0  0
   37.9365   33.4020   44.7622 H   0  0  0  0  0  0  0  0  0  0  0  0
   39.5892   34.0242   43.0817 H   0  0  0  0  0  0  0  0  0  0  0  0
   40.6245   32.2430   41.6534 H   0  0  0  0  0  0  0  0  0  0  0  0
   39.5785   27.8948   43.0749 H   0  0  0  0  0  0  0  0  0  0  0  0
   42.5265   29.1985   37.4071 H   0  0  0  0  0  0  0  0  0  0  0  0
   41.6600   32.5893   38.1904 H   0  0  0  0  0  0  0  0  0  0  0  0
   42.4430   31.4894   37.0243 H   0  0  0  0  0  0  0  0  0  0  0  0
   34.3833   29.6354   47.8216 H   0  0  0  0  0  0  0  0  0  0  0  0
   33.7778   29.8318   45.3828 H   0  0  0  0  0  0  0  0  0  0  0  0
   36.7653   32.3374   48.9790 H   0  0  0  0  0  0  0  0  0  0  0  0
   36.6463   28.0297   49.1160 H   0  0  0  0  0  0  0  0  0  0  0  0
   37.5106   30.2886   52.6175 H   0  0  0  0  0  0  0  0  0  0  0  0
  1 23  1  0
  2  1  2  0
  3  2  1  0
  4  5  1  0
  4  3  2  0
  5  6  2  0
  6  1  1  0
  7  8  1  0
  7  5  1  0
  9  8  2  0
 10 17  2  0
 10  9  1  0
 11 10  1  0
 12 11  2  0
 13 14  1  0
 13 11  1  0
 14 16  2  0
 15 14  1  0
 16 17  1  0
 17  7  1  0
 18 27  1  0
 19 18  1  0
 20 19  2  0
 21 23  1  0
 21 20  1  0
 22 21  2  0
 23 24  1  0
 24 25  2  0
 24 18  1  0
 26 31  2  0
 27 26  1  0
 27 28  2  0
 28 29  1  0
 29 30  2  0
 31 30  1  0
  2 32  1  0
  3 33  1  0
  4 34  1  0
  8 35  1  0
 13 36  1  0
 15 37  1  0
 15 38  1  0
 19 39  1  0
 20 40  1  0
 26 41  1  0
 28 42  1  0
 30 43  1  0
M  ISO  8  32  14  33  14  34  14  35  14  36   9  39  14  40  14  41  14
M  ISO  2  42  14  43  14
M  END
>  <minimizedAffinity>  (1) 
-6.31272364

>  <minimizedRMSD>  (1) 
0.861705422

$$$$
