
     RDKit          3D

 43 46  0  0  1  0  0  0  0  0999 V2000
   39.3950   31.2400   46.6280 C   0  0  2  0  0  0  0  0  0  0  0  0
   40.0220   32.4330   46.1040 C   0  0  0  0  0  0  0  0  0  0  0  0
   40.9870   32.1870   44.9910 C   0  0  0  0  0  0  0  0  0  0  0  0
   40.4720   31.2680   43.9550 C   0  0  0  0  0  0  0  0  0  0  0  0
   39.7290   30.1190   44.4660 C   0  0  0  0  0  0  0  0  0  0  0  0
   38.6730   30.5110   45.5630 C   0  0  2  0  0  0  0  0  0  0  0  0
   38.3950   32.7280   48.4730 C   0  0  0  0  0  0  0  0  0  0  0  0
   38.5190   31.4780   47.7720 C   0  0  0  0  0  0  0  0  0  0  0  0
   37.7710   30.4260   48.1680 C   0  0  0  0  0  0  0  0  0  0  0  0
   36.9210   30.6110   49.2330 N   0  0  0  0  0  0  0  0  0  0  0  0
   36.8230   31.8190   49.8880 C   0  0  0  0  0  0  0  0  0  0  0  0
   37.5780   32.8880   49.4900 N   0  0  0  0  0  0  0  0  0  0  0  0
   37.6820   31.3230   44.8650 C   0  0  0  0  0  0  0  0  0  0  0  0
   37.4890   32.5800   45.0160 O   0  0  0  0  0  0  0  0  0  0  0  0
   36.9160   30.6300   43.9880 O   0  0  0  0  0  0  0  0  0  0  0  0
   35.7220   31.2330   43.5030 C   0  0  0  0  0  0  0  0  0  0  0  0
   34.4520   30.7290   43.8270 C   0  0  0  0  0  0  0  0  0  0  0  0
   33.5800   31.5680   43.1820 C   0  0  0  0  0  0  0  0  0  0  0  0
   34.2730   32.5250   42.5040 N   0  0  0  0  0  0  0  0  0  0  0  0
   35.5560   32.2940   42.7180 N   0  0  0  0  0  0  0  0  0  0  0  0
   33.7970   33.6330   41.6740 C   0  0  0  0  0  0  0  0  0  0  0  0
   33.5780   34.9380   42.4020 C   0  0  0  0  0  0  0  0  0  0  0  0
   34.6990   34.7820   41.4280 C   0  0  0  0  0  0  0  0  0  0  0  0
   40.2192   30.6165   47.0048 H   0  0  0  0  0  0  0  0  0  0  0  0
   39.2316   33.1016   45.7321 H   0  0  0  0  0  0  0  0  0  0  0  0
   40.6018   32.8706   46.9301 H   0  0  0  0  0  0  0  0  0  0  0  0
   41.2225   33.1505   44.5154 H   0  0  0  0  0  0  0  0  0  0  0  0
   41.8748   31.7108   45.4326 H   0  0  0  0  0  0  0  0  0  0  0  0
   41.3283   30.8912   43.3764 H   0  0  0  0  0  0  0  0  0  0  0  0
   39.7610   31.8512   43.3513 H   0  0  0  0  0  0  0  0  0  0  0  0
   39.2023   29.6405   43.6271 H   0  0  0  0  0  0  0  0  0  0  0  0
   40.4551   29.4390   44.9353 H   0  0  0  0  0  0  0  0  0  0  0  0
   38.1641   29.6637   46.0458 H   0  0  0  0  0  0  0  0  0  0  0  0
   39.0067   33.5817   48.1457 H   0  0  0  0  0  0  0  0  0  0  0  0
   37.8392   29.4546   47.6564 H   0  0  0  0  0  0  0  0  0  0  0  0
   36.1323   31.9247   50.7376 H   0  0  0  0  0  0  0  0  0  0  0  0
   34.2113   29.8589   44.4554 H   0  0  0  0  0  0  0  0  0  0  0  0
   32.4837   31.4812   43.2082 H   0  0  0  0  0  0  0  0  0  0  0  0
   33.2094   32.9755   41.0165 H   0  0  0  0  0  0  0  0  0  0  0  0
   32.7138   35.5713   42.1529 H   0  0  0  0  0  0  0  0  0  0  0  0
   33.4928   35.2422   43.4557 H   0  0  0  0  0  0  0  0  0  0  0  0
   35.7374   34.7496   41.7895 H   0  0  0  0  0  0  0  0  0  0  0  0
   35.0240   35.3298   40.5312 H   0  0  0  0  0  0  0  0  0  0  0  0
  1  8  1  0
  2  1  1  0
  3  2  1  0
  4  5  1  0
  4  3  1  0
  5  6  1  0
  6  1  1  0
  7 12  2  0
  8  9  2  0
  8  7  1  0
  9 10  1  0
 10 11  2  0
 12 11  1  0
 13 14  2  0
 13  6  1  0
 15 13  1  0
 16 17  1  0
 16 15  1  0
 18 17  2  0
 19 20  1  0
 19 18  1  0
 20 16  2  0
 21 22  1  0
 21 19  1  0
 23 21  1  0
 23 22  1  0
  1 24  1  1
  2 25  1  0
  2 26  1  0
  3 27  1  0
  3 28  1  0
  4 29  1  0
  4 30  1  0
  5 31  1  0
  5 32  1  0
  6 33  1  1
  7 34  1  0
  9 35  1  0
 11 36  1  0
 17 37  1  0
 18 38  1  0
 21 39  1  0
 22 40  1  0
 22 41  1  0
 23 42  1  0
 23 43  1  0
M  ISO  8  24  13  25  13  26  13  27  13  28  13  29  13  30  13  31  13
M  ISO  8  32  13  33  13  34  14  35  14  36  14  37  14  38  14  39  13
M  ISO  4  40  13  41  13  42  13  43  13
M  END
>  <minimizedAffinity>  (1) 
-5.26616669

>  <minimizedRMSD>  (1) 
1.5998466

$$$$
