
     RDKit          3D

 44 47  0  0  0  0  0  0  0  0999 V2000
   37.0140   30.5560   50.1620 C   0  0  0  0  0  0  0  0  0  0  0  0
   35.7560   28.4840   49.7950 C   0  0  0  0  0  0  0  0  0  0  0  0
   35.8240   29.8860   49.8150 C   0  0  0  0  0  0  0  0  0  0  0  0
   34.6870   30.5660   49.4580 C   0  0  0  0  0  0  0  0  0  0  0  0
   33.5550   29.8990   49.1040 N   0  0  0  0  0  0  0  0  0  0  0  0
   33.5180   28.5630   49.0910 C   0  0  0  0  0  0  0  0  0  0  0  0
   34.5940   27.9000   49.4310 N   0  0  0  0  0  0  0  0  0  0  0  0
   32.3000   27.8420   48.7080 C   0  0  0  0  0  0  0  0  0  0  0  0
   32.1880   27.3080   47.5760 O   0  0  0  0  0  0  0  0  0  0  0  0
   31.2290   27.7230   49.5770 O   0  0  0  0  0  0  0  0  0  0  0  0
   26.7260   27.5390   50.3850 N   0  0  0  0  0  0  0  0  0  0  0  0
   27.4030   26.9960   51.4140 C   0  0  0  0  0  0  0  0  0  0  0  0
   28.7370   27.0510   51.1740 N   0  0  0  0  0  0  0  0  0  0  0  0
   28.9040   27.6430   49.9630 C   0  0  0  0  0  0  0  0  0  0  0  0
   29.9410   28.0000   49.1400 C   0  0  0  0  0  0  0  0  0  0  0  0
   29.7020   28.5880   47.9760 N   0  0  0  0  0  0  0  0  0  0  0  0
   28.4830   28.8810   47.5020 C   0  0  0  0  0  0  0  0  0  0  0  0
   27.4700   28.5400   48.2900 N   0  0  0  0  0  0  0  0  0  0  0  0
   27.6310   27.9480   49.4710 C   0  0  0  0  0  0  0  0  0  0  0  0
   37.1360   31.8790   49.5110 C   0  0  0  0  0  0  0  0  0  0  0  0
   37.9030   31.7020   48.2570 C   0  0  0  0  0  0  0  0  0  0  0  0
   37.8490   30.5260   47.5920 C   0  0  0  0  0  0  0  0  0  0  0  0
   38.6110   30.3520   46.4340 C   0  0  0  0  0  0  0  0  0  0  0  0
   39.3830   31.3900   46.0190 N   0  0  0  0  0  0  0  0  0  0  0  0
   39.4180   32.5330   46.6860 C   0  0  0  0  0  0  0  0  0  0  0  0
   38.6950   32.7260   47.8060 N   0  0  0  0  0  0  0  0  0  0  0  0
   40.2500   33.6600   46.2030 C   0  0  0  0  0  0  0  0  0  0  0  0
   40.1490   33.7580   44.6640 C   0  0  0  0  0  0  0  0  0  0  0  0
   37.0327   30.6976   51.2527 H   0  0  0  0  0  0  0  0  0  0  0  0
   37.8558   29.9375   49.8171 H   0  0  0  0  0  0  0  0  0  0  0  0
   36.6297   27.8747   50.0697 H   0  0  0  0  0  0  0  0  0  0  0  0
   34.6906   31.6660   49.4580 H   0  0  0  0  0  0  0  0  0  0  0  0
   25.7026   27.6265   50.3089 H   0  0  0  0  0  0  0  0  0  0  0  0
   26.9420   26.5700   52.3173 H   0  0  0  0  0  0  0  0  0  0  0  0
   28.3322   29.3698   46.5282 H   0  0  0  0  0  0  0  0  0  0  0  0
   36.1360   32.2772   49.2841 H   0  0  0  0  0  0  0  0  0  0  0  0
   37.6504   32.5871   50.1773 H   0  0  0  0  0  0  0  0  0  0  0  0
   37.2088   29.7110   47.9606 H   0  0  0  0  0  0  0  0  0  0  0  0
   38.5866   29.4044   45.8759 H   0  0  0  0  0  0  0  0  0  0  0  0
   39.8929   34.5978   46.6536 H   0  0  0  0  0  0  0  0  0  0  0  0
   41.2981   33.4888   46.4897 H   0  0  0  0  0  0  0  0  0  0  0  0
   39.3838   34.5004   44.3933 H   0  0  0  0  0  0  0  0  0  0  0  0
   41.1211   34.0662   44.2516 H   0  0  0  0  0  0  0  0  0  0  0  0
   39.8702   32.7771   44.2516 H   0  0  0  0  0  0  0  0  0  0  0  0
  2  3  2  0
  3  1  1  0
  4  3  1  0
  5  4  2  0
  6  5  1  0
  6  7  2  0
  7  2  1  0
  8  6  1  0
  8 10  1  0
  9  8  2  0
 11 12  1  0
 13 12  2  0
 14 13  1  0
 15 10  1  0
 15 14  2  0
 16 15  1  0
 17 16  2  0
 17 18  1  0
 18 19  2  0
 19 14  1  0
 19 11  1  0
 20  1  1  0
 21 20  1  0
 22 21  2  0
 23 22  1  0
 24 23  2  0
 24 25  1  0
 25 26  2  0
 26 21  1  0
 27 25  1  0
 28 27  1  0
  1 29  1  0
  1 30  1  0
  2 31  1  0
  4 32  1  0
 11 33  1  0
 12 34  1  0
 17 35  1  0
 20 36  1  0
 20 37  1  0
 22 38  1  0
 23 39  1  0
 27 40  1  0
 27 41  1  0
 28 42  1  0
 28 43  1  0
 28 44  1  0
M  ISO  8  29   8  30   8  31  14  32  14  33   9  34  14  35  14  36   8
M  ISO  8  37   8  38  14  39  14  40   8  41   8  42   8  43   8  44   8
M  END
>  <minimizedAffinity>  (1) 
-6.3720026

>  <minimizedRMSD>  (1) 
1.73201215

$$$$
