
     RDKit          3D

 51 55  0  0  0  0  0  0  0  0999 V2000
   36.1030   30.8700   42.6160 C   0  0  0  0  0  0  0  0  0  0  0  0
   37.3250   30.7260   41.9290 C   0  0  0  0  0  0  0  0  0  0  0  0
   38.4520   30.5830   42.6850 C   0  0  0  0  0  0  0  0  0  0  0  0
   38.2820   30.5940   44.0000 N   0  0  0  0  0  0  0  0  0  0  0  0
   37.2120   30.7180   44.7040 C   0  0  0  0  0  0  0  0  0  0  0  0
   36.1290   30.8570   43.9470 N   0  0  0  0  0  0  0  0  0  0  0  0
   36.9250   30.7420   46.1180 C   0  0  0  0  0  0  0  0  0  0  0  0
   35.9230   29.9850   46.7150 C   0  0  0  0  0  0  0  0  0  0  0  0
   35.6220   29.9810   48.0400 C   0  0  0  0  0  0  0  0  0  0  0  0
   36.3280   30.7650   48.8970 C   0  0  0  0  0  0  0  0  0  0  0  0
   37.3130   31.5230   48.3880 C   0  0  0  0  0  0  0  0  0  0  0  0
   38.0360   32.3230   49.2620 C   0  0  0  0  0  0  0  0  0  0  0  0
   39.0500   33.1190   48.8310 C   0  0  0  0  0  0  0  0  0  0  0  0
   39.3540   33.1190   47.4760 C   0  0  0  0  0  0  0  0  0  0  0  0
   38.6210   32.3200   46.6440 C   0  0  0  0  0  0  0  0  0  0  0  0
   37.6120   31.5210   47.0450 C   0  0  0  0  0  0  0  0  0  0  0  0
   36.0040   30.7440   50.2380 O   0  0  0  0  0  0  0  0  0  0  0  0
   36.4760   29.7050   51.0800 C   0  0  0  0  0  0  0  0  0  0  0  0
   37.2810   28.7900   50.4810 F   0  0  0  0  0  0  0  0  0  0  0  0
   37.2410   30.3000   52.0760 F   0  0  0  0  0  0  0  0  0  0  0  0
   35.3420   29.0980   51.6130 F   0  0  0  0  0  0  0  0  0  0  0  0
   37.4220   30.7260   40.5110 N   0  0  0  0  0  0  0  0  0  0  0  0
   37.9210   29.8350   39.6440 C   0  0  0  0  0  0  0  0  0  0  0  0
   37.7540   30.3450   38.4110 N   0  0  0  0  0  0  0  0  0  0  0  0
   37.1500   31.5560   38.5030 C   0  0  0  0  0  0  0  0  0  0  0  0
   36.7710   32.4590   37.5260 C   0  0  0  0  0  0  0  0  0  0  0  0
   36.9440   32.2770   36.3100 O   0  0  0  0  0  0  0  0  0  0  0  0
   36.1750   33.6160   37.8810 N   0  0  0  0  0  0  0  0  0  0  0  0
   35.9790   33.8310   39.1960 C   0  0  0  0  0  0  0  0  0  0  0  0
   35.3560   35.0180   39.7210 N   0  0  0  0  0  0  0  0  0  0  0  0
   36.3330   32.9780   40.1640 N   0  0  0  0  0  0  0  0  0  0  0  0
   36.9320   31.8120   39.8490 C   0  0  0  0  0  0  0  0  0  0  0  0
   39.7520   30.4150   42.1430 N   0  0  0  0  0  0  0  0  0  0  0  0
   40.8560   29.9850   42.9250 C   0  0  0  0  0  0  0  0  0  0  0  0
   40.9570   30.4560   44.1200 N   0  0  0  0  0  0  0  0  0  0  0  0
   41.8050   29.0750   42.4070 N   0  0  0  0  0  0  0  0  0  0  0  0
   41.6750   30.2380   44.8100 H   0  0  0  0  0  0  0  0  0  0  0  0
   35.1562   30.9895   42.0690 H   0  0  0  0  0  0  0  0  0  0  0  0
   35.3241   29.3352   46.0600 H   0  0  0  0  0  0  0  0  0  0  0  0
   34.8085   29.3445   48.4184 H   0  0  0  0  0  0  0  0  0  0  0  0
   37.7816   32.3125   50.3321 H   0  0  0  0  0  0  0  0  0  0  0  0
   39.6146   33.7463   49.5365 H   0  0  0  0  0  0  0  0  0  0  0  0
   40.1660   33.7475   47.0814 H   0  0  0  0  0  0  0  0  0  0  0  0
   38.8717   32.3296   45.5730 H   0  0  0  0  0  0  0  0  0  0  0  0
   38.3811   28.8676   39.8938 H   0  0  0  0  0  0  0  0  0  0  0  0
   35.8819   34.3066   37.1753 H   0  0  0  0  0  0  0  0  0  0  0  0
   35.2323   35.1281   40.7376 H   0  0  0  0  0  0  0  0  0  0  0  0
   35.0340   35.7572   39.0800 H   0  0  0  0  0  0  0  0  0  0  0  0
   39.9008   30.6127   41.1432 H   0  0  0  0  0  0  0  0  0  0  0  0
   42.6001   28.7735   42.9883 H   0  0  0  0  0  0  0  0  0  0  0  0
   41.7016   28.7132   41.4482 H   0  0  0  0  0  0  0  0  0  0  0  0
  1  6  2  0
  2  1  1  0
  2  3  2  0
  3  4  1  0
  4  5  2  0
  5  7  1  0
  6  5  1  0
  7  8  2  0
  7 16  1  0
  8  9  1  0
  9 10  2  0
 10 17  1  0
 11 10  1  0
 11 12  2  0
 13 12  1  0
 14 13  2  0
 15 16  2  0
 15 14  1  0
 16 11  1  0
 17 18  1  0
 18 21  1  0
 18 20  1  0
 19 18  1  0
 22  2  1  0
 23 22  1  0
 24 25  1  0
 24 23  2  0
 25 32  2  0
 26 28  1  0
 26 25  1  0
 27 26  2  0
 28 29  1  0
 29 30  1  0
 29 31  2  0
 32 31  1  0
 32 22  1  0
 33  3  1  0
 33 34  1  0
 34 35  2  0
 35 37  1  0
 36 34  1  0
  1 38  1  0
  8 39  1  0
  9 40  1  0
 12 41  1  0
 13 42  1  0
 14 43  1  0
 15 44  1  0
 23 45  1  0
 28 46  1  0
 30 47  1  0
 30 48  1  0
 33 49  1  0
 36 50  1  0
 36 51  1  0
M  END
>  <minimizedAffinity>  (1) 
-7.7347517

>  <minimizedRMSD>  (1) 
0.648357511

$$$$
