
     RDKit          3D

 42 44  0  0  0  0  0  0  0  0999 V2000
   38.1240   31.8300   45.8930 N   0  0  0  0  0  0  0  0  0  0  0  0
   39.2140   32.5850   45.8440 C   0  0  0  0  0  0  0  0  0  0  0  0
   39.7320   33.1640   44.7170 C   0  0  0  0  0  0  0  0  0  0  0  0
   39.1130   32.9800   43.5160 C   0  0  0  0  0  0  0  0  0  0  0  0
   39.5310   33.4770   42.4520 O   0  0  0  0  0  0  0  0  0  0  0  0
   38.0230   32.2310   43.5290 N   0  0  0  0  0  0  0  0  0  0  0  0
   37.5460   31.6810   44.6600 C   0  0  0  0  0  0  0  0  0  0  0  0
   36.4960   30.9850   44.5480 O   0  0  0  0  0  0  0  0  0  0  0  0
   37.3300   32.0100   42.2610 C   0  0  0  0  0  0  0  0  0  0  0  0
   36.8080   33.2880   41.6540 C   0  0  0  0  0  0  0  0  0  0  0  0
   35.6970   32.8550   40.6880 C   0  0  0  0  0  0  0  0  0  0  0  0
   35.8970   31.4470   40.2030 C   0  0  0  0  0  0  0  0  0  0  0  0
   37.3390   31.0560   40.0320 C   0  0  0  0  0  0  0  0  0  0  0  0
   38.1900   31.3080   41.2440 C   0  0  0  0  0  0  0  0  0  0  0  0
   37.5180   31.1980   46.9910 C   0  0  0  0  0  0  0  0  0  0  0  0
   38.2270   31.1950   48.2980 C   0  0  0  0  0  0  0  0  0  0  0  0
   35.6700   29.1940   50.2510 C   0  0  0  0  0  0  0  0  0  0  0  0
   36.3320   29.7970   49.1640 C   0  0  0  0  0  0  0  0  0  0  0  0
   37.4740   30.5320   49.3740 C   0  0  0  0  0  0  0  0  0  0  0  0
   37.9120   30.6380   50.6580 N   0  0  0  0  0  0  0  0  0  0  0  0
   37.2970   30.0740   51.6850 C   0  0  0  0  0  0  0  0  0  0  0  0
   36.1830   29.3550   51.4950 N   0  0  0  0  0  0  0  0  0  0  0  0
   39.7470   32.7607   46.7901 H   0  0  0  0  0  0  0  0  0  0  0  0
   40.6442   33.7755   44.7799 H   0  0  0  0  0  0  0  0  0  0  0  0
   36.4789   31.3620   42.5174 H   0  0  0  0  0  0  0  0  0  0  0  0
   36.4032   33.9481   42.4353 H   0  0  0  0  0  0  0  0  0  0  0  0
   37.6010   33.8510   41.1401 H   0  0  0  0  0  0  0  0  0  0  0  0
   34.7291   32.9188   41.2068 H   0  0  0  0  0  0  0  0  0  0  0  0
   35.7225   33.5242   39.8153 H   0  0  0  0  0  0  0  0  0  0  0  0
   35.4373   30.7622   40.9309 H   0  0  0  0  0  0  0  0  0  0  0  0
   35.4312   31.3847   39.2085 H   0  0  0  0  0  0  0  0  0  0  0  0
   37.3804   29.9820   39.7979 H   0  0  0  0  0  0  0  0  0  0  0  0
   37.7441   31.6826   39.2237 H   0  0  0  0  0  0  0  0  0  0  0  0
   38.5530   30.3537   41.6533 H   0  0  0  0  0  0  0  0  0  0  0  0
   39.0637   31.9235   40.9835 H   0  0  0  0  0  0  0  0  0  0  0  0
   36.5471   31.6895   47.1513 H   0  0  0  0  0  0  0  0  0  0  0  0
   37.4876   30.1368   46.7030 H   0  0  0  0  0  0  0  0  0  0  0  0
   39.1868   30.6725   48.1720 H   0  0  0  0  0  0  0  0  0  0  0  0
   38.3591   32.2455   48.5962 H   0  0  0  0  0  0  0  0  0  0  0  0
   34.7549   28.6042   50.0935 H   0  0  0  0  0  0  0  0  0  0  0  0
   35.9343   29.6794   48.1452 H   0  0  0  0  0  0  0  0  0  0  0  0
   37.7028   30.1963   52.7001 H   0  0  0  0  0  0  0  0  0  0  0  0
  1 15  1  0
  2  1  1  0
  3  2  2  0
  4  6  1  0
  4  3  1  0
  5  4  2  0
  6  7  1  0
  7  1  1  0
  8  7  2  0
  9  6  1  0
 10  9  1  0
 11 10  1  0
 12 11  1  0
 13 12  1  0
 13 14  1  0
 14  9  1  0
 15 16  1  0
 16 19  1  0
 17 22  2  0
 18 19  2  0
 18 17  1  0
 19 20  1  0
 20 21  2  0
 22 21  1  0
  2 23  1  0
  3 24  1  0
  9 25  1  0
 10 26  1  0
 10 27  1  0
 11 28  1  0
 11 29  1  0
 12 30  1  0
 12 31  1  0
 13 32  1  0
 13 33  1  0
 14 34  1  0
 14 35  1  0
 15 36  1  0
 15 37  1  0
 16 38  1  0
 16 39  1  0
 17 40  1  0
 18 41  1  0
 21 42  1  0
M  ISO  8  23  14  24  14  25  13  26  13  27  13  28  13  29  13  30  13
M  ISO  8  31  13  32  13  33  13  34  13  35  13  36   8  37   8  38   8
M  ISO  4  39   8  40  14  41  14  42  14
M  END
>  <minimizedAffinity>  (1) 
-5.20437193

>  <minimizedRMSD>  (1) 
1.38601279

$$$$
