
     RDKit          3D

 41 44  0  0  0  0  0  0  0  0999 V2000
   36.4208   30.9563   48.7399 N   0  0  0  0  0  0  0  0  0  0  0  0
   36.3942   31.7322   49.8639 C   0  0  0  0  0  0  0  0  0  0  0  0
   37.3689   32.6620   49.7726 N   0  0  0  0  0  0  0  0  0  0  0  0
   37.9862   32.4602   48.6079 C   0  0  0  0  0  0  0  0  0  0  0  0
   39.0392   33.0767   47.9640 C   0  0  0  0  0  0  0  0  0  0  0  0
   39.4697   32.6645   46.7697 N   0  0  0  0  0  0  0  0  0  0  0  0
   38.8993   31.6223   46.1271 C   0  0  0  0  0  0  0  0  0  0  0  0
   37.8693   31.0196   46.7574 N   0  0  0  0  0  0  0  0  0  0  0  0
   37.4071   31.3968   47.9472 C   0  0  0  0  0  0  0  0  0  0  0  0
   39.6816   34.1778   48.5993 N   0  0  0  0  0  0  0  0  0  0  0  0
   34.6664   29.9824   47.3837 C   0  0  0  0  0  0  0  0  0  0  0  0
   35.5267   29.8768   48.5038 C   0  0  0  0  0  0  0  0  0  0  0  0
   35.4291   28.7361   49.2774 C   0  0  0  0  0  0  0  0  0  0  0  0
   34.5229   27.7876   48.9256 N   0  0  0  0  0  0  0  0  0  0  0  0
   33.7154   27.8900   47.8718 C   0  0  0  0  0  0  0  0  0  0  0  0
   33.7998   28.9859   47.1173 N   0  0  0  0  0  0  0  0  0  0  0  0
   32.7348   26.8472   47.5036 C   0  0  0  0  0  0  0  0  0  0  0  0
   31.5436   26.9011   48.4398 C   0  0  0  0  0  0  0  0  0  0  0  0
   32.1510   27.1286   46.1125 C   0  0  0  0  0  0  0  0  0  0  0  0
   33.3350   25.4757   47.4456 C   0  0  0  0  0  0  0  0  0  0  0  0
   35.7285   31.6728   50.7321 H   0  0  0  0  0  0  0  0  0  0  0  0
   39.2850   31.3234   45.1565 H   0  0  0  0  0  0  0  0  0  0  0  0
   40.6075   34.5396   48.2774 H   0  0  0  0  0  0  0  0  0  0  0  0
   39.2723   34.6763   49.4067 H   0  0  0  0  0  0  0  0  0  0  0  0
   34.7196   30.8658   46.7576 H   0  0  0  0  0  0  0  0  0  0  0  0
   36.0875   28.6579   50.1325 H   0  0  0  0  0  0  0  0  0  0  0  0
   30.7949   27.6273   48.0765 H   0  0  0  0  0  0  0  0  0  0  0  0
   31.0732   25.8986   48.3972 H   0  0  0  0  0  0  0  0  0  0  0  0
   31.9066   27.1072   49.4654 H   0  0  0  0  0  0  0  0  0  0  0  0
   32.9382   27.3896   45.4065 H   0  0  0  0  0  0  0  0  0  0  0  0
   31.5418   28.0692   46.2484 H   0  0  0  0  0  0  0  0  0  0  0  0
   31.4956   26.2988   45.8339 H   0  0  0  0  0  0  0  0  0  0  0  0
   32.5679   24.7423   47.2124 H   0  0  0  0  0  0  0  0  0  0  0  0
   33.7882   25.2411   48.4367 H   0  0  0  0  0  0  0  0  0  0  0  0
   34.4235   25.5300   46.4014 C   0  0  0  0  0  0  0  0  0  0  0  0
   34.8696   26.7812   45.9715 C   0  0  0  0  0  0  0  0  0  0  0  0
   36.1208   26.4181   44.7721 S   0  0  0  0  0  0  0  0  0  0  0  0
   35.8624   24.5316   45.0229 C   0  0  0  0  0  0  0  0  0  0  0  0
   36.2743   23.4723   44.6297 H   0  0  0  0  0  0  0  0  0  0  0  0
   35.0325   24.5255   45.8189 N   0  0  0  0  0  0  0  0  0  0  0  0
   34.5500   27.7683   46.2765 H   0  0  0  0  0  0  0  0  0  0  0  0
  1  2  1  0
  3  2  2  0
  4  3  1  0
  5 10  1  0
  5  4  2  0
  6  5  1  0
  7  8  1  0
  7  6  2  0
  8  9  2  0
  9  4  1  0
  9  1  1  0
 11 12  2  0
 12  1  1  0
 12 13  1  0
 14 13  2  0
 15 14  1  0
 16 11  1  0
 16 15  2  0
 17 15  1  0
 17 18  1  0
 19 17  1  0
 20 17  1  0
  2 21  1  0
  7 22  1  0
 10 23  1  0
 10 24  1  0
 11 25  1  0
 13 26  1  0
 18 27  1  0
 18 28  1  0
 18 29  1  0
 19 30  1  0
 19 31  1  0
 19 32  1  0
 20 33  1  0
 20 34  1  0
 35 36  2  0
 36 37  1  0
 37 38  1  0
 38 39  1  0
 38 40  2  0
 40 35  1  0
 36 41  1  0
 20 35  1  0
M  ISO  8  21  14  22  14  25  14  26  14  27   8  28   8  29   8  30   8
M  ISO  5  31   8  32   8  33   8  34   8  39  14
M  END
>  <DihAtoms>  (1) 
16,19,34,35

>  <DihDeg>  (1) 
-89.99385943063284

$$$$
