
     RDKit          3D

 28 30  0  0  0  0  0  0  0  0999 V2000
   38.6460   32.1320   47.8690 C   0  0  0  0  0  0  0  0  0  0  0  0
   38.9890   32.9780   48.7570 O   0  0  0  0  0  0  0  0  0  0  0  0
   37.5000   31.2130   48.0610 C   0  0  0  0  0  0  0  0  0  0  0  0
   36.7520   30.9710   46.9130 C   0  0  0  0  0  0  0  0  0  0  0  0
   35.6500   30.1450   46.8580 C   0  0  0  0  0  0  0  0  0  0  0  0
   35.2650   29.5200   48.0190 C   0  0  0  0  0  0  0  0  0  0  0  0
   35.9970   29.7500   49.1650 C   0  0  0  0  0  0  0  0  0  0  0  0
   35.6790   29.1610   50.3820 C   0  0  0  0  0  0  0  0  0  0  0  0
   36.4100   29.3900   51.5430 C   0  0  0  0  0  0  0  0  0  0  0  0
   37.5110   30.2410   51.5070 C   0  0  0  0  0  0  0  0  0  0  0  0
   37.8580   30.8440   50.3160 C   0  0  0  0  0  0  0  0  0  0  0  0
   37.0960   30.5800   49.1990 C   0  0  0  0  0  0  0  0  0  0  0  0
   39.3520   31.9960   46.5950 C   0  0  0  0  0  0  0  0  0  0  0  0
   39.7450   33.1730   45.9600 C   0  0  0  0  0  0  0  0  0  0  0  0
   40.4220   33.0420   44.7380 C   0  0  0  0  0  0  0  0  0  0  0  0
   40.6450   31.7920   44.2660 N   0  0  0  0  0  0  0  0  0  0  0  0
   40.2500   30.6900   44.9090 C   0  0  0  0  0  0  0  0  0  0  0  0
   39.6040   30.7700   46.0710 N   0  0  0  0  0  0  0  0  0  0  0  0
   37.0616   31.4738   45.9849 H   0  0  0  0  0  0  0  0  0  0  0  0
   35.0988   29.9918   45.9185 H   0  0  0  0  0  0  0  0  0  0  0  0
   34.3921   28.8508   48.0344 H   0  0  0  0  0  0  0  0  0  0  0  0
   34.8126   28.4850   50.4297 H   0  0  0  0  0  0  0  0  0  0  0  0
   36.1196   28.9012   52.4847 H   0  0  0  0  0  0  0  0  0  0  0  0
   38.0976   30.4304   52.4180 H   0  0  0  0  0  0  0  0  0  0  0  0
   38.7236   31.5204   50.2593 H   0  0  0  0  0  0  0  0  0  0  0  0
   39.5339   34.1601   46.3972 H   0  0  0  0  0  0  0  0  0  0  0  0
   40.7613   33.9273   44.1803 H   0  0  0  0  0  0  0  0  0  0  0  0
   40.4612   29.7025   44.4728 H   0  0  0  0  0  0  0  0  0  0  0  0
  1  3  1  0
  1  2  2  0
  3 12  1  0
  4  3  2  0
  5  4  1  0
  5  6  2  0
  6  7  1  0
  7 12  2  0
  7  8  1  0
  8  9  2  0
 10  9  1  0
 11 10  2  0
 12 11  1  0
 13  1  1  0
 14 13  2  0
 15 14  1  0
 16 15  2  0
 16 17  1  0
 17 18  2  0
 18 13  1  0
  4 19  1  0
  5 20  1  0
  6 21  1  0
  8 22  1  0
  9 23  1  0
 10 24  1  0
 11 25  1  0
 14 26  1  0
 15 27  1  0
 17 28  1  0
M  ISO  8  19  14  20  14  21  14  22  14  23  14  24  14  25  14  26  14
M  ISO  2  27  14  28  14
M  END
>  <minimizedAffinity>  (1) 
-6.90339899

>  <minimizedRMSD>  (1) 
4.40106916

$$$$
