
     RDKit          3D

 19 20  0  0  0  0  0  0  0  0999 V2000
   36.6850   29.8680   49.5250 C   0  0  0  0  0  0  0  0  0  0  0  0
   37.7570   30.4230   48.8270 C   0  0  0  0  0  0  0  0  0  0  0  0
   37.5710   30.7620   47.4860 C   0  0  0  0  0  0  0  0  0  0  0  0
   36.3560   30.5340   46.9290 N   0  0  0  0  0  0  0  0  0  0  0  0
   35.3360   29.9930   47.6340 C   0  0  0  0  0  0  0  0  0  0  0  0
   35.5030   29.6640   48.9180 N   0  0  0  0  0  0  0  0  0  0  0  0
   38.6670   31.3280   46.7760 N   0  0  0  0  0  0  0  0  0  0  0  0
   39.2820   32.5280   46.8540 C   0  0  0  0  0  0  0  0  0  0  0  0
   40.2750   32.5190   45.9290 N   0  0  0  0  0  0  0  0  0  0  0  0
   40.2650   31.3240   45.2930 C   0  0  0  0  0  0  0  0  0  0  0  0
   39.2570   30.5890   45.8310 N   0  0  0  0  0  0  0  0  0  0  0  0
   36.8690   29.4990   50.9660 C   0  0  0  0  0  0  0  0  0  0  0  0
   35.6420   29.1420   51.5140 F   0  0  0  0  0  0  0  0  0  0  0  0
   37.8140   28.5360   51.0580 F   0  0  0  0  0  0  0  0  0  0  0  0
   37.2840   30.6630   51.6270 F   0  0  0  0  0  0  0  0  0  0  0  0
   38.7255   30.5895   49.3212 H   0  0  0  0  0  0  0  0  0  0  0  0
   34.3641   29.8231   47.1475 H   0  0  0  0  0  0  0  0  0  0  0  0
   39.0273   33.3530   47.5355 H   0  0  0  0  0  0  0  0  0  0  0  0
   40.9464   31.0070   44.4898 H   0  0  0  0  0  0  0  0  0  0  0  0
  1 12  1  0
  2  1  2  0
  3  2  1  0
  4  3  2  0
  4  5  1  0
  5  6  2  0
  6  1  1  0
  7  8  1  0
  7  3  1  0
  9  8  2  0
 10 11  2  0
 10  9  1  0
 11  7  1  0
 12 14  1  0
 12 13  1  0
 12 15  1  0
  2 16  1  0
  5 17  1  0
  8 18  1  0
 10 19  1  0
M  ISO  4  16  14  17  14  18  14  19  14
M  END
>  <minimizedAffinity>  (1) 
-5.59454584

>  <minimizedRMSD>  (1) 
2.40483809

$$$$
