
     RDKit          3D

 46 49  0  0  0  0  0  0  0  0999 V2000
   31.7310   26.1850   47.5700 C   0  0  0  0  0  0  0  0  0  0  0  0
   31.4360   25.1080   46.8160 C   0  0  0  0  0  0  0  0  0  0  0  0
   32.3820   24.3460   46.1580 C   0  0  0  0  0  0  0  0  0  0  0  0
   33.6970   24.7570   46.3170 C   0  0  0  0  0  0  0  0  0  0  0  0
   34.0170   25.8450   47.0750 C   0  0  0  0  0  0  0  0  0  0  0  0
   33.0460   26.5800   47.7160 C   0  0  0  0  0  0  0  0  0  0  0  0
   29.3960   27.4760   50.1100 C   0  0  0  0  0  0  0  0  0  0  0  0
   28.7070   28.4920   49.3970 C   0  0  0  0  0  0  0  0  0  0  0  0
   29.0730   28.6970   48.0620 C   0  0  0  0  0  0  0  0  0  0  0  0
   30.0660   27.9150   47.5170 N   0  0  0  0  0  0  0  0  0  0  0  0
   30.6910   26.9590   48.2470 C   0  0  0  0  0  0  0  0  0  0  0  0
   30.3460   26.7610   49.5140 N   0  0  0  0  0  0  0  0  0  0  0  0
   27.6400   29.3190   50.0060 C   0  0  0  0  0  0  0  0  0  0  0  0
   28.0590   30.5710   50.3660 F   0  0  0  0  0  0  0  0  0  0  0  0
   27.1130   28.7140   51.1380 F   0  0  0  0  0  0  0  0  0  0  0  0
   26.5930   29.4810   49.0830 F   0  0  0  0  0  0  0  0  0  0  0  0
   33.3490   27.7620   48.5450 C   0  0  0  0  0  0  0  0  0  0  0  0
   33.7130   28.9830   47.7790 C   0  0  0  0  0  0  0  0  0  0  0  0
   34.9870   29.5250   48.2500 C   0  0  0  0  0  0  0  0  0  0  0  0
   35.7320   28.9490   49.2640 C   0  0  0  0  0  0  0  0  0  0  0  0
   36.8720   29.6940   49.4760 C   0  0  0  0  0  0  0  0  0  0  0  0
   36.7800   30.7210   48.5640 N   0  0  0  0  0  0  0  0  0  0  0  0
   35.6730   30.6160   47.8490 N   0  0  0  0  0  0  0  0  0  0  0  0
   37.7630   31.7630   48.4180 C   0  0  0  0  0  0  0  0  0  0  0  0
   38.4720   31.8180   47.2140 C   0  0  0  0  0  0  0  0  0  0  0  0
   39.4340   32.8150   47.0340 C   0  0  0  0  0  0  0  0  0  0  0  0
   39.6470   33.7200   48.0790 C   0  0  0  0  0  0  0  0  0  0  0  0
   38.9370   33.6610   49.2820 C   0  0  0  0  0  0  0  0  0  0  0  0
   37.9760   32.6610   49.4510 C   0  0  0  0  0  0  0  0  0  0  0  0
   30.3793   24.8183   46.7186 H   0  0  0  0  0  0  0  0  0  0  0  0
   32.1103   23.4715   45.5485 H   0  0  0  0  0  0  0  0  0  0  0  0
   34.5002   24.1928   45.8206 H   0  0  0  0  0  0  0  0  0  0  0  0
   35.0717   26.1406   47.1759 H   0  0  0  0  0  0  0  0  0  0  0  0
   29.1426   27.2788   51.1621 H   0  0  0  0  0  0  0  0  0  0  0  0
   28.5754   29.4702   47.4582 H   0  0  0  0  0  0  0  0  0  0  0  0
   32.4609   27.9910   49.1524 H   0  0  0  0  0  0  0  0  0  0  0  0
   34.2309   27.4999   49.1480 H   0  0  0  0  0  0  0  0  0  0  0  0
   32.9267   29.7407   47.9114 H   0  0  0  0  0  0  0  0  0  0  0  0
   33.8113   28.7186   46.7158 H   0  0  0  0  0  0  0  0  0  0  0  0
   35.4570   28.0378   49.8154 H   0  0  0  0  0  0  0  0  0  0  0  0
   37.6728   29.5099   50.2073 H   0  0  0  0  0  0  0  0  0  0  0  0
   38.2746   31.0849   46.4180 H   0  0  0  0  0  0  0  0  0  0  0  0
   40.0072   32.8862   46.0978 H   0  0  0  0  0  0  0  0  0  0  0  0
   40.4025   34.5089   47.9493 H   0  0  0  0  0  0  0  0  0  0  0  0
   39.1318   34.3900   50.0824 H   0  0  0  0  0  0  0  0  0  0  0  0
   37.4002   32.5883   50.3854 H   0  0  0  0  0  0  0  0  0  0  0  0
  1  6  1  0
  1 11  1  0
  2  1  2  0
  3  4  2  0
  3  2  1  0
  4  5  1  0
  5  6  2  0
  6 17  1  0
  8 13  1  0
  8  7  2  0
  9  8  1  0
 10  9  2  0
 10 11  1  0
 11 12  2  0
 12  7  1  0
 13 14  1  0
 13 15  1  0
 16 13  1  0
 18 19  1  0
 18 17  1  0
 19 20  1  0
 20 21  2  0
 22 21  1  0
 23 19  2  0
 23 22  1  0
 24 22  1  0
 24 29  1  0
 25 24  2  0
 26 25  1  0
 26 27  2  0
 27 28  1  0
 28 29  2  0
  2 30  1  0
  3 31  1  0
  4 32  1  0
  5 33  1  0
  7 34  1  0
  9 35  1  0
 17 36  1  0
 17 37  1  0
 18 38  1  0
 18 39  1  0
 20 40  1  0
 21 41  1  0
 25 42  1  0
 26 43  1  0
 27 44  1  0
 28 45  1  0
 29 46  1  0
M  ISO  8  30  14  31  14  32  14  33  14  34  14  35  14  36   8  37   8
M  ISO  8  38   8  39   8  40  14  41  14  42  14  43  14  44  14  45  14
M  ISO  1  46  14
M  END
>  <minimizedAffinity>  (1) 
-7.2998929

>  <minimizedRMSD>  (1) 
1.28917074

$$$$
