
     RDKit          3D

 34 36  0  0  0  0  0  0  0  0999 V2000
   35.8020   30.4890   47.8990 C   0  0  0  0  0  0  0  0  0  0  0  0
   37.0340   30.7450   47.3100 C   0  0  0  0  0  0  0  0  0  0  0  0
   37.0990   30.6120   45.9060 C   0  0  0  0  0  0  0  0  0  0  0  0
   35.9710   30.2460   45.2160 N   0  0  0  0  0  0  0  0  0  0  0  0
   34.8150   30.0150   45.8470 C   0  0  0  0  0  0  0  0  0  0  0  0
   34.7130   30.1300   47.1810 N   0  0  0  0  0  0  0  0  0  0  0  0
   33.6730   29.6360   45.0800 N   0  0  0  0  0  0  0  0  0  0  0  0
   33.7930   28.6290   44.0810 C   0  0  0  0  0  0  0  0  0  0  0  0
   34.7700   27.7730   44.1200 N   0  0  0  0  0  0  0  0  0  0  0  0
   32.7850   28.6310   43.0620 N   0  0  0  0  0  0  0  0  0  0  0  0
   34.8540   27.0630   43.3560 H   0  0  0  0  0  0  0  0  0  0  0  0
   38.3460   30.8660   45.2660 N   0  0  0  0  0  0  0  0  0  0  0  0
   39.2020   31.8490   45.6140 C   0  0  0  0  0  0  0  0  0  0  0  0
   40.2880   31.8310   44.8230 N   0  0  0  0  0  0  0  0  0  0  0  0
   40.0920   30.8060   43.9630 C   0  0  0  0  0  0  0  0  0  0  0  0
   40.8410   30.2860   42.9240 C   0  0  0  0  0  0  0  0  0  0  0  0
   40.3770   29.2180   42.2130 N   0  0  0  0  0  0  0  0  0  0  0  0
   39.1730   28.6530   42.5210 C   0  0  0  0  0  0  0  0  0  0  0  0
   38.4090   29.1400   43.5390 N   0  0  0  0  0  0  0  0  0  0  0  0
   38.8850   30.1960   44.2280 C   0  0  0  0  0  0  0  0  0  0  0  0
   35.7020   30.6190   49.3490 C   0  0  0  0  0  0  0  0  0  0  0  0
   34.7390   30.0770   49.9660 O   0  0  0  0  0  0  0  0  0  0  0  0
   36.6530   31.3300   50.0520 O   0  0  0  0  0  0  0  0  0  0  0  0
   37.6300   30.5670   50.7530 C   0  0  0  0  0  0  0  0  0  0  0  0
   37.2520   30.3800   52.0690 F   0  0  0  0  0  0  0  0  0  0  0  0
   38.8470   31.2170   50.6620 F   0  0  0  0  0  0  0  0  0  0  0  0
   37.7850   29.3290   50.1860 F   0  0  0  0  0  0  0  0  0  0  0  0
   37.9118   31.0358   47.9057 H   0  0  0  0  0  0  0  0  0  0  0  0
   32.7640   30.0900   45.2488 H   0  0  0  0  0  0  0  0  0  0  0  0
   32.0334   29.3350   43.0825 H   0  0  0  0  0  0  0  0  0  0  0  0
   32.8123   27.9285   42.3093 H   0  0  0  0  0  0  0  0  0  0  0  0
   39.0342   32.5655   46.4316 H   0  0  0  0  0  0  0  0  0  0  0  0
   41.8129   30.7341   42.6700 H   0  0  0  0  0  0  0  0  0  0  0  0
   38.8141   27.7916   41.9386 H   0  0  0  0  0  0  0  0  0  0  0  0
  1 21  1  0
  2  1  2  0
  3  2  1  0
  4  5  1  0
  4  3  2  0
  5  6  2  0
  6  1  1  0
  7  5  1  0
  8  9  2  0
  8  7  1  0
 10  8  1  0
 11  9  1  0
 12 13  1  0
 12  3  1  0
 14 13  2  0
 15 20  2  0
 15 14  1  0
 16 15  1  0
 17 18  1  0
 17 16  2  0
 18 19  2  0
 19 20  1  0
 20 12  1  0
 21 22  2  0
 21 23  1  0
 23 24  1  0
 24 25  1  0
 26 24  1  0
 27 24  1  0
  2 28  1  0
  7 29  1  0
 10 30  1  0
 10 31  1  0
 13 32  1  0
 16 33  1  0
 18 34  1  0
M  ISO  4  28  14  32  14  33  14  34  14
M  END
>  <minimizedAffinity>  (1) 
-6.50162363

>  <minimizedRMSD>  (1) 
5.56933928

$$$$
