
     RDKit          3D

 49 52  0  0  1  0  0  0  0  0999 V2000
   39.2560   30.8520   46.3560 C   0  0  2  0  0  0  0  0  0  0  0  0
   40.1310   31.8610   45.8020 C   0  0  0  0  0  0  0  0  0  0  0  0
   40.9700   31.3920   44.6600 C   0  0  0  0  0  0  0  0  0  0  0  0
   40.2200   30.6220   43.6480 C   0  0  0  0  0  0  0  0  0  0  0  0
   39.2410   29.6860   44.1900 C   0  0  0  0  0  0  0  0  0  0  0  0
   38.3440   30.3180   45.3190 C   0  0  2  0  0  0  0  0  0  0  0  0
   38.6310   32.5780   48.1590 C   0  0  0  0  0  0  0  0  0  0  0  0
   38.4980   31.2930   47.5250 C   0  0  0  0  0  0  0  0  0  0  0  0
   37.6020   30.4090   48.0140 C   0  0  0  0  0  0  0  0  0  0  0  0
   36.8580   30.7920   49.1060 N   0  0  0  0  0  0  0  0  0  0  0  0
   37.0070   32.0300   49.6940 C   0  0  0  0  0  0  0  0  0  0  0  0
   37.9120   32.9280   49.2020 N   0  0  0  0  0  0  0  0  0  0  0  0
   37.5540   31.3420   44.6460 C   0  0  0  0  0  0  0  0  0  0  0  0
   37.5310   32.5930   44.9300 O   0  0  0  0  0  0  0  0  0  0  0  0
   36.7840   30.8790   43.6340 O   0  0  0  0  0  0  0  0  0  0  0  0
   35.6300   31.6120   43.2600 C   0  0  0  0  0  0  0  0  0  0  0  0
   34.3320   31.1790   43.5740 C   0  0  0  0  0  0  0  0  0  0  0  0
   33.5120   32.1460   43.0490 C   0  0  0  0  0  0  0  0  0  0  0  0
   34.2620   33.1190   42.4460 N   0  0  0  0  0  0  0  0  0  0  0  0
   35.5260   32.7610   42.5960 N   0  0  0  0  0  0  0  0  0  0  0  0
   32.7020   36.5050   40.5600 C   0  0  0  0  0  0  0  0  0  0  0  0
   31.8690   35.6510   41.2450 C   0  0  0  0  0  0  0  0  0  0  0  0
   32.4090   34.5280   41.8670 C   0  0  0  0  0  0  0  0  0  0  0  0
   33.7690   34.2830   41.7900 C   0  0  0  0  0  0  0  0  0  0  0  0
   34.6380   35.1140   41.1140 C   0  0  0  0  0  0  0  0  0  0  0  0
   34.0460   36.2130   40.5170 C   0  0  0  0  0  0  0  0  0  0  0  0
   32.1730   37.9620   39.7240 S   0  0  0  0  0  0  0  0  0  0  0  0
   31.4740   38.9010   40.6520 O   0  0  0  0  0  0  0  0  0  0  0  0
   33.3700   38.6640   39.1310 O   0  0  0  0  0  0  0  0  0  0  0  0
   39.9202   30.0505   46.7117 H   0  0  0  0  0  0  0  0  0  0  0  0
   39.5107   32.6990   45.4514 H   0  0  0  0  0  0  0  0  0  0  0  0
   40.8264   32.1476   46.6047 H   0  0  0  0  0  0  0  0  0  0  0  0
   41.4116   32.2720   44.1695 H   0  0  0  0  0  0  0  0  0  0  0  0
   41.7317   30.7169   45.0773 H   0  0  0  0  0  0  0  0  0  0  0  0
   40.9435   30.0505   43.0481 H   0  0  0  0  0  0  0  0  0  0  0  0
   39.6513   31.3573   43.0598 H   0  0  0  0  0  0  0  0  0  0  0  0
   38.5881   29.3488   43.3715 H   0  0  0  0  0  0  0  0  0  0  0  0
   39.7984   28.8520   44.6414 H   0  0  0  0  0  0  0  0  0  0  0  0
   37.6628   29.6181   45.8251 H   0  0  0  0  0  0  0  0  0  0  0  0
   39.3619   33.2942   47.7555 H   0  0  0  0  0  0  0  0  0  0  0  0
   37.4716   29.4177   47.5554 H   0  0  0  0  0  0  0  0  0  0  0  0
   36.3924   32.2971   50.5663 H   0  0  0  0  0  0  0  0  0  0  0  0
   34.0384   30.2693   44.1183 H   0  0  0  0  0  0  0  0  0  0  0  0
   32.4134   32.1399   43.1047 H   0  0  0  0  0  0  0  0  0  0  0  0
   30.7891   35.8527   41.3008 H   0  0  0  0  0  0  0  0  0  0  0  0
   31.7553   33.8365   42.4189 H   0  0  0  0  0  0  0  0  0  0  0  0
   35.7187   34.9180   41.0541 H   0  0  0  0  0  0  0  0  0  0  0  0
   34.6993   36.9058   39.9663 H   0  0  0  0  0  0  0  0  0  0  0  0
   31.2966   37.5887   38.7393 H   0  0  0  0  0  0  0  0  0  0  0  0
  1  8  1  0
  2  1  1  0
  3  2  1  0
  4  5  1  0
  4  3  1  0
  5  6  1  0
  6  1  1  0
  7 12  2  0
  8  9  2  0
  8  7  1  0
  9 10  1  0
 10 11  2  0
 12 11  1  0
 13 14  2  0
 13  6  1  0
 15 13  1  0
 16 17  1  0
 16 15  1  0
 18 17  2  0
 19 20  1  0
 19 18  1  0
 20 16  2  0
 21 22  2  0
 22 23  1  0
 24 23  2  0
 24 19  1  0
 25 24  1  0
 26 21  1  0
 26 25  2  0
 27 21  1  0
 27 28  2  0
 29 27  2  0
  1 30  1  1
  2 31  1  0
  2 32  1  0
  3 33  1  0
  3 34  1  0
  4 35  1  0
  4 36  1  0
  5 37  1  0
  5 38  1  0
  6 39  1  1
  7 40  1  0
  9 41  1  0
 11 42  1  0
 17 43  1  0
 18 44  1  0
 22 45  1  0
 23 46  1  0
 25 47  1  0
 26 48  1  0
 27 49  1  0
M  ISO  8  30  13  31  13  32  13  33  13  34  13  35  13  36  13  37  13
M  ISO  8  38  13  39  13  40  14  41  14  42  14  43  14  44  14  45  14
M  ISO  4  46  14  47  14  48  14  49  11
M  END
>  <minimizedAffinity>  (1) 
-5.85469961

>  <minimizedRMSD>  (1) 
2.5391717

$$$$
