
     RDKit          3D

 44 47  0  0  0  0  0  0  0  0999 V2000
   39.3430   31.8490   45.7240 C   0  0  0  0  0  0  0  0  0  0  0  0
   40.6090   31.2990   45.5810 C   0  0  0  0  0  0  0  0  0  0  0  0
   40.9030   31.2510   44.2160 C   0  0  0  0  0  0  0  0  0  0  0  0
   39.7600   31.7910   43.6080 C   0  0  0  0  0  0  0  0  0  0  0  0
   38.8920   32.1180   44.5290 O   0  0  0  0  0  0  0  0  0  0  0  0
   37.1520   31.3570   48.5940 C   0  0  0  0  0  0  0  0  0  0  0  0
   37.5260   32.4190   49.4800 C   0  0  0  0  0  0  0  0  0  0  0  0
   38.5420   33.2850   49.0470 C   0  0  0  0  0  0  0  0  0  0  0  0
   39.1030   33.0530   47.8070 N   0  0  0  0  0  0  0  0  0  0  0  0
   38.7150   32.0480   47.0250 C   0  0  0  0  0  0  0  0  0  0  0  0
   37.7410   31.2010   47.4170 N   0  0  0  0  0  0  0  0  0  0  0  0
   36.1060   30.4780   49.0590 C   0  0  0  0  0  0  0  0  0  0  0  0
   34.9030   30.7100   48.7450 O   0  0  0  0  0  0  0  0  0  0  0  0
   36.4230   29.3780   49.8500 O   0  0  0  0  0  0  0  0  0  0  0  0
   36.4910   29.4350   51.2430 C   0  0  0  0  0  0  0  0  0  0  0  0
   37.6750   29.7120   51.9530 N   0  0  0  0  0  0  0  0  0  0  0  0
   35.3810   29.2130   51.7910 O   0  0  0  0  0  0  0  0  0  0  0  0
   39.5790   31.9560   42.1730 C   0  0  0  0  0  0  0  0  0  0  0  0
   40.0980   31.1290   41.2040 C   0  0  0  0  0  0  0  0  0  0  0  0
   39.6550   31.6940   40.0300 C   0  0  0  0  0  0  0  0  0  0  0  0
   38.9080   32.8050   40.2680 N   0  0  0  0  0  0  0  0  0  0  0  0
   38.8730   32.9470   41.5870 N   0  0  0  0  0  0  0  0  0  0  0  0
   36.7170   35.3110   37.7780 C   0  0  0  0  0  0  0  0  0  0  0  0
   38.0030   35.0350   37.3930 C   0  0  0  0  0  0  0  0  0  0  0  0
   38.7870   34.2100   38.1740 C   0  0  0  0  0  0  0  0  0  0  0  0
   38.2730   33.6690   39.3340 C   0  0  0  0  0  0  0  0  0  0  0  0
   36.9600   33.9570   39.7160 C   0  0  0  0  0  0  0  0  0  0  0  0
   36.1650   34.7900   38.9280 C   0  0  0  0  0  0  0  0  0  0  0  0
   35.6830   36.3560   36.8140 S   0  0  0  0  0  0  0  0  0  0  0  0
   35.3340   37.5740   37.6530 O   0  0  0  0  0  0  0  0  0  0  0  0
   36.3040   36.7370   35.5170 O   0  0  0  0  0  0  0  0  0  0  0  0
   41.2645   30.9610   46.3972 H   0  0  0  0  0  0  0  0  0  0  0  0
   41.8170   30.8772   43.7314 H   0  0  0  0  0  0  0  0  0  0  0  0
   37.0380   32.5499   50.4571 H   0  0  0  0  0  0  0  0  0  0  0  0
   38.8805   34.1219   49.6755 H   0  0  0  0  0  0  0  0  0  0  0  0
   37.6634   29.7408   52.9825 H   0  0  0  0  0  0  0  0  0  0  0  0
   38.5527   29.8858   51.4428 H   0  0  0  0  0  0  0  0  0  0  0  0
   40.7189   30.2306   41.3360 H   0  0  0  0  0  0  0  0  0  0  0  0
   39.8767   31.2979   39.0280 H   0  0  0  0  0  0  0  0  0  0  0  0
   38.4081   35.4685   36.4668 H   0  0  0  0  0  0  0  0  0  0  0  0
   39.8203   33.9843   37.8717 H   0  0  0  0  0  0  0  0  0  0  0  0
   36.5516   33.5253   40.6416 H   0  0  0  0  0  0  0  0  0  0  0  0
   35.1294   35.0236   39.2160 H   0  0  0  0  0  0  0  0  0  0  0  0
   34.5426   35.6752   36.4780 H   0  0  0  0  0  0  0  0  0  0  0  0
  1 10  1  0
  2  1  2  0
  3  2  1  0
  4  3  2  0
  4  5  1  0
  5  1  1  0
  6 12  1  0
  6  7  2  0
  8  7  1  0
  9  8  2  0
 10 11  2  0
 10  9  1  0
 11  6  1  0
 12 14  1  0
 13 12  2  0
 14 15  1  0
 15 17  2  0
 15 16  1  0
 18  4  1  0
 19 18  1  0
 20 21  1  0
 20 19  2  0
 21 22  1  0
 22 18  2  0
 23 28  2  0
 24 23  1  0
 24 25  2  0
 25 26  1  0
 26 27  2  0
 26 21  1  0
 28 27  1  0
 29 30  2  0
 29 23  1  0
 31 29  2  0
  2 32  1  0
  3 33  1  0
  7 34  1  0
  8 35  1  0
 16 36  1  0
 16 37  1  0
 19 38  1  0
 20 39  1  0
 24 40  1  0
 25 41  1  0
 27 42  1  0
 28 43  1  0
 29 44  1  0
M  ISO  8  32  14  33  14  34  14  35  14  38  14  39  14  40  14  41  14
M  ISO  3  42  14  43  14  44  11
M  END
>  <minimizedAffinity>  (1) 
-5.92695093

>  <minimizedRMSD>  (1) 
1.05680537

$$$$
