
     RDKit          3D

 42 45  0  0  0  0  0  0  0  0999 V2000
   36.4164   30.9643   48.7387 N   0  0  0  0  0  0  0  0  0  0  0  0
   36.3934   31.7333   49.8670 C   0  0  0  0  0  0  0  0  0  0  0  0
   37.3698   32.6613   49.7866 N   0  0  0  0  0  0  0  0  0  0  0  0
   37.9855   32.4597   48.6154 C   0  0  0  0  0  0  0  0  0  0  0  0
   39.0479   33.0765   47.9682 C   0  0  0  0  0  0  0  0  0  0  0  0
   39.4765   32.6632   46.7643 N   0  0  0  0  0  0  0  0  0  0  0  0
   38.8915   31.6203   46.1191 C   0  0  0  0  0  0  0  0  0  0  0  0
   37.8640   31.0249   46.7467 N   0  0  0  0  0  0  0  0  0  0  0  0
   37.4009   31.4007   47.9467 C   0  0  0  0  0  0  0  0  0  0  0  0
   39.6939   34.1713   48.5997 N   0  0  0  0  0  0  0  0  0  0  0  0
   34.6551   29.9850   47.3984 C   0  0  0  0  0  0  0  0  0  0  0  0
   35.5197   29.8880   48.4936 C   0  0  0  0  0  0  0  0  0  0  0  0
   35.4344   28.7322   49.2673 C   0  0  0  0  0  0  0  0  0  0  0  0
   34.5376   27.7771   48.9304 N   0  0  0  0  0  0  0  0  0  0  0  0
   33.7174   27.8890   47.8764 C   0  0  0  0  0  0  0  0  0  0  0  0
   33.7858   28.9950   47.1203 N   0  0  0  0  0  0  0  0  0  0  0  0
   32.7322   26.8576   47.4930 C   0  0  0  0  0  0  0  0  0  0  0  0
   31.5384   26.9034   48.4331 C   0  0  0  0  0  0  0  0  0  0  0  0
   32.1709   27.1062   46.0973 C   0  0  0  0  0  0  0  0  0  0  0  0
   33.3295   25.4710   47.4678 C   0  0  0  0  0  0  0  0  0  0  0  0
   35.7211   31.6621   50.7309 H   0  0  0  0  0  0  0  0  0  0  0  0
   39.2815   31.3341   45.1517 H   0  0  0  0  0  0  0  0  0  0  0  0
   40.7007   34.2305   48.8780 H   0  0  0  0  0  0  0  0  0  0  0  0
   39.1737   35.0283   48.8364 H   0  0  0  0  0  0  0  0  0  0  0  0
   34.6816   30.8599   46.7676 H   0  0  0  0  0  0  0  0  0  0  0  0
   36.0982   28.6676   50.1006 H   0  0  0  0  0  0  0  0  0  0  0  0
   30.6972   27.4855   48.0183 H   0  0  0  0  0  0  0  0  0  0  0  0
   31.8604   27.3803   49.4017 H   0  0  0  0  0  0  0  0  0  0  0  0
   31.2278   25.8613   48.6914 H   0  0  0  0  0  0  0  0  0  0  0  0
   32.9861   27.1894   45.3466 H   0  0  0  0  0  0  0  0  0  0  0  0
   31.4481   26.3230   45.8694 H   0  0  0  0  0  0  0  0  0  0  0  0
   31.5991   28.0684   46.1646 H   0  0  0  0  0  0  0  0  0  0  0  0
   32.5550   24.7381   47.2378 H   0  0  0  0  0  0  0  0  0  0  0  0
   33.7815   25.2231   48.4557 H   0  0  0  0  0  0  0  0  0  0  0  0
   34.4442   25.4066   46.4919 C   0  0  0  0  0  0  0  0  0  0  0  0
   35.1947   26.3537   45.8270 C   0  0  0  0  0  0  0  0  0  0  0  0
   36.1003   25.7285   45.0386 N   0  0  0  0  0  0  0  0  0  0  0  0
   35.9332   24.3998   45.1954 C   0  0  0  0  0  0  0  0  0  0  0  0
   34.9288   24.2034   46.0768 N   0  0  0  0  0  0  0  0  0  0  0  0
   35.0066   27.4063   45.9834 H   0  0  0  0  0  0  0  0  0  0  0  0
   36.4995   23.5997   44.7056 H   0  0  0  0  0  0  0  0  0  0  0  0
   34.6106   23.2392   46.3631 H   0  0  0  0  0  0  0  0  0  0  0  0
  1  2  1  0
  3  2  2  0
  4  3  1  0
  5 10  1  0
  5  4  2  0
  6  5  1  0
  7  8  1  0
  7  6  2  0
  8  9  2  0
  9  4  1  0
  9  1  1  0
 11 12  2  0
 12  1  1  0
 12 13  1  0
 14 13  2  0
 15 14  1  0
 16 11  1  0
 16 15  2  0
 17 15  1  0
 17 18  1  0
 19 17  1  0
 20 17  1  0
  2 21  1  0
  7 22  1  0
 10 23  1  0
 10 24  1  0
 11 25  1  0
 13 26  1  0
 18 27  1  0
 18 28  1  0
 18 29  1  0
 19 30  1  0
 19 31  1  0
 19 32  1  0
 20 33  1  0
 20 34  1  0
 35 36  2  0
 36 37  1  0
 37 38  2  0
 38 39  1  0
 39 35  1  0
 36 40  1  0
 38 41  1  0
 39 42  1  0
 20 35  1  0
M  ISO  8  21  14  22  14  25  14  26  14  27   8  28   8  29   8  30   8
M  ISO  4  31   8  32   8  33   8  34   8
M  END
>  <DihAtoms>  (1) 
16,19,34,35

>  <DihDeg>  (1) 
90.00086330668881

$$$$
