
     RDKit          3D

 23 25  0  0  0  0  0  0  0  0999 V2000
   38.3830   31.5810   48.1850 C   0  0  0  0  0  0  0  0  0  0  0  0
   39.0320   32.7720   48.2190 N   0  0  0  0  0  0  0  0  0  0  0  0
   39.5140   33.0370   47.0330 O   0  0  0  0  0  0  0  0  0  0  0  0
   39.1990   32.0600   46.2370 C   0  0  0  0  0  0  0  0  0  0  0  0
   38.4830   31.1140   46.9170 N   0  0  0  0  0  0  0  0  0  0  0  0
   39.5160   31.9220   44.8500 N   0  0  0  0  0  0  0  0  0  0  0  0
   39.0330   32.7420   43.9260 N   0  0  0  0  0  0  0  0  0  0  0  0
   39.4960   32.3750   42.7050 C   0  0  0  0  0  0  0  0  0  0  0  0
   40.3040   31.2670   42.9220 C   0  0  0  0  0  0  0  0  0  0  0  0
   40.3040   30.9980   44.2740 C   0  0  0  0  0  0  0  0  0  0  0  0
   37.2910   30.1020   51.4540 C   0  0  0  0  0  0  0  0  0  0  0  0
   38.0410   30.8710   50.5570 C   0  0  0  0  0  0  0  0  0  0  0  0
   37.6710   30.8180   49.2090 C   0  0  0  0  0  0  0  0  0  0  0  0
   36.6140   30.0340   48.8230 N   0  0  0  0  0  0  0  0  0  0  0  0
   35.9300   29.3160   49.7260 C   0  0  0  0  0  0  0  0  0  0  0  0
   36.2540   29.3390   51.0350 N   0  0  0  0  0  0  0  0  0  0  0  0
   34.5410   28.2710   49.3030 S   0  0  0  0  0  0  0  0  0  0  0  0
   39.2764   32.8565   41.7407 H   0  0  0  0  0  0  0  0  0  0  0  0
   40.8486   30.7028   42.1505 H   0  0  0  0  0  0  0  0  0  0  0  0
   40.8437   30.1855   44.7824 H   0  0  0  0  0  0  0  0  0  0  0  0
   37.5497   30.1178   52.5230 H   0  0  0  0  0  0  0  0  0  0  0  0
   38.8844   31.4899   50.8970 H   0  0  0  0  0  0  0  0  0  0  0  0
   33.9424   27.8206   50.4500 H   0  0  0  0  0  0  0  0  0  0  0  0
  1  2  2  0
  1 13  1  0
  3  2  1  0
  4  5  2  0
  4  3  1  0
  5  1  1  0
  6  4  1  0
  7  6  1  0
  8  9  1  0
  8  7  2  0
  9 10  2  0
 10  6  1  0
 12 11  2  0
 13 12  1  0
 14 13  2  0
 14 15  1  0
 15 16  2  0
 16 11  1  0
 17 15  1  0
  8 18  1  0
  9 19  1  0
 10 20  1  0
 11 21  1  0
 12 22  1  0
 17 23  1  0
M  ISO  6  18  14  19  14  20  14  21  14  22  14  23  11
M  END
>  <minimizedAffinity>  (1) 
-5.91019154

>  <minimizedRMSD>  (1) 
0.207774043

$$$$
