
     RDKit          3D

 27 29  0  0  1  0  0  0  0  0999 V2000
   36.8400   29.3740   49.7210 C   0  0  0  0  0  0  0  0  0  0  0  0
   38.4080   32.6940   49.3860 C   0  0  0  0  0  0  0  0  0  0  0  0
   38.8900   32.6820   48.0560 C   0  0  0  0  0  0  0  0  0  0  0  0
   38.6630   31.5300   47.3070 C   0  0  0  0  0  0  0  0  0  0  0  0
   37.9960   30.5020   47.9050 N   0  0  0  0  0  0  0  0  0  0  0  0
   37.5490   30.5480   49.1810 C   0  0  0  0  0  0  0  0  0  0  0  0
   37.7690   31.6580   49.9010 N   0  0  0  0  0  0  0  0  0  0  0  0
   35.4640   29.3680   49.1240 C   0  0  2  0  0  0  0  0  0  0  0  0
   34.2640   29.5030   49.9940 C   0  0  0  0  0  0  0  0  0  0  0  0
   34.6120   28.1530   49.4760 C   0  0  1  0  0  0  0  0  0  0  0  0
   33.6960   27.6200   48.4520 C   0  0  0  0  0  0  0  0  0  0  0  0
   33.9560   26.9660   47.3040 C   0  0  0  0  0  0  0  0  0  0  0  0
   32.9500   26.5560   46.4920 C   0  0  0  0  0  0  0  0  0  0  0  0
   31.6580   26.8550   46.9250 C   0  0  0  0  0  0  0  0  0  0  0  0
   31.9200   27.7350   48.5160 S   0  0  0  0  0  0  0  0  0  0  0  0
   37.3737   28.4526   49.4451 H   0  0  0  0  0  0  0  0  0  0  0  0
   36.7872   29.4228   50.8186 H   0  0  0  0  0  0  0  0  0  0  0  0
   38.5690   33.5876   50.0069 H   0  0  0  0  0  0  0  0  0  0  0  0
   39.4217   33.5462   47.6313 H   0  0  0  0  0  0  0  0  0  0  0  0
   39.0107   31.4519   46.2663 H   0  0  0  0  0  0  0  0  0  0  0  0
   35.7986   29.8927   48.2170 H   0  0  0  0  0  0  0  0  0  0  0  0
   34.3885   29.7253   51.0641 H   0  0  0  0  0  0  0  0  0  0  0  0
   33.3592   30.1277   49.9626 H   0  0  0  0  0  0  0  0  0  0  0  0
   34.8310   27.1627   49.9018 H   0  0  0  0  0  0  0  0  0  0  0  0
   34.9990   26.7614   47.0208 H   0  0  0  0  0  0  0  0  0  0  0  0
   33.1410   26.0208   45.5502 H   0  0  0  0  0  0  0  0  0  0  0  0
   30.7048   26.6189   46.4294 H   0  0  0  0  0  0  0  0  0  0  0  0
  2  7  2  0
  3  2  1  0
  4  5  1  0
  4  3  2  0
  5  6  2  0
  6  1  1  0
  6  7  1  0
  8 10  1  0
  8  1  1  0
  8  9  1  0
 10  9  1  0
 11 15  1  0
 11 10  1  0
 12 11  2  0
 13 14  2  0
 13 12  1  0
 14 15  1  0
  1 16  1  0
  1 17  1  0
  2 18  1  0
  3 19  1  0
  4 20  1  0
  8 21  1  6
  9 22  1  0
  9 23  1  0
 10 24  1  1
 12 25  1  0
 13 26  1  0
 14 27  1  0
M  ISO  8  16   8  17   8  18  14  19  14  20  14  21  13  22  13  23  13
M  ISO  4  24  13  25  14  26  14  27  14
M  END
>  <minimizedAffinity>  (1) 
-4.87572289

>  <minimizedRMSD>  (1) 
0.539089382

$$$$
