
     RDKit          3D

 29 32  0  0  0  0  0  0  0  0999 V2000
   38.5280   31.8920   47.4590 C   0  0  0  0  0  0  0  0  0  0  0  0
   39.3920   32.9200   47.4800 N   0  0  0  0  0  0  0  0  0  0  0  0
   39.8580   33.1350   46.2820 O   0  0  0  0  0  0  0  0  0  0  0  0
   39.3200   32.2700   45.4720 C   0  0  0  0  0  0  0  0  0  0  0  0
   38.4730   31.4620   46.1600 N   0  0  0  0  0  0  0  0  0  0  0  0
   39.5350   32.1270   44.0650 N   0  0  0  0  0  0  0  0  0  0  0  0
   39.1550   33.0510   43.1930 N   0  0  0  0  0  0  0  0  0  0  0  0
   39.4700   32.6800   41.9440 C   0  0  0  0  0  0  0  0  0  0  0  0
   40.0900   31.4250   42.0900 C   0  0  0  0  0  0  0  0  0  0  0  0
   40.1200   31.0980   43.4270 C   0  0  0  0  0  0  0  0  0  0  0  0
   37.2840   30.5820   50.7540 C   0  0  0  0  0  0  0  0  0  0  0  0
   38.1040   31.2400   49.8320 C   0  0  0  0  0  0  0  0  0  0  0  0
   37.7210   31.2250   48.4820 C   0  0  0  0  0  0  0  0  0  0  0  0
   36.5750   30.5760   48.1180 N   0  0  0  0  0  0  0  0  0  0  0  0
   35.8260   29.9590   49.0510 C   0  0  0  0  0  0  0  0  0  0  0  0
   36.1650   29.9550   50.3550 N   0  0  0  0  0  0  0  0  0  0  0  0
   34.6040   29.2670   48.6610 C   0  0  0  0  0  0  0  0  0  0  0  0
   33.8580   28.4020   49.3430 C   0  0  0  0  0  0  0  0  0  0  0  0
   32.7260   27.8540   48.7870 C   0  0  0  0  0  0  0  0  0  0  0  0
   32.4440   28.2800   47.4800 C   0  0  0  0  0  0  0  0  0  0  0  0
   33.8170   29.4500   47.1000 S   0  0  0  0  0  0  0  0  0  0  0  0
   39.2849   33.2337   41.0117 H   0  0  0  0  0  0  0  0  0  0  0  0
   40.4856   30.8070   41.2705 H   0  0  0  0  0  0  0  0  0  0  0  0
   40.5358   30.1854   43.8790 H   0  0  0  0  0  0  0  0  0  0  0  0
   37.5587   30.5778   51.8191 H   0  0  0  0  0  0  0  0  0  0  0  0
   39.0214   31.7538   50.1551 H   0  0  0  0  0  0  0  0  0  0  0  0
   34.1507   28.1214   50.3655 H   0  0  0  0  0  0  0  0  0  0  0  0
   32.0899   27.1363   49.3258 H   0  0  0  0  0  0  0  0  0  0  0  0
   31.6030   27.9856   46.8350 H   0  0  0  0  0  0  0  0  0  0  0  0
  1  2  2  0
  1 13  1  0
  3  2  1  0
  4  5  2  0
  4  3  1  0
  5  1  1  0
  6  4  1  0
  7  6  1  0
  8  9  1  0
  8  7  2  0
  9 10  2  0
 10  6  1  0
 12 11  2  0
 13 12  1  0
 14 13  2  0
 14 15  1  0
 15 16  2  0
 16 11  1  0
 17 15  1  0
 17 18  2  0
 19 18  1  0
 20 19  2  0
 21 20  1  0
 21 17  1  0
  8 22  1  0
  9 23  1  0
 10 24  1  0
 11 25  1  0
 12 26  1  0
 18 27  1  0
 19 28  1  0
 20 29  1  0
M  ISO  8  22  14  23  14  24  14  25  14  26  14  27  14  28  14  29  14
M  END
>  <minimizedAffinity>  (1) 
-6.08076906

>  <minimizedRMSD>  (1) 
1.25391495

$$$$
