
     RDKit          3D

 35 38  0  0  1  0  0  0  0  0999 V2000
   38.6130   32.1500   47.9580 C   0  0  1  0  0  0  0  0  0  0  0  0
   37.9270   31.2510   48.8840 C   0  0  0  0  0  0  0  0  0  0  0  0
   38.4140   31.1070   50.1160 N   0  0  0  0  0  0  0  0  0  0  0  0
   37.8550   30.2900   51.0420 C   0  0  0  0  0  0  0  0  0  0  0  0
   36.7660   29.5630   50.7900 N   0  0  0  0  0  0  0  0  0  0  0  0
   36.1970   29.6390   49.5770 C   0  0  0  0  0  0  0  0  0  0  0  0
   35.0740   28.9010   49.2550 C   0  0  0  0  0  0  0  0  0  0  0  0
   34.4890   28.9580   48.0290 C   0  0  0  0  0  0  0  0  0  0  0  0
   35.0780   29.7980   47.1170 C   0  0  0  0  0  0  0  0  0  0  0  0
   36.1940   30.5250   47.4520 C   0  0  0  0  0  0  0  0  0  0  0  0
   36.8010   30.4830   48.6730 C   0  0  0  0  0  0  0  0  0  0  0  0
   39.1030   31.9930   46.6190 C   0  0  0  0  0  0  0  0  0  0  0  0
   39.8310   33.1220   46.2150 C   0  0  0  0  0  0  0  0  0  0  0  0
   40.5330   33.1170   44.9620 C   0  0  0  0  0  0  0  0  0  0  0  0
   40.4240   31.9720   44.2440 N   0  0  0  0  0  0  0  0  0  0  0  0
   39.7060   30.8980   44.6660 C   0  0  0  0  0  0  0  0  0  0  0  0
   39.0640   30.9080   45.8180 N   0  0  0  0  0  0  0  0  0  0  0  0
   39.6970   29.7410   43.7550 C   0  0  0  0  0  0  0  0  0  0  0  0
   38.9310   28.6310   43.7570 C   0  0  0  0  0  0  0  0  0  0  0  0
   39.0870   27.6640   42.8070 C   0  0  0  0  0  0  0  0  0  0  0  0
   40.1670   27.9870   41.8140 C   0  0  0  0  0  0  0  0  0  0  0  0
   40.7830   29.6650   42.4380 S   0  0  0  0  0  0  0  0  0  0  0  0
   38.2760   33.3490   48.4210 O   0  0  0  0  0  0  0  0  0  0  0  0
   39.6034   31.6882   47.8319 H   0  0  0  0  0  0  0  0  0  0  0  0
   38.3168   30.2243   52.0382 H   0  0  0  0  0  0  0  0  0  0  0  0
   34.6367   28.2423   50.0197 H   0  0  0  0  0  0  0  0  0  0  0  0
   33.5957   28.3655   47.7823 H   0  0  0  0  0  0  0  0  0  0  0  0
   34.6516   29.8898   46.1072 H   0  0  0  0  0  0  0  0  0  0  0  0
   36.6269   31.1845   46.6854 H   0  0  0  0  0  0  0  0  0  0  0  0
   39.8643   34.0130   46.8592 H   0  0  0  0  0  0  0  0  0  0  0  0
   41.1171   33.9801   44.6101 H   0  0  0  0  0  0  0  0  0  0  0  0
   38.1671   28.5030   44.5381 H   0  0  0  0  0  0  0  0  0  0  0  0
   38.4849   26.7441   42.7719 H   0  0  0  0  0  0  0  0  0  0  0  0
   40.5107   27.4008   40.9490 H   0  0  0  0  0  0  0  0  0  0  0  0
   38.2803   33.3337   49.4109 H   0  0  0  0  0  0  0  0  0  0  0  0
  1 23  1  0
  1  2  1  0
  2  3  2  0
  3  4  1  0
  5  4  2  0
  6  5  1  0
  7  6  2  0
  8  7  1  0
  9 10  1  0
  9  8  2  0
 10 11  2  0
 11  2  1  0
 11  6  1  0
 12  1  1  0
 13 12  2  0
 14 13  1  0
 15 16  1  0
 15 14  2  0
 16 17  2  0
 17 12  1  0
 18 19  2  0
 18 16  1  0
 20 19  1  0
 21 22  1  0
 21 20  2  0
 22 18  1  0
  1 24  1  1
  4 25  1  0
  7 26  1  0
  8 27  1  0
  9 28  1  0
 10 29  1  0
 13 30  1  0
 14 31  1  0
 19 32  1  0
 20 33  1  0
 21 34  1  0
 23 35  1  0
M  END
>  <minimizedAffinity>  (1) 
-7.15616417

>  <minimizedRMSD>  (1) 
0.672447324

$$$$
