
     RDKit          3D

 20 21  0  0  0  0  0  0  0  0999 V2000
   35.3850   29.1300   50.4150 C   0  0  0  0  0  0  0  0  0  0  0  0
   36.1220   30.1530   49.7990 C   0  0  0  0  0  0  0  0  0  0  0  0
   35.7850   30.5130   48.4810 C   0  0  0  0  0  0  0  0  0  0  0  0
   34.7510   29.8410   47.8700 N   0  0  0  0  0  0  0  0  0  0  0  0
   34.0720   28.8640   48.5080 C   0  0  0  0  0  0  0  0  0  0  0  0
   34.3890   28.5210   49.7540 N   0  0  0  0  0  0  0  0  0  0  0  0
   33.0140   28.1960   47.8440 C   0  0  0  0  0  0  0  0  0  0  0  0
   32.0300   27.6470   48.6050 C   0  0  0  0  0  0  0  0  0  0  0  0
   30.9100   26.9600   48.2670 C   0  0  0  0  0  0  0  0  0  0  0  0
   30.9160   26.8840   46.7620 C   0  0  0  0  0  0  0  0  0  0  0  0
   32.4790   27.7880   46.1760 S   0  0  0  0  0  0  0  0  0  0  0  0
   37.2420   30.8830   50.4570 C   0  0  0  0  0  0  0  0  0  0  0  0
   38.4680   30.6110   49.9510 F   0  0  0  0  0  0  0  0  0  0  0  0
   37.2880   30.5810   51.8000 F   0  0  0  0  0  0  0  0  0  0  0  0
   37.0340   32.2570   50.3260 F   0  0  0  0  0  0  0  0  0  0  0  0
   35.6250   28.8260   51.4446 H   0  0  0  0  0  0  0  0  0  0  0  0
   36.3323   31.3086   47.9543 H   0  0  0  0  0  0  0  0  0  0  0  0
   32.1664   27.7844   49.6878 H   0  0  0  0  0  0  0  0  0  0  0  0
   30.1543   26.5446   48.9499 H   0  0  0  0  0  0  0  0  0  0  0  0
   30.1609   26.3987   46.1261 H   0  0  0  0  0  0  0  0  0  0  0  0
  2  1  2  0
  2 12  1  0
  3  2  1  0
  4  3  2  0
  4  5  1  0
  5  6  2  0
  6  1  1  0
  7  5  1  0
  7  8  2  0
  9  8  1  0
 10  9  2  0
 11 10  1  0
 11  7  1  0
 12 14  1  0
 13 12  1  0
 15 12  1  0
  1 16  1  0
  3 17  1  0
  8 18  1  0
  9 19  1  0
 10 20  1  0
M  ISO  5  16  14  17  14  18  14  19  14  20  14
M  END
>  <minimizedAffinity>  (1) 
-4.91876888

>  <minimizedRMSD>  (1) 
0.686983049

$$$$
