
     RDKit          3D

 50 54  0  0  0  0  0  0  0  0999 V2000
   33.3000   27.7850   48.5960 C   0  0  0  0  0  0  0  0  0  0  0  0
   31.6870   26.2360   47.5740 C   0  0  0  0  0  0  0  0  0  0  0  0
   31.3950   25.1520   46.8260 C   0  0  0  0  0  0  0  0  0  0  0  0
   32.3580   24.3510   46.2270 C   0  0  0  0  0  0  0  0  0  0  0  0
   33.6720   24.7290   46.4410 C   0  0  0  0  0  0  0  0  0  0  0  0
   33.9920   25.8250   47.1970 C   0  0  0  0  0  0  0  0  0  0  0  0
   33.0060   26.5940   47.7730 C   0  0  0  0  0  0  0  0  0  0  0  0
   29.3070   27.6440   50.0090 C   0  0  0  0  0  0  0  0  0  0  0  0
   28.6450   28.6400   49.2420 C   0  0  0  0  0  0  0  0  0  0  0  0
   29.0450   28.7910   47.9110 C   0  0  0  0  0  0  0  0  0  0  0  0
   30.0430   27.9780   47.4210 N   0  0  0  0  0  0  0  0  0  0  0  0
   30.6400   27.0490   48.1850 C   0  0  0  0  0  0  0  0  0  0  0  0
   30.2600   26.9050   49.4520 N   0  0  0  0  0  0  0  0  0  0  0  0
   27.5740   29.4960   49.8010 C   0  0  0  0  0  0  0  0  0  0  0  0
   28.0470   30.6020   50.4540 F   0  0  0  0  0  0  0  0  0  0  0  0
   26.7740   28.8030   50.6890 F   0  0  0  0  0  0  0  0  0  0  0  0
   26.7530   29.9490   48.7470 F   0  0  0  0  0  0  0  0  0  0  0  0
   33.6530   29.0040   47.8230 C   0  0  0  0  0  0  0  0  0  0  0  0
   34.9740   29.4980   48.2110 C   0  0  0  0  0  0  0  0  0  0  0  0
   35.6900   28.9920   49.2810 C   0  0  0  0  0  0  0  0  0  0  0  0
   36.8880   29.6660   49.3880 C   0  0  0  0  0  0  0  0  0  0  0  0
   36.8560   30.5760   48.3560 N   0  0  0  0  0  0  0  0  0  0  0  0
   35.7340   30.4780   47.6650 N   0  0  0  0  0  0  0  0  0  0  0  0
   37.8300   31.5450   47.9760 C   0  0  0  0  0  0  0  0  0  0  0  0
   38.1400   32.7260   48.6280 C   0  0  0  0  0  0  0  0  0  0  0  0
   39.1160   33.3790   47.9660 N   0  0  0  0  0  0  0  0  0  0  0  0
   39.4770   32.6720   46.8800 C   0  0  0  0  0  0  0  0  0  0  0  0
   40.4150   32.9130   45.9010 C   0  0  0  0  0  0  0  0  0  0  0  0
   40.5960   32.0030   44.8690 C   0  0  0  0  0  0  0  0  0  0  0  0
   39.7950   30.8610   44.8760 C   0  0  0  0  0  0  0  0  0  0  0  0
   38.8650   30.6470   45.8660 C   0  0  0  0  0  0  0  0  0  0  0  0
   38.6830   31.5400   46.8890 C   0  0  0  0  0  0  0  0  0  0  0  0
   32.4104   28.0100   49.2027 H   0  0  0  0  0  0  0  0  0  0  0  0
   34.1845   27.5339   49.1998 H   0  0  0  0  0  0  0  0  0  0  0  0
   30.3367   24.8884   46.6829 H   0  0  0  0  0  0  0  0  0  0  0  0
   32.0934   23.4720   45.6210 H   0  0  0  0  0  0  0  0  0  0  0  0
   34.4805   24.1334   45.9920 H   0  0  0  0  0  0  0  0  0  0  0  0
   35.0482   26.0939   47.3457 H   0  0  0  0  0  0  0  0  0  0  0  0
   29.0310   27.4851   51.0619 H   0  0  0  0  0  0  0  0  0  0  0  0
   28.5710   29.5458   47.2664 H   0  0  0  0  0  0  0  0  0  0  0  0
   32.9036   29.7852   48.0186 H   0  0  0  0  0  0  0  0  0  0  0  0
   33.6704   28.7512   46.7526 H   0  0  0  0  0  0  0  0  0  0  0  0
   35.3559   28.1793   49.9427 H   0  0  0  0  0  0  0  0  0  0  0  0
   37.6865   29.5117   50.1286 H   0  0  0  0  0  0  0  0  0  0  0  0
   37.6597   33.0802   49.5521 H   0  0  0  0  0  0  0  0  0  0  0  0
   39.5233   34.2818   48.2487 H   0  0  0  0  0  0  0  0  0  0  0  0
   41.0225   33.8293   45.9371 H   0  0  0  0  0  0  0  0  0  0  0  0
   41.3406   32.1752   44.0779 H   0  0  0  0  0  0  0  0  0  0  0  0
   39.9096   30.1171   44.0738 H   0  0  0  0  0  0  0  0  0  0  0  0
   38.2510   29.7348   45.8358 H   0  0  0  0  0  0  0  0  0  0  0  0
  2  7  1  0
  2 12  1  0
  3  2  2  0
  4  5  2  0
  4  3  1  0
  5  6  1  0
  6  7  2  0
  7  1  1  0
  9 14  1  0
  9  8  2  0
 10  9  1  0
 11 10  2  0
 11 12  1  0
 12 13  2  0
 13  8  1  0
 14 15  1  0
 14 16  1  0
 17 14  1  0
 18 19  1  0
 18  1  1  0
 19 20  1  0
 20 21  2  0
 22 21  1  0
 23 19  2  0
 23 22  1  0
 24 22  1  0
 24 25  2  0
 26 25  1  0
 27 32  2  0
 27 26  1  0
 28 27  1  0
 29 30  1  0
 29 28  2  0
 30 31  2  0
 31 32  1  0
 32 24  1  0
  1 33  1  0
  1 34  1  0
  3 35  1  0
  4 36  1  0
  5 37  1  0
  6 38  1  0
  8 39  1  0
 10 40  1  0
 18 41  1  0
 18 42  1  0
 20 43  1  0
 21 44  1  0
 25 45  1  0
 26 46  1  0
 28 47  1  0
 29 48  1  0
 30 49  1  0
 31 50  1  0
M  ISO  8  33   8  34   8  35  14  36  14  37  14  38  14  39  14  40  14
M  ISO  8  41   8  42   8  43  14  44  14  45  14  46   9  47  14  48  14
M  ISO  2  49  14  50  14
M  END
>  <minimizedAffinity>  (1) 
-8.15398788

>  <minimizedRMSD>  (1) 
1.88976049

$$$$
