
     RDKit          3D

 36 39  0  0  1  0  0  0  0  0999 V2000
   38.6050   32.2130   48.0170 C   0  0  1  0  0  0  0  0  0  0  0  0
   37.9380   31.2650   48.9070 C   0  0  0  0  0  0  0  0  0  0  0  0
   38.4270   31.0820   50.1330 N   0  0  0  0  0  0  0  0  0  0  0  0
   37.8800   30.2180   51.0240 C   0  0  0  0  0  0  0  0  0  0  0  0
   36.8060   29.4820   50.7380 N   0  0  0  0  0  0  0  0  0  0  0  0
   36.2290   29.5940   49.5150 C   0  0  0  0  0  0  0  0  0  0  0  0
   35.1300   28.8490   49.1810 C   0  0  0  0  0  0  0  0  0  0  0  0
   34.5460   28.9430   47.9570 C   0  0  0  0  0  0  0  0  0  0  0  0
   35.1220   29.8310   47.0730 C   0  0  0  0  0  0  0  0  0  0  0  0
   36.2230   30.5630   47.4390 C   0  0  0  0  0  0  0  0  0  0  0  0
   36.8270   30.4850   48.6610 C   0  0  0  0  0  0  0  0  0  0  0  0
   39.1150   32.1200   46.6800 C   0  0  0  0  0  0  0  0  0  0  0  0
   39.7550   33.3110   46.3030 C   0  0  0  0  0  0  0  0  0  0  0  0
   40.4630   33.3820   45.0600 C   0  0  0  0  0  0  0  0  0  0  0  0
   40.4530   32.2450   44.3240 N   0  0  0  0  0  0  0  0  0  0  0  0
   39.8190   31.1050   44.7150 C   0  0  0  0  0  0  0  0  0  0  0  0
   39.1670   31.0470   45.8630 N   0  0  0  0  0  0  0  0  0  0  0  0
   39.8820   29.9470   43.8220 C   0  0  0  0  0  0  0  0  0  0  0  0
   40.8330   29.9110   42.8210 C   0  0  0  0  0  0  0  0  0  0  0  0
   40.8790   28.8110   41.9870 C   0  0  0  0  0  0  0  0  0  0  0  0
   40.0120   27.7970   42.1560 N   0  0  0  0  0  0  0  0  0  0  0  0
   39.0700   27.8290   43.1450 C   0  0  0  0  0  0  0  0  0  0  0  0
   39.0260   28.9160   43.9670 N   0  0  0  0  0  0  0  0  0  0  0  0
   38.2430   33.3890   48.5260 O   0  0  0  0  0  0  0  0  0  0  0  0
   39.5960   31.7619   47.8604 H   0  0  0  0  0  0  0  0  0  0  0  0
   38.3393   30.1211   52.0188 H   0  0  0  0  0  0  0  0  0  0  0  0
   34.7081   28.1555   49.9233 H   0  0  0  0  0  0  0  0  0  0  0  0
   33.6636   28.3444   47.6869 H   0  0  0  0  0  0  0  0  0  0  0  0
   34.6953   29.9533   46.0665 H   0  0  0  0  0  0  0  0  0  0  0  0
   36.6470   31.2583   46.6995 H   0  0  0  0  0  0  0  0  0  0  0  0
   39.7128   34.1903   46.9626 H   0  0  0  0  0  0  0  0  0  0  0  0
   40.9782   34.2950   44.7268 H   0  0  0  0  0  0  0  0  0  0  0  0
   41.5406   30.7430   42.6904 H   0  0  0  0  0  0  0  0  0  0  0  0
   41.6272   28.7642   41.1820 H   0  0  0  0  0  0  0  0  0  0  0  0
   38.3629   26.9965   43.2752 H   0  0  0  0  0  0  0  0  0  0  0  0
   38.2583   33.3394   49.5146 H   0  0  0  0  0  0  0  0  0  0  0  0
  1 24  1  0
  1  2  1  0
  2  3  2  0
  3  4  1  0
  5  4  2  0
  6  5  1  0
  7  6  2  0
  8  7  1  0
  9 10  1  0
  9  8  2  0
 10 11  2  0
 11  2  1  0
 11  6  1  0
 12  1  1  0
 13 12  2  0
 14 13  1  0
 15 16  1  0
 15 14  2  0
 16 17  2  0
 17 12  1  0
 18 23  1  0
 18 16  1  0
 19 18  2  0
 20 21  2  0
 20 19  1  0
 21 22  1  0
 22 23  2  0
  1 25  1  1
  4 26  1  0
  7 27  1  0
  8 28  1  0
  9 29  1  0
 10 30  1  0
 13 31  1  0
 14 32  1  0
 19 33  1  0
 20 34  1  0
 22 35  1  0
 24 36  1  0
M  END
>  <minimizedAffinity>  (1) 
-7.23707914

>  <minimizedRMSD>  (1) 
0.725213528

$$$$
