
     RDKit          3D

 28 30  0  0  1  0  0  0  0  0999 V2000
   35.4920   29.4450   49.1700 C   0  0  2  0  0  0  0  0  0  0  0  0
   34.3920   29.5720   50.1670 C   0  0  0  0  0  0  0  0  0  0  0  0
   34.6620   28.2350   49.5540 C   0  0  1  0  0  0  0  0  0  0  0  0
   33.5870   27.7690   48.6400 C   0  0  0  0  0  0  0  0  0  0  0  0
   33.8650   27.1100   47.4500 C   0  0  0  0  0  0  0  0  0  0  0  0
   32.8170   26.6940   46.6280 C   0  0  0  0  0  0  0  0  0  0  0  0
   31.5370   26.9310   46.9860 N   0  0  0  0  0  0  0  0  0  0  0  0
   31.2720   27.5770   48.1530 C   0  0  0  0  0  0  0  0  0  0  0  0
   32.2860   27.9770   48.9430 N   0  0  0  0  0  0  0  0  0  0  0  0
   36.9310   29.3660   49.6370 C   0  0  0  0  0  0  0  0  0  0  0  0
   38.4190   32.7230   49.3650 C   0  0  0  0  0  0  0  0  0  0  0  0
   38.9130   32.7540   48.0610 C   0  0  0  0  0  0  0  0  0  0  0  0
   38.7270   31.6080   47.2840 C   0  0  0  0  0  0  0  0  0  0  0  0
   38.0750   30.5350   47.8510 N   0  0  0  0  0  0  0  0  0  0  0  0
   37.6180   30.5600   49.1140 C   0  0  0  0  0  0  0  0  0  0  0  0
   37.7970   31.6740   49.8750 N   0  0  0  0  0  0  0  0  0  0  0  0
   35.7402   30.0106   48.2598 H   0  0  0  0  0  0  0  0  0  0  0  0
   34.6314   29.7465   51.2264 H   0  0  0  0  0  0  0  0  0  0  0  0
   33.5033   30.2138   50.2577 H   0  0  0  0  0  0  0  0  0  0  0  0
   34.9244   27.2213   49.8911 H   0  0  0  0  0  0  0  0  0  0  0  0
   34.9073   26.9166   47.1564 H   0  0  0  0  0  0  0  0  0  0  0  0
   33.0345   26.1711   45.6850 H   0  0  0  0  0  0  0  0  0  0  0  0
   30.2312   27.7723   48.4508 H   0  0  0  0  0  0  0  0  0  0  0  0
   36.9718   29.3574   50.7362 H   0  0  0  0  0  0  0  0  0  0  0  0
   37.4120   28.4453   49.2750 H   0  0  0  0  0  0  0  0  0  0  0  0
   38.5532   33.6124   49.9982 H   0  0  0  0  0  0  0  0  0  0  0  0
   39.4263   33.6414   47.6621 H   0  0  0  0  0  0  0  0  0  0  0  0
   39.0914   31.5636   46.2471 H   0  0  0  0  0  0  0  0  0  0  0  0
  1  3  1  0
  1 10  1  0
  1  2  1  0
  3  2  1  0
  4  9  1  0
  4  3  1  0
  5  4  2  0
  6  7  2  0
  6  5  1  0
  7  8  1  0
  8  9  2  0
 11 16  2  0
 12 11  1  0
 13 14  1  0
 13 12  2  0
 14 15  2  0
 15 10  1  0
 15 16  1  0
  1 17  1  6
  2 18  1  0
  2 19  1  0
  3 20  1  1
  5 21  1  0
  6 22  1  0
  8 23  1  0
 10 24  1  0
 10 25  1  0
 11 26  1  0
 12 27  1  0
 13 28  1  0
M  ISO  8  17  13  18  13  19  13  20  13  21  14  22  14  23  14  24   8
M  ISO  4  25   8  26  14  27  14  28  14
M  END
>  <minimizedAffinity>  (1) 
-5.08017826

>  <minimizedRMSD>  (1) 
0.776106954

$$$$
