
     RDKit          3D

 37 39  0  0  0  0  0  0  0  0999 V2000
   34.4610   29.0630   45.3320 C   0  0  0  0  0  0  0  0  0  0  0  0
   34.0490   29.1720   41.5800 C   0  0  0  0  0  0  0  0  0  0  0  0
   34.1550   28.6710   42.8820 C   0  0  0  0  0  0  0  0  0  0  0  0
   34.3370   29.5300   43.9590 C   0  0  0  0  0  0  0  0  0  0  0  0
   34.4060   30.8750   43.6890 N   0  0  0  0  0  0  0  0  0  0  0  0
   34.3030   31.3150   42.4510 C   0  0  0  0  0  0  0  0  0  0  0  0
   34.1300   30.5190   41.4010 N   0  0  0  0  0  0  0  0  0  0  0  0
   34.3870   32.7670   42.2280 C   0  0  0  0  0  0  0  0  0  0  0  0
   33.5090   33.6510   42.8210 C   0  0  0  0  0  0  0  0  0  0  0  0
   33.6210   35.0250   42.5830 C   0  0  0  0  0  0  0  0  0  0  0  0
   34.6030   35.4380   41.7660 N   0  0  0  0  0  0  0  0  0  0  0  0
   35.4700   34.6060   41.1770 C   0  0  0  0  0  0  0  0  0  0  0  0
   35.3320   33.2940   41.4280 N   0  0  0  0  0  0  0  0  0  0  0  0
   35.2090   29.9480   46.2370 C   0  0  0  0  0  0  0  0  0  0  0  0
   35.2270   29.6700   47.6190 N   0  0  0  0  0  0  0  0  0  0  0  0
   34.5110   28.7940   48.3140 C   0  0  0  0  0  0  0  0  0  0  0  0
   34.6010   28.5950   49.6670 C   0  0  0  0  0  0  0  0  0  0  0  0
   35.4950   29.3420   50.3990 C   0  0  0  0  0  0  0  0  0  0  0  0
   35.6320   29.2160   51.6270 O   0  0  0  0  0  0  0  0  0  0  0  0
   36.2090   30.2100   49.7240 N   0  0  0  0  0  0  0  0  0  0  0  0
   36.1040   30.3890   48.4020 C   0  0  0  0  0  0  0  0  0  0  0  0
   36.8410   31.2510   47.8650 O   0  0  0  0  0  0  0  0  0  0  0  0
   37.1680   31.0200   50.4720 C   0  0  0  0  0  0  0  0  0  0  0  0
   38.4390   30.8340   49.9590 F   0  0  0  0  0  0  0  0  0  0  0  0
   37.1860   30.5150   51.7770 F   0  0  0  0  0  0  0  0  0  0  0  0
   36.7650   32.3180   50.4410 F   0  0  0  0  0  0  0  0  0  0  0  0
   34.9705   28.0883   45.3136 H   0  0  0  0  0  0  0  0  0  0  0  0
   33.4364   29.0206   45.7300 H   0  0  0  0  0  0  0  0  0  0  0  0
   33.9042   28.4960   40.7244 H   0  0  0  0  0  0  0  0  0  0  0  0
   34.0937   27.5864   43.0548 H   0  0  0  0  0  0  0  0  0  0  0  0
   32.7169   33.2734   43.4843 H   0  0  0  0  0  0  0  0  0  0  0  0
   32.9288   35.7418   43.0489 H   0  0  0  0  0  0  0  0  0  0  0  0
   36.2635   34.9815   40.5142 H   0  0  0  0  0  0  0  0  0  0  0  0
   36.2548   29.9450   45.8960 H   0  0  0  0  0  0  0  0  0  0  0  0
   34.6673   30.9032   46.1718 H   0  0  0  0  0  0  0  0  0  0  0  0
   33.7875   28.1786   47.7593 H   0  0  0  0  0  0  0  0  0  0  0  0
   33.9654   27.8462   50.1623 H   0  0  0  0  0  0  0  0  0  0  0  0
  1 14  1  0
  2  3  2  0
  3  4  1  0
  4  1  1  0
  5  4  2  0
  6  5  1  0
  7  2  1  0
  7  6  2  0
  8  6  1  0
  8  9  2  0
 10  9  1  0
 11 10  2  0
 12 13  2  0
 12 11  1  0
 13  8  1  0
 14 15  1  0
 15 16  1  0
 15 21  1  0
 16 17  2  0
 17 18  1  0
 18 19  2  0
 20 18  1  0
 20 23  1  0
 21 20  1  0
 22 21  2  0
 23 25  1  0
 24 23  1  0
 26 23  1  0
  1 27  1  0
  1 28  1  0
  2 29  1  0
  3 30  1  0
  9 31  1  0
 10 32  1  0
 12 33  1  0
 14 34  1  0
 14 35  1  0
 16 36  1  0
 17 37  1  0
M  ISO  8  27   8  28   8  29  14  30  14  31  14  32  14  33  14  34   8
M  ISO  3  35   8  36  14  37  14
M  END
>  <minimizedAffinity>  (1) 
-5.59933853

>  <minimizedRMSD>  (1) 
9.42104053

$$$$
