
     RDKit          3D

 33 35  0  0  1  0  0  0  0  0999 V2000
   35.0230   29.3250   48.5220 C   0  0  0  0  0  0  0  0  0  0  0  0
   34.5780   28.1210   49.0720 C   0  0  0  0  0  0  0  0  0  0  0  0
   33.4800   27.5580   48.5080 C   0  0  0  0  0  0  0  0  0  0  0  0
   32.8910   28.1850   47.4640 C   0  0  0  0  0  0  0  0  0  0  0  0
   33.8570   29.6660   47.1730 S   0  0  0  0  0  0  0  0  0  0  0  0
   37.7710   30.6360   50.6240 C   0  0  0  0  0  0  0  0  0  0  0  0
   38.3340   31.6230   49.7510 C   0  0  0  0  0  0  0  0  0  0  0  0
   37.7700   31.8160   48.4820 C   0  0  0  0  0  0  0  0  0  0  0  0
   36.7170   31.0490   48.1520 N   0  0  0  0  0  0  0  0  0  0  0  0
   36.2000   30.1360   48.9630 C   0  0  0  0  0  0  0  0  0  0  0  0
   36.7010   29.9110   50.1910 N   0  0  0  0  0  0  0  0  0  0  0  0
   31.7010   27.8320   46.6510 C   0  0  2  0  0  0  0  0  0  0  0  0
   31.9030   28.3790   45.2670 C   0  0  0  0  0  0  0  0  0  0  0  0
   30.4730   28.3760   47.3160 C   0  0  0  0  0  0  0  0  0  0  0  0
   29.8060   27.4010   48.2620 C   0  0  0  0  0  0  0  0  0  0  0  0
   28.6130   27.9830   49.0280 C   0  0  0  0  0  0  0  0  0  0  0  0
   29.8900   27.6500   49.7330 C   0  0  0  0  0  0  0  0  0  0  0  0
   35.0935   27.6511   49.9226 H   0  0  0  0  0  0  0  0  0  0  0  0
   33.0764   26.6097   48.8924 H   0  0  0  0  0  0  0  0  0  0  0  0
   38.1944   30.4665   51.6250 H   0  0  0  0  0  0  0  0  0  0  0  0
   39.1985   32.2222   50.0727 H   0  0  0  0  0  0  0  0  0  0  0  0
   38.1732   32.5651   47.7846 H   0  0  0  0  0  0  0  0  0  0  0  0
   31.5688   26.7428   46.5719 H   0  0  0  0  0  0  0  0  0  0  0  0
   32.2834   29.4091   45.3318 H   0  0  0  0  0  0  0  0  0  0  0  0
   32.6293   27.7531   44.7278 H   0  0  0  0  0  0  0  0  0  0  0  0
   30.9442   28.3754   44.7278 H   0  0  0  0  0  0  0  0  0  0  0  0
   30.7562   29.2732   47.8860 H   0  0  0  0  0  0  0  0  0  0  0  0
   29.7477   28.5945   46.5184 H   0  0  0  0  0  0  0  0  0  0  0  0
   30.0131   26.5249   47.6298 H   0  0  0  0  0  0  0  0  0  0  0  0
   28.3210   29.0332   48.8806 H   0  0  0  0  0  0  0  0  0  0  0  0
   27.5549   27.7101   49.1540 H   0  0  0  0  0  0  0  0  0  0  0  0
   29.9227   26.7990   50.4292 H   0  0  0  0  0  0  0  0  0  0  0  0
   30.5803   28.2130   50.3784 H   0  0  0  0  0  0  0  0  0  0  0  0
  1 10  1  0
  1  2  2  0
  3  2  1  0
  4  3  2  0
  5  4  1  0
  5  1  1  0
  7  6  2  0
  8  7  1  0
  9  8  2  0
  9 10  1  0
 10 11  2  0
 11  6  1  0
 12 14  1  0
 12  4  1  0
 13 12  1  0
 14 15  1  0
 15 16  1  0
 15 17  1  0
 16 17  1  0
  2 18  1  0
  3 19  1  0
  6 20  1  0
  7 21  1  0
  8 22  1  0
 12 23  1  6
 13 24  1  0
 13 25  1  0
 13 26  1  0
 14 27  1  0
 14 28  1  0
 15 29  1  0
 16 30  1  0
 16 31  1  0
 17 32  1  0
 17 33  1  0
M  ISO  8  18  14  19  14  20  14  21  14  22  14  23   8  24   8  25   8
M  ISO  8  26   8  27   8  28   8  29  13  30  13  31  13  32  13  33  13
M  END
>  <minimizedAffinity>  (1) 
-4.5286479

>  <minimizedRMSD>  (1) 
1.65313721

$$$$
