
     RDKit          3D

 47 50  0  0  1  0  0  0  0  0999 V2000
   36.0640   30.1700   45.2900 C   0  0  0  0  0  0  0  0  0  0  0  0
   37.1890   29.8840   45.7870 O   0  0  0  0  0  0  0  0  0  0  0  0
   36.1220   30.9880   44.1320 N   0  0  0  0  0  0  0  0  0  0  0  0
   35.2600   30.5920   43.0360 C   0  0  0  0  0  0  0  0  0  0  0  0
   35.6770   31.2430   41.7300 C   0  0  0  0  0  0  0  0  0  0  0  0
   37.0670   31.3520   41.7580 O   0  0  0  0  0  0  0  0  0  0  0  0
   37.3400   32.4440   42.5910 C   0  0  0  0  0  0  0  0  0  0  0  0
   36.9780   32.1470   44.0260 C   0  0  2  0  0  0  0  0  0  0  0  0
   33.6100   28.9420   47.8620 C   0  0  0  0  0  0  0  0  0  0  0  0
   34.8140   29.4440   47.2840 C   0  0  0  0  0  0  0  0  0  0  0  0
   34.8580   29.6610   45.9110 C   0  0  0  0  0  0  0  0  0  0  0  0
   33.7290   29.3770   45.2020 N   0  0  0  0  0  0  0  0  0  0  0  0
   32.6250   28.9130   45.7740 C   0  0  0  0  0  0  0  0  0  0  0  0
   32.5620   28.6980   47.0780 N   0  0  0  0  0  0  0  0  0  0  0  0
   31.4920   28.6610   44.8370 C   0  0  0  0  0  0  0  0  0  0  0  0
   31.0840   29.8560   44.2340 F   0  0  0  0  0  0  0  0  0  0  0  0
   31.9150   27.8650   43.7980 F   0  0  0  0  0  0  0  0  0  0  0  0
   30.4310   28.0000   45.4340 F   0  0  0  0  0  0  0  0  0  0  0  0
   33.5820   28.7310   49.2330 O   0  0  0  0  0  0  0  0  0  0  0  0
   34.1310   29.5860   50.1690 C   0  0  0  0  0  0  0  0  0  0  0  0
   35.2410   29.0610   50.8090 F   0  0  0  0  0  0  0  0  0  0  0  0
   34.4050   30.8490   49.7110 F   0  0  0  0  0  0  0  0  0  0  0  0
   33.1340   29.7230   51.1540 F   0  0  0  0  0  0  0  0  0  0  0  0
   38.2060   31.7620   44.6180 O   0  0  0  0  0  0  0  0  0  0  0  0
   38.9860   32.5980   45.3780 C   0  0  0  0  0  0  0  0  0  0  0  0
   40.0500   33.4520   45.0970 C   0  0  0  0  0  0  0  0  0  0  0  0
   40.4420   34.0420   46.2620 N   0  0  0  0  0  0  0  0  0  0  0  0
   39.6690   33.5940   47.2670 C   0  0  0  0  0  0  0  0  0  0  0  0
   39.6810   33.8970   48.6220 C   0  0  0  0  0  0  0  0  0  0  0  0
   38.7820   33.3140   49.5040 C   0  0  0  0  0  0  0  0  0  0  0  0
   37.8570   32.4060   48.9860 C   0  0  0  0  0  0  0  0  0  0  0  0
   37.8740   32.1330   47.6500 C   0  0  0  0  0  0  0  0  0  0  0  0
   38.7510   32.6910   46.7440 C   0  0  0  0  0  0  0  0  0  0  0  0
   35.3089   29.4991   42.9210 H   0  0  0  0  0  0  0  0  0  0  0  0
   34.2360   30.9185   43.2701 H   0  0  0  0  0  0  0  0  0  0  0  0
   35.2210   32.2401   41.6417 H   0  0  0  0  0  0  0  0  0  0  0  0
   35.3460   30.6447   40.8683 H   0  0  0  0  0  0  0  0  0  0  0  0
   38.4133   32.6780   42.5339 H   0  0  0  0  0  0  0  0  0  0  0  0
   36.7353   33.2978   42.2513 H   0  0  0  0  0  0  0  0  0  0  0  0
   36.4711   33.0118   44.4789 H   0  0  0  0  0  0  0  0  0  0  0  0
   35.6914   29.6555   47.9128 H   0  0  0  0  0  0  0  0  0  0  0  0
   40.4968   33.6212   44.1062 H   0  0  0  0  0  0  0  0  0  0  0  0
   41.2088   34.7230   46.3572 H   0  0  0  0  0  0  0  0  0  0  0  0
   40.4202   34.6158   49.0052 H   0  0  0  0  0  0  0  0  0  0  0  0
   38.7979   33.5594   50.5762 H   0  0  0  0  0  0  0  0  0  0  0  0
   37.1249   31.9177   49.6459 H   0  0  0  0  0  0  0  0  0  0  0  0
   37.1338   31.4150   47.2670 H   0  0  0  0  0  0  0  0  0  0  0  0
  1  2  2  0
  1 11  1  0
  3  1  1  0
  4  3  1  0
  5  6  1  0
  5  4  1  0
  6  7  1  0
  7  8  1  0
  8  3  1  0
  8 24  1  0
  9 19  1  0
 10  9  2  0
 11 10  1  0
 12 13  1  0
 12 11  2  0
 13 14  2  0
 14  9  1  0
 15 18  1  0
 15 13  1  0
 16 15  1  0
 17 15  1  0
 19 20  1  0
 20 21  1  0
 20 23  1  0
 22 20  1  0
 24 25  1  0
 25 33  1  0
 26 25  2  0
 26 27  1  0
 27 28  1  0
 28 29  2  0
 29 30  1  0
 31 30  2  0
 32 31  1  0
 33 28  1  0
 33 32  2  0
  4 34  1  0
  4 35  1  0
  5 36  1  0
  5 37  1  0
  7 38  1  0
  7 39  1  0
  8 40  1  1
 10 41  1  0
 26 42  1  0
 27 43  1  0
 29 44  1  0
 30 45  1  0
 31 46  1  0
 32 47  1  0
M  ISO  8  34  13  35  13  36  13  37  13  38  13  39  13  40  13  41  14
M  ISO  6  42  14  43   9  44  14  45  14  46  14  47  14
M  END
>  <minimizedAffinity>  (1) 
-5.75577402

>  <minimizedRMSD>  (1) 
2.97941136

$$$$
