
     RDKit          3D

 36 39  0  0  1  0  0  0  0  0999 V2000
   35.2770   29.1750   48.5800 C   0  0  2  0  0  0  0  0  0  0  0  0
   34.0430   29.3110   49.3470 C   0  0  0  0  0  0  0  0  0  0  0  0
   34.4110   27.9580   49.0470 C   0  0  1  0  0  0  0  0  0  0  0  0
   36.5870   29.2360   49.3850 C   0  0  0  0  0  0  0  0  0  0  0  0
   37.6300   32.7300   49.5620 C   0  0  0  0  0  0  0  0  0  0  0  0
   38.4940   32.8530   48.4620 C   0  0  0  0  0  0  0  0  0  0  0  0
   38.7090   31.7060   47.6640 C   0  0  0  0  0  0  0  0  0  0  0  0
   38.0620   30.5480   48.0070 N   0  0  0  0  0  0  0  0  0  0  0  0
   37.2490   30.4880   49.0650 C   0  0  0  0  0  0  0  0  0  0  0  0
   37.0370   31.5870   49.8410 N   0  0  0  0  0  0  0  0  0  0  0  0
   33.5890   27.2850   47.9660 C   0  0  0  0  0  0  0  0  0  0  0  0
   33.9560   26.0660   47.7360 O   0  0  0  0  0  0  0  0  0  0  0  0
   32.5320   27.8460   47.2530 O   0  0  0  0  0  0  0  0  0  0  0  0
   31.2880   28.0540   47.7910 C   0  0  0  0  0  0  0  0  0  0  0  0
   30.8380   27.5720   49.1190 C   0  0  0  0  0  0  0  0  0  0  0  0
   29.5780   27.8660   49.4990 C   0  0  0  0  0  0  0  0  0  0  0  0
   28.7110   28.6030   48.6790 C   0  0  0  0  0  0  0  0  0  0  0  0
   29.7360   28.9510   47.1700 S   0  0  0  0  0  0  0  0  0  0  0  0
   27.4130   29.0380   48.8050 C   0  0  0  0  0  0  0  0  0  0  0  0
   26.3790   28.1020   49.1710 C   0  0  0  0  0  0  0  0  0  0  0  0
   24.9030   29.1590   49.1980 S   0  0  0  0  0  0  0  0  0  0  0  0
   25.9140   30.6950   48.7110 C   0  0  0  0  0  0  0  0  0  0  0  0
   26.9480   30.2600   48.6290 N   0  0  0  0  0  0  0  0  0  0  0  0
   35.6557   29.6209   47.6485 H   0  0  0  0  0  0  0  0  0  0  0  0
   34.0972   29.6609   50.3884 H   0  0  0  0  0  0  0  0  0  0  0  0
   33.1210   29.8864   49.1773 H   0  0  0  0  0  0  0  0  0  0  0  0
   34.5878   27.0387   49.6246 H   0  0  0  0  0  0  0  0  0  0  0  0
   36.3663   29.1944   50.4618 H   0  0  0  0  0  0  0  0  0  0  0  0
   37.2341   28.3839   49.1294 H   0  0  0  0  0  0  0  0  0  0  0  0
   37.4447   33.6045   50.2030 H   0  0  0  0  0  0  0  0  0  0  0  0
   38.9865   33.8087   48.2293 H   0  0  0  0  0  0  0  0  0  0  0  0
   39.3777   31.7423   46.7913 H   0  0  0  0  0  0  0  0  0  0  0  0
   31.5089   26.9944   49.7719 H   0  0  0  0  0  0  0  0  0  0  0  0
   29.2202   27.5182   50.4793 H   0  0  0  0  0  0  0  0  0  0  0  0
   26.4628   27.0253   49.3800 H   0  0  0  0  0  0  0  0  0  0  0  0
   25.5778   31.7303   48.5523 H   0  0  0  0  0  0  0  0  0  0  0  0
  1  3  1  0
  1  2  1  0
  1  4  1  0
  3  2  1  0
  5 10  2  0
  6  5  1  0
  7  8  1  0
  7  6  2  0
  8  9  2  0
  9  4  1  0
  9 10  1  0
 11  3  1  0
 12 11  2  0
 13 14  1  0
 13 11  1  0
 14 15  2  0
 15 16  1  0
 17 19  1  0
 17 16  2  0
 18 14  1  0
 18 17  1  0
 19 20  2  0
 20 21  1  0
 22 21  1  0
 23 22  2  0
 23 19  1  0
  1 24  1  6
  2 25  1  0
  2 26  1  0
  3 27  1  1
  4 28  1  0
  4 29  1  0
  5 30  1  0
  6 31  1  0
  7 32  1  0
 15 33  1  0
 16 34  1  0
 20 35  1  0
 22 36  1  0
M  ISO  8  24  13  25  13  26  13  27  13  28   8  29   8  30  14  31  14
M  ISO  5  32  14  33  14  34  14  35  14  36  14
M  END
>  <minimizedAffinity>  (1) 
-6.1502986

>  <minimizedRMSD>  (1) 
1.71052516

$$$$
