
     RDKit          3D

 40 44  0  0  1  0  0  0  0  0999 V2000
   35.6140   30.4380   47.3780 C   0  0  0  0  0  0  0  0  0  0  0  0
   36.6830   30.6620   48.2270 C   0  0  0  0  0  0  0  0  0  0  0  0
   36.8090   29.7050   49.2840 C   0  0  0  0  0  0  0  0  0  0  0  0
   35.9170   28.6840   49.3880 N   0  0  0  0  0  0  0  0  0  0  0  0
   34.9100   28.5380   48.5250 C   0  0  0  0  0  0  0  0  0  0  0  0
   34.7580   29.4140   47.5200 N   0  0  0  0  0  0  0  0  0  0  0  0
   37.6830   31.7100   48.2090 C   0  0  0  0  0  0  0  0  0  0  0  0
   37.6210   32.4820   49.3310 C   0  0  0  0  0  0  0  0  0  0  0  0
   38.4940   33.5580   49.5280 C   0  0  0  0  0  0  0  0  0  0  0  0
   39.4390   33.8430   48.5600 C   0  0  0  0  0  0  0  0  0  0  0  0
   39.4920   33.0510   47.4210 C   0  0  0  0  0  0  0  0  0  0  0  0
   40.4070   33.2590   46.3930 C   0  0  0  0  0  0  0  0  0  0  0  0
   40.4020   32.4320   45.2920 C   0  0  0  0  0  0  0  0  0  0  0  0
   39.5180   31.3930   45.1590 C   0  0  0  0  0  0  0  0  0  0  0  0
   38.6080   31.1810   46.1760 C   0  0  0  0  0  0  0  0  0  0  0  0
   38.6270   32.0150   47.2670 C   0  0  0  0  0  0  0  0  0  0  0  0
   33.9660   27.4000   48.7010 C   0  0  1  0  0  0  0  0  0  0  0  0
   32.5080   27.6300   48.5200 C   0  0  0  0  0  0  0  0  0  0  0  0
   33.2700   26.8300   47.4990 C   0  0  2  0  0  0  0  0  0  0  0  0
   33.1890   25.3680   47.4430 C   0  0  0  0  0  0  0  0  0  0  0  0
   34.1990   24.4970   47.1000 C   0  0  0  0  0  0  0  0  0  0  0  0
   33.6220   23.2430   47.1990 C   0  0  0  0  0  0  0  0  0  0  0  0
   32.2900   23.4040   47.5950 C   0  0  0  0  0  0  0  0  0  0  0  0
   32.0950   24.6990   47.7230 O   0  0  0  0  0  0  0  0  0  0  0  0
   35.4572   31.1360   46.5424 H   0  0  0  0  0  0  0  0  0  0  0  0
   37.6280   29.7956   50.0127 H   0  0  0  0  0  0  0  0  0  0  0  0
   36.8674   32.2539   50.0992 H   0  0  0  0  0  0  0  0  0  0  0  0
   38.4291   34.1686   50.4406 H   0  0  0  0  0  0  0  0  0  0  0  0
   40.1371   34.6831   48.6901 H   0  0  0  0  0  0  0  0  0  0  0  0
   41.1330   34.0827   46.4600 H   0  0  0  0  0  0  0  0  0  0  0  0
   41.1337   32.6116   44.4905 H   0  0  0  0  0  0  0  0  0  0  0  0
   39.5329   30.7472   44.2687 H   0  0  0  0  0  0  0  0  0  0  0  0
   37.8805   30.3583   46.1133 H   0  0  0  0  0  0  0  0  0  0  0  0
   34.5914   26.9836   49.5044 H   0  0  0  0  0  0  0  0  0  0  0  0
   31.7865   27.1298   49.1828 H   0  0  0  0  0  0  0  0  0  0  0  0
   31.8608   28.5187   48.4845 H   0  0  0  0  0  0  0  0  0  0  0  0
   33.3447   26.8956   46.4035 H   0  0  0  0  0  0  0  0  0  0  0  0
   35.2318   24.7427   46.8121 H   0  0  0  0  0  0  0  0  0  0  0  0
   34.1243   22.2847   47.0005 H   0  0  0  0  0  0  0  0  0  0  0  0
   31.5520   22.6063   47.7655 H   0  0  0  0  0  0  0  0  0  0  0  0
  1  6  2  0
  1  2  1  0
  2  3  2  0
  3  4  1  0
  5 17  1  0
  5  4  2  0
  6  5  1  0
  7  2  1  0
  7  8  2  0
  8  9  1  0
 10  9  2  0
 11 10  1  0
 12 11  2  0
 13 12  1  0
 14 13  2  0
 14 15  1  0
 15 16  2  0
 16 11  1  0
 16  7  1  0
 18 17  1  0
 19 18  1  0
 19 17  1  0
 20 19  1  0
 20 24  1  0
 21 22  1  0
 21 20  2  0
 22 23  2  0
 23 24  1  0
  1 25  1  0
  3 26  1  0
  8 27  1  0
  9 28  1  0
 10 29  1  0
 12 30  1  0
 13 31  1  0
 14 32  1  0
 15 33  1  0
 17 34  1  1
 18 35  1  0
 18 36  1  0
 19 37  1  6
 21 38  1  0
 22 39  1  0
 23 40  1  0
M  ISO  8  25  14  26  14  27  14  28  14  29  14  30  14  31  14  32  14
M  ISO  8  33  14  34  13  35  13  36  13  37  13  38  14  39  14  40  14
M  END
>  <minimizedAffinity>  (1) 
-6.86271811

>  <minimizedRMSD>  (1) 
0.818047106

$$$$
