
     RDKit          3D

 51 54  0  0  0  0  0  0  0  0999 V2000
   36.4131   30.9648   48.7520 N   0  0  0  0  0  0  0  0  0  0  0  0
   36.3902   31.7323   49.8642 C   0  0  0  0  0  0  0  0  0  0  0  0
   37.3686   32.6625   49.7772 N   0  0  0  0  0  0  0  0  0  0  0  0
   37.9849   32.4596   48.6130 C   0  0  0  0  0  0  0  0  0  0  0  0
   39.0462   33.0763   47.9665 C   0  0  0  0  0  0  0  0  0  0  0  0
   39.4807   32.6588   46.7593 N   0  0  0  0  0  0  0  0  0  0  0  0
   38.9017   31.6177   46.1208 C   0  0  0  0  0  0  0  0  0  0  0  0
   37.8725   31.0281   46.7597 N   0  0  0  0  0  0  0  0  0  0  0  0
   37.4056   31.4001   47.9489 C   0  0  0  0  0  0  0  0  0  0  0  0
   39.6828   34.1750   48.6040 N   0  0  0  0  0  0  0  0  0  0  0  0
   34.6626   29.9855   47.3820 C   0  0  0  0  0  0  0  0  0  0  0  0
   35.5213   29.8853   48.5046 C   0  0  0  0  0  0  0  0  0  0  0  0
   35.4239   28.7337   49.2794 C   0  0  0  0  0  0  0  0  0  0  0  0
   34.5272   27.7790   48.9292 N   0  0  0  0  0  0  0  0  0  0  0  0
   33.7198   27.9075   47.8465 C   0  0  0  0  0  0  0  0  0  0  0  0
   33.7903   28.9957   47.0884 N   0  0  0  0  0  0  0  0  0  0  0  0
   32.7560   26.8285   47.5161 C   0  0  0  0  0  0  0  0  0  0  0  0
   31.5526   26.8954   48.4475 C   0  0  0  0  0  0  0  0  0  0  0  0
   32.1426   27.1218   46.1301 C   0  0  0  0  0  0  0  0  0  0  0  0
   33.3185   25.4724   47.4405 C   0  0  0  0  0  0  0  0  0  0  0  0
   35.7210   31.6578   50.7138 H   0  0  0  0  0  0  0  0  0  0  0  0
   39.2417   31.2847   45.1675 H   0  0  0  0  0  0  0  0  0  0  0  0
   39.8118   34.3060   49.6213 H   0  0  0  0  0  0  0  0  0  0  0  0
   40.0918   34.9777   48.0783 H   0  0  0  0  0  0  0  0  0  0  0  0
   34.7116   30.8653   46.7593 H   0  0  0  0  0  0  0  0  0  0  0  0
   36.0756   28.6632   50.1270 H   0  0  0  0  0  0  0  0  0  0  0  0
   31.8164   26.3950   49.4107 H   0  0  0  0  0  0  0  0  0  0  0  0
   30.6673   26.3861   47.9858 H   0  0  0  0  0  0  0  0  0  0  0  0
   31.3423   27.9685   48.5939 H   0  0  0  0  0  0  0  0  0  0  0  0
   31.3145   26.4214   46.0241 H   0  0  0  0  0  0  0  0  0  0  0  0
   32.8854   27.1288   45.3360 H   0  0  0  0  0  0  0  0  0  0  0  0
   31.7038   28.1465   46.2141 H   0  0  0  0  0  0  0  0  0  0  0  0
   33.6923   25.1885   48.4546 H   0  0  0  0  0  0  0  0  0  0  0  0
   32.4480   24.7680   47.2480 H   0  0  0  0  0  0  0  0  0  0  0  0
   34.3482   25.1360   46.4488 C   0  0  0  0  0  0  0  0  0  0  0  0
   34.3843   25.8309   45.1484 C   0  0  0  0  0  0  0  0  0  0  0  0
   35.2854   24.9983   44.2124 C   0  0  0  0  0  0  0  0  0  0  0  0
   36.4568   24.5313   45.0267 C   0  0  0  0  0  0  0  0  0  0  0  0
   36.8136   25.4840   46.1288 C   0  0  0  0  0  0  0  0  0  0  0  0
   35.6947   25.4847   47.1337 C   0  0  0  0  0  0  0  0  0  0  0  0
   34.4430   24.0196   46.2779 H   0  0  0  0  0  0  0  0  0  0  0  0
   33.4138   26.0128   44.6460 H   0  0  0  0  0  0  0  0  0  0  0  0
   34.8882   26.8174   45.2342 H   0  0  0  0  0  0  0  0  0  0  0  0
   34.7128   24.1014   43.8953 H   0  0  0  0  0  0  0  0  0  0  0  0
   35.5745   25.5870   43.3293 H   0  0  0  0  0  0  0  0  0  0  0  0
   36.2714   23.5366   45.5129 H   0  0  0  0  0  0  0  0  0  0  0  0
   37.3684   24.4169   44.3817 H   0  0  0  0  0  0  0  0  0  0  0  0
   37.1038   26.4853   45.7642 H   0  0  0  0  0  0  0  0  0  0  0  0
   37.7288   25.0653   46.6185 H   0  0  0  0  0  0  0  0  0  0  0  0
   35.8959   24.8151   47.9843 H   0  0  0  0  0  0  0  0  0  0  0  0
   35.5613   26.5613   47.4429 H   0  0  0  0  0  0  0  0  0  0  0  0
  1  2  1  0
  3  2  2  0
  4  3  1  0
  5 10  1  0
  5  4  2  0
  6  5  1  0
  7  8  1  0
  7  6  2  0
  8  9  2  0
  9  4  1  0
  9  1  1  0
 11 12  2  0
 12  1  1  0
 12 13  1  0
 14 13  2  0
 15 14  1  0
 16 11  1  0
 16 15  2  0
 17 15  1  0
 17 18  1  0
 19 17  1  0
 20 17  1  0
  2 21  1  0
  7 22  1  0
 10 23  1  0
 10 24  1  0
 11 25  1  0
 13 26  1  0
 18 27  1  0
 18 28  1  0
 18 29  1  0
 19 30  1  0
 19 31  1  0
 19 32  1  0
 20 33  1  0
 20 34  1  0
 35 36  1  0
 36 37  1  0
 37 38  1  0
 38 39  1  0
 39 40  1  0
 40 35  1  0
 35 41  1  0
 36 42  1  0
 36 43  1  0
 37 44  1  0
 37 45  1  0
 38 46  1  0
 38 47  1  0
 39 48  1  0
 39 49  1  0
 40 50  1  0
 40 51  1  0
 20 35  1  0
M  ISO  8  21  14  22  14  25  14  26  14  27   8  28   8  29   8  30   8
M  ISO  4  31   8  32   8  33   8  34   8
M  END
>  <DihAtoms>  (1) 
16,19,34,35

>  <DihDeg>  (1) 
59.72386986766915

$$$$
