
     RDKit          3D

 29 30  0  0  0  0  0  0  0  0999 V2000
   37.3620   30.3180   51.3890 C   0  0  0  0  0  0  0  0  0  0  0  0
   38.2070   30.9610   50.4740 C   0  0  0  0  0  0  0  0  0  0  0  0
   38.0640   30.6900   49.1090 C   0  0  0  0  0  0  0  0  0  0  0  0
   37.0920   29.8020   48.7540 N   0  0  0  0  0  0  0  0  0  0  0  0
   36.2910   29.1940   49.6360 C   0  0  0  0  0  0  0  0  0  0  0  0
   36.4390   29.4620   50.9550 N   0  0  0  0  0  0  0  0  0  0  0  0
   35.2580   28.2410   49.1790 C   0  0  0  0  0  0  0  0  0  0  0  0
   33.9670   28.9960   48.9690 C   0  0  0  0  0  0  0  0  0  0  0  0
   34.0970   29.9900   47.8580 C   0  0  0  0  0  0  0  0  0  0  0  0
   33.7520   29.4610   46.5020 C   0  0  0  0  0  0  0  0  0  0  0  0
   32.7140   28.3780   46.4780 C   0  0  0  0  0  0  0  0  0  0  0  0
   32.9220   27.3280   47.5530 C   0  0  0  0  0  0  0  0  0  0  0  0
   32.8060   28.0780   48.8550 C   0  0  0  0  0  0  0  0  0  0  0  0
   37.4614   30.5205   52.4656 H   0  0  0  0  0  0  0  0  0  0  0  0
   38.9723   31.6692   50.8245 H   0  0  0  0  0  0  0  0  0  0  0  0
   38.7062   31.1712   48.3566 H   0  0  0  0  0  0  0  0  0  0  0  0
   35.5742   27.7768   48.2332 H   0  0  0  0  0  0  0  0  0  0  0  0
   35.1144   27.4520   49.9319 H   0  0  0  0  0  0  0  0  0  0  0  0
   33.7563   29.5954   49.8669 H   0  0  0  0  0  0  0  0  0  0  0  0
   33.4290   30.8364   48.0757 H   0  0  0  0  0  0  0  0  0  0  0  0
   35.1587   30.2752   47.8192 H   0  0  0  0  0  0  0  0  0  0  0  0
   33.3811   30.2999   45.8949 H   0  0  0  0  0  0  0  0  0  0  0  0
   34.6738   29.0056   46.1111 H   0  0  0  0  0  0  0  0  0  0  0  0
   31.7255   28.8377   46.6247 H   0  0  0  0  0  0  0  0  0  0  0  0
   32.7930   27.8705   45.5053 H   0  0  0  0  0  0  0  0  0  0  0  0
   32.1500   26.5473   47.4860 H   0  0  0  0  0  0  0  0  0  0  0  0
   33.8923   26.8195   47.4530 H   0  0  0  0  0  0  0  0  0  0  0  0
   31.8710   28.6573   48.8685 H   0  0  0  0  0  0  0  0  0  0  0  0
   32.7961   27.3727   49.6991 H   0  0  0  0  0  0  0  0  0  0  0  0
  2  1  2  0
  3  2  1  0
  4  3  2  0
  4  5  1  0
  5  6  2  0
  6  1  1  0
  7  5  1  0
  8  7  1  0
  9  8  1  0
 10  9  1  0
 11 10  1  0
 11 12  1  0
 12 13  1  0
 13  8  1  0
  1 14  1  0
  2 15  1  0
  3 16  1  0
  7 17  1  0
  7 18  1  0
  8 19  1  0
  9 20  1  0
  9 21  1  0
 10 22  1  0
 10 23  1  0
 11 24  1  0
 11 25  1  0
 12 26  1  0
 12 27  1  0
 13 28  1  0
 13 29  1  0
M  ISO  8  14  14  15  14  16  14  17   8  18   8  19  13  20  13  21  13
M  ISO  8  22  13  23  13  24  13  25  13  26  13  27  13  28  13  29  13
M  END
>  <minimizedAffinity>  (1) 
-4.29452085

>  <minimizedRMSD>  (1) 
1.8687942

$$$$
