
     RDKit          3D

 27 28  0  0  0  0  0  0  0  0999 V2000
   36.8880   29.9610   49.8280 C   0  0  0  0  0  0  0  0  0  0  0  0
   38.0100   30.6480   49.3900 C   0  0  0  0  0  0  0  0  0  0  0  0
   38.0110   31.1350   48.0750 C   0  0  0  0  0  0  0  0  0  0  0  0
   36.9160   30.9010   47.3190 N   0  0  0  0  0  0  0  0  0  0  0  0
   35.8370   30.2200   47.7920 C   0  0  0  0  0  0  0  0  0  0  0  0
   35.8390   29.7610   49.0360 N   0  0  0  0  0  0  0  0  0  0  0  0
   39.1160   31.8410   47.5660 N   0  0  0  0  0  0  0  0  0  0  0  0
   39.0220   32.5760   46.3740 C   0  0  0  0  0  0  0  0  0  0  0  0
   37.9170   32.5370   45.6880 N   0  0  0  0  0  0  0  0  0  0  0  0
   40.1420   33.3510   45.9410 N   0  0  0  0  0  0  0  0  0  0  0  0
   37.8760   33.0460   44.7830 H   0  0  0  0  0  0  0  0  0  0  0  0
   34.6930   30.0160   46.8920 C   0  0  0  0  0  0  0  0  0  0  0  0
   34.6690   29.2890   45.7400 C   0  0  0  0  0  0  0  0  0  0  0  0
   33.3950   29.3780   45.2360 C   0  0  0  0  0  0  0  0  0  0  0  0
   32.6790   30.1690   46.1120 C   0  0  0  0  0  0  0  0  0  0  0  0
   33.5000   30.5210   47.0780 O   0  0  0  0  0  0  0  0  0  0  0  0
   36.8870   29.4360   51.2460 C   0  0  0  0  0  0  0  0  0  0  0  0
   35.5910   29.1290   51.6240 F   0  0  0  0  0  0  0  0  0  0  0  0
   37.7510   28.4050   51.3410 F   0  0  0  0  0  0  0  0  0  0  0  0
   37.3070   30.5020   52.0640 F   0  0  0  0  0  0  0  0  0  0  0  0
   38.8728   30.8061   50.0537 H   0  0  0  0  0  0  0  0  0  0  0  0
   40.0100   31.8182   48.0771 H   0  0  0  0  0  0  0  0  0  0  0  0
   40.0854   33.8947   45.0680 H   0  0  0  0  0  0  0  0  0  0  0  0
   41.0057   33.3658   46.5019 H   0  0  0  0  0  0  0  0  0  0  0  0
   35.5106   28.7358   45.2977 H   0  0  0  0  0  0  0  0  0  0  0  0
   33.0184   28.9104   44.3143 H   0  0  0  0  0  0  0  0  0  0  0  0
   31.6201   30.4521   46.0197 H   0  0  0  0  0  0  0  0  0  0  0  0
  1 17  1  0
  2  1  2  0
  3  2  1  0
  4  5  1  0
  4  3  2  0
  5  6  2  0
  6  1  1  0
  7  3  1  0
  8  7  1  0
  9  8  2  0
 10  8  1  0
 11  9  1  0
 12 16  1  0
 12  5  1  0
 13 12  2  0
 14 13  1  0
 14 15  2  0
 15 16  1  0
 17 19  1  0
 17 18  1  0
 17 20  1  0
  2 21  1  0
  7 22  1  0
 10 23  1  0
 10 24  1  0
 13 25  1  0
 14 26  1  0
 15 27  1  0
M  ISO  4  21  14  25  14  26  14  27  14
M  END
>  <minimizedAffinity>  (1) 
-6.53842163

>  <minimizedRMSD>  (1) 
0.0683783516

$$$$
