
     RDKit          3D

 37 39  0  0  0  0  0  0  0  0999 V2000
   39.3300   31.8570   45.7060 C   0  0  0  0  0  0  0  0  0  0  0  0
   40.5880   31.2990   45.5450 C   0  0  0  0  0  0  0  0  0  0  0  0
   40.8630   31.2750   44.1840 C   0  0  0  0  0  0  0  0  0  0  0  0
   39.7270   31.8340   43.5900 C   0  0  0  0  0  0  0  0  0  0  0  0
   38.8700   32.1530   44.5290 O   0  0  0  0  0  0  0  0  0  0  0  0
   37.1690   31.3630   48.5950 C   0  0  0  0  0  0  0  0  0  0  0  0
   37.5480   32.4210   49.4780 C   0  0  0  0  0  0  0  0  0  0  0  0
   38.5500   33.2780   49.0380 C   0  0  0  0  0  0  0  0  0  0  0  0
   39.1000   33.0530   47.8000 N   0  0  0  0  0  0  0  0  0  0  0  0
   38.7050   32.0440   47.0130 C   0  0  0  0  0  0  0  0  0  0  0  0
   37.7330   31.1850   47.4030 N   0  0  0  0  0  0  0  0  0  0  0  0
   36.1250   30.4740   49.0580 C   0  0  0  0  0  0  0  0  0  0  0  0
   34.9200   30.7060   48.7470 O   0  0  0  0  0  0  0  0  0  0  0  0
   36.4450   29.3710   49.8400 O   0  0  0  0  0  0  0  0  0  0  0  0
   36.4910   29.4350   51.2360 C   0  0  0  0  0  0  0  0  0  0  0  0
   37.6790   29.7230   51.9520 N   0  0  0  0  0  0  0  0  0  0  0  0
   35.3800   29.2130   51.7780 O   0  0  0  0  0  0  0  0  0  0  0  0
   39.5390   32.0260   42.1600 C   0  0  0  0  0  0  0  0  0  0  0  0
   39.9900   31.1850   41.1790 C   0  0  0  0  0  0  0  0  0  0  0  0
   39.5750   31.7780   40.0090 C   0  0  0  0  0  0  0  0  0  0  0  0
   38.9080   32.9210   40.2590 N   0  0  0  0  0  0  0  0  0  0  0  0
   38.8990   33.0490   41.5780 N   0  0  0  0  0  0  0  0  0  0  0  0
   38.2990   33.8610   39.3190 C   0  0  0  0  0  0  0  0  0  0  0  0
   36.8510   34.1540   39.6550 C   0  0  0  0  0  0  0  0  0  0  0  0
   41.2483   30.9405   46.3485 H   0  0  0  0  0  0  0  0  0  0  0  0
   41.7695   30.9009   43.6858 H   0  0  0  0  0  0  0  0  0  0  0  0
   37.0692   32.5510   50.4598 H   0  0  0  0  0  0  0  0  0  0  0  0
   38.8933   34.1142   49.6648 H   0  0  0  0  0  0  0  0  0  0  0  0
   37.6640   29.7595   52.9812 H   0  0  0  0  0  0  0  0  0  0  0  0
   38.5578   29.8959   51.4433 H   0  0  0  0  0  0  0  0  0  0  0  0
   40.5551   30.2489   41.2986 H   0  0  0  0  0  0  0  0  0  0  0  0
   39.7628   31.3728   39.0038 H   0  0  0  0  0  0  0  0  0  0  0  0
   38.3474   33.4311   38.3076 H   0  0  0  0  0  0  0  0  0  0  0  0
   38.8567   34.8072   39.3807 H   0  0  0  0  0  0  0  0  0  0  0  0
   36.7260   34.1793   40.7476 H   0  0  0  0  0  0  0  0  0  0  0  0
   36.5660   35.1280   39.2307 H   0  0  0  0  0  0  0  0  0  0  0  0
   36.2097   33.3674   39.2307 H   0  0  0  0  0  0  0  0  0  0  0  0
  1 10  1  0
  2  1  2  0
  3  2  1  0
  4  3  2  0
  4  5  1  0
  5  1  1  0
  6 12  1  0
  6  7  2  0
  8  7  1  0
  9  8  2  0
 10 11  2  0
 10  9  1  0
 11  6  1  0
 12 14  1  0
 13 12  2  0
 14 15  1  0
 15 17  2  0
 15 16  1  0
 18  4  1  0
 19 18  1  0
 20 21  1  0
 20 19  2  0
 21 22  1  0
 22 18  2  0
 23 24  1  0
 23 21  1  0
  2 25  1  0
  3 26  1  0
  7 27  1  0
  8 28  1  0
 16 29  1  0
 16 30  1  0
 19 31  1  0
 20 32  1  0
 23 33  1  0
 23 34  1  0
 24 35  1  0
 24 36  1  0
 24 37  1  0
M  ISO  8  25  14  26  14  27  14  28  14  31  14  32  14  33   8  34   8
M  ISO  3  35   8  36   8  37   8
M  END
>  <minimizedAffinity>  (1) 
-5.68767977

>  <minimizedRMSD>  (1) 
0.557545245

$$$$
