
     RDKit          3D

 26 27  0  0  0  0  0  0  0  0999 V2000
   35.3010   29.4580   48.2290 C   0  0  0  0  0  0  0  0  0  0  0  0
   36.5440   30.1490   48.4470 C   0  0  0  0  0  0  0  0  0  0  0  0
   37.1470   30.7730   47.3650 C   0  0  0  0  0  0  0  0  0  0  0  0
   36.5170   30.6900   46.1590 N   0  0  0  0  0  0  0  0  0  0  0  0
   35.3570   30.0400   45.9770 C   0  0  0  0  0  0  0  0  0  0  0  0
   34.7640   29.4380   46.9970 N   0  0  0  0  0  0  0  0  0  0  0  0
   34.8250   30.0590   44.5960 C   0  0  0  0  0  0  0  0  0  0  0  0
   35.5400   30.9750   43.8140 F   0  0  0  0  0  0  0  0  0  0  0  0
   35.0440   28.8230   44.0120 F   0  0  0  0  0  0  0  0  0  0  0  0
   33.4680   30.3070   44.5510 F   0  0  0  0  0  0  0  0  0  0  0  0
   38.4020   31.4770   47.5290 C   0  0  0  0  0  0  0  0  0  0  0  0
   38.7730   31.8220   48.6620 O   0  0  0  0  0  0  0  0  0  0  0  0
   39.2480   31.7870   46.3310 C   0  0  0  0  0  0  0  0  0  0  0  0
   39.8970   32.9280   45.9510 C   0  0  0  0  0  0  0  0  0  0  0  0
   40.5860   32.8610   44.7860 C   0  0  0  0  0  0  0  0  0  0  0  0
   40.6080   31.6990   44.0540 C   0  0  0  0  0  0  0  0  0  0  0  0
   39.5780   30.5660   45.0630 S   0  0  0  0  0  0  0  0  0  0  0  0
   34.7120   28.8420   49.3100 O   0  0  0  0  0  0  0  0  0  0  0  0
   34.2140   29.5170   50.4220 C   0  0  0  0  0  0  0  0  0  0  0  0
   34.8920   29.2080   51.6030 F   0  0  0  0  0  0  0  0  0  0  0  0
   34.1330   30.8710   50.2770 F   0  0  0  0  0  0  0  0  0  0  0  0
   32.9030   29.0360   50.5870 F   0  0  0  0  0  0  0  0  0  0  0  0
   37.0040   30.1816   49.4456 H   0  0  0  0  0  0  0  0  0  0  0  0
   39.8622   33.8466   46.5551 H   0  0  0  0  0  0  0  0  0  0  0  0
   41.1321   33.7444   44.4236 H   0  0  0  0  0  0  0  0  0  0  0  0
   41.1169   31.4980   43.0998 H   0  0  0  0  0  0  0  0  0  0  0  0
  1  2  2  0
  1 18  1  0
  3 11  1  0
  3  2  1  0
  4  3  2  0
  5  4  1  0
  5  6  2  0
  6  1  1  0
  7  5  1  0
  8  7  1  0
  9  7  1  0
 10  7  1  0
 11 12  2  0
 13 11  1  0
 14 13  2  0
 15 14  1  0
 16 15  2  0
 16 17  1  0
 17 13  1  0
 18 19  1  0
 19 22  1  0
 19 20  1  0
 21 19  1  0
  2 23  1  0
 14 24  1  0
 15 25  1  0
 16 26  1  0
M  ISO  4  23  14  24  14  25  14  26  14
M  END
>  <minimizedAffinity>  (1) 
-5.09660721

>  <minimizedRMSD>  (1) 
3.50697947

$$$$
