
     RDKit          3D

 40 44  0  0  0  0  0  0  0  0999 V2000
   36.5370   29.7210   50.8540 C   0  0  0  0  0  0  0  0  0  0  0  0
   35.5600   29.0130   50.1670 C   0  0  0  0  0  0  0  0  0  0  0  0
   35.4290   29.3080   48.8050 C   0  0  0  0  0  0  0  0  0  0  0  0
   36.2650   30.2280   48.3730 N   0  0  0  0  0  0  0  0  0  0  0  0
   37.1890   30.9220   48.9490 C   0  0  0  0  0  0  0  0  0  0  0  0
   37.2860   30.6190   50.2280 N   0  0  0  0  0  0  0  0  0  0  0  0
   38.1140   31.9320   48.5270 C   0  0  0  0  0  0  0  0  0  0  0  0
   38.3930   33.1010   49.2730 C   0  0  0  0  0  0  0  0  0  0  0  0
   39.2730   34.0750   48.9100 C   0  0  0  0  0  0  0  0  0  0  0  0
   39.9630   33.9410   47.7310 C   0  0  0  0  0  0  0  0  0  0  0  0
   39.7550   32.8470   46.9540 C   0  0  0  0  0  0  0  0  0  0  0  0
   40.4770   32.7720   45.7900 C   0  0  0  0  0  0  0  0  0  0  0  0
   40.3190   31.6980   44.9600 C   0  0  0  0  0  0  0  0  0  0  0  0
   39.4170   30.7040   45.3320 C   0  0  0  0  0  0  0  0  0  0  0  0
   38.7270   30.8450   46.5140 C   0  0  0  0  0  0  0  0  0  0  0  0
   38.8520   31.8900   47.3660 C   0  0  0  0  0  0  0  0  0  0  0  0
   34.4040   28.5550   48.1190 C   0  0  0  0  0  0  0  0  0  0  0  0
   34.2680   27.2330   48.3150 N   0  0  0  0  0  0  0  0  0  0  0  0
   33.3340   26.5030   47.6990 C   0  0  0  0  0  0  0  0  0  0  0  0
   32.4400   27.0000   46.8290 N   0  0  0  0  0  0  0  0  0  0  0  0
   32.5110   28.3260   46.5770 C   0  0  0  0  0  0  0  0  0  0  0  0
   31.6220   28.8970   45.6940 C   0  0  0  0  0  0  0  0  0  0  0  0
   31.6550   30.2320   45.4070 C   0  0  0  0  0  0  0  0  0  0  0  0
   32.6250   30.9720   46.0510 C   0  0  0  0  0  0  0  0  0  0  0  0
   33.5010   30.3850   46.9280 C   0  0  0  0  0  0  0  0  0  0  0  0
   33.4840   29.0570   47.2250 C   0  0  0  0  0  0  0  0  0  0  0  0
   36.6913   29.5355   51.9272 H   0  0  0  0  0  0  0  0  0  0  0  0
   34.9260   28.2640   50.6640 H   0  0  0  0  0  0  0  0  0  0  0  0
   37.8556   33.2342   50.2235 H   0  0  0  0  0  0  0  0  0  0  0  0
   39.4283   34.9550   49.5514 H   0  0  0  0  0  0  0  0  0  0  0  0
   40.6796   34.7146   47.4177 H   0  0  0  0  0  0  0  0  0  0  0  0
   41.1814   33.5744   45.5254 H   0  0  0  0  0  0  0  0  0  0  0  0
   40.8893   31.6205   44.0226 H   0  0  0  0  0  0  0  0  0  0  0  0
   39.2592   29.8228   44.6928 H   0  0  0  0  0  0  0  0  0  0  0  0
   38.0199   30.0481   46.7877 H   0  0  0  0  0  0  0  0  0  0  0  0
   33.2948   25.4258   47.9185 H   0  0  0  0  0  0  0  0  0  0  0  0
   30.8665   28.2623   45.2077 H   0  0  0  0  0  0  0  0  0  0  0  0
   30.9473   30.6917   44.7014 H   0  0  0  0  0  0  0  0  0  0  0  0
   32.6972   32.0525   45.8576 H   0  0  0  0  0  0  0  0  0  0  0  0
   34.2554   31.0196   47.4160 H   0  0  0  0  0  0  0  0  0  0  0  0
  2  1  2  0
  3  2  1  0
  4  3  2  0
  4  5  1  0
  5  6  2  0
  6  1  1  0
  7  5  1  0
  7  8  2  0
  9  8  1  0
 10  9  2  0
 11 16  2  0
 11 10  1  0
 12 11  1  0
 13 14  1  0
 13 12  2  0
 14 15  2  0
 15 16  1  0
 16  7  1  0
 17 18  2  0
 17  3  1  0
 19 18  1  0
 20 19  2  0
 21 20  1  0
 21 26  2  0
 22 21  1  0
 23 22  2  0
 23 24  1  0
 24 25  2  0
 25 26  1  0
 26 17  1  0
  1 27  1  0
  2 28  1  0
  8 29  1  0
  9 30  1  0
 10 31  1  0
 12 32  1  0
 13 33  1  0
 14 34  1  0
 15 35  1  0
 19 36  1  0
 22 37  1  0
 23 38  1  0
 24 39  1  0
 25 40  1  0
M  END
>  <minimizedAffinity>  (1) 
-7.89038515

>  <minimizedRMSD>  (1) 
4.2161994

$$$$
