
     RDKit          3D

 51 55  0  0  0  0  0  0  0  0999 V2000
   36.1310   31.3150   42.6260 C   0  0  0  0  0  0  0  0  0  0  0  0
   37.2960   31.0240   41.9210 C   0  0  0  0  0  0  0  0  0  0  0  0
   38.3540   30.6370   42.6620 C   0  0  0  0  0  0  0  0  0  0  0  0
   38.1950   30.5730   43.9630 N   0  0  0  0  0  0  0  0  0  0  0  0
   37.1590   30.8260   44.6960 C   0  0  0  0  0  0  0  0  0  0  0  0
   36.1240   31.2040   43.9490 N   0  0  0  0  0  0  0  0  0  0  0  0
   36.8640   30.7970   46.1140 C   0  0  0  0  0  0  0  0  0  0  0  0
   35.8400   30.0230   46.6650 C   0  0  0  0  0  0  0  0  0  0  0  0
   35.5300   29.9760   47.9890 C   0  0  0  0  0  0  0  0  0  0  0  0
   36.2460   30.7250   48.8830 C   0  0  0  0  0  0  0  0  0  0  0  0
   37.2490   31.4950   48.4060 C   0  0  0  0  0  0  0  0  0  0  0  0
   37.9760   32.2540   49.3170 C   0  0  0  0  0  0  0  0  0  0  0  0
   39.0030   33.0550   48.9200 C   0  0  0  0  0  0  0  0  0  0  0  0
   39.3130   33.0980   47.5710 C   0  0  0  0  0  0  0  0  0  0  0  0
   38.5710   32.3320   46.7090 C   0  0  0  0  0  0  0  0  0  0  0  0
   37.5500   31.5290   47.0630 C   0  0  0  0  0  0  0  0  0  0  0  0
   35.9170   30.6650   50.2170 O   0  0  0  0  0  0  0  0  0  0  0  0
   36.4240   29.6320   51.0370 C   0  0  0  0  0  0  0  0  0  0  0  0
   37.2400   28.7400   50.4150 F   0  0  0  0  0  0  0  0  0  0  0  0
   37.1970   30.2430   52.0220 F   0  0  0  0  0  0  0  0  0  0  0  0
   35.3170   29.0090   51.5970 F   0  0  0  0  0  0  0  0  0  0  0  0
   37.3420   30.9150   40.4910 C   0  0  0  0  0  0  0  0  0  0  0  0
   37.3430   29.7060   39.9560 N   0  0  0  0  0  0  0  0  0  0  0  0
   37.4070   29.4020   38.6800 C   0  0  0  0  0  0  0  0  0  0  0  0
   37.4880   30.3450   37.6930 N   0  0  0  0  0  0  0  0  0  0  0  0
   37.5030   31.6490   38.1270 C   0  0  0  0  0  0  0  0  0  0  0  0
   37.6610   32.6470   37.2040 C   0  0  0  0  0  0  0  0  0  0  0  0
   37.7700   33.9590   37.6190 C   0  0  0  0  0  0  0  0  0  0  0  0
   37.7170   34.2170   38.9960 C   0  0  0  0  0  0  0  0  0  0  0  0
   37.5530   33.1300   39.8100 C   0  0  0  0  0  0  0  0  0  0  0  0
   37.4310   31.8210   39.4820 C   0  0  0  0  0  0  0  0  0  0  0  0
   39.6400   30.3070   42.1160 N   0  0  0  0  0  0  0  0  0  0  0  0
   40.7550   29.9400   42.9140 C   0  0  0  0  0  0  0  0  0  0  0  0
   40.9490   30.6410   43.9900 N   0  0  0  0  0  0  0  0  0  0  0  0
   41.6130   28.8720   42.5660 N   0  0  0  0  0  0  0  0  0  0  0  0
   41.6970   30.5330   44.6770 H   0  0  0  0  0  0  0  0  0  0  0  0
   35.2242   31.6341   42.0913 H   0  0  0  0  0  0  0  0  0  0  0  0
   35.2407   29.4067   45.9787 H   0  0  0  0  0  0  0  0  0  0  0  0
   34.7059   29.3375   48.3400 H   0  0  0  0  0  0  0  0  0  0  0  0
   37.7148   32.2060   50.3845 H   0  0  0  0  0  0  0  0  0  0  0  0
   39.5703   33.6510   49.6500 H   0  0  0  0  0  0  0  0  0  0  0  0
   40.1333   33.7303   47.2005 H   0  0  0  0  0  0  0  0  0  0  0  0
   38.8312   32.3773   45.6412 H   0  0  0  0  0  0  0  0  0  0  0  0
   37.3949   28.3404   38.3920 H   0  0  0  0  0  0  0  0  0  0  0  0
   37.7011   32.4038   36.1320 H   0  0  0  0  0  0  0  0  0  0  0  0
   37.8944   34.7757   36.8927 H   0  0  0  0  0  0  0  0  0  0  0  0
   37.8025   35.2368   39.3994 H   0  0  0  0  0  0  0  0  0  0  0  0
   37.5146   33.3505   40.8870 H   0  0  0  0  0  0  0  0  0  0  0  0
   39.7596   30.3381   41.0934 H   0  0  0  0  0  0  0  0  0  0  0  0
   42.4125   28.6356   43.1709 H   0  0  0  0  0  0  0  0  0  0  0  0
   41.4388   28.3302   41.7075 H   0  0  0  0  0  0  0  0  0  0  0  0
  1  6  2  0
  2  1  1  0
  2  3  2  0
  3  4  1  0
  4  5  2  0
  5  7  1  0
  6  5  1  0
  7  8  2  0
  7 16  1  0
  8  9  1  0
  9 10  2  0
 10 17  1  0
 11 10  1  0
 11 12  2  0
 13 12  1  0
 14 13  2  0
 15 16  2  0
 15 14  1  0
 16 11  1  0
 17 18  1  0
 18 21  1  0
 18 20  1  0
 19 18  1  0
 22  2  1  0
 23 22  2  0
 24 23  1  0
 25 26  1  0
 25 24  2  0
 26 31  2  0
 27 28  2  0
 27 26  1  0
 28 29  1  0
 29 30  2  0
 31 30  1  0
 31 22  1  0
 32  3  1  0
 32 33  1  0
 33 34  2  0
 34 36  1  0
 35 33  1  0
  1 37  1  0
  8 38  1  0
  9 39  1  0
 12 40  1  0
 13 41  1  0
 14 42  1  0
 15 43  1  0
 24 44  1  0
 27 45  1  0
 28 46  1  0
 29 47  1  0
 30 48  1  0
 32 49  1  0
 35 50  1  0
 35 51  1  0
M  END
>  <minimizedAffinity>  (1) 
-7.64780092

>  <minimizedRMSD>  (1) 
0.324460715

$$$$
