
     RDKit          3D

 45 48  0  0  0  0  0  0  0  0999 V2000
   36.4157   30.9695   48.7603 N   0  0  0  0  0  0  0  0  0  0  0  0
   36.3927   31.7334   49.8688 C   0  0  0  0  0  0  0  0  0  0  0  0
   37.3658   32.6627   49.7842 N   0  0  0  0  0  0  0  0  0  0  0  0
   37.9847   32.4561   48.6074 C   0  0  0  0  0  0  0  0  0  0  0  0
   39.0476   33.0744   47.9565 C   0  0  0  0  0  0  0  0  0  0  0  0
   39.4759   32.6628   46.7643 N   0  0  0  0  0  0  0  0  0  0  0  0
   38.8992   31.6189   46.1203 C   0  0  0  0  0  0  0  0  0  0  0  0
   37.8694   31.0232   46.7555 N   0  0  0  0  0  0  0  0  0  0  0  0
   37.4005   31.3986   47.9549 C   0  0  0  0  0  0  0  0  0  0  0  0
   39.6889   34.1710   48.5823 N   0  0  0  0  0  0  0  0  0  0  0  0
   34.6651   29.9843   47.4025 C   0  0  0  0  0  0  0  0  0  0  0  0
   35.5246   29.8891   48.5144 C   0  0  0  0  0  0  0  0  0  0  0  0
   35.4188   28.7397   49.2705 C   0  0  0  0  0  0  0  0  0  0  0  0
   34.5234   27.7852   48.9223 N   0  0  0  0  0  0  0  0  0  0  0  0
   33.7157   27.8946   47.8620 C   0  0  0  0  0  0  0  0  0  0  0  0
   33.7951   28.9917   47.1143 N   0  0  0  0  0  0  0  0  0  0  0  0
   32.7429   26.8453   47.4919 C   0  0  0  0  0  0  0  0  0  0  0  0
   31.5524   26.8842   48.4371 C   0  0  0  0  0  0  0  0  0  0  0  0
   32.1582   27.1288   46.1063 C   0  0  0  0  0  0  0  0  0  0  0  0
   33.3243   25.4665   47.4540 C   0  0  0  0  0  0  0  0  0  0  0  0
   35.7442   31.6965   50.7450 H   0  0  0  0  0  0  0  0  0  0  0  0
   39.2376   31.2731   45.1494 H   0  0  0  0  0  0  0  0  0  0  0  0
   40.3781   33.9492   49.3313 H   0  0  0  0  0  0  0  0  0  0  0  0
   39.5839   35.1919   48.4144 H   0  0  0  0  0  0  0  0  0  0  0  0
   34.7280   30.8675   46.7994 H   0  0  0  0  0  0  0  0  0  0  0  0
   36.0785   28.6658   50.1246 H   0  0  0  0  0  0  0  0  0  0  0  0
   30.6605   26.4105   47.9713 H   0  0  0  0  0  0  0  0  0  0  0  0
   31.3444   27.9541   48.6885 H   0  0  0  0  0  0  0  0  0  0  0  0
   31.8716   26.3599   49.3721 H   0  0  0  0  0  0  0  0  0  0  0  0
   32.8897   27.0758   45.3023 H   0  0  0  0  0  0  0  0  0  0  0  0
   31.7386   28.1724   46.0883 H   0  0  0  0  0  0  0  0  0  0  0  0
   31.3105   26.4742   45.8810 H   0  0  0  0  0  0  0  0  0  0  0  0
   33.6488   25.1465   48.4863 H   0  0  0  0  0  0  0  0  0  0  0  0
   32.4920   24.7757   47.2059 H   0  0  0  0  0  0  0  0  0  0  0  0
   34.4197   25.3024   46.4997 C   0  0  0  0  0  0  0  0  0  0  0  0
   35.6542   25.8543   46.8670 C   0  0  0  0  0  0  0  0  0  0  0  0
   35.8576   26.3883   47.7959 H   0  0  0  0  0  0  0  0  0  0  0  0
   36.7620   25.7685   46.0578 C   0  0  0  0  0  0  0  0  0  0  0  0
   36.6652   25.1219   44.8462 C   0  0  0  0  0  0  0  0  0  0  0  0
   37.5064   25.0270   44.1736 H   0  0  0  0  0  0  0  0  0  0  0  0
   35.4793   24.5717   44.4543 C   0  0  0  0  0  0  0  0  0  0  0  0
   35.3932   24.0552   43.4916 H   0  0  0  0  0  0  0  0  0  0  0  0
   34.3869   24.6664   45.2720 C   0  0  0  0  0  0  0  0  0  0  0  0
   37.7294   26.1815   46.3073 H   0  0  0  0  0  0  0  0  0  0  0  0
   33.4543   24.2489   44.9922 H   0  0  0  0  0  0  0  0  0  0  0  0
  1  2  1  0
  3  2  2  0
  4  3  1  0
  5 10  1  0
  5  4  2  0
  6  5  1  0
  7  8  1  0
  7  6  2  0
  8  9  2  0
  9  4  1  0
  9  1  1  0
 11 12  2  0
 12  1  1  0
 12 13  1  0
 14 13  2  0
 15 14  1  0
 16 11  1  0
 16 15  2  0
 17 15  1  0
 17 18  1  0
 19 17  1  0
 20 17  1  0
  2 21  1  0
  7 22  1  0
 10 23  1  0
 10 24  1  0
 11 25  1  0
 13 26  1  0
 18 27  1  0
 18 28  1  0
 18 29  1  0
 19 30  1  0
 19 31  1  0
 19 32  1  0
 20 33  1  0
 20 34  1  0
 35 36  2  0
 36 37  1  0
 36 38  1  0
 38 39  2  0
 39 40  1  0
 39 41  1  0
 41 42  1  0
 41 43  2  0
 43 35  1  0
 38 44  1  0
 43 45  1  0
 20 35  1  0
M  ISO  8  21  14  22  14  25  14  26  14  27   8  28   8  29   8  30   8
M  ISO  7  31   8  32   8  33   8  34   8  37  16  40  16  42  16
M  END
>  <DihAtoms>  (1) 
16,19,34,35

>  <DihDeg>  (1) 
-89.90446588118922

$$$$
