
     RDKit          3D

 39 41  0  0  0  0  0  0  0  0999 V2000
   31.7340   26.5540   47.9300 C   0  0  0  0  0  0  0  0  0  0  0  0
   31.5420   25.2710   47.5140 C   0  0  0  0  0  0  0  0  0  0  0  0
   32.5550   24.4180   47.1230 C   0  0  0  0  0  0  0  0  0  0  0  0
   33.8300   24.9370   47.1710 C   0  0  0  0  0  0  0  0  0  0  0  0
   34.0690   26.2230   47.5820 C   0  0  0  0  0  0  0  0  0  0  0  0
   33.0300   27.0450   47.9650 C   0  0  0  0  0  0  0  0  0  0  0  0
   29.1960   28.3090   49.9150 C   0  0  0  0  0  0  0  0  0  0  0  0
   28.5310   29.0890   48.9330 C   0  0  0  0  0  0  0  0  0  0  0  0
   28.9840   28.9760   47.6340 C   0  0  0  0  0  0  0  0  0  0  0  0
   30.0370   28.1340   47.3480 N   0  0  0  0  0  0  0  0  0  0  0  0
   30.6350   27.4120   48.3310 C   0  0  0  0  0  0  0  0  0  0  0  0
   30.2130   27.5050   49.5930 N   0  0  0  0  0  0  0  0  0  0  0  0
   27.4010   29.9880   49.2600 C   0  0  0  0  0  0  0  0  0  0  0  0
   27.7350   30.9880   50.1170 F   0  0  0  0  0  0  0  0  0  0  0  0
   26.3440   29.2960   49.8350 F   0  0  0  0  0  0  0  0  0  0  0  0
   26.9270   30.5840   48.0790 F   0  0  0  0  0  0  0  0  0  0  0  0
   33.2260   28.4190   48.4110 C   0  0  0  0  0  0  0  0  0  0  0  0
   34.5200   29.0590   48.0060 C   0  0  0  0  0  0  0  0  0  0  0  0
   35.4470   29.3400   49.1100 C   0  0  0  0  0  0  0  0  0  0  0  0
   35.1730   29.1670   50.4560 C   0  0  0  0  0  0  0  0  0  0  0  0
   36.1350   29.4700   51.3900 C   0  0  0  0  0  0  0  0  0  0  0  0
   37.3600   29.9420   51.0120 C   0  0  0  0  0  0  0  0  0  0  0  0
   37.7100   30.1420   49.6850 C   0  0  0  0  0  0  0  0  0  0  0  0
   36.7040   29.8210   48.7760 C   0  0  0  0  0  0  0  0  0  0  0  0
   30.5108   24.8890   47.4878 H   0  0  0  0  0  0  0  0  0  0  0  0
   32.3560   23.3875   46.7935 H   0  0  0  0  0  0  0  0  0  0  0  0
   34.6781   24.3035   46.8720 H   0  0  0  0  0  0  0  0  0  0  0  0
   35.1009   26.6033   47.6065 H   0  0  0  0  0  0  0  0  0  0  0  0
   28.8670   28.3679   50.9630 H   0  0  0  0  0  0  0  0  0  0  0  0
   28.5065   29.5557   46.8303 H   0  0  0  0  0  0  0  0  0  0  0  0
   32.4061   29.0270   48.0010 H   0  0  0  0  0  0  0  0  0  0  0  0
   33.2454   28.3761   49.5100 H   0  0  0  0  0  0  0  0  0  0  0  0
   35.0264   28.3861   47.2983 H   0  0  0  0  0  0  0  0  0  0  0  0
   34.2569   30.0342   47.5704 H   0  0  0  0  0  0  0  0  0  0  0  0
   34.1908   28.7891   50.7763 H   0  0  0  0  0  0  0  0  0  0  0  0
   35.9150   29.3302   52.4587 H   0  0  0  0  0  0  0  0  0  0  0  0
   38.0996   30.1731   51.7927 H   0  0  0  0  0  0  0  0  0  0  0  0
   38.6957   30.5209   49.3770 H   0  0  0  0  0  0  0  0  0  0  0  0
   36.9247   29.9603   47.7074 H   0  0  0  0  0  0  0  0  0  0  0  0
  1  6  1  0
  1 11  1  0
  2  1  2  0
  3  4  2  0
  3  2  1  0
  4  5  1  0
  5  6  2  0
  6 17  1  0
  8 13  1  0
  8  7  2  0
  9  8  1  0
 10  9  2  0
 10 11  1  0
 11 12  2  0
 12  7  1  0
 13 15  1  0
 13 14  1  0
 16 13  1  0
 18 17  1  0
 18 19  1  0
 19 20  2  0
 20 21  1  0
 22 21  2  0
 23 22  1  0
 24 19  1  0
 24 23  2  0
  2 25  1  0
  3 26  1  0
  4 27  1  0
  5 28  1  0
  7 29  1  0
  9 30  1  0
 17 31  1  0
 17 32  1  0
 18 33  1  0
 18 34  1  0
 20 35  1  0
 21 36  1  0
 22 37  1  0
 23 38  1  0
 24 39  1  0
M  ISO  8  25  14  26  14  27  14  28  14  29  14  30  14  31   8  32   8
M  ISO  7  33   8  34   8  35  14  36  14  37  14  38  14  39  14
M  END
>  <minimizedAffinity>  (1) 
-6.81209946

>  <minimizedRMSD>  (1) 
6.81103754

$$$$
