
     RDKit          3D

 45 47  0  0  0  0  0  0  0  0999 V2000
   31.5900   28.2670   46.9580 C   0  0  0  0  0  0  0  0  0  0  0  0
   32.2580   28.6840   45.7840 C   0  0  0  0  0  0  0  0  0  0  0  0
   33.6040   28.8870   45.7660 C   0  0  0  0  0  0  0  0  0  0  0  0
   34.2820   28.6670   46.9460 N   0  0  0  0  0  0  0  0  0  0  0  0
   33.6560   28.2810   48.0320 C   0  0  0  0  0  0  0  0  0  0  0  0
   32.3330   28.0700   48.0890 N   0  0  0  0  0  0  0  0  0  0  0  0
   34.3010   29.3080   44.5750 C   0  0  0  0  0  0  0  0  0  0  0  0
   33.4760   29.9670   43.5520 C   0  0  0  0  0  0  0  0  0  0  0  0
   33.6630   31.3310   43.2640 N   0  0  0  0  0  0  0  0  0  0  0  0
   34.7420   31.9430   42.8160 C   0  0  0  0  0  0  0  0  0  0  0  0
   34.8560   33.2890   42.5510 C   0  0  0  0  0  0  0  0  0  0  0  0
   33.7750   34.1010   42.7580 C   0  0  0  0  0  0  0  0  0  0  0  0
   33.7940   35.3240   42.5450 O   0  0  0  0  0  0  0  0  0  0  0  0
   32.6910   33.5100   43.2050 N   0  0  0  0  0  0  0  0  0  0  0  0
   32.6090   32.2120   43.4510 C   0  0  0  0  0  0  0  0  0  0  0  0
   31.5110   31.7310   43.8830 O   0  0  0  0  0  0  0  0  0  0  0  0
   31.5150   34.3510   43.4370 C   0  0  0  0  0  0  0  0  0  0  0  0
   30.3600   33.5980   43.3220 F   0  0  0  0  0  0  0  0  0  0  0  0
   31.5000   35.3170   42.4580 F   0  0  0  0  0  0  0  0  0  0  0  0
   31.6300   34.9020   44.6820 F   0  0  0  0  0  0  0  0  0  0  0  0
   34.4180   28.0530   49.3070 C   0  0  0  0  0  0  0  0  0  0  0  0
   34.4200   29.3470   50.1110 C   0  0  0  0  0  0  0  0  0  0  0  0
   35.7570   29.9340   50.2250 C   0  0  0  0  0  0  0  0  0  0  0  0
   36.0000   30.9080   49.2520 C   0  0  0  0  0  0  0  0  0  0  0  0
   37.2300   31.5710   49.2170 C   0  0  0  0  0  0  0  0  0  0  0  0
   38.2180   31.2800   50.1320 C   0  0  0  0  0  0  0  0  0  0  0  0
   37.9350   30.3140   51.0730 C   0  0  0  0  0  0  0  0  0  0  0  0
   36.7420   29.6380   51.1440 C   0  0  0  0  0  0  0  0  0  0  0  0
   30.5019   28.1054   46.9617 H   0  0  0  0  0  0  0  0  0  0  0  0
   31.6772   28.8481   44.8644 H   0  0  0  0  0  0  0  0  0  0  0  0
   35.0909   30.0116   44.8767 H   0  0  0  0  0  0  0  0  0  0  0  0
   34.6785   28.3867   44.1074 H   0  0  0  0  0  0  0  0  0  0  0  0
   33.6397   29.4195   42.6121 H   0  0  0  0  0  0  0  0  0  0  0  0
   32.4662   29.9385   43.9873 H   0  0  0  0  0  0  0  0  0  0  0  0
   35.6318   31.3213   42.6379 H   0  0  0  0  0  0  0  0  0  0  0  0
   35.8032   33.7057   42.1780 H   0  0  0  0  0  0  0  0  0  0  0  0
   33.9344   27.2554   49.8900 H   0  0  0  0  0  0  0  0  0  0  0  0
   35.4509   27.7515   49.0783 H   0  0  0  0  0  0  0  0  0  0  0  0
   33.7576   30.0717   49.6149 H   0  0  0  0  0  0  0  0  0  0  0  0
   34.0711   29.1100   51.1269 H   0  0  0  0  0  0  0  0  0  0  0  0
   35.2225   31.1528   48.5133 H   0  0  0  0  0  0  0  0  0  0  0  0
   37.4117   32.3361   48.4478 H   0  0  0  0  0  0  0  0  0  0  0  0
   39.1894   31.7958   50.1123 H   0  0  0  0  0  0  0  0  0  0  0  0
   38.7120   30.0696   51.8122 H   0  0  0  0  0  0  0  0  0  0  0  0
   36.5750   28.8752   51.9188 H   0  0  0  0  0  0  0  0  0  0  0  0
  1  6  2  0
  2  1  1  0
  3  2  2  0
  3  4  1  0
  4  5  2  0
  5  6  1  0
  5 21  1  0
  7  3  1  0
  8  7  1  0
  9 15  1  0
  9  8  1  0
 10  9  1  0
 11 12  1  0
 11 10  2  0
 12 14  1  0
 13 12  2  0
 14 17  1  0
 14 15  1  0
 15 16  2  0
 17 20  1  0
 18 17  1  0
 19 17  1  0
 21 22  1  0
 22 23  1  0
 23 28  1  0
 24 23  2  0
 25 24  1  0
 25 26  2  0
 26 27  1  0
 27 28  2  0
  1 29  1  0
  2 30  1  0
  7 31  1  0
  7 32  1  0
  8 33  1  0
  8 34  1  0
 10 35  1  0
 11 36  1  0
 21 37  1  0
 21 38  1  0
 22 39  1  0
 22 40  1  0
 24 41  1  0
 25 42  1  0
 26 43  1  0
 27 44  1  0
 28 45  1  0
M  ISO  8  29  14  30  14  31   8  32   8  33   8  34   8  35  14  36  14
M  ISO  8  37   8  38   8  39   8  40   8  41  14  42  14  43  14  44  14
M  ISO  1  45  14
M  END
>  <minimizedAffinity>  (1) 
-6.00724602

>  <minimizedRMSD>  (1) 
4.17338228

$$$$
