
     RDKit          3D

 36 39  0  0  0  0  0  0  0  0999 V2000
   36.8120   28.9990   49.9890 C   0  0  0  0  0  0  0  0  0  0  0  0
   37.6110   29.7340   49.0910 C   0  0  0  0  0  0  0  0  0  0  0  0
   37.0270   30.8370   48.4180 C   0  0  0  0  0  0  0  0  0  0  0  0
   35.6910   31.1030   48.7060 N   0  0  0  0  0  0  0  0  0  0  0  0
   34.9730   30.3790   49.5650 C   0  0  0  0  0  0  0  0  0  0  0  0
   35.5120   29.3400   50.2040 N   0  0  0  0  0  0  0  0  0  0  0  0
   37.7440   31.6270   47.5010 N   0  0  0  0  0  0  0  0  0  0  0  0
   38.7100   32.6150   48.0350 C   0  0  0  0  0  0  0  0  0  0  0  0
   39.7230   32.9490   47.0120 C   0  0  0  0  0  0  0  0  0  0  0  0
   39.1250   33.2490   45.7070 N   0  0  0  0  0  0  0  0  0  0  0  0
   38.2170   32.2780   45.1990 C   0  0  0  0  0  0  0  0  0  0  0  0
   37.4790   31.4130   46.1250 C   0  0  0  0  0  0  0  0  0  0  0  0
   36.6440   30.5330   45.4830 N   0  0  0  0  0  0  0  0  0  0  0  0
   35.3880   30.2430   45.8560 C   0  0  0  0  0  0  0  0  0  0  0  0
   34.7800   29.3330   45.0220 C   0  0  0  0  0  0  0  0  0  0  0  0
   35.7060   29.0380   44.0750 N   0  0  0  0  0  0  0  0  0  0  0  0
   36.8170   29.7870   44.3950 C   0  0  0  0  0  0  0  0  0  0  0  0
   38.0120   29.6970   43.5640 C   0  0  0  0  0  0  0  0  0  0  0  0
   38.2590   30.1790   42.2980 C   0  0  0  0  0  0  0  0  0  0  0  0
   39.5230   29.8520   41.9390 N   0  0  0  0  0  0  0  0  0  0  0  0
   40.1040   29.1640   42.9540 C   0  0  0  0  0  0  0  0  0  0  0  0
   39.1630   29.0960   43.9020 N   0  0  0  0  0  0  0  0  0  0  0  0
   37.2439   28.1395   50.5226 H   0  0  0  0  0  0  0  0  0  0  0  0
   38.6617   29.4590   48.9163 H   0  0  0  0  0  0  0  0  0  0  0  0
   33.9210   30.6425   49.7493 H   0  0  0  0  0  0  0  0  0  0  0  0
   38.1711   33.5295   48.3237 H   0  0  0  0  0  0  0  0  0  0  0  0
   39.2160   32.1824   48.9107 H   0  0  0  0  0  0  0  0  0  0  0  0
   40.2900   33.8286   47.3509 H   0  0  0  0  0  0  0  0  0  0  0  0
   40.3745   32.0715   46.8875 H   0  0  0  0  0  0  0  0  0  0  0  0
   39.3487   34.1108   45.1891 H   0  0  0  0  0  0  0  0  0  0  0  0
   38.0691   32.1765   44.1137 H   0  0  0  0  0  0  0  0  0  0  0  0
   34.8967   30.6857   46.7350 H   0  0  0  0  0  0  0  0  0  0  0  0
   33.7598   28.9302   45.1053 H   0  0  0  0  0  0  0  0  0  0  0  0
   37.5442   30.7397   41.6778 H   0  0  0  0  0  0  0  0  0  0  0  0
   41.1237   28.7530   42.9893 H   0  0  0  0  0  0  0  0  0  0  0  0
   39.3083   28.6262   44.8070 H   0  0  0  0  0  0  0  0  0  0  0  0
  1  6  2  0
  2  1  1  0
  3  4  1  0
  3  2  2  0
  4  5  2  0
  5  6  1  0
  7  8  1  0
  7  3  1  0
  9  8  1  0
 10  9  1  0
 11 10  1  0
 11 12  2  0
 12  7  1  0
 13 14  1  0
 13 12  1  0
 15 14  2  0
 16 17  2  0
 16 15  1  0
 17 13  1  0
 18 22  1  0
 18 17  1  0
 19 18  2  0
 20 19  1  0
 20 21  2  0
 21 22  1  0
  1 23  1  0
  2 24  1  0
  5 25  1  0
  8 26  1  0
  8 27  1  0
  9 28  1  0
  9 29  1  0
 10 30  1  0
 11 31  1  0
 14 32  1  0
 15 33  1  0
 19 34  1  0
 21 35  1  0
 22 36  1  0
M  ISO  8  23  14  24  14  25  14  26  13  27  13  28  13  29  13  31  13
M  ISO  5  32  14  33  14  34  14  35  14  36   9
M  END
>  <minimizedAffinity>  (1) 
-5.05435276

>  <minimizedRMSD>  (1) 
3.17261958

$$$$
