
     RDKit          3D

 29 31  0  0  0  0  0  0  0  0999 V2000
   37.2620   31.4350   48.5220 C   0  0  0  0  0  0  0  0  0  0  0  0
   37.7680   32.3580   49.4520 C   0  0  0  0  0  0  0  0  0  0  0  0
   38.7380   33.2530   49.0260 C   0  0  0  0  0  0  0  0  0  0  0  0
   39.1390   33.1690   47.7060 N   0  0  0  0  0  0  0  0  0  0  0  0
   38.6310   32.2750   46.8560 C   0  0  0  0  0  0  0  0  0  0  0  0
   37.6810   31.3910   47.2540 N   0  0  0  0  0  0  0  0  0  0  0  0
   39.0890   32.2300   45.4740 C   0  0  0  0  0  0  0  0  0  0  0  0
   40.2710   31.5920   45.0930 C   0  0  0  0  0  0  0  0  0  0  0  0
   40.3790   31.7580   43.7000 C   0  0  0  0  0  0  0  0  0  0  0  0
   39.2610   32.4800   43.3430 C   0  0  0  0  0  0  0  0  0  0  0  0
   38.5230   32.7420   44.4070 O   0  0  0  0  0  0  0  0  0  0  0  0
   39.0710   32.8250   41.9390 C   0  0  0  0  0  0  0  0  0  0  0  0
   38.7540   34.0260   41.3820 N   0  0  0  0  0  0  0  0  0  0  0  0
   38.6830   33.8800   40.0820 O   0  0  0  0  0  0  0  0  0  0  0  0
   38.9360   32.6390   39.7370 C   0  0  0  0  0  0  0  0  0  0  0  0
   39.1810   31.9660   40.8890 N   0  0  0  0  0  0  0  0  0  0  0  0
   36.2410   30.5040   48.9970 C   0  0  0  0  0  0  0  0  0  0  0  0
   35.0300   30.6850   48.6890 O   0  0  0  0  0  0  0  0  0  0  0  0
   36.6180   29.4240   49.7900 O   0  0  0  0  0  0  0  0  0  0  0  0
   36.5730   29.4640   51.1840 C   0  0  0  0  0  0  0  0  0  0  0  0
   37.6920   29.7610   51.9870 N   0  0  0  0  0  0  0  0  0  0  0  0
   35.4420   29.2140   51.6550 O   0  0  0  0  0  0  0  0  0  0  0  0
   37.4047   32.3706   50.4902 H   0  0  0  0  0  0  0  0  0  0  0  0
   39.1700   33.9984   49.7099 H   0  0  0  0  0  0  0  0  0  0  0  0
   40.9773   31.0645   45.7510 H   0  0  0  0  0  0  0  0  0  0  0  0
   41.1799   31.3919   43.0408 H   0  0  0  0  0  0  0  0  0  0  0  0
   38.9471   32.2270   38.7171 H   0  0  0  0  0  0  0  0  0  0  0  0
   37.6003   29.7764   53.0128 H   0  0  0  0  0  0  0  0  0  0  0  0
   38.6018   29.9627   51.5482 H   0  0  0  0  0  0  0  0  0  0  0  0
  1 17  1  0
  1  2  2  0
  3  2  1  0
  4  3  2  0
  5  6  2  0
  5  4  1  0
  6  1  1  0
  7  5  1  0
  8  7  2  0
  9  8  1  0
 10  9  2  0
 10 11  1  0
 11  7  1  0
 12 10  1  0
 13 12  2  0
 14 13  1  0
 15 14  1  0
 15 16  2  0
 16 12  1  0
 17 19  1  0
 18 17  2  0
 19 20  1  0
 20 22  2  0
 20 21  1  0
  2 23  1  0
  3 24  1  0
  8 25  1  0
  9 26  1  0
 15 27  1  0
 21 28  1  0
 21 29  1  0
M  ISO  5  23  14  24  14  25  14  26  14  27  14
M  END
>  <minimizedAffinity>  (1) 
-5.81599522

>  <minimizedRMSD>  (1) 
0.88858819

$$$$
