
     RDKit          3D

 49 53  0  0  0  0  0  0  0  0999 V2000
   36.4058   30.9779   48.7551 N   0  0  0  0  0  0  0  0  0  0  0  0
   36.3806   31.7378   49.8680 C   0  0  0  0  0  0  0  0  0  0  0  0
   37.3662   32.6642   49.7818 N   0  0  0  0  0  0  0  0  0  0  0  0
   37.9819   32.4558   48.6119 C   0  0  0  0  0  0  0  0  0  0  0  0
   39.0497   33.0723   47.9683 C   0  0  0  0  0  0  0  0  0  0  0  0
   39.4827   32.6592   46.7663 N   0  0  0  0  0  0  0  0  0  0  0  0
   38.8993   31.6209   46.1227 C   0  0  0  0  0  0  0  0  0  0  0  0
   37.8687   31.0285   46.7480 N   0  0  0  0  0  0  0  0  0  0  0  0
   37.4000   31.4073   47.9516 C   0  0  0  0  0  0  0  0  0  0  0  0
   39.7030   34.1604   48.5925 N   0  0  0  0  0  0  0  0  0  0  0  0
   34.6611   29.9819   47.3907 C   0  0  0  0  0  0  0  0  0  0  0  0
   35.5115   29.8958   48.4955 C   0  0  0  0  0  0  0  0  0  0  0  0
   35.4213   28.7442   49.2701 C   0  0  0  0  0  0  0  0  0  0  0  0
   34.5375   27.7791   48.9323 N   0  0  0  0  0  0  0  0  0  0  0  0
   33.7255   27.8881   47.8567 C   0  0  0  0  0  0  0  0  0  0  0  0
   33.8024   28.9838   47.1086 N   0  0  0  0  0  0  0  0  0  0  0  0
   32.7458   26.8331   47.4730 C   0  0  0  0  0  0  0  0  0  0  0  0
   31.5521   26.8857   48.4543 C   0  0  0  0  0  0  0  0  0  0  0  0
   32.1361   27.1367   46.1250 C   0  0  0  0  0  0  0  0  0  0  0  0
   33.3299   25.4673   47.4574 C   0  0  0  0  0  0  0  0  0  0  0  0
   35.7055   31.6628   50.7198 H   0  0  0  0  0  0  0  0  0  0  0  0
   39.2315   31.2665   45.1479 H   0  0  0  0  0  0  0  0  0  0  0  0
   40.2211   33.8900   49.4699 H   0  0  0  0  0  0  0  0  0  0  0  0
   39.6593   35.1298   48.1986 H   0  0  0  0  0  0  0  0  0  0  0  0
   34.6613   30.8483   46.7252 H   0  0  0  0  0  0  0  0  0  0  0  0
   36.0765   28.6699   50.1272 H   0  0  0  0  0  0  0  0  0  0  0  0
   30.6355   26.4486   47.9739 H   0  0  0  0  0  0  0  0  0  0  0  0
   31.7583   26.2303   49.3394 H   0  0  0  0  0  0  0  0  0  0  0  0
   31.3425   27.9192   48.7833 H   0  0  0  0  0  0  0  0  0  0  0  0
   32.8656   27.3666   45.3462 H   0  0  0  0  0  0  0  0  0  0  0  0
   31.3744   26.3905   45.8570 H   0  0  0  0  0  0  0  0  0  0  0  0
   31.5755   28.1110   46.2832 H   0  0  0  0  0  0  0  0  0  0  0  0
   33.6049   25.2131   48.5258 H   0  0  0  0  0  0  0  0  0  0  0  0
   32.4779   24.7498   47.2547 H   0  0  0  0  0  0  0  0  0  0  0  0
   34.4422   25.2348   46.5431 C   0  0  0  0  0  0  0  0  0  0  0  0
   35.7615   25.3037   47.0011 C   0  0  0  0  0  0  0  0  0  0  0  0
   36.6229   25.0883   45.9886 N   0  0  0  0  0  0  0  0  0  0  0  0
   35.9432   24.8732   44.8523 C   0  0  0  0  0  0  0  0  0  0  0  0
   36.2065   24.5997   43.5380 C   0  0  0  0  0  0  0  0  0  0  0  0
   35.2541   24.4118   42.5603 C   0  0  0  0  0  0  0  0  0  0  0  0
   33.9188   24.5087   42.9435 C   0  0  0  0  0  0  0  0  0  0  0  0
   33.6155   24.7866   44.2753 C   0  0  0  0  0  0  0  0  0  0  0  0
   34.6142   24.9652   45.2070 C   0  0  0  0  0  0  0  0  0  0  0  0
   36.2197   25.4860   47.9569 H   0  0  0  0  0  0  0  0  0  0  0  0
   37.6679   25.0590   45.9228 H   0  0  0  0  0  0  0  0  0  0  0  0
   37.2426   24.5237   43.2363 H   0  0  0  0  0  0  0  0  0  0  0  0
   35.5058   24.1963   41.5264 H   0  0  0  0  0  0  0  0  0  0  0  0
   33.1158   24.3688   42.2120 H   0  0  0  0  0  0  0  0  0  0  0  0
   32.5728   24.8382   44.5161 H   0  0  0  0  0  0  0  0  0  0  0  0
  1  2  1  0
  3  2  2  0
  4  3  1  0
  5 10  1  0
  5  4  2  0
  6  5  1  0
  7  8  1  0
  7  6  2  0
  8  9  2  0
  9  4  1  0
  9  1  1  0
 11 12  2  0
 12  1  1  0
 12 13  1  0
 14 13  2  0
 15 14  1  0
 16 11  1  0
 16 15  2  0
 17 15  1  0
 17 18  1  0
 19 17  1  0
 20 17  1  0
  2 21  1  0
  7 22  1  0
 10 23  1  0
 10 24  1  0
 11 25  1  0
 13 26  1  0
 18 27  1  0
 18 28  1  0
 18 29  1  0
 19 30  1  0
 19 31  1  0
 19 32  1  0
 20 33  1  0
 20 34  1  0
 35 36  2  0
 36 37  1  0
 37 38  1  0
 38 39  2  0
 39 40  1  0
 40 41  2  0
 41 42  1  0
 42 43  2  0
 43 35  1  0
 43 38  1  0
 36 44  1  0
 37 45  1  0
 39 46  1  0
 40 47  1  0
 41 48  1  0
 42 49  1  0
 20 35  1  0
M  ISO  8  21  14  22  14  25  14  26  14  27   8  28   8  29   8  30   8
M  ISO  4  31   8  32   8  33   8  34   8
M  END
>  <DihAtoms>  (1) 
16,19,34,35

>  <DihDeg>  (1) 
96.93561878514498

$$$$
