
     RDKit          3D

 44 47  0  0  0  0  0  0  0  0999 V2000
   37.8980   32.7600   43.1710 C   0  0  0  0  0  0  0  0  0  0  0  0
   38.4460   31.8020   42.3150 C   0  0  0  0  0  0  0  0  0  0  0  0
   38.6250   30.5470   42.8120 C   0  0  0  0  0  0  0  0  0  0  0  0
   38.2580   30.3660   44.0620 N   0  0  0  0  0  0  0  0  0  0  0  0
   37.7460   31.1830   44.9290 C   0  0  0  0  0  0  0  0  0  0  0  0
   37.5830   32.4030   44.4140 N   0  0  0  0  0  0  0  0  0  0  0  0
   37.3190   31.0880   46.3030 C   0  0  0  0  0  0  0  0  0  0  0  0
   36.3010   30.2420   46.7380 C   0  0  0  0  0  0  0  0  0  0  0  0
   35.8800   30.1350   48.0290 C   0  0  0  0  0  0  0  0  0  0  0  0
   36.4630   30.8880   49.0100 C   0  0  0  0  0  0  0  0  0  0  0  0
   37.4510   31.7230   48.6510 C   0  0  0  0  0  0  0  0  0  0  0  0
   38.0410   32.4870   49.6440 C   0  0  0  0  0  0  0  0  0  0  0  0
   39.0510   33.3640   49.3730 C   0  0  0  0  0  0  0  0  0  0  0  0
   39.4830   33.4750   48.0600 C   0  0  0  0  0  0  0  0  0  0  0  0
   38.8760   32.7040   47.1090 C   0  0  0  0  0  0  0  0  0  0  0  0
   37.8730   31.8280   47.3410 C   0  0  0  0  0  0  0  0  0  0  0  0
   36.0150   30.7580   50.3040 O   0  0  0  0  0  0  0  0  0  0  0  0
   36.4710   29.6880   51.1190 C   0  0  0  0  0  0  0  0  0  0  0  0
   37.2820   28.7850   50.5030 F   0  0  0  0  0  0  0  0  0  0  0  0
   37.2260   30.2480   52.1390 F   0  0  0  0  0  0  0  0  0  0  0  0
   35.3310   29.0700   51.6230 F   0  0  0  0  0  0  0  0  0  0  0  0
   39.1550   29.4680   42.0760 N   0  0  0  0  0  0  0  0  0  0  0  0
   40.3420   28.7940   42.4460 C   0  0  0  0  0  0  0  0  0  0  0  0
   41.3290   29.5040   42.9040 N   0  0  0  0  0  0  0  0  0  0  0  0
   40.4500   27.3870   42.3230 N   0  0  0  0  0  0  0  0  0  0  0  0
   42.2190   29.1630   43.2460 H   0  0  0  0  0  0  0  0  0  0  0  0
   38.8150   32.1330   40.9440 C   0  0  0  0  0  0  0  0  0  0  0  0
   38.4130   33.3110   40.3470 C   0  0  0  0  0  0  0  0  0  0  0  0
   38.8670   33.4280   39.0520 C   0  0  0  0  0  0  0  0  0  0  0  0
   39.5540   32.2870   38.8890 N   0  0  0  0  0  0  0  0  0  0  0  0
   39.5090   31.5680   39.9780 N   0  0  0  0  0  0  0  0  0  0  0  0
   37.7299   33.7903   42.8244 H   0  0  0  0  0  0  0  0  0  0  0  0
   35.8013   29.6154   45.9846 H   0  0  0  0  0  0  0  0  0  0  0  0
   35.0669   29.4393   48.2836 H   0  0  0  0  0  0  0  0  0  0  0  0
   37.6857   32.3841   50.6800 H   0  0  0  0  0  0  0  0  0  0  0  0
   39.5088   33.9650   50.1725 H   0  0  0  0  0  0  0  0  0  0  0  0
   40.2946   34.1669   47.7905 H   0  0  0  0  0  0  0  0  0  0  0  0
   39.2316   32.8041   46.0729 H   0  0  0  0  0  0  0  0  0  0  0  0
   38.6554   29.1565   41.2309 H   0  0  0  0  0  0  0  0  0  0  0  0
   41.3216   26.9115   42.5970 H   0  0  0  0  0  0  0  0  0  0  0  0
   39.6569   26.8394   41.9596 H   0  0  0  0  0  0  0  0  0  0  0  0
   37.7982   34.0720   40.8499 H   0  0  0  0  0  0  0  0  0  0  0  0
   38.7073   34.2469   38.3351 H   0  0  0  0  0  0  0  0  0  0  0  0
   40.0474   32.0164   38.0263 H   0  0  0  0  0  0  0  0  0  0  0  0
  1  6  2  0
  2  3  2  0
  2  1  1  0
  3  4  1  0
  4  5  2  0
  5  7  1  0
  6  5  1  0
  7  8  2  0
  7 16  1  0
  8  9  1  0
  9 10  2  0
 10 17  1  0
 11 10  1  0
 11 12  2  0
 13 12  1  0
 14 13  2  0
 15 16  2  0
 15 14  1  0
 16 11  1  0
 17 18  1  0
 18 21  1  0
 18 20  1  0
 19 18  1  0
 22 23  1  0
 22  3  1  0
 23 24  2  0
 24 26  1  0
 25 23  1  0
 27  2  1  0
 28 27  1  0
 29 28  2  0
 30 29  1  0
 30 31  1  0
 31 27  2  0
  1 32  1  0
  8 33  1  0
  9 34  1  0
 12 35  1  0
 13 36  1  0
 14 37  1  0
 15 38  1  0
 22 39  1  0
 25 40  1  0
 25 41  1  0
 28 42  1  0
 29 43  1  0
 30 44  1  0
M  ISO  8  32  14  33  14  34  14  35  14  36  14  37  14  38  14  42  14
M  ISO  2  43  14  44   9
M  END
>  <minimizedAffinity>  (1) 
-7.71387386

>  <minimizedRMSD>  (1) 
1.37855935

$$$$
