
     RDKit          3D

 20 21  0  0  0  0  0  0  0  0999 V2000
   35.7650   28.9430   50.0950 C   0  0  0  0  0  0  0  0  0  0  0  0
   36.3280   30.1500   49.6820 C   0  0  0  0  0  0  0  0  0  0  0  0
   35.9930   30.6190   48.4060 C   0  0  0  0  0  0  0  0  0  0  0  0
   35.1420   29.8850   47.6300 N   0  0  0  0  0  0  0  0  0  0  0  0
   34.6170   28.7060   48.0900 C   0  0  0  0  0  0  0  0  0  0  0  0
   34.9370   28.2600   49.3070 N   0  0  0  0  0  0  0  0  0  0  0  0
   37.2590   30.9600   50.5150 C   0  0  0  0  0  0  0  0  0  0  0  0
   38.5640   30.9060   50.1140 F   0  0  0  0  0  0  0  0  0  0  0  0
   37.2290   30.5390   51.8350 F   0  0  0  0  0  0  0  0  0  0  0  0
   36.8870   32.2930   50.4790 F   0  0  0  0  0  0  0  0  0  0  0  0
   33.6820   27.9190   47.2140 C   0  0  0  0  0  0  0  0  0  0  0  0
   32.1990   27.8820   47.6240 C   0  0  0  0  0  0  0  0  0  0  0  0
   33.0570   26.6850   47.7720 C   0  0  0  0  0  0  0  0  0  0  0  0
   36.0098   28.5472   51.0917 H   0  0  0  0  0  0  0  0  0  0  0  0
   36.4098   31.5663   48.0334 H   0  0  0  0  0  0  0  0  0  0  0  0
   34.2485   28.1632   46.3033 H   0  0  0  0  0  0  0  0  0  0  0  0
   31.8583   28.4308   48.5144 H   0  0  0  0  0  0  0  0  0  0  0  0
   31.2435   28.1033   47.1259 H   0  0  0  0  0  0  0  0  0  0  0  0
   32.8938   25.8154   47.1184 H   0  0  0  0  0  0  0  0  0  0  0  0
   33.3003   26.0193   48.6132 H   0  0  0  0  0  0  0  0  0  0  0  0
  2  1  2  0
  2  7  1  0
  3  2  1  0
  4  5  1  0
  4  3  2  0
  5  6  2  0
  6  1  1  0
  7  9  1  0
  8  7  1  0
 10  7  1  0
 11 12  1  0
 11 13  1  0
 11  5  1  0
 12 13  1  0
  1 14  1  0
  3 15  1  0
 11 16  1  0
 12 17  1  0
 12 18  1  0
 13 19  1  0
 13 20  1  0
M  ISO  7  14  14  15  14  16  13  17  13  18  13  19  13  20  13
M  END
>  <minimizedAffinity>  (1) 
-4.69240522

>  <minimizedRMSD>  (1) 
0.405886918

$$$$
