
     RDKit          3D

 39 41  0  0  1  0  0  0  0  0999 V2000
   37.7870   30.7950   46.4990 C   0  0  0  0  0  0  0  0  0  0  0  0
   38.6650   30.1390   47.0610 O   0  0  0  0  0  0  0  0  0  0  0  0
   38.3140   31.9470   45.8430 N   0  0  0  0  0  0  0  0  0  0  0  0
   37.8740   32.0290   44.4470 C   0  0  0  0  0  0  0  0  0  0  0  0
   38.7290   32.9950   43.6390 C   0  0  0  0  0  0  0  0  0  0  0  0
   40.0340   32.7760   44.0750 O   0  0  0  0  0  0  0  0  0  0  0  0
   40.1650   33.4300   45.2910 C   0  0  0  0  0  0  0  0  0  0  0  0
   39.1390   32.9850   46.3150 C   0  0  2  0  0  0  0  0  0  0  0  0
   34.4500   29.6030   47.7570 C   0  0  0  0  0  0  0  0  0  0  0  0
   35.8340   30.0120   47.7510 C   0  0  0  0  0  0  0  0  0  0  0  0
   36.4040   30.3900   46.5390 C   0  0  0  0  0  0  0  0  0  0  0  0
   35.6150   30.3500   45.4370 N   0  0  0  0  0  0  0  0  0  0  0  0
   34.3360   29.9670   45.4810 C   0  0  0  0  0  0  0  0  0  0  0  0
   33.7700   29.6030   46.6140 N   0  0  0  0  0  0  0  0  0  0  0  0
   33.6350   29.9890   44.1620 C   0  0  0  0  0  0  0  0  0  0  0  0
   33.5060   31.2980   43.7170 F   0  0  0  0  0  0  0  0  0  0  0  0
   34.4100   29.3290   43.2200 F   0  0  0  0  0  0  0  0  0  0  0  0
   32.4080   29.3500   44.2030 F   0  0  0  0  0  0  0  0  0  0  0  0
   33.8990   29.2300   48.9680 O   0  0  0  0  0  0  0  0  0  0  0  0
   34.2340   29.7890   50.1880 C   0  0  0  0  0  0  0  0  0  0  0  0
   35.2160   29.0750   50.8660 F   0  0  0  0  0  0  0  0  0  0  0  0
   34.5440   31.1210   50.1440 F   0  0  0  0  0  0  0  0  0  0  0  0
   33.0710   29.6770   50.9660 F   0  0  0  0  0  0  0  0  0  0  0  0
   39.6360   33.2120   47.6410 C   0  0  0  0  0  0  0  0  0  0  0  0
   38.9020   33.4250   48.9000 C   0  0  0  0  0  0  0  0  0  0  0  0
   39.7880   34.4660   48.3960 C   0  0  0  0  0  0  0  0  0  0  0  0
   37.9416   31.0292   43.9934 H   0  0  0  0  0  0  0  0  0  0  0  0
   36.8383   32.3995   44.4368 H   0  0  0  0  0  0  0  0  0  0  0  0
   38.4261   34.0344   43.8335 H   0  0  0  0  0  0  0  0  0  0  0  0
   38.6233   32.8325   42.5562 H   0  0  0  0  0  0  0  0  0  0  0  0
   41.1698   33.2290   45.6910 H   0  0  0  0  0  0  0  0  0  0  0  0
   40.0039   34.5026   45.1075 H   0  0  0  0  0  0  0  0  0  0  0  0
   38.2306   33.5790   46.4940 H   0  0  0  0  0  0  0  0  0  0  0  0
   36.4229   30.0246   48.6800 H   0  0  0  0  0  0  0  0  0  0  0  0
   40.3136   32.4459   47.2360 H   0  0  0  0  0  0  0  0  0  0  0  0
   37.8124   33.5750   48.8818 H   0  0  0  0  0  0  0  0  0  0  0  0
   38.8117   32.8749   49.8483 H   0  0  0  0  0  0  0  0  0  0  0  0
   40.7326   34.6823   48.9165 H   0  0  0  0  0  0  0  0  0  0  0  0
   39.6732   35.5337   48.1575 H   0  0  0  0  0  0  0  0  0  0  0  0
  1 11  1  0
  1  2  2  0
  3  8  1  0
  3  1  1  0
  4  3  1  0
  5  6  1  0
  5  4  1  0
  6  7  1  0
  7  8  1  0
  8 24  1  0
  9 19  1  0
 10  9  2  0
 11 10  1  0
 12 13  1  0
 12 11  2  0
 13 14  2  0
 14  9  1  0
 15 18  1  0
 15 13  1  0
 16 15  1  0
 17 15  1  0
 19 20  1  0
 20 21  1  0
 20 23  1  0
 22 20  1  0
 24 26  1  0
 24 25  1  0
 26 25  1  0
  4 27  1  0
  4 28  1  0
  5 29  1  0
  5 30  1  0
  7 31  1  0
  7 32  1  0
  8 33  1  6
 10 34  1  0
 24 35  1  0
 25 36  1  0
 25 37  1  0
 26 38  1  0
 26 39  1  0
M  ISO  8  27  13  28  13  29  13  30  13  31  13  32  13  33  13  34  14
M  ISO  5  35  13  36  13  37  13  38  13  39  13
M  END
>  <minimizedAffinity>  (1) 
-5.14841747

>  <minimizedRMSD>  (1) 
1.35426521

$$$$
