
     RDKit          3D

 29 32  0  0  0  0  0  0  0  0999 V2000
   38.2830   31.7030   48.5390 C   0  0  0  0  0  0  0  0  0  0  0  0
   38.9290   32.8970   48.6060 N   0  0  0  0  0  0  0  0  0  0  0  0
   39.4460   33.1740   47.4470 O   0  0  0  0  0  0  0  0  0  0  0  0
   39.1570   32.1960   46.6290 C   0  0  0  0  0  0  0  0  0  0  0  0
   38.4280   31.2510   47.2690 N   0  0  0  0  0  0  0  0  0  0  0  0
   39.5220   32.0700   45.2380 N   0  0  0  0  0  0  0  0  0  0  0  0
   39.0320   32.8810   44.3110 N   0  0  0  0  0  0  0  0  0  0  0  0
   39.5200   32.5630   43.1060 C   0  0  0  0  0  0  0  0  0  0  0  0
   40.3630   31.4800   43.3410 C   0  0  0  0  0  0  0  0  0  0  0  0
   40.3550   31.1750   44.7030 C   0  0  0  0  0  0  0  0  0  0  0  0
   37.2770   29.9360   51.7000 C   0  0  0  0  0  0  0  0  0  0  0  0
   38.0450   30.6870   50.8010 C   0  0  0  0  0  0  0  0  0  0  0  0
   37.5400   30.9280   49.5320 C   0  0  0  0  0  0  0  0  0  0  0  0
   36.3110   30.4290   49.1980 N   0  0  0  0  0  0  0  0  0  0  0  0
   35.6090   29.7120   50.0990 C   0  0  0  0  0  0  0  0  0  0  0  0
   36.0820   29.4620   51.3450 N   0  0  0  0  0  0  0  0  0  0  0  0
   34.2730   29.1550   49.7760 C   0  0  0  0  0  0  0  0  0  0  0  0
   33.8820   29.0290   48.3120 C   0  0  0  0  0  0  0  0  0  0  0  0
   34.3280   27.8190   49.0230 C   0  0  0  0  0  0  0  0  0  0  0  0
   39.3032   33.0493   42.1435 H   0  0  0  0  0  0  0  0  0  0  0  0
   40.9443   30.9481   42.5734 H   0  0  0  0  0  0  0  0  0  0  0  0
   40.9098   30.3774   45.2188 H   0  0  0  0  0  0  0  0  0  0  0  0
   37.6638   29.7350   52.7099 H   0  0  0  0  0  0  0  0  0  0  0  0
   39.0299   31.0782   51.0959 H   0  0  0  0  0  0  0  0  0  0  0  0
   33.7825   29.5721   50.6679 H   0  0  0  0  0  0  0  0  0  0  0  0
   34.5230   29.4731   47.5362 H   0  0  0  0  0  0  0  0  0  0  0  0
   32.9856   29.2919   47.7312 H   0  0  0  0  0  0  0  0  0  0  0  0
   33.6045   27.0254   49.2613 H   0  0  0  0  0  0  0  0  0  0  0  0
   35.1058   27.0612   48.8477 H   0  0  0  0  0  0  0  0  0  0  0  0
  1  2  2  0
  1 13  1  0
  3  2  1  0
  4  5  2  0
  4  3  1  0
  5  1  1  0
  6  4  1  0
  7  6  1  0
  8  9  1  0
  8  7  2  0
  9 10  2  0
 10  6  1  0
 12 11  2  0
 13 12  1  0
 14 13  2  0
 14 15  1  0
 15 16  2  0
 16 11  1  0
 17 15  1  0
 18 19  1  0
 18 17  1  0
 19 17  1  0
  8 20  1  0
  9 21  1  0
 10 22  1  0
 11 23  1  0
 12 24  1  0
 17 25  1  0
 18 26  1  0
 18 27  1  0
 19 28  1  0
 19 29  1  0
M  ISO  8  20  14  21  14  22  14  23  14  24  14  25  13  26  13  27  13
M  ISO  2  28  13  29  13
M  END
>  <minimizedAffinity>  (1) 
-6.44483757

>  <minimizedRMSD>  (1) 
0.985369384

$$$$
