
     RDKit          3D

 45 48  0  0  0  0  0  0  0  0999 V2000
   36.4116   30.9695   48.7540 N   0  0  0  0  0  0  0  0  0  0  0  0
   36.3880   31.7353   49.8682 C   0  0  0  0  0  0  0  0  0  0  0  0
   37.3731   32.6619   49.7712 N   0  0  0  0  0  0  0  0  0  0  0  0
   37.9886   32.4589   48.6077 C   0  0  0  0  0  0  0  0  0  0  0  0
   39.0505   33.0762   47.9651 C   0  0  0  0  0  0  0  0  0  0  0  0
   39.4810   32.6673   46.7746 N   0  0  0  0  0  0  0  0  0  0  0  0
   38.8984   31.6146   46.1199 C   0  0  0  0  0  0  0  0  0  0  0  0
   37.8683   31.0207   46.7500 N   0  0  0  0  0  0  0  0  0  0  0  0
   37.4037   31.4009   47.9486 C   0  0  0  0  0  0  0  0  0  0  0  0
   39.6906   34.1661   48.5906 N   0  0  0  0  0  0  0  0  0  0  0  0
   34.6548   29.9857   47.4086 C   0  0  0  0  0  0  0  0  0  0  0  0
   35.5187   29.8921   48.5067 C   0  0  0  0  0  0  0  0  0  0  0  0
   35.4209   28.7405   49.2611 C   0  0  0  0  0  0  0  0  0  0  0  0
   34.5296   27.7839   48.9244 N   0  0  0  0  0  0  0  0  0  0  0  0
   33.7088   27.8964   47.8633 C   0  0  0  0  0  0  0  0  0  0  0  0
   33.7862   28.9986   47.1221 N   0  0  0  0  0  0  0  0  0  0  0  0
   32.7351   26.8465   47.4991 C   0  0  0  0  0  0  0  0  0  0  0  0
   31.5522   26.8864   48.4494 C   0  0  0  0  0  0  0  0  0  0  0  0
   32.1698   27.1182   46.0990 C   0  0  0  0  0  0  0  0  0  0  0  0
   33.3312   25.4603   47.4464 C   0  0  0  0  0  0  0  0  0  0  0  0
   35.7190   31.6695   50.7288 H   0  0  0  0  0  0  0  0  0  0  0  0
   39.2382   31.2756   45.1572 H   0  0  0  0  0  0  0  0  0  0  0  0
   39.7013   35.1233   48.1526 H   0  0  0  0  0  0  0  0  0  0  0  0
   40.1532   33.9747   49.5105 H   0  0  0  0  0  0  0  0  0  0  0  0
   34.6836   30.8638   46.7790 H   0  0  0  0  0  0  0  0  0  0  0  0
   36.0807   28.6527   50.1120 H   0  0  0  0  0  0  0  0  0  0  0  0
   31.0505   27.8506   48.4661 H   0  0  0  0  0  0  0  0  0  0  0  0
   30.8764   26.0246   48.2931 H   0  0  0  0  0  0  0  0  0  0  0  0
   31.9540   26.7398   49.4949 H   0  0  0  0  0  0  0  0  0  0  0  0
   31.3093   26.4745   45.8904 H   0  0  0  0  0  0  0  0  0  0  0  0
   31.7624   28.1686   46.1773 H   0  0  0  0  0  0  0  0  0  0  0  0
   32.9498   27.1392   45.3377 H   0  0  0  0  0  0  0  0  0  0  0  0
   34.1705   25.3896   46.7350 H   0  0  0  0  0  0  0  0  0  0  0  0
   33.7734   25.2662   48.4543 H   0  0  0  0  0  0  0  0  0  0  0  0
   32.3751   24.4027   47.0855 C   0  0  0  0  0  0  0  0  0  0  0  0
   31.8382   23.4913   47.9739 C   0  0  0  0  0  0  0  0  0  0  0  0
   30.9348   22.5133   47.5617 C   0  0  0  0  0  0  0  0  0  0  0  0
   30.5359   21.8122   48.3047 H   0  0  0  0  0  0  0  0  0  0  0  0
   30.5620   22.4487   46.2266 C   0  0  0  0  0  0  0  0  0  0  0  0
   31.0649   23.3316   45.2939 C   0  0  0  0  0  0  0  0  0  0  0  0
   30.7854   23.2915   44.2645 H   0  0  0  0  0  0  0  0  0  0  0  0
   31.9632   24.2898   45.7531 C   0  0  0  0  0  0  0  0  0  0  0  0
   32.1345   23.5483   49.0137 H   0  0  0  0  0  0  0  0  0  0  0  0
   29.8650   21.6982   45.8946 H   0  0  0  0  0  0  0  0  0  0  0  0
   32.3404   24.9668   45.0026 H   0  0  0  0  0  0  0  0  0  0  0  0
  1  2  1  0
  3  2  2  0
  4  3  1  0
  5 10  1  0
  5  4  2  0
  6  5  1  0
  7  8  1  0
  7  6  2  0
  8  9  2  0
  9  4  1  0
  9  1  1  0
 11 12  2  0
 12  1  1  0
 12 13  1  0
 14 13  2  0
 15 14  1  0
 16 11  1  0
 16 15  2  0
 17 15  1  0
 17 18  1  0
 19 17  1  0
 20 17  1  0
  2 21  1  0
  7 22  1  0
 10 23  1  0
 10 24  1  0
 11 25  1  0
 13 26  1  0
 18 27  1  0
 18 28  1  0
 18 29  1  0
 19 30  1  0
 19 31  1  0
 19 32  1  0
 20 33  1  0
 20 34  1  0
 35 36  2  0
 36 37  1  0
 37 38  1  0
 37 39  2  0
 39 40  1  0
 40 41  1  0
 40 42  2  0
 42 35  1  0
 36 43  1  0
 39 44  1  0
 42 45  1  0
 20 35  1  0
M  ISO  8  21  14  22  14  25  14  26  14  27   8  28   8  29   8  30   8
M  ISO  6  31   8  32   8  33   8  34   8  38  16  41  16
M  END
>  <DihAtoms>  (1) 
16,19,34,35

>  <DihDeg>  (1) 
-90.10475206794932

$$$$
