
     RDKit          3D

 36 38  0  0  0  0  0  0  0  0999 V2000
   37.2910   30.6420   44.4040 C   0  0  0  0  0  0  0  0  0  0  0  0
   38.2660   30.7930   43.4030 N   0  0  0  0  0  0  0  0  0  0  0  0
   38.5580   31.8610   42.6740 C   0  0  0  0  0  0  0  0  0  0  0  0
   39.5340   31.9220   41.7120 C   0  0  0  0  0  0  0  0  0  0  0  0
   40.2890   30.8100   41.4550 C   0  0  0  0  0  0  0  0  0  0  0  0
   41.1990   30.7840   40.5930 O   0  0  0  0  0  0  0  0  0  0  0  0
   40.0190   29.7380   42.1670 N   0  0  0  0  0  0  0  0  0  0  0  0
   39.0600   29.7020   43.1020 C   0  0  0  0  0  0  0  0  0  0  0  0
   38.8760   28.6300   43.7300 O   0  0  0  0  0  0  0  0  0  0  0  0
   40.8040   28.5300   41.9230 C   0  0  0  0  0  0  0  0  0  0  0  0
   42.1300   28.7590   42.1890 F   0  0  0  0  0  0  0  0  0  0  0  0
   40.6770   28.2460   40.5610 F   0  0  0  0  0  0  0  0  0  0  0  0
   40.2900   27.5230   42.6810 F   0  0  0  0  0  0  0  0  0  0  0  0
   37.5280   31.1840   45.7610 C   0  0  0  0  0  0  0  0  0  0  0  0
   34.7440   29.5430   47.7240 C   0  0  0  0  0  0  0  0  0  0  0  0
   35.4380   30.1670   46.6690 C   0  0  0  0  0  0  0  0  0  0  0  0
   36.7590   30.5360   46.8160 C   0  0  0  0  0  0  0  0  0  0  0  0
   37.3430   30.2670   48.0180 N   0  0  0  0  0  0  0  0  0  0  0  0
   36.6830   29.6800   49.0030 C   0  0  0  0  0  0  0  0  0  0  0  0
   35.4120   29.3110   48.8980 N   0  0  0  0  0  0  0  0  0  0  0  0
   37.4280   29.4330   50.2810 C   0  0  0  0  0  0  0  0  0  0  0  0
   36.6800   29.5170   51.5770 C   0  0  0  0  0  0  0  0  0  0  0  0
   37.6040   30.6250   51.2250 C   0  0  0  0  0  0  0  0  0  0  0  0
   37.1206   29.5615   44.5198 H   0  0  0  0  0  0  0  0  0  0  0  0
   36.4538   31.2514   44.0330 H   0  0  0  0  0  0  0  0  0  0  0  0
   37.9697   32.7726   42.8553 H   0  0  0  0  0  0  0  0  0  0  0  0
   39.7077   32.8538   41.1538 H   0  0  0  0  0  0  0  0  0  0  0  0
   38.5966   31.0683   45.9949 H   0  0  0  0  0  0  0  0  0  0  0  0
   37.2026   32.2345   45.7383 H   0  0  0  0  0  0  0  0  0  0  0  0
   33.6904   29.2488   47.6083 H   0  0  0  0  0  0  0  0  0  0  0  0
   34.9211   30.3621   45.7178 H   0  0  0  0  0  0  0  0  0  0  0  0
   38.0856   28.6868   49.8112 H   0  0  0  0  0  0  0  0  0  0  0  0
   35.5937   29.6898   51.5693 H   0  0  0  0  0  0  0  0  0  0  0  0
   36.5751   28.8522   52.4471 H   0  0  0  0  0  0  0  0  0  0  0  0
   38.5452   30.7549   51.7792 H   0  0  0  0  0  0  0  0  0  0  0  0
   37.5120   31.7169   51.1286 H   0  0  0  0  0  0  0  0  0  0  0  0
  1 14  1  0
  2  1  1  0
  3  2  1  0
  4  3  2  0
  5  4  1  0
  5  7  1  0
  6  5  2  0
  7  8  1  0
  8  2  1  0
  8  9  2  0
 10  7  1  0
 10 11  1  0
 10 13  1  0
 12 10  1  0
 14 17  1  0
 15 20  2  0
 16 17  2  0
 16 15  1  0
 17 18  1  0
 18 19  2  0
 19 21  1  0
 20 19  1  0
 21 23  1  0
 21 22  1  0
 23 22  1  0
  1 24  1  0
  1 25  1  0
  3 26  1  0
  4 27  1  0
 14 28  1  0
 14 29  1  0
 15 30  1  0
 16 31  1  0
 21 32  1  0
 22 33  1  0
 22 34  1  0
 23 35  1  0
 23 36  1  0
M  ISO  8  24   8  25   8  26  14  27  14  28   8  29   8  30  14  31  14
M  ISO  5  32  13  33  13  34  13  35  13  36  13
M  END
>  <minimizedAffinity>  (1) 
-5.43273592

>  <minimizedRMSD>  (1) 
3.67866468

$$$$
