
     RDKit          3D

 39 42  0  0  0  0  0  0  0  0999 V2000
   36.6760   31.2250   48.8030 N   0  0  0  0  0  0  0  0  0  0  0  0
   36.7730   32.0290   49.8750 C   0  0  0  0  0  0  0  0  0  0  0  0
   37.7650   32.9260   49.6540 N   0  0  0  0  0  0  0  0  0  0  0  0
   38.2680   32.6650   48.4500 C   0  0  0  0  0  0  0  0  0  0  0  0
   39.2780   33.2360   47.7050 C   0  0  0  0  0  0  0  0  0  0  0  0
   39.5850   32.7530   46.4770 N   0  0  0  0  0  0  0  0  0  0  0  0
   38.9240   31.7030   45.9330 C   0  0  0  0  0  0  0  0  0  0  0  0
   37.9480   31.1650   46.6760 N   0  0  0  0  0  0  0  0  0  0  0  0
   37.5970   31.5960   47.8930 C   0  0  0  0  0  0  0  0  0  0  0  0
   40.0030   34.3240   48.2040 N   0  0  0  0  0  0  0  0  0  0  0  0
   34.6480   30.3270   47.8200 C   0  0  0  0  0  0  0  0  0  0  0  0
   35.7420   30.1640   48.6780 C   0  0  0  0  0  0  0  0  0  0  0  0
   35.8330   28.9400   49.3590 C   0  0  0  0  0  0  0  0  0  0  0  0
   34.8700   27.9960   49.1540 N   0  0  0  0  0  0  0  0  0  0  0  0
   33.8290   28.1910   48.3190 C   0  0  0  0  0  0  0  0  0  0  0  0
   33.7360   29.3530   47.6660 N   0  0  0  0  0  0  0  0  0  0  0  0
   32.8440   27.0950   48.1730 C   0  0  0  0  0  0  0  0  0  0  0  0
   31.6370   27.4800   47.3470 C   0  0  0  0  0  0  0  0  0  0  0  0
   32.0690   27.7640   45.9460 C   0  0  0  0  0  0  0  0  0  0  0  0
   32.8930   26.7070   45.2990 C   0  0  0  0  0  0  0  0  0  0  0  0
   33.8910   26.0260   46.1670 C   0  0  0  0  0  0  0  0  0  0  0  0
   33.4210   25.8430   47.5910 C   0  0  0  0  0  0  0  0  0  0  0  0
   36.1514   31.9694   50.7806 H   0  0  0  0  0  0  0  0  0  0  0  0
   39.1752   31.3135   44.9354 H   0  0  0  0  0  0  0  0  0  0  0  0
   40.7557   34.7436   47.6398 H   0  0  0  0  0  0  0  0  0  0  0  0
   39.7839   34.7052   49.1355 H   0  0  0  0  0  0  0  0  0  0  0  0
   34.5333   31.2684   47.2626 H   0  0  0  0  0  0  0  0  0  0  0  0
   36.6683   28.7450   50.0476 H   0  0  0  0  0  0  0  0  0  0  0  0
   32.5310   26.8993   49.2092 H   0  0  0  0  0  0  0  0  0  0  0  0
   30.9121   26.6527   47.3476 H   0  0  0  0  0  0  0  0  0  0  0  0
   31.1666   28.3766   47.7769 H   0  0  0  0  0  0  0  0  0  0  0  0
   31.1650   27.9087   45.3361 H   0  0  0  0  0  0  0  0  0  0  0  0
   32.7137   28.6533   46.0050 H   0  0  0  0  0  0  0  0  0  0  0  0
   32.2080   25.9393   44.9098 H   0  0  0  0  0  0  0  0  0  0  0  0
   33.4807   27.2248   44.5267 H   0  0  0  0  0  0  0  0  0  0  0  0
   34.1057   25.0350   45.7405 H   0  0  0  0  0  0  0  0  0  0  0  0
   34.7845   26.6668   46.1995 H   0  0  0  0  0  0  0  0  0  0  0  0
   32.6502   25.0584   47.6093 H   0  0  0  0  0  0  0  0  0  0  0  0
   34.2963   25.5669   48.1974 H   0  0  0  0  0  0  0  0  0  0  0  0
  1  2  1  0
  3  2  2  0
  4  3  1  0
  5 10  1  0
  5  4  2  0
  6  5  1  0
  7  6  2  0
  7  8  1  0
  8  9  2  0
  9  4  1  0
  9  1  1  0
 11 12  2  0
 12  1  1  0
 12 13  1  0
 14 13  2  0
 15 14  1  0
 16 11  1  0
 16 15  2  0
 17 15  1  0
 18 17  1  0
 19 18  1  0
 20 19  1  0
 20 21  1  0
 21 22  1  0
 22 17  1  0
  2 23  1  0
  7 24  1  0
 10 25  1  0
 10 26  1  0
 11 27  1  0
 13 28  1  0
 17 29  1  0
 18 30  1  0
 18 31  1  0
 19 32  1  0
 19 33  1  0
 20 34  1  0
 20 35  1  0
 21 36  1  0
 21 37  1  0
 22 38  1  0
 22 39  1  0
M  ISO  8  23  14  24  14  27  14  28  14  29  13  30  13  31  13  32  13
M  ISO  7  33  13  34  13  35  13  36  13  37  13  38  13  39  13
M  END
>  <minimizedAffinity>  (1) 
-5.84316969

>  <minimizedRMSD>  (1) 
3.11023712

$$$$
