
     RDKit          3D

 39 42  0  0  0  0  0  0  0  0999 V2000
   37.7976   31.8126   49.0559 N   0  0  0  0  0  0  0  0  0  0  0  0
   38.1937   33.0298   49.4633 C   0  0  0  0  0  0  0  0  0  0  0  0
   38.9450   33.5901   48.4830 N   0  0  0  0  0  0  0  0  0  0  0  0
   39.0033   32.7132   47.4842 C   0  0  0  0  0  0  0  0  0  0  0  0
   39.6129   32.7291   46.2485 C   0  0  0  0  0  0  0  0  0  0  0  0
   39.5020   31.6682   45.4121 N   0  0  0  0  0  0  0  0  0  0  0  0
   38.7978   30.5605   45.7468 C   0  0  0  0  0  0  0  0  0  0  0  0
   38.2145   30.5687   46.9526 N   0  0  0  0  0  0  0  0  0  0  0  0
   38.2863   31.5829   47.8225 C   0  0  0  0  0  0  0  0  0  0  0  0
   35.6861   30.6691   49.3982 C   0  0  0  0  0  0  0  0  0  0  0  0
   36.9931   30.9325   49.8245 C   0  0  0  0  0  0  0  0  0  0  0  0
   37.4128   30.2932   51.0009 C   0  0  0  0  0  0  0  0  0  0  0  0
   36.5441   29.4677   51.6518 N   0  0  0  0  0  0  0  0  0  0  0  0
   35.2911   29.2386   51.2096 C   0  0  0  0  0  0  0  0  0  0  0  0
   34.8835   29.8433   50.0902 N   0  0  0  0  0  0  0  0  0  0  0  0
   40.3570   33.8396   45.8349 N   0  0  0  0  0  0  0  0  0  0  0  0
   37.9918   33.5402   50.3897 H   0  0  0  0  0  0  0  0  0  0  0  0
   38.7523   29.7543   45.0317 H   0  0  0  0  0  0  0  0  0  0  0  0
   35.3302   31.1459   48.4943 H   0  0  0  0  0  0  0  0  0  0  0  0
   38.4152   30.4992   51.3221 H   0  0  0  0  0  0  0  0  0  0  0  0
   39.8617   34.5795   45.2575 H   0  0  0  0  0  0  0  0  0  0  0  0
   41.3620   34.0597   46.0141 H   0  0  0  0  0  0  0  0  0  0  0  0
   34.4350   28.3219   51.9968 C   0  0  0  0  0  0  0  0  0  0  0  0
   35.1329   27.0381   52.3898 C   0  0  0  0  0  0  0  0  0  0  0  0
   36.2632   27.3562   53.3126 C   0  0  0  0  0  0  0  0  0  0  0  0
   35.9191   28.2039   54.4866 C   0  0  0  0  0  0  0  0  0  0  0  0
   34.9452   29.3021   54.2415 C   0  0  0  0  0  0  0  0  0  0  0  0
   33.8751   28.9415   53.2382 C   0  0  0  0  0  0  0  0  0  0  0  0
   33.5663   28.0671   51.3432 H   0  0  0  0  0  0  0  0  0  0  0  0
   35.5387   26.5252   51.5092 H   0  0  0  0  0  0  0  0  0  0  0  0
   34.3423   26.4177   52.8811 H   0  0  0  0  0  0  0  0  0  0  0  0
   36.6652   26.3883   53.7391 H   0  0  0  0  0  0  0  0  0  0  0  0
   37.1092   27.7444   52.7084 H   0  0  0  0  0  0  0  0  0  0  0  0
   36.8803   28.7038   54.8061 H   0  0  0  0  0  0  0  0  0  0  0  0
   35.6474   27.5803   55.3732 H   0  0  0  0  0  0  0  0  0  0  0  0
   35.3856   30.2860   54.0034 H   0  0  0  0  0  0  0  0  0  0  0  0
   34.3923   29.4566   55.2143 H   0  0  0  0  0  0  0  0  0  0  0  0
   33.3697   29.8920   52.9615 H   0  0  0  0  0  0  0  0  0  0  0  0
   33.1153   28.2552   53.6475 H   0  0  0  0  0  0  0  0  0  0  0  0
  1  2  1  0
  1 11  1  0
  3  2  2  0
  4  9  2  0
  4  3  1  0
  5  4  1  0
  6  7  1  0
  6  5  2  0
  7  8  2  0
  8  9  1  0
  9  1  1  0
 10 11  2  0
 10 15  1  0
 11 12  1  0
 12 13  2  0
 14 13  1  0
 15 14  2  0
 16  5  1  0
  2 17  1  0
  7 18  1  0
 10 19  1  0
 12 20  1  0
 16 21  1  0
 16 22  1  0
 23 24  1  0
 24 25  1  0
 25 26  1  0
 26 27  1  0
 27 28  1  0
 28 23  1  0
 23 29  1  0
 24 30  1  0
 24 31  1  0
 25 32  1  0
 25 33  1  0
 26 34  1  0
 26 35  1  0
 27 36  1  0
 27 37  1  0
 28 38  1  0
 28 39  1  0
 14 23  1  0
M  ISO  4  17  14  18  14  19  14  20  14
M  END
>  <DihAtoms>  (1) 
12,13,22,23

>  <DihDeg>  (1) 
118.1946949750289

$$$$
