
     RDKit          3D

 39 42  0  0  0  0  0  0  0  0999 V2000
   37.7976   31.8126   49.0559 N   0  0  0  0  0  0  0  0  0  0  0  0
   38.1937   33.0298   49.4633 C   0  0  0  0  0  0  0  0  0  0  0  0
   38.9450   33.5901   48.4830 N   0  0  0  0  0  0  0  0  0  0  0  0
   39.0033   32.7132   47.4842 C   0  0  0  0  0  0  0  0  0  0  0  0
   39.6129   32.7291   46.2485 C   0  0  0  0  0  0  0  0  0  0  0  0
   39.5020   31.6682   45.4121 N   0  0  0  0  0  0  0  0  0  0  0  0
   38.7978   30.5605   45.7468 C   0  0  0  0  0  0  0  0  0  0  0  0
   38.2145   30.5687   46.9526 N   0  0  0  0  0  0  0  0  0  0  0  0
   38.2863   31.5829   47.8225 C   0  0  0  0  0  0  0  0  0  0  0  0
   35.6861   30.6691   49.3982 C   0  0  0  0  0  0  0  0  0  0  0  0
   36.9931   30.9325   49.8245 C   0  0  0  0  0  0  0  0  0  0  0  0
   37.4128   30.2932   51.0009 C   0  0  0  0  0  0  0  0  0  0  0  0
   36.5441   29.4677   51.6518 N   0  0  0  0  0  0  0  0  0  0  0  0
   35.2911   29.2386   51.2096 C   0  0  0  0  0  0  0  0  0  0  0  0
   34.8835   29.8433   50.0902 N   0  0  0  0  0  0  0  0  0  0  0  0
   40.3570   33.8396   45.8349 N   0  0  0  0  0  0  0  0  0  0  0  0
   37.9918   33.5402   50.3897 H   0  0  0  0  0  0  0  0  0  0  0  0
   38.7523   29.7543   45.0317 H   0  0  0  0  0  0  0  0  0  0  0  0
   35.3302   31.1459   48.4943 H   0  0  0  0  0  0  0  0  0  0  0  0
   38.4152   30.4992   51.3221 H   0  0  0  0  0  0  0  0  0  0  0  0
   39.8617   34.5795   45.2575 H   0  0  0  0  0  0  0  0  0  0  0  0
   41.3620   34.0597   46.0141 H   0  0  0  0  0  0  0  0  0  0  0  0
   34.4350   28.3219   51.9968 C   0  0  0  0  0  0  0  0  0  0  0  0
   35.2125   27.4594   52.9670 C   0  0  0  0  0  0  0  0  0  0  0  0
   35.8491   28.3319   53.9984 C   0  0  0  0  0  0  0  0  0  0  0  0
   34.9393   29.2892   54.6849 C   0  0  0  0  0  0  0  0  0  0  0  0
   33.8989   29.9311   53.8361 C   0  0  0  0  0  0  0  0  0  0  0  0
   33.3547   29.0187   52.7622 C   0  0  0  0  0  0  0  0  0  0  0  0
   33.9285   27.6555   51.2578 H   0  0  0  0  0  0  0  0  0  0  0  0
   36.0027   26.9005   52.4508 H   0  0  0  0  0  0  0  0  0  0  0  0
   34.4553   26.7626   53.4056 H   0  0  0  0  0  0  0  0  0  0  0  0
   36.2764   27.6746   54.8143 H   0  0  0  0  0  0  0  0  0  0  0  0
   36.7469   28.8055   53.5500 H   0  0  0  0  0  0  0  0  0  0  0  0
   35.5938   30.1276   55.0650 H   0  0  0  0  0  0  0  0  0  0  0  0
   34.5168   28.8491   55.6211 H   0  0  0  0  0  0  0  0  0  0  0  0
   34.1693   30.9135   53.4113 H   0  0  0  0  0  0  0  0  0  0  0  0
   33.0206   30.1376   54.5156 H   0  0  0  0  0  0  0  0  0  0  0  0
   32.7843   29.6644   52.0599 H   0  0  0  0  0  0  0  0  0  0  0  0
   32.6687   28.2510   53.1569 H   0  0  0  0  0  0  0  0  0  0  0  0
  1  2  1  0
  1 11  1  0
  3  2  2  0
  4  9  2  0
  4  3  1  0
  5  4  1  0
  6  7  1  0
  6  5  2  0
  7  8  2  0
  8  9  1  0
  9  1  1  0
 10 11  2  0
 10 15  1  0
 11 12  1  0
 12 13  2  0
 14 13  1  0
 15 14  2  0
 16  5  1  0
  2 17  1  0
  7 18  1  0
 10 19  1  0
 12 20  1  0
 16 21  1  0
 16 22  1  0
 23 24  1  0
 24 25  1  0
 25 26  1  0
 26 27  1  0
 27 28  1  0
 28 23  1  0
 23 29  1  0
 24 30  1  0
 24 31  1  0
 25 32  1  0
 25 33  1  0
 26 34  1  0
 26 35  1  0
 27 36  1  0
 27 37  1  0
 28 38  1  0
 28 39  1  0
 14 23  1  0
M  ISO  4  17  14  18  14  19  14  20  14
M  END
>  <DihAtoms>  (1) 
12,13,22,23

>  <DihDeg>  (1) 
118.1946949750289

$$$$
