
     RDKit          3D

 39 42  0  0  0  0  0  0  0  0999 V2000
   37.7976   31.8126   49.0559 N   0  0  0  0  0  0  0  0  0  0  0  0
   38.1937   33.0298   49.4633 C   0  0  0  0  0  0  0  0  0  0  0  0
   38.9450   33.5901   48.4830 N   0  0  0  0  0  0  0  0  0  0  0  0
   39.0033   32.7132   47.4842 C   0  0  0  0  0  0  0  0  0  0  0  0
   39.6129   32.7291   46.2485 C   0  0  0  0  0  0  0  0  0  0  0  0
   39.5020   31.6682   45.4121 N   0  0  0  0  0  0  0  0  0  0  0  0
   38.7978   30.5605   45.7468 C   0  0  0  0  0  0  0  0  0  0  0  0
   38.2145   30.5687   46.9526 N   0  0  0  0  0  0  0  0  0  0  0  0
   38.2863   31.5829   47.8225 C   0  0  0  0  0  0  0  0  0  0  0  0
   35.6861   30.6691   49.3982 C   0  0  0  0  0  0  0  0  0  0  0  0
   36.9931   30.9325   49.8245 C   0  0  0  0  0  0  0  0  0  0  0  0
   37.4128   30.2932   51.0009 C   0  0  0  0  0  0  0  0  0  0  0  0
   36.5441   29.4677   51.6518 N   0  0  0  0  0  0  0  0  0  0  0  0
   35.2911   29.2386   51.2096 C   0  0  0  0  0  0  0  0  0  0  0  0
   34.8835   29.8433   50.0902 N   0  0  0  0  0  0  0  0  0  0  0  0
   40.3570   33.8396   45.8349 N   0  0  0  0  0  0  0  0  0  0  0  0
   37.9918   33.5402   50.3897 H   0  0  0  0  0  0  0  0  0  0  0  0
   38.7523   29.7543   45.0317 H   0  0  0  0  0  0  0  0  0  0  0  0
   35.3302   31.1459   48.4943 H   0  0  0  0  0  0  0  0  0  0  0  0
   38.4152   30.4992   51.3221 H   0  0  0  0  0  0  0  0  0  0  0  0
   39.8617   34.5795   45.2575 H   0  0  0  0  0  0  0  0  0  0  0  0
   41.3620   34.0597   46.0141 H   0  0  0  0  0  0  0  0  0  0  0  0
   34.4350   28.3219   51.9968 C   0  0  0  0  0  0  0  0  0  0  0  0
   34.9908   28.0122   53.3697 C   0  0  0  0  0  0  0  0  0  0  0  0
   35.0188   29.2651   54.1822 C   0  0  0  0  0  0  0  0  0  0  0  0
   33.7409   30.0260   54.2396 C   0  0  0  0  0  0  0  0  0  0  0  0
   32.9511   30.0805   52.9794 C   0  0  0  0  0  0  0  0  0  0  0  0
   33.0308   28.8097   52.1666 C   0  0  0  0  0  0  0  0  0  0  0  0
   34.3780   27.3707   51.4149 H   0  0  0  0  0  0  0  0  0  0  0  0
   36.0133   27.6210   53.3014 H   0  0  0  0  0  0  0  0  0  0  0  0
   34.2991   27.2429   53.7951 H   0  0  0  0  0  0  0  0  0  0  0  0
   35.2651   28.9960   55.2533 H   0  0  0  0  0  0  0  0  0  0  0  0
   35.8907   29.8714   53.8600 H   0  0  0  0  0  0  0  0  0  0  0  0
   34.0211   31.0936   54.4795 H   0  0  0  0  0  0  0  0  0  0  0  0
   33.1237   29.7190   55.1190 H   0  0  0  0  0  0  0  0  0  0  0  0
   33.1324   30.9625   52.3407 H   0  0  0  0  0  0  0  0  0  0  0  0
   31.8679   30.1608   53.2890 H   0  0  0  0  0  0  0  0  0  0  0  0
   32.6170   29.0510   51.1636 H   0  0  0  0  0  0  0  0  0  0  0  0
   32.4349   27.9869   52.5950 H   0  0  0  0  0  0  0  0  0  0  0  0
  1  2  1  0
  1 11  1  0
  3  2  2  0
  4  9  2  0
  4  3  1  0
  5  4  1  0
  6  7  1  0
  6  5  2  0
  7  8  2  0
  8  9  1  0
  9  1  1  0
 10 11  2  0
 10 15  1  0
 11 12  1  0
 12 13  2  0
 14 13  1  0
 15 14  2  0
 16  5  1  0
  2 17  1  0
  7 18  1  0
 10 19  1  0
 12 20  1  0
 16 21  1  0
 16 22  1  0
 23 24  1  0
 24 25  1  0
 25 26  1  0
 26 27  1  0
 27 28  1  0
 28 23  1  0
 23 29  1  0
 24 30  1  0
 24 31  1  0
 25 32  1  0
 25 33  1  0
 26 34  1  0
 26 35  1  0
 27 36  1  0
 27 37  1  0
 28 38  1  0
 28 39  1  0
 14 23  1  0
M  ISO  4  17  14  18  14  19  14  20  14
M  END
>  <DihAtoms>  (1) 
12,13,22,23

>  <DihDeg>  (1) 
118.1946949750289

$$$$
