
     RDKit          3D

 39 42  0  0  0  0  0  0  0  0999 V2000
   37.7976   31.8126   49.0559 N   0  0  0  0  0  0  0  0  0  0  0  0
   38.1937   33.0298   49.4633 C   0  0  0  0  0  0  0  0  0  0  0  0
   38.9450   33.5901   48.4830 N   0  0  0  0  0  0  0  0  0  0  0  0
   39.0033   32.7132   47.4842 C   0  0  0  0  0  0  0  0  0  0  0  0
   39.6129   32.7291   46.2485 C   0  0  0  0  0  0  0  0  0  0  0  0
   39.5020   31.6682   45.4121 N   0  0  0  0  0  0  0  0  0  0  0  0
   38.7978   30.5605   45.7468 C   0  0  0  0  0  0  0  0  0  0  0  0
   38.2145   30.5687   46.9526 N   0  0  0  0  0  0  0  0  0  0  0  0
   38.2863   31.5829   47.8225 C   0  0  0  0  0  0  0  0  0  0  0  0
   35.6861   30.6691   49.3982 C   0  0  0  0  0  0  0  0  0  0  0  0
   36.9931   30.9325   49.8245 C   0  0  0  0  0  0  0  0  0  0  0  0
   37.4128   30.2932   51.0009 C   0  0  0  0  0  0  0  0  0  0  0  0
   36.5441   29.4677   51.6518 N   0  0  0  0  0  0  0  0  0  0  0  0
   35.2911   29.2386   51.2096 C   0  0  0  0  0  0  0  0  0  0  0  0
   34.8835   29.8433   50.0902 N   0  0  0  0  0  0  0  0  0  0  0  0
   40.3570   33.8396   45.8349 N   0  0  0  0  0  0  0  0  0  0  0  0
   37.9918   33.5402   50.3897 H   0  0  0  0  0  0  0  0  0  0  0  0
   38.7523   29.7543   45.0317 H   0  0  0  0  0  0  0  0  0  0  0  0
   35.3302   31.1459   48.4943 H   0  0  0  0  0  0  0  0  0  0  0  0
   38.4152   30.4992   51.3221 H   0  0  0  0  0  0  0  0  0  0  0  0
   39.8617   34.5795   45.2575 H   0  0  0  0  0  0  0  0  0  0  0  0
   41.3620   34.0597   46.0141 H   0  0  0  0  0  0  0  0  0  0  0  0
   34.4350   28.3219   51.9968 C   0  0  0  0  0  0  0  0  0  0  0  0
   33.3934   27.6087   51.1625 C   0  0  0  0  0  0  0  0  0  0  0  0
   34.0778   26.7111   50.1846 C   0  0  0  0  0  0  0  0  0  0  0  0
   35.0871   25.7803   50.7595 C   0  0  0  0  0  0  0  0  0  0  0  0
   35.9363   26.3256   51.8532 C   0  0  0  0  0  0  0  0  0  0  0  0
   35.2036   27.2883   52.7578 C   0  0  0  0  0  0  0  0  0  0  0  0
   33.9108   28.9553   52.7522 H   0  0  0  0  0  0  0  0  0  0  0  0
   32.7788   28.3250   50.6036 H   0  0  0  0  0  0  0  0  0  0  0  0
   32.7710   27.0419   51.8992 H   0  0  0  0  0  0  0  0  0  0  0  0
   33.2999   26.0545   49.6906 H   0  0  0  0  0  0  0  0  0  0  0  0
   34.4615   27.3322   49.3489 H   0  0  0  0  0  0  0  0  0  0  0  0
   35.7920   25.5208   49.9159 H   0  0  0  0  0  0  0  0  0  0  0  0
   34.6291   24.7957   51.0230 H   0  0  0  0  0  0  0  0  0  0  0  0
   36.9058   26.7494   51.5382 H   0  0  0  0  0  0  0  0  0  0  0  0
   36.2010   25.4488   52.5142 H   0  0  0  0  0  0  0  0  0  0  0  0
   35.9797   27.8017   53.3658 H   0  0  0  0  0  0  0  0  0  0  0  0
   34.5054   26.7846   53.4468 H   0  0  0  0  0  0  0  0  0  0  0  0
  1  2  1  0
  1 11  1  0
  3  2  2  0
  4  9  2  0
  4  3  1  0
  5  4  1  0
  6  7  1  0
  6  5  2  0
  7  8  2  0
  8  9  1  0
  9  1  1  0
 10 11  2  0
 10 15  1  0
 11 12  1  0
 12 13  2  0
 14 13  1  0
 15 14  2  0
 16  5  1  0
  2 17  1  0
  7 18  1  0
 10 19  1  0
 12 20  1  0
 16 21  1  0
 16 22  1  0
 23 24  1  0
 24 25  1  0
 25 26  1  0
 26 27  1  0
 27 28  1  0
 28 23  1  0
 23 29  1  0
 24 30  1  0
 24 31  1  0
 25 32  1  0
 25 33  1  0
 26 34  1  0
 26 35  1  0
 27 36  1  0
 27 37  1  0
 28 38  1  0
 28 39  1  0
 14 23  1  0
M  ISO  4  17  14  18  14  19  14  20  14
M  END
>  <DihAtoms>  (1) 
12,13,22,23

>  <DihDeg>  (1) 
118.1946949750289

$$$$
