
     RDKit          3D

 26 27  0  0  0  0  0  0  0  0999 V2000
   36.6500   29.8140   49.5250 C   0  0  0  0  0  0  0  0  0  0  0  0
   37.5430   30.5030   48.7020 C   0  0  0  0  0  0  0  0  0  0  0  0
   37.1520   30.7750   47.3880 C   0  0  0  0  0  0  0  0  0  0  0  0
   35.9330   30.3590   46.9840 N   0  0  0  0  0  0  0  0  0  0  0  0
   35.0880   29.6880   47.8160 C   0  0  0  0  0  0  0  0  0  0  0  0
   35.4580   29.4270   49.0730 N   0  0  0  0  0  0  0  0  0  0  0  0
   38.0190   31.5010   46.4220 C   0  0  0  0  0  0  0  0  0  0  0  0
   38.9770   30.5770   45.7000 C   0  0  0  0  0  0  0  0  0  0  0  0
   40.3210   31.2550   45.7580 C   0  0  0  0  0  0  0  0  0  0  0  0
   39.9960   32.7110   46.1200 C   0  0  0  0  0  0  0  0  0  0  0  0
   38.9290   32.4520   47.1840 C   0  0  0  0  0  0  0  0  0  0  0  0
   37.0760   29.5250   50.9380 C   0  0  0  0  0  0  0  0  0  0  0  0
   35.9480   29.3860   51.7400 F   0  0  0  0  0  0  0  0  0  0  0  0
   37.8670   28.4190   50.9330 F   0  0  0  0  0  0  0  0  0  0  0  0
   37.7750   30.6250   51.4000 F   0  0  0  0  0  0  0  0  0  0  0  0
   38.5264   30.8227   49.0771 H   0  0  0  0  0  0  0  0  0  0  0  0
   34.1022   29.3615   47.4532 H   0  0  0  0  0  0  0  0  0  0  0  0
   37.3386   31.9977   45.7146 H   0  0  0  0  0  0  0  0  0  0  0  0
   38.6621   30.4389   44.6551 H   0  0  0  0  0  0  0  0  0  0  0  0
   39.0055   29.5799   46.1636 H   0  0  0  0  0  0  0  0  0  0  0  0
   40.9568   30.7945   46.5285 H   0  0  0  0  0  0  0  0  0  0  0  0
   40.8753   31.1709   44.8116 H   0  0  0  0  0  0  0  0  0  0  0  0
   40.8690   33.2402   46.5297 H   0  0  0  0  0  0  0  0  0  0  0  0
   39.6864   33.3522   45.2816 H   0  0  0  0  0  0  0  0  0  0  0  0
   38.4054   33.3761   47.4701 H   0  0  0  0  0  0  0  0  0  0  0  0
   39.3123   32.0607   48.1379 H   0  0  0  0  0  0  0  0  0  0  0  0
  1 12  1  0
  2  1  2  0
  3  2  1  0
  4  3  2  0
  4  5  1  0
  5  6  2  0
  6  1  1  0
  7 11  1  0
  7  3  1  0
  8  9  1  0
  8  7  1  0
  9 10  1  0
 10 11  1  0
 12 15  1  0
 12 13  1  0
 14 12  1  0
  2 16  1  0
  5 17  1  0
  7 18  1  0
  8 19  1  0
  8 20  1  0
  9 21  1  0
  9 22  1  0
 10 23  1  0
 10 24  1  0
 11 25  1  0
 11 26  1  0
M  ISO  8  16  14  17  14  18  13  19  13  20  13  21  13  22  13  23  13
M  ISO  3  24  13  25  13  26  13
M  END
>  <minimizedAffinity>  (1) 
-5.78325844

>  <minimizedRMSD>  (1) 
2.70977807

$$$$
