
     RDKit          3D

 50 53  0  0  0  0  0  0  0  0999 V2000
   37.1680   31.0190   46.2520 C   0  0  0  0  0  0  0  0  0  0  0  0
   36.1370   30.1850   46.7000 C   0  0  0  0  0  0  0  0  0  0  0  0
   35.7420   30.0770   47.9970 C   0  0  0  0  0  0  0  0  0  0  0  0
   36.3610   30.8090   48.9690 C   0  0  0  0  0  0  0  0  0  0  0  0
   37.3600   31.6290   48.6000 C   0  0  0  0  0  0  0  0  0  0  0  0
   37.9890   32.3730   49.5880 C   0  0  0  0  0  0  0  0  0  0  0  0
   39.0080   33.2260   49.3000 C   0  0  0  0  0  0  0  0  0  0  0  0
   39.4130   33.3390   47.9770 C   0  0  0  0  0  0  0  0  0  0  0  0
   38.7680   32.5890   47.0320 C   0  0  0  0  0  0  0  0  0  0  0  0
   37.7550   31.7350   47.2850 C   0  0  0  0  0  0  0  0  0  0  0  0
   37.5450   32.6440   43.0600 C   0  0  0  0  0  0  0  0  0  0  0  0
   38.1600   31.7120   42.2150 C   0  0  0  0  0  0  0  0  0  0  0  0
   38.4540   30.4890   42.7560 C   0  0  0  0  0  0  0  0  0  0  0  0
   38.1270   30.3190   44.0210 N   0  0  0  0  0  0  0  0  0  0  0  0
   37.5610   31.1150   44.8720 C   0  0  0  0  0  0  0  0  0  0  0  0
   37.2840   32.2970   44.3230 N   0  0  0  0  0  0  0  0  0  0  0  0
   39.0690   29.4500   42.0270 N   0  0  0  0  0  0  0  0  0  0  0  0
   40.2620   28.8230   42.4740 C   0  0  0  0  0  0  0  0  0  0  0  0
   41.1910   29.5720   42.9870 N   0  0  0  0  0  0  0  0  0  0  0  0
   40.4450   27.4120   42.3680 N   0  0  0  0  0  0  0  0  0  0  0  0
   42.0870   29.2820   43.3500 H   0  0  0  0  0  0  0  0  0  0  0  0
   38.4780   32.0220   40.8070 C   0  0  0  0  0  0  0  0  0  0  0  0
   38.6660   33.5240   40.6000 C   0  0  0  0  0  0  0  0  0  0  0  0
   37.3310   34.0170   40.0950 C   0  0  0  0  0  0  0  0  0  0  0  0
   36.6300   32.8490   39.4880 C   0  0  0  0  0  0  0  0  0  0  0  0
   37.3910   31.6170   39.8360 C   0  0  0  0  0  0  0  0  0  0  0  0
   35.9360   30.6730   50.2680 O   0  0  0  0  0  0  0  0  0  0  0  0
   36.4210   29.6190   51.0820 C   0  0  0  0  0  0  0  0  0  0  0  0
   37.2440   28.7270   50.4620 F   0  0  0  0  0  0  0  0  0  0  0  0
   37.1780   30.1960   52.0910 F   0  0  0  0  0  0  0  0  0  0  0  0
   35.3050   28.9790   51.6070 F   0  0  0  0  0  0  0  0  0  0  0  0
   35.6100   29.5750   45.9516 H   0  0  0  0  0  0  0  0  0  0  0  0
   34.9199   29.3967   48.2640 H   0  0  0  0  0  0  0  0  0  0  0  0
   37.6547   32.2701   50.6309 H   0  0  0  0  0  0  0  0  0  0  0  0
   39.4977   33.8101   50.0931 H   0  0  0  0  0  0  0  0  0  0  0  0
   40.2332   34.0156   47.6952 H   0  0  0  0  0  0  0  0  0  0  0  0
   39.1002   32.6899   45.9882 H   0  0  0  0  0  0  0  0  0  0  0  0
   37.2812   33.6456   42.6896 H   0  0  0  0  0  0  0  0  0  0  0  0
   38.6401   29.1368   41.1444 H   0  0  0  0  0  0  0  0  0  0  0  0
   41.3193   26.9798   42.6992 H   0  0  0  0  0  0  0  0  0  0  0  0
   39.7028   26.8256   41.9603 H   0  0  0  0  0  0  0  0  0  0  0  0
   39.3960   31.4498   40.6074 H   0  0  0  0  0  0  0  0  0  0  0  0
   38.9264   34.0158   41.5489 H   0  0  0  0  0  0  0  0  0  0  0  0
   39.4823   33.7460   39.8968 H   0  0  0  0  0  0  0  0  0  0  0  0
   36.7382   34.4204   40.9292 H   0  0  0  0  0  0  0  0  0  0  0  0
   37.4659   34.8192   39.3546 H   0  0  0  0  0  0  0  0  0  0  0  0
   36.5900   32.9656   38.3949 H   0  0  0  0  0  0  0  0  0  0  0  0
   35.6015   32.7815   39.8723 H   0  0  0  0  0  0  0  0  0  0  0  0
   36.7219   30.8806   40.3050 H   0  0  0  0  0  0  0  0  0  0  0  0
   37.8236   31.1576   38.9350 H   0  0  0  0  0  0  0  0  0  0  0  0
  1  2  2  0
  1 10  1  0
  2  3  1  0
  3  4  2  0
  4 27  1  0
  5  4  1  0
  5  6  2  0
  7  6  1  0
  8  7  2  0
  9 10  2  0
  9  8  1  0
 10  5  1  0
 11 16  2  0
 12 13  2  0
 12 11  1  0
 13 14  1  0
 14 15  2  0
 15  1  1  0
 16 15  1  0
 17 18  1  0
 17 13  1  0
 18 19  2  0
 19 21  1  0
 20 18  1  0
 22 12  1  0
 23 22  1  0
 24 23  1  0
 25 26  1  0
 25 24  1  0
 26 22  1  0
 27 28  1  0
 28 31  1  0
 28 30  1  0
 29 28  1  0
  2 32  1  0
  3 33  1  0
  6 34  1  0
  7 35  1  0
  8 36  1  0
  9 37  1  0
 11 38  1  0
 17 39  1  0
 20 40  1  0
 20 41  1  0
 22 42  1  0
 23 43  1  0
 23 44  1  0
 24 45  1  0
 24 46  1  0
 25 47  1  0
 25 48  1  0
 26 49  1  0
 26 50  1  0
M  END
>  <minimizedAffinity>  (1) 
-7.63223505

>  <minimizedRMSD>  (1) 
1.53780794

$$$$
