
     RDKit          3D

 36 39  0  0  0  0  0  0  0  0999 V2000
   37.8030   31.8193   49.0701 N   0  0  0  0  0  0  0  0  0  0  0  0
   38.1988   33.0396   49.4740 C   0  0  0  0  0  0  0  0  0  0  0  0
   38.9455   33.5994   48.4902 N   0  0  0  0  0  0  0  0  0  0  0  0
   39.0013   32.7087   47.4824 C   0  0  0  0  0  0  0  0  0  0  0  0
   39.6050   32.7166   46.2417 C   0  0  0  0  0  0  0  0  0  0  0  0
   39.4981   31.6640   45.4084 N   0  0  0  0  0  0  0  0  0  0  0  0
   38.8005   30.5592   45.7445 C   0  0  0  0  0  0  0  0  0  0  0  0
   38.2175   30.5635   46.9548 N   0  0  0  0  0  0  0  0  0  0  0  0
   38.2914   31.5890   47.8291 C   0  0  0  0  0  0  0  0  0  0  0  0
   35.6906   30.6664   49.4053 C   0  0  0  0  0  0  0  0  0  0  0  0
   37.0058   30.9367   49.8348 C   0  0  0  0  0  0  0  0  0  0  0  0
   37.4090   30.2918   51.0042 C   0  0  0  0  0  0  0  0  0  0  0  0
   36.5410   29.4662   51.6438 N   0  0  0  0  0  0  0  0  0  0  0  0
   35.3017   29.2385   51.2007 C   0  0  0  0  0  0  0  0  0  0  0  0
   34.8630   29.8420   50.0683 N   0  0  0  0  0  0  0  0  0  0  0  0
   40.3488   33.8381   45.8266 N   0  0  0  0  0  0  0  0  0  0  0  0
   37.9829   33.5366   50.4183 H   0  0  0  0  0  0  0  0  0  0  0  0
   38.6882   29.6989   45.1149 H   0  0  0  0  0  0  0  0  0  0  0  0
   35.3270   31.1528   48.4864 H   0  0  0  0  0  0  0  0  0  0  0  0
   38.4189   30.5117   51.3163 H   0  0  0  0  0  0  0  0  0  0  0  0
   39.9971   34.1960   44.8952 H   0  0  0  0  0  0  0  0  0  0  0  0
   41.0950   34.0855   46.5246 H   0  0  0  0  0  0  0  0  0  0  0  0
   34.4968   28.3002   52.0402 C   0  0  0  0  0  0  0  0  0  0  0  0
   33.6507   29.0305   53.0359 C   0  0  0  0  0  0  0  0  0  0  0  0
   32.2481   29.0455   52.5007 C   0  0  0  0  0  0  0  0  0  0  0  0
   32.1816   28.1107   51.3244 C   0  0  0  0  0  0  0  0  0  0  0  0
   33.5451   27.4894   51.1671 C   0  0  0  0  0  0  0  0  0  0  0  0
   35.1446   27.5555   52.5479 H   0  0  0  0  0  0  0  0  0  0  0  0
   33.7363   28.6488   54.0738 H   0  0  0  0  0  0  0  0  0  0  0  0
   34.0192   30.0978   53.0471 H   0  0  0  0  0  0  0  0  0  0  0  0
   31.9563   30.0654   52.1186 H   0  0  0  0  0  0  0  0  0  0  0  0
   31.5401   28.7261   53.2907 H   0  0  0  0  0  0  0  0  0  0  0  0
   31.8328   28.5982   50.3838 H   0  0  0  0  0  0  0  0  0  0  0  0
   31.4465   27.2941   51.5422 H   0  0  0  0  0  0  0  0  0  0  0  0
   33.5547   26.4051   51.4203 H   0  0  0  0  0  0  0  0  0  0  0  0
   33.8560   27.6401   50.1129 H   0  0  0  0  0  0  0  0  0  0  0  0
  1  2  1  0
  1 11  1  0
  3  2  2  0
  4  9  2  0
  4  3  1  0
  5  4  1  0
  6  7  1  0
  6  5  2  0
  7  8  2  0
  8  9  1  0
  9  1  1  0
 10 11  2  0
 10 15  1  0
 11 12  1  0
 12 13  2  0
 14 13  1  0
 15 14  2  0
 16  5  1  0
  2 17  1  0
  7 18  1  0
 10 19  1  0
 12 20  1  0
 16 21  1  0
 16 22  1  0
 23 24  1  0
 24 25  1  0
 25 26  1  0
 26 27  1  0
 27 23  1  0
 23 28  1  0
 24 29  1  0
 24 30  1  0
 25 31  1  0
 25 32  1  0
 26 33  1  0
 26 34  1  0
 27 35  1  0
 27 36  1  0
 14 23  1  0
M  ISO  4  17  14  18  14  19  14  20  14
M  END
>  <DihAtoms>  (1) 
12,13,22,23

>  <DihDeg>  (1) 
-55.6204129959563

$$$$
