
     RDKit          3D

 36 39  0  0  0  0  0  0  0  0999 V2000
   37.8030   31.8193   49.0701 N   0  0  0  0  0  0  0  0  0  0  0  0
   38.1988   33.0396   49.4740 C   0  0  0  0  0  0  0  0  0  0  0  0
   38.9455   33.5994   48.4902 N   0  0  0  0  0  0  0  0  0  0  0  0
   39.0013   32.7087   47.4824 C   0  0  0  0  0  0  0  0  0  0  0  0
   39.6050   32.7166   46.2417 C   0  0  0  0  0  0  0  0  0  0  0  0
   39.4981   31.6640   45.4084 N   0  0  0  0  0  0  0  0  0  0  0  0
   38.8005   30.5592   45.7445 C   0  0  0  0  0  0  0  0  0  0  0  0
   38.2175   30.5635   46.9548 N   0  0  0  0  0  0  0  0  0  0  0  0
   38.2914   31.5890   47.8291 C   0  0  0  0  0  0  0  0  0  0  0  0
   35.6906   30.6664   49.4053 C   0  0  0  0  0  0  0  0  0  0  0  0
   37.0058   30.9367   49.8348 C   0  0  0  0  0  0  0  0  0  0  0  0
   37.4090   30.2918   51.0042 C   0  0  0  0  0  0  0  0  0  0  0  0
   36.5410   29.4662   51.6438 N   0  0  0  0  0  0  0  0  0  0  0  0
   35.3017   29.2385   51.2007 C   0  0  0  0  0  0  0  0  0  0  0  0
   34.8630   29.8420   50.0683 N   0  0  0  0  0  0  0  0  0  0  0  0
   40.3488   33.8381   45.8266 N   0  0  0  0  0  0  0  0  0  0  0  0
   37.9829   33.5366   50.4183 H   0  0  0  0  0  0  0  0  0  0  0  0
   38.6882   29.6989   45.1149 H   0  0  0  0  0  0  0  0  0  0  0  0
   35.3270   31.1528   48.4864 H   0  0  0  0  0  0  0  0  0  0  0  0
   38.4189   30.5117   51.3163 H   0  0  0  0  0  0  0  0  0  0  0  0
   39.9971   34.1960   44.8952 H   0  0  0  0  0  0  0  0  0  0  0  0
   41.0950   34.0855   46.5246 H   0  0  0  0  0  0  0  0  0  0  0  0
   34.4968   28.3002   52.0402 C   0  0  0  0  0  0  0  0  0  0  0  0
   33.8512   27.2303   51.2160 C   0  0  0  0  0  0  0  0  0  0  0  0
   34.6651   25.9813   51.3932 C   0  0  0  0  0  0  0  0  0  0  0  0
   35.6407   26.2086   52.5151 C   0  0  0  0  0  0  0  0  0  0  0  0
   35.3910   27.5934   53.0533 C   0  0  0  0  0  0  0  0  0  0  0  0
   33.7378   28.8446   52.6398 H   0  0  0  0  0  0  0  0  0  0  0  0
   32.7672   27.0971   51.4103 H   0  0  0  0  0  0  0  0  0  0  0  0
   33.9546   27.5506   50.1382 H   0  0  0  0  0  0  0  0  0  0  0  0
   35.2775   25.7467   50.4761 H   0  0  0  0  0  0  0  0  0  0  0  0
   33.9987   25.1273   51.6256 H   0  0  0  0  0  0  0  0  0  0  0  0
   36.7059   26.0602   52.2195 H   0  0  0  0  0  0  0  0  0  0  0  0
   35.4401   25.4718   53.3344 H   0  0  0  0  0  0  0  0  0  0  0  0
   34.9505   27.5837   54.0759 H   0  0  0  0  0  0  0  0  0  0  0  0
   36.3649   28.1246   53.0601 H   0  0  0  0  0  0  0  0  0  0  0  0
  1  2  1  0
  1 11  1  0
  3  2  2  0
  4  9  2  0
  4  3  1  0
  5  4  1  0
  6  7  1  0
  6  5  2  0
  7  8  2  0
  8  9  1  0
  9  1  1  0
 10 11  2  0
 10 15  1  0
 11 12  1  0
 12 13  2  0
 14 13  1  0
 15 14  2  0
 16  5  1  0
  2 17  1  0
  7 18  1  0
 10 19  1  0
 12 20  1  0
 16 21  1  0
 16 22  1  0
 23 24  1  0
 24 25  1  0
 25 26  1  0
 26 27  1  0
 27 23  1  0
 23 28  1  0
 24 29  1  0
 24 30  1  0
 25 31  1  0
 25 32  1  0
 26 33  1  0
 26 34  1  0
 27 35  1  0
 27 36  1  0
 14 23  1  0
M  ISO  4  17  14  18  14  19  14  20  14
M  END
>  <DihAtoms>  (1) 
12,13,22,23

>  <DihDeg>  (1) 
-55.6204129959563

$$$$
