
     RDKit          3D

 27 28  0  0  0  0  0  0  0  0999 V2000
   37.5380   30.3020   49.1510 C   0  0  0  0  0  0  0  0  0  0  0  0
   37.8470   31.3970   50.0080 C   0  0  0  0  0  0  0  0  0  0  0  0
   38.5310   32.4790   49.4740 C   0  0  0  0  0  0  0  0  0  0  0  0
   38.8830   32.4610   48.1590 N   0  0  0  0  0  0  0  0  0  0  0  0
   38.5640   31.3960   47.3900 C   0  0  0  0  0  0  0  0  0  0  0  0
   37.9130   30.3440   47.8610 N   0  0  0  0  0  0  0  0  0  0  0  0
   38.9500   31.3800   45.9530 C   0  0  0  0  0  0  0  0  0  0  0  0
   40.4670   31.2000   45.8110 C   0  0  0  0  0  0  0  0  0  0  0  0
   40.6040   31.6350   44.3460 C   0  0  0  0  0  0  0  0  0  0  0  0
   39.8970   32.9920   44.4380 C   0  0  0  0  0  0  0  0  0  0  0  0
   38.6300   32.6400   45.2230 C   0  0  0  0  0  0  0  0  0  0  0  0
   36.8670   29.2460   49.6850 O   0  0  0  0  0  0  0  0  0  0  0  0
   35.5690   29.2960   50.2170 C   0  0  0  0  0  0  0  0  0  0  0  0
   35.5380   29.2610   51.5950 F   0  0  0  0  0  0  0  0  0  0  0  0
   34.8160   30.3450   49.7420 F   0  0  0  0  0  0  0  0  0  0  0  0
   34.9300   28.1370   49.7720 F   0  0  0  0  0  0  0  0  0  0  0  0
   37.5505   31.3848   51.0672 H   0  0  0  0  0  0  0  0  0  0  0  0
   38.7863   33.3423   50.1061 H   0  0  0  0  0  0  0  0  0  0  0  0
   38.3714   30.5498   45.5219 H   0  0  0  0  0  0  0  0  0  0  0  0
   41.0289   31.8548   46.4933 H   0  0  0  0  0  0  0  0  0  0  0  0
   40.8570   30.2005   46.0538 H   0  0  0  0  0  0  0  0  0  0  0  0
   40.0889   30.9461   43.6603 H   0  0  0  0  0  0  0  0  0  0  0  0
   41.6305   31.6597   43.9515 H   0  0  0  0  0  0  0  0  0  0  0  0
   40.5112   33.7265   44.9795 H   0  0  0  0  0  0  0  0  0  0  0  0
   39.6980   33.4550   43.4602 H   0  0  0  0  0  0  0  0  0  0  0  0
   38.3821   33.4430   45.9328 H   0  0  0  0  0  0  0  0  0  0  0  0
   37.7605   32.5178   44.5604 H   0  0  0  0  0  0  0  0  0  0  0  0
  1 12  1  0
  1  2  2  0
  3  2  1  0
  4  3  2  0
  5  6  2  0
  5  4  1  0
  6  1  1  0
  7  5  1  0
  8  7  1  0
  9 10  1  0
  9  8  1  0
 10 11  1  0
 11  7  1  0
 12 13  1  0
 13 14  1  0
 15 13  1  0
 16 13  1  0
  2 17  1  0
  3 18  1  0
  7 19  1  0
  8 20  1  0
  8 21  1  0
  9 22  1  0
  9 23  1  0
 10 24  1  0
 10 25  1  0
 11 26  1  0
 11 27  1  0
M  ISO  8  17  14  18  14  19  13  20  13  21  13  22  13  23  13  24  13
M  ISO  3  25  13  26  13  27  13
M  END
>  <minimizedAffinity>  (1) 
-5.96580315

>  <minimizedRMSD>  (1) 
1.35023844

$$$$
