
     RDKit          3D

 36 39  0  0  0  0  0  0  0  0999 V2000
   37.8030   31.8193   49.0701 N   0  0  0  0  0  0  0  0  0  0  0  0
   38.1988   33.0396   49.4740 C   0  0  0  0  0  0  0  0  0  0  0  0
   38.9455   33.5994   48.4902 N   0  0  0  0  0  0  0  0  0  0  0  0
   39.0013   32.7087   47.4824 C   0  0  0  0  0  0  0  0  0  0  0  0
   39.6050   32.7166   46.2417 C   0  0  0  0  0  0  0  0  0  0  0  0
   39.4981   31.6640   45.4084 N   0  0  0  0  0  0  0  0  0  0  0  0
   38.8005   30.5592   45.7445 C   0  0  0  0  0  0  0  0  0  0  0  0
   38.2175   30.5635   46.9548 N   0  0  0  0  0  0  0  0  0  0  0  0
   38.2914   31.5890   47.8291 C   0  0  0  0  0  0  0  0  0  0  0  0
   35.6906   30.6664   49.4053 C   0  0  0  0  0  0  0  0  0  0  0  0
   37.0058   30.9367   49.8348 C   0  0  0  0  0  0  0  0  0  0  0  0
   37.4090   30.2918   51.0042 C   0  0  0  0  0  0  0  0  0  0  0  0
   36.5410   29.4662   51.6438 N   0  0  0  0  0  0  0  0  0  0  0  0
   35.3017   29.2385   51.2007 C   0  0  0  0  0  0  0  0  0  0  0  0
   34.8630   29.8420   50.0683 N   0  0  0  0  0  0  0  0  0  0  0  0
   40.3488   33.8381   45.8266 N   0  0  0  0  0  0  0  0  0  0  0  0
   37.9829   33.5366   50.4183 H   0  0  0  0  0  0  0  0  0  0  0  0
   38.6882   29.6989   45.1149 H   0  0  0  0  0  0  0  0  0  0  0  0
   35.3270   31.1528   48.4864 H   0  0  0  0  0  0  0  0  0  0  0  0
   38.4189   30.5117   51.3163 H   0  0  0  0  0  0  0  0  0  0  0  0
   39.9971   34.1960   44.8952 H   0  0  0  0  0  0  0  0  0  0  0  0
   41.0950   34.0855   46.5246 H   0  0  0  0  0  0  0  0  0  0  0  0
   34.4968   28.3002   52.0402 C   0  0  0  0  0  0  0  0  0  0  0  0
   35.1879   26.9851   52.2236 C   0  0  0  0  0  0  0  0  0  0  0  0
   35.7911   26.9883   53.5984 C   0  0  0  0  0  0  0  0  0  0  0  0
   35.2551   28.1779   54.3464 C   0  0  0  0  0  0  0  0  0  0  0  0
   34.2853   28.8823   53.4337 C   0  0  0  0  0  0  0  0  0  0  0  0
   33.4800   28.1533   51.6200 H   0  0  0  0  0  0  0  0  0  0  0  0
   34.5517   26.1021   52.0092 H   0  0  0  0  0  0  0  0  0  0  0  0
   36.0388   26.9647   51.4816 H   0  0  0  0  0  0  0  0  0  0  0  0
   36.9118   27.1075   53.5639 H   0  0  0  0  0  0  0  0  0  0  0  0
   35.5316   26.0492   54.1257 H   0  0  0  0  0  0  0  0  0  0  0  0
   36.0488   28.8646   54.7239 H   0  0  0  0  0  0  0  0  0  0  0  0
   34.6945   27.8248   55.2495 H   0  0  0  0  0  0  0  0  0  0  0  0
   33.2298   28.7922   53.7769 H   0  0  0  0  0  0  0  0  0  0  0  0
   34.5861   29.9494   53.3941 H   0  0  0  0  0  0  0  0  0  0  0  0
  1  2  1  0
  1 11  1  0
  3  2  2  0
  4  9  2  0
  4  3  1  0
  5  4  1  0
  6  7  1  0
  6  5  2  0
  7  8  2  0
  8  9  1  0
  9  1  1  0
 10 11  2  0
 10 15  1  0
 11 12  1  0
 12 13  2  0
 14 13  1  0
 15 14  2  0
 16  5  1  0
  2 17  1  0
  7 18  1  0
 10 19  1  0
 12 20  1  0
 16 21  1  0
 16 22  1  0
 23 24  1  0
 24 25  1  0
 25 26  1  0
 26 27  1  0
 27 23  1  0
 23 28  1  0
 24 29  1  0
 24 30  1  0
 25 31  1  0
 25 32  1  0
 26 33  1  0
 26 34  1  0
 27 35  1  0
 27 36  1  0
 14 23  1  0
M  ISO  4  17  14  18  14  19  14  20  14
M  END
>  <DihAtoms>  (1) 
12,13,22,23

>  <DihDeg>  (1) 
-55.6204129959563

$$$$
