
     RDKit          3D

 34 37  0  0  0  0  0  0  0  0999 V2000
   32.3590   29.9540   46.1530 C   0  0  0  0  0  0  0  0  0  0  0  0
   32.0870   28.5700   46.1820 C   0  0  0  0  0  0  0  0  0  0  0  0
   33.0260   27.7120   46.7650 C   0  0  0  0  0  0  0  0  0  0  0  0
   34.1470   28.2920   47.2670 N   0  0  0  0  0  0  0  0  0  0  0  0
   34.3910   29.6080   47.2330 C   0  0  0  0  0  0  0  0  0  0  0  0
   33.5110   30.4490   46.6820 N   0  0  0  0  0  0  0  0  0  0  0  0
   35.6380   30.0630   47.8160 C   0  0  0  0  0  0  0  0  0  0  0  0
   36.6470   30.6910   47.0950 C   0  0  0  0  0  0  0  0  0  0  0  0
   37.6860   31.0030   47.8980 N   0  0  0  0  0  0  0  0  0  0  0  0
   37.3720   30.5880   49.1340 C   0  0  0  0  0  0  0  0  0  0  0  0
   38.0690   30.6530   50.3370 C   0  0  0  0  0  0  0  0  0  0  0  0
   37.4750   30.1260   51.4800 C   0  0  0  0  0  0  0  0  0  0  0  0
   36.2160   29.5520   51.4100 C   0  0  0  0  0  0  0  0  0  0  0  0
   35.4920   29.4710   50.2240 C   0  0  0  0  0  0  0  0  0  0  0  0
   36.1090   30.0030   49.1050 C   0  0  0  0  0  0  0  0  0  0  0  0
   32.8390   26.2720   46.8440 C   0  0  0  0  0  0  0  0  0  0  0  0
   33.7900   25.4060   47.3340 C   0  0  0  0  0  0  0  0  0  0  0  0
   33.5310   24.0520   47.3720 C   0  0  0  0  0  0  0  0  0  0  0  0
   32.3410   23.5210   46.9360 C   0  0  0  0  0  0  0  0  0  0  0  0
   31.3810   24.3820   46.4420 C   0  0  0  0  0  0  0  0  0  0  0  0
   31.6490   25.7330   46.4070 C   0  0  0  0  0  0  0  0  0  0  0  0
   31.6311   30.6413   45.6973 H   0  0  0  0  0  0  0  0  0  0  0  0
   31.1545   28.1730   45.7544 H   0  0  0  0  0  0  0  0  0  0  0  0
   36.6045   30.9046   46.0168 H   0  0  0  0  0  0  0  0  0  0  0  0
   38.5578   31.4725   47.6143 H   0  0  0  0  0  0  0  0  0  0  0  0
   39.0680   31.1111   50.3834 H   0  0  0  0  0  0  0  0  0  0  0  0
   38.0069   30.1653   52.4421 H   0  0  0  0  0  0  0  0  0  0  0  0
   35.7704   29.1437   52.3291 H   0  0  0  0  0  0  0  0  0  0  0  0
   34.4928   29.0132   50.1788 H   0  0  0  0  0  0  0  0  0  0  0  0
   34.7545   25.7930   47.6945 H   0  0  0  0  0  0  0  0  0  0  0  0
   34.3032   23.3741   47.7646 H   0  0  0  0  0  0  0  0  0  0  0  0
   32.1577   22.4373   46.9794 H   0  0  0  0  0  0  0  0  0  0  0  0
   30.4165   23.9949   46.0817 H   0  0  0  0  0  0  0  0  0  0  0  0
   30.8783   26.4115   46.0125 H   0  0  0  0  0  0  0  0  0  0  0  0
  1  2  2  0
  1  6  1  0
  2  3  1  0
  3 16  1  0
  3  4  2  0
  5  4  1  0
  5  7  1  0
  6  5  2  0
  7 15  1  0
  8  7  2  0
  8  9  1  0
  9 10  1  0
 10 11  2  0
 11 12  1  0
 13 12  2  0
 14 13  1  0
 15 10  1  0
 15 14  2  0
 16 17  2  0
 17 18  1  0
 19 18  2  0
 20 19  1  0
 21 20  2  0
 21 16  1  0
  1 22  1  0
  2 23  1  0
  8 24  1  0
  9 25  1  0
 11 26  1  0
 12 27  1  0
 13 28  1  0
 14 29  1  0
 17 30  1  0
 18 31  1  0
 19 32  1  0
 20 33  1  0
 21 34  1  0
M  ISO  8  22  14  23  14  24  14  25   9  26  14  27  14  28  14  29  14
M  ISO  5  30  14  31  14  32  14  33  14  34  14
M  END
>  <minimizedAffinity>  (1) 
-5.89364767

>  <minimizedRMSD>  (1) 
0.173809141

$$$$
