
     RDKit          3D

 33 36  0  0  0  0  0  0  0  0999 V2000
   37.8053   31.8075   49.0603 N   0  0  0  0  0  0  0  0  0  0  0  0
   38.1997   33.0298   49.4691 C   0  0  0  0  0  0  0  0  0  0  0  0
   38.9500   33.5993   48.4834 N   0  0  0  0  0  0  0  0  0  0  0  0
   39.0039   32.7179   47.4867 C   0  0  0  0  0  0  0  0  0  0  0  0
   39.6044   32.7238   46.2461 C   0  0  0  0  0  0  0  0  0  0  0  0
   39.4999   31.6704   45.4053 N   0  0  0  0  0  0  0  0  0  0  0  0
   38.7982   30.5613   45.7480 C   0  0  0  0  0  0  0  0  0  0  0  0
   38.2207   30.5710   46.9566 N   0  0  0  0  0  0  0  0  0  0  0  0
   38.2898   31.5793   47.8256 C   0  0  0  0  0  0  0  0  0  0  0  0
   35.6874   30.6623   49.3969 C   0  0  0  0  0  0  0  0  0  0  0  0
   37.0050   30.9265   49.8369 C   0  0  0  0  0  0  0  0  0  0  0  0
   37.4096   30.2930   51.0074 C   0  0  0  0  0  0  0  0  0  0  0  0
   36.5315   29.4691   51.6528 N   0  0  0  0  0  0  0  0  0  0  0  0
   35.2922   29.2457   51.2026 C   0  0  0  0  0  0  0  0  0  0  0  0
   34.8737   29.8404   50.0796 N   0  0  0  0  0  0  0  0  0  0  0  0
   40.3497   33.8419   45.8218 N   0  0  0  0  0  0  0  0  0  0  0  0
   38.0159   33.5677   50.3906 H   0  0  0  0  0  0  0  0  0  0  0  0
   38.6814   29.7016   45.1274 H   0  0  0  0  0  0  0  0  0  0  0  0
   35.3568   31.1556   48.4758 H   0  0  0  0  0  0  0  0  0  0  0  0
   38.4153   30.4966   51.3404 H   0  0  0  0  0  0  0  0  0  0  0  0
   39.8966   34.7308   45.4806 H   0  0  0  0  0  0  0  0  0  0  0  0
   41.3966   33.9255   45.7937 H   0  0  0  0  0  0  0  0  0  0  0  0
   34.3988   28.3536   51.9371 C   0  0  0  0  0  0  0  0  0  0  0  0
   33.8132   28.7848   53.1158 C   0  0  0  0  0  0  0  0  0  0  0  0
   34.0562   29.7862   53.4366 H   0  0  0  0  0  0  0  0  0  0  0  0
   32.9749   27.8843   53.7617 C   0  0  0  0  0  0  0  0  0  0  0  0
   32.7293   26.6374   53.2766 C   0  0  0  0  0  0  0  0  0  0  0  0
   32.0676   25.9518   53.8038 H   0  0  0  0  0  0  0  0  0  0  0  0
   33.3164   26.1933   52.0868 C   0  0  0  0  0  0  0  0  0  0  0  0
   33.0819   25.1932   51.7543 H   0  0  0  0  0  0  0  0  0  0  0  0
   34.1393   27.0861   51.4587 C   0  0  0  0  0  0  0  0  0  0  0  0
   32.5335   28.2537   54.6805 H   0  0  0  0  0  0  0  0  0  0  0  0
   34.5840   26.7156   50.5342 H   0  0  0  0  0  0  0  0  0  0  0  0
  1  2  1  0
  1 11  1  0
  3  2  2  0
  4  9  2  0
  4  3  1  0
  5  4  1  0
  6  7  1  0
  6  5  2  0
  7  8  2  0
  8  9  1  0
  9  1  1  0
 10 11  2  0
 10 15  1  0
 11 12  1  0
 12 13  2  0
 14 13  1  0
 15 14  2  0
 16  5  1  0
  2 17  1  0
  7 18  1  0
 10 19  1  0
 12 20  1  0
 16 21  1  0
 16 22  1  0
 23 24  2  0
 24 25  1  0
 24 26  1  0
 26 27  2  0
 27 28  1  0
 27 29  1  0
 29 30  1  0
 29 31  2  0
 31 23  1  0
 26 32  1  0
 31 33  1  0
 14 23  1  0
M  ISO  7  17  14  18  14  19  14  20  14  25  16  28  16  30  16
M  END
>  <DihAtoms>  (1) 
12,13,22,23

>  <DihDeg>  (1) 
179.9968502210563

$$$$
