
     RDKit          3D

 33 36  0  0  0  0  0  0  0  0999 V2000
   37.8053   31.8075   49.0603 N   0  0  0  0  0  0  0  0  0  0  0  0
   38.1997   33.0298   49.4691 C   0  0  0  0  0  0  0  0  0  0  0  0
   38.9500   33.5993   48.4834 N   0  0  0  0  0  0  0  0  0  0  0  0
   39.0039   32.7179   47.4867 C   0  0  0  0  0  0  0  0  0  0  0  0
   39.6044   32.7238   46.2461 C   0  0  0  0  0  0  0  0  0  0  0  0
   39.4999   31.6704   45.4053 N   0  0  0  0  0  0  0  0  0  0  0  0
   38.7982   30.5613   45.7480 C   0  0  0  0  0  0  0  0  0  0  0  0
   38.2207   30.5710   46.9566 N   0  0  0  0  0  0  0  0  0  0  0  0
   38.2898   31.5793   47.8256 C   0  0  0  0  0  0  0  0  0  0  0  0
   35.6874   30.6623   49.3969 C   0  0  0  0  0  0  0  0  0  0  0  0
   37.0050   30.9265   49.8369 C   0  0  0  0  0  0  0  0  0  0  0  0
   37.4096   30.2930   51.0074 C   0  0  0  0  0  0  0  0  0  0  0  0
   36.5315   29.4691   51.6528 N   0  0  0  0  0  0  0  0  0  0  0  0
   35.2922   29.2457   51.2026 C   0  0  0  0  0  0  0  0  0  0  0  0
   34.8737   29.8404   50.0796 N   0  0  0  0  0  0  0  0  0  0  0  0
   40.3497   33.8419   45.8218 N   0  0  0  0  0  0  0  0  0  0  0  0
   38.0159   33.5677   50.3906 H   0  0  0  0  0  0  0  0  0  0  0  0
   38.6814   29.7016   45.1274 H   0  0  0  0  0  0  0  0  0  0  0  0
   35.3568   31.1556   48.4758 H   0  0  0  0  0  0  0  0  0  0  0  0
   38.4153   30.4966   51.3404 H   0  0  0  0  0  0  0  0  0  0  0  0
   39.8966   34.7308   45.4806 H   0  0  0  0  0  0  0  0  0  0  0  0
   41.3966   33.9255   45.7937 H   0  0  0  0  0  0  0  0  0  0  0  0
   34.3988   28.3536   51.9371 C   0  0  0  0  0  0  0  0  0  0  0  0
   33.0308   28.5660   51.8982 C   0  0  0  0  0  0  0  0  0  0  0  0
   32.6894   29.4038   51.3097 H   0  0  0  0  0  0  0  0  0  0  0  0
   32.2412   27.6792   52.6200 C   0  0  0  0  0  0  0  0  0  0  0  0
   32.7666   26.6482   53.3351 C   0  0  0  0  0  0  0  0  0  0  0  0
   32.1239   25.9681   53.8919 H   0  0  0  0  0  0  0  0  0  0  0  0
   34.1473   26.4261   53.3801 C   0  0  0  0  0  0  0  0  0  0  0  0
   34.5023   25.5911   53.9654 H   0  0  0  0  0  0  0  0  0  0  0  0
   34.9157   27.3035   52.6671 C   0  0  0  0  0  0  0  0  0  0  0  0
   31.1758   27.8740   52.5679 H   0  0  0  0  0  0  0  0  0  0  0  0
   35.9876   27.1085   52.7187 H   0  0  0  0  0  0  0  0  0  0  0  0
  1  2  1  0
  1 11  1  0
  3  2  2  0
  4  9  2  0
  4  3  1  0
  5  4  1  0
  6  7  1  0
  6  5  2  0
  7  8  2  0
  8  9  1  0
  9  1  1  0
 10 11  2  0
 10 15  1  0
 11 12  1  0
 12 13  2  0
 14 13  1  0
 15 14  2  0
 16  5  1  0
  2 17  1  0
  7 18  1  0
 10 19  1  0
 12 20  1  0
 16 21  1  0
 16 22  1  0
 23 24  2  0
 24 25  1  0
 24 26  1  0
 26 27  2  0
 27 28  1  0
 27 29  1  0
 29 30  1  0
 29 31  2  0
 31 23  1  0
 26 32  1  0
 31 33  1  0
 14 23  1  0
M  ISO  7  17  14  18  14  19  14  20  14  25  16  28  16  30  16
M  END
>  <DihAtoms>  (1) 
12,13,22,23

>  <DihDeg>  (1) 
179.9968502210563

$$$$
