
     RDKit          3D

 45 47  0  0  1  0  0  0  0  0999 V2000
   35.8450   30.2850   45.2390 C   0  0  0  0  0  0  0  0  0  0  0  0
   34.8300   30.0630   45.9150 O   0  0  0  0  0  0  0  0  0  0  0  0
   35.6780   30.1290   43.8370 N   0  0  0  0  0  0  0  0  0  0  0  0
   36.2530   31.1950   43.0190 C   0  0  0  0  0  0  0  0  0  0  0  0
   35.7100   31.1640   41.6170 C   0  0  0  0  0  0  0  0  0  0  0  0
   34.3640   30.7620   41.7090 O   0  0  0  0  0  0  0  0  0  0  0  0
   34.4250   29.3740   41.8770 C   0  0  0  0  0  0  0  0  0  0  0  0
   34.9960   28.9960   43.2400 C   0  0  2  0  0  0  0  0  0  0  0  0
   38.3270   31.2380   47.9230 C   0  0  0  0  0  0  0  0  0  0  0  0
   37.0930   30.8550   47.2990 C   0  0  0  0  0  0  0  0  0  0  0  0
   37.0750   30.6760   45.9250 C   0  0  0  0  0  0  0  0  0  0  0  0
   38.2460   30.8770   45.2570 N   0  0  0  0  0  0  0  0  0  0  0  0
   39.3810   31.2330   45.8640 C   0  0  0  0  0  0  0  0  0  0  0  0
   39.4160   31.4090   47.1710 N   0  0  0  0  0  0  0  0  0  0  0  0
   40.5540   31.4090   44.9790 C   0  0  0  0  0  0  0  0  0  0  0  0
   40.4000   30.6500   43.8220 F   0  0  0  0  0  0  0  0  0  0  0  0
   40.6180   32.7200   44.5600 F   0  0  0  0  0  0  0  0  0  0  0  0
   41.7540   31.1400   45.6170 F   0  0  0  0  0  0  0  0  0  0  0  0
   38.3150   31.4100   49.2960 O   0  0  0  0  0  0  0  0  0  0  0  0
   37.5970   30.6390   50.1910 C   0  0  0  0  0  0  0  0  0  0  0  0
   36.3190   31.1170   50.4580 F   0  0  0  0  0  0  0  0  0  0  0  0
   37.5500   29.3050   49.8740 F   0  0  0  0  0  0  0  0  0  0  0  0
   38.3200   30.7250   51.4020 F   0  0  0  0  0  0  0  0  0  0  0  0
   32.0290   27.1550   45.7870 C   0  0  0  0  0  0  0  0  0  0  0  0
   31.7230   28.3130   45.1050 C   0  0  0  0  0  0  0  0  0  0  0  0
   32.6440   28.9240   44.2840 C   0  0  0  0  0  0  0  0  0  0  0  0
   33.9150   28.4270   44.0900 C   0  0  0  0  0  0  0  0  0  0  0  0
   34.1460   27.2550   44.8150 C   0  0  0  0  0  0  0  0  0  0  0  0
   33.2770   26.5940   45.6490 C   0  0  0  0  0  0  0  0  0  0  0  0
   30.8740   26.3750   46.8280 S   0  0  0  0  0  0  0  0  0  0  0  0
   30.4060   25.0590   46.2740 O   0  0  0  0  0  0  0  0  0  0  0  0
   31.4380   26.1160   48.1890 O   0  0  0  0  0  0  0  0  0  0  0  0
   36.0111   32.1663   43.4752 H   0  0  0  0  0  0  0  0  0  0  0  0
   37.3419   31.0464   42.9720 H   0  0  0  0  0  0  0  0  0  0  0  0
   36.2783   30.4465   41.0069 H   0  0  0  0  0  0  0  0  0  0  0  0
   35.7944   32.1516   41.1400 H   0  0  0  0  0  0  0  0  0  0  0  0
   33.4102   28.9591   41.7880 H   0  0  0  0  0  0  0  0  0  0  0  0
   35.0879   28.9632   41.1012 H   0  0  0  0  0  0  0  0  0  0  0  0
   35.7605   28.2125   43.1321 H   0  0  0  0  0  0  0  0  0  0  0  0
   36.1821   30.7069   47.8976 H   0  0  0  0  0  0  0  0  0  0  0  0
   30.7234   28.7577   45.2189 H   0  0  0  0  0  0  0  0  0  0  0  0
   32.3535   29.8472   43.7611 H   0  0  0  0  0  0  0  0  0  0  0  0
   35.1447   26.8073   44.7046 H   0  0  0  0  0  0  0  0  0  0  0  0
   33.5625   25.6711   46.1750 H   0  0  0  0  0  0  0  0  0  0  0  0
   29.8182   27.2441   46.9109 H   0  0  0  0  0  0  0  0  0  0  0  0
  1  2  2  0
  1 11  1  0
  3  1  1  0
  4  3  1  0
  5  6  1  0
  5  4  1  0
  6  7  1  0
  7  8  1  0
  8  3  1  0
  8 27  1  0
  9 19  1  0
 10  9  2  0
 11 10  1  0
 12 13  1  0
 12 11  2  0
 13 14  2  0
 14  9  1  0
 15 18  1  0
 15 13  1  0
 16 15  1  0
 17 15  1  0
 19 20  1  0
 20 21  1  0
 20 23  1  0
 22 20  1  0
 24 30  1  0
 25 24  2  0
 26 25  1  0
 27 26  2  0
 27 28  1  0
 28 29  2  0
 29 24  1  0
 30 32  2  0
 31 30  2  0
  4 33  1  0
  4 34  1  0
  5 35  1  0
  5 36  1  0
  7 37  1  0
  7 38  1  0
  8 39  1  6
 10 40  1  0
 25 41  1  0
 26 42  1  0
 28 43  1  0
 29 44  1  0
 30 45  1  0
M  ISO  8  33  13  34  13  35  13  36  13  37  13  38  13  39  13  40  14
M  ISO  5  41  14  42  14  43  14  44  14  45  11
M  END
>  <minimizedAffinity>  (1) 
-5.72046375

>  <minimizedRMSD>  (1) 
7.75160933

$$$$
