
     RDKit          3D

 36 39  0  0  0  0  0  0  0  0999 V2000
   37.7995   31.8076   49.0592 N   0  0  0  0  0  0  0  0  0  0  0  0
   38.1996   33.0359   49.4718 C   0  0  0  0  0  0  0  0  0  0  0  0
   38.9502   33.5989   48.4896 N   0  0  0  0  0  0  0  0  0  0  0  0
   39.0030   32.7076   47.4812 C   0  0  0  0  0  0  0  0  0  0  0  0
   39.6114   32.7257   46.2427 C   0  0  0  0  0  0  0  0  0  0  0  0
   39.4976   31.6635   45.4061 N   0  0  0  0  0  0  0  0  0  0  0  0
   38.7931   30.5606   45.7486 C   0  0  0  0  0  0  0  0  0  0  0  0
   38.2104   30.5661   46.9579 N   0  0  0  0  0  0  0  0  0  0  0  0
   38.2859   31.5780   47.8228 C   0  0  0  0  0  0  0  0  0  0  0  0
   35.6887   30.6591   49.3974 C   0  0  0  0  0  0  0  0  0  0  0  0
   36.9968   30.9282   49.8300 C   0  0  0  0  0  0  0  0  0  0  0  0
   37.4152   30.3002   51.0043 C   0  0  0  0  0  0  0  0  0  0  0  0
   36.5411   29.4757   51.6505 N   0  0  0  0  0  0  0  0  0  0  0  0
   35.2972   29.2450   51.2026 C   0  0  0  0  0  0  0  0  0  0  0  0
   34.8752   29.8381   50.0765 N   0  0  0  0  0  0  0  0  0  0  0  0
   40.3561   33.8488   45.8377 N   0  0  0  0  0  0  0  0  0  0  0  0
   37.9860   33.5296   50.4114 H   0  0  0  0  0  0  0  0  0  0  0  0
   38.7400   29.7470   45.0373 H   0  0  0  0  0  0  0  0  0  0  0  0
   35.2750   31.1054   48.4896 H   0  0  0  0  0  0  0  0  0  0  0  0
   38.4166   30.5105   51.3293 H   0  0  0  0  0  0  0  0  0  0  0  0
   40.0628   34.8218   45.5866 H   0  0  0  0  0  0  0  0  0  0  0  0
   41.3847   33.9618   45.6956 H   0  0  0  0  0  0  0  0  0  0  0  0
   32.3916   24.4648   54.6787 H   0  0  0  0  0  0  0  0  0  0  0  0
   31.7010   25.5336   54.1909 S   0  0  0  0  0  0  0  0  0  0  0  0
   30.6712   25.0640   53.1792 O   0  0  0  0  0  0  0  0  0  0  0  0
   31.0289   26.2654   55.3092 O   0  0  0  0  0  0  0  0  0  0  0  0
   32.7580   26.6284   53.3113 C   0  0  0  0  0  0  0  0  0  0  0  0
   32.4023   27.9453   53.1133 C   0  0  0  0  0  0  0  0  0  0  0  0
   33.2071   28.8327   52.4279 C   0  0  0  0  0  0  0  0  0  0  0  0
   34.4047   28.3524   51.9359 C   0  0  0  0  0  0  0  0  0  0  0  0
   34.7612   27.0229   52.1372 C   0  0  0  0  0  0  0  0  0  0  0  0
   33.9611   26.1346   52.8203 C   0  0  0  0  0  0  0  0  0  0  0  0
   31.4512   28.3218   53.5055 H   0  0  0  0  0  0  0  0  0  0  0  0
   32.9370   29.8673   52.2674 H   0  0  0  0  0  0  0  0  0  0  0  0
   35.7000   26.6475   51.7512 H   0  0  0  0  0  0  0  0  0  0  0  0
   34.2404   25.1025   52.9753 H   0  0  0  0  0  0  0  0  0  0  0  0
  1  2  1  0
  1 11  1  0
  3  2  2  0
  4  9  2  0
  4  3  1  0
  5  4  1  0
  6  7  1  0
  6  5  2  0
  7  8  2  0
  8  9  1  0
  9  1  1  0
 10 11  2  0
 10 15  1  0
 11 12  1  0
 12 13  2  0
 14 13  1  0
 15 14  2  0
 16  5  1  0
  2 17  1  0
  7 18  1  0
 10 19  1  0
 12 20  1  0
 16 21  1  0
 16 22  1  0
 23 24  1  0
 24 25  2  0
 24 26  2  0
 24 27  1  0
 27 28  2  0
 28 29  1  0
 29 30  2  0
 30 31  1  0
 31 32  2  0
 32 27  1  0
 28 33  1  0
 29 34  1  0
 31 35  1  0
 32 36  1  0
 14 30  1  0
M  ISO  5  17  14  18  14  19  14  20  14  23  12
M  END
>  <DihAtoms>  (1) 
12,13,29,28

>  <DihDeg>  (1) 
-0.0005705011602812115

$$$$
