
     RDKit          3D

 26 27  0  0  0  0  0  0  0  0999 V2000
   35.3080   29.1710   50.4180 C   0  0  0  0  0  0  0  0  0  0  0  0
   36.1040   30.1440   49.8100 C   0  0  0  0  0  0  0  0  0  0  0  0
   35.7910   30.4830   48.4820 C   0  0  0  0  0  0  0  0  0  0  0  0
   34.7440   29.8560   47.8640 N   0  0  0  0  0  0  0  0  0  0  0  0
   34.0080   28.9220   48.5030 C   0  0  0  0  0  0  0  0  0  0  0  0
   34.3040   28.5940   49.7730 N   0  0  0  0  0  0  0  0  0  0  0  0
   30.7070   26.9030   46.6870 C   0  0  0  0  0  0  0  0  0  0  0  0
   31.6710   27.5120   45.9280 C   0  0  0  0  0  0  0  0  0  0  0  0
   32.7430   28.1680   46.4980 C   0  0  0  0  0  0  0  0  0  0  0  0
   32.8850   28.2350   47.8740 C   0  0  0  0  0  0  0  0  0  0  0  0
   31.8890   27.6060   48.6220 C   0  0  0  0  0  0  0  0  0  0  0  0
   30.8290   26.9580   48.0590 C   0  0  0  0  0  0  0  0  0  0  0  0
   29.3070   26.0440   46.0850 S   0  0  0  0  0  0  0  0  0  0  0  0
   29.6070   24.5710   45.9120 O   0  0  0  0  0  0  0  0  0  0  0  0
   28.1650   26.1230   47.0840 O   0  0  0  0  0  0  0  0  0  0  0  0
   37.2470   30.8310   50.4740 C   0  0  0  0  0  0  0  0  0  0  0  0
   38.4620   30.5370   49.9730 F   0  0  0  0  0  0  0  0  0  0  0  0
   37.2700   30.5420   51.8240 F   0  0  0  0  0  0  0  0  0  0  0  0
   37.0820   32.2150   50.3390 F   0  0  0  0  0  0  0  0  0  0  0  0
   35.5191   28.8765   51.4566 H   0  0  0  0  0  0  0  0  0  0  0  0
   36.3802   31.2423   47.9470 H   0  0  0  0  0  0  0  0  0  0  0  0
   31.5882   27.4771   44.8317 H   0  0  0  0  0  0  0  0  0  0  0  0
   33.4946   28.6439   45.8510 H   0  0  0  0  0  0  0  0  0  0  0  0
   31.9623   27.6341   49.7192 H   0  0  0  0  0  0  0  0  0  0  0  0
   30.0726   26.4800   48.6988 H   0  0  0  0  0  0  0  0  0  0  0  0
   28.9743   26.6240   44.8893 H   0  0  0  0  0  0  0  0  0  0  0  0
  2  1  2  0
  2 16  1  0
  3  2  1  0
  4  3  2  0
  4  5  1  0
  5  6  2  0
  6  1  1  0
  7 12  2  0
  8  9  2  0
  8  7  1  0
  9 10  1  0
 10  5  1  0
 10 11  2  0
 12 11  1  0
 13  7  1  0
 13 15  2  0
 14 13  2  0
 16 18  1  0
 17 16  1  0
 19 16  1  0
  1 20  1  0
  3 21  1  0
  8 22  1  0
  9 23  1  0
 11 24  1  0
 12 25  1  0
 13 26  1  0
M  ISO  7  20  14  21  14  22  14  23  14  24  14  25  14  26  11
M  END
>  <minimizedAffinity>  (1) 
-5.26794291

>  <minimizedRMSD>  (1) 
0.970042884

$$$$
