
     RDKit          3D

 27 28  0  0  0  0  0  0  0  0999 V2000
   37.3250   30.4810   49.4330 C   0  0  0  0  0  0  0  0  0  0  0  0
   37.3470   31.7700   50.0310 C   0  0  0  0  0  0  0  0  0  0  0  0
   37.9280   32.8180   49.3250 C   0  0  0  0  0  0  0  0  0  0  0  0
   38.4480   32.5620   48.0940 N   0  0  0  0  0  0  0  0  0  0  0  0
   38.4000   31.3230   47.5730 C   0  0  0  0  0  0  0  0  0  0  0  0
   37.8530   30.2950   48.2170 N   0  0  0  0  0  0  0  0  0  0  0  0
   39.9310   30.5140   43.7070 C   0  0  0  0  0  0  0  0  0  0  0  0
   38.6980   30.0480   44.0570 C   0  0  0  0  0  0  0  0  0  0  0  0
   38.2290   30.3300   45.3240 C   0  0  0  0  0  0  0  0  0  0  0  0
   38.9660   31.0620   46.2390 C   0  0  0  0  0  0  0  0  0  0  0  0
   40.2170   31.5260   45.8600 C   0  0  0  0  0  0  0  0  0  0  0  0
   40.7210   31.2600   44.5880 C   0  0  0  0  0  0  0  0  0  0  0  0
   40.6030   30.1990   42.1110 S   0  0  0  0  0  0  0  0  0  0  0  0
   39.4900   29.6810   41.2220 O   0  0  0  0  0  0  0  0  0  0  0  0
   41.7050   29.1760   42.2120 O   0  0  0  0  0  0  0  0  0  0  0  0
   36.7450   29.4670   50.1510 O   0  0  0  0  0  0  0  0  0  0  0  0
   35.3820   29.3110   50.3870 C   0  0  0  0  0  0  0  0  0  0  0  0
   35.0540   29.1690   51.7170 F   0  0  0  0  0  0  0  0  0  0  0  0
   34.6190   30.2990   49.8110 F   0  0  0  0  0  0  0  0  0  0  0  0
   35.0120   28.1280   49.7440 F   0  0  0  0  0  0  0  0  0  0  0  0
   36.9146   31.9350   51.0289 H   0  0  0  0  0  0  0  0  0  0  0  0
   37.9663   33.8309   49.7522 H   0  0  0  0  0  0  0  0  0  0  0  0
   38.0934   29.4630   43.3483 H   0  0  0  0  0  0  0  0  0  0  0  0
   37.2352   29.9603   45.6168 H   0  0  0  0  0  0  0  0  0  0  0  0
   40.8184   32.1107   46.5716 H   0  0  0  0  0  0  0  0  0  0  0  0
   41.7129   31.6267   44.2852 H   0  0  0  0  0  0  0  0  0  0  0  0
   41.1286   31.3483   41.5821 H   0  0  0  0  0  0  0  0  0  0  0  0
  1  2  2  0
  1 16  1  0
  3  2  1  0
  4  3  2  0
  5  4  1  0
  5  6  2  0
  6  1  1  0
  7  8  2  0
  7 12  1  0
  8  9  1  0
  9 10  2  0
 10  5  1  0
 11 10  1  0
 12 11  2  0
 13 15  2  0
 13  7  1  0
 14 13  2  0
 16 17  1  0
 17 18  1  0
 19 17  1  0
 20 17  1  0
  2 21  1  0
  3 22  1  0
  8 23  1  0
  9 24  1  0
 11 25  1  0
 12 26  1  0
 13 27  1  0
M  ISO  7  21  14  22  14  23  14  24  14  25  14  26  14  27  11
M  END
>  <minimizedAffinity>  (1) 
-6.2774291

>  <minimizedRMSD>  (1) 
1.50067043

$$$$
