
     RDKit          3D

 47 50  0  0  1  0  0  0  0  0999 V2000
   32.3550   27.4220   47.8090 C   0  0  2  0  0  0  0  0  0  0  0  0
   35.5300   29.8730   48.5280 C   0  0  0  0  0  0  0  0  0  0  0  0
   35.4070   28.8250   49.4320 C   0  0  0  0  0  0  0  0  0  0  0  0
   34.3740   27.9720   49.2720 C   0  0  0  0  0  0  0  0  0  0  0  0
   33.5490   28.1850   48.2730 C   0  0  0  0  0  0  0  0  0  0  0  0
   34.1310   29.6710   47.3880 S   0  0  0  0  0  0  0  0  0  0  0  0
   37.7570   32.6020   49.5640 C   0  0  0  0  0  0  0  0  0  0  0  0
   38.5550   32.8120   48.4170 C   0  0  0  0  0  0  0  0  0  0  0  0
   38.3110   32.0150   47.3020 C   0  0  0  0  0  0  0  0  0  0  0  0
   37.3250   31.0790   47.3660 N   0  0  0  0  0  0  0  0  0  0  0  0
   36.6010   30.9290   48.4870 C   0  0  0  0  0  0  0  0  0  0  0  0
   36.7710   31.6680   49.6320 N   0  0  0  0  0  0  0  0  0  0  0  0
   32.1020   27.6640   46.4080 C   0  0  0  0  0  0  0  0  0  0  0  0
   31.2080   27.7290   48.7640 C   0  0  0  0  0  0  0  0  0  0  0  0
   30.1880   26.8300   48.6870 O   0  0  0  0  0  0  0  0  0  0  0  0
   28.9060   27.2170   48.3520 C   0  0  0  0  0  0  0  0  0  0  0  0
   27.6190   26.7990   48.5700 C   0  0  0  0  0  0  0  0  0  0  0  0
   26.7940   27.6860   47.9160 C   0  0  0  0  0  0  0  0  0  0  0  0
   27.6220   28.6140   47.3230 C   0  0  0  0  0  0  0  0  0  0  0  0
   28.8580   28.2890   47.6120 O   0  0  0  0  0  0  0  0  0  0  0  0
   26.3520   31.8070   44.9670 C   0  0  0  0  0  0  0  0  0  0  0  0
   26.6520   30.6020   44.3270 C   0  0  0  0  0  0  0  0  0  0  0  0
   27.0690   29.5730   45.1460 C   0  0  0  0  0  0  0  0  0  0  0  0
   27.1700   29.7620   46.5090 C   0  0  0  0  0  0  0  0  0  0  0  0
   26.8690   30.9570   47.1290 C   0  0  0  0  0  0  0  0  0  0  0  0
   26.4480   32.0050   46.3280 C   0  0  0  0  0  0  0  0  0  0  0  0
   25.8090   33.1780   43.9880 S   0  0  0  0  0  0  0  0  0  0  0  0
   24.8790   32.7070   42.9040 O   0  0  0  0  0  0  0  0  0  0  0  0
   25.0480   34.1230   44.8390 O   0  0  0  0  0  0  0  0  0  0  0  0
   32.5120   26.3340   47.8488 H   0  0  0  0  0  0  0  0  0  0  0  0
   36.1287   28.6950   50.2519 H   0  0  0  0  0  0  0  0  0  0  0  0
   34.2275   27.1242   49.9574 H   0  0  0  0  0  0  0  0  0  0  0  0
   37.9433   33.2276   50.4494 H   0  0  0  0  0  0  0  0  0  0  0  0
   39.3428   33.5796   48.4055 H   0  0  0  0  0  0  0  0  0  0  0  0
   38.9051   32.1396   46.3847 H   0  0  0  0  0  0  0  0  0  0  0  0
   31.3107   28.4209   46.3037 H   0  0  0  0  0  0  0  0  0  0  0  0
   33.0221   28.0267   45.9266 H   0  0  0  0  0  0  0  0  0  0  0  0
   31.7805   26.7287   45.9266 H   0  0  0  0  0  0  0  0  0  0  0  0
   31.5993   27.7260   49.7921 H   0  0  0  0  0  0  0  0  0  0  0  0
   30.8001   28.7099   48.4788 H   0  0  0  0  0  0  0  0  0  0  0  0
   27.3053   25.9223   49.1556 H   0  0  0  0  0  0  0  0  0  0  0  0
   25.6951   27.6593   47.8751 H   0  0  0  0  0  0  0  0  0  0  0  0
   26.5614   30.4811   43.2374 H   0  0  0  0  0  0  0  0  0  0  0  0
   27.3226   28.5957   44.7095 H   0  0  0  0  0  0  0  0  0  0  0  0
   26.9601   31.0730   48.2191 H   0  0  0  0  0  0  0  0  0  0  0  0
   26.1943   32.9797   46.7703 H   0  0  0  0  0  0  0  0  0  0  0  0
   26.9128   33.7802   43.4441 H   0  0  0  0  0  0  0  0  0  0  0  0
  1  5  1  0
  1 14  1  0
  2  3  2  0
  4  3  1  0
  5  4  2  0
  6  5  1  0
  6  2  1  0
  7 12  2  0
  8  7  1  0
  9 10  1  0
  9  8  2  0
 10 11  2  0
 11  2  1  0
 11 12  1  0
 13  1  1  0
 15 14  1  0
 16 17  2  0
 16 15  1  0
 18 17  1  0
 19 20  1  0
 19 18  2  0
 20 16  1  0
 21 26  2  0
 22 21  1  0
 22 23  2  0
 23 24  1  0
 24 25  2  0
 24 19  1  0
 26 25  1  0
 27 29  2  0
 27 21  1  0
 28 27  2  0
  1 30  1  6
  3 31  1  0
  4 32  1  0
  7 33  1  0
  8 34  1  0
  9 35  1  0
 13 36  1  0
 13 37  1  0
 13 38  1  0
 14 39  1  0
 14 40  1  0
 17 41  1  0
 18 42  1  0
 22 43  1  0
 23 44  1  0
 25 45  1  0
 26 46  1  0
 27 47  1  0
M  ISO  8  30   8  31  14  32  14  33  14  34  14  35  14  36   8  37   8
M  ISO  8  38   8  39   8  40   8  41  14  42  14  43  14  44  14  45  14
M  ISO  2  46  14  47  11
M  END
>  <minimizedAffinity>  (1) 
-6.59379292

>  <minimizedRMSD>  (1) 
2.47322869

$$$$
