
     RDKit          3D

 42 45  0  0  1  0  0  0  0  0999 V2000
   38.5500   31.9990   47.8720 C   0  0  1  0  0  0  0  0  0  0  0  0
   37.8420   31.0030   48.6740 C   0  0  0  0  0  0  0  0  0  0  0  0
   38.3200   30.6940   49.8790 N   0  0  0  0  0  0  0  0  0  0  0  0
   37.7350   29.7730   50.6890 C   0  0  0  0  0  0  0  0  0  0  0  0
   36.6350   29.1120   50.3340 N   0  0  0  0  0  0  0  0  0  0  0  0
   36.0690   29.3550   49.1330 C   0  0  0  0  0  0  0  0  0  0  0  0
   34.9400   28.6850   48.7380 C   0  0  0  0  0  0  0  0  0  0  0  0
   34.3620   28.9190   47.5170 C   0  0  0  0  0  0  0  0  0  0  0  0
   34.9730   29.8580   46.7200 C   0  0  0  0  0  0  0  0  0  0  0  0
   36.1020   30.5080   47.1490 C   0  0  0  0  0  0  0  0  0  0  0  0
   36.7010   30.2930   48.3590 C   0  0  0  0  0  0  0  0  0  0  0  0
   39.0860   31.9920   46.5410 C   0  0  0  0  0  0  0  0  0  0  0  0
   39.7800   33.1810   46.2700 C   0  0  0  0  0  0  0  0  0  0  0  0
   40.5170   33.3200   45.0450 C   0  0  0  0  0  0  0  0  0  0  0  0
   40.4760   32.2440   44.2220 N   0  0  0  0  0  0  0  0  0  0  0  0
   39.7900   31.1080   44.5140 C   0  0  0  0  0  0  0  0  0  0  0  0
   39.1120   30.9820   45.6430 N   0  0  0  0  0  0  0  0  0  0  0  0
   39.8000   30.0100   43.5720 N   0  0  0  0  0  0  0  0  0  0  0  0
   40.7680   29.9810   42.5080 C   0  0  0  0  0  0  0  0  0  0  0  0
   41.0350   28.5960   42.0170 C   0  0  0  0  0  0  0  0  0  0  0  0
   39.7800   27.8650   41.7860 N   0  0  0  0  0  0  0  0  0  0  0  0
   39.2300   27.6570   43.1130 C   0  0  0  0  0  0  0  0  0  0  0  0
   38.8230   28.9500   43.7220 C   0  0  0  0  0  0  0  0  0  0  0  0
   38.2010   33.1440   48.4590 O   0  0  0  0  0  0  0  0  0  0  0  0
   39.5372   31.5418   47.7094 H   0  0  0  0  0  0  0  0  0  0  0  0
   38.1854   29.5666   51.6711 H   0  0  0  0  0  0  0  0  0  0  0  0
   34.4886   27.9444   49.4146 H   0  0  0  0  0  0  0  0  0  0  0  0
   33.4575   28.3839   47.1923 H   0  0  0  0  0  0  0  0  0  0  0  0
   34.5529   30.0899   45.7302 H   0  0  0  0  0  0  0  0  0  0  0  0
   36.5550   31.2506   46.4757 H   0  0  0  0  0  0  0  0  0  0  0  0
   39.7596   34.0071   46.9961 H   0  0  0  0  0  0  0  0  0  0  0  0
   41.0746   34.2341   44.7930 H   0  0  0  0  0  0  0  0  0  0  0  0
   40.3902   30.5857   41.6704 H   0  0  0  0  0  0  0  0  0  0  0  0
   41.7122   30.3839   42.9033 H   0  0  0  0  0  0  0  0  0  0  0  0
   41.5973   28.6516   41.0732 H   0  0  0  0  0  0  0  0  0  0  0  0
   41.6158   28.0600   42.7821 H   0  0  0  0  0  0  0  0  0  0  0  0
   39.1351   28.4227   41.2081 H   0  0  0  0  0  0  0  0  0  0  0  0
   38.3511   26.9996   43.0405 H   0  0  0  0  0  0  0  0  0  0  0  0
   40.0012   27.1950   43.7468 H   0  0  0  0  0  0  0  0  0  0  0  0
   38.6528   28.7870   44.7965 H   0  0  0  0  0  0  0  0  0  0  0  0
   37.9164   29.2779   43.1923 H   0  0  0  0  0  0  0  0  0  0  0  0
   38.2344   33.0343   49.4423 H   0  0  0  0  0  0  0  0  0  0  0  0
  1 24  1  0
  1  2  1  0
  2  3  2  0
  3  4  1  0
  5  4  2  0
  6  5  1  0
  7  6  2  0
  8  7  1  0
  9 10  1  0
  9  8  2  0
 10 11  2  0
 11  2  1  0
 11  6  1  0
 12  1  1  0
 13 12  2  0
 14 13  1  0
 15 16  1  0
 15 14  2  0
 16 17  2  0
 17 12  1  0
 18 23  1  0
 18 16  1  0
 19 18  1  0
 20 19  1  0
 21 20  1  0
 21 22  1  0
 22 23  1  0
  1 25  1  1
  4 26  1  0
  7 27  1  0
  8 28  1  0
  9 29  1  0
 10 30  1  0
 13 31  1  0
 14 32  1  0
 19 33  1  0
 19 34  1  0
 20 35  1  0
 20 36  1  0
 21 37  1  0
 22 38  1  0
 22 39  1  0
 23 40  1  0
 23 41  1  0
 24 42  1  0
M  END
>  <minimizedAffinity>  (1) 
-7.37326384

>  <minimizedRMSD>  (1) 
0.967460632

$$$$
