
     RDKit          3D

 30 32  0  0  0  0  0  0  0  0999 V2000
   38.3580   31.1210   47.8050 C   0  0  0  0  0  0  0  0  0  0  0  0
   38.8810   32.4500   47.8970 C   0  0  0  0  0  0  0  0  0  0  0  0
   39.6640   32.7090   46.2400 S   0  0  0  0  0  0  0  0  0  0  0  0
   39.1390   30.9750   45.7310 C   0  0  0  0  0  0  0  0  0  0  0  0
   38.6050   30.5820   46.6380 N   0  0  0  0  0  0  0  0  0  0  0  0
   39.4260   30.3970   44.4280 N   0  0  0  0  0  0  0  0  0  0  0  0
   40.6020   30.7990   43.7260 C   0  0  0  0  0  0  0  0  0  0  0  0
   40.6100   30.1180   42.3770 C   0  0  0  0  0  0  0  0  0  0  0  0
   40.3660   28.7170   42.4470 N   0  0  0  0  0  0  0  0  0  0  0  0
   39.3290   28.2900   43.3230 C   0  0  0  0  0  0  0  0  0  0  0  0
   38.5000   29.4260   43.8820 C   0  0  0  0  0  0  0  0  0  0  0  0
   38.0810   30.8540   50.2440 C   0  0  0  0  0  0  0  0  0  0  0  0
   37.6480   30.5330   48.9430 C   0  0  0  0  0  0  0  0  0  0  0  0
   36.5710   29.6760   48.8260 C   0  0  0  0  0  0  0  0  0  0  0  0
   35.9950   29.1950   49.9640 N   0  0  0  0  0  0  0  0  0  0  0  0
   36.4310   29.5190   51.1910 C   0  0  0  0  0  0  0  0  0  0  0  0
   37.4690   30.3450   51.3220 N   0  0  0  0  0  0  0  0  0  0  0  0
   38.8300   33.1477   48.7459 H   0  0  0  0  0  0  0  0  0  0  0  0
   40.5988   31.8907   43.5908 H   0  0  0  0  0  0  0  0  0  0  0  0
   41.4981   30.5153   44.2973 H   0  0  0  0  0  0  0  0  0  0  0  0
   41.5942   30.2773   41.9123 H   0  0  0  0  0  0  0  0  0  0  0  0
   39.7937   30.5597   41.7866 H   0  0  0  0  0  0  0  0  0  0  0  0
   40.1255   28.3947   41.4988 H   0  0  0  0  0  0  0  0  0  0  0  0
   38.6622   27.6135   42.7683 H   0  0  0  0  0  0  0  0  0  0  0  0
   39.8131   27.7941   44.1772 H   0  0  0  0  0  0  0  0  0  0  0  0
   37.8996   29.8845   43.0825 H   0  0  0  0  0  0  0  0  0  0  0  0
   37.8090   29.0633   44.6572 H   0  0  0  0  0  0  0  0  0  0  0  0
   38.9355   31.5337   50.3775 H   0  0  0  0  0  0  0  0  0  0  0  0
   36.1866   29.3880   47.8364 H   0  0  0  0  0  0  0  0  0  0  0  0
   35.9356   29.1061   52.0821 H   0  0  0  0  0  0  0  0  0  0  0  0
  1  2  2  0
  1 13  1  0
  3  2  1  0
  4  3  1  0
  4  5  2  0
  5  1  1  0
  6  4  1  0
  7  6  1  0
  8  9  1  0
  8  7  1  0
  9 10  1  0
 10 11  1  0
 11  6  1  0
 12 17  2  0
 13 12  1  0
 14 13  2  0
 14 15  1  0
 15 16  2  0
 16 17  1  0
  2 18  1  0
  7 19  1  0
  7 20  1  0
  8 21  1  0
  8 22  1  0
  9 23  1  0
 10 24  1  0
 10 25  1  0
 11 26  1  0
 11 27  1  0
 12 28  1  0
 14 29  1  0
 16 30  1  0
M  ISO  8  18  14  19  13  20  13  21  13  22  13  23   5  24  13  25  13
M  ISO  5  26  13  27  13  28  14  29  14  30  14
M  END
>  <minimizedAffinity>  (1) 
-5.72370958

>  <minimizedRMSD>  (1) 
0.096758239

$$$$
