
     RDKit          3D

 36 40  0  0  0  0  0  0  0  0999 V2000
   37.4450   30.4720   51.0270 C   0  0  0  0  0  0  0  0  0  0  0  0
   38.2610   31.1370   50.0960 C   0  0  0  0  0  0  0  0  0  0  0  0
   37.8030   31.1640   48.7760 C   0  0  0  0  0  0  0  0  0  0  0  0
   36.6160   30.5660   48.4250 N   0  0  0  0  0  0  0  0  0  0  0  0
   35.8870   29.9440   49.3860 C   0  0  0  0  0  0  0  0  0  0  0  0
   36.2850   29.8900   50.6740 N   0  0  0  0  0  0  0  0  0  0  0  0
   38.5560   31.8300   47.7070 C   0  0  0  0  0  0  0  0  0  0  0  0
   39.3500   32.9360   47.7150 N   0  0  0  0  0  0  0  0  0  0  0  0
   39.8100   33.1530   46.5170 O   0  0  0  0  0  0  0  0  0  0  0  0
   39.3410   32.2230   45.7330 C   0  0  0  0  0  0  0  0  0  0  0  0
   38.5480   31.3690   46.4340 N   0  0  0  0  0  0  0  0  0  0  0  0
   39.5770   32.0560   44.3310 N   0  0  0  0  0  0  0  0  0  0  0  0
   39.1260   32.9320   43.4290 N   0  0  0  0  0  0  0  0  0  0  0  0
   39.4930   32.5260   42.1870 C   0  0  0  0  0  0  0  0  0  0  0  0
   40.2080   31.3300   42.3840 C   0  0  0  0  0  0  0  0  0  0  0  0
   40.2410   31.0640   43.7330 C   0  0  0  0  0  0  0  0  0  0  0  0
   34.6270   29.3080   49.0170 C   0  0  0  0  0  0  0  0  0  0  0  0
   33.6840   28.7680   49.8690 C   0  0  0  0  0  0  0  0  0  0  0  0
   32.6930   28.2940   49.1200 N   0  0  0  0  0  0  0  0  0  0  0  0
   32.9020   28.4770   47.8220 C   0  0  0  0  0  0  0  0  0  0  0  0
   32.1780   28.1640   46.6880 C   0  0  0  0  0  0  0  0  0  0  0  0
   32.6540   28.4830   45.4390 C   0  0  0  0  0  0  0  0  0  0  0  0
   33.8860   29.1280   45.3640 C   0  0  0  0  0  0  0  0  0  0  0  0
   34.6120   29.4450   46.4730 C   0  0  0  0  0  0  0  0  0  0  0  0
   34.1390   29.1260   47.7350 C   0  0  0  0  0  0  0  0  0  0  0  0
   37.7653   30.4260   52.0783 H   0  0  0  0  0  0  0  0  0  0  0  0
   39.2091   31.6107   50.3904 H   0  0  0  0  0  0  0  0  0  0  0  0
   39.2776   33.0251   41.2307 H   0  0  0  0  0  0  0  0  0  0  0  0
   40.6626   30.7136   41.5944 H   0  0  0  0  0  0  0  0  0  0  0  0
   40.7201   30.2034   44.2228 H   0  0  0  0  0  0  0  0  0  0  0  0
   33.7421   28.7359   50.9670 H   0  0  0  0  0  0  0  0  0  0  0  0
   31.8550   27.8351   49.5048 H   0  0  0  0  0  0  0  0  0  0  0  0
   31.2087   27.6532   46.7860 H   0  0  0  0  0  0  0  0  0  0  0  0
   32.0827   28.2378   44.5315 H   0  0  0  0  0  0  0  0  0  0  0  0
   34.2875   29.3910   44.3742 H   0  0  0  0  0  0  0  0  0  0  0  0
   35.5794   29.9573   46.3651 H   0  0  0  0  0  0  0  0  0  0  0  0
  2  1  2  0
  3  2  1  0
  4  3  2  0
  4  5  1  0
  5  6  2  0
  6  1  1  0
  7  8  2  0
  7  3  1  0
  9  8  1  0
 10 11  2  0
 10  9  1  0
 11  7  1  0
 12 10  1  0
 13 12  1  0
 14 15  1  0
 14 13  2  0
 15 16  2  0
 16 12  1  0
 17  5  1  0
 17 18  2  0
 19 18  1  0
 20 19  1  0
 21 20  2  0
 22 21  1  0
 23 22  2  0
 23 24  1  0
 24 25  2  0
 25 20  1  0
 25 17  1  0
  1 26  1  0
  2 27  1  0
 14 28  1  0
 15 29  1  0
 16 30  1  0
 18 31  1  0
 19 32  1  0
 21 33  1  0
 22 34  1  0
 23 35  1  0
 24 36  1  0
M  ISO  8  26  14  27  14  28  14  29  14  30  14  31  14  32   9  33  14
M  ISO  3  34  14  35  14  36  14
M  END
>  <minimizedAffinity>  (1) 
-6.97504854

>  <minimizedRMSD>  (1) 
1.34028733

$$$$
