
     RDKit          3D

 31 34  0  0  0  0  0  0  0  0999 V2000
   35.2050   29.7880   48.3140 C   0  0  0  0  0  0  0  0  0  0  0  0
   34.9490   28.6870   49.1680 C   0  0  0  0  0  0  0  0  0  0  0  0
   33.7910   28.0010   48.9580 C   0  0  0  0  0  0  0  0  0  0  0  0
   32.9730   28.4000   47.9720 C   0  0  0  0  0  0  0  0  0  0  0  0
   33.7840   29.8130   47.2340 S   0  0  0  0  0  0  0  0  0  0  0  0
   31.6820   27.8180   47.5640 C   0  0  0  0  0  0  0  0  0  0  0  0
   31.3340   27.3620   46.3190 C   0  0  0  0  0  0  0  0  0  0  0  0
   30.0680   26.9160   46.3880 N   0  0  0  0  0  0  0  0  0  0  0  0
   29.6110   27.0780   47.6410 C   0  0  0  0  0  0  0  0  0  0  0  0
   28.3690   26.7720   48.2040 C   0  0  0  0  0  0  0  0  0  0  0  0
   28.1050   27.0290   49.5480 C   0  0  0  0  0  0  0  0  0  0  0  0
   29.0930   27.5940   50.3160 C   0  0  0  0  0  0  0  0  0  0  0  0
   30.3090   27.8840   49.7210 C   0  0  0  0  0  0  0  0  0  0  0  0
   30.6140   27.6520   48.4190 C   0  0  0  0  0  0  0  0  0  0  0  0
   37.9650   31.8700   49.6330 C   0  0  0  0  0  0  0  0  0  0  0  0
   38.6310   32.2470   48.4340 C   0  0  0  0  0  0  0  0  0  0  0  0
   38.1170   31.7810   47.2070 C   0  0  0  0  0  0  0  0  0  0  0  0
   36.9990   30.9840   47.2300 N   0  0  0  0  0  0  0  0  0  0  0  0
   36.4090   30.6550   48.3840 C   0  0  0  0  0  0  0  0  0  0  0  0
   36.8690   31.0820   49.5840 N   0  0  0  0  0  0  0  0  0  0  0  0
   35.6524   28.3995   49.9634 H   0  0  0  0  0  0  0  0  0  0  0  0
   33.5312   27.1356   49.5854 H   0  0  0  0  0  0  0  0  0  0  0  0
   31.9750   27.3612   45.4251 H   0  0  0  0  0  0  0  0  0  0  0  0
   29.5332   26.5140   45.6049 H   0  0  0  0  0  0  0  0  0  0  0  0
   27.5868   26.3208   47.5758 H   0  0  0  0  0  0  0  0  0  0  0  0
   27.1254   26.7843   49.9845 H   0  0  0  0  0  0  0  0  0  0  0  0
   28.9221   27.8115   51.3807 H   0  0  0  0  0  0  0  0  0  0  0  0
   31.0878   28.3373   50.3520 H   0  0  0  0  0  0  0  0  0  0  0  0
   38.3440   32.2216   50.6040 H   0  0  0  0  0  0  0  0  0  0  0  0
   39.5254   32.8867   48.4636 H   0  0  0  0  0  0  0  0  0  0  0  0
   38.5992   32.0490   46.2553 H   0  0  0  0  0  0  0  0  0  0  0  0
  1 19  1  0
  1  2  2  0
  3  2  1  0
  4  3  2  0
  5  4  1  0
  5  1  1  0
  6  4  1  0
  6 14  1  0
  7  8  1  0
  7  6  2  0
  8  9  1  0
  9 10  1  0
  9 14  2  0
 10 11  2  0
 11 12  1  0
 13 12  2  0
 14 13  1  0
 16 15  2  0
 17 18  2  0
 17 16  1  0
 18 19  1  0
 19 20  2  0
 20 15  1  0
  2 21  1  0
  3 22  1  0
  7 23  1  0
  8 24  1  0
 10 25  1  0
 11 26  1  0
 12 27  1  0
 13 28  1  0
 15 29  1  0
 16 30  1  0
 17 31  1  0
M  ISO  8  21  14  22  14  23  14  24   9  25  14  26  14  27  14  28  14
M  ISO  3  29  14  30  14  31  14
M  END
>  <minimizedAffinity>  (1) 
-5.82161617

>  <minimizedRMSD>  (1) 
1.81695712

$$$$
