
     RDKit          3D

 34 36  0  0  0  0  0  0  0  0999 V2000
   36.9610   29.9050   49.9170 C   0  0  0  0  0  0  0  0  0  0  0  0
   38.0200   30.6670   49.4580 C   0  0  0  0  0  0  0  0  0  0  0  0
   37.9900   31.1080   48.1340 C   0  0  0  0  0  0  0  0  0  0  0  0
   36.9340   30.7700   47.3720 N   0  0  0  0  0  0  0  0  0  0  0  0
   35.9140   30.0230   47.8530 C   0  0  0  0  0  0  0  0  0  0  0  0
   35.9360   29.5980   49.1180 N   0  0  0  0  0  0  0  0  0  0  0  0
   39.0420   31.8860   47.6170 N   0  0  0  0  0  0  0  0  0  0  0  0
   38.9140   32.5790   46.3840 C   0  0  0  0  0  0  0  0  0  0  0  0
   37.8610   32.3690   45.6790 N   0  0  0  0  0  0  0  0  0  0  0  0
   39.9550   33.4710   45.9870 N   0  0  0  0  0  0  0  0  0  0  0  0
   37.7650   32.9080   44.7780 H   0  0  0  0  0  0  0  0  0  0  0  0
   34.8090   29.7050   46.9520 C   0  0  0  0  0  0  0  0  0  0  0  0
   34.7470   30.1100   45.6300 C   0  0  0  0  0  0  0  0  0  0  0  0
   33.5820   29.6270   45.1280 N   0  0  0  0  0  0  0  0  0  0  0  0
   32.9410   28.9450   46.0950 C   0  0  0  0  0  0  0  0  0  0  0  0
   31.7450   28.2750   46.0990 C   0  0  0  0  0  0  0  0  0  0  0  0
   31.3030   27.6420   47.2540 C   0  0  0  0  0  0  0  0  0  0  0  0
   32.0380   27.6560   48.4440 C   0  0  0  0  0  0  0  0  0  0  0  0
   33.2380   28.3380   48.4130 C   0  0  0  0  0  0  0  0  0  0  0  0
   33.6820   28.9690   47.2690 C   0  0  0  0  0  0  0  0  0  0  0  0
   36.9840   29.4240   51.3510 C   0  0  0  0  0  0  0  0  0  0  0  0
   35.6720   29.1540   51.7590 F   0  0  0  0  0  0  0  0  0  0  0  0
   37.8360   28.3910   51.4560 F   0  0  0  0  0  0  0  0  0  0  0  0
   37.4140   30.5210   52.1230 F   0  0  0  0  0  0  0  0  0  0  0  0
   38.8630   30.9187   50.1184 H   0  0  0  0  0  0  0  0  0  0  0  0
   39.9242   31.9545   48.1442 H   0  0  0  0  0  0  0  0  0  0  0  0
   39.8823   33.9836   45.0966 H   0  0  0  0  0  0  0  0  0  0  0  0
   40.7790   33.6021   46.5909 H   0  0  0  0  0  0  0  0  0  0  0  0
   35.4966   30.7076   45.0906 H   0  0  0  0  0  0  0  0  0  0  0  0
   33.2438   29.7606   44.1643 H   0  0  0  0  0  0  0  0  0  0  0  0
   31.1337   28.2385   45.1853 H   0  0  0  0  0  0  0  0  0  0  0  0
   30.3402   27.1105   47.2319 H   0  0  0  0  0  0  0  0  0  0  0  0
   31.6799   27.1518   49.3537 H   0  0  0  0  0  0  0  0  0  0  0  0
   33.8553   28.3794   49.3225 H   0  0  0  0  0  0  0  0  0  0  0  0
  1 21  1  0
  2  1  2  0
  3  2  1  0
  4  5  1  0
  4  3  2  0
  5  6  2  0
  6  1  1  0
  7  3  1  0
  8  7  1  0
  9  8  2  0
 10  8  1  0
 11  9  1  0
 12 20  1  0
 12  5  1  0
 13 12  2  0
 14 13  1  0
 14 15  1  0
 15 16  2  0
 15 20  1  0
 16 17  1  0
 17 18  2  0
 19 18  1  0
 20 19  2  0
 21 23  1  0
 21 22  1  0
 21 24  1  0
  2 25  1  0
  7 26  1  0
 10 27  1  0
 10 28  1  0
 13 29  1  0
 14 30  1  0
 16 31  1  0
 17 32  1  0
 18 33  1  0
 19 34  1  0
M  ISO  7  25  14  29  14  30   9  31  14  32  14  33  14  34  14
M  END
>  <minimizedAffinity>  (1) 
-7.32593632

>  <minimizedRMSD>  (1) 
0.282653689

$$$$
