
     RDKit          3D

 37 41  0  0  0  0  0  0  0  0999 V2000
   37.8037   31.8030   49.0560 N   0  0  0  0  0  0  0  0  0  0  0  0
   38.1996   33.0324   49.4703 C   0  0  0  0  0  0  0  0  0  0  0  0
   38.9468   33.6027   48.4944 N   0  0  0  0  0  0  0  0  0  0  0  0
   39.0019   32.7122   47.4856 C   0  0  0  0  0  0  0  0  0  0  0  0
   39.6054   32.7245   46.2470 C   0  0  0  0  0  0  0  0  0  0  0  0
   39.4968   31.6655   45.4083 N   0  0  0  0  0  0  0  0  0  0  0  0
   38.7986   30.5610   45.7460 C   0  0  0  0  0  0  0  0  0  0  0  0
   38.2181   30.5732   46.9616 N   0  0  0  0  0  0  0  0  0  0  0  0
   38.2888   31.5818   47.8284 C   0  0  0  0  0  0  0  0  0  0  0  0
   35.6851   30.6644   49.3888 C   0  0  0  0  0  0  0  0  0  0  0  0
   37.0043   30.9255   49.8315 C   0  0  0  0  0  0  0  0  0  0  0  0
   37.4169   30.2943   51.0049 C   0  0  0  0  0  0  0  0  0  0  0  0
   36.5369   29.4727   51.6495 N   0  0  0  0  0  0  0  0  0  0  0  0
   35.2966   29.2433   51.2098 C   0  0  0  0  0  0  0  0  0  0  0  0
   34.8733   29.8455   50.0719 N   0  0  0  0  0  0  0  0  0  0  0  0
   40.3481   33.8370   45.8250 N   0  0  0  0  0  0  0  0  0  0  0  0
   38.0127   33.5637   50.3913 H   0  0  0  0  0  0  0  0  0  0  0  0
   38.6998   29.7020   45.0878 H   0  0  0  0  0  0  0  0  0  0  0  0
   35.2732   31.1119   48.4825 H   0  0  0  0  0  0  0  0  0  0  0  0
   38.4063   30.4937   51.3317 H   0  0  0  0  0  0  0  0  0  0  0  0
   40.3535   34.7327   46.3639 H   0  0  0  0  0  0  0  0  0  0  0  0
   40.9281   33.8318   44.9621 H   0  0  0  0  0  0  0  0  0  0  0  0
   34.4301   28.3468   51.9715 C   0  0  0  0  0  0  0  0  0  0  0  0
   34.8665   27.1360   52.4649 C   0  0  0  0  0  0  0  0  0  0  0  0
   33.8032   26.5933   53.1054 N   0  0  0  0  0  0  0  0  0  0  0  0
   32.7337   27.4037   53.0342 C   0  0  0  0  0  0  0  0  0  0  0  0
   31.4324   27.3450   53.4990 C   0  0  0  0  0  0  0  0  0  0  0  0
   30.5281   28.3760   53.2564 C   0  0  0  0  0  0  0  0  0  0  0  0
   30.9050   29.5074   52.5338 C   0  0  0  0  0  0  0  0  0  0  0  0
   32.2090   29.5457   52.0791 C   0  0  0  0  0  0  0  0  0  0  0  0
   33.1067   28.5251   52.3184 C   0  0  0  0  0  0  0  0  0  0  0  0
   35.8546   26.6676   52.3828 H   0  0  0  0  0  0  0  0  0  0  0  0
   33.8073   25.6597   53.5967 H   0  0  0  0  0  0  0  0  0  0  0  0
   31.1803   26.4519   54.0542 H   0  0  0  0  0  0  0  0  0  0  0  0
   29.5303   28.2386   53.6613 H   0  0  0  0  0  0  0  0  0  0  0  0
   30.1589   30.2678   52.3814 H   0  0  0  0  0  0  0  0  0  0  0  0
   32.5228   30.4109   51.5181 H   0  0  0  0  0  0  0  0  0  0  0  0
  1  2  1  0
  1 11  1  0
  3  2  2  0
  4  9  2  0
  4  3  1  0
  5  4  1  0
  6  7  1  0
  6  5  2  0
  7  8  2  0
  8  9  1  0
  9  1  1  0
 10 11  2  0
 10 15  1  0
 11 12  1  0
 12 13  2  0
 14 13  1  0
 15 14  2  0
 16  5  1  0
  2 17  1  0
  7 18  1  0
 10 19  1  0
 12 20  1  0
 16 21  1  0
 16 22  1  0
 23 24  2  0
 24 25  1  0
 25 26  1  0
 26 27  2  0
 27 28  1  0
 28 29  2  0
 29 30  1  0
 30 31  2  0
 31 23  1  0
 31 26  1  0
 24 32  1  0
 25 33  1  0
 27 34  1  0
 28 35  1  0
 29 36  1  0
 30 37  1  0
 14 23  1  0
M  ISO  4  17  14  18  14  19  14  20  14
M  END
>  <DihAtoms>  (1) 
12,13,22,23

>  <DihDeg>  (1) 
-0.00035320963915342664

$$$$
