
     RDKit          3D

 39 43  0  0  0  0  0  0  0  0999 V2000
   37.8057   31.8108   49.0613 N   0  0  0  0  0  0  0  0  0  0  0  0
   38.1996   33.0340   49.4756 C   0  0  0  0  0  0  0  0  0  0  0  0
   38.9468   33.5935   48.4897 N   0  0  0  0  0  0  0  0  0  0  0  0
   39.0037   32.7138   47.4871 C   0  0  0  0  0  0  0  0  0  0  0  0
   39.6083   32.7247   46.2439 C   0  0  0  0  0  0  0  0  0  0  0  0
   39.5015   31.6798   45.4144 N   0  0  0  0  0  0  0  0  0  0  0  0
   38.7977   30.5574   45.7450 C   0  0  0  0  0  0  0  0  0  0  0  0
   38.2188   30.5682   46.9560 N   0  0  0  0  0  0  0  0  0  0  0  0
   38.2933   31.5897   47.8291 C   0  0  0  0  0  0  0  0  0  0  0  0
   35.6981   30.6645   49.3993 C   0  0  0  0  0  0  0  0  0  0  0  0
   37.0011   30.9317   49.8246 C   0  0  0  0  0  0  0  0  0  0  0  0
   37.3843   30.2917   50.9897 C   0  0  0  0  0  0  0  0  0  0  0  0
   36.5195   29.4772   51.6302 N   0  0  0  0  0  0  0  0  0  0  0  0
   35.2922   29.2338   51.2179 C   0  0  0  0  0  0  0  0  0  0  0  0
   34.9029   29.8381   50.1003 N   0  0  0  0  0  0  0  0  0  0  0  0
   40.3473   33.8300   45.8150 N   0  0  0  0  0  0  0  0  0  0  0  0
   37.9974   33.5470   50.4111 H   0  0  0  0  0  0  0  0  0  0  0  0
   38.7022   29.7072   45.0881 H   0  0  0  0  0  0  0  0  0  0  0  0
   35.3705   31.1575   48.4813 H   0  0  0  0  0  0  0  0  0  0  0  0
   38.3659   30.4544   51.3656 H   0  0  0  0  0  0  0  0  0  0  0  0
   40.3418   34.7668   46.2736 H   0  0  0  0  0  0  0  0  0  0  0  0
   40.9758   33.8162   44.9906 H   0  0  0  0  0  0  0  0  0  0  0  0
   34.2404   28.3918   51.7814 C   0  0  0  0  0  0  0  0  0  0  0  0
   32.9718   28.2487   51.1991 C   0  0  0  0  0  0  0  0  0  0  0  0
   31.9674   27.4802   51.6856 C   0  0  0  0  0  0  0  0  0  0  0  0
   32.1624   26.7645   52.8420 C   0  0  0  0  0  0  0  0  0  0  0  0
   33.3826   26.8565   53.4682 C   0  0  0  0  0  0  0  0  0  0  0  0
   33.5123   26.1205   54.6133 C   0  0  0  0  0  0  0  0  0  0  0  0
   34.6978   26.1450   55.3155 C   0  0  0  0  0  0  0  0  0  0  0  0
   35.7210   26.9451   54.7950 C   0  0  0  0  0  0  0  0  0  0  0  0
   35.5150   27.6587   53.6348 C   0  0  0  0  0  0  0  0  0  0  0  0
   34.3603   27.6576   52.9180 C   0  0  0  0  0  0  0  0  0  0  0  0
   32.7649   28.8032   50.2683 H   0  0  0  0  0  0  0  0  0  0  0  0
   31.0246   27.4374   51.1609 H   0  0  0  0  0  0  0  0  0  0  0  0
   31.3527   26.1690   53.1994 H   0  0  0  0  0  0  0  0  0  0  0  0
   32.7143   25.5065   55.0047 H   0  0  0  0  0  0  0  0  0  0  0  0
   34.8069   25.5760   56.2063 H   0  0  0  0  0  0  0  0  0  0  0  0
   36.6303   26.9338   55.3771 H   0  0  0  0  0  0  0  0  0  0  0  0
   36.3677   28.2138   53.3626 H   0  0  0  0  0  0  0  0  0  0  0  0
  1  2  1  0
  1 11  1  0
  3  2  2  0
  4  9  2  0
  4  3  1  0
  5  4  1  0
  6  7  1  0
  6  5  2  0
  7  8  2  0
  8  9  1  0
  9  1  1  0
 10 11  2  0
 10 15  1  0
 11 12  1  0
 12 13  2  0
 14 13  1  0
 15 14  2  0
 16  5  1  0
  2 17  1  0
  7 18  1  0
 10 19  1  0
 12 20  1  0
 16 21  1  0
 16 22  1  0
 23 24  2  0
 24 25  1  0
 25 26  2  0
 26 27  1  0
 27 28  2  0
 28 29  1  0
 29 30  2  0
 30 31  1  0
 31 32  2  0
 32 23  1  0
 32 27  1  0
 24 33  1  0
 25 34  1  0
 26 35  1  0
 28 36  1  0
 29 37  1  0
 30 38  1  0
 31 39  1  0
 14 23  1  0
M  ISO  4  17  14  18  14  19  14  20  14
M  END
>  <DihAtoms>  (1) 
12,13,22,23

>  <DihDeg>  (1) 
179.9760523870006

$$$$
