
     RDKit          3D

 39 43  0  0  0  0  0  0  0  0999 V2000
   37.8057   31.8108   49.0613 N   0  0  0  0  0  0  0  0  0  0  0  0
   38.1996   33.0340   49.4756 C   0  0  0  0  0  0  0  0  0  0  0  0
   38.9468   33.5935   48.4897 N   0  0  0  0  0  0  0  0  0  0  0  0
   39.0037   32.7138   47.4871 C   0  0  0  0  0  0  0  0  0  0  0  0
   39.6083   32.7247   46.2439 C   0  0  0  0  0  0  0  0  0  0  0  0
   39.5015   31.6798   45.4144 N   0  0  0  0  0  0  0  0  0  0  0  0
   38.7977   30.5574   45.7450 C   0  0  0  0  0  0  0  0  0  0  0  0
   38.2188   30.5682   46.9560 N   0  0  0  0  0  0  0  0  0  0  0  0
   38.2933   31.5897   47.8291 C   0  0  0  0  0  0  0  0  0  0  0  0
   35.6981   30.6645   49.3993 C   0  0  0  0  0  0  0  0  0  0  0  0
   37.0011   30.9317   49.8246 C   0  0  0  0  0  0  0  0  0  0  0  0
   37.3843   30.2917   50.9897 C   0  0  0  0  0  0  0  0  0  0  0  0
   36.5195   29.4772   51.6302 N   0  0  0  0  0  0  0  0  0  0  0  0
   35.2922   29.2338   51.2179 C   0  0  0  0  0  0  0  0  0  0  0  0
   34.9029   29.8381   50.1003 N   0  0  0  0  0  0  0  0  0  0  0  0
   40.3473   33.8300   45.8150 N   0  0  0  0  0  0  0  0  0  0  0  0
   37.9974   33.5470   50.4111 H   0  0  0  0  0  0  0  0  0  0  0  0
   38.7022   29.7072   45.0881 H   0  0  0  0  0  0  0  0  0  0  0  0
   35.3705   31.1575   48.4813 H   0  0  0  0  0  0  0  0  0  0  0  0
   38.3659   30.4544   51.3656 H   0  0  0  0  0  0  0  0  0  0  0  0
   40.3418   34.7668   46.2736 H   0  0  0  0  0  0  0  0  0  0  0  0
   40.9758   33.8162   44.9906 H   0  0  0  0  0  0  0  0  0  0  0  0
   34.2404   28.3918   51.7814 C   0  0  0  0  0  0  0  0  0  0  0  0
   34.4977   27.2313   52.5270 C   0  0  0  0  0  0  0  0  0  0  0  0
   33.5556   26.4214   53.0679 C   0  0  0  0  0  0  0  0  0  0  0  0
   32.2260   26.7223   52.8976 C   0  0  0  0  0  0  0  0  0  0  0  0
   31.8986   27.8461   52.1770 C   0  0  0  0  0  0  0  0  0  0  0  0
   30.5596   28.0895   52.0441 C   0  0  0  0  0  0  0  0  0  0  0  0
   30.1281   29.1921   51.3391 C   0  0  0  0  0  0  0  0  0  0  0  0
   31.1179   30.0144   50.7893 C   0  0  0  0  0  0  0  0  0  0  0  0
   32.4482   29.7035   50.9660 C   0  0  0  0  0  0  0  0  0  0  0  0
   32.9083   28.6257   51.6544 C   0  0  0  0  0  0  0  0  0  0  0  0
   35.5503   26.9460   52.6923 H   0  0  0  0  0  0  0  0  0  0  0  0
   33.8580   25.5483   53.6268 H   0  0  0  0  0  0  0  0  0  0  0  0
   31.5086   26.0654   53.3355 H   0  0  0  0  0  0  0  0  0  0  0  0
   29.8052   27.4466   52.4736 H   0  0  0  0  0  0  0  0  0  0  0  0
   29.0894   29.3886   51.2311 H   0  0  0  0  0  0  0  0  0  0  0  0
   30.7343   30.8652   50.2463 H   0  0  0  0  0  0  0  0  0  0  0  0
   33.0779   30.4073   50.4994 H   0  0  0  0  0  0  0  0  0  0  0  0
  1  2  1  0
  1 11  1  0
  3  2  2  0
  4  9  2  0
  4  3  1  0
  5  4  1  0
  6  7  1  0
  6  5  2  0
  7  8  2  0
  8  9  1  0
  9  1  1  0
 10 11  2  0
 10 15  1  0
 11 12  1  0
 12 13  2  0
 14 13  1  0
 15 14  2  0
 16  5  1  0
  2 17  1  0
  7 18  1  0
 10 19  1  0
 12 20  1  0
 16 21  1  0
 16 22  1  0
 23 24  2  0
 24 25  1  0
 25 26  2  0
 26 27  1  0
 27 28  2  0
 28 29  1  0
 29 30  2  0
 30 31  1  0
 31 32  2  0
 32 23  1  0
 32 27  1  0
 24 33  1  0
 25 34  1  0
 26 35  1  0
 28 36  1  0
 29 37  1  0
 30 38  1  0
 31 39  1  0
 14 23  1  0
M  ISO  4  17  14  18  14  19  14  20  14
M  END
>  <DihAtoms>  (1) 
12,13,22,23

>  <DihDeg>  (1) 
179.9760523870006

$$$$
