
     RDKit          3D

 31 34  0  0  0  0  0  0  0  0999 V2000
   37.8370   31.7900   49.1320 C   0  0  0  0  0  0  0  0  0  0  0  0
   38.6130   32.8220   49.4650 N   0  0  0  0  0  0  0  0  0  0  0  0
   39.1720   33.3220   48.4190 O   0  0  0  0  0  0  0  0  0  0  0  0
   38.7990   32.6560   47.3720 C   0  0  0  0  0  0  0  0  0  0  0  0
   37.9640   31.6950   47.8010 N   0  0  0  0  0  0  0  0  0  0  0  0
   39.0600   32.7050   45.9170 C   0  0  0  0  0  0  0  0  0  0  0  0
   40.0290   33.4880   45.3200 C   0  0  0  0  0  0  0  0  0  0  0  0
   40.2610   33.5260   43.9800 C   0  0  0  0  0  0  0  0  0  0  0  0
   39.5120   32.7540   43.1220 C   0  0  0  0  0  0  0  0  0  0  0  0
   38.5330   31.9530   43.6610 C   0  0  0  0  0  0  0  0  0  0  0  0
   37.8040   31.1940   42.7700 C   0  0  0  0  0  0  0  0  0  0  0  0
   36.8050   30.3650   43.2320 C   0  0  0  0  0  0  0  0  0  0  0  0
   36.5710   30.3290   44.5900 C   0  0  0  0  0  0  0  0  0  0  0  0
   37.3320   31.1100   45.4310 C   0  0  0  0  0  0  0  0  0  0  0  0
   38.3400   31.9530   45.0230 C   0  0  0  0  0  0  0  0  0  0  0  0
   36.5100   29.4340   51.7340 C   0  0  0  0  0  0  0  0  0  0  0  0
   37.4200   30.2900   51.0870 C   0  0  0  0  0  0  0  0  0  0  0  0
   36.9930   30.8840   49.9010 C   0  0  0  0  0  0  0  0  0  0  0  0
   35.7300   30.6110   49.4280 N   0  0  0  0  0  0  0  0  0  0  0  0
   34.9020   29.7780   50.0990 C   0  0  0  0  0  0  0  0  0  0  0  0
   35.2860   29.1870   51.2500 N   0  0  0  0  0  0  0  0  0  0  0  0
   40.6523   34.1207   45.9690 H   0  0  0  0  0  0  0  0  0  0  0  0
   41.0519   34.1776   43.5802 H   0  0  0  0  0  0  0  0  0  0  0  0
   39.6911   32.7769   42.0369 H   0  0  0  0  0  0  0  0  0  0  0  0
   38.0195   31.2502   41.6928 H   0  0  0  0  0  0  0  0  0  0  0  0
   36.2123   29.7506   42.5383 H   0  0  0  0  0  0  0  0  0  0  0  0
   35.7819   29.6809   44.9990 H   0  0  0  0  0  0  0  0  0  0  0  0
   37.1182   31.0559   46.5087 H   0  0  0  0  0  0  0  0  0  0  0  0
   36.8155   28.9493   52.6730 H   0  0  0  0  0  0  0  0  0  0  0  0
   38.4221   30.4815   51.4983 H   0  0  0  0  0  0  0  0  0  0  0  0
   33.8969   29.5785   49.6991 H   0  0  0  0  0  0  0  0  0  0  0  0
  1  2  2  0
  1 18  1  0
  3  2  1  0
  4  5  2  0
  4  3  1  0
  5  1  1  0
  6  4  1  0
  7  6  2  0
  8  7  1  0
  9 10  1  0
  9  8  2  0
 10 15  2  0
 11 12  2  0
 11 10  1  0
 12 13  1  0
 13 14  2  0
 15 14  1  0
 15  6  1  0
 17 16  2  0
 18 17  1  0
 19 18  2  0
 19 20  1  0
 20 21  2  0
 21 16  1  0
  7 22  1  0
  8 23  1  0
  9 24  1  0
 11 25  1  0
 12 26  1  0
 13 27  1  0
 14 28  1  0
 16 29  1  0
 17 30  1  0
 20 31  1  0
M  ISO  8  22  14  23  14  24  14  25  14  26  14  27  14  28  14  29  14
M  ISO  2  30  14  31  14
M  END
>  <minimizedAffinity>  (1) 
-6.15019894

>  <minimizedRMSD>  (1) 
2.12484288

$$$$
