
     RDKit          3D

 39 43  0  0  0  0  0  0  0  0999 V2000
   37.8057   31.8108   49.0613 N   0  0  0  0  0  0  0  0  0  0  0  0
   38.1996   33.0340   49.4756 C   0  0  0  0  0  0  0  0  0  0  0  0
   38.9468   33.5935   48.4897 N   0  0  0  0  0  0  0  0  0  0  0  0
   39.0037   32.7138   47.4871 C   0  0  0  0  0  0  0  0  0  0  0  0
   39.6083   32.7247   46.2439 C   0  0  0  0  0  0  0  0  0  0  0  0
   39.5015   31.6798   45.4144 N   0  0  0  0  0  0  0  0  0  0  0  0
   38.7977   30.5574   45.7450 C   0  0  0  0  0  0  0  0  0  0  0  0
   38.2188   30.5682   46.9560 N   0  0  0  0  0  0  0  0  0  0  0  0
   38.2933   31.5897   47.8291 C   0  0  0  0  0  0  0  0  0  0  0  0
   35.6981   30.6645   49.3993 C   0  0  0  0  0  0  0  0  0  0  0  0
   37.0011   30.9317   49.8246 C   0  0  0  0  0  0  0  0  0  0  0  0
   37.3843   30.2917   50.9897 C   0  0  0  0  0  0  0  0  0  0  0  0
   36.5195   29.4772   51.6302 N   0  0  0  0  0  0  0  0  0  0  0  0
   35.2922   29.2338   51.2179 C   0  0  0  0  0  0  0  0  0  0  0  0
   34.9029   29.8381   50.1003 N   0  0  0  0  0  0  0  0  0  0  0  0
   40.3473   33.8300   45.8150 N   0  0  0  0  0  0  0  0  0  0  0  0
   37.9974   33.5470   50.4111 H   0  0  0  0  0  0  0  0  0  0  0  0
   38.7022   29.7072   45.0881 H   0  0  0  0  0  0  0  0  0  0  0  0
   35.3705   31.1575   48.4813 H   0  0  0  0  0  0  0  0  0  0  0  0
   38.3659   30.4544   51.3656 H   0  0  0  0  0  0  0  0  0  0  0  0
   40.3418   34.7668   46.2736 H   0  0  0  0  0  0  0  0  0  0  0  0
   40.9758   33.8162   44.9906 H   0  0  0  0  0  0  0  0  0  0  0  0
   34.2404   28.3918   51.7814 C   0  0  0  0  0  0  0  0  0  0  0  0
   34.2469   26.9911   51.6999 C   0  0  0  0  0  0  0  0  0  0  0  0
   33.2946   26.1712   52.2070 C   0  0  0  0  0  0  0  0  0  0  0  0
   32.2156   26.7122   52.8631 C   0  0  0  0  0  0  0  0  0  0  0  0
   32.1425   28.0797   52.9813 C   0  0  0  0  0  0  0  0  0  0  0  0
   31.0449   28.5543   53.6446 C   0  0  0  0  0  0  0  0  0  0  0  0
   30.8792   29.9116   53.8160 C   0  0  0  0  0  0  0  0  0  0  0  0
   31.8744   30.7391   53.2844 C   0  0  0  0  0  0  0  0  0  0  0  0
   32.9522   30.1864   52.6283 C   0  0  0  0  0  0  0  0  0  0  0  0
   33.1469   28.8543   52.4414 C   0  0  0  0  0  0  0  0  0  0  0  0
   35.0926   26.5074   51.1825 H   0  0  0  0  0  0  0  0  0  0  0  0
   33.3924   25.1020   52.0910 H   0  0  0  0  0  0  0  0  0  0  0  0
   31.4831   26.0406   53.2510 H   0  0  0  0  0  0  0  0  0  0  0  0
   30.2834   27.9045   54.0504 H   0  0  0  0  0  0  0  0  0  0  0  0
   30.0292   30.2887   54.3302 H   0  0  0  0  0  0  0  0  0  0  0  0
   31.7034   31.7935   53.4422 H   0  0  0  0  0  0  0  0  0  0  0  0
   33.6185   30.9254   52.2827 H   0  0  0  0  0  0  0  0  0  0  0  0
  1  2  1  0
  1 11  1  0
  3  2  2  0
  4  9  2  0
  4  3  1  0
  5  4  1  0
  6  7  1  0
  6  5  2  0
  7  8  2  0
  8  9  1  0
  9  1  1  0
 10 11  2  0
 10 15  1  0
 11 12  1  0
 12 13  2  0
 14 13  1  0
 15 14  2  0
 16  5  1  0
  2 17  1  0
  7 18  1  0
 10 19  1  0
 12 20  1  0
 16 21  1  0
 16 22  1  0
 23 24  2  0
 24 25  1  0
 25 26  2  0
 26 27  1  0
 27 28  2  0
 28 29  1  0
 29 30  2  0
 30 31  1  0
 31 32  2  0
 32 23  1  0
 32 27  1  0
 24 33  1  0
 25 34  1  0
 26 35  1  0
 28 36  1  0
 29 37  1  0
 30 38  1  0
 31 39  1  0
 14 23  1  0
M  ISO  4  17  14  18  14  19  14  20  14
M  END
>  <DihAtoms>  (1) 
12,13,22,23

>  <DihDeg>  (1) 
179.9760523870006

$$$$
