
     RDKit          3D

 49 54  0  0  1  0  0  0  0  0999 V2000
   35.3420   30.3580   47.2260 C   0  0  0  0  0  0  0  0  0  0  0  0
   36.3880   30.5340   48.1140 C   0  0  0  0  0  0  0  0  0  0  0  0
   36.4580   29.5560   49.1550 C   0  0  0  0  0  0  0  0  0  0  0  0
   35.5350   28.5540   49.2110 N   0  0  0  0  0  0  0  0  0  0  0  0
   34.5560   28.4470   48.3250 C   0  0  0  0  0  0  0  0  0  0  0  0
   34.4640   29.3470   47.3390 N   0  0  0  0  0  0  0  0  0  0  0  0
   37.4220   31.5510   48.1570 C   0  0  0  0  0  0  0  0  0  0  0  0
   37.4240   32.2230   49.3420 C   0  0  0  0  0  0  0  0  0  0  0  0
   38.3410   33.2450   49.5950 C   0  0  0  0  0  0  0  0  0  0  0  0
   39.2660   33.5850   48.6260 C   0  0  0  0  0  0  0  0  0  0  0  0
   39.2470   32.8940   47.4360 C   0  0  0  0  0  0  0  0  0  0  0  0
   40.1440   33.1680   46.3990 C   0  0  0  0  0  0  0  0  0  0  0  0
   40.0770   32.4340   45.2110 C   0  0  0  0  0  0  0  0  0  0  0  0
   39.1510   31.4390   45.0220 C   0  0  0  0  0  0  0  0  0  0  0  0
   38.2640   31.1690   46.0520 C   0  0  0  0  0  0  0  0  0  0  0  0
   38.3460   31.8980   47.2060 C   0  0  0  0  0  0  0  0  0  0  0  0
   33.5710   27.3470   48.4280 C   0  0  1  0  0  0  0  0  0  0  0  0
   32.1410   27.6520   48.6970 C   0  0  0  0  0  0  0  0  0  0  0  0
   32.5700   27.1180   47.3290 C   0  0  2  0  0  0  0  0  0  0  0  0
   32.1510   25.7540   46.9980 C   0  0  0  0  0  0  0  0  0  0  0  0
   33.1730   24.8400   47.2640 C   0  0  0  0  0  0  0  0  0  0  0  0
   33.0280   23.4830   46.9860 C   0  0  0  0  0  0  0  0  0  0  0  0
   31.8340   23.0430   46.4320 C   0  0  0  0  0  0  0  0  0  0  0  0
   30.8230   23.9290   46.1680 C   0  0  0  0  0  0  0  0  0  0  0  0
   29.5850   23.5830   45.6260 C   0  0  0  0  0  0  0  0  0  0  0  0
   28.6040   24.5490   45.3990 C   0  0  0  0  0  0  0  0  0  0  0  0
   28.8200   25.8760   45.7020 C   0  0  0  0  0  0  0  0  0  0  0  0
   30.0420   26.2280   46.2390 C   0  0  0  0  0  0  0  0  0  0  0  0
   30.9950   25.2560   46.4520 C   0  0  0  0  0  0  0  0  0  0  0  0
   35.2247   31.0716   46.3972 H   0  0  0  0  0  0  0  0  0  0  0  0
   37.2560   29.6121   49.9101 H   0  0  0  0  0  0  0  0  0  0  0  0
   36.6885   31.9551   50.1149 H   0  0  0  0  0  0  0  0  0  0  0  0
   38.3274   33.7757   50.5584 H   0  0  0  0  0  0  0  0  0  0  0  0
   39.9982   34.3869   48.8014 H   0  0  0  0  0  0  0  0  0  0  0  0
   40.8998   33.9584   46.5175 H   0  0  0  0  0  0  0  0  0  0  0  0
   40.7882   32.6610   44.4031 H   0  0  0  0  0  0  0  0  0  0  0  0
   39.1139   30.8721   44.0801 H   0  0  0  0  0  0  0  0  0  0  0  0
   37.5053   30.3800   45.9429 H   0  0  0  0  0  0  0  0  0  0  0  0
   34.3302   26.7187   48.9168 H   0  0  0  0  0  0  0  0  0  0  0  0
   31.5610   27.0139   49.3799 H   0  0  0  0  0  0  0  0  0  0  0  0
   31.5855   28.5334   49.0500 H   0  0  0  0  0  0  0  0  0  0  0  0
   32.4957   27.4404   46.2799 H   0  0  0  0  0  0  0  0  0  0  0  0
   34.1148   25.2004   47.7035 H   0  0  0  0  0  0  0  0  0  0  0  0
   33.8422   22.7753   47.2009 H   0  0  0  0  0  0  0  0  0  0  0  0
   31.6985   21.9756   46.2033 H   0  0  0  0  0  0  0  0  0  0  0  0
   29.3790   22.5323   45.3737 H   0  0  0  0  0  0  0  0  0  0  0  0
   27.6381   24.2450   44.9693 H   0  0  0  0  0  0  0  0  0  0  0  0
   28.0418   26.6321   45.5213 H   0  0  0  0  0  0  0  0  0  0  0  0
   30.2533   27.2767   46.4950 H   0  0  0  0  0  0  0  0  0  0  0  0
  1  6  2  0
  1  2  1  0
  2  7  1  0
  2  3  2  0
  3  4  1  0
  5 17  1  0
  5  4  2  0
  6  5  1  0
  7  8  2  0
  8  9  1  0
 10  9  2  0
 11 10  1  0
 12 11  2  0
 13 12  1  0
 14 13  2  0
 14 15  1  0
 15 16  2  0
 16 11  1  0
 16  7  1  0
 17 18  1  0
 19 17  1  0
 19 18  1  0
 20 21  2  0
 20 19  1  0
 22 21  1  0
 23 22  2  0
 24 23  1  0
 24 29  2  0
 25 24  1  0
 26 25  2  0
 26 27  1  0
 27 28  2  0
 28 29  1  0
 29 20  1  0
  1 30  1  0
  3 31  1  0
  8 32  1  0
  9 33  1  0
 10 34  1  0
 12 35  1  0
 13 36  1  0
 14 37  1  0
 15 38  1  0
 17 39  1  1
 18 40  1  0
 18 41  1  0
 19 42  1  6
 21 43  1  0
 22 44  1  0
 23 45  1  0
 25 46  1  0
 26 47  1  0
 27 48  1  0
 28 49  1  0
M  END
>  <minimizedAffinity>  (1) 
-7.45398092

>  <minimizedRMSD>  (1) 
1.80130374

$$$$
