
     RDKit          3D

 32 35  0  0  0  0  0  0  0  0999 V2000
   38.2950   31.0550   47.8120 C   0  0  0  0  0  0  0  0  0  0  0  0
   38.8480   32.3550   47.8600 C   0  0  0  0  0  0  0  0  0  0  0  0
   39.5400   32.5880   46.1680 S   0  0  0  0  0  0  0  0  0  0  0  0
   38.9510   30.8590   45.6860 C   0  0  0  0  0  0  0  0  0  0  0  0
   38.4760   30.5320   46.6390 N   0  0  0  0  0  0  0  0  0  0  0  0
   39.2790   30.4900   44.2800 C   0  0  0  0  0  0  0  0  0  0  0  0
   40.5330   30.6230   43.7340 C   0  0  0  0  0  0  0  0  0  0  0  0
   40.8140   30.2740   42.4300 C   0  0  0  0  0  0  0  0  0  0  0  0
   39.8170   29.7770   41.6400 C   0  0  0  0  0  0  0  0  0  0  0  0
   38.5390   29.6210   42.1300 C   0  0  0  0  0  0  0  0  0  0  0  0
   37.5340   29.1260   41.3530 C   0  0  0  0  0  0  0  0  0  0  0  0
   36.2400   28.9700   41.8540 C   0  0  0  0  0  0  0  0  0  0  0  0
   36.0460   29.3500   43.1880 C   0  0  0  0  0  0  0  0  0  0  0  0
   37.0640   29.8490   43.9700 C   0  0  0  0  0  0  0  0  0  0  0  0
   38.3240   29.9870   43.4390 C   0  0  0  0  0  0  0  0  0  0  0  0
   38.1060   30.8660   50.2720 C   0  0  0  0  0  0  0  0  0  0  0  0
   37.6490   30.4960   48.9900 C   0  0  0  0  0  0  0  0  0  0  0  0
   36.5970   29.6060   48.9630 C   0  0  0  0  0  0  0  0  0  0  0  0
   36.0670   29.1400   50.1200 N   0  0  0  0  0  0  0  0  0  0  0  0
   36.5400   29.5240   51.3150 C   0  0  0  0  0  0  0  0  0  0  0  0
   37.5690   30.3940   51.3930 N   0  0  0  0  0  0  0  0  0  0  0  0
   38.8619   33.0590   48.7051 H   0  0  0  0  0  0  0  0  0  0  0  0
   41.3434   31.0231   44.3610 H   0  0  0  0  0  0  0  0  0  0  0  0
   41.8315   30.3947   42.0298 H   0  0  0  0  0  0  0  0  0  0  0  0
   40.0373   29.4977   40.5991 H   0  0  0  0  0  0  0  0  0  0  0  0
   37.7466   28.8440   40.3112 H   0  0  0  0  0  0  0  0  0  0  0  0
   35.4209   28.5719   41.2370 H   0  0  0  0  0  0  0  0  0  0  0  0
   35.0430   29.2460   43.6276 H   0  0  0  0  0  0  0  0  0  0  0  0
   36.8696   30.1356   45.0141 H   0  0  0  0  0  0  0  0  0  0  0  0
   38.9429   31.5758   50.3477 H   0  0  0  0  0  0  0  0  0  0  0  0
   36.1860   29.2726   47.9987 H   0  0  0  0  0  0  0  0  0  0  0  0
   36.0871   29.1280   52.2359 H   0  0  0  0  0  0  0  0  0  0  0  0
  1  2  2  0
  1 17  1  0
  3  2  1  0
  4  3  1  0
  4  5  2  0
  5  1  1  0
  6  4  1  0
  7  6  2  0
  8  7  1  0
  9 10  1  0
  9  8  2  0
 10 15  2  0
 11 12  2  0
 11 10  1  0
 12 13  1  0
 13 14  2  0
 15 14  1  0
 15  6  1  0
 16 21  2  0
 17 16  1  0
 18 17  2  0
 18 19  1  0
 19 20  2  0
 20 21  1  0
  2 22  1  0
  7 23  1  0
  8 24  1  0
  9 25  1  0
 11 26  1  0
 12 27  1  0
 13 28  1  0
 14 29  1  0
 16 30  1  0
 18 31  1  0
 20 32  1  0
M  ISO  8  22  14  23  14  24  14  25  14  26  14  27  14  28  14  29  14
M  ISO  3  30  14  31  14  32  14
M  END
>  <minimizedAffinity>  (1) 
-5.73131371

>  <minimizedRMSD>  (1) 
0.320372701

$$$$
