
     RDKit          3D

 29 31  0  0  0  0  0  0  0  0999 V2000
   35.6800   28.8790   50.3080 C   0  0  0  0  0  0  0  0  0  0  0  0
   36.1380   30.0810   49.7700 C   0  0  0  0  0  0  0  0  0  0  0  0
   35.6270   30.4450   48.5310 C   0  0  0  0  0  0  0  0  0  0  0  0
   34.7160   29.6060   47.9260 N   0  0  0  0  0  0  0  0  0  0  0  0
   34.3040   28.4550   48.4810 C   0  0  0  0  0  0  0  0  0  0  0  0
   34.8010   28.1370   49.6500 N   0  0  0  0  0  0  0  0  0  0  0  0
   33.3440   27.7820   47.6150 C   0  0  0  0  0  0  0  0  0  0  0  0
   33.6790   27.3140   46.3640 C   0  0  0  0  0  0  0  0  0  0  0  0
   32.8070   26.6720   45.5100 C   0  0  0  0  0  0  0  0  0  0  0  0
   31.5060   26.4630   45.8920 C   0  0  0  0  0  0  0  0  0  0  0  0
   31.1080   26.9070   47.1320 C   0  0  0  0  0  0  0  0  0  0  0  0
   29.7980   26.6850   47.4930 C   0  0  0  0  0  0  0  0  0  0  0  0
   29.3340   27.1040   48.7200 C   0  0  0  0  0  0  0  0  0  0  0  0
   30.2330   27.7440   49.5540 C   0  0  0  0  0  0  0  0  0  0  0  0
   31.5310   27.9410   49.1460 C   0  0  0  0  0  0  0  0  0  0  0  0
   32.0290   27.5390   47.9320 C   0  0  0  0  0  0  0  0  0  0  0  0
   37.1200   30.9840   50.4230 C   0  0  0  0  0  0  0  0  0  0  0  0
   38.3710   30.9430   49.8710 F   0  0  0  0  0  0  0  0  0  0  0  0
   37.2580   30.6540   51.7610 F   0  0  0  0  0  0  0  0  0  0  0  0
   36.6780   32.2960   50.3410 F   0  0  0  0  0  0  0  0  0  0  0  0
   36.0516   28.5436   51.2875 H   0  0  0  0  0  0  0  0  0  0  0  0
   35.9416   31.3800   48.0444 H   0  0  0  0  0  0  0  0  0  0  0  0
   34.7139   27.4625   46.0222 H   0  0  0  0  0  0  0  0  0  0  0  0
   33.1539   26.3281   44.5244 H   0  0  0  0  0  0  0  0  0  0  0  0
   30.7978   25.9525   45.2228 H   0  0  0  0  0  0  0  0  0  0  0  0
   29.1185   26.1703   46.7977 H   0  0  0  0  0  0  0  0  0  0  0  0
   28.2904   26.9365   49.0246 H   0  0  0  0  0  0  0  0  0  0  0  0
   29.9090   28.0957   50.5446 H   0  0  0  0  0  0  0  0  0  0  0  0
   32.2150   28.4544   49.8378 H   0  0  0  0  0  0  0  0  0  0  0  0
  2  1  2  0
  2 17  1  0
  3  2  1  0
  4  5  1  0
  4  3  2  0
  5  6  2  0
  6  1  1  0
  7 16  1  0
  7  5  1  0
  8  7  2  0
  9 10  2  0
  9  8  1  0
 10 11  1  0
 11 12  1  0
 11 16  2  0
 12 13  2  0
 13 14  1  0
 15 14  2  0
 16 15  1  0
 17 19  1  0
 18 17  1  0
 20 17  1  0
  1 21  1  0
  3 22  1  0
  8 23  1  0
  9 24  1  0
 10 25  1  0
 12 26  1  0
 13 27  1  0
 14 28  1  0
 15 29  1  0
M  ISO  8  21  14  22  14  23  14  24  14  25  14  26  14  27  14  28  14
M  ISO  1  29  14
M  END
>  <minimizedAffinity>  (1) 
-5.82244492

>  <minimizedRMSD>  (1) 
1.38609064

$$$$
