
     RDKit          3D

 44 47  0  0  1  0  0  0  0  0999 V2000
   31.7850   27.9570   46.9570 C   0  0  2  0  0  0  0  0  0  0  0  0
   35.1560   29.5140   48.6430 C   0  0  0  0  0  0  0  0  0  0  0  0
   34.7220   28.3340   49.2380 C   0  0  0  0  0  0  0  0  0  0  0  0
   33.6050   27.7690   48.7350 C   0  0  0  0  0  0  0  0  0  0  0  0
   33.0000   28.3550   47.7280 C   0  0  0  0  0  0  0  0  0  0  0  0
   33.9570   29.8560   47.3230 S   0  0  0  0  0  0  0  0  0  0  0  0
   38.0310   30.8450   50.5050 C   0  0  0  0  0  0  0  0  0  0  0  0
   38.5750   31.7970   49.6350 C   0  0  0  0  0  0  0  0  0  0  0  0
   37.9420   31.9730   48.4150 C   0  0  0  0  0  0  0  0  0  0  0  0
   36.8380   31.2280   48.1180 N   0  0  0  0  0  0  0  0  0  0  0  0
   36.3730   30.3320   49.0040 C   0  0  0  0  0  0  0  0  0  0  0  0
   36.9240   30.0800   50.2380 N   0  0  0  0  0  0  0  0  0  0  0  0
   31.5980   28.8450   45.8330 C   0  0  0  0  0  0  0  0  0  0  0  0
   30.6240   27.8720   47.9450 C   0  0  0  0  0  0  0  0  0  0  0  0
   29.9580   26.6860   47.8800 O   0  0  0  0  0  0  0  0  0  0  0  0
   29.2460   26.3230   46.7540 C   0  0  0  0  0  0  0  0  0  0  0  0
   29.0860   25.2170   45.9460 C   0  0  0  0  0  0  0  0  0  0  0  0
   28.1850   25.5800   44.9660 C   0  0  0  0  0  0  0  0  0  0  0  0
   27.8360   26.8810   45.2160 C   0  0  0  0  0  0  0  0  0  0  0  0
   28.4890   27.2710   46.2800 O   0  0  0  0  0  0  0  0  0  0  0  0
   26.8850   27.6520   44.3910 C   0  0  0  0  0  0  0  0  0  0  0  0
   25.9670   27.0210   43.5760 C   0  0  0  0  0  0  0  0  0  0  0  0
   25.0830   27.7840   42.8100 C   0  0  0  0  0  0  0  0  0  0  0  0
   25.1530   29.1540   42.8900 C   0  0  0  0  0  0  0  0  0  0  0  0
   26.0740   29.7750   43.7080 C   0  0  0  0  0  0  0  0  0  0  0  0
   26.9680   29.0470   44.4830 C   0  0  0  0  0  0  0  0  0  0  0  0
   31.8765   26.9637   46.4933 H   0  0  0  0  0  0  0  0  0  0  0  0
   35.2652   27.8818   50.0809 H   0  0  0  0  0  0  0  0  0  0  0  0
   33.2087   26.8352   49.1605 H   0  0  0  0  0  0  0  0  0  0  0  0
   38.5283   30.6994   51.4753 H   0  0  0  0  0  0  0  0  0  0  0  0
   39.4667   32.3804   49.9080 H   0  0  0  0  0  0  0  0  0  0  0  0
   38.3263   32.7073   47.6918 H   0  0  0  0  0  0  0  0  0  0  0  0
   31.3843   29.8600   46.1992 H   0  0  0  0  0  0  0  0  0  0  0  0
   32.5125   28.8607   45.2220 H   0  0  0  0  0  0  0  0  0  0  0  0
   30.7548   28.4905   45.2220 H   0  0  0  0  0  0  0  0  0  0  0  0
   31.0202   27.9966   48.9636 H   0  0  0  0  0  0  0  0  0  0  0  0
   29.9094   28.6663   47.6834 H   0  0  0  0  0  0  0  0  0  0  0  0
   29.5785   24.2401   46.0600 H   0  0  0  0  0  0  0  0  0  0  0  0
   27.8183   24.9478   44.1439 H   0  0  0  0  0  0  0  0  0  0  0  0
   25.9319   25.9225   43.5300 H   0  0  0  0  0  0  0  0  0  0  0  0
   24.3449   27.2977   42.1552 H   0  0  0  0  0  0  0  0  0  0  0  0
   24.4626   29.7662   42.2913 H   0  0  0  0  0  0  0  0  0  0  0  0
   26.1012   30.8740   43.7476 H   0  0  0  0  0  0  0  0  0  0  0  0
   27.7032   29.5408   45.1354 H   0  0  0  0  0  0  0  0  0  0  0  0
  1  5  1  0
  1 14  1  0
  2 11  1  0
  2  3  2  0
  4  3  1  0
  5  4  2  0
  6  5  1  0
  6  2  1  0
  8  7  2  0
  9  8  1  0
 10  9  2  0
 10 11  1  0
 11 12  2  0
 12  7  1  0
 13  1  1  0
 15 14  1  0
 16 15  1  0
 17 16  2  0
 18 19  2  0
 18 17  1  0
 19 20  1  0
 20 16  1  0
 21 26  1  0
 21 19  1  0
 22 21  2  0
 23 24  2  0
 23 22  1  0
 24 25  1  0
 25 26  2  0
  1 27  1  6
  3 28  1  0
  4 29  1  0
  7 30  1  0
  8 31  1  0
  9 32  1  0
 13 33  1  0
 13 34  1  0
 13 35  1  0
 14 36  1  0
 14 37  1  0
 17 38  1  0
 18 39  1  0
 22 40  1  0
 23 41  1  0
 24 42  1  0
 25 43  1  0
 26 44  1  0
M  ISO  8  27   8  28  14  29  14  30  14  31  14  32  14  33   8  34   8
M  ISO  8  35   8  36   8  37   8  38  14  39  14  40  14  41  14  42  14
M  ISO  2  43  14  44  14
M  END
>  <minimizedAffinity>  (1) 
-5.27101469

>  <minimizedRMSD>  (1) 
0.241997957

$$$$
