
     RDKit          3D

 43 47  0  0  1  0  0  0  0  0999 V2000
   34.5010   30.2780   47.4850 C   0  0  0  0  0  0  0  0  0  0  0  0
   35.6750   30.2090   48.2280 C   0  0  0  0  0  0  0  0  0  0  0  0
   35.7840   29.0670   49.0830 C   0  0  0  0  0  0  0  0  0  0  0  0
   34.7740   28.1560   49.1170 N   0  0  0  0  0  0  0  0  0  0  0  0
   33.6640   28.2890   48.3680 C   0  0  0  0  0  0  0  0  0  0  0  0
   33.5440   29.3410   47.5690 N   0  0  0  0  0  0  0  0  0  0  0  0
   36.8020   31.1250   48.2640 C   0  0  0  0  0  0  0  0  0  0  0  0
   36.8640   31.7760   49.4630 C   0  0  0  0  0  0  0  0  0  0  0  0
   37.8760   32.7140   49.7230 C   0  0  0  0  0  0  0  0  0  0  0  0
   38.8230   32.9830   48.7480 C   0  0  0  0  0  0  0  0  0  0  0  0
   38.7340   32.3070   47.5400 C   0  0  0  0  0  0  0  0  0  0  0  0
   39.6400   32.5130   46.5020 C   0  0  0  0  0  0  0  0  0  0  0  0
   39.4980   31.8070   45.3170 C   0  0  0  0  0  0  0  0  0  0  0  0
   38.4890   30.9050   45.1290 C   0  0  0  0  0  0  0  0  0  0  0  0
   37.5900   30.6990   46.1550 C   0  0  0  0  0  0  0  0  0  0  0  0
   37.7450   31.4030   47.3130 C   0  0  0  0  0  0  0  0  0  0  0  0
   32.6010   27.2670   48.4500 C   0  0  1  0  0  0  0  0  0  0  0  0
   31.5830   27.1890   47.3610 C   0  0  0  0  0  0  0  0  0  0  0  0
   32.6200   26.0770   47.5750 C   0  0  1  0  0  0  0  0  0  0  0  0
   33.5000   25.9100   46.4160 C   0  0  0  0  0  0  0  0  0  0  0  0
   33.6880   26.6680   45.2800 C   0  0  0  0  0  0  0  0  0  0  0  0
   34.5890   26.2690   44.3140 C   0  0  0  0  0  0  0  0  0  0  0  0
   35.3460   25.1190   44.4080 C   0  0  0  0  0  0  0  0  0  0  0  0
   35.1630   24.3550   45.5420 C   0  0  0  0  0  0  0  0  0  0  0  0
   34.2570   24.7370   46.5380 C   0  0  0  0  0  0  0  0  0  0  0  0
   34.3520   31.1299   46.8052 H   0  0  0  0  0  0  0  0  0  0  0  0
   36.6780   28.9265   49.7084 H   0  0  0  0  0  0  0  0  0  0  0  0
   36.1107   31.5626   50.2357 H   0  0  0  0  0  0  0  0  0  0  0  0
   37.9167   33.2311   50.6930 H   0  0  0  0  0  0  0  0  0  0  0  0
   39.6251   33.7141   48.9273 H   0  0  0  0  0  0  0  0  0  0  0  0
   40.4638   33.2320   46.6218 H   0  0  0  0  0  0  0  0  0  0  0  0
   40.2191   31.9782   44.5041 H   0  0  0  0  0  0  0  0  0  0  0  0
   38.3956   30.3554   44.1807 H   0  0  0  0  0  0  0  0  0  0  0  0
   36.7644   29.9811   46.0414 H   0  0  0  0  0  0  0  0  0  0  0  0
   32.5609   27.3984   49.5414 H   0  0  0  0  0  0  0  0  0  0  0  0
   31.6543   27.8528   46.4868 H   0  0  0  0  0  0  0  0  0  0  0  0
   30.4858   27.2418   47.3038 H   0  0  0  0  0  0  0  0  0  0  0  0
   32.6860   25.0090   47.8302 H   0  0  0  0  0  0  0  0  0  0  0  0
   33.1158   27.5974   45.1426 H   0  0  0  0  0  0  0  0  0  0  0  0
   34.7102   26.9010   43.4219 H   0  0  0  0  0  0  0  0  0  0  0  0
   36.0571   24.8272   43.6211 H   0  0  0  0  0  0  0  0  0  0  0  0
   35.7407   23.4271   45.6659 H   0  0  0  0  0  0  0  0  0  0  0  0
   34.1372   24.1062   47.4312 H   0  0  0  0  0  0  0  0  0  0  0  0
  1  6  2  0
  1  2  1  0
  2  7  1  0
  2  3  2  0
  3  4  1  0
  5 17  1  0
  5  4  2  0
  6  5  1  0
  7  8  2  0
  8  9  1  0
 10  9  2  0
 11 10  1  0
 12 11  2  0
 13 12  1  0
 14 13  2  0
 14 15  1  0
 15 16  2  0
 16 11  1  0
 16  7  1  0
 18 19  1  0
 18 17  1  0
 19 17  1  0
 20 25  1  0
 20 19  1  0
 21 20  2  0
 22 23  2  0
 22 21  1  0
 23 24  1  0
 24 25  2  0
  1 26  1  0
  3 27  1  0
  8 28  1  0
  9 29  1  0
 10 30  1  0
 12 31  1  0
 13 32  1  0
 14 33  1  0
 15 34  1  0
 17 35  1  1
 18 36  1  0
 18 37  1  0
 19 38  1  1
 21 39  1  0
 22 40  1  0
 23 41  1  0
 24 42  1  0
 25 43  1  0
M  ISO  8  26  14  27  14  28  14  29  14  30  14  31  14  32  14  33  14
M  ISO  8  34  14  35  13  36  13  37  13  38  13  39  14  40  14  41  14
M  ISO  2  42  14  43  14
M  END
>  <minimizedAffinity>  (1) 
-6.92238092

>  <minimizedRMSD>  (1) 
1.84901273

$$$$
