
     RDKit          3D

 33 36  0  0  0  0  0  0  0  0999 V2000
   37.8038   31.8198   49.0683 N   0  0  0  0  0  0  0  0  0  0  0  0
   38.1989   33.0349   49.4718 C   0  0  0  0  0  0  0  0  0  0  0  0
   38.9458   33.5965   48.4903 N   0  0  0  0  0  0  0  0  0  0  0  0
   39.0050   32.7198   47.4869 C   0  0  0  0  0  0  0  0  0  0  0  0
   39.6061   32.7153   46.2385 C   0  0  0  0  0  0  0  0  0  0  0  0
   39.4977   31.6674   45.4100 N   0  0  0  0  0  0  0  0  0  0  0  0
   38.7967   30.5608   45.7486 C   0  0  0  0  0  0  0  0  0  0  0  0
   38.2175   30.5712   46.9575 N   0  0  0  0  0  0  0  0  0  0  0  0
   38.2937   31.5899   47.8235 C   0  0  0  0  0  0  0  0  0  0  0  0
   35.6931   30.6678   49.3980 C   0  0  0  0  0  0  0  0  0  0  0  0
   37.0039   30.9354   49.8347 C   0  0  0  0  0  0  0  0  0  0  0  0
   37.3945   30.2922   51.0002 C   0  0  0  0  0  0  0  0  0  0  0  0
   36.5401   29.4629   51.6536 N   0  0  0  0  0  0  0  0  0  0  0  0
   35.2936   29.2356   51.1994 C   0  0  0  0  0  0  0  0  0  0  0  0
   34.8788   29.8367   50.0790 N   0  0  0  0  0  0  0  0  0  0  0  0
   40.3517   33.8328   45.8185 N   0  0  0  0  0  0  0  0  0  0  0  0
   38.0207   33.5829   50.3911 H   0  0  0  0  0  0  0  0  0  0  0  0
   38.6726   29.6969   45.1375 H   0  0  0  0  0  0  0  0  0  0  0  0
   35.3458   31.1498   48.4905 H   0  0  0  0  0  0  0  0  0  0  0  0
   38.3959   30.4860   51.3490 H   0  0  0  0  0  0  0  0  0  0  0  0
   39.7220   34.2844   45.0959 H   0  0  0  0  0  0  0  0  0  0  0  0
   41.2909   34.1215   46.1533 H   0  0  0  0  0  0  0  0  0  0  0  0
   34.3508   28.3518   51.8757 C   0  0  0  0  0  0  0  0  0  0  0  0
   33.9892   28.6500   53.1713 C   0  0  0  0  0  0  0  0  0  0  0  0
   33.0998   27.8514   53.8665 C   0  0  0  0  0  0  0  0  0  0  0  0
   32.7969   28.0574   54.8804 H   0  0  0  0  0  0  0  0  0  0  0  0
   32.5529   26.7436   53.2916 C   0  0  0  0  0  0  0  0  0  0  0  0
   32.9248   26.4544   51.9878 C   0  0  0  0  0  0  0  0  0  0  0  0
   32.5249   25.5894   51.4781 H   0  0  0  0  0  0  0  0  0  0  0  0
   33.8105   27.2359   51.2731 C   0  0  0  0  0  0  0  0  0  0  0  0
   34.3538   29.4996   53.7350 H   0  0  0  0  0  0  0  0  0  0  0  0
   31.8481   26.1025   53.8291 H   0  0  0  0  0  0  0  0  0  0  0  0
   34.1034   27.0148   50.2571 H   0  0  0  0  0  0  0  0  0  0  0  0
  1  2  1  0
  1 11  1  0
  3  2  2  0
  4  9  2  0
  4  3  1  0
  5  4  1  0
  6  7  1  0
  6  5  2  0
  7  8  2  0
  8  9  1  0
  9  1  1  0
 10 11  2  0
 10 15  1  0
 11 12  1  0
 12 13  2  0
 14 13  1  0
 15 14  2  0
 16  5  1  0
  2 17  1  0
  7 18  1  0
 10 19  1  0
 12 20  1  0
 16 21  1  0
 16 22  1  0
 23 24  2  0
 24 25  1  0
 25 26  1  0
 25 27  2  0
 27 28  1  0
 28 29  1  0
 28 30  2  0
 30 23  1  0
 24 31  1  0
 27 32  1  0
 30 33  1  0
 14 23  1  0
M  ISO  6  17  14  18  14  19  14  20  14  26  16  29  16
M  END
>  <DihAtoms>  (1) 
12,13,22,23

>  <DihDeg>  (1) 
0.0004529727873597875

$$$$
