
     RDKit          3D

 29 30  0  0  0  0  0  0  0  0999 V2000
   36.9290   30.6800   46.9980 N   0  0  0  0  0  0  0  0  0  0  0  0
   36.2810   30.3370   45.8640 C   0  0  0  0  0  0  0  0  0  0  0  0
   36.8180   30.6540   44.6290 C   0  0  0  0  0  0  0  0  0  0  0  0
   38.0140   31.3200   44.6750 C   0  0  0  0  0  0  0  0  0  0  0  0
   38.5320   31.6250   43.5510 O   0  0  0  0  0  0  0  0  0  0  0  0
   38.6920   31.6800   45.7660 N   0  0  0  0  0  0  0  0  0  0  0  0
   38.0960   31.3300   46.9420 C   0  0  0  0  0  0  0  0  0  0  0  0
   38.6700   31.6340   48.0200 O   0  0  0  0  0  0  0  0  0  0  0  0
   37.1720   29.6150   49.0990 C   0  0  0  0  0  0  0  0  0  0  0  0
   36.3320   30.3280   48.2210 C   0  0  0  0  0  0  0  0  0  0  0  0
   35.0410   30.6040   48.6360 C   0  0  0  0  0  0  0  0  0  0  0  0
   34.6370   30.1820   49.8600 N   0  0  0  0  0  0  0  0  0  0  0  0
   35.4680   29.4930   50.6940 C   0  0  0  0  0  0  0  0  0  0  0  0
   36.7380   29.2150   50.3000 N   0  0  0  0  0  0  0  0  0  0  0  0
   39.9350   32.3720   45.8110 C   0  0  0  0  0  0  0  0  0  0  0  0
   41.0480   31.4080   45.4560 C   0  0  0  0  0  0  0  0  0  0  0  0
   39.9970   33.6450   45.0350 C   0  0  0  0  0  0  0  0  0  0  0  0
   35.3212   29.8028   45.9225 H   0  0  0  0  0  0  0  0  0  0  0  0
   36.3225   30.3913   43.6827 H   0  0  0  0  0  0  0  0  0  0  0  0
   38.2025   29.3831   48.7920 H   0  0  0  0  0  0  0  0  0  0  0  0
   34.3517   31.1582   47.9819 H   0  0  0  0  0  0  0  0  0  0  0  0
   35.1113   29.1640   51.6812 H   0  0  0  0  0  0  0  0  0  0  0  0
   40.0624   32.7264   46.8445 H   0  0  0  0  0  0  0  0  0  0  0  0
   41.5012   31.0155   46.3783 H   0  0  0  0  0  0  0  0  0  0  0  0
   40.6376   30.5753   44.8660 H   0  0  0  0  0  0  0  0  0  0  0  0
   41.8136   31.9331   44.8660 H   0  0  0  0  0  0  0  0  0  0  0  0
   40.0385   34.4965   45.7301 H   0  0  0  0  0  0  0  0  0  0  0  0
   40.8962   33.6448   44.4014 H   0  0  0  0  0  0  0  0  0  0  0  0
   39.1020   33.7322   44.4014 H   0  0  0  0  0  0  0  0  0  0  0  0
  1 10  1  0
  2  1  1  0
  3  4  1  0
  3  2  2  0
  4  6  1  0
  5  4  2  0
  6 15  1  0
  6  7  1  0
  7  1  1  0
  7  8  2  0
  9 14  2  0
 10 11  2  0
 10  9  1  0
 11 12  1  0
 12 13  2  0
 14 13  1  0
 16 15  1  0
 17 15  1  0
  2 18  1  0
  3 19  1  0
  9 20  1  0
 11 21  1  0
 13 22  1  0
 15 23  1  0
 16 24  1  0
 16 25  1  0
 16 26  1  0
 17 27  1  0
 17 28  1  0
 17 29  1  0
M  ISO  8  18  14  19  14  20  14  21  14  22  14  23   8  24   8  25   8
M  ISO  4  26   8  27   8  28   8  29   8
M  END
>  <minimizedAffinity>  (1) 
-4.78890848

>  <minimizedRMSD>  (1) 
2.43896723

$$$$
