
     RDKit          3D

 52 55  0  0  0  0  0  0  0  0999 V2000
   36.2310   31.2560   42.5650 C   0  0  0  0  0  0  0  0  0  0  0  0
   37.4390   31.0100   41.8950 C   0  0  0  0  0  0  0  0  0  0  0  0
   38.5180   30.6870   42.6630 C   0  0  0  0  0  0  0  0  0  0  0  0
   38.3210   30.6380   43.9720 N   0  0  0  0  0  0  0  0  0  0  0  0
   37.2460   30.8490   44.6650 C   0  0  0  0  0  0  0  0  0  0  0  0
   36.2050   31.1620   43.9000 N   0  0  0  0  0  0  0  0  0  0  0  0
   36.9270   30.8210   46.0730 C   0  0  0  0  0  0  0  0  0  0  0  0
   35.9020   30.0450   46.6100 C   0  0  0  0  0  0  0  0  0  0  0  0
   35.5730   29.9940   47.9280 C   0  0  0  0  0  0  0  0  0  0  0  0
   36.2730   30.7430   48.8370 C   0  0  0  0  0  0  0  0  0  0  0  0
   37.2740   31.5120   48.3780 C   0  0  0  0  0  0  0  0  0  0  0  0
   37.9770   32.2670   49.3030 C   0  0  0  0  0  0  0  0  0  0  0  0
   39.0070   33.0750   48.9260 C   0  0  0  0  0  0  0  0  0  0  0  0
   39.3390   33.1250   47.5810 C   0  0  0  0  0  0  0  0  0  0  0  0
   38.6220   32.3660   46.7020 C   0  0  0  0  0  0  0  0  0  0  0  0
   37.5990   31.5560   47.0340 C   0  0  0  0  0  0  0  0  0  0  0  0
   35.9160   30.6700   50.1660 O   0  0  0  0  0  0  0  0  0  0  0  0
   36.4290   29.6400   50.9960 C   0  0  0  0  0  0  0  0  0  0  0  0
   37.2460   28.7400   50.3820 F   0  0  0  0  0  0  0  0  0  0  0  0
   37.2110   30.2530   51.9730 F   0  0  0  0  0  0  0  0  0  0  0  0
   35.3260   29.0100   51.5630 F   0  0  0  0  0  0  0  0  0  0  0  0
   39.8070   30.4070   42.1440 N   0  0  0  0  0  0  0  0  0  0  0  0
   40.8790   29.9670   42.9520 C   0  0  0  0  0  0  0  0  0  0  0  0
   41.0210   30.5010   44.1220 N   0  0  0  0  0  0  0  0  0  0  0  0
   41.7670   28.9660   42.4820 N   0  0  0  0  0  0  0  0  0  0  0  0
   41.7190   30.2670   44.8190 H   0  0  0  0  0  0  0  0  0  0  0  0
   37.5730   31.0840   40.4840 N   0  0  0  0  0  0  0  0  0  0  0  0
   38.2770   32.0120   39.6160 C   0  0  0  0  0  0  0  0  0  0  0  0
   39.2400   31.2300   38.7510 C   0  0  0  0  0  0  0  0  0  0  0  0
   39.2630   29.7660   39.1010 C   0  0  0  0  0  0  0  0  0  0  0  0
   37.9140   29.1330   39.1420 C   0  0  0  0  0  0  0  0  0  0  0  0
   36.8890   30.0540   39.7250 C   0  0  0  0  0  0  0  0  0  0  0  0
   35.3227   31.5210   42.0039 H   0  0  0  0  0  0  0  0  0  0  0  0
   35.3146   29.4270   45.9150 H   0  0  0  0  0  0  0  0  0  0  0  0
   34.7456   29.3520   48.2644 H   0  0  0  0  0  0  0  0  0  0  0  0
   37.6972   32.2128   50.3654 H   0  0  0  0  0  0  0  0  0  0  0  0
   39.5594   33.6707   49.6676 H   0  0  0  0  0  0  0  0  0  0  0  0
   40.1632   33.7631   47.2295 H   0  0  0  0  0  0  0  0  0  0  0  0
   38.9017   32.4203   45.6395 H   0  0  0  0  0  0  0  0  0  0  0  0
   39.9690   30.5296   41.1342 H   0  0  0  0  0  0  0  0  0  0  0  0
   42.5468   28.6493   43.0758 H   0  0  0  0  0  0  0  0  0  0  0  0
   41.6321   28.5557   41.5469 H   0  0  0  0  0  0  0  0  0  0  0  0
   37.5548   32.5436   38.9789 H   0  0  0  0  0  0  0  0  0  0  0  0
   38.8281   32.7470   40.2210 H   0  0  0  0  0  0  0  0  0  0  0  0
   40.2510   31.6418   38.8858 H   0  0  0  0  0  0  0  0  0  0  0  0
   38.9049   31.3212   37.7073 H   0  0  0  0  0  0  0  0  0  0  0  0
   39.8697   29.2398   38.3493 H   0  0  0  0  0  0  0  0  0  0  0  0
   39.6836   29.6868   40.1143 H   0  0  0  0  0  0  0  0  0  0  0  0
   37.6134   28.8674   38.1177 H   0  0  0  0  0  0  0  0  0  0  0  0
   37.9738   28.2384   39.7793 H   0  0  0  0  0  0  0  0  0  0  0  0
   36.3032   30.5162   38.9168 H   0  0  0  0  0  0  0  0  0  0  0  0
   36.2079   29.4923   40.3813 H   0  0  0  0  0  0  0  0  0  0  0  0
  1  6  2  0
  2  1  1  0
  2  3  2  0
  3  4  1  0
  4  5  2  0
  5  7  1  0
  6  5  1  0
  7  8  2  0
  7 16  1  0
  8  9  1  0
  9 10  2  0
 10 17  1  0
 11 10  1  0
 11 12  2  0
 13 12  1  0
 14 13  2  0
 15 16  2  0
 15 14  1  0
 16 11  1  0
 17 18  1  0
 18 21  1  0
 18 20  1  0
 19 18  1  0
 22  3  1  0
 22 23  1  0
 23 24  2  0
 24 26  1  0
 25 23  1  0
 27  2  1  0
 28 27  1  0
 29 30  1  0
 29 28  1  0
 30 31  1  0
 31 32  1  0
 32 27  1  0
  1 33  1  0
  8 34  1  0
  9 35  1  0
 12 36  1  0
 13 37  1  0
 14 38  1  0
 15 39  1  0
 22 40  1  0
 25 41  1  0
 25 42  1  0
 28 43  1  0
 28 44  1  0
 29 45  1  0
 29 46  1  0
 30 47  1  0
 30 48  1  0
 31 49  1  0
 31 50  1  0
 32 51  1  0
 32 52  1  0
M  END
>  <minimizedAffinity>  (1) 
-7.50895405

>  <minimizedRMSD>  (1) 
0.829574943

$$$$
