
     RDKit          3D

 28 29  0  0  0  0  0  0  0  0999 V2000
   37.9110   30.5380   47.6990 C   0  0  0  0  0  0  0  0  0  0  0  0
   40.0290   32.9470   45.8800 C   0  0  0  0  0  0  0  0  0  0  0  0
   39.3020   33.1490   44.6980 C   0  0  0  0  0  0  0  0  0  0  0  0
   38.0950   32.4660   44.5220 C   0  0  0  0  0  0  0  0  0  0  0  0
   37.6910   31.6310   45.5290 N   0  0  0  0  0  0  0  0  0  0  0  0
   38.4080   31.4560   46.6520 C   0  0  0  0  0  0  0  0  0  0  0  0
   39.5720   32.1180   46.8150 N   0  0  0  0  0  0  0  0  0  0  0  0
   36.8530   31.1150   48.4900 N   0  0  0  0  0  0  0  0  0  0  0  0
   37.2700   31.5190   49.7980 C   0  0  0  0  0  0  0  0  0  0  0  0
   37.1160   30.5230   50.8880 C   0  0  0  0  0  0  0  0  0  0  0  0
   35.9620   29.5740   50.7490 C   0  0  0  0  0  0  0  0  0  0  0  0
   35.9150   29.0870   49.3030 C   0  0  0  0  0  0  0  0  0  0  0  0
   35.6450   30.3340   48.4710 C   0  0  0  0  0  0  0  0  0  0  0  0
   38.7470   30.2789   48.3653 H   0  0  0  0  0  0  0  0  0  0  0  0
   37.5017   29.6502   47.1947 H   0  0  0  0  0  0  0  0  0  0  0  0
   40.9809   33.4760   46.0348 H   0  0  0  0  0  0  0  0  0  0  0  0
   39.6753   33.8336   43.9221 H   0  0  0  0  0  0  0  0  0  0  0  0
   37.4934   32.5944   43.6101 H   0  0  0  0  0  0  0  0  0  0  0  0
   38.3355   31.7862   49.7397 H   0  0  0  0  0  0  0  0  0  0  0  0
   36.6004   32.3483   50.0698 H   0  0  0  0  0  0  0  0  0  0  0  0
   38.0393   29.9268   50.9330 H   0  0  0  0  0  0  0  0  0  0  0  0
   36.9143   31.1063   51.7985 H   0  0  0  0  0  0  0  0  0  0  0  0
   36.1006   28.7179   51.4257 H   0  0  0  0  0  0  0  0  0  0  0  0
   35.0208   30.0802   51.0097 H   0  0  0  0  0  0  0  0  0  0  0  0
   36.8754   28.6330   49.0173 H   0  0  0  0  0  0  0  0  0  0  0  0
   35.1436   28.3173   49.1530 H   0  0  0  0  0  0  0  0  0  0  0  0
   34.8153   30.9088   48.9083 H   0  0  0  0  0  0  0  0  0  0  0  0
   35.3624   30.0685   47.4416 H   0  0  0  0  0  0  0  0  0  0  0  0
  1  8  1  0
  2  7  2  0
  3  2  1  0
  4  3  2  0
  4  5  1  0
  5  6  2  0
  6  7  1  0
  6  1  1  0
  8  9  1  0
  9 10  1  0
 11 10  1  0
 12 11  1  0
 13  8  1  0
 13 12  1  0
  1 14  1  0
  1 15  1  0
  2 16  1  0
  3 17  1  0
  4 18  1  0
  9 19  1  0
  9 20  1  0
 10 21  1  0
 10 22  1  0
 11 23  1  0
 11 24  1  0
 12 25  1  0
 12 26  1  0
 13 27  1  0
 13 28  1  0
M  ISO  8  14   8  15   8  16  14  17  14  18  14  19  13  20  13  21  13
M  ISO  7  22  13  23  13  24  13  25  13  26  13  27  13  28  13
M  END
>  <minimizedAffinity>  (1) 
-4.73797941

>  <minimizedRMSD>  (1) 
4.73885918

$$$$
