
     RDKit          3D

 35 37  0  0  1  0  0  0  0  0999 V2000
   36.3240   30.2450   50.3910 C   0  0  2  0  0  0  0  0  0  0  0  0
   35.5750   29.2830   51.2350 C   0  0  0  0  0  0  0  0  0  0  0  0
   35.6300   29.0570   49.7650 C   0  0  1  0  0  0  0  0  0  0  0  0
   34.4790   29.2900   48.9280 N   0  0  0  0  0  0  0  0  0  0  0  0
   34.8880   29.4450   47.5520 C   0  0  0  0  0  0  0  0  0  0  0  0
   33.7590   29.2250   46.5730 C   0  0  0  0  0  0  0  0  0  0  0  0
   33.4700   27.7550   46.5590 C   0  0  0  0  0  0  0  0  0  0  0  0
   33.7780   27.1520   47.9290 C   0  0  0  0  0  0  0  0  0  0  0  0
   33.5100   28.2180   48.9870 C   0  0  0  0  0  0  0  0  0  0  0  0
   37.8360   30.1620   50.3020 C   0  0  0  0  0  0  0  0  0  0  0  0
   38.9580   33.2920   48.7050 C   0  0  0  0  0  0  0  0  0  0  0  0
   39.0610   32.9430   47.3520 C   0  0  0  0  0  0  0  0  0  0  0  0
   38.7400   31.6290   47.0110 C   0  0  0  0  0  0  0  0  0  0  0  0
   38.3510   30.7690   47.9980 N   0  0  0  0  0  0  0  0  0  0  0  0
   38.2680   31.1600   49.2980 C   0  0  0  0  0  0  0  0  0  0  0  0
   38.5720   32.4230   49.6470 N   0  0  0  0  0  0  0  0  0  0  0  0
   36.3000   31.3424   50.3200 H   0  0  0  0  0  0  0  0  0  0  0  0
   36.1207   28.6098   51.9125 H   0  0  0  0  0  0  0  0  0  0  0  0
   34.7627   29.3731   51.9713 H   0  0  0  0  0  0  0  0  0  0  0  0
   35.9206   28.2071   49.1300 H   0  0  0  0  0  0  0  0  0  0  0  0
   35.2775   30.4645   47.4147 H   0  0  0  0  0  0  0  0  0  0  0  0
   35.6539   28.6822   47.3482 H   0  0  0  0  0  0  0  0  0  0  0  0
   32.8666   29.7822   46.8943 H   0  0  0  0  0  0  0  0  0  0  0  0
   34.0358   29.5797   45.5692 H   0  0  0  0  0  0  0  0  0  0  0  0
   32.4084   27.5941   46.3199 H   0  0  0  0  0  0  0  0  0  0  0  0
   34.0998   27.2690   45.7992 H   0  0  0  0  0  0  0  0  0  0  0  0
   33.1316   26.2798   48.1064 H   0  0  0  0  0  0  0  0  0  0  0  0
   34.8274   26.8253   47.9744 H   0  0  0  0  0  0  0  0  0  0  0  0
   33.5557   27.7513   49.9820 H   0  0  0  0  0  0  0  0  0  0  0  0
   32.5149   28.6462   48.7960 H   0  0  0  0  0  0  0  0  0  0  0  0
   38.2847   30.3917   51.2797 H   0  0  0  0  0  0  0  0  0  0  0  0
   38.1563   29.1505   50.0117 H   0  0  0  0  0  0  0  0  0  0  0  0
   39.2042   34.3212   49.0051 H   0  0  0  0  0  0  0  0  0  0  0  0
   39.3805   33.6722   46.5929 H   0  0  0  0  0  0  0  0  0  0  0  0
   38.7991   31.2915   45.9657 H   0  0  0  0  0  0  0  0  0  0  0  0
  1  2  1  0
  3  1  1  0
  3  2  1  0
  4  9  1  0
  4  3  1  0
  5  4  1  0
  6  5  1  0
  7  6  1  0
  7  8  1  0
  8  9  1  0
 10  1  1  0
 11 16  2  0
 12 11  1  0
 13 12  2  0
 13 14  1  0
 14 15  2  0
 15 16  1  0
 15 10  1  0
  1 17  1  6
  2 18  1  0
  2 19  1  0
  3 20  1  1
  5 21  1  0
  5 22  1  0
  6 23  1  0
  6 24  1  0
  7 25  1  0
  7 26  1  0
  8 27  1  0
  8 28  1  0
  9 29  1  0
  9 30  1  0
 10 31  1  0
 10 32  1  0
 11 33  1  0
 12 34  1  0
 13 35  1  0
M  ISO  8  17  13  18  13  19  13  20  13  21  13  22  13  23  13  24  13
M  ISO  8  25  13  26  13  27  13  28  13  29  13  30  13  31   8  32   8
M  ISO  3  33  14  34  14  35  14
M  END
>  <minimizedAffinity>  (1) 
-5.05715561

>  <minimizedRMSD>  (1) 
1.66178584

$$$$
