
     RDKit          3D

 50 53  0  0  0  0  0  0  0  0999 V2000
   36.4178   30.9601   48.7648 N   0  0  0  0  0  0  0  0  0  0  0  0
   36.3932   31.7251   49.8732 C   0  0  0  0  0  0  0  0  0  0  0  0
   37.3669   32.6614   49.7847 N   0  0  0  0  0  0  0  0  0  0  0  0
   37.9905   32.4599   48.6061 C   0  0  0  0  0  0  0  0  0  0  0  0
   39.0442   33.0810   47.9594 C   0  0  0  0  0  0  0  0  0  0  0  0
   39.4725   32.6652   46.7608 N   0  0  0  0  0  0  0  0  0  0  0  0
   38.8976   31.6193   46.1249 C   0  0  0  0  0  0  0  0  0  0  0  0
   37.8762   31.0201   46.7545 N   0  0  0  0  0  0  0  0  0  0  0  0
   37.4090   31.3935   47.9488 C   0  0  0  0  0  0  0  0  0  0  0  0
   39.6792   34.1784   48.5770 N   0  0  0  0  0  0  0  0  0  0  0  0
   34.6637   29.9832   47.4038 C   0  0  0  0  0  0  0  0  0  0  0  0
   35.5271   29.8846   48.5201 C   0  0  0  0  0  0  0  0  0  0  0  0
   35.4221   28.7347   49.2786 C   0  0  0  0  0  0  0  0  0  0  0  0
   34.5218   27.7896   48.9214 N   0  0  0  0  0  0  0  0  0  0  0  0
   33.7182   27.9013   47.8654 C   0  0  0  0  0  0  0  0  0  0  0  0
   33.7837   29.0040   47.0961 N   0  0  0  0  0  0  0  0  0  0  0  0
   32.7645   26.8315   47.5028 C   0  0  0  0  0  0  0  0  0  0  0  0
   31.5401   26.9013   48.4371 C   0  0  0  0  0  0  0  0  0  0  0  0
   32.1656   27.1166   46.1091 C   0  0  0  0  0  0  0  0  0  0  0  0
   33.3070   25.4691   47.4413 C   0  0  0  0  0  0  0  0  0  0  0  0
   35.7403   31.6719   50.7404 H   0  0  0  0  0  0  0  0  0  0  0  0
   39.2057   31.2431   45.1582 H   0  0  0  0  0  0  0  0  0  0  0  0
   39.2648   34.8708   49.2352 H   0  0  0  0  0  0  0  0  0  0  0  0
   40.6650   34.4607   48.4642 H   0  0  0  0  0  0  0  0  0  0  0  0
   34.7197   30.8582   46.8002 H   0  0  0  0  0  0  0  0  0  0  0  0
   36.1019   28.7168   50.1067 H   0  0  0  0  0  0  0  0  0  0  0  0
   31.7909   27.6270   49.2589 H   0  0  0  0  0  0  0  0  0  0  0  0
   30.6514   27.3121   47.9445 H   0  0  0  0  0  0  0  0  0  0  0  0
   31.3222   25.9287   48.8720 H   0  0  0  0  0  0  0  0  0  0  0  0
   31.8413   28.1683   46.1201 H   0  0  0  0  0  0  0  0  0  0  0  0
   32.9831   27.0174   45.3773 H   0  0  0  0  0  0  0  0  0  0  0  0
   31.3201   26.4469   45.9620 H   0  0  0  0  0  0  0  0  0  0  0  0
   33.6537   25.1759   48.4660 H   0  0  0  0  0  0  0  0  0  0  0  0
   32.4426   24.7763   47.2219 H   0  0  0  0  0  0  0  0  0  0  0  0
   34.3657   25.2391   46.4965 N   0  0  0  0  0  0  0  0  0  0  0  0
   34.0568   23.9902   45.7222 C   0  0  0  0  0  0  0  0  0  0  0  0
   34.9324   24.1462   44.4777 C   0  0  0  0  0  0  0  0  0  0  0  0
   36.3546   23.9276   44.9513 C   0  0  0  0  0  0  0  0  0  0  0  0
   37.0353   24.6593   44.4777 H   0  0  0  0  0  0  0  0  0  0  0  0
   36.4699   23.9190   46.4364 C   0  0  0  0  0  0  0  0  0  0  0  0
   35.6263   24.9077   47.1751 C   0  0  0  0  0  0  0  0  0  0  0  0
   32.9848   23.9607   45.5005 H   0  0  0  0  0  0  0  0  0  0  0  0
   34.3554   23.0966   46.2865 H   0  0  0  0  0  0  0  0  0  0  0  0
   34.6317   23.4842   43.6526 H   0  0  0  0  0  0  0  0  0  0  0  0
   34.8304   25.2174   44.1659 H   0  0  0  0  0  0  0  0  0  0  0  0
   36.6202   22.8983   44.6019 H   0  0  0  0  0  0  0  0  0  0  0  0
   36.3098   22.8704   46.8313 H   0  0  0  0  0  0  0  0  0  0  0  0
   37.5504   24.1228   46.6971 H   0  0  0  0  0  0  0  0  0  0  0  0
   36.2077   25.8202   47.3539 H   0  0  0  0  0  0  0  0  0  0  0  0
   35.3947   24.4121   48.1657 H   0  0  0  0  0  0  0  0  0  0  0  0
  1  2  1  0
  3  2  2  0
  4  3  1  0
  5 10  1  0
  5  4  2  0
  6  5  1  0
  7  8  1  0
  7  6  2  0
  8  9  2  0
  9  4  1  0
  9  1  1  0
 11 12  2  0
 12  1  1  0
 12 13  1  0
 14 13  2  0
 15 14  1  0
 16 11  1  0
 16 15  2  0
 17 15  1  0
 17 18  1  0
 19 17  1  0
 20 17  1  0
  2 21  1  0
  7 22  1  0
 10 23  1  0
 10 24  1  0
 11 25  1  0
 13 26  1  0
 18 27  1  0
 18 28  1  0
 18 29  1  0
 19 30  1  0
 19 31  1  0
 19 32  1  0
 20 33  1  0
 20 34  1  0
 35 36  1  0
 36 37  1  0
 37 38  1  0
 38 39  1  0
 38 40  1  0
 40 41  1  0
 41 35  1  0
 36 42  1  0
 36 43  1  0
 37 44  1  0
 37 45  1  0
 38 46  1  0
 40 47  1  0
 40 48  1  0
 41 49  1  0
 41 50  1  0
 20 35  1  0
M  ISO  8  21  14  22  14  25  14  26  14  27   8  28   8  29   8  30   8
M  ISO  5  31   8  32   8  33   8  34   8  39  15
M  END
>  <DihAtoms>  (1) 
16,19,34,35

>  <DihDeg>  (1) 
-162.67512319528916

$$$$
