
     RDKit          3D

 27 28  0  0  0  0  0  0  0  0999 V2000
   37.3460   30.5670   49.1230 C   0  0  0  0  0  0  0  0  0  0  0  0
   37.1570   31.7200   49.9320 C   0  0  0  0  0  0  0  0  0  0  0  0
   37.7870   32.9020   49.5200 C   0  0  0  0  0  0  0  0  0  0  0  0
   38.5300   32.8690   48.3870 N   0  0  0  0  0  0  0  0  0  0  0  0
   38.6830   31.7620   47.6550 C   0  0  0  0  0  0  0  0  0  0  0  0
   38.1040   30.6160   48.0060 N   0  0  0  0  0  0  0  0  0  0  0  0
   39.4930   31.8850   46.4920 N   0  0  0  0  0  0  0  0  0  0  0  0
   40.0980   33.1520   46.1590 C   0  0  0  0  0  0  0  0  0  0  0  0
   39.7730   33.3910   44.6840 C   0  0  0  0  0  0  0  0  0  0  0  0
   40.2140   32.3850   43.8730 O   0  0  0  0  0  0  0  0  0  0  0  0
   40.6220   31.2280   44.4730 C   0  0  0  0  0  0  0  0  0  0  0  0
   39.7440   30.7670   45.6070 C   0  0  0  0  0  0  0  0  0  0  0  0
   36.7270   29.3990   49.5220 O   0  0  0  0  0  0  0  0  0  0  0  0
   35.4760   29.3300   50.1490 C   0  0  0  0  0  0  0  0  0  0  0  0
   35.5820   29.3030   51.5370 F   0  0  0  0  0  0  0  0  0  0  0  0
   34.5930   30.2850   49.7520 F   0  0  0  0  0  0  0  0  0  0  0  0
   34.9480   28.0920   49.7700 F   0  0  0  0  0  0  0  0  0  0  0  0
   36.5420   31.6861   50.8434 H   0  0  0  0  0  0  0  0  0  0  0  0
   37.6814   33.8307   50.1000 H   0  0  0  0  0  0  0  0  0  0  0  0
   39.6737   33.9546   46.7801 H   0  0  0  0  0  0  0  0  0  0  0  0
   41.1831   33.1436   46.3394 H   0  0  0  0  0  0  0  0  0  0  0  0
   38.6819   33.4773   44.5745 H   0  0  0  0  0  0  0  0  0  0  0  0
   40.2893   34.3126   44.3773 H   0  0  0  0  0  0  0  0  0  0  0  0
   40.6429   30.4350   43.7109 H   0  0  0  0  0  0  0  0  0  0  0  0
   41.6111   31.4341   44.9080 H   0  0  0  0  0  0  0  0  0  0  0  0
   38.7905   30.3921   45.2065 H   0  0  0  0  0  0  0  0  0  0  0  0
   40.2449   29.9593   46.1608 H   0  0  0  0  0  0  0  0  0  0  0  0
  1 13  1  0
  1  2  2  0
  3  2  1  0
  4  3  2  0
  5  6  2  0
  5  4  1  0
  6  1  1  0
  7  5  1  0
  8  7  1  0
  9  8  1  0
 10 11  1  0
 10  9  1  0
 11 12  1  0
 12  7  1  0
 13 14  1  0
 14 15  1  0
 16 14  1  0
 17 14  1  0
  2 18  1  0
  3 19  1  0
  8 20  1  0
  8 21  1  0
  9 22  1  0
  9 23  1  0
 11 24  1  0
 11 25  1  0
 12 26  1  0
 12 27  1  0
M  ISO  8  18  14  19  14  20  13  21  13  22  13  23  13  24  13  25  13
M  ISO  2  26  13  27  13
M  END
>  <minimizedAffinity>  (1) 
-6.28596783

>  <minimizedRMSD>  (1) 
1.69306207

$$$$
