
     RDKit          3D

 26 27  0  0  0  0  0  0  0  0999 V2000
   37.4340   30.5330   50.8550 C   0  0  0  0  0  0  0  0  0  0  0  0
   38.3140   31.2320   49.9950 C   0  0  0  0  0  0  0  0  0  0  0  0
   37.9190   31.4130   48.6640 C   0  0  0  0  0  0  0  0  0  0  0  0
   36.7230   30.9100   48.2870 N   0  0  0  0  0  0  0  0  0  0  0  0
   35.9060   30.2480   49.1280 C   0  0  0  0  0  0  0  0  0  0  0  0
   36.2640   30.0610   50.4110 N   0  0  0  0  0  0  0  0  0  0  0  0
   34.6630   29.7500   48.6470 N   0  0  0  0  0  0  0  0  0  0  0  0
   33.9520   28.7640   49.4620 C   0  0  0  0  0  0  0  0  0  0  0  0
   33.1180   27.8450   48.6010 C   0  0  0  0  0  0  0  0  0  0  0  0
   33.4550   27.9480   47.2530 O   0  0  0  0  0  0  0  0  0  0  0  0
   33.0820   29.2340   46.8650 C   0  0  0  0  0  0  0  0  0  0  0  0
   34.1090   30.1940   47.4010 C   0  0  0  0  0  0  0  0  0  0  0  0
   38.7770   32.1390   47.6740 C   0  0  0  0  0  0  0  0  0  0  0  0
   38.0210   32.6450   46.6160 F   0  0  0  0  0  0  0  0  0  0  0  0
   39.3650   33.2610   48.2600 F   0  0  0  0  0  0  0  0  0  0  0  0
   39.6990   31.2730   47.1400 F   0  0  0  0  0  0  0  0  0  0  0  0
   37.7170   30.3752   51.9062 H   0  0  0  0  0  0  0  0  0  0  0  0
   39.2763   31.6202   50.3600 H   0  0  0  0  0  0  0  0  0  0  0  0
   34.6854   28.1646   50.0213 H   0  0  0  0  0  0  0  0  0  0  0  0
   33.2825   29.2989   50.1517 H   0  0  0  0  0  0  0  0  0  0  0  0
   33.2783   26.8075   48.9293 H   0  0  0  0  0  0  0  0  0  0  0  0
   32.0635   28.1377   48.7120 H   0  0  0  0  0  0  0  0  0  0  0  0
   33.0472   29.2981   45.7674 H   0  0  0  0  0  0  0  0  0  0  0  0
   32.0849   29.4795   47.2593 H   0  0  0  0  0  0  0  0  0  0  0  0
   34.9216   30.2912   46.6660 H   0  0  0  0  0  0  0  0  0  0  0  0
   33.6119   31.1596   47.5759 H   0  0  0  0  0  0  0  0  0  0  0  0
  2  1  2  0
  3  2  1  0
  4  3  2  0
  4  5  1  0
  5  6  2  0
  6  1  1  0
  7  5  1  0
  7  8  1  0
  9  8  1  0
 10  9  1  0
 11 10  1  0
 11 12  1  0
 12  7  1  0
 13 15  1  0
 13  3  1  0
 14 13  1  0
 16 13  1  0
  1 17  1  0
  2 18  1  0
  8 19  1  0
  8 20  1  0
  9 21  1  0
  9 22  1  0
 11 23  1  0
 11 24  1  0
 12 25  1  0
 12 26  1  0
M  ISO  8  17  14  18  14  19  13  20  13  21  13  22  13  23  13  24  13
M  ISO  2  25  13  26  13
M  END
>  <minimizedAffinity>  (1) 
-5.42515516

>  <minimizedRMSD>  (1) 
1.44866848

$$$$
