
     RDKit          3D

 42 45  0  0  0  0  0  0  0  0999 V2000
   36.3660   30.2980   47.5140 N   0  0  0  0  0  0  0  0  0  0  0  0
   35.1110   29.9840   47.1020 C   0  0  0  0  0  0  0  0  0  0  0  0
   34.7530   30.0820   45.7720 C   0  0  0  0  0  0  0  0  0  0  0  0
   35.7530   30.5130   44.9430 C   0  0  0  0  0  0  0  0  0  0  0  0
   35.4580   30.6160   43.7080 O   0  0  0  0  0  0  0  0  0  0  0  0
   37.0210   30.8410   45.2950 N   0  0  0  0  0  0  0  0  0  0  0  0
   37.2650   30.7080   46.6200 C   0  0  0  0  0  0  0  0  0  0  0  0
   38.4110   30.9900   47.0140 O   0  0  0  0  0  0  0  0  0  0  0  0
   37.9420   31.2750   44.3440 C   0  0  0  0  0  0  0  0  0  0  0  0
   38.3250   32.5830   44.0910 C   0  0  0  0  0  0  0  0  0  0  0  0
   39.2360   32.9400   43.1420 C   0  0  0  0  0  0  0  0  0  0  0  0
   39.8230   31.9390   42.3750 C   0  0  0  0  0  0  0  0  0  0  0  0
   39.4330   30.6450   42.6380 C   0  0  0  0  0  0  0  0  0  0  0  0
   38.5210   30.3130   43.5910 N   0  0  0  0  0  0  0  0  0  0  0  0
   40.0120   29.5950   41.8730 N   0  0  0  0  0  0  0  0  0  0  0  0
   39.2170   28.7020   41.0520 C   0  0  0  0  0  0  0  0  0  0  0  0
   39.9750   27.3860   40.9220 C   0  0  0  0  0  0  0  0  0  0  0  0
   41.1200   27.5590   40.1800 O   0  0  0  0  0  0  0  0  0  0  0  0
   41.8460   28.6670   40.5310 C   0  0  0  0  0  0  0  0  0  0  0  0
   41.4340   29.3080   41.8320 C   0  0  0  0  0  0  0  0  0  0  0  0
   36.8670   31.3980   49.5310 C   0  0  0  0  0  0  0  0  0  0  0  0
   36.6660   30.1770   48.8760 C   0  0  0  0  0  0  0  0  0  0  0  0
   36.7890   29.0030   49.6100 C   0  0  0  0  0  0  0  0  0  0  0  0
   37.0990   29.0700   50.9250 N   0  0  0  0  0  0  0  0  0  0  0  0
   37.2910   30.2710   51.5440 C   0  0  0  0  0  0  0  0  0  0  0  0
   37.1730   31.4340   50.8320 N   0  0  0  0  0  0  0  0  0  0  0  0
   34.3678   29.6462   47.8393 H   0  0  0  0  0  0  0  0  0  0  0  0
   33.7451   29.8336   45.4081 H   0  0  0  0  0  0  0  0  0  0  0  0
   37.8659   33.3813   44.6926 H   0  0  0  0  0  0  0  0  0  0  0  0
   39.5011   33.9962   42.9862 H   0  0  0  0  0  0  0  0  0  0  0  0
   40.5637   32.1703   41.5953 H   0  0  0  0  0  0  0  0  0  0  0  0
   38.2412   28.5258   41.5282 H   0  0  0  0  0  0  0  0  0  0  0  0
   39.0450   29.1448   40.0599 H   0  0  0  0  0  0  0  0  0  0  0  0
   40.2452   27.0237   41.9249 H   0  0  0  0  0  0  0  0  0  0  0  0
   39.3302   26.6536   40.4142 H   0  0  0  0  0  0  0  0  0  0  0  0
   42.9022   28.3714   40.6148 H   0  0  0  0  0  0  0  0  0  0  0  0
   41.6654   29.4164   39.7462 H   0  0  0  0  0  0  0  0  0  0  0  0
   41.6820   28.6252   42.6580 H   0  0  0  0  0  0  0  0  0  0  0  0
   41.9748   30.2613   41.9261 H   0  0  0  0  0  0  0  0  0  0  0  0
   36.7721   32.3386   48.9687 H   0  0  0  0  0  0  0  0  0  0  0  0
   36.6355   28.0275   49.1255 H   0  0  0  0  0  0  0  0  0  0  0  0
   37.5405   30.3044   52.6148 H   0  0  0  0  0  0  0  0  0  0  0  0
  1 22  1  0
  2  1  1  0
  3  2  2  0
  4  6  1  0
  4  3  1  0
  5  4  2  0
  6  7  1  0
  7  8  2  0
  7  1  1  0
  9  6  1  0
 10  9  2  0
 11 10  1  0
 12 13  1  0
 12 11  2  0
 13 14  2  0
 14  9  1  0
 15 13  1  0
 16 15  1  0
 17 16  1  0
 18 19  1  0
 18 17  1  0
 19 20  1  0
 20 15  1  0
 21 26  2  0
 22 21  1  0
 22 23  2  0
 23 24  1  0
 24 25  2  0
 26 25  1  0
  2 27  1  0
  3 28  1  0
 10 29  1  0
 11 30  1  0
 12 31  1  0
 16 32  1  0
 16 33  1  0
 17 34  1  0
 17 35  1  0
 19 36  1  0
 19 37  1  0
 20 38  1  0
 20 39  1  0
 21 40  1  0
 23 41  1  0
 25 42  1  0
M  ISO  8  27  14  28  14  29  14  30  14  31  14  32  13  33  13  34  13
M  ISO  8  35  13  36  13  37  13  38  13  39  13  40  14  41  14  42  14
M  END
>  <minimizedAffinity>  (1) 
-5.90394831

>  <minimizedRMSD>  (1) 
0.676255345

$$$$
