
     RDKit          3D

 42 44  0  0  0  0  0  0  0  0999 V2000
   32.7790   27.7880   48.5590 C   0  0  0  0  0  0  0  0  0  0  0  0
   31.6680   28.2000   49.2250 C   0  0  0  0  0  0  0  0  0  0  0  0
   30.4490   27.5530   49.1560 C   0  0  0  0  0  0  0  0  0  0  0  0
   30.4000   26.4270   48.3510 C   0  0  0  0  0  0  0  0  0  0  0  0
   31.5020   25.9750   47.6600 C   0  0  0  0  0  0  0  0  0  0  0  0
   32.7040   26.6630   47.7640 C   0  0  0  0  0  0  0  0  0  0  0  0
   36.0870   28.9180   49.6980 C   0  0  0  0  0  0  0  0  0  0  0  0
   36.4170   29.9060   48.7340 C   0  0  0  0  0  0  0  0  0  0  0  0
   35.4890   30.1430   47.7300 C   0  0  0  0  0  0  0  0  0  0  0  0
   34.3130   29.4270   47.7110 N   0  0  0  0  0  0  0  0  0  0  0  0
   34.0500   28.4980   48.6570 C   0  0  0  0  0  0  0  0  0  0  0  0
   34.9310   28.2580   49.6270 N   0  0  0  0  0  0  0  0  0  0  0  0
   37.6860   30.6680   48.7650 C   0  0  0  0  0  0  0  0  0  0  0  0
   38.4720   30.4690   47.6790 F   0  0  0  0  0  0  0  0  0  0  0  0
   38.4410   30.3410   49.8780 F   0  0  0  0  0  0  0  0  0  0  0  0
   37.4050   32.0340   48.8490 F   0  0  0  0  0  0  0  0  0  0  0  0
   33.9010   26.2200   47.0480 C   0  0  0  0  0  0  0  0  0  0  0  0
   33.8570   24.8500   46.4630 C   0  0  0  0  0  0  0  0  0  0  0  0
   35.1570   24.5540   45.8560 N   0  0  0  0  0  0  0  0  0  0  0  0
   35.6140   23.2330   46.2420 C   0  0  0  0  0  0  0  0  0  0  0  0
   36.9610   23.0060   45.6080 C   0  0  0  0  0  0  0  0  0  0  0  0
   36.9850   23.1660   44.2420 O   0  0  0  0  0  0  0  0  0  0  0  0
   35.7310   23.4570   43.7160 C   0  0  0  0  0  0  0  0  0  0  0  0
   35.0720   24.6160   44.4230 C   0  0  0  0  0  0  0  0  0  0  0  0
   31.7436   29.0990   49.8543 H   0  0  0  0  0  0  0  0  0  0  0  0
   29.5681   27.9116   49.7087 H   0  0  0  0  0  0  0  0  0  0  0  0
   29.4517   25.8769   48.2609 H   0  0  0  0  0  0  0  0  0  0  0  0
   31.4308   25.0758   47.0304 H   0  0  0  0  0  0  0  0  0  0  0  0
   36.7923   28.6946   50.5120 H   0  0  0  0  0  0  0  0  0  0  0  0
   35.6913   30.8971   46.9552 H   0  0  0  0  0  0  0  0  0  0  0  0
   34.0803   26.9288   46.2261 H   0  0  0  0  0  0  0  0  0  0  0  0
   34.6980   26.1877   47.8054 H   0  0  0  0  0  0  0  0  0  0  0  0
   33.6430   24.1167   47.2545 H   0  0  0  0  0  0  0  0  0  0  0  0
   33.0668   24.7947   45.6998 H   0  0  0  0  0  0  0  0  0  0  0  0
   35.7013   23.1728   47.3369 H   0  0  0  0  0  0  0  0  0  0  0  0
   34.8989   22.4671   45.9074 H   0  0  0  0  0  0  0  0  0  0  0  0
   37.6726   23.7191   46.0496 H   0  0  0  0  0  0  0  0  0  0  0  0
   37.2248   21.9562   45.8037 H   0  0  0  0  0  0  0  0  0  0  0  0
   35.8431   23.7089   42.6511 H   0  0  0  0  0  0  0  0  0  0  0  0
   35.0934   22.5711   43.8525 H   0  0  0  0  0  0  0  0  0  0  0  0
   35.5560   25.5453   44.0881 H   0  0  0  0  0  0  0  0  0  0  0  0
   34.0030   24.5776   44.1667 H   0  0  0  0  0  0  0  0  0  0  0  0
  1 11  1  0
  1  2  2  0
  3  2  1  0
  4  3  2  0
  5  6  2  0
  5  4  1  0
  6  1  1  0
  8 13  1  0
  8  7  2  0
  9  8  1  0
 10  9  2  0
 10 11  1  0
 11 12  2  0
 12  7  1  0
 13 16  1  0
 13 15  1  0
 14 13  1  0
 17  6  1  0
 18 17  1  0
 19 20  1  0
 19 18  1  0
 21 20  1  0
 22 21  1  0
 23 22  1  0
 23 24  1  0
 24 19  1  0
  2 25  1  0
  3 26  1  0
  4 27  1  0
  5 28  1  0
  7 29  1  0
  9 30  1  0
 17 31  1  0
 17 32  1  0
 18 33  1  0
 18 34  1  0
 20 35  1  0
 20 36  1  0
 21 37  1  0
 21 38  1  0
 23 39  1  0
 23 40  1  0
 24 41  1  0
 24 42  1  0
M  ISO  8  25  14  26  14  27  14  28  14  29  14  30  14  31   8  32   8
M  ISO  8  33   8  34   8  35  13  36  13  37  13  38  13  39  13  40  13
M  ISO  2  41  13  42  13
M  END
>  <minimizedAffinity>  (1) 
-4.93582678

>  <minimizedRMSD>  (1) 
0.357663333

$$$$
