
     RDKit          3D

 48 51  0  0  0  0  0  0  0  0999 V2000
   36.4068   30.9674   48.7508 N   0  0  0  0  0  0  0  0  0  0  0  0
   36.3827   31.7305   49.8661 C   0  0  0  0  0  0  0  0  0  0  0  0
   37.3634   32.6609   49.7868 N   0  0  0  0  0  0  0  0  0  0  0  0
   37.9945   32.4632   48.6079 C   0  0  0  0  0  0  0  0  0  0  0  0
   39.0558   33.0758   47.9601 C   0  0  0  0  0  0  0  0  0  0  0  0
   39.4791   32.6651   46.7724 N   0  0  0  0  0  0  0  0  0  0  0  0
   38.8980   31.6205   46.1220 C   0  0  0  0  0  0  0  0  0  0  0  0
   37.8629   31.0265   46.7594 N   0  0  0  0  0  0  0  0  0  0  0  0
   37.4057   31.4051   47.9485 C   0  0  0  0  0  0  0  0  0  0  0  0
   39.6911   34.1653   48.5784 N   0  0  0  0  0  0  0  0  0  0  0  0
   34.6626   29.9772   47.4075 C   0  0  0  0  0  0  0  0  0  0  0  0
   35.5185   29.8966   48.5033 C   0  0  0  0  0  0  0  0  0  0  0  0
   35.4171   28.7383   49.2641 C   0  0  0  0  0  0  0  0  0  0  0  0
   34.5378   27.7720   48.9375 N   0  0  0  0  0  0  0  0  0  0  0  0
   33.7262   27.8788   47.8755 C   0  0  0  0  0  0  0  0  0  0  0  0
   33.7915   28.9845   47.1118 N   0  0  0  0  0  0  0  0  0  0  0  0
   32.7384   26.8396   47.4509 C   0  0  0  0  0  0  0  0  0  0  0  0
   31.5480   26.8991   48.4433 C   0  0  0  0  0  0  0  0  0  0  0  0
   32.1415   27.1364   46.1124 C   0  0  0  0  0  0  0  0  0  0  0  0
   33.3394   25.4772   47.4713 C   0  0  0  0  0  0  0  0  0  0  0  0
   35.7327   31.6762   50.7088 H   0  0  0  0  0  0  0  0  0  0  0  0
   39.2601   31.2890   45.1422 H   0  0  0  0  0  0  0  0  0  0  0  0
   40.6069   34.5615   48.2628 H   0  0  0  0  0  0  0  0  0  0  0  0
   39.4099   34.7461   49.3986 H   0  0  0  0  0  0  0  0  0  0  0  0
   34.7130   30.8749   46.7815 H   0  0  0  0  0  0  0  0  0  0  0  0
   36.0768   28.6469   50.1326 H   0  0  0  0  0  0  0  0  0  0  0  0
   31.8546   27.4224   49.3592 H   0  0  0  0  0  0  0  0  0  0  0  0
   31.2788   25.8567   48.6655 H   0  0  0  0  0  0  0  0  0  0  0  0
   30.6871   27.4229   48.0262 H   0  0  0  0  0  0  0  0  0  0  0  0
   32.7792   26.9823   45.2464 H   0  0  0  0  0  0  0  0  0  0  0  0
   31.9707   28.2705   46.1281 H   0  0  0  0  0  0  0  0  0  0  0  0
   31.1114   26.7290   46.0550 H   0  0  0  0  0  0  0  0  0  0  0  0
   33.7240   25.3351   48.5212 H   0  0  0  0  0  0  0  0  0  0  0  0
   34.3008   25.5683   46.8761 H   0  0  0  0  0  0  0  0  0  0  0  0
   32.5061   24.3983   47.0606 N   0  0  0  0  0  0  0  0  0  0  0  0
   33.3279   23.5631   46.1438 C   0  0  0  0  0  0  0  0  0  0  0  0
   34.0312   24.4231   45.1698 C   0  0  0  0  0  0  0  0  0  0  0  0
   33.2894   25.3826   44.5455 O   0  0  0  0  0  0  0  0  0  0  0  0
   32.0450   25.6530   45.0055 C   0  0  0  0  0  0  0  0  0  0  0  0
   31.4742   24.8343   46.0912 C   0  0  0  0  0  0  0  0  0  0  0  0
   32.6611   22.8161   45.6468 H   0  0  0  0  0  0  0  0  0  0  0  0
   34.0445   23.0097   46.7673 H   0  0  0  0  0  0  0  0  0  0  0  0
   34.9471   24.8842   45.5870 H   0  0  0  0  0  0  0  0  0  0  0  0
   34.4281   23.7582   44.3461 H   0  0  0  0  0  0  0  0  0  0  0  0
   31.9718   26.7469   45.2675 H   0  0  0  0  0  0  0  0  0  0  0  0
   31.3492   25.5458   44.1157 H   0  0  0  0  0  0  0  0  0  0  0  0
   30.5863   25.2558   46.5415 H   0  0  0  0  0  0  0  0  0  0  0  0
   31.1204   23.8616   45.6177 H   0  0  0  0  0  0  0  0  0  0  0  0
  1  2  1  0
  3  2  2  0
  4  3  1  0
  5 10  1  0
  5  4  2  0
  6  5  1  0
  7  8  1  0
  7  6  2  0
  8  9  2  0
  9  4  1  0
  9  1  1  0
 11 12  2  0
 12  1  1  0
 12 13  1  0
 14 13  2  0
 15 14  1  0
 16 11  1  0
 16 15  2  0
 17 15  1  0
 17 18  1  0
 19 17  1  0
 20 17  1  0
  2 21  1  0
  7 22  1  0
 10 23  1  0
 10 24  1  0
 11 25  1  0
 13 26  1  0
 18 27  1  0
 18 28  1  0
 18 29  1  0
 19 30  1  0
 19 31  1  0
 19 32  1  0
 20 33  1  0
 20 34  1  0
 35 36  1  0
 36 37  1  0
 37 38  1  0
 38 39  1  0
 39 40  1  0
 40 35  1  0
 36 41  1  0
 36 42  1  0
 37 43  1  0
 37 44  1  0
 39 45  1  0
 39 46  1  0
 40 47  1  0
 40 48  1  0
 20 35  1  0
M  ISO  8  21  14  22  14  25  14  26  14  27   8  28   8  29   8  30   8
M  ISO  4  31   8  32   8  33   8  34   8
M  END
>  <DihAtoms>  (1) 
16,19,34,35

>  <DihDeg>  (1) 
-165.3696468324167

$$$$
