
     RDKit          3D

 36 38  0  0  0  0  0  0  0  0999 V2000
   37.1900   31.3660   48.5810 C   0  0  0  0  0  0  0  0  0  0  0  0
   37.5520   32.4210   49.4620 C   0  0  0  0  0  0  0  0  0  0  0  0
   38.5580   33.3030   49.0460 C   0  0  0  0  0  0  0  0  0  0  0  0
   39.1280   33.0860   47.8050 N   0  0  0  0  0  0  0  0  0  0  0  0
   38.7500   32.0890   47.0300 C   0  0  0  0  0  0  0  0  0  0  0  0
   37.7680   31.2010   47.4000 N   0  0  0  0  0  0  0  0  0  0  0  0
   39.3680   31.8820   45.7230 C   0  0  0  0  0  0  0  0  0  0  0  0
   40.5710   31.2380   45.5270 C   0  0  0  0  0  0  0  0  0  0  0  0
   40.8430   31.2280   44.1650 C   0  0  0  0  0  0  0  0  0  0  0  0
   39.7520   31.8880   43.5890 C   0  0  0  0  0  0  0  0  0  0  0  0
   38.9280   32.2460   44.5350 O   0  0  0  0  0  0  0  0  0  0  0  0
   39.5100   32.1650   42.1940 N   0  0  0  0  0  0  0  0  0  0  0  0
   39.9580   31.3820   41.0330 C   0  0  0  0  0  0  0  0  0  0  0  0
   38.8750   31.7260   40.0320 C   0  0  0  0  0  0  0  0  0  0  0  0
   38.7760   33.2410   40.2560 C   0  0  0  0  0  0  0  0  0  0  0  0
   38.7370   33.3360   41.7620 C   0  0  0  0  0  0  0  0  0  0  0  0
   36.1430   30.4670   49.0430 C   0  0  0  0  0  0  0  0  0  0  0  0
   34.9300   30.6880   48.7150 O   0  0  0  0  0  0  0  0  0  0  0  0
   36.4820   29.3800   49.8340 O   0  0  0  0  0  0  0  0  0  0  0  0
   36.5010   29.4400   51.2180 C   0  0  0  0  0  0  0  0  0  0  0  0
   37.6740   29.7340   51.9490 N   0  0  0  0  0  0  0  0  0  0  0  0
   35.4010   29.2150   51.7600 O   0  0  0  0  0  0  0  0  0  0  0  0
   37.0588   32.5410   50.4379 H   0  0  0  0  0  0  0  0  0  0  0  0
   38.8828   34.1383   49.6838 H   0  0  0  0  0  0  0  0  0  0  0  0
   41.2065   30.8061   46.3142 H   0  0  0  0  0  0  0  0  0  0  0  0
   41.7178   30.7986   43.6548 H   0  0  0  0  0  0  0  0  0  0  0  0
   40.9502   31.7045   40.6844 H   0  0  0  0  0  0  0  0  0  0  0  0
   40.0785   30.3057   41.2255 H   0  0  0  0  0  0  0  0  0  0  0  0
   37.9281   31.2164   40.2638 H   0  0  0  0  0  0  0  0  0  0  0  0
   39.0889   31.4240   38.9961 H   0  0  0  0  0  0  0  0  0  0  0  0
   39.6527   33.7635   39.8455 H   0  0  0  0  0  0  0  0  0  0  0  0
   37.9110   33.7061   39.7606 H   0  0  0  0  0  0  0  0  0  0  0  0
   39.2058   34.2681   42.1104 H   0  0  0  0  0  0  0  0  0  0  0  0
   37.7141   33.3498   42.1663 H   0  0  0  0  0  0  0  0  0  0  0  0
   37.6444   29.7688   52.9780 H   0  0  0  0  0  0  0  0  0  0  0  0
   38.5586   29.9135   51.4528 H   0  0  0  0  0  0  0  0  0  0  0  0
  1 17  1  0
  1  2  2  0
  3  2  1  0
  4  3  2  0
  5  6  2  0
  5  4  1  0
  6  1  1  0
  7  5  1  0
  8  7  2  0
  9  8  1  0
 10  9  2  0
 10 11  1  0
 11  7  1  0
 12 10  1  0
 13 12  1  0
 14 15  1  0
 14 13  1  0
 15 16  1  0
 16 12  1  0
 17 19  1  0
 18 17  2  0
 19 20  1  0
 20 22  2  0
 20 21  1  0
  2 23  1  0
  3 24  1  0
  8 25  1  0
  9 26  1  0
 13 27  1  0
 13 28  1  0
 14 29  1  0
 14 30  1  0
 15 31  1  0
 15 32  1  0
 16 33  1  0
 16 34  1  0
 21 35  1  0
 21 36  1  0
M  ISO  8  23  14  24  14  25  14  26  14  27  13  28  13  29  13  30  13
M  ISO  4  31  13  32  13  33  13  34  13
M  END
>  <minimizedAffinity>  (1) 
-5.71786594

>  <minimizedRMSD>  (1) 
0.925811112

$$$$
