
     RDKit          3D

 30 31  0  0  1  0  0  0  0  0999 V2000
   35.1360   29.3990   48.5440 C   0  0  0  0  0  0  0  0  0  0  0  0
   34.7220   28.2000   49.1340 C   0  0  0  0  0  0  0  0  0  0  0  0
   33.6200   27.6160   48.6100 C   0  0  0  0  0  0  0  0  0  0  0  0
   33.0030   28.1890   47.5950 C   0  0  0  0  0  0  0  0  0  0  0  0
   33.9340   29.7130   47.2110 S   0  0  0  0  0  0  0  0  0  0  0  0
   37.9320   30.7810   50.4880 C   0  0  0  0  0  0  0  0  0  0  0  0
   38.4640   31.7620   49.6380 C   0  0  0  0  0  0  0  0  0  0  0  0
   37.8510   31.9390   48.4000 C   0  0  0  0  0  0  0  0  0  0  0  0
   36.7810   31.1570   48.0890 N   0  0  0  0  0  0  0  0  0  0  0  0
   36.3170   30.2520   48.9150 C   0  0  0  0  0  0  0  0  0  0  0  0
   36.8570   30.0140   50.1450 N   0  0  0  0  0  0  0  0  0  0  0  0
   31.8130   27.7850   46.8210 C   0  0  2  0  0  0  0  0  0  0  0  0
   31.8850   28.3230   45.4650 C   0  0  0  0  0  0  0  0  0  0  0  0
   30.5780   28.1560   47.6070 C   0  0  0  0  0  0  0  0  0  0  0  0
   30.1660   27.2000   48.4690 O   0  0  0  0  0  0  0  0  0  0  0  0
   29.7490   27.6210   49.7080 C   0  0  0  0  0  0  0  0  0  0  0  0
   28.7160   28.5290   49.6080 F   0  0  0  0  0  0  0  0  0  0  0  0
   29.4640   26.5830   50.5500 F   0  0  0  0  0  0  0  0  0  0  0  0
   30.8200   28.3350   50.2650 F   0  0  0  0  0  0  0  0  0  0  0  0
   35.2649   27.7548   49.9808 H   0  0  0  0  0  0  0  0  0  0  0  0
   33.2417   26.6710   49.0271 H   0  0  0  0  0  0  0  0  0  0  0  0
   38.4005   30.6238   51.4708 H   0  0  0  0  0  0  0  0  0  0  0  0
   39.3317   32.3680   49.9377 H   0  0  0  0  0  0  0  0  0  0  0  0
   38.2227   32.6928   47.6903 H   0  0  0  0  0  0  0  0  0  0  0  0
   31.7666   26.6953   46.6780 H   0  0  0  0  0  0  0  0  0  0  0  0
   32.0308   29.4124   45.5100 H   0  0  0  0  0  0  0  0  0  0  0  0
   32.7294   27.8618   44.9319 H   0  0  0  0  0  0  0  0  0  0  0  0
   30.9490   28.1000   44.9319 H   0  0  0  0  0  0  0  0  0  0  0  0
   30.7949   29.0689   48.1811 H   0  0  0  0  0  0  0  0  0  0  0  0
   29.7671   28.2966   46.8771 H   0  0  0  0  0  0  0  0  0  0  0  0
  1 10  1  0
  1  2  2  0
  3  2  1  0
  4  3  2  0
  5  4  1  0
  5  1  1  0
  7  6  2  0
  8  7  1  0
  9  8  2  0
  9 10  1  0
 10 11  2  0
 11  6  1  0
 12  4  1  0
 12 14  1  0
 13 12  1  0
 14 15  1  0
 15 16  1  0
 16 19  1  0
 16 18  1  0
 17 16  1  0
  2 20  1  0
  3 21  1  0
  6 22  1  0
  7 23  1  0
  8 24  1  0
 12 25  1  6
 13 26  1  0
 13 27  1  0
 13 28  1  0
 14 29  1  0
 14 30  1  0
M  ISO  8  20  14  21  14  22  14  23  14  24  14  25   8  26   8  27   8
M  ISO  3  28   8  29   8  30   8
M  END
>  <minimizedAffinity>  (1) 
-4.99944496

>  <minimizedRMSD>  (1) 
1.73301196

$$$$
