
     RDKit          3D

 26 27  0  0  1  0  0  0  0  0999 V2000
   35.2830   29.4420   49.0430 C   0  0  2  0  0  0  0  0  0  0  0  0
   34.1450   29.4380   49.9730 C   0  0  0  0  0  0  0  0  0  0  0  0
   34.5000   28.1580   49.3860 C   0  0  1  0  0  0  0  0  0  0  0  0
   36.6910   29.4230   49.6370 C   0  0  0  0  0  0  0  0  0  0  0  0
   37.9220   32.8680   49.4490 C   0  0  0  0  0  0  0  0  0  0  0  0
   38.6860   32.8690   48.2720 C   0  0  0  0  0  0  0  0  0  0  0  0
   38.7680   31.6660   47.5500 C   0  0  0  0  0  0  0  0  0  0  0  0
   38.0960   30.5580   48.0380 N   0  0  0  0  0  0  0  0  0  0  0  0
   37.3860   30.6260   49.1660 C   0  0  0  0  0  0  0  0  0  0  0  0
   37.3070   31.7770   49.8590 N   0  0  0  0  0  0  0  0  0  0  0  0
   33.5520   27.6420   48.3390 C   0  0  0  0  0  0  0  0  0  0  0  0
   33.9740   26.6040   47.6890 O   0  0  0  0  0  0  0  0  0  0  0  0
   32.3070   28.1750   48.0450 O   0  0  0  0  0  0  0  0  0  0  0  0
   31.1810   27.6210   48.7000 C   0  0  0  0  0  0  0  0  0  0  0  0
   31.0730   28.1460   49.9860 F   0  0  0  0  0  0  0  0  0  0  0  0
   30.0080   27.9180   48.0030 F   0  0  0  0  0  0  0  0  0  0  0  0
   31.2510   26.2350   48.7550 F   0  0  0  0  0  0  0  0  0  0  0  0
   35.5393   30.0444   48.1590 H   0  0  0  0  0  0  0  0  0  0  0  0
   34.3238   29.6080   51.0450 H   0  0  0  0  0  0  0  0  0  0  0  0
   33.2081   30.0123   50.0225 H   0  0  0  0  0  0  0  0  0  0  0  0
   34.7677   27.1591   49.7609 H   0  0  0  0  0  0  0  0  0  0  0  0
   36.6350   29.4278   50.7356 H   0  0  0  0  0  0  0  0  0  0  0  0
   37.2307   28.5170   49.3241 H   0  0  0  0  0  0  0  0  0  0  0  0
   37.8351   33.7925   50.0387 H   0  0  0  0  0  0  0  0  0  0  0  0
   39.2015   33.7775   47.9273 H   0  0  0  0  0  0  0  0  0  0  0  0
   39.3519   31.6061   46.6197 H   0  0  0  0  0  0  0  0  0  0  0  0
  1  3  1  0
  1  4  1  0
  1  2  1  0
  3  2  1  0
  5 10  2  0
  6  5  1  0
  7  8  1  0
  7  6  2  0
  8  9  2  0
  9  4  1  0
  9 10  1  0
 11  3  1  0
 12 11  2  0
 13 11  1  0
 13 14  1  0
 14 17  1  0
 14 15  1  0
 16 14  1  0
  1 18  1  6
  2 19  1  0
  2 20  1  0
  3 21  1  1
  4 22  1  0
  4 23  1  0
  5 24  1  0
  6 25  1  0
  7 26  1  0
M  ISO  8  18  13  19  13  20  13  21  13  22   8  23   8  24  14  25  14
M  ISO  1  26  14
M  END
>  <minimizedAffinity>  (1) 
-5.06949806

>  <minimizedRMSD>  (1) 
1.00907075

$$$$
