
     RDKit          3D

 37 39  0  0  1  0  0  0  0  0999 V2000
   35.1220   29.2390   48.8090 C   0  0  2  0  0  0  0  0  0  0  0  0
   34.0150   29.2950   49.7570 C   0  0  0  0  0  0  0  0  0  0  0  0
   34.3030   27.9840   49.2540 C   0  0  1  0  0  0  0  0  0  0  0  0
   36.5350   29.1970   49.4130 C   0  0  0  0  0  0  0  0  0  0  0  0
   37.5470   32.7030   49.6010 C   0  0  0  0  0  0  0  0  0  0  0  0
   38.4310   32.8270   48.5090 C   0  0  0  0  0  0  0  0  0  0  0  0
   38.6620   31.6770   47.7180 C   0  0  0  0  0  0  0  0  0  0  0  0
   38.0200   30.5180   48.0570 N   0  0  0  0  0  0  0  0  0  0  0  0
   37.1920   30.4570   49.1030 C   0  0  0  0  0  0  0  0  0  0  0  0
   36.9590   31.5570   49.8730 N   0  0  0  0  0  0  0  0  0  0  0  0
   33.3160   27.4510   48.2340 C   0  0  0  0  0  0  0  0  0  0  0  0
   33.6180   26.2660   47.8050 O   0  0  0  0  0  0  0  0  0  0  0  0
   32.1770   28.0970   47.7560 O   0  0  0  0  0  0  0  0  0  0  0  0
   30.9220   27.8610   48.2580 C   0  0  0  0  0  0  0  0  0  0  0  0
   30.5200   27.9990   49.6790 C   0  0  0  0  0  0  0  0  0  0  0  0
   29.2380   27.7270   49.9910 C   0  0  0  0  0  0  0  0  0  0  0  0
   28.2980   27.3300   49.0400 C   0  0  0  0  0  0  0  0  0  0  0  0
   29.2870   27.3130   47.4680 S   0  0  0  0  0  0  0  0  0  0  0  0
   27.0060   27.0130   48.9890 N   0  0  0  0  0  0  0  0  0  0  0  0
   26.0220   27.9250   48.5210 C   0  0  0  0  0  0  0  0  0  0  0  0
   26.2610   28.5670   47.4510 N   0  0  0  0  0  0  0  0  0  0  0  0
   24.7740   28.1530   49.1780 N   0  0  0  0  0  0  0  0  0  0  0  0
   27.1040   28.5190   46.8500 H   0  0  0  0  0  0  0  0  0  0  0  0
   35.3740   29.7875   47.8894 H   0  0  0  0  0  0  0  0  0  0  0  0
   34.2264   29.5206   50.8126 H   0  0  0  0  0  0  0  0  0  0  0  0
   33.0928   29.8936   49.7900 H   0  0  0  0  0  0  0  0  0  0  0  0
   34.5388   27.0020   49.6900 H   0  0  0  0  0  0  0  0  0  0  0  0
   36.4715   29.0671   50.5035 H   0  0  0  0  0  0  0  0  0  0  0  0
   37.1054   28.3547   48.9946 H   0  0  0  0  0  0  0  0  0  0  0  0
   37.3455   33.5784   50.2359 H   0  0  0  0  0  0  0  0  0  0  0  0
   38.9233   33.7838   48.2805 H   0  0  0  0  0  0  0  0  0  0  0  0
   39.3403   31.7141   46.8528 H   0  0  0  0  0  0  0  0  0  0  0  0
   31.2411   28.3115   50.4487 H   0  0  0  0  0  0  0  0  0  0  0  0
   28.9192   27.8219   51.0395 H   0  0  0  0  0  0  0  0  0  0  0  0
   26.7101   26.0763   49.2988 H   0  0  0  0  0  0  0  0  0  0  0  0
   24.1021   28.8287   48.7871 H   0  0  0  0  0  0  0  0  0  0  0  0
   24.5462   27.6416   50.0426 H   0  0  0  0  0  0  0  0  0  0  0  0
  1  3  1  0
  1  4  1  0
  1  2  1  0
  3  2  1  0
  5 10  2  0
  6  5  1  0
  7  8  1  0
  7  6  2  0
  8  9  2  0
  9  4  1  0
  9 10  1  0
 11  3  1  0
 12 11  2  0
 13 11  1  0
 13 14  1  0
 14 15  2  0
 15 16  1  0
 17 16  2  0
 18 14  1  0
 18 17  1  0
 19 17  1  0
 20 19  1  0
 20 22  1  0
 21 20  2  0
 23 21  1  0
  1 24  1  6
  2 25  1  0
  2 26  1  0
  3 27  1  1
  4 28  1  0
  4 29  1  0
  5 30  1  0
  6 31  1  0
  7 32  1  0
 15 33  1  0
 16 34  1  0
 19 35  1  0
 22 36  1  0
 22 37  1  0
M  ISO  8  24  13  25  13  26  13  27  13  28   8  29   8  30  14  31  14
M  ISO  3  32  14  33  14  34  14
M  END
>  <minimizedAffinity>  (1) 
-6.48865891

>  <minimizedRMSD>  (1) 
0.732779026

$$$$
