
     RDKit          3D

 39 40  0  0  0  0  0  0  0  0999 V2000
   34.9501   29.4079   48.0552 C   0  0  0  0  0  0  0  0  0  0  0  0
   36.2281   30.0443   48.1904 C   0  0  0  0  0  0  0  0  0  0  0  0
   36.8283   30.5782   47.0517 C   0  0  0  0  0  0  0  0  0  0  0  0
   36.1563   30.4586   45.8803 N   0  0  0  0  0  0  0  0  0  0  0  0
   34.9593   29.8562   45.7861 C   0  0  0  0  0  0  0  0  0  0  0  0
   34.3842   29.3486   46.8571 N   0  0  0  0  0  0  0  0  0  0  0  0
   38.1227   31.2306   47.1485 C   0  0  0  0  0  0  0  0  0  0  0  0
   38.5740   31.5643   48.2681 O   0  0  0  0  0  0  0  0  0  0  0  0
   38.9794   31.5482   46.0451 N   0  0  0  0  0  0  0  0  0  0  0  0
   39.1432   30.5091   45.0562 C   0  0  0  0  0  0  0  0  0  0  0  0
   40.3521   30.7465   44.1861 C   0  0  0  0  0  0  0  0  0  0  0  0
   41.3321   31.3395   44.9988 O   0  0  0  0  0  0  0  0  0  0  0  0
   40.9364   32.6836   45.1117 C   0  0  0  0  0  0  0  0  0  0  0  0
   39.6583   32.8284   45.8982 C   0  0  1  0  0  0  0  0  0  0  0  0
   34.3842   29.8235   44.4277 C   0  0  0  0  0  0  0  0  0  0  0  0
   34.3185   31.1259   43.8918 F   0  0  0  0  0  0  0  0  0  0  0  0
   35.2172   29.1126   43.5864 F   0  0  0  0  0  0  0  0  0  0  0  0
   33.1436   29.2084   44.3869 F   0  0  0  0  0  0  0  0  0  0  0  0
   34.3854   28.8903   49.2046 O   0  0  0  0  0  0  0  0  0  0  0  0
   34.1702   29.5996   50.3768 C   0  0  0  0  0  0  0  0  0  0  0  0
   34.9947   29.2063   51.4162 F   0  0  0  0  0  0  0  0  0  0  0  0
   34.1937   30.9581   50.2291 F   0  0  0  0  0  0  0  0  0  0  0  0
   32.8598   29.2483   50.7579 F   0  0  0  0  0  0  0  0  0  0  0  0
   36.6965   30.0995   49.1505 H   0  0  0  0  0  0  0  0  0  0  0  0
   39.1427   29.4994   45.5187 H   0  0  0  0  0  0  0  0  0  0  0  0
   38.2454   30.5424   44.3735 H   0  0  0  0  0  0  0  0  0  0  0  0
   40.7618   29.7670   43.8747 H   0  0  0  0  0  0  0  0  0  0  0  0
   40.1392   31.3979   43.3159 H   0  0  0  0  0  0  0  0  0  0  0  0
   40.8658   33.0758   44.0791 H   0  0  0  0  0  0  0  0  0  0  0  0
   41.7787   33.1890   45.6500 H   0  0  0  0  0  0  0  0  0  0  0  0
   39.8882   33.2319   46.8991 H   0  0  0  0  0  0  0  0  0  0  0  0
   38.7862   33.8076   45.2356 N   0  0  0  0  0  0  0  0  0  0  0  0
   37.5170   33.2940   44.8226 C   0  0  0  0  0  0  0  0  0  0  0  0
   37.2598   32.0687   44.5514 N   0  0  0  0  0  0  0  0  0  0  0  0
   36.4010   34.1763   44.6824 N   0  0  0  0  0  0  0  0  0  0  0  0
   38.9473   34.8121   45.0209 H   0  0  0  0  0  0  0  0  0  0  0  0
   37.9708   31.3226   44.6098 H   0  0  0  0  0  0  0  0  0  0  0  0
   35.5881   34.7952   44.5979 H   0  0  0  0  0  0  0  0  0  0  0  0
   36.0766   35.0401   44.1904 H   0  0  0  0  0  0  0  0  0  0  0  0
  1  2  2  0
  1 19  1  0
  3  7  1  0
  3  2  1  0
  4  3  2  0
  5  4  1  0
  5  6  2  0
  6  1  1  0
  7  8  2  0
  9  7  1  0
 10  9  1  0
 11 12  1  0
 11 10  1  0
 12 13  1  0
 13 14  1  0
 14  9  1  0
 15  5  1  0
 16 15  1  0
 17 15  1  0
 18 15  1  0
 19 20  1  0
 20 23  1  0
 20 21  1  0
 22 20  1  0
  2 24  1  0
 10 25  1  0
 10 26  1  0
 11 27  1  0
 11 28  1  0
 13 29  1  0
 13 30  1  0
 14 31  1  1
 32 33  1  0
 33 34  2  3
 33 35  1  0
 32 36  1  0
 34 37  1  0
 35 38  1  0
 35 39  1  0
 14 32  1  0
M  END
>  <DihAtoms>  (1) 
12,13,31,32

>  <DihDeg>  (1) 
-59.9984478423659

$$$$
