
     RDKit          3D

 27 28  0  0  1  0  0  0  0  0999 V2000
   35.5370   29.8100   49.7300 C   0  0  2  0  0  0  0  0  0  0  0  0
   35.0360   29.2060   50.9780 C   0  0  0  0  0  0  0  0  0  0  0  0
   34.5440   28.6530   49.6770 C   0  0  1  0  0  0  0  0  0  0  0  0
   33.1670   28.9620   49.3620 N   0  0  0  0  0  0  0  0  0  0  0  0
   32.3330   27.9470   48.8260 C   0  0  0  0  0  0  0  0  0  0  0  0
   32.7960   27.0520   48.0350 N   0  0  0  0  0  0  0  0  0  0  0  0
   30.9330   27.9120   49.1710 N   0  0  0  0  0  0  0  0  0  0  0  0
   33.7970   27.0590   47.7740 H   0  0  0  0  0  0  0  0  0  0  0  0
   36.9050   29.4900   49.1960 C   0  0  0  0  0  0  0  0  0  0  0  0
   38.0510   32.9870   49.4070 C   0  0  0  0  0  0  0  0  0  0  0  0
   38.8490   33.1120   48.2620 C   0  0  0  0  0  0  0  0  0  0  0  0
   38.9920   32.0040   47.4280 C   0  0  0  0  0  0  0  0  0  0  0  0
   38.3390   30.8540   47.7790 N   0  0  0  0  0  0  0  0  0  0  0  0
   37.5740   30.7680   48.8930 C   0  0  0  0  0  0  0  0  0  0  0  0
   37.4360   31.8330   49.6980 N   0  0  0  0  0  0  0  0  0  0  0  0
   35.5978   30.8528   49.3853 H   0  0  0  0  0  0  0  0  0  0  0  0
   35.7136   28.6064   51.6036 H   0  0  0  0  0  0  0  0  0  0  0  0
   34.5437   29.6023   51.8784 H   0  0  0  0  0  0  0  0  0  0  0  0
   34.5241   27.6738   49.1762 H   0  0  0  0  0  0  0  0  0  0  0  0
   32.7956   29.9088   49.5250 H   0  0  0  0  0  0  0  0  0  0  0  0
   30.3253   27.1763   48.7833 H   0  0  0  0  0  0  0  0  0  0  0  0
   30.5409   28.6227   49.8051 H   0  0  0  0  0  0  0  0  0  0  0  0
   37.4816   28.9341   49.9500 H   0  0  0  0  0  0  0  0  0  0  0  0
   36.8315   28.8679   48.2918 H   0  0  0  0  0  0  0  0  0  0  0  0
   37.9276   33.8502   50.0776 H   0  0  0  0  0  0  0  0  0  0  0  0
   39.3509   34.0621   48.0267 H   0  0  0  0  0  0  0  0  0  0  0  0
   39.6089   32.0527   46.5186 H   0  0  0  0  0  0  0  0  0  0  0  0
  1  2  1  0
  3  1  1  0
  3  2  1  0
  4  3  1  0
  5  7  1  0
  5  4  1  0
  6  5  2  0
  8  6  1  0
  9  1  1  0
 10 15  2  0
 11 10  1  0
 12 13  1  0
 12 11  2  0
 13 14  2  0
 14  9  1  0
 14 15  1  0
  1 16  1  1
  2 17  1  0
  2 18  1  0
  3 19  1  6
  4 20  1  0
  7 21  1  0
  7 22  1  0
  9 23  1  0
  9 24  1  0
 10 25  1  0
 11 26  1  0
 12 27  1  0
M  ISO  8  16  13  17  13  18  13  19  13  23   8  24   8  25  14  26  14
M  ISO  1  27  14
M  END
>  <minimizedAffinity>  (1) 
-4.85170746

>  <minimizedRMSD>  (1) 
1.68250036

$$$$
