
     RDKit          3D

 30 32  0  0  0  0  0  0  0  0999 V2000
   36.4940   30.6230   46.2850 C   0  0  0  0  0  0  0  0  0  0  0  0
   37.7280   31.2740   46.3820 C   0  0  0  0  0  0  0  0  0  0  0  0
   38.4040   31.1470   47.5950 C   0  0  0  0  0  0  0  0  0  0  0  0
   37.8540   30.4200   48.6010 N   0  0  0  0  0  0  0  0  0  0  0  0
   36.6540   29.8020   48.4680 C   0  0  0  0  0  0  0  0  0  0  0  0
   35.9940   29.9150   47.3120 N   0  0  0  0  0  0  0  0  0  0  0  0
   36.1140   29.0500   49.5490 N   0  0  0  0  0  0  0  0  0  0  0  0
   35.0410   29.5680   50.3270 C   0  0  0  0  0  0  0  0  0  0  0  0
   34.1760   30.3350   49.7520 N   0  0  0  0  0  0  0  0  0  0  0  0
   34.9530   29.2290   51.7060 N   0  0  0  0  0  0  0  0  0  0  0  0
   33.3700   30.7450   50.2690 H   0  0  0  0  0  0  0  0  0  0  0  0
   38.2000   32.0070   45.2610 N   0  0  0  0  0  0  0  0  0  0  0  0
   39.3400   32.7300   45.2550 C   0  0  0  0  0  0  0  0  0  0  0  0
   39.4880   33.2960   44.0320 N   0  0  0  0  0  0  0  0  0  0  0  0
   38.4440   32.9180   43.3030 C   0  0  0  0  0  0  0  0  0  0  0  0
   38.0420   33.1650   42.0060 C   0  0  0  0  0  0  0  0  0  0  0  0
   36.9120   32.6440   41.5060 N   0  0  0  0  0  0  0  0  0  0  0  0
   36.0980   31.8400   42.2510 C   0  0  0  0  0  0  0  0  0  0  0  0
   36.4900   31.5990   43.5150 N   0  0  0  0  0  0  0  0  0  0  0  0
   37.6110   32.1020   44.0490 C   0  0  0  0  0  0  0  0  0  0  0  0
   38.8130   33.9790   41.1640 N   0  0  0  0  0  0  0  0  0  0  0  0
   35.9208   30.6919   45.3487 H   0  0  0  0  0  0  0  0  0  0  0  0
   39.3799   31.6344   47.7363 H   0  0  0  0  0  0  0  0  0  0  0  0
   36.5034   28.1224   49.7702 H   0  0  0  0  0  0  0  0  0  0  0  0
   34.1807   29.5981   52.2788 H   0  0  0  0  0  0  0  0  0  0  0  0
   35.6616   28.6144   52.1315 H   0  0  0  0  0  0  0  0  0  0  0  0
   40.0335   32.8414   46.1016 H   0  0  0  0  0  0  0  0  0  0  0  0
   35.1717   31.4124   41.8398 H   0  0  0  0  0  0  0  0  0  0  0  0
   38.5052   34.1579   40.1975 H   0  0  0  0  0  0  0  0  0  0  0  0
   39.6872   34.3981   41.5120 H   0  0  0  0  0  0  0  0  0  0  0  0
  1  2  2  0
  1  6  1  0
  2  3  1  0
  3  4  2  0
  5  4  1  0
  5  7  1  0
  6  5  2  0
  7  8  1  0
  8 10  1  0
  9 11  1  0
  9  8  2  0
 12  2  1  0
 13 12  1  0
 14 13  2  0
 15 14  1  0
 15 20  2  0
 16 15  1  0
 17 16  2  0
 17 18  1  0
 18 19  2  0
 19 20  1  0
 20 12  1  0
 21 16  1  0
  1 22  1  0
  3 23  1  0
  7 24  1  0
 10 25  1  0
 10 26  1  0
 13 27  1  0
 18 28  1  0
 21 29  1  0
 21 30  1  0
M  ISO  4  22  14  23  14  27  14  28  14
M  END
>  <minimizedAffinity>  (1) 
-5.08057165

>  <minimizedRMSD>  (1) 
3.83879566

$$$$
