
     RDKit          3D

 20 20  0  0  0  0  0  0  0  0999 V2000
   36.8670   31.4100   49.9640 C   0  0  0  0  0  0  0  0  0  0  0  0
   35.6230   30.8450   49.5520 C   0  0  0  0  0  0  0  0  0  0  0  0
   35.2020   29.7080   50.2490 C   0  0  0  0  0  0  0  0  0  0  0  0
   35.9680   29.2120   51.2500 N   0  0  0  0  0  0  0  0  0  0  0  0
   37.1340   29.7800   51.6000 C   0  0  0  0  0  0  0  0  0  0  0  0
   37.5870   30.8660   50.9710 N   0  0  0  0  0  0  0  0  0  0  0  0
   37.3090   32.5290   49.2970 O   0  0  0  0  0  0  0  0  0  0  0  0
   38.6520   32.5950   48.8680 C   0  0  0  0  0  0  0  0  0  0  0  0
   38.7780   32.3470   47.3780 C   0  0  0  0  0  0  0  0  0  0  0  0
   39.2470   33.9300   49.2390 C   0  0  0  0  0  0  0  0  0  0  0  0
   35.0296   31.2787   48.7336 H   0  0  0  0  0  0  0  0  0  0  0  0
   34.2528   29.2185   49.9854 H   0  0  0  0  0  0  0  0  0  0  0  0
   37.7248   29.3427   52.4184 H   0  0  0  0  0  0  0  0  0  0  0  0
   39.2116   31.7979   49.3794 H   0  0  0  0  0  0  0  0  0  0  0  0
   39.2703   31.3781   47.2079 H   0  0  0  0  0  0  0  0  0  0  0  0
   37.7769   32.3346   46.9224 H   0  0  0  0  0  0  0  0  0  0  0  0
   39.3783   33.1483   46.9224 H   0  0  0  0  0  0  0  0  0  0  0  0
   39.2878   34.0216   50.3344 H   0  0  0  0  0  0  0  0  0  0  0  0
   40.2640   34.0055   48.8266 H   0  0  0  0  0  0  0  0  0  0  0  0
   38.6233   34.7368   48.8266 H   0  0  0  0  0  0  0  0  0  0  0  0
  1  6  2  0
  2  1  1  0
  2  3  2  0
  3  4  1  0
  4  5  2  0
  6  5  1  0
  7  1  1  0
  8 10  1  0
  8  7  1  0
  9  8  1  0
  2 11  1  0
  3 12  1  0
  5 13  1  0
  8 14  1  0
  9 15  1  0
  9 16  1  0
  9 17  1  0
 10 18  1  0
 10 19  1  0
 10 20  1  0
M  ISO  8  11  14  12  14  13  14  14   8  15   8  16   8  17   8  18   8
M  ISO  2  19   8  20   8
M  END
>  <minimizedAffinity>  (1) 
-4.11442327

>  <minimizedRMSD>  (1) 
4.46889973

$$$$
