
     RDKit          3D

 42 44  0  0  0  0  0  0  0  0999 V2000
   36.4222   30.9576   48.7433 N   0  0  0  0  0  0  0  0  0  0  0  0
   36.3858   31.7316   49.8666 C   0  0  0  0  0  0  0  0  0  0  0  0
   37.3589   32.6654   49.7774 N   0  0  0  0  0  0  0  0  0  0  0  0
   37.9886   32.4603   48.5988 C   0  0  0  0  0  0  0  0  0  0  0  0
   39.0415   33.0877   47.9714 C   0  0  0  0  0  0  0  0  0  0  0  0
   39.4790   32.6662   46.7659 N   0  0  0  0  0  0  0  0  0  0  0  0
   38.9047   31.6203   46.1337 C   0  0  0  0  0  0  0  0  0  0  0  0
   37.8786   31.0161   46.7551 N   0  0  0  0  0  0  0  0  0  0  0  0
   37.4056   31.3878   47.9422 C   0  0  0  0  0  0  0  0  0  0  0  0
   39.6730   34.1834   48.5919 N   0  0  0  0  0  0  0  0  0  0  0  0
   34.6629   29.9745   47.4023 C   0  0  0  0  0  0  0  0  0  0  0  0
   35.5382   29.8832   48.5102 C   0  0  0  0  0  0  0  0  0  0  0  0
   35.4325   28.7300   49.2637 C   0  0  0  0  0  0  0  0  0  0  0  0
   34.5332   27.7783   48.9221 N   0  0  0  0  0  0  0  0  0  0  0  0
   33.7151   27.8859   47.8699 C   0  0  0  0  0  0  0  0  0  0  0  0
   33.7905   29.0002   47.1102 N   0  0  0  0  0  0  0  0  0  0  0  0
   32.7353   26.8360   47.5137 C   0  0  0  0  0  0  0  0  0  0  0  0
   31.5370   26.9231   48.4450 C   0  0  0  0  0  0  0  0  0  0  0  0
   32.1557   27.1212   46.1161 C   0  0  0  0  0  0  0  0  0  0  0  0
   33.3225   25.4710   47.4304 C   0  0  0  0  0  0  0  0  0  0  0  0
   35.7423   31.6994   50.7351 H   0  0  0  0  0  0  0  0  0  0  0  0
   39.2612   31.2867   45.1652 H   0  0  0  0  0  0  0  0  0  0  0  0
   39.1638   34.7769   49.3128 H   0  0  0  0  0  0  0  0  0  0  0  0
   40.6605   34.4665   48.3789 H   0  0  0  0  0  0  0  0  0  0  0  0
   34.6536   30.8446   46.7280 H   0  0  0  0  0  0  0  0  0  0  0  0
   36.1013   28.6723   50.1013 H   0  0  0  0  0  0  0  0  0  0  0  0
   31.8444   26.9567   49.5078 H   0  0  0  0  0  0  0  0  0  0  0  0
   30.7669   26.1852   48.1991 H   0  0  0  0  0  0  0  0  0  0  0  0
   31.0314   27.9226   48.2805 H   0  0  0  0  0  0  0  0  0  0  0  0
   31.1351   26.6926   46.0185 H   0  0  0  0  0  0  0  0  0  0  0  0
   32.0434   28.2365   46.1055 H   0  0  0  0  0  0  0  0  0  0  0  0
   32.8145   26.7606   45.3193 H   0  0  0  0  0  0  0  0  0  0  0  0
   32.4633   24.7747   47.1841 H   0  0  0  0  0  0  0  0  0  0  0  0
   34.0099   25.3756   46.5578 H   0  0  0  0  0  0  0  0  0  0  0  0
   33.9282   24.9829   48.6447 N   0  0  0  0  0  0  0  0  0  0  0  0
   33.4842   23.8947   49.4354 C   0  0  0  0  0  0  0  0  0  0  0  0
   32.8655   22.9614   48.7676 N   0  0  0  0  0  0  0  0  0  0  0  0
   33.6843   23.7932   50.8377 N   0  0  0  0  0  0  0  0  0  0  0  0
   34.7989   25.4969   48.9810 H   0  0  0  0  0  0  0  0  0  0  0  0
   32.4916   22.1123   49.2272 H   0  0  0  0  0  0  0  0  0  0  0  0
   34.0721   22.8371   51.0808 H   0  0  0  0  0  0  0  0  0  0  0  0
   33.5429   24.4190   51.6494 H   0  0  0  0  0  0  0  0  0  0  0  0
  1  2  1  0
  3  2  2  0
  4  3  1  0
  5 10  1  0
  5  4  2  0
  6  5  1  0
  7  8  1  0
  7  6  2  0
  8  9  2  0
  9  4  1  0
  9  1  1  0
 11 12  2  0
 12  1  1  0
 12 13  1  0
 14 13  2  0
 15 14  1  0
 16 11  1  0
 16 15  2  0
 17 15  1  0
 17 18  1  0
 19 17  1  0
 20 17  1  0
  2 21  1  0
  7 22  1  0
 10 23  1  0
 10 24  1  0
 11 25  1  0
 13 26  1  0
 18 27  1  0
 18 28  1  0
 18 29  1  0
 19 30  1  0
 19 31  1  0
 19 32  1  0
 20 33  1  0
 20 34  1  0
 35 36  1  0
 36 37  2  3
 36 38  1  0
 35 39  1  0
 37 40  1  0
 38 41  1  0
 38 42  1  0
 20 35  1  0
M  ISO  8  21  14  22  14  25  14  26  14  27   8  28   8  29   8  30   8
M  ISO  4  31   8  32   8  33   8  34   8
M  END
>  <DihAtoms>  (1) 
16,19,34,35

>  <DihDeg>  (1) 
68.88048959852603

$$$$
