
     RDKit          3D

 38 41  0  0  0  0  0  0  0  0999 V2000
   30.0590   27.7960   47.0910 C   0  0  0  0  0  0  0  0  0  0  0  0
   30.9200   28.4610   46.2790 C   0  0  0  0  0  0  0  0  0  0  0  0
   32.2000   28.7990   46.6690 C   0  0  0  0  0  0  0  0  0  0  0  0
   32.6340   28.4600   47.9220 C   0  0  0  0  0  0  0  0  0  0  0  0
   31.7480   27.7860   48.7320 C   0  0  0  0  0  0  0  0  0  0  0  0
   30.4730   27.4440   48.3560 C   0  0  0  0  0  0  0  0  0  0  0  0
   35.6910   29.9870   48.6650 C   0  0  0  0  0  0  0  0  0  0  0  0
   35.8250   28.8740   49.4870 C   0  0  0  0  0  0  0  0  0  0  0  0
   34.7020   28.1020   49.3550 C   0  0  0  0  0  0  0  0  0  0  0  0
   33.9140   28.7330   48.4790 N   0  0  0  0  0  0  0  0  0  0  0  0
   34.4880   29.8290   48.0760 N   0  0  0  0  0  0  0  0  0  0  0  0
   38.0550   32.7310   49.4410 C   0  0  0  0  0  0  0  0  0  0  0  0
   38.7230   32.8380   48.2100 C   0  0  0  0  0  0  0  0  0  0  0  0
   38.3600   31.9890   47.1630 C   0  0  0  0  0  0  0  0  0  0  0  0
   37.3620   31.0910   47.4010 N   0  0  0  0  0  0  0  0  0  0  0  0
   36.7340   31.0040   48.5880 C   0  0  0  0  0  0  0  0  0  0  0  0
   37.0700   31.8190   49.6170 N   0  0  0  0  0  0  0  0  0  0  0  0
   28.4250   27.3790   46.6260 S   0  0  0  0  0  0  0  0  0  0  0  0
   28.4720   26.2140   45.6750 O   0  0  0  0  0  0  0  0  0  0  0  0
   27.6700   27.0180   47.8560 O   0  0  0  0  0  0  0  0  0  0  0  0
   27.6320   28.6850   45.8220 C   0  0  0  0  0  0  0  0  0  0  0  0
   27.0620   28.5100   44.5560 C   0  0  0  0  0  0  0  0  0  0  0  0
   26.4600   29.6300   44.0250 C   0  0  0  0  0  0  0  0  0  0  0  0
   26.4080   30.8060   44.6510 N   0  0  0  0  0  0  0  0  0  0  0  0
   26.9840   30.9080   45.8840 C   0  0  0  0  0  0  0  0  0  0  0  0
   27.5870   29.8490   46.4550 N   0  0  0  0  0  0  0  0  0  0  0  0
   30.5840   28.7417   45.2699 H   0  0  0  0  0  0  0  0  0  0  0  0
   32.8662   29.3366   45.9782 H   0  0  0  0  0  0  0  0  0  0  0  0
   32.0821   27.5045   49.7415 H   0  0  0  0  0  0  0  0  0  0  0  0
   29.8035   26.9060   49.0433 H   0  0  0  0  0  0  0  0  0  0  0  0
   36.6867   28.6514   50.1335 H   0  0  0  0  0  0  0  0  0  0  0  0
   34.4905   27.1520   49.8676 H   0  0  0  0  0  0  0  0  0  0  0  0
   38.3354   33.3957   50.2714 H   0  0  0  0  0  0  0  0  0  0  0  0
   39.5221   33.5814   48.0727 H   0  0  0  0  0  0  0  0  0  0  0  0
   38.8595   32.0424   46.1844 H   0  0  0  0  0  0  0  0  0  0  0  0
   27.0923   27.5481   44.0233 H   0  0  0  0  0  0  0  0  0  0  0  0
   25.9971   29.5494   43.0304 H   0  0  0  0  0  0  0  0  0  0  0  0
   26.9550   31.8690   46.4184 H   0  0  0  0  0  0  0  0  0  0  0  0
  1  6  2  0
  2  3  2  0
  2  1  1  0
  3  4  1  0
  4 10  1  0
  4  5  2  0
  6  5  1  0
  7  8  1  0
  9  8  2  0
 10  9  1  0
 11 10  1  0
 11  7  2  0
 12 17  2  0
 13 12  1  0
 14 15  1  0
 14 13  2  0
 15 16  2  0
 16  7  1  0
 16 17  1  0
 18  1  1  0
 18 20  2  0
 19 18  2  0
 21 26  1  0
 21 18  1  0
 22 21  2  0
 23 22  1  0
 23 24  2  0
 24 25  1  0
 25 26  2  0
  2 27  1  0
  3 28  1  0
  5 29  1  0
  6 30  1  0
  8 31  1  0
  9 32  1  0
 12 33  1  0
 13 34  1  0
 14 35  1  0
 22 36  1  0
 23 37  1  0
 25 38  1  0
M  ISO  8  27  14  28  14  29  14  30  14  31  14  32  14  33  14  34  14
M  ISO  4  35  14  36  14  37  14  38  14
M  END
>  <minimizedAffinity>  (1) 
-5.91774464

>  <minimizedRMSD>  (1) 
1.40501332

$$$$
