
     RDKit          3D

 16 16  0  0  0  0  0  0  0  0999 V2000
   35.6490   28.9800   50.2650 C   0  0  0  0  0  0  0  0  0  0  0  0
   36.2990   30.1090   49.7530 C   0  0  0  0  0  0  0  0  0  0  0  0
   36.0280   30.4640   48.4330 C   0  0  0  0  0  0  0  0  0  0  0  0
   35.1500   29.7090   47.6980 N   0  0  0  0  0  0  0  0  0  0  0  0
   34.5460   28.6170   48.2530 C   0  0  0  0  0  0  0  0  0  0  0  0
   34.8030   28.2740   49.5150 N   0  0  0  0  0  0  0  0  0  0  0  0
   37.2530   30.9370   50.5360 C   0  0  0  0  0  0  0  0  0  0  0  0
   38.5450   30.8710   50.0930 F   0  0  0  0  0  0  0  0  0  0  0  0
   37.2670   30.5550   51.8610 F   0  0  0  0  0  0  0  0  0  0  0  0
   36.8840   32.2760   50.4740 F   0  0  0  0  0  0  0  0  0  0  0  0
   33.6080   27.7970   47.4910 C   0  0  0  0  0  0  0  0  0  0  0  0
   33.7830   26.5660   47.2940 O   0  0  0  0  0  0  0  0  0  0  0  0
   32.4510   28.2620   46.9120 O   0  0  0  0  0  0  0  0  0  0  0  0
   35.8395   28.6704   51.3032 H   0  0  0  0  0  0  0  0  0  0  0  0
   36.5143   31.3426   47.9841 H   0  0  0  0  0  0  0  0  0  0  0  0
   31.8650   27.6420   46.4096 H   0  0  0  0  0  0  0  0  0  0  0  0
  2  1  2  0
  2  7  1  0
  3  2  1  0
  4  5  1  0
  4  3  2  0
  5  6  2  0
  6  1  1  0
  7  9  1  0
  8  7  1  0
 10  7  1  0
 11  5  1  0
 12 11  2  0
 13 11  1  0
  1 14  1  0
  3 15  1  0
 13 16  1  0
M  ISO  3  14  14  15  14  16   3
M  END
>  <minimizedAffinity>  (1) 
-4.44504929

>  <minimizedRMSD>  (1) 
0.199743524

$$$$
