
     RDKit          3D

 40 42  0  0  0  0  0  0  0  0999 V2000
   36.8540   30.8020   46.0980 C   0  0  0  0  0  0  0  0  0  0  0  0
   35.8320   30.0340   46.6600 C   0  0  0  0  0  0  0  0  0  0  0  0
   35.5200   29.9810   47.9810 C   0  0  0  0  0  0  0  0  0  0  0  0
   36.2460   30.7290   48.8790 C   0  0  0  0  0  0  0  0  0  0  0  0
   37.2440   31.4900   48.4050 C   0  0  0  0  0  0  0  0  0  0  0  0
   37.9720   32.2420   49.3120 C   0  0  0  0  0  0  0  0  0  0  0  0
   39.0000   33.0400   48.9170 C   0  0  0  0  0  0  0  0  0  0  0  0
   39.3090   33.0870   47.5650 C   0  0  0  0  0  0  0  0  0  0  0  0
   38.5710   32.3330   46.6990 C   0  0  0  0  0  0  0  0  0  0  0  0
   37.5420   31.5290   47.0590 C   0  0  0  0  0  0  0  0  0  0  0  0
   36.1270   31.3340   42.6140 C   0  0  0  0  0  0  0  0  0  0  0  0
   37.2970   31.0120   41.9280 C   0  0  0  0  0  0  0  0  0  0  0  0
   38.3690   30.5990   42.6620 C   0  0  0  0  0  0  0  0  0  0  0  0
   38.1890   30.5480   43.9680 N   0  0  0  0  0  0  0  0  0  0  0  0
   37.1480   30.8260   44.6850 C   0  0  0  0  0  0  0  0  0  0  0  0
   36.1230   31.2240   43.9420 N   0  0  0  0  0  0  0  0  0  0  0  0
   39.6160   30.2320   42.1140 N   0  0  0  0  0  0  0  0  0  0  0  0
   40.7450   29.9260   42.9090 C   0  0  0  0  0  0  0  0  0  0  0  0
   40.9590   30.6520   43.9670 N   0  0  0  0  0  0  0  0  0  0  0  0
   41.6120   28.8570   42.5680 N   0  0  0  0  0  0  0  0  0  0  0  0
   41.6970   30.5370   44.6490 H   0  0  0  0  0  0  0  0  0  0  0  0
   37.3550   31.1190   40.4860 C   0  0  0  0  0  0  0  0  0  0  0  0
   37.9670   30.5120   39.6140 O   0  0  0  0  0  0  0  0  0  0  0  0
   36.5970   32.0790   39.8420 O   0  0  0  0  0  0  0  0  0  0  0  0
   35.9170   30.6620   50.2140 O   0  0  0  0  0  0  0  0  0  0  0  0
   36.4170   29.6320   51.0340 C   0  0  0  0  0  0  0  0  0  0  0  0
   37.2330   28.7330   50.4080 F   0  0  0  0  0  0  0  0  0  0  0  0
   37.1990   30.2270   52.0180 F   0  0  0  0  0  0  0  0  0  0  0  0
   35.3150   28.9920   51.5870 F   0  0  0  0  0  0  0  0  0  0  0  0
   35.2287   29.4201   45.9751 H   0  0  0  0  0  0  0  0  0  0  0  0
   34.6932   29.3449   48.3301 H   0  0  0  0  0  0  0  0  0  0  0  0
   37.7120   32.1925   50.3797 H   0  0  0  0  0  0  0  0  0  0  0  0
   39.5703   33.6314   49.6485 H   0  0  0  0  0  0  0  0  0  0  0  0
   40.1316   33.7188   47.1988 H   0  0  0  0  0  0  0  0  0  0  0  0
   38.8307   32.3818   45.6312 H   0  0  0  0  0  0  0  0  0  0  0  0
   35.2302   31.6702   42.0730 H   0  0  0  0  0  0  0  0  0  0  0  0
   39.7084   30.1848   41.0892 H   0  0  0  0  0  0  0  0  0  0  0  0
   42.4296   28.6485   43.1587 H   0  0  0  0  0  0  0  0  0  0  0  0
   41.4242   28.2890   41.7296 H   0  0  0  0  0  0  0  0  0  0  0  0
   36.6319   32.1577   38.8558 H   0  0  0  0  0  0  0  0  0  0  0  0
  1  2  2  0
  1 10  1  0
  2  3  1  0
  3  4  2  0
  4 25  1  0
  5  4  1  0
  5  6  2  0
  7  6  1  0
  8  7  2  0
  9 10  2  0
  9  8  1  0
 10  5  1  0
 11 16  2  0
 12 11  1  0
 12 13  2  0
 13 14  1  0
 14 15  2  0
 15  1  1  0
 16 15  1  0
 17 13  1  0
 17 18  1  0
 18 19  2  0
 19 21  1  0
 20 18  1  0
 22 12  1  0
 23 22  2  0
 24 22  1  0
 25 26  1  0
 26 29  1  0
 26 28  1  0
 27 26  1  0
  2 30  1  0
  3 31  1  0
  6 32  1  0
  7 33  1  0
  8 34  1  0
  9 35  1  0
 11 36  1  0
 17 37  1  0
 20 38  1  0
 20 39  1  0
 24 40  1  0
M  END
>  <minimizedAffinity>  (1) 
-7.32400608

>  <minimizedRMSD>  (1) 
0.0246586278

$$$$
