
     RDKit          3D

 34 36  0  0  0  0  0  0  0  0999 V2000
   38.1710   31.8960   45.8800 N   0  0  0  0  0  0  0  0  0  0  0  0
   39.2990   32.5920   45.8290 C   0  0  0  0  0  0  0  0  0  0  0  0
   39.8110   33.1880   44.7190 C   0  0  0  0  0  0  0  0  0  0  0  0
   39.1390   33.0870   43.5320 C   0  0  0  0  0  0  0  0  0  0  0  0
   39.5450   33.6070   42.4660 O   0  0  0  0  0  0  0  0  0  0  0  0
   38.0140   32.4060   43.5380 N   0  0  0  0  0  0  0  0  0  0  0  0
   37.5410   31.8300   44.6580 C   0  0  0  0  0  0  0  0  0  0  0  0
   36.4510   31.1960   44.5660 O   0  0  0  0  0  0  0  0  0  0  0  0
   37.2820   32.2780   42.3180 C   0  0  0  0  0  0  0  0  0  0  0  0
   36.3500   33.2750   42.0280 C   0  0  0  0  0  0  0  0  0  0  0  0
   35.5930   33.2300   40.8630 C   0  0  0  0  0  0  0  0  0  0  0  0
   35.7620   32.2090   40.0030 N   0  0  0  0  0  0  0  0  0  0  0  0
   36.6670   31.2560   40.2990 C   0  0  0  0  0  0  0  0  0  0  0  0
   37.4140   31.2710   41.4180 N   0  0  0  0  0  0  0  0  0  0  0  0
   37.5620   31.2460   46.9760 C   0  0  0  0  0  0  0  0  0  0  0  0
   38.2420   31.2150   48.2790 C   0  0  0  0  0  0  0  0  0  0  0  0
   35.6810   29.1930   50.1960 C   0  0  0  0  0  0  0  0  0  0  0  0
   36.3530   29.8040   49.1180 C   0  0  0  0  0  0  0  0  0  0  0  0
   37.4840   30.5450   49.3490 C   0  0  0  0  0  0  0  0  0  0  0  0
   37.9040   30.6490   50.6390 N   0  0  0  0  0  0  0  0  0  0  0  0
   37.2780   30.0780   51.6560 C   0  0  0  0  0  0  0  0  0  0  0  0
   36.1740   29.3520   51.4500 N   0  0  0  0  0  0  0  0  0  0  0  0
   39.8688   32.6960   46.7641 H   0  0  0  0  0  0  0  0  0  0  0  0
   40.7571   33.7463   44.7753 H   0  0  0  0  0  0  0  0  0  0  0  0
   36.2122   34.1091   42.7318 H   0  0  0  0  0  0  0  0  0  0  0  0
   34.8618   34.0226   40.6459 H   0  0  0  0  0  0  0  0  0  0  0  0
   36.8019   30.4249   39.5912 H   0  0  0  0  0  0  0  0  0  0  0  0
   36.5899   31.7353   47.1360 H   0  0  0  0  0  0  0  0  0  0  0  0
   37.5500   30.1894   46.6703 H   0  0  0  0  0  0  0  0  0  0  0  0
   39.1992   30.6875   48.1543 H   0  0  0  0  0  0  0  0  0  0  0  0
   38.3649   32.2623   48.5921 H   0  0  0  0  0  0  0  0  0  0  0  0
   34.7724   28.5974   50.0235 H   0  0  0  0  0  0  0  0  0  0  0  0
   35.9710   29.6868   48.0931 H   0  0  0  0  0  0  0  0  0  0  0  0
   37.6684   30.2015   52.6770 H   0  0  0  0  0  0  0  0  0  0  0  0
  1 15  1  0
  2  1  1  0
  3  2  2  0
  4  6  1  0
  4  3  1  0
  5  4  2  0
  6  7  1  0
  7  1  1  0
  8  7  2  0
  9  6  1  0
 10  9  2  0
 11 10  1  0
 12 13  1  0
 12 11  2  0
 13 14  2  0
 14  9  1  0
 15 16  1  0
 16 19  1  0
 17 22  2  0
 18 19  2  0
 18 17  1  0
 19 20  1  0
 20 21  2  0
 22 21  1  0
  2 23  1  0
  3 24  1  0
 10 25  1  0
 11 26  1  0
 13 27  1  0
 15 28  1  0
 15 29  1  0
 16 30  1  0
 16 31  1  0
 17 32  1  0
 18 33  1  0
 21 34  1  0
M  ISO  8  23  14  24  14  25  14  26  14  27  14  28   8  29   8  30   8
M  ISO  4  31   8  32  14  33  14  34  14
M  END
>  <minimizedAffinity>  (1) 
-5.20776224

>  <minimizedRMSD>  (1) 
1.3170085

$$$$
