
     RDKit          3D

 25 26  0  0  1  0  0  0  0  0999 V2000
   36.3710   30.4620   48.6700 N   0  0  0  0  0  0  0  0  0  0  0  0
   37.5900   30.6020   47.8830 C   0  0  0  0  0  0  0  0  0  0  0  0
   37.8920   32.0600   48.0450 C   0  0  0  0  0  0  0  0  0  0  0  0
   37.6600   32.2750   49.5100 C   0  0  0  0  0  0  0  0  0  0  0  0
   36.7300   31.1610   49.8880 C   0  0  2  0  0  0  0  0  0  0  0  0
   35.1680   29.8040   48.3010 C   0  0  0  0  0  0  0  0  0  0  0  0
   34.4930   30.1510   47.1210 C   0  0  0  0  0  0  0  0  0  0  0  0
   33.3000   29.4440   46.8270 C   0  0  0  0  0  0  0  0  0  0  0  0
   32.8750   28.4740   47.6990 N   0  0  0  0  0  0  0  0  0  0  0  0
   33.5630   28.1790   48.8230 C   0  0  0  0  0  0  0  0  0  0  0  0
   34.7030   28.8520   49.1040 N   0  0  0  0  0  0  0  0  0  0  0  0
   37.4230   30.2480   50.8160 C   0  0  0  0  0  0  0  0  0  0  0  0
   37.3200   30.1700   52.0630 O   0  0  0  0  0  0  0  0  0  0  0  0
   38.3650   29.2520   50.5000 O   0  0  0  0  0  0  0  0  0  0  0  0
   37.4177   30.3433   46.8278 H   0  0  0  0  0  0  0  0  0  0  0  0
   38.4068   29.9390   48.2043 H   0  0  0  0  0  0  0  0  0  0  0  0
   38.9332   32.2839   47.7698 H   0  0  0  0  0  0  0  0  0  0  0  0
   37.2797   32.7100   47.4027 H   0  0  0  0  0  0  0  0  0  0  0  0
   38.6036   32.2061   50.0712 H   0  0  0  0  0  0  0  0  0  0  0  0
   37.2486   33.2699   49.7357 H   0  0  0  0  0  0  0  0  0  0  0  0
   35.8268   31.5453   50.3845 H   0  0  0  0  0  0  0  0  0  0  0  0
   34.8731   30.9378   46.4528 H   0  0  0  0  0  0  0  0  0  0  0  0
   32.7256   29.6691   45.9163 H   0  0  0  0  0  0  0  0  0  0  0  0
   33.1992   27.3969   49.5056 H   0  0  0  0  0  0  0  0  0  0  0  0
   38.7619   28.6999   51.2196 H   0  0  0  0  0  0  0  0  0  0  0  0
  1  5  1  0
  2  3  1  0
  2  1  1  0
  3  4  1  0
  4  5  1  0
  5 12  1  0
  6  1  1  0
  6 11  1  0
  7  6  2  0
  8  7  1  0
  8  9  2  0
  9 10  1  0
 10 11  2  0
 12 13  2  0
 14 12  1  0
  2 15  1  0
  2 16  1  0
  3 17  1  0
  3 18  1  0
  4 19  1  0
  4 20  1  0
  5 21  1  1
  7 22  1  0
  8 23  1  0
 10 24  1  0
 14 25  1  0
M  ISO  8  15  13  16  13  17  13  18  13  19  13  20  13  21  13  22  14
M  ISO  3  23  14  24  14  25   3
M  END
>  <minimizedAffinity>  (1) 
-4.83055258

>  <minimizedRMSD>  (1) 
1.69449139

$$$$
