
     RDKit          3D

 38 41  0  0  1  0  0  0  0  0999 V2000
   39.2330   30.5600   44.2810 C   0  0  2  0  0  0  0  0  0  0  0  0
   38.3710   31.1560   47.7920 C   0  0  0  0  0  0  0  0  0  0  0  0
   38.9250   32.4560   47.9160 C   0  0  0  0  0  0  0  0  0  0  0  0
   39.6290   32.7980   46.2500 S   0  0  0  0  0  0  0  0  0  0  0  0
   39.0320   31.0780   45.6710 C   0  0  0  0  0  0  0  0  0  0  0  0
   38.5420   30.6640   46.5890 N   0  0  0  0  0  0  0  0  0  0  0  0
   38.1200   30.8850   50.2400 C   0  0  0  0  0  0  0  0  0  0  0  0
   37.7080   30.5610   48.9440 C   0  0  0  0  0  0  0  0  0  0  0  0
   36.6460   29.6640   48.8420 C   0  0  0  0  0  0  0  0  0  0  0  0
   36.0870   29.1680   49.9690 N   0  0  0  0  0  0  0  0  0  0  0  0
   36.5250   29.5160   51.1940 C   0  0  0  0  0  0  0  0  0  0  0  0
   37.5430   30.3760   51.3260 N   0  0  0  0  0  0  0  0  0  0  0  0
   40.6830   30.7180   43.9530 C   0  0  0  0  0  0  0  0  0  0  0  0
   38.3800   31.3800   43.3270 C   0  0  0  0  0  0  0  0  0  0  0  0
   36.9890   31.0100   43.3650 N   0  0  0  0  0  0  0  0  0  0  0  0
   36.5100   29.7770   43.6660 C   0  0  0  0  0  0  0  0  0  0  0  0
   35.1470   29.7390   43.6260 N   0  0  0  0  0  0  0  0  0  0  0  0
   34.7290   30.9760   43.2910 C   0  0  0  0  0  0  0  0  0  0  0  0
   33.4760   31.5520   43.0930 C   0  0  0  0  0  0  0  0  0  0  0  0
   33.3690   32.8590   42.7470 N   0  0  0  0  0  0  0  0  0  0  0  0
   34.5050   33.5820   42.6010 C   0  0  0  0  0  0  0  0  0  0  0  0
   35.6960   33.0030   42.7980 N   0  0  0  0  0  0  0  0  0  0  0  0
   35.8730   31.7200   43.1400 C   0  0  0  0  0  0  0  0  0  0  0  0
   32.3160   30.7430   43.2600 N   0  0  0  0  0  0  0  0  0  0  0  0
   38.9404   29.5032   44.1941 H   0  0  0  0  0  0  0  0  0  0  0  0
   38.9322   33.1081   48.8018 H   0  0  0  0  0  0  0  0  0  0  0  0
   38.9552   31.5894   50.3674 H   0  0  0  0  0  0  0  0  0  0  0  0
   36.2664   29.3626   47.8546 H   0  0  0  0  0  0  0  0  0  0  0  0
   36.0452   29.0926   52.0887 H   0  0  0  0  0  0  0  0  0  0  0  0
   41.2648   30.7814   44.8844 H   0  0  0  0  0  0  0  0  0  0  0  0
   41.0228   29.8516   43.3666 H   0  0  0  0  0  0  0  0  0  0  0  0
   40.8282   31.6373   43.3666 H   0  0  0  0  0  0  0  0  0  0  0  0
   38.7554   31.2318   42.3037 H   0  0  0  0  0  0  0  0  0  0  0  0
   38.4518   32.4323   43.6391 H   0  0  0  0  0  0  0  0  0  0  0  0
   37.1440   28.9125   43.9125 H   0  0  0  0  0  0  0  0  0  0  0  0
   34.4491   34.6442   42.3207 H   0  0  0  0  0  0  0  0  0  0  0  0
   31.3801   31.1492   43.1184 H   0  0  0  0  0  0  0  0  0  0  0  0
   32.4129   29.7517   43.5224 H   0  0  0  0  0  0  0  0  0  0  0  0
  1  5  1  0
  2  3  2  0
  2  8  1  0
  4  3  1  0
  5  4  1  0
  5  6  2  0
  6  2  1  0
  7 12  2  0
  8  7  1  0
  9  8  2  0
  9 10  1  0
 10 11  2  0
 11 12  1  0
 13  1  1  0
 14 15  1  0
 14  1  1  0
 15 16  1  0
 17 16  2  0
 18 17  1  0
 19 24  1  0
 19 18  2  0
 20 19  1  0
 21 20  2  0
 21 22  1  0
 22 23  2  0
 23 18  1  0
 23 15  1  0
  1 25  1  1
  3 26  1  0
  7 27  1  0
  9 28  1  0
 11 29  1  0
 13 30  1  0
 13 31  1  0
 13 32  1  0
 14 33  1  0
 14 34  1  0
 16 35  1  0
 21 36  1  0
 24 37  1  0
 24 38  1  0
M  ISO  8  25   8  26  14  27  14  28  14  29  14  30   8  31   8  32   8
M  ISO  4  33   8  34   8  35  14  36  14
M  END
>  <minimizedAffinity>  (1) 
-5.43878031

>  <minimizedRMSD>  (1) 
1.64333451

$$$$
