
     RDKit          3D

 24 25  0  0  0  0  0  0  0  0999 V2000
   34.9390   29.8820   47.6230 C   0  0  0  0  0  0  0  0  0  0  0  0
   35.9010   30.3840   48.5720 C   0  0  0  0  0  0  0  0  0  0  0  0
   37.0900   30.9200   48.0740 C   0  0  0  0  0  0  0  0  0  0  0  0
   37.2560   30.9290   46.7320 N   0  0  0  0  0  0  0  0  0  0  0  0
   36.3490   30.4570   45.8700 C   0  0  0  0  0  0  0  0  0  0  0  0
   35.2100   29.9430   46.3120 N   0  0  0  0  0  0  0  0  0  0  0  0
   36.7120   30.5550   44.4390 C   0  0  0  0  0  0  0  0  0  0  0  0
   37.9670   31.1420   44.3010 F   0  0  0  0  0  0  0  0  0  0  0  0
   36.8360   29.2850   43.9050 F   0  0  0  0  0  0  0  0  0  0  0  0
   35.7570   31.2120   43.6890 F   0  0  0  0  0  0  0  0  0  0  0  0
   38.0920   31.4390   48.9870 C   0  0  0  0  0  0  0  0  0  0  0  0
   38.3470   30.8290   50.0480 O   0  0  0  0  0  0  0  0  0  0  0  0
   38.8320   32.6680   48.7190 C   0  0  0  0  0  0  0  0  0  0  0  0
   39.4490   32.9280   47.5530 N   0  0  0  0  0  0  0  0  0  0  0  0
   40.0200   34.0880   47.6080 O   0  0  0  0  0  0  0  0  0  0  0  0
   39.8110   34.6460   48.7990 C   0  0  0  0  0  0  0  0  0  0  0  0
   39.0610   33.7430   49.4930 N   0  0  0  0  0  0  0  0  0  0  0  0
   33.7680   29.3550   48.1130 O   0  0  0  0  0  0  0  0  0  0  0  0
   33.6650   28.5840   49.2620 C   0  0  0  0  0  0  0  0  0  0  0  0
   34.6590   27.6210   49.3900 F   0  0  0  0  0  0  0  0  0  0  0  0
   33.5760   29.3090   50.4310 F   0  0  0  0  0  0  0  0  0  0  0  0
   32.4430   27.8950   49.1520 F   0  0  0  0  0  0  0  0  0  0  0  0
   35.7046   30.3460   49.6537 H   0  0  0  0  0  0  0  0  0  0  0  0
   40.1674   35.6263   49.1484 H   0  0  0  0  0  0  0  0  0  0  0  0
  1 18  1  0
  1  2  2  0
  3  2  1  0
  3 11  1  0
  4  3  2  0
  5  6  2  0
  5  4  1  0
  6  1  1  0
  7  5  1  0
  8  7  1  0
  9  7  1  0
 10  7  1  0
 11 12  2  0
 13 11  1  0
 13 17  1  0
 14 15  1  0
 14 13  2  0
 15 16  1  0
 16 17  2  0
 18 19  1  0
 19 20  1  0
 19 21  1  0
 22 19  1  0
  2 23  1  0
 16 24  1  0
M  ISO  2  23  14  24  14
M  END
>  <minimizedAffinity>  (1) 
-5.28688526

>  <minimizedRMSD>  (1) 
2.78305292

$$$$
