
     RDKit          3D

 48 52  0  0  0  0  0  0  0  0999 V2000
   36.4143   30.9687   48.7484 N   0  0  0  0  0  0  0  0  0  0  0  0
   36.3852   31.7371   49.8619 C   0  0  0  0  0  0  0  0  0  0  0  0
   37.3627   32.6663   49.7755 N   0  0  0  0  0  0  0  0  0  0  0  0
   37.9853   32.4614   48.6089 C   0  0  0  0  0  0  0  0  0  0  0  0
   39.0469   33.0795   47.9701 C   0  0  0  0  0  0  0  0  0  0  0  0
   39.4784   32.6660   46.7828 N   0  0  0  0  0  0  0  0  0  0  0  0
   38.9030   31.6097   46.1228 C   0  0  0  0  0  0  0  0  0  0  0  0
   37.8726   31.0215   46.7593 N   0  0  0  0  0  0  0  0  0  0  0  0
   37.4047   31.3983   47.9469 C   0  0  0  0  0  0  0  0  0  0  0  0
   39.6911   34.1722   48.5836 N   0  0  0  0  0  0  0  0  0  0  0  0
   34.6640   29.9765   47.3905 C   0  0  0  0  0  0  0  0  0  0  0  0
   35.5228   29.8890   48.5034 C   0  0  0  0  0  0  0  0  0  0  0  0
   35.4249   28.7305   49.2852 C   0  0  0  0  0  0  0  0  0  0  0  0
   34.5229   27.7924   48.9172 N   0  0  0  0  0  0  0  0  0  0  0  0
   33.7200   27.8991   47.8570 C   0  0  0  0  0  0  0  0  0  0  0  0
   33.7935   28.9887   47.0993 N   0  0  0  0  0  0  0  0  0  0  0  0
   32.7592   26.8327   47.5118 C   0  0  0  0  0  0  0  0  0  0  0  0
   31.5483   26.8930   48.4611 C   0  0  0  0  0  0  0  0  0  0  0  0
   32.1360   27.1275   46.1297 C   0  0  0  0  0  0  0  0  0  0  0  0
   33.3250   25.4699   47.4145 C   0  0  0  0  0  0  0  0  0  0  0  0
   35.6715   31.5988   50.6784 H   0  0  0  0  0  0  0  0  0  0  0  0
   39.2435   31.2617   45.1556 H   0  0  0  0  0  0  0  0  0  0  0  0
   39.7119   35.0202   47.9738 H   0  0  0  0  0  0  0  0  0  0  0  0
   40.0639   34.0033   49.5589 H   0  0  0  0  0  0  0  0  0  0  0  0
   34.6597   30.8376   46.7157 H   0  0  0  0  0  0  0  0  0  0  0  0
   36.0827   28.6676   50.1344 H   0  0  0  0  0  0  0  0  0  0  0  0
   30.6869   26.3471   48.0638 H   0  0  0  0  0  0  0  0  0  0  0  0
   31.8388   26.4677   49.4435 H   0  0  0  0  0  0  0  0  0  0  0  0
   31.2675   27.9568   48.6045 H   0  0  0  0  0  0  0  0  0  0  0  0
   31.6276   28.1011   46.1365 H   0  0  0  0  0  0  0  0  0  0  0  0
   32.9137   27.0704   45.3452 H   0  0  0  0  0  0  0  0  0  0  0  0
   31.4267   26.2922   45.9533 H   0  0  0  0  0  0  0  0  0  0  0  0
   34.0293   25.4729   46.5226 H   0  0  0  0  0  0  0  0  0  0  0  0
   32.4874   24.8058   47.0345 H   0  0  0  0  0  0  0  0  0  0  0  0
   33.9551   24.9180   48.5682 N   0  0  0  0  0  0  0  0  0  0  0  0
   34.3803   23.6209   48.5097 C   0  0  0  0  0  0  0  0  0  0  0  0
   34.9369   23.2404   49.6851 N   0  0  0  0  0  0  0  0  0  0  0  0
   34.8858   24.2672   50.5186 C   0  0  0  0  0  0  0  0  0  0  0  0
   35.2872   24.4961   51.8183 C   0  0  0  0  0  0  0  0  0  0  0  0
   35.9106   23.4580   52.5559 N   0  0  0  0  0  0  0  0  0  0  0  0
   35.0618   25.7293   52.3403 N   0  0  0  0  0  0  0  0  0  0  0  0
   34.4653   26.7083   51.6218 C   0  0  0  0  0  0  0  0  0  0  0  0
   34.0675   26.5030   50.3542 N   0  0  0  0  0  0  0  0  0  0  0  0
   34.2804   25.2885   49.8167 C   0  0  0  0  0  0  0  0  0  0  0  0
   34.3768   22.8301   47.7483 H   0  0  0  0  0  0  0  0  0  0  0  0
   36.8731   23.2170   52.2403 H   0  0  0  0  0  0  0  0  0  0  0  0
   35.1820   23.1879   53.2780 H   0  0  0  0  0  0  0  0  0  0  0  0
   34.3348   27.6582   52.1400 H   0  0  0  0  0  0  0  0  0  0  0  0
  1  2  1  0
  3  2  2  0
  4  3  1  0
  5 10  1  0
  5  4  2  0
  6  5  1  0
  7  8  1  0
  7  6  2  0
  8  9  2  0
  9  4  1  0
  9  1  1  0
 11 12  2  0
 12  1  1  0
 12 13  1  0
 14 13  2  0
 15 14  1  0
 16 11  1  0
 16 15  2  0
 17 15  1  0
 17 18  1  0
 19 17  1  0
 20 17  1  0
  2 21  1  0
  7 22  1  0
 10 23  1  0
 10 24  1  0
 11 25  1  0
 13 26  1  0
 18 27  1  0
 18 28  1  0
 18 29  1  0
 19 30  1  0
 19 31  1  0
 19 32  1  0
 20 33  1  0
 20 34  1  0
 35 36  1  0
 36 37  2  0
 37 38  1  0
 38 39  2  0
 39 40  1  0
 39 41  1  0
 41 42  2  0
 42 43  1  0
 43 44  2  0
 44 35  1  0
 44 38  1  0
 36 45  1  0
 40 46  1  0
 40 47  1  0
 42 48  1  0
 20 35  1  0
M  ISO  8  21  14  22  14  25  14  26  14  27   8  28   8  29   8  30   8
M  ISO  4  31   8  32   8  33   8  34   8
M  END
>  <DihAtoms>  (1) 
16,19,34,35

>  <DihDeg>  (1) 
84.80412318461187

$$$$
