
     RDKit          3D

 37 39  0  0  0  0  0  0  0  0999 V2000
   36.8390   30.7910   46.0910 C   0  0  0  0  0  0  0  0  0  0  0  0
   35.8240   30.0310   46.6600 C   0  0  0  0  0  0  0  0  0  0  0  0
   35.5190   29.9840   47.9830 C   0  0  0  0  0  0  0  0  0  0  0  0
   36.2430   30.7280   48.8750 C   0  0  0  0  0  0  0  0  0  0  0  0
   37.2470   31.4920   48.3950 C   0  0  0  0  0  0  0  0  0  0  0  0
   37.9740   32.2420   49.3030 C   0  0  0  0  0  0  0  0  0  0  0  0
   39.0040   33.0400   48.9020 C   0  0  0  0  0  0  0  0  0  0  0  0
   39.3070   33.0820   47.5520 C   0  0  0  0  0  0  0  0  0  0  0  0
   38.5640   32.3260   46.6890 C   0  0  0  0  0  0  0  0  0  0  0  0
   37.5390   31.5260   47.0470 C   0  0  0  0  0  0  0  0  0  0  0  0
   36.0940   31.2980   42.6140 C   0  0  0  0  0  0  0  0  0  0  0  0
   37.2740   30.9970   41.9100 C   0  0  0  0  0  0  0  0  0  0  0  0
   38.3510   30.6110   42.6460 C   0  0  0  0  0  0  0  0  0  0  0  0
   38.1730   30.5590   43.9570 N   0  0  0  0  0  0  0  0  0  0  0  0
   37.1330   30.8160   44.6810 C   0  0  0  0  0  0  0  0  0  0  0  0
   36.0990   31.1890   43.9440 N   0  0  0  0  0  0  0  0  0  0  0  0
   39.6170   30.2610   42.1050 N   0  0  0  0  0  0  0  0  0  0  0  0
   40.7420   29.9300   42.8980 C   0  0  0  0  0  0  0  0  0  0  0  0
   40.9360   30.6620   43.9400 N   0  0  0  0  0  0  0  0  0  0  0  0
   41.6030   28.8590   42.5610 N   0  0  0  0  0  0  0  0  0  0  0  0
   41.6920   30.5740   44.6250 H   0  0  0  0  0  0  0  0  0  0  0  0
   35.9180   30.6660   50.2110 O   0  0  0  0  0  0  0  0  0  0  0  0
   36.4200   29.6310   51.0300 C   0  0  0  0  0  0  0  0  0  0  0  0
   37.2330   28.7360   50.4060 F   0  0  0  0  0  0  0  0  0  0  0  0
   37.1920   30.2420   52.0180 F   0  0  0  0  0  0  0  0  0  0  0  0
   35.3130   29.0000   51.5840 F   0  0  0  0  0  0  0  0  0  0  0  0
   35.2158   29.4150   45.9813 H   0  0  0  0  0  0  0  0  0  0  0  0
   34.6926   29.3498   48.3363 H   0  0  0  0  0  0  0  0  0  0  0  0
   37.7152   32.1932   50.3710 H   0  0  0  0  0  0  0  0  0  0  0  0
   39.5774   33.6330   49.6297 H   0  0  0  0  0  0  0  0  0  0  0  0
   40.1294   33.7113   47.1810 H   0  0  0  0  0  0  0  0  0  0  0  0
   38.8218   32.3738   45.6207 H   0  0  0  0  0  0  0  0  0  0  0  0
   35.1867   31.6164   42.0797 H   0  0  0  0  0  0  0  0  0  0  0  0
   37.3237   31.0704   40.8136 H   0  0  0  0  0  0  0  0  0  0  0  0
   39.7221   30.2473   41.0805 H   0  0  0  0  0  0  0  0  0  0  0  0
   42.4139   28.6426   43.1582 H   0  0  0  0  0  0  0  0  0  0  0  0
   41.4189   28.2957   41.7185 H   0  0  0  0  0  0  0  0  0  0  0  0
  1  2  2  0
  1 10  1  0
  2  3  1  0
  3  4  2  0
  4 22  1  0
  5  4  1  0
  5  6  2  0
  7  6  1  0
  8  7  2  0
  9 10  2  0
  9  8  1  0
 10  5  1  0
 11 16  2  0
 12 11  1  0
 12 13  2  0
 13 14  1  0
 14 15  2  0
 15  1  1  0
 16 15  1  0
 17 13  1  0
 17 18  1  0
 18 19  2  0
 19 21  1  0
 20 18  1  0
 22 23  1  0
 23 26  1  0
 23 25  1  0
 24 23  1  0
  2 27  1  0
  3 28  1  0
  6 29  1  0
  7 30  1  0
  8 31  1  0
  9 32  1  0
 11 33  1  0
 12 34  1  0
 17 35  1  0
 20 36  1  0
 20 37  1  0
M  END
>  <Score>  (1) 
-7.49051

$$$$
