
     RDKit          3D

 33 37  0  0  0  0  0  0  0  0999 V2000
   37.5400   32.9850   49.8240 C   0  0  0  0  0  0  0  0  0  0  0  0
   38.3960   33.1860   48.7400 C   0  0  0  0  0  0  0  0  0  0  0  0
   38.3640   32.2690   47.6900 C   0  0  0  0  0  0  0  0  0  0  0  0
   37.5050   31.2110   47.7510 N   0  0  0  0  0  0  0  0  0  0  0  0
   36.6890   31.0560   48.8290 C   0  0  0  0  0  0  0  0  0  0  0  0
   36.7050   31.9320   49.8550 N   0  0  0  0  0  0  0  0  0  0  0  0
   35.8320   29.9180   48.7930 N   0  0  0  0  0  0  0  0  0  0  0  0
   35.9340   28.7810   49.4960 C   0  0  0  0  0  0  0  0  0  0  0  0
   34.9230   27.9210   49.1890 N   0  0  0  0  0  0  0  0  0  0  0  0
   34.1460   28.5230   48.2600 C   0  0  0  0  0  0  0  0  0  0  0  0
   32.9900   28.1520   47.5730 C   0  0  0  0  0  0  0  0  0  0  0  0
   32.5060   29.0630   46.7020 N   0  0  0  0  0  0  0  0  0  0  0  0
   33.0800   30.2610   46.4850 C   0  0  0  0  0  0  0  0  0  0  0  0
   34.1960   30.6120   47.1530 N   0  0  0  0  0  0  0  0  0  0  0  0
   34.7310   29.7530   48.0360 C   0  0  0  0  0  0  0  0  0  0  0  0
   39.2250   32.4020   46.5170 C   0  0  0  0  0  0  0  0  0  0  0  0
   40.2090   33.2800   46.2000 N   0  0  0  0  0  0  0  0  0  0  0  0
   40.6910   32.9890   45.0270 O   0  0  0  0  0  0  0  0  0  0  0  0
   40.0540   31.9510   44.5690 C   0  0  0  0  0  0  0  0  0  0  0  0
   39.1230   31.5490   45.4730 N   0  0  0  0  0  0  0  0  0  0  0  0
   40.2440   31.2800   43.3210 N   0  0  0  0  0  0  0  0  0  0  0  0
   39.9510   31.8660   42.1510 N   0  0  0  0  0  0  0  0  0  0  0  0
   40.2330   30.9940   41.1550 C   0  0  0  0  0  0  0  0  0  0  0  0
   40.7220   29.8280   41.7740 C   0  0  0  0  0  0  0  0  0  0  0  0
   40.7200   30.0280   43.1360 C   0  0  0  0  0  0  0  0  0  0  0  0
   37.5488   33.6966   50.6628 H   0  0  0  0  0  0  0  0  0  0  0  0
   39.0797   34.0474   48.7146 H   0  0  0  0  0  0  0  0  0  0  0  0
   36.7300   28.5701   50.2253 H   0  0  0  0  0  0  0  0  0  0  0  0
   32.5033   27.1783   47.7310 H   0  0  0  0  0  0  0  0  0  0  0  0
   32.6355   30.9571   45.7584 H   0  0  0  0  0  0  0  0  0  0  0  0
   40.1054   31.1629   40.0756 H   0  0  0  0  0  0  0  0  0  0  0  0
   41.0496   28.9136   41.2577 H   0  0  0  0  0  0  0  0  0  0  0  0
   41.0392   29.3171   43.9124 H   0  0  0  0  0  0  0  0  0  0  0  0
  1  6  2  0
  2  1  1  0
  3  4  1  0
  3  2  2  0
  4  5  2  0
  5  6  1  0
  7  5  1  0
  7  8  1  0
  9  8  2  0
 10  9  1  0
 11 10  2  0
 12 11  1  0
 13 12  2  0
 13 14  1  0
 14 15  2  0
 15 10  1  0
 15  7  1  0
 16  3  1  0
 17 16  2  0
 18 17  1  0
 19 18  1  0
 19 20  2  0
 20 16  1  0
 21 19  1  0
 22 21  1  0
 23 24  1  0
 23 22  2  0
 24 25  2  0
 25 21  1  0
  1 26  1  0
  2 27  1  0
  8 28  1  0
 11 29  1  0
 13 30  1  0
 23 31  1  0
 24 32  1  0
 25 33  1  0
M  END
>  <Score>  (1) 
-7.11762

$$$$
