
     RDKit          3D

 42 46  0  0  1  0  0  0  0  0999 V2000
   34.3350   30.1630   47.4100 C   0  0  0  0  0  0  0  0  0  0  0  0
   35.4580   30.0810   48.2160 C   0  0  0  0  0  0  0  0  0  0  0  0
   35.4950   28.9310   49.0670 C   0  0  0  0  0  0  0  0  0  0  0  0
   34.4750   28.0310   49.0380 N   0  0  0  0  0  0  0  0  0  0  0  0
   33.4280   28.1850   48.2320 C   0  0  0  0  0  0  0  0  0  0  0  0
   33.3560   29.2450   47.4210 N   0  0  0  0  0  0  0  0  0  0  0  0
   36.5890   30.9760   48.3250 C   0  0  0  0  0  0  0  0  0  0  0  0
   36.6190   31.5910   49.5480 C   0  0  0  0  0  0  0  0  0  0  0  0
   37.6340   32.5050   49.8720 C   0  0  0  0  0  0  0  0  0  0  0  0
   38.6140   32.7840   48.9420 C   0  0  0  0  0  0  0  0  0  0  0  0
   38.5640   32.1560   47.7220 C   0  0  0  0  0  0  0  0  0  0  0  0
   39.5110   32.3690   46.7050 C   0  0  0  0  0  0  0  0  0  0  0  0
   39.4050   31.7080   45.5000 C   0  0  0  0  0  0  0  0  0  0  0  0
   38.3870   30.8200   45.2380 C   0  0  0  0  0  0  0  0  0  0  0  0
   37.4470   30.6020   46.2350 C   0  0  0  0  0  0  0  0  0  0  0  0
   37.5730   31.2700   47.4200 C   0  0  0  0  0  0  0  0  0  0  0  0
   32.3400   27.1610   48.2570 C   0  0  1  0  0  0  0  0  0  0  0  0
   31.0830   27.4590   48.9950 C   0  0  0  0  0  0  0  0  0  0  0  0
   31.0740   27.4140   47.4890 C   0  0  2  0  0  0  0  0  0  0  0  0
   30.4870   26.2250   46.8230 C   0  0  0  0  0  0  0  0  0  0  0  0
   29.1290   26.2560   46.5350 C   0  0  0  0  0  0  0  0  0  0  0  0
   28.5070   25.1920   45.9180 C   0  0  0  0  0  0  0  0  0  0  0  0
   29.2220   24.0640   45.5670 C   0  0  0  0  0  0  0  0  0  0  0  0
   30.5890   24.0650   45.8700 C   0  0  0  0  0  0  0  0  0  0  0  0
   31.1450   25.1120   46.4660 N   0  0  0  0  0  0  0  0  0  0  0  0
   34.2408   31.0212   46.7284 H   0  0  0  0  0  0  0  0  0  0  0  0
   36.3476   28.7748   49.7442 H   0  0  0  0  0  0  0  0  0  0  0  0
   35.8364   31.3656   50.2874 H   0  0  0  0  0  0  0  0  0  0  0  0
   37.6478   32.9937   50.8574 H   0  0  0  0  0  0  0  0  0  0  0  0
   39.4200   33.4959   49.1734 H   0  0  0  0  0  0  0  0  0  0  0  0
   40.3432   33.0687   46.8722 H   0  0  0  0  0  0  0  0  0  0  0  0
   40.1593   31.8967   44.7219 H   0  0  0  0  0  0  0  0  0  0  0  0
   38.3207   30.3005   44.2707 H   0  0  0  0  0  0  0  0  0  0  0  0
   36.6136   29.9024   46.0738 H   0  0  0  0  0  0  0  0  0  0  0  0
   33.0803   26.3478   48.2816 H   0  0  0  0  0  0  0  0  0  0  0  0
   30.5832   26.6665   49.5713 H   0  0  0  0  0  0  0  0  0  0  0  0
   30.7836   28.1992   49.7516 H   0  0  0  0  0  0  0  0  0  0  0  0
   30.7392   28.1084   46.7043 H   0  0  0  0  0  0  0  0  0  0  0  0
   28.5395   27.1449   46.8039 H   0  0  0  0  0  0  0  0  0  0  0  0
   27.4294   25.2419   45.7029 H   0  0  0  0  0  0  0  0  0  0  0  0
   28.7411   23.2066   45.0735 H   0  0  0  0  0  0  0  0  0  0  0  0
   31.2063   23.1918   45.6122 H   0  0  0  0  0  0  0  0  0  0  0  0
  1  6  2  0
  1  2  1  0
  2  7  1  0
  2  3  2  0
  4  3  1  0
  5 17  1  0
  5  4  2  0
  6  5  1  0
  7  8  2  0
  8  9  1  0
 10  9  2  0
 11 10  1  0
 12 11  2  0
 13 12  1  0
 14 13  2  0
 14 15  1  0
 15 16  2  0
 16 11  1  0
 16  7  1  0
 17 18  1  0
 19 17  1  0
 19 18  1  0
 20 19  1  0
 21 20  2  0
 22 21  1  0
 23 24  1  0
 23 22  2  0
 24 25  2  0
 25 20  1  0
  1 26  1  0
  3 27  1  0
  8 28  1  0
  9 29  1  0
 10 30  1  0
 12 31  1  0
 13 32  1  0
 14 33  1  0
 15 34  1  0
 17 35  1  1
 18 36  1  0
 18 37  1  0
 19 38  1  6
 21 39  1  0
 22 40  1  0
 23 41  1  0
 24 42  1  0
M  END
>  <Score>  (1) 
-7.02563

$$$$
