
     RDKit          3D

 33 35  0  0  0  0  0  0  0  0999 V2000
   36.3340   30.3120   46.7950 C   0  0  0  0  0  0  0  0  0  0  0  0
   35.0530   30.0060   46.3190 C   0  0  0  0  0  0  0  0  0  0  0  0
   34.0300   29.5100   47.0840 C   0  0  0  0  0  0  0  0  0  0  0  0
   34.2220   29.2800   48.4090 C   0  0  0  0  0  0  0  0  0  0  0  0
   35.4410   29.5530   48.9410 C   0  0  0  0  0  0  0  0  0  0  0  0
   35.6190   29.3150   50.2820 C   0  0  0  0  0  0  0  0  0  0  0  0
   36.8180   29.5630   50.9020 C   0  0  0  0  0  0  0  0  0  0  0  0
   37.8510   30.0660   50.1210 C   0  0  0  0  0  0  0  0  0  0  0  0
   37.6180   30.2840   48.7860 C   0  0  0  0  0  0  0  0  0  0  0  0
   36.4620   30.0540   48.1500 C   0  0  0  0  0  0  0  0  0  0  0  0
   38.2840   30.5680   43.8100 C   0  0  0  0  0  0  0  0  0  0  0  0
   39.2620   31.5360   44.0270 C   0  0  0  0  0  0  0  0  0  0  0  0
   39.2510   32.1350   45.2730 C   0  0  0  0  0  0  0  0  0  0  0  0
   38.3170   31.7360   46.1360 N   0  0  0  0  0  0  0  0  0  0  0  0
   37.3850   30.8310   45.9640 C   0  0  0  0  0  0  0  0  0  0  0  0
   37.4200   30.2750   44.7650 N   0  0  0  0  0  0  0  0  0  0  0  0
   40.2060   33.1880   45.7060 C   0  0  0  0  0  0  0  0  0  0  0  0
   40.0920   34.2980   44.8860 F   0  0  0  0  0  0  0  0  0  0  0  0
   41.5010   32.7370   45.5500 F   0  0  0  0  0  0  0  0  0  0  0  0
   40.0260   33.6090   46.9900 F   0  0  0  0  0  0  0  0  0  0  0  0
   33.1710   28.7790   49.1550 O   0  0  0  0  0  0  0  0  0  0  0  0
   32.2820   27.8520   48.6150 C   0  0  0  0  0  0  0  0  0  0  0  0
   32.8280   26.6560   48.2620 F   0  0  0  0  0  0  0  0  0  0  0  0
   31.3200   27.5800   49.6030 F   0  0  0  0  0  0  0  0  0  0  0  0
   31.6820   28.4800   47.5200 F   0  0  0  0  0  0  0  0  0  0  0  0
   34.8530   30.1766   45.2509 H   0  0  0  0  0  0  0  0  0  0  0  0
   33.0531   29.2980   46.6250 H   0  0  0  0  0  0  0  0  0  0  0  0
   34.7811   28.9164   50.8727 H   0  0  0  0  0  0  0  0  0  0  0  0
   36.9558   29.3708   51.9763 H   0  0  0  0  0  0  0  0  0  0  0  0
   38.8343   30.2848   50.5629 H   0  0  0  0  0  0  0  0  0  0  0  0
   38.4513   30.6813   48.1878 H   0  0  0  0  0  0  0  0  0  0  0  0
   38.2313   30.0473   42.8425 H   0  0  0  0  0  0  0  0  0  0  0  0
   39.9973   31.8069   43.2550 H   0  0  0  0  0  0  0  0  0  0  0  0
  1 10  1  0
  2  1  2  0
  2  3  1  0
  3  4  2  0
  4  5  1  0
  4 21  1  0
  5  6  2  0
  6  7  1  0
  8  7  2  0
  9  8  1  0
 10  9  2  0
 10  5  1  0
 11 12  2  0
 11 16  1  0
 12 13  1  0
 13 17  1  0
 13 14  2  0
 15 14  1  0
 15  1  1  0
 16 15  2  0
 17 20  1  0
 18 17  1  0
 19 17  1  0
 22 21  1  0
 22 24  1  0
 23 22  1  0
 25 22  1  0
  2 26  1  0
  3 27  1  0
  6 28  1  0
  7 29  1  0
  8 30  1  0
  9 31  1  0
 11 32  1  0
 12 33  1  0
M  END
>  <Score>  (1) 
-7.19591

$$$$
