
     RDKit          3D

 33 35  0  0  0  0  0  0  0  0999 V2000
   36.4360   30.5310   46.5060 C   0  0  0  0  0  0  0  0  0  0  0  0
   35.1510   30.0270   46.4710 C   0  0  0  0  0  0  0  0  0  0  0  0
   34.4910   29.7010   45.3070 C   0  0  0  0  0  0  0  0  0  0  0  0
   35.1270   29.8790   44.1030 C   0  0  0  0  0  0  0  0  0  0  0  0
   36.4120   30.3820   44.1260 C   0  0  0  0  0  0  0  0  0  0  0  0
   37.0720   30.7100   45.3060 C   0  0  0  0  0  0  0  0  0  0  0  0
   38.4310   31.2400   45.3050 C   0  0  0  0  0  0  0  0  0  0  0  0
   38.4770   32.5650   44.9100 C   0  0  0  0  0  0  0  0  0  0  0  0
   39.7140   33.2090   44.8590 C   0  0  0  0  0  0  0  0  0  0  0  0
   40.8300   32.4790   45.2110 C   0  0  0  0  0  0  0  0  0  0  0  0
   40.7890   31.1650   45.6040 C   0  0  0  0  0  0  0  0  0  0  0  0
   39.5550   30.5280   45.6520 C   0  0  0  0  0  0  0  0  0  0  0  0
   37.4290   30.3230   50.0230 C   0  0  0  0  0  0  0  0  0  0  0  0
   38.2100   31.4650   50.1930 C   0  0  0  0  0  0  0  0  0  0  0  0
   38.3950   32.3080   49.0960 C   0  0  0  0  0  0  0  0  0  0  0  0
   37.8060   31.9680   47.9290 N   0  0  0  0  0  0  0  0  0  0  0  0
   37.0480   30.8440   47.7940 C   0  0  0  0  0  0  0  0  0  0  0  0
   36.8740   30.0450   48.8400 N   0  0  0  0  0  0  0  0  0  0  0  0
   37.2340   29.4180   51.2150 C   0  0  0  0  0  0  0  0  0  0  0  0
   35.8740   29.1750   51.3810 F   0  0  0  0  0  0  0  0  0  0  0  0
   37.9610   28.2960   51.0050 F   0  0  0  0  0  0  0  0  0  0  0  0
   37.6790   30.1120   52.3400 F   0  0  0  0  0  0  0  0  0  0  0  0
   34.6253   29.8776   47.4256 H   0  0  0  0  0  0  0  0  0  0  0  0
   33.4662   29.3026   45.3413 H   0  0  0  0  0  0  0  0  0  0  0  0
   34.6299   29.6295   43.1540 H   0  0  0  0  0  0  0  0  0  0  0  0
   36.9367   30.5299   43.1706 H   0  0  0  0  0  0  0  0  0  0  0  0
   37.5551   33.1013   44.6409 H   0  0  0  0  0  0  0  0  0  0  0  0
   39.7960   34.2613   44.5491 H   0  0  0  0  0  0  0  0  0  0  0  0
   41.8092   32.9789   45.1746 H   0  0  0  0  0  0  0  0  0  0  0  0
   41.7106   30.6289   45.8745 H   0  0  0  0  0  0  0  0  0  0  0  0
   39.4788   29.4752   45.9614 H   0  0  0  0  0  0  0  0  0  0  0  0
   38.6684   31.6957   51.1659 H   0  0  0  0  0  0  0  0  0  0  0  0
   39.0021   33.2215   49.1793 H   0  0  0  0  0  0  0  0  0  0  0  0
  1 17  1  0
  2  1  2  0
  3  2  1  0
  4  5  1  0
  4  3  2  0
  5  6  2  0
  6  1  1  0
  7  6  1  0
  7 12  1  0
  8  7  2  0
  9  8  1  0
  9 10  2  0
 10 11  1  0
 11 12  2  0
 13 14  2  0
 13 19  1  0
 15 14  1  0
 16 15  2  0
 17 16  1  0
 17 18  2  0
 18 13  1  0
 19 20  1  0
 19 22  1  0
 21 19  1  0
  2 23  1  0
  3 24  1  0
  4 25  1  0
  5 26  1  0
  8 27  1  0
  9 28  1  0
 10 29  1  0
 11 30  1  0
 12 31  1  0
 14 32  1  0
 15 33  1  0
M  END
>  <Score>  (1) 
-7.30841

$$$$
