
     RDKit          3D

 50 54  0  0  0  0  0  0  0  0999 V2000
   33.3140   27.8220   48.5220 C   0  0  0  0  0  0  0  0  0  0  0  0
   31.7040   26.2170   47.5860 C   0  0  0  0  0  0  0  0  0  0  0  0
   31.4130   25.1020   46.8800 C   0  0  0  0  0  0  0  0  0  0  0  0
   32.3690   24.3020   46.2950 C   0  0  0  0  0  0  0  0  0  0  0  0
   33.6840   24.6940   46.4620 C   0  0  0  0  0  0  0  0  0  0  0  0
   33.9980   25.8240   47.1760 C   0  0  0  0  0  0  0  0  0  0  0  0
   33.0180   26.6020   47.7470 C   0  0  0  0  0  0  0  0  0  0  0  0
   29.3260   27.6600   50.0070 C   0  0  0  0  0  0  0  0  0  0  0  0
   28.6650   28.6440   49.2250 C   0  0  0  0  0  0  0  0  0  0  0  0
   29.0610   28.7770   47.8920 C   0  0  0  0  0  0  0  0  0  0  0  0
   30.0580   27.9580   47.4080 N   0  0  0  0  0  0  0  0  0  0  0  0
   30.6550   27.0400   48.1920 C   0  0  0  0  0  0  0  0  0  0  0  0
   30.2820   26.9090   49.4650 N   0  0  0  0  0  0  0  0  0  0  0  0
   27.5930   29.5090   49.7710 C   0  0  0  0  0  0  0  0  0  0  0  0
   28.0650   30.6040   50.4400 F   0  0  0  0  0  0  0  0  0  0  0  0
   26.7700   28.8080   50.6400 F   0  0  0  0  0  0  0  0  0  0  0  0
   26.7940   29.9800   48.7150 F   0  0  0  0  0  0  0  0  0  0  0  0
   33.8600   28.9520   47.7230 C   0  0  0  0  0  0  0  0  0  0  0  0
   35.0910   29.4610   48.3260 C   0  0  0  0  0  0  0  0  0  0  0  0
   35.6500   28.9330   49.4750 C   0  0  0  0  0  0  0  0  0  0  0  0
   36.8020   29.6300   49.7860 C   0  0  0  0  0  0  0  0  0  0  0  0
   36.9060   30.5770   48.7940 N   0  0  0  0  0  0  0  0  0  0  0  0
   35.8990   30.4710   47.9420 N   0  0  0  0  0  0  0  0  0  0  0  0
   37.8340   31.6160   48.4940 C   0  0  0  0  0  0  0  0  0  0  0  0
   37.8990   32.5510   49.4750 N   0  0  0  0  0  0  0  0  0  0  0  0
   38.7420   33.6140   49.3420 C   0  0  0  0  0  0  0  0  0  0  0  0
   39.5160   33.7460   48.2360 N   0  0  0  0  0  0  0  0  0  0  0  0
   39.4510   32.8250   47.2670 C   0  0  0  0  0  0  0  0  0  0  0  0
   40.2080   32.8890   46.1110 C   0  0  0  0  0  0  0  0  0  0  0  0
   40.1100   31.9160   45.1350 C   0  0  0  0  0  0  0  0  0  0  0  0
   39.2500   30.8440   45.2860 C   0  0  0  0  0  0  0  0  0  0  0  0
   38.4650   30.7280   46.4300 C   0  0  0  0  0  0  0  0  0  0  0  0
   38.6100   31.7230   47.3540 C   0  0  0  0  0  0  0  0  0  0  0  0
   32.3817   28.1591   48.9987 H   0  0  0  0  0  0  0  0  0  0  0  0
   34.0966   27.5474   49.2446 H   0  0  0  0  0  0  0  0  0  0  0  0
   30.3562   24.8184   46.7666 H   0  0  0  0  0  0  0  0  0  0  0  0
   32.1008   23.3999   45.7256 H   0  0  0  0  0  0  0  0  0  0  0  0
   34.4900   24.0923   46.0167 H   0  0  0  0  0  0  0  0  0  0  0  0
   35.0530   26.1124   47.2935 H   0  0  0  0  0  0  0  0  0  0  0  0
   29.0477   27.5183   51.0617 H   0  0  0  0  0  0  0  0  0  0  0  0
   28.5847   29.5234   47.2393 H   0  0  0  0  0  0  0  0  0  0  0  0
   33.1152   29.7605   47.6843 H   0  0  0  0  0  0  0  0  0  0  0  0
   34.0845   28.5927   46.7079 H   0  0  0  0  0  0  0  0  0  0  0  0
   35.2416   28.0899   50.0515 H   0  0  0  0  0  0  0  0  0  0  0  0
   37.4819   29.4648   50.6348 H   0  0  0  0  0  0  0  0  0  0  0  0
   38.7950   34.3710   50.1383 H   0  0  0  0  0  0  0  0  0  0  0  0
   40.9013   33.7307   45.9660 H   0  0  0  0  0  0  0  0  0  0  0  0
   40.7242   31.9953   44.2259 H   0  0  0  0  0  0  0  0  0  0  0  0
   39.1857   30.0789   44.4983 H   0  0  0  0  0  0  0  0  0  0  0  0
   37.7714   29.8875   46.5801 H   0  0  0  0  0  0  0  0  0  0  0  0
  2  7  1  0
  2 12  1  0
  3  2  2  0
  4  5  2  0
  4  3  1  0
  5  6  1  0
  6  7  2  0
  7  1  1  0
  9 14  1  0
  9  8  2  0
 10  9  1  0
 11 10  2  0
 11 12  1  0
 12 13  2  0
 13  8  1  0
 14 15  1  0
 14 16  1  0
 17 14  1  0
 18 19  1  0
 18  1  1  0
 19 20  1  0
 20 21  2  0
 22 21  1  0
 23 19  2  0
 23 22  1  0
 24 22  1  0
 24 25  2  0
 26 25  1  0
 27 26  2  0
 28 33  2  0
 28 27  1  0
 29 28  1  0
 30 31  1  0
 30 29  2  0
 31 32  2  0
 32 33  1  0
 33 24  1  0
  1 34  1  0
  1 35  1  0
  3 36  1  0
  4 37  1  0
  5 38  1  0
  6 39  1  0
  8 40  1  0
 10 41  1  0
 18 42  1  0
 18 43  1  0
 20 44  1  0
 21 45  1  0
 26 46  1  0
 29 47  1  0
 30 48  1  0
 31 49  1  0
 32 50  1  0
M  END
>  <Score>  (1) 
-8.49742

$$$$
