
     RDKit          3D

 41 44  0  0  1  0  0  0  0  0999 V2000
   38.4790   32.3110   48.3090 C   0  0  1  0  0  0  0  0  0  0  0  0
   37.8530   31.2830   49.1370 C   0  0  0  0  0  0  0  0  0  0  0  0
   38.3450   31.0490   50.3510 N   0  0  0  0  0  0  0  0  0  0  0  0
   37.8360   30.1100   51.1870 C   0  0  0  0  0  0  0  0  0  0  0  0
   36.7970   29.3470   50.8520 N   0  0  0  0  0  0  0  0  0  0  0  0
   36.2250   29.5060   49.6490 C   0  0  0  0  0  0  0  0  0  0  0  0
   35.1530   28.7330   49.2460 C   0  0  0  0  0  0  0  0  0  0  0  0
   34.5700   28.8750   48.0250 C   0  0  0  0  0  0  0  0  0  0  0  0
   35.1080   29.8380   47.2050 C   0  0  0  0  0  0  0  0  0  0  0  0
   36.1740   30.5960   47.6220 C   0  0  0  0  0  0  0  0  0  0  0  0
   36.7780   30.4710   48.8390 C   0  0  0  0  0  0  0  0  0  0  0  0
   39.0500   32.3060   46.9930 C   0  0  0  0  0  0  0  0  0  0  0  0
   39.7740   33.4860   46.7540 C   0  0  0  0  0  0  0  0  0  0  0  0
   40.5450   33.6160   45.5460 C   0  0  0  0  0  0  0  0  0  0  0  0
   40.5040   32.5500   44.7120 N   0  0  0  0  0  0  0  0  0  0  0  0
   39.7880   31.4250   44.9770 C   0  0  0  0  0  0  0  0  0  0  0  0
   39.0790   31.3050   46.0870 N   0  0  0  0  0  0  0  0  0  0  0  0
   39.7850   28.1710   42.1950 C   0  0  0  0  0  0  0  0  0  0  0  0
   38.8760   28.2030   43.2300 C   0  0  0  0  0  0  0  0  0  0  0  0
   38.8810   29.2610   44.1290 C   0  0  0  0  0  0  0  0  0  0  0  0
   39.7920   30.3140   44.0220 C   0  0  0  0  0  0  0  0  0  0  0  0
   40.6930   30.2630   42.9800 C   0  0  0  0  0  0  0  0  0  0  0  0
   40.6780   29.2070   42.0920 C   0  0  0  0  0  0  0  0  0  0  0  0
   39.8490   26.8800   41.0190 S   0  0  0  0  0  0  0  0  0  0  0  0
   40.8660   27.2090   39.9640 O   0  0  0  0  0  0  0  0  0  0  0  0
   38.4780   26.6460   40.4470 O   0  0  0  0  0  0  0  0  0  0  0  0
   38.0030   33.4370   48.8390 O   0  0  0  0  0  0  0  0  0  0  0  0
   39.5086   31.9447   48.1837 H   0  0  0  0  0  0  0  0  0  0  0  0
   38.2974   29.9739   52.1762 H   0  0  0  0  0  0  0  0  0  0  0  0
   34.7565   27.9751   49.9376 H   0  0  0  0  0  0  0  0  0  0  0  0
   33.7171   28.2548   47.7120 H   0  0  0  0  0  0  0  0  0  0  0  0
   34.6803   30.0029   46.2050 H   0  0  0  0  0  0  0  0  0  0  0  0
   36.5672   31.3544   46.9290 H   0  0  0  0  0  0  0  0  0  0  0  0
   39.7516   34.3063   47.4865 H   0  0  0  0  0  0  0  0  0  0  0  0
   41.1281   34.5199   45.3157 H   0  0  0  0  0  0  0  0  0  0  0  0
   38.1451   27.3889   43.3442 H   0  0  0  0  0  0  0  0  0  0  0  0
   38.1470   29.2701   44.9483 H   0  0  0  0  0  0  0  0  0  0  0  0
   41.4296   31.0704   42.8555 H   0  0  0  0  0  0  0  0  0  0  0  0
   41.4096   29.1956   41.2707 H   0  0  0  0  0  0  0  0  0  0  0  0
   40.2438   25.7118   41.6159 H   0  0  0  0  0  0  0  0  0  0  0  0
   38.0297   33.3739   49.8266 H   0  0  0  0  0  0  0  0  0  0  0  0
  1 27  1  0
  1  2  1  0
  2  3  2  0
  3  4  1  0
  5  4  2  0
  6  5  1  0
  7  6  2  0
  8  7  1  0
  9 10  1  0
  9  8  2  0
 10 11  2  0
 11  2  1  0
 11  6  1  0
 12  1  1  0
 13 12  2  0
 14 13  1  0
 15 16  1  0
 15 14  2  0
 16 17  2  0
 17 12  1  0
 18 19  2  0
 19 20  1  0
 21 20  2  0
 21 16  1  0
 22 21  1  0
 23 18  1  0
 23 22  2  0
 24 18  1  0
 25 24  2  0
 26 24  2  0
  1 28  1  1
  4 29  1  0
  7 30  1  0
  8 31  1  0
  9 32  1  0
 10 33  1  0
 13 34  1  0
 14 35  1  0
 19 36  1  0
 20 37  1  0
 22 38  1  0
 23 39  1  0
 24 40  1  0
 27 41  1  0
M  END
>  <Score>  (1) 
-7.23749

$$$$
