
     RDKit          3D

 49 52  0  0  0  0  0  0  0  0999 V2000
   36.9330   30.8090   46.0770 C   0  0  0  0  0  0  0  0  0  0  0  0
   35.9090   30.0360   46.6350 C   0  0  0  0  0  0  0  0  0  0  0  0
   35.5850   29.9930   47.9530 C   0  0  0  0  0  0  0  0  0  0  0  0
   36.2830   30.7470   48.8490 C   0  0  0  0  0  0  0  0  0  0  0  0
   37.2800   31.5130   48.3780 C   0  0  0  0  0  0  0  0  0  0  0  0
   37.9890   32.2810   49.2920 C   0  0  0  0  0  0  0  0  0  0  0  0
   39.0170   33.0900   48.9070 C   0  0  0  0  0  0  0  0  0  0  0  0
   39.3440   33.1290   47.5590 C   0  0  0  0  0  0  0  0  0  0  0  0
   38.6240   32.3600   46.6880 C   0  0  0  0  0  0  0  0  0  0  0  0
   37.6040   31.5510   47.0340 C   0  0  0  0  0  0  0  0  0  0  0  0
   36.2090   31.1800   42.5770 C   0  0  0  0  0  0  0  0  0  0  0  0
   37.4250   30.9530   41.9080 C   0  0  0  0  0  0  0  0  0  0  0  0
   38.5150   30.6670   42.6730 C   0  0  0  0  0  0  0  0  0  0  0  0
   38.3170   30.6330   43.9710 N   0  0  0  0  0  0  0  0  0  0  0  0
   37.2450   30.8260   44.6720 C   0  0  0  0  0  0  0  0  0  0  0  0
   36.1960   31.1020   43.9080 N   0  0  0  0  0  0  0  0  0  0  0  0
   39.7940   30.4140   42.1370 N   0  0  0  0  0  0  0  0  0  0  0  0
   40.8800   29.9630   42.9460 C   0  0  0  0  0  0  0  0  0  0  0  0
   41.0110   30.4980   44.1200 N   0  0  0  0  0  0  0  0  0  0  0  0
   41.7850   28.9620   42.4850 N   0  0  0  0  0  0  0  0  0  0  0  0
   41.7140   30.2670   44.8120 H   0  0  0  0  0  0  0  0  0  0  0  0
   37.4840   31.0170   40.4950 N   0  0  0  0  0  0  0  0  0  0  0  0
   37.5040   30.1090   39.3630 C   0  0  0  0  0  0  0  0  0  0  0  0
   36.9590   30.9730   38.2010 C   0  0  0  0  0  0  0  0  0  0  0  0
   37.8040   32.2210   38.5030 C   0  0  0  0  0  0  0  0  0  0  0  0
   37.5310   32.3680   39.9730 C   0  0  0  0  0  0  0  0  0  0  0  0
   35.9340   30.6860   50.1790 O   0  0  0  0  0  0  0  0  0  0  0  0
   36.4410   29.6550   51.0140 C   0  0  0  0  0  0  0  0  0  0  0  0
   37.2480   28.7450   50.4000 F   0  0  0  0  0  0  0  0  0  0  0  0
   37.2180   30.2600   51.9900 F   0  0  0  0  0  0  0  0  0  0  0  0
   35.3320   29.0330   51.5770 F   0  0  0  0  0  0  0  0  0  0  0  0
   35.3175   29.4115   45.9494 H   0  0  0  0  0  0  0  0  0  0  0  0
   34.7608   29.3509   48.2971 H   0  0  0  0  0  0  0  0  0  0  0  0
   37.7138   32.2356   50.3561 H   0  0  0  0  0  0  0  0  0  0  0  0
   39.5699   33.6930   49.6423 H   0  0  0  0  0  0  0  0  0  0  0  0
   40.1656   33.7656   47.1988 H   0  0  0  0  0  0  0  0  0  0  0  0
   38.8983   32.4052   45.6237 H   0  0  0  0  0  0  0  0  0  0  0  0
   35.2923   31.4158   42.0167 H   0  0  0  0  0  0  0  0  0  0  0  0
   39.9498   30.5592   41.1293 H   0  0  0  0  0  0  0  0  0  0  0  0
   42.5613   28.6528   43.0872 H   0  0  0  0  0  0  0  0  0  0  0  0
   41.6624   28.5482   41.5498 H   0  0  0  0  0  0  0  0  0  0  0  0
   38.5275   29.7656   39.1518 H   0  0  0  0  0  0  0  0  0  0  0  0
   36.9135   29.1967   39.5336 H   0  0  0  0  0  0  0  0  0  0  0  0
   35.8788   31.1628   38.2854 H   0  0  0  0  0  0  0  0  0  0  0  0
   37.0381   30.5516   37.1880 H   0  0  0  0  0  0  0  0  0  0  0  0
   38.8717   32.0504   38.3007 H   0  0  0  0  0  0  0  0  0  0  0  0
   37.5608   33.1048   37.8949 H   0  0  0  0  0  0  0  0  0  0  0  0
   38.3358   32.9398   40.4582 H   0  0  0  0  0  0  0  0  0  0  0  0
   36.5933   32.9112   40.1616 H   0  0  0  0  0  0  0  0  0  0  0  0
  1  2  2  0
  1 10  1  0
  2  3  1  0
  3  4  2  0
  4 27  1  0
  5  4  1  0
  5  6  2  0
  7  6  1  0
  8  7  2  0
  9 10  2  0
  9  8  1  0
 10  5  1  0
 11 16  2  0
 12 11  1  0
 12 13  2  0
 13 14  1  0
 14 15  2  0
 15  1  1  0
 16 15  1  0
 17 13  1  0
 17 18  1  0
 18 19  2  0
 19 21  1  0
 20 18  1  0
 22 12  1  0
 23 22  1  0
 24 25  1  0
 24 23  1  0
 25 26  1  0
 26 22  1  0
 27 28  1  0
 28 31  1  0
 28 30  1  0
 29 28  1  0
  2 32  1  0
  3 33  1  0
  6 34  1  0
  7 35  1  0
  8 36  1  0
  9 37  1  0
 11 38  1  0
 17 39  1  0
 20 40  1  0
 20 41  1  0
 23 42  1  0
 23 43  1  0
 24 44  1  0
 24 45  1  0
 25 46  1  0
 25 47  1  0
 26 48  1  0
 26 49  1  0
M  END
>  <Score>  (1) 
-7.42724

$$$$
