
     RDKit          3D

 47 50  0  0  0  0  0  0  0  0999 V2000
   36.2070   31.1960   42.5980 C   0  0  0  0  0  0  0  0  0  0  0  0
   37.4230   30.9690   41.9160 C   0  0  0  0  0  0  0  0  0  0  0  0
   38.5100   30.6830   42.6790 C   0  0  0  0  0  0  0  0  0  0  0  0
   38.3160   30.6460   43.9780 N   0  0  0  0  0  0  0  0  0  0  0  0
   37.2460   30.8400   44.6800 C   0  0  0  0  0  0  0  0  0  0  0  0
   36.1980   31.1170   43.9200 N   0  0  0  0  0  0  0  0  0  0  0  0
   36.9340   30.8200   46.0890 C   0  0  0  0  0  0  0  0  0  0  0  0
   35.9120   30.0420   46.6410 C   0  0  0  0  0  0  0  0  0  0  0  0
   35.5800   29.9890   47.9560 C   0  0  0  0  0  0  0  0  0  0  0  0
   36.2760   30.7400   48.8580 C   0  0  0  0  0  0  0  0  0  0  0  0
   37.2760   31.5120   48.3930 C   0  0  0  0  0  0  0  0  0  0  0  0
   37.9800   32.2740   49.3160 C   0  0  0  0  0  0  0  0  0  0  0  0
   39.0090   33.0860   48.9370 C   0  0  0  0  0  0  0  0  0  0  0  0
   39.3400   33.1320   47.5910 C   0  0  0  0  0  0  0  0  0  0  0  0
   38.6190   32.3650   46.7130 C   0  0  0  0  0  0  0  0  0  0  0  0
   37.6020   31.5570   47.0510 C   0  0  0  0  0  0  0  0  0  0  0  0
   35.9230   30.6690   50.1860 O   0  0  0  0  0  0  0  0  0  0  0  0
   36.4340   29.6340   51.0150 C   0  0  0  0  0  0  0  0  0  0  0  0
   37.2520   28.7380   50.4010 F   0  0  0  0  0  0  0  0  0  0  0  0
   37.2040   30.2460   51.9940 F   0  0  0  0  0  0  0  0  0  0  0  0
   35.3260   29.0140   51.5790 F   0  0  0  0  0  0  0  0  0  0  0  0
   39.7960   30.4480   42.1470 N   0  0  0  0  0  0  0  0  0  0  0  0
   40.8790   29.9700   42.9430 C   0  0  0  0  0  0  0  0  0  0  0  0
   41.0200   30.4960   44.1230 N   0  0  0  0  0  0  0  0  0  0  0  0
   41.7690   28.9640   42.4730 N   0  0  0  0  0  0  0  0  0  0  0  0
   41.7280   30.2670   44.8090 H   0  0  0  0  0  0  0  0  0  0  0  0
   37.4860   31.0190   40.4630 C   0  0  0  0  0  0  0  0  0  0  0  0
   37.5440   32.3380   40.0410 C   0  0  0  0  0  0  0  0  0  0  0  0
   37.6000   32.6710   38.6820 C   0  0  0  0  0  0  0  0  0  0  0  0
   37.5990   31.6640   37.7330 C   0  0  0  0  0  0  0  0  0  0  0  0
   37.5400   30.3600   38.1780 C   0  0  0  0  0  0  0  0  0  0  0  0
   37.4850   30.0300   39.5030 C   0  0  0  0  0  0  0  0  0  0  0  0
   35.2874   31.4333   42.0430 H   0  0  0  0  0  0  0  0  0  0  0  0
   35.3260   29.4187   45.9496 H   0  0  0  0  0  0  0  0  0  0  0  0
   34.7547   29.3444   48.2926 H   0  0  0  0  0  0  0  0  0  0  0  0
   37.7013   32.2217   50.3788 H   0  0  0  0  0  0  0  0  0  0  0  0
   39.5594   33.6860   49.6767 H   0  0  0  0  0  0  0  0  0  0  0  0
   40.1628   33.7698   47.2359 H   0  0  0  0  0  0  0  0  0  0  0  0
   38.8952   32.4156   45.6494 H   0  0  0  0  0  0  0  0  0  0  0  0
   39.9587   30.6285   41.1461 H   0  0  0  0  0  0  0  0  0  0  0  0
   42.5419   28.6396   43.0716 H   0  0  0  0  0  0  0  0  0  0  0  0
   41.6403   28.5603   41.5342 H   0  0  0  0  0  0  0  0  0  0  0  0
   37.5461   33.1423   40.7914 H   0  0  0  0  0  0  0  0  0  0  0  0
   37.6445   33.7252   38.3712 H   0  0  0  0  0  0  0  0  0  0  0  0
   37.6438   31.8960   36.6587 H   0  0  0  0  0  0  0  0  0  0  0  0
   37.5371   29.5500   37.4338 H   0  0  0  0  0  0  0  0  0  0  0  0
   37.4398   28.9729   39.8040 H   0  0  0  0  0  0  0  0  0  0  0  0
  1  6  2  0
  2  1  1  0
  2  3  2  0
  3  4  1  0
  4  5  2  0
  5  7  1  0
  6  5  1  0
  7  8  2  0
  7 16  1  0
  8  9  1  0
  9 10  2  0
 10 17  1  0
 11 10  1  0
 11 12  2  0
 13 12  1  0
 14 13  2  0
 15 16  2  0
 15 14  1  0
 16 11  1  0
 17 18  1  0
 18 21  1  0
 18 20  1  0
 19 18  1  0
 22  3  1  0
 22 23  1  0
 23 24  2  0
 24 26  1  0
 25 23  1  0
 27  2  1  0
 28 27  2  0
 29 28  1  0
 30 31  1  0
 30 29  2  0
 31 32  2  0
 32 27  1  0
  1 33  1  0
  8 34  1  0
  9 35  1  0
 12 36  1  0
 13 37  1  0
 14 38  1  0
 15 39  1  0
 22 40  1  0
 25 41  1  0
 25 42  1  0
 28 43  1  0
 29 44  1  0
 30 45  1  0
 31 46  1  0
 32 47  1  0
M  END
>  <Score>  (1) 
-7.46825

$$$$
