
     RDKit          3D

 42 46  0  0  1  0  0  0  0  0999 V2000
   38.9080   32.2060   46.7080 C   0  0  0  0  0  0  0  0  0  0  0  0
   39.8980   33.1640   46.4490 C   0  0  0  0  0  0  0  0  0  0  0  0
   40.5760   33.1380   45.1850 C   0  0  0  0  0  0  0  0  0  0  0  0
   40.2090   32.1800   44.3220 N   0  0  0  0  0  0  0  0  0  0  0  0
   39.2420   31.2650   44.5990 C   0  0  0  0  0  0  0  0  0  0  0  0
   38.6150   31.2910   45.7710 N   0  0  0  0  0  0  0  0  0  0  0  0
   38.7050   30.1460   43.7850 C   0  0  0  0  0  0  0  0  0  0  0  0
   37.4560   29.6680   43.8850 N   0  0  0  0  0  0  0  0  0  0  0  0
   37.0230   28.6620   43.1330 C   0  0  0  0  0  0  0  0  0  0  0  0
   37.7570   28.0220   42.2120 N   0  0  0  0  0  0  0  0  0  0  0  0
   39.0210   28.4490   42.0560 C   0  0  0  0  0  0  0  0  0  0  0  0
   39.7750   27.8000   41.1200 C   0  0  0  0  0  0  0  0  0  0  0  0
   41.0810   28.1850   40.9100 C   0  0  0  0  0  0  0  0  0  0  0  0
   41.5880   29.2320   41.6680 C   0  0  0  0  0  0  0  0  0  0  0  0
   40.7620   29.8330   42.5910 C   0  0  0  0  0  0  0  0  0  0  0  0
   39.4550   29.4920   42.8440 C   0  0  0  0  0  0  0  0  0  0  0  0
   38.4670   32.2850   48.0710 C   0  0  2  0  0  0  0  0  0  0  0  0
   37.8670   31.3150   48.9870 C   0  0  0  0  0  0  0  0  0  0  0  0
   38.4000   31.1560   50.1970 N   0  0  0  0  0  0  0  0  0  0  0  0
   37.9230   30.2660   51.1080 C   0  0  0  0  0  0  0  0  0  0  0  0
   36.8740   29.4740   50.8540 N   0  0  0  0  0  0  0  0  0  0  0  0
   36.2700   29.5650   49.6590 C   0  0  0  0  0  0  0  0  0  0  0  0
   35.1860   28.7770   49.3330 C   0  0  0  0  0  0  0  0  0  0  0  0
   34.5520   28.8440   48.1390 C   0  0  0  0  0  0  0  0  0  0  0  0
   35.0560   29.7590   47.2520 C   0  0  0  0  0  0  0  0  0  0  0  0
   36.1350   30.5360   47.5810 C   0  0  0  0  0  0  0  0  0  0  0  0
   36.7900   30.4830   48.7740 C   0  0  0  0  0  0  0  0  0  0  0  0
   38.1150   33.4480   48.6080 O   0  0  0  0  0  0  0  0  0  0  0  0
   40.1510   33.9238   47.2031 H   0  0  0  0  0  0  0  0  0  0  0  0
   41.3593   33.8690   44.9359 H   0  0  0  0  0  0  0  0  0  0  0  0
   35.9844   28.3294   43.2770 H   0  0  0  0  0  0  0  0  0  0  0  0
   39.3416   26.9741   40.5368 H   0  0  0  0  0  0  0  0  0  0  0  0
   41.7059   27.6761   40.1613 H   0  0  0  0  0  0  0  0  0  0  0  0
   42.6251   29.5732   41.5342 H   0  0  0  0  0  0  0  0  0  0  0  0
   41.1863   30.6604   43.1787 H   0  0  0  0  0  0  0  0  0  0  0  0
   39.4585   31.8609   47.8542 H   0  0  0  0  0  0  0  0  0  0  0  0
   38.4167   30.1944   52.0884 H   0  0  0  0  0  0  0  0  0  0  0  0
   34.8185   28.0585   50.0804 H   0  0  0  0  0  0  0  0  0  0  0  0
   33.6892   28.2061   47.8967 H   0  0  0  0  0  0  0  0  0  0  0  0
   34.5879   29.8709   46.2629 H   0  0  0  0  0  0  0  0  0  0  0  0
   36.4977   31.2526   46.8294 H   0  0  0  0  0  0  0  0  0  0  0  0
   38.1369   33.3758   49.5951 H   0  0  0  0  0  0  0  0  0  0  0  0
  1 17  1  0
  2  1  2  0
  3  2  1  0
  4  5  1  0
  4  3  2  0
  5  6  2  0
  6  1  1  0
  7  8  2  0
  7  5  1  0
  9  8  1  0
 10  9  2  0
 11 10  1  0
 11 16  2  0
 12 11  1  0
 13 12  2  0
 13 14  1  0
 14 15  2  0
 15 16  1  0
 16  7  1  0
 17 28  1  0
 17 18  1  0
 18 19  2  0
 19 20  1  0
 21 20  2  0
 22 21  1  0
 23 22  2  0
 24 23  1  0
 25 26  1  0
 25 24  2  0
 26 27  2  0
 27 18  1  0
 27 22  1  0
  2 29  1  0
  3 30  1  0
  9 31  1  0
 12 32  1  0
 13 33  1  0
 14 34  1  0
 15 35  1  0
 17 36  1  1
 20 37  1  0
 23 38  1  0
 24 39  1  0
 25 40  1  0
 26 41  1  0
 28 42  1  0
M  END
>  <Score>  (1) 
-7.76109

$$$$
