
     RDKit          3D

 36 38  0  0  0  0  0  0  0  0999 V2000
   36.9600   29.9020   49.9280 C   0  0  0  0  0  0  0  0  0  0  0  0
   38.0310   30.6210   49.4400 C   0  0  0  0  0  0  0  0  0  0  0  0
   38.0050   31.0290   48.1120 C   0  0  0  0  0  0  0  0  0  0  0  0
   36.9190   30.6940   47.3630 N   0  0  0  0  0  0  0  0  0  0  0  0
   35.8780   29.9850   47.8700 C   0  0  0  0  0  0  0  0  0  0  0  0
   35.9370   29.6100   49.1490 N   0  0  0  0  0  0  0  0  0  0  0  0
   39.0670   31.7720   47.5440 N   0  0  0  0  0  0  0  0  0  0  0  0
   38.8890   32.5340   46.3560 C   0  0  0  0  0  0  0  0  0  0  0  0
   37.8190   32.3610   45.6800 N   0  0  0  0  0  0  0  0  0  0  0  0
   39.8770   33.4570   45.9460 N   0  0  0  0  0  0  0  0  0  0  0  0
   37.7480   32.7970   44.7290 H   0  0  0  0  0  0  0  0  0  0  0  0
   34.8390   29.7200   46.8840 C   0  0  0  0  0  0  0  0  0  0  0  0
   34.9440   30.1860   45.5930 C   0  0  0  0  0  0  0  0  0  0  0  0
   34.0020   29.9830   44.6180 C   0  0  0  0  0  0  0  0  0  0  0  0
   32.8580   29.2750   44.8870 C   0  0  0  0  0  0  0  0  0  0  0  0
   32.6950   28.7840   46.1620 C   0  0  0  0  0  0  0  0  0  0  0  0
   31.5520   28.0790   46.4460 C   0  0  0  0  0  0  0  0  0  0  0  0
   31.3200   27.5640   47.7030 C   0  0  0  0  0  0  0  0  0  0  0  0
   32.3010   27.7950   48.6640 C   0  0  0  0  0  0  0  0  0  0  0  0
   33.4280   28.5050   48.3310 C   0  0  0  0  0  0  0  0  0  0  0  0
   33.6800   29.0240   47.0920 C   0  0  0  0  0  0  0  0  0  0  0  0
   36.9540   29.4440   51.3550 C   0  0  0  0  0  0  0  0  0  0  0  0
   35.6730   29.1620   51.7750 F   0  0  0  0  0  0  0  0  0  0  0  0
   37.8360   28.4090   51.4770 F   0  0  0  0  0  0  0  0  0  0  0  0
   37.4250   30.5270   52.1210 F   0  0  0  0  0  0  0  0  0  0  0  0
   38.8861   30.8658   50.0872 H   0  0  0  0  0  0  0  0  0  0  0  0
   39.9899   31.7608   48.0012 H   0  0  0  0  0  0  0  0  0  0  0  0
   39.7431   34.0062   45.0850 H   0  0  0  0  0  0  0  0  0  0  0  0
   40.7312   33.5807   46.5081 H   0  0  0  0  0  0  0  0  0  0  0  0
   35.8438   30.7595   45.3259 H   0  0  0  0  0  0  0  0  0  0  0  0
   34.1649   30.3918   43.6099 H   0  0  0  0  0  0  0  0  0  0  0  0
   32.0976   29.1058   44.1104 H   0  0  0  0  0  0  0  0  0  0  0  0
   30.8055   27.9218   45.6535 H   0  0  0  0  0  0  0  0  0  0  0  0
   30.4055   26.9987   47.9356 H   0  0  0  0  0  0  0  0  0  0  0  0
   32.1734   27.4099   49.6865 H   0  0  0  0  0  0  0  0  0  0  0  0
   34.1808   28.6675   49.1164 H   0  0  0  0  0  0  0  0  0  0  0  0
  1 22  1  0
  2  1  2  0
  3  2  1  0
  4  5  1  0
  4  3  2  0
  5  6  2  0
  6  1  1  0
  7  3  1  0
  8  7  1  0
  9  8  2  0
 10  8  1  0
 11  9  1  0
 12 21  1  0
 12  5  1  0
 13 12  2  0
 14 15  2  0
 14 13  1  0
 15 16  1  0
 16 17  1  0
 16 21  2  0
 17 18  2  0
 18 19  1  0
 20 19  2  0
 21 20  1  0
 22 24  1  0
 22 23  1  0
 22 25  1  0
  2 26  1  0
  7 27  1  0
 10 28  1  0
 10 29  1  0
 13 30  1  0
 14 31  1  0
 15 32  1  0
 17 33  1  0
 18 34  1  0
 19 35  1  0
 20 36  1  0
M  END
>  <Score>  (1) 
-7.56678

$$$$
