./init_pose/1_0.pdbqt
 OpenBabel03252509433D

  6  6  0  0  0  0  0  0  0  0999 V2000
   37.3160   30.2220   51.3880 C   0  0  0  0  0  0  0  0  0  0  0  0
   38.0880   30.7580   50.3360 C   0  0  0  0  0  0  0  0  0  0  0  0
   37.7310   30.4160   49.0230 C   0  0  0  0  0  0  0  0  0  0  0  0
   36.6630   29.5850   48.8410 N   0  0  0  0  0  0  0  0  0  0  0  0
   35.9450   29.0920   49.8750 C   0  0  0  0  0  0  0  0  0  0  0  0
   36.2710   29.4130   51.1410 N   0  0  0  0  0  0  0  0  0  0  0  0
  2  1  2  0  0  0  0
  3  2  1  0  0  0  0
  4  3  2  0  0  0  0
  4  5  1  0  0  0  0
  5  6  2  0  0  0  0
  6  1  1  0  0  0  0
M  END
>  <MODEL>
1

>  <REMARK>
 minimizedAffinity -2.82644749REMARK  Name = 7
  0 active torsions:
  status: ('A' for Active; 'I' for Inactive)
                            x       y       z     vdW  Elec       q    Type
                         _______ _______ _______ _____ _____    ______ ____

>  <TORSDO>
F 0

$$$$
