MODEL 2
REMARK minimizedAffinity -2.79987931REMARK  Name = 7
REMARK  0 active torsions:
REMARK  status: ('A' for Active; 'I' for Inactive)
REMARK                            x       y       z     vdW  Elec       q    Type
REMARK                         _______ _______ _______ _____ _____    ______ ____
ROOT
ATOM      1  C   UNL     1      37.523  30.263  48.976  0.00  0.00    +0.000 A 
ATOM      2  C   UNL     1      38.026  30.652  50.236  0.00  0.00    +0.000 A 
ATOM      3  C   UNL     1      37.338  30.214  51.378  0.00  0.00    +0.000 A 
ATOM      4  N   UNL     1      36.224  29.443  51.204  0.00  0.00    +0.000 NA
ATOM      5  C   UNL     1      35.773  29.090  49.979  0.00  0.00    +0.000 A 
ATOM      6  N   UNL     1      36.424  29.497  48.873  0.00  0.00    +0.000 NA
ENDROOT
TORSDOF 0
ENDMDL
