./init_pose/1_1.pdbqt
     RDKit          3D

 10 10  0  0  0  0  0  0  0  0999 V2000
   37.5230   30.2630   48.9760 C   0  0  0  0  0  0  0  0  0  0  0  0
   38.0260   30.6520   50.2360 C   0  0  0  0  0  0  0  0  0  0  0  0
   37.3380   30.2140   51.3780 C   0  0  0  0  0  0  0  0  0  0  0  0
   36.2240   29.4430   51.2040 N   0  0  0  0  0  0  0  0  0  0  0  0
   35.7730   29.0900   49.9790 C   0  0  0  0  0  0  0  0  0  0  0  0
   36.4240   29.4970   48.8730 N   0  0  0  0  0  0  0  0  0  0  0  0
   38.0396   30.5926   48.0625 H   0  0  0  0  0  0  0  0  0  0  0  0
   38.9270   31.2774   50.3200 H   0  0  0  0  0  0  0  0  0  0  0  0
   37.6863   30.4842   52.3858 H   0  0  0  0  0  0  0  0  0  0  0  0
   34.8707   28.4678   49.8858 H   0  0  0  0  0  0  0  0  0  0  0  0
  1  2  2  0
  2  3  1  0
  4  3  2  0
  5  4  1  0
  6  1  1  0
  6  5  2  0
  1  7  1  0
  2  8  1  0
  3  9  1  0
  5 10  1  0
M  END
>  <MODEL>  (1) 
2

>  <REMARK>  (1) 
 minimizedAffinity -2.79987931REMARK  Name = 7
  0 active torsions:
  status: ('A' for Active; 'I' for Inactive)
                            x       y       z     vdW  Elec       q    Type
                         _______ _______ _______ _____ _____    ______ ____

>  <TORSDO>  (1) 
F 0

$$$$
