./init_pose/1_2.pdbqt
 OpenBabel03252509433D

  6  6  0  0  0  0  0  0  0  0999 V2000
   37.3600   30.2650   51.3540 C   0  0  0  0  0  0  0  0  0  0  0  0
   36.3090   29.3920   51.0010 C   0  0  0  0  0  0  0  0  0  0  0  0
   36.0850   29.1560   49.6360 C   0  0  0  0  0  0  0  0  0  0  0  0
   36.8930   29.7850   48.7320 N   0  0  0  0  0  0  0  0  0  0  0  0
   37.8920   30.6150   49.1090 C   0  0  0  0  0  0  0  0  0  0  0  0
   38.1230   30.8490   50.4140 N   0  0  0  0  0  0  0  0  0  0  0  0
  2  1  1  0  0  0  0
  3  2  2  0  0  0  0
  4  5  2  0  0  0  0
  4  3  1  0  0  0  0
  5  6  1  0  0  0  0
  6  1  2  0  0  0  0
M  END
>  <MODEL>
3

>  <REMARK>
 minimizedAffinity -2.76077771REMARK  Name = 7
  0 active torsions:
  status: ('A' for Active; 'I' for Inactive)
                            x       y       z     vdW  Elec       q    Type
                         _______ _______ _______ _____ _____    ______ ____

>  <TORSDO>
F 0

$$$$
