./init_pose/1_3.pdbqt
     RDKit          3D

 10 10  0  0  0  0  0  0  0  0999 V2000
   36.7080   29.7360   48.8130 C   0  0  0  0  0  0  0  0  0  0  0  0
   36.0110   29.1690   49.9010 C   0  0  0  0  0  0  0  0  0  0  0  0
   36.4340   29.5060   51.1950 C   0  0  0  0  0  0  0  0  0  0  0  0
   37.4940   30.3570   51.3260 N   0  0  0  0  0  0  0  0  0  0  0  0
   38.1370   30.8820   50.2590 C   0  0  0  0  0  0  0  0  0  0  0  0
   37.7410   30.5730   49.0100 N   0  0  0  0  0  0  0  0  0  0  0  0
   36.4007   29.4888   47.7861 H   0  0  0  0  0  0  0  0  0  0  0  0
   35.1643   28.4856   49.7397 H   0  0  0  0  0  0  0  0  0  0  0  0
   35.9258   29.0960   52.0803 H   0  0  0  0  0  0  0  0  0  0  0  0
   38.9865   31.5639   50.4119 H   0  0  0  0  0  0  0  0  0  0  0  0
  1  6  2  0
  1  2  1  0
  2  3  2  0
  3  4  1  0
  5  4  2  0
  6  5  1  0
  1  7  1  0
  2  8  1  0
  3  9  1  0
  5 10  1  0
M  END
>  <MODEL>  (1) 
4

>  <REMARK>  (1) 
 minimizedAffinity -2.74657178REMARK  Name = 7
  0 active torsions:
  status: ('A' for Active; 'I' for Inactive)
                            x       y       z     vdW  Elec       q    Type
                         _______ _______ _______ _____ _____    ______ ____

>  <TORSDO>  (1) 
F 0

$$$$
