./init_pose/1_3.pdbqt
 OpenBabel03252509433D

  6  6  0  0  0  0  0  0  0  0999 V2000
   36.7080   29.7360   48.8130 C   0  0  0  0  0  0  0  0  0  0  0  0
   36.0110   29.1690   49.9010 C   0  0  0  0  0  0  0  0  0  0  0  0
   36.4340   29.5060   51.1950 C   0  0  0  0  0  0  0  0  0  0  0  0
   37.4940   30.3570   51.3260 N   0  0  0  0  0  0  0  0  0  0  0  0
   38.1370   30.8820   50.2590 C   0  0  0  0  0  0  0  0  0  0  0  0
   37.7410   30.5730   49.0100 N   0  0  0  0  0  0  0  0  0  0  0  0
  1  6  2  0  0  0  0
  1  2  1  0  0  0  0
  2  3  2  0  0  0  0
  3  4  1  0  0  0  0
  5  4  2  0  0  0  0
  6  5  1  0  0  0  0
M  END
>  <MODEL>
4

>  <REMARK>
 minimizedAffinity -2.74657178REMARK  Name = 7
  0 active torsions:
  status: ('A' for Active; 'I' for Inactive)
                            x       y       z     vdW  Elec       q    Type
                         _______ _______ _______ _____ _____    ______ ____

>  <TORSDO>
F 0

$$$$
