MODEL 5
REMARK minimizedAffinity -2.73233724REMARK  Name = 7
REMARK  0 active torsions:
REMARK  status: ('A' for Active; 'I' for Inactive)
REMARK                            x       y       z     vdW  Elec       q    Type
REMARK                         _______ _______ _______ _____ _____    ______ ____
ROOT
ATOM      1  C   UNL     1      35.773  29.156  50.009  0.00  0.00    +0.000 A 
ATOM      2  C   UNL     1      36.497  29.613  48.887  0.00  0.00    +0.000 A 
ATOM      3  C   UNL     1      37.664  30.356  49.120  0.00  0.00    +0.000 A 
ATOM      4  N   UNL     1      38.028  30.596  50.414  0.00  0.00    +0.000 NA
ATOM      5  C   UNL     1      37.309  30.141  51.465  0.00  0.00    +0.000 A 
ATOM      6  N   UNL     1      36.189  29.422  51.259  0.00  0.00    +0.000 NA
ENDROOT
TORSDOF 0
ENDMDL
