./init_pose/1_5.pdbqt
 OpenBabel03252509433D

  6  6  0  0  0  0  0  0  0  0999 V2000
   27.7610   27.0220   51.3630 C   0  0  0  0  0  0  0  0  0  0  0  0
   26.8780   28.0390   50.9380 C   0  0  0  0  0  0  0  0  0  0  0  0
   27.3610   28.9810   50.0180 C   0  0  0  0  0  0  0  0  0  0  0  0
   28.6520   28.8630   49.5910 N   0  0  0  0  0  0  0  0  0  0  0  0
   29.4680   27.8730   50.0190 C   0  0  0  0  0  0  0  0  0  0  0  0
   29.0200   26.9580   50.8980 N   0  0  0  0  0  0  0  0  0  0  0  0
  2  1  1  0  0  0  0
  3  2  2  0  0  0  0
  4  3  1  0  0  0  0
  4  5  2  0  0  0  0
  5  6  1  0  0  0  0
  6  1  2  0  0  0  0
M  END
>  <MODEL>
6

>  <REMARK>
 minimizedAffinity -2.6972971REMARK  Name = 7
  0 active torsions:
  status: ('A' for Active; 'I' for Inactive)
                            x       y       z     vdW  Elec       q    Type
                         _______ _______ _______ _____ _____    ______ ____

>  <TORSDO>
F 0

$$$$
