./init_pose/1_7.pdbqt
     RDKit          3D

 10 10  0  0  0  0  0  0  0  0999 V2000
   27.6190   27.0820   51.2400 C   0  0  0  0  0  0  0  0  0  0  0  0
   28.9690   26.9990   50.8380 C   0  0  0  0  0  0  0  0  0  0  0  0
   29.4450   27.9690   49.9440 C   0  0  0  0  0  0  0  0  0  0  0  0
   28.5780   28.9320   49.5140 N   0  0  0  0  0  0  0  0  0  0  0  0
   27.2900   28.9800   49.9240 C   0  0  0  0  0  0  0  0  0  0  0  0
   26.8170   28.0600   50.7850 N   0  0  0  0  0  0  0  0  0  0  0  0
   27.2159   26.3333   51.9379 H   0  0  0  0  0  0  0  0  0  0  0  0
   29.6259   26.2004   51.2132 H   0  0  0  0  0  0  0  0  0  0  0  0
   30.4892   27.9543   49.5984 H   0  0  0  0  0  0  0  0  0  0  0  0
   26.6262   29.7744   49.5521 H   0  0  0  0  0  0  0  0  0  0  0  0
  2  1  2  0
  3  2  1  0
  4  5  1  0
  4  3  2  0
  5  6  2  0
  6  1  1  0
  1  7  1  0
  2  8  1  0
  3  9  1  0
  5 10  1  0
M  END
>  <MODEL>  (1) 
8

>  <REMARK>  (1) 
 minimizedAffinity -2.6448431REMARK  Name = 7
  0 active torsions:
  status: ('A' for Active; 'I' for Inactive)
                            x       y       z     vdW  Elec       q    Type
                         _______ _______ _______ _____ _____    ______ ____

>  <TORSDO>  (1) 
F 0

$$$$
