./init_pose/1_8.pdbqt
 OpenBabel03252509433D

  6  6  0  0  0  0  0  0  0  0999 V2000
   29.0540   27.1390   50.6120 C   0  0  0  0  0  0  0  0  0  0  0  0
   27.7990   27.0150   51.2460 C   0  0  0  0  0  0  0  0  0  0  0  0
   26.8120   27.9620   50.9320 C   0  0  0  0  0  0  0  0  0  0  0  0
   27.1240   28.9460   50.0380 N   0  0  0  0  0  0  0  0  0  0  0  0
   28.3380   29.0320   49.4500 C   0  0  0  0  0  0  0  0  0  0  0  0
   29.2960   28.1290   49.7360 N   0  0  0  0  0  0  0  0  0  0  0  0
  1  2  1  0  0  0  0
  3  2  2  0  0  0  0
  4  3  1  0  0  0  0
  5  6  1  0  0  0  0
  5  4  2  0  0  0  0
  6  1  2  0  0  0  0
M  END
>  <MODEL>
9

>  <REMARK>
 minimizedAffinity -2.62384057REMARK  Name = 7
  0 active torsions:
  status: ('A' for Active; 'I' for Inactive)
                            x       y       z     vdW  Elec       q    Type
                         _______ _______ _______ _____ _____    ______ ____

>  <TORSDO>
F 0

$$$$
