./init_pose/1_8.pdbqt
     RDKit          3D

 10 10  0  0  0  0  0  0  0  0999 V2000
   29.0540   27.1390   50.6120 C   0  0  0  0  0  0  0  0  0  0  0  0
   27.7990   27.0150   51.2460 C   0  0  0  0  0  0  0  0  0  0  0  0
   26.8120   27.9620   50.9320 C   0  0  0  0  0  0  0  0  0  0  0  0
   27.1240   28.9460   50.0380 N   0  0  0  0  0  0  0  0  0  0  0  0
   28.3380   29.0320   49.4500 C   0  0  0  0  0  0  0  0  0  0  0  0
   29.2960   28.1290   49.7360 N   0  0  0  0  0  0  0  0  0  0  0  0
   29.8481   26.4124   50.8390 H   0  0  0  0  0  0  0  0  0  0  0  0
   27.6013   26.2036   51.9619 H   0  0  0  0  0  0  0  0  0  0  0  0
   25.8146   27.9130   51.3933 H   0  0  0  0  0  0  0  0  0  0  0  0
   28.5445   29.8423   48.7353 H   0  0  0  0  0  0  0  0  0  0  0  0
  1  2  2  0
  3  2  1  0
  4  3  2  0
  5  6  2  0
  5  4  1  0
  6  1  1  0
  1  7  1  0
  2  8  1  0
  3  9  1  0
  5 10  1  0
M  END
>  <MODEL>  (1) 
9

>  <REMARK>  (1) 
 minimizedAffinity -2.62384057REMARK  Name = 7
  0 active torsions:
  status: ('A' for Active; 'I' for Inactive)
                            x       y       z     vdW  Elec       q    Type
                         _______ _______ _______ _____ _____    ______ ____

>  <TORSDO>  (1) 
F 0

$$$$
