REMARK  Name = 
REMARK  7 active torsions:
REMARK  status: ('A' for Active; 'I' for Inactive)
REMARK    1  A    between atoms: C_1  and  O_7
REMARK    2  A    between atoms: C_2  and  O_9
REMARK    3  A    between atoms: C_5  and  O_8
REMARK    4  A    between atoms: C_6  and  O_19
REMARK    5  A    between atoms: O_9  and  C_10
REMARK    6  A    between atoms: C_12  and  C_16
REMARK    7  A    between atoms: O_19  and  C_20
REMARK                            x       y       z     vdW  Elec       q    Type
REMARK                         _______ _______ _______ _____ _____    ______ ____
ROOT
ATOM      1  C   UNL     1      42.828  34.486  38.778  0.00  0.00    +0.000 C 
ATOM      2  C   UNL     1      42.950  35.168  40.133  0.00  0.00    +0.000 C 
ATOM      3  O   UNL     1      41.657  35.382  40.641  0.00  0.00    +0.000 OA
ATOM      4  C   UNL     1      40.733  35.702  39.643  0.00  0.00    +0.000 C 
ATOM      5  C   UNL     1      40.447  34.522  38.737  0.00  0.00    +0.000 C 
ATOM      6  C   UNL     1      41.672  33.545  38.882  0.00  0.00    +0.000 C 
ATOM      7  H   UNL     1      43.791  33.977  38.565  0.00  0.00    +0.000 HD
ATOM      8  H   UNL     1      43.523  36.103  40.099  0.00  0.00    +0.000 HD
ATOM      9  H   UNL     1      41.013  36.608  39.073  0.00  0.00    +0.000 HD
ATOM     10  H   UNL     1      39.799  35.935  40.190  0.00  0.00    +0.000 HD
ATOM     11  H   UNL     1      39.526  33.986  39.019  0.00  0.00    +0.000 HD
ATOM     12  H   UNL     1      41.451  33.269  39.963  0.00  0.00    +0.000 HD
ENDROOT
BRANCH   1  13
ATOM     13  O   UNL     1      42.608  35.433  37.767  0.00  0.00    +0.000 OA
ATOM     14  H   UNL     1      43.389  35.519  37.196  0.00  0.00    +0.000 HD
ENDBRANCH   1  13
BRANCH   5  15
ATOM     15  O   UNL     1      40.463  34.934  37.414  0.00  0.00    +0.000 OA
ATOM     16  H   UNL     1      39.989  34.300  36.811  0.00  0.00    +0.000 HD
ENDBRANCH   5  15
BRANCH   2  17
ATOM     17  O   UNL     1      43.490  34.190  40.987  0.00  0.00    +0.000 OA
BRANCH  17  18
ATOM     18  C   UNL     1      44.602  34.337  41.717  0.00  0.00    +0.000 A 
ATOM     19  C   UNL     1      45.858  34.450  41.105  0.00  0.00    +0.000 A 
ATOM     20  C   UNL     1      46.975  34.602  41.909  0.00  0.00    +0.000 A 
ATOM     21  N   UNL     1      46.822  34.639  43.282  0.00  0.00    +0.000 NA
ATOM     22  C   UNL     1      45.592  34.526  43.839  0.00  0.00    +0.000 A 
ATOM     23  N   UNL     1      44.488  34.377  43.061  0.00  0.00    +0.000 NA
ATOM     24  H   UNL     1      45.956  34.419  40.024  0.00  0.00    +0.000 HD
ATOM     25  H   UNL     1      45.483  34.556  44.915  0.00  0.00    +0.000 HD
BRANCH  20  26
ATOM     26  C   UNL     1      48.349  34.710  41.329  0.00  0.00    +0.000 C 
ATOM     27  C   UNL     1      49.072  36.042  41.514  0.00  0.00    +0.000 C 
ATOM     28  C   UNL     1      49.504  34.714  42.169  0.00  0.00    +0.000 C 
ATOM     29  H   UNL     1      48.369  34.365  40.270  0.00  0.00    +0.000 HD
ATOM     30  H   UNL     1      48.669  36.777  42.235  0.00  0.00    +0.000 HD
ATOM     31  H   UNL     1      49.739  36.397  40.699  0.00  0.00    +0.000 HD
ATOM     32  H   UNL     1      50.452  34.268  41.769  0.00  0.00    +0.000 HD
ATOM     33  H   UNL     1      49.383  34.625  43.265  0.00  0.00    +0.000 HD
ENDBRANCH  20  26
ENDBRANCH  17  18
ENDBRANCH   2  17
BRANCH   6  34
ATOM     34  O   UNL     1      41.556  32.611  37.922  0.00  0.00    +0.000 OA
BRANCH  34  35
ATOM     35  C   UNL     1      40.918  31.419  37.979  0.00  0.00    +0.000 C 
ATOM     36  O   UNL     1      39.682  31.267  37.581  0.00  0.00    +0.000 OA
ATOM     37  N   UNL     1      41.011  30.029  38.335  0.00  0.00    +0.000 N 
ATOM     38  H   UNL     1      40.303  29.647  39.000  0.00  0.00    +0.000 HD
ATOM     39  H   UNL     1      41.752  29.361  37.967  0.00  0.00    +0.000 HD
ENDBRANCH  34  35
ENDBRANCH   6  34
TORSDOF 7
