
     RDKit          3D

 39 41  0  0  0  0  0  0  0  0999 V2000
   42.8278   34.4858   38.7779 C   0  0  1  0  0  0  0  0  0  0  0  0
   42.9503   35.1677   40.1333 C   0  0  1  0  0  0  0  0  0  0  0  0
   41.6565   35.3816   40.6413 O   0  0  0  0  0  0  0  0  0  0  0  0
   40.7331   35.7016   39.6432 C   0  0  0  0  0  0  0  0  0  0  0  0
   40.4475   34.5223   38.7366 C   0  0  2  0  0  0  0  0  0  0  0  0
   41.6720   33.5447   38.8821 C   0  0  1  0  0  0  0  0  0  0  0  0
   42.6078   35.4329   37.7667 O   0  0  0  0  0  0  0  0  0  0  0  0
   40.4633   34.9341   37.4144 O   0  0  0  0  0  0  0  0  0  0  0  0
   43.4897   34.1900   40.9873 O   0  0  0  0  0  0  0  0  0  0  0  0
   44.6017   34.3375   41.7168 C   0  0  0  0  0  0  0  0  0  0  0  0
   45.8582   34.4498   41.1046 C   0  0  0  0  0  0  0  0  0  0  0  0
   46.9754   34.6019   41.9094 C   0  0  0  0  0  0  0  0  0  0  0  0
   46.8220   34.6387   43.2825 N   0  0  0  0  0  0  0  0  0  0  0  0
   45.5916   34.5265   43.8391 C   0  0  0  0  0  0  0  0  0  0  0  0
   44.4883   34.3767   43.0606 N   0  0  0  0  0  0  0  0  0  0  0  0
   48.3490   34.7101   41.3288 C   0  0  0  0  0  0  0  0  0  0  0  0
   49.0715   36.0423   41.5139 C   0  0  0  0  0  0  0  0  0  0  0  0
   49.5040   34.7141   42.1694 C   0  0  0  0  0  0  0  0  0  0  0  0
   41.5564   32.6109   37.9225 O   0  0  0  0  0  0  0  0  0  0  0  0
   40.9176   31.4195   37.9788 C   0  0  0  0  0  0  0  0  0  0  0  0
   39.6825   31.2673   37.5808 O   0  0  0  0  0  0  0  0  0  0  0  0
   43.7912   33.9769   38.5653 H   0  0  0  0  0  0  0  0  0  0  0  0
   43.5226   36.1029   40.0991 H   0  0  0  0  0  0  0  0  0  0  0  0
   41.0134   36.6082   39.0732 H   0  0  0  0  0  0  0  0  0  0  0  0
   39.7987   35.9348   40.1901 H   0  0  0  0  0  0  0  0  0  0  0  0
   39.5263   33.9859   39.0190 H   0  0  0  0  0  0  0  0  0  0  0  0
   41.4513   33.2694   39.9627 H   0  0  0  0  0  0  0  0  0  0  0  0
   43.3894   35.5192   37.1958 H   0  0  0  0  0  0  0  0  0  0  0  0
   39.9891   34.2998   36.8111 H   0  0  0  0  0  0  0  0  0  0  0  0
   45.9564   34.4185   40.0236 H   0  0  0  0  0  0  0  0  0  0  0  0
   45.4834   34.5562   44.9153 H   0  0  0  0  0  0  0  0  0  0  0  0
   48.3690   34.3649   40.2703 H   0  0  0  0  0  0  0  0  0  0  0  0
   48.6686   36.7773   42.2347 H   0  0  0  0  0  0  0  0  0  0  0  0
   49.7386   36.3972   40.6989 H   0  0  0  0  0  0  0  0  0  0  0  0
   50.4519   34.2683   41.7692 H   0  0  0  0  0  0  0  0  0  0  0  0
   49.3827   34.6249   43.2651 H   0  0  0  0  0  0  0  0  0  0  0  0
   41.0108   30.0294   38.3354 N   0  0  0  0  0  0  0  0  0  0  0  0
   41.8982   29.5270   38.1147 H   0  0  0  0  0  0  0  0  0  0  0  0
   40.2370   29.4761   38.8110 H   0  0  0  0  0  0  0  0  0  0  0  0
  1  6  1  0
  1  2  1  0
  2  3  1  0
  2  9  1  0
  4  3  1  0
  5  6  1  0
  5  4  1  0
  7  1  1  0
  8  5  1  0
  9 10  1  0
 10 15  1  0
 11 10  2  0
 11 12  1  0
 12 13  2  0
 13 14  1  0
 15 14  2  0
 16 17  1  0
 16 12  1  0
 16 18  1  0
 17 18  1  0
 19 20  1  0
 19  6  1  0
 21 20  2  0
  1 22  1  6
  2 23  1  6
  4 24  1  0
  4 25  1  0
  5 26  1  1
  6 27  1  1
  7 28  1  0
  8 29  1  0
 11 30  1  0
 14 31  1  0
 16 32  1  0
 17 33  1  0
 17 34  1  0
 18 35  1  0
 18 36  1  0
 37 38  1  0
 37 39  1  0
 20 37  1  0
M  ISO  8  22  13  23  13  24  13  25  13  26  13  27  13  28   3  29   3
M  ISO  8  30  14  31  14  32  13  33  13  34  13  35  13  36  13  38   5
M  ISO  1  39   5
M  END
>  <DihAtoms>  (1) 
18,19,36,37

>  <DihDeg>  (1) 
-85.2544598390836

$$$$
