
     RDKit          3D

 29 30  0  0  0  0  0  0  0  0999 V2000
   45.1293   34.4188   41.1900 C   0  0  0  0  0  0  0  0  0  0  0  0
   45.5431   35.0204   42.3728 C   0  0  0  0  0  0  0  0  0  0  0  0
   46.9188   35.2399   42.5472 C   0  0  0  0  0  0  0  0  0  0  0  0
   47.8038   34.8663   41.5730 C   0  0  0  0  0  0  0  0  0  0  0  0
   47.4044   34.2752   40.4096 C   0  0  0  0  0  0  0  0  0  0  0  0
   46.0369   34.0622   40.2471 C   0  0  0  0  0  0  0  0  0  0  0  0
   41.4350   34.8422   40.5766 C   0  0  0  0  0  0  0  0  0  0  0  0
   42.8052   35.1780   40.6616 C   0  0  0  0  0  0  0  0  0  0  0  0
   43.7011   34.2147   41.0592 C   0  0  0  0  0  0  0  0  0  0  0  0
   43.1955   32.9828   41.3481 N   0  0  0  0  0  0  0  0  0  0  0  0
   41.8888   32.6661   41.2660 C   0  0  0  0  0  0  0  0  0  0  0  0
   40.9909   33.6104   40.8736 N   0  0  0  0  0  0  0  0  0  0  0  0
   40.4545   35.8777   40.1468 C   0  0  0  0  0  0  0  0  0  0  0  0
   39.2244   35.2175   39.9622 F   0  0  0  0  0  0  0  0  0  0  0  0
   40.8464   36.3013   38.8801 F   0  0  0  0  0  0  0  0  0  0  0  0
   40.3139   36.8923   41.0509 F   0  0  0  0  0  0  0  0  0  0  0  0
   45.4400   32.1345   38.5712 C   0  0  0  0  0  0  0  0  0  0  0  0
   45.9419   31.1436   39.0864 O   0  0  0  0  0  0  0  0  0  0  0  0
   45.5031   33.4593   39.0866 N   0  0  0  0  0  0  0  0  0  0  0  0
   44.8454   35.3155   43.1418 H   0  0  0  0  0  0  0  0  0  0  0  0
   47.2222   35.7094   43.4742 H   0  0  0  0  0  0  0  0  0  0  0  0
   48.8670   35.0279   41.6908 H   0  0  0  0  0  0  0  0  0  0  0  0
   48.1040   33.9745   39.6280 H   0  0  0  0  0  0  0  0  0  0  0  0
   43.1711   36.1587   40.4267 H   0  0  0  0  0  0  0  0  0  0  0  0
   41.5783   31.6536   41.5174 H   0  0  0  0  0  0  0  0  0  0  0  0
   45.0688   34.2614   38.5325 H   0  0  0  0  0  0  0  0  0  0  0  0
   44.7274   31.9557   37.3468 N   0  0  0  0  0  0  0  0  0  0  0  0
   44.4635   31.6637   36.3803 H   0  0  0  0  0  0  0  0  0  0  0  0
   43.7651   32.3326   37.0983 H   0  0  0  0  0  0  0  0  0  0  0  0
  1  2  2  0
  2  3  1  0
  4  3  2  0
  5  4  1  0
  6  5  2  0
  6  1  1  0
  7  8  2  0
  7 12  1  0
  8  9  1  0
  9  1  1  0
  9 10  2  0
 11 10  1  0
 12 11  2  0
 13  7  1  0
 13 16  1  0
 14 13  1  0
 15 13  1  0
 17 18  2  0
 17 19  1  0
 19  6  1  0
  2 20  1  0
  3 21  1  0
  4 22  1  0
  5 23  1  0
  8 24  1  0
 11 25  1  0
 19 26  1  0
 27 28  1  0
 27 29  1  0
 17 27  1  0
M  ISO  8  20  14  21  14  22  14  23  14  24  14  25  14  28   5  29   5
M  END
>  <DihAtoms>  (1) 
17,16,26,27

>  <DihDeg>  (1) 
-122.60498104878185

$$$$
