REMARK  Name = 
REMARK  3 active torsions:
REMARK  status: ('A' for Active; 'I' for Inactive)
REMARK    1  A    between atoms: C_1  and  C_7
REMARK    2  A    between atoms: C_6  and  N_19
REMARK    3  A    between atoms: C_11  and  C_13
REMARK                            x       y       z     vdW  Elec       q    Type
REMARK                         _______ _______ _______ _____ _____    ______ ____
ROOT
ATOM      1  C   UNL     1      47.559  31.965  46.412  0.00  0.00    +0.000 C 
ATOM      2  C   UNL     1      47.300  30.497  45.958  0.00  0.00    +0.000 C 
ATOM      3  C   UNL     1      48.118  29.572  46.799  0.00  0.00    +0.000 C 
ATOM      4  C   UNL     1      48.113  29.844  48.264  0.00  0.00    +0.000 C 
ATOM      5  C   UNL     1      48.127  31.247  48.607  0.00  0.00    +0.000 C 
ATOM      6  C   UNL     1      47.128  32.097  47.789  0.00  0.00    +0.000 C 
ATOM      7  H   UNL     1      48.663  32.056  46.255  0.00  0.00    +0.000 HD
ATOM      8  H   UNL     1      46.224  30.271  45.923  0.00  0.00    +0.000 HD
ATOM      9  H   UNL     1      47.657  30.481  44.908  0.00  0.00    +0.000 HD
ATOM     10  H   UNL     1      49.108  29.504  46.309  0.00  0.00    +0.000 HD
ATOM     11  H   UNL     1      47.675  28.546  46.664  0.00  0.00    +0.000 HD
ATOM     12  H   UNL     1      47.743  29.071  48.936  0.00  0.00    +0.000 HD
ATOM     13  H   UNL     1      49.227  29.592  48.496  0.00  0.00    +0.000 HD
ATOM     14  H   UNL     1      47.862  31.356  49.699  0.00  0.00    +0.000 HD
ATOM     15  H   UNL     1      49.075  31.817  48.509  0.00  0.00    +0.000 HD
ATOM     16  H   UNL     1      47.220  33.061  48.294  0.00  0.00    +0.000 HD
ENDROOT
BRANCH   1  17
ATOM     17  C   UNL     1      46.913  32.916  45.528  0.00  0.00    +0.000 A 
ATOM     18  C   UNL     1      45.806  33.593  46.017  0.00  0.00    +0.000 A 
ATOM     19  C   UNL     1      45.126  34.512  45.185  0.00  0.00    +0.000 A 
ATOM     20  N   UNL     1      45.636  34.676  43.898  0.00  0.00    +0.000 NA
ATOM     21  C   UNL     1      46.706  33.995  43.491  0.00  0.00    +0.000 A 
ATOM     22  N   UNL     1      47.337  33.129  44.287  0.00  0.00    +0.000 NA
ATOM     23  H   UNL     1      45.283  33.648  46.946  0.00  0.00    +0.000 HD
ATOM     24  H   UNL     1      44.275  35.109  45.382  0.00  0.00    +0.000 HD
BRANCH  21  25
ATOM     25  C   UNL     1      47.202  34.230  42.130  0.00  0.00    +0.000 A 
ATOM     26  C   UNL     1      48.188  35.157  41.882  0.00  0.00    +0.000 A 
ATOM     27  C   UNL     1      48.715  35.443  40.648  0.00  0.00    +0.000 A 
ATOM     28  C   UNL     1      48.171  34.710  39.617  0.00  0.00    +0.000 A 
ATOM     29  C   UNL     1      47.170  33.763  39.837  0.00  0.00    +0.000 A 
ATOM     30  N   UNL     1      46.696  33.534  41.099  0.00  0.00    +0.000 NA
ATOM     31  H   UNL     1      48.560  35.694  42.768  0.00  0.00    +0.000 HD
ATOM     32  H   UNL     1      49.490  36.181  40.499  0.00  0.00    +0.000 HD
ATOM     33  H   UNL     1      48.508  34.850  38.601  0.00  0.00    +0.000 HD
ATOM     34  N   UNL     1      46.586  32.988  38.796  0.00  0.00    +0.000 N 
ATOM     35  H   UNL     1      45.581  33.277  38.965  0.00  0.00    +0.000 HD
ATOM     36  H   UNL     1      46.958  32.343  38.083  0.00  0.00    +0.000 HD
ENDBRANCH  21  25
ENDBRANCH   1  17
BRANCH   6  37
ATOM     37  N   UNL     1      45.788  31.530  47.951  0.00  0.00    +0.000 N 
ATOM     38  C   UNL     1      45.188  30.848  49.023  0.00  0.00    +0.000 C 
ATOM     39  O   UNL     1      44.754  31.442  50.075  0.00  0.00    +0.000 OA
ATOM     40  N   UNL     1      45.088  29.435  48.852  0.00  0.00    +0.000 N 
ATOM     41  H   UNL     1      45.066  31.528  47.136  0.00  0.00    +0.000 HD
ATOM     42  H   UNL     1      44.602  28.950  48.061  0.00  0.00    +0.000 HD
ATOM     43  H   UNL     1      45.434  28.598  49.408  0.00  0.00    +0.000 HD
ENDBRANCH   6  37
TORSDOF 3
