
 OpenBabel03252507313D

 43 45  0  0  1  0  0  0  0  0999 V2000
   47.6250   31.7670   46.3640 C   0  0  2  0  0  0  0  0  0  0  0  0
   47.3970   30.3230   45.8260 C   0  0  0  0  0  0  0  0  0  0  0  0
   48.2200   29.3660   46.6250 C   0  0  0  0  0  0  0  0  0  0  0  0
   48.1920   29.5560   48.1030 C   0  0  0  0  0  0  0  0  0  0  0  0
   48.1780   30.9370   48.5230 C   0  0  0  0  0  0  0  0  0  0  0  0
   47.1740   31.8150   47.7410 C   0  0  2  0  0  0  0  0  0  0  0  0
   48.7290   31.8850   46.2270 H   0  0  0  0  0  0  0  0  0  0  0  0
   46.3260   30.0810   45.7640 H   0  0  0  0  0  0  0  0  0  0  0  0
   47.7670   30.3710   44.7820 H   0  0  0  0  0  0  0  0  0  0  0  0
   49.2180   29.3420   46.1450 H   0  0  0  0  0  0  0  0  0  0  0  0
   47.7970   28.3420   46.4270 H   0  0  0  0  0  0  0  0  0  0  0  0
   47.8270   28.7400   48.7260 H   0  0  0  0  0  0  0  0  0  0  0  0
   49.3080   29.3100   48.3350 H   0  0  0  0  0  0  0  0  0  0  0  0
   47.8970   30.9810   49.6160 H   0  0  0  0  0  0  0  0  0  0  0  0
   49.1170   31.5280   48.4700 H   0  0  0  0  0  0  0  0  0  0  0  0
   47.2430   32.7510   48.3000 H   0  0  0  0  0  0  0  0  0  0  0  0
   46.9740   32.7550   45.5260 C   0  0  0  0  0  0  0  0  0  0  0  0
   45.8830   33.4260   46.0580 C   0  0  0  0  0  0  0  0  0  0  0  0
   45.1980   34.3800   45.2710 C   0  0  0  0  0  0  0  0  0  0  0  0
   45.6870   34.5840   43.9820 N   0  0  0  0  0  0  0  0  0  0  0  0
   46.7430   33.9080   43.5320 C   0  0  0  0  0  0  0  0  0  0  0  0
   47.3780   33.0080   44.2860 N   0  0  0  0  0  0  0  0  0  0  0  0
   45.3770   33.4530   46.9980 H   0  0  0  0  0  0  0  0  0  0  0  0
   44.3570   34.9780   45.5040 H   0  0  0  0  0  0  0  0  0  0  0  0
   47.2170   34.1860   42.1720 C   0  0  0  0  0  0  0  0  0  0  0  0
   48.2070   35.1120   41.9390 C   0  0  0  0  0  0  0  0  0  0  0  0
   48.7150   35.4370   40.7060 C   0  0  0  0  0  0  0  0  0  0  0  0
   48.1470   34.7450   39.6600 C   0  0  0  0  0  0  0  0  0  0  0  0
   47.1410   33.7990   39.8650 C   0  0  0  0  0  0  0  0  0  0  0  0
   46.6870   33.5300   41.1260 N   0  0  0  0  0  0  0  0  0  0  0  0
   48.5990   35.6150   42.8360 H   0  0  0  0  0  0  0  0  0  0  0  0
   49.4940   36.1730   40.5690 H   0  0  0  0  0  0  0  0  0  0  0  0
   48.4680   34.9170   38.6440 H   0  0  0  0  0  0  0  0  0  0  0  0
   46.5330   33.0650   38.8080 N   0  0  0  0  0  0  0  0  0  0  0  0
   46.1220   32.2920   39.4050 H   0  0  0  0  0  0  0  0  0  0  0  0
   46.4740   33.1890   37.7860 H   0  0  0  0  0  0  0  0  0  0  0  0
   45.8430   31.2180   47.8530 N   0  0  0  0  0  0  0  0  0  0  0  0
   45.1550   30.6730   48.9500 C   0  0  0  0  0  0  0  0  0  0  0  0
   44.5960   31.3940   49.8530 O   0  0  0  0  0  0  0  0  0  0  0  0
   45.1160   29.2470   48.9840 N   0  0  0  0  0  0  0  0  0  0  0  0
   45.2100   31.0640   46.9800 H   0  0  0  0  0  0  0  0  0  0  0  0
   44.7300   28.6300   48.2310 H   0  0  0  0  0  0  0  0  0  0  0  0
   45.4270   28.5170   49.6910 H   0  0  0  0  0  0  0  0  0  0  0  0
  1  7  1  6  0  0  0
  1  6  1  0  0  0  0
  2  1  1  0  0  0  0
  2  3  1  0  0  0  0
  3  4  1  0  0  0  0
  4 13  1  0  0  0  0
  4  5  1  0  0  0  0
  4 12  1  0  0  0  0
  5 14  1  0  0  0  0
  6 37  1  0  0  0  0
  6 16  1  1  0  0  0
  6  5  1  0  0  0  0
  8  2  1  0  0  0  0
  9  2  1  0  0  0  0
 10  3  1  0  0  0  0
 11  3  1  0  0  0  0
 15  5  1  0  0  0  0
 17 18  1  0  0  0  0
 17  1  1  0  0  0  0
 18 23  1  0  0  0  0
 19 24  1  0  0  0  0
 19 18  2  0  0  0  0
 20 19  1  0  0  0  0
 21 20  2  0  0  0  0
 21 22  1  0  0  0  0
 22 17  2  0  0  0  0
 25 21  1  0  0  0  0
 26 25  1  0  0  0  0
 26 31  1  0  0  0  0
 27 26  2  0  0  0  0
 28 29  2  0  0  0  0
 28 27  1  0  0  0  0
 29 30  1  0  0  0  0
 30 25  2  0  0  0  0
 32 27  1  0  0  0  0
 33 28  1  0  0  0  0
 34 35  1  0  0  0  0
 34 29  1  0  0  0  0
 36 34  1  0  0  0  0
 37 38  1  0  0  0  0
 38 40  1  0  0  0  0
 38 39  2  0  0  0  0
 40 43  1  0  0  0  0
 41 37  1  0  0  0  0
 42 40  1  0  0  0  0
M  END
>  <minimizedAffinity>
-5.9693346

>  <minimizedRMSD>
0.201886937

$$$$
