
 OpenBabel03252508013D

 23 24  0  0  1  0  0  0  0  0999 V2000
   36.8060   30.7840   40.3730 C   0  0  0  0  0  0  0  0  0  0  0  0
   35.7370   29.9910   39.9120 C   0  0  0  0  0  0  0  0  0  0  0  0
   35.4650   28.8140   40.6230 C   0  0  0  0  0  0  0  0  0  0  0  0
   36.2370   28.5200   41.6930 N   0  0  0  0  0  0  0  0  0  0  0  0
   37.2680   29.3460   42.0850 C   0  0  0  0  0  0  0  0  0  0  0  0
   37.5620   30.4630   41.4460 N   0  0  0  0  0  0  0  0  0  0  0  0
   35.1520   30.2760   39.0490 H   0  0  0  0  0  0  0  0  0  0  0  0
   34.6590   28.1630   40.3230 H   0  0  0  0  0  0  0  0  0  0  0  0
   38.0620   28.9630   43.2950 C   0  0  1  0  0  0  0  0  0  0  0  0
   38.2680   27.4960   43.5970 C   0  0  0  0  0  0  0  0  0  0  0  0
   39.3640   28.3300   42.9950 C   0  0  1  0  0  0  0  0  0  0  0  0
   37.9600   29.5880   44.1830 H   0  0  0  0  0  0  0  0  0  0  0  0
   37.6910   26.7850   42.9970 H   0  0  0  0  0  0  0  0  0  0  0  0
   38.4320   27.1880   44.6280 H   0  0  0  0  0  0  0  0  0  0  0  0
   40.2570   28.5410   43.6010 H   0  0  0  0  0  0  0  0  0  0  0  0
   39.6550   27.8990   41.6250 N   0  0  0  0  0  0  0  0  0  0  0  0
   40.0760   26.9610   41.5800 H   0  0  0  0  0  0  0  0  0  0  0  0
   40.2610   28.5800   41.1340 H   0  0  0  0  0  0  0  0  0  0  0  0
   37.0300   31.9930   39.6080 C   0  0  0  0  0  0  0  0  0  0  0  0
   37.2070   32.0020   38.3380 O   0  0  0  0  0  0  0  0  0  0  0  0
   37.0810   33.3130   40.1840 N   0  0  0  0  0  0  0  0  0  0  0  0
   38.1190   33.2790   40.4070 H   0  0  0  0  0  0  0  0  0  0  0  0
   36.6180   34.2140   40.4650 H   0  0  0  0  0  0  0  0  0  0  0  0
  1  6  1  0  0  0  0
  2  1  2  0  0  0  0
  2  3  1  0  0  0  0
  3  4  2  0  0  0  0
  4  5  1  0  0  0  0
  5  9  1  0  0  0  0
  6  5  2  0  0  0  0
  7  2  1  0  0  0  0
  8  3  1  0  0  0  0
  9 10  1  0  0  0  0
  9 12  1  1  0  0  0
 10 14  1  0  0  0  0
 11  9  1  0  0  0  0
 11 10  1  0  0  0  0
 11 15  1  1  0  0  0
 13 10  1  0  0  0  0
 16 11  1  0  0  0  0
 17 16  1  0  0  0  0
 18 16  1  0  0  0  0
 19 21  1  0  0  0  0
 19  1  1  0  0  0  0
 20 19  2  0  0  0  0
 21 22  1  0  0  0  0
 21 23  1  0  0  0  0
M  END
>  <minimizedAffinity>
-4.48871279

$$$$

 OpenBabel03252508013D

 23 24  0  0  1  0  0  0  0  0999 V2000
   36.8480   28.7130   41.6350 C   0  0  0  0  0  0  0  0  0  0  0  0
   37.8810   29.2300   42.4420 C   0  0  0  0  0  0  0  0  0  0  0  0
   38.5900   28.3140   43.2320 C   0  0  0  0  0  0  0  0  0  0  0  0
   38.2420   27.0100   43.1680 N   0  0  0  0  0  0  0  0  0  0  0  0
   37.2180   26.5780   42.3540 C   0  0  0  0  0  0  0  0  0  0  0  0
   36.5210   27.4030   41.5940 N   0  0  0  0  0  0  0  0  0  0  0  0
   38.1170   30.2850   42.4520 H   0  0  0  0  0  0  0  0  0  0  0  0
   39.3940   28.6450   43.8710 H   0  0  0  0  0  0  0  0  0  0  0  0
   36.9070   25.1130   42.3210 C   0  0  1  0  0  0  0  0  0  0  0  0
   36.9450   24.3900   40.9940 C   0  0  0  0  0  0  0  0  0  0  0  0
   38.0620   24.2520   41.9910 C   0  0  1  0  0  0  0  0  0  0  0  0
   36.1400   24.7460   43.0040 H   0  0  0  0  0  0  0  0  0  0  0  0
   37.0480   25.0110   40.0990 H   0  0  0  0  0  0  0  0  0  0  0  0
   36.3310   23.5020   40.8600 H   0  0  0  0  0  0  0  0  0  0  0  0
   38.2100   23.2790   42.4820 H   0  0  0  0  0  0  0  0  0  0  0  0
   39.2940   24.8630   41.4840 N   0  0  0  0  0  0  0  0  0  0  0  0
   39.6880   24.3620   40.6770 H   0  0  0  0  0  0  0  0  0  0  0  0
   40.0080   24.9500   42.2270 H   0  0  0  0  0  0  0  0  0  0  0  0
   36.1610   29.7030   40.8320 C   0  0  0  0  0  0  0  0  0  0  0  0
   35.8970   29.5420   39.5880 O   0  0  0  0  0  0  0  0  0  0  0  0
   35.6990   30.9700   41.3370 N   0  0  0  0  0  0  0  0  0  0  0  0
   36.6120   31.4820   41.1570 H   0  0  0  0  0  0  0  0  0  0  0  0
   34.9520   31.5760   41.7620 H   0  0  0  0  0  0  0  0  0  0  0  0
  1  2  1  0  0  0  0
  2  7  1  0  0  0  0
  2  3  2  0  0  0  0
  3  8  1  0  0  0  0
  4  3  1  0  0  0  0
  5  4  2  0  0  0  0
  6  1  2  0  0  0  0
  6  5  1  0  0  0  0
  9  5  1  0  0  0  0
  9 12  1  1  0  0  0
 10 11  1  0  0  0  0
 10  9  1  0  0  0  0
 11  9  1  0  0  0  0
 11 15  1  1  0  0  0
 13 10  1  0  0  0  0
 14 10  1  0  0  0  0
 16 11  1  0  0  0  0
 16 18  1  0  0  0  0
 17 16  1  0  0  0  0
 19 21  1  0  0  0  0
 19  1  1  0  0  0  0
 20 19  2  0  0  0  0
 21 23  1  0  0  0  0
 22 21  1  0  0  0  0
M  END
>  <minimizedAffinity>
-4.43972397

$$$$

 OpenBabel03252508013D

 23 24  0  0  1  0  0  0  0  0999 V2000
   37.8390   31.1330   41.0170 C   0  0  0  0  0  0  0  0  0  0  0  0
   39.1550   31.5850   41.2330 C   0  0  0  0  0  0  0  0  0  0  0  0
   39.8930   30.9380   42.2350 C   0  0  0  0  0  0  0  0  0  0  0  0
   39.3010   29.9340   42.9190 N   0  0  0  0  0  0  0  0  0  0  0  0
   38.0060   29.5470   42.6500 C   0  0  0  0  0  0  0  0  0  0  0  0
   37.2720   30.1270   41.7180 N   0  0  0  0  0  0  0  0  0  0  0  0
   39.5780   32.3940   40.6540 H   0  0  0  0  0  0  0  0  0  0  0  0
   40.9070   31.2360   42.4500 H   0  0  0  0  0  0  0  0  0  0  0  0
   37.4280   28.4100   43.4360 C   0  0  1  0  0  0  0  0  0  0  0  0
   36.9220   27.1940   42.6930 C   0  0  0  0  0  0  0  0  0  0  0  0
   38.2420   27.1770   43.4130 C   0  0  1  0  0  0  0  0  0  0  0  0
   36.8500   28.6570   44.3270 H   0  0  0  0  0  0  0  0  0  0  0  0
   36.8650   27.2730   41.6020 H   0  0  0  0  0  0  0  0  0  0  0  0
   36.1400   26.5890   43.1440 H   0  0  0  0  0  0  0  0  0  0  0  0
   38.3450   26.5420   44.3040 H   0  0  0  0  0  0  0  0  0  0  0  0
   39.3540   27.0660   42.4640 N   0  0  0  0  0  0  0  0  0  0  0  0
   39.3810   26.1570   41.9820 H   0  0  0  0  0  0  0  0  0  0  0  0
   40.2630   27.2490   42.9220 H   0  0  0  0  0  0  0  0  0  0  0  0
   37.1310   31.8280   39.9620 C   0  0  0  0  0  0  0  0  0  0  0  0
   36.6690   31.2440   38.9180 O   0  0  0  0  0  0  0  0  0  0  0  0
   36.8670   33.2440   39.9660 N   0  0  0  0  0  0  0  0  0  0  0  0
   37.7860   33.5130   39.5050 H   0  0  0  0  0  0  0  0  0  0  0  0
   36.2510   34.0660   40.1900 H   0  0  0  0  0  0  0  0  0  0  0  0
  1  2  2  0  0  0  0
  1  6  1  0  0  0  0
  2  3  1  0  0  0  0
  3  8  1  0  0  0  0
  3  4  2  0  0  0  0
  5  4  1  0  0  0  0
  5  9  1  0  0  0  0
  6  5  2  0  0  0  0
  7  2  1  0  0  0  0
  9 12  1  1  0  0  0
 10 14  1  0  0  0  0
 10 11  1  0  0  0  0
 10  9  1  0  0  0  0
 11  9  1  0  0  0  0
 11 15  1  1  0  0  0
 13 10  1  0  0  0  0
 16 18  1  0  0  0  0
 16 11  1  0  0  0  0
 17 16  1  0  0  0  0
 19 21  1  0  0  0  0
 19  1  1  0  0  0  0
 20 19  2  0  0  0  0
 21 23  1  0  0  0  0
 22 21  1  0  0  0  0
M  END
>  <minimizedAffinity>
-4.36402988

$$$$

 OpenBabel03252508013D

 23 24  0  0  1  0  0  0  0  0999 V2000
   37.3210   26.8560   41.8170 C   0  0  0  0  0  0  0  0  0  0  0  0
   37.3220   27.1160   43.2010 C   0  0  0  0  0  0  0  0  0  0  0  0
   37.4970   28.4500   43.5970 C   0  0  0  0  0  0  0  0  0  0  0  0
   37.6510   29.3880   42.6370 N   0  0  0  0  0  0  0  0  0  0  0  0
   37.6390   29.0560   41.2990 C   0  0  0  0  0  0  0  0  0  0  0  0
   37.4790   27.8150   40.8780 N   0  0  0  0  0  0  0  0  0  0  0  0
   37.1940   26.3250   43.9260 H   0  0  0  0  0  0  0  0  0  0  0  0
   37.5060   28.7170   44.6420 H   0  0  0  0  0  0  0  0  0  0  0  0
   37.7920   30.1560   40.2950 C   0  0  1  0  0  0  0  0  0  0  0  0
   36.7260   30.3300   39.2370 C   0  0  0  0  0  0  0  0  0  0  0  0
   36.8030   31.2460   40.4270 C   0  0  1  0  0  0  0  0  0  0  0  0
   38.8010   30.3840   39.9480 H   0  0  0  0  0  0  0  0  0  0  0  0
   35.9700   29.5420   39.1670 H   0  0  0  0  0  0  0  0  0  0  0  0
   36.9960   30.7830   38.2850 H   0  0  0  0  0  0  0  0  0  0  0  0
   37.0830   32.2960   40.2640 H   0  0  0  0  0  0  0  0  0  0  0  0
   35.6430   31.0620   41.3040 N   0  0  0  0  0  0  0  0  0  0  0  0
   34.7620   31.3730   40.8740 H   0  0  0  0  0  0  0  0  0  0  0  0
   35.7770   31.5350   42.2130 H   0  0  0  0  0  0  0  0  0  0  0  0
   37.1220   25.4650   41.4680 C   0  0  0  0  0  0  0  0  0  0  0  0
   37.2660   24.5000   42.3010 O   0  0  0  0  0  0  0  0  0  0  0  0
   36.7420   25.0100   40.1550 N   0  0  0  0  0  0  0  0  0  0  0  0
   37.7370   24.9440   39.7860 H   0  0  0  0  0  0  0  0  0  0  0  0
   36.0120   24.7370   39.4490 H   0  0  0  0  0  0  0  0  0  0  0  0
  1  2  1  0  0  0  0
  2  3  2  0  0  0  0
  2  7  1  0  0  0  0
  3  8  1  0  0  0  0
  4  3  1  0  0  0  0
  5  4  2  0  0  0  0
  6  5  1  0  0  0  0
  6  1  2  0  0  0  0
  9 12  1  6  0  0  0
  9 11  1  0  0  0  0
  9  5  1  0  0  0  0
 10  9  1  0  0  0  0
 10 11  1  0  0  0  0
 11 15  1  6  0  0  0
 11 16  1  0  0  0  0
 13 10  1  0  0  0  0
 14 10  1  0  0  0  0
 16 18  1  0  0  0  0
 17 16  1  0  0  0  0
 19  1  1  0  0  0  0
 19 20  2  0  0  0  0
 21 19  1  0  0  0  0
 22 21  1  0  0  0  0
 23 21  1  0  0  0  0
M  END
>  <minimizedAffinity>
-4.36024666

$$$$

 OpenBabel03252508013D

 23 24  0  0  1  0  0  0  0  0999 V2000
   39.6000   31.3120   38.9950 C   0  0  0  0  0  0  0  0  0  0  0  0
   40.0800   31.9870   40.1340 C   0  0  0  0  0  0  0  0  0  0  0  0
   39.5060   31.6430   41.3660 C   0  0  0  0  0  0  0  0  0  0  0  0
   38.5410   30.6970   41.3800 N   0  0  0  0  0  0  0  0  0  0  0  0
   38.1220   30.0800   40.2220 C   0  0  0  0  0  0  0  0  0  0  0  0
   38.6310   30.3710   39.0390 N   0  0  0  0  0  0  0  0  0  0  0  0
   40.8560   32.7360   40.0630 H   0  0  0  0  0  0  0  0  0  0  0  0
   39.8290   32.1220   42.2770 H   0  0  0  0  0  0  0  0  0  0  0  0
   37.0640   29.0240   40.3240 C   0  0  1  0  0  0  0  0  0  0  0  0
   36.5310   28.6570   41.6900 C   0  0  0  0  0  0  0  0  0  0  0  0
   35.7410   29.5260   40.7510 C   0  0  1  0  0  0  0  0  0  0  0  0
   37.1230   28.1840   39.6310 H   0  0  0  0  0  0  0  0  0  0  0  0
   37.0590   29.0760   42.5530 H   0  0  0  0  0  0  0  0  0  0  0  0
   36.1280   27.6590   41.8480 H   0  0  0  0  0  0  0  0  0  0  0  0
   34.8110   29.1250   40.3230 H   0  0  0  0  0  0  0  0  0  0  0  0
   35.6240   30.8890   41.2750 N   0  0  0  0  0  0  0  0  0  0  0  0
   35.0460   30.9440   42.1250 H   0  0  0  0  0  0  0  0  0  0  0  0
   35.2580   31.5400   40.5600 H   0  0  0  0  0  0  0  0  0  0  0  0
   40.2390   31.6990   37.7540 C   0  0  0  0  0  0  0  0  0  0  0  0
   41.4710   31.4580   37.4900 O   0  0  0  0  0  0  0  0  0  0  0  0
   39.5690   32.3920   36.6840 N   0  0  0  0  0  0  0  0  0  0  0  0
   39.7590   33.3640   37.0670 H   0  0  0  0  0  0  0  0  0  0  0  0
   39.0260   32.3920   35.7830 H   0  0  0  0  0  0  0  0  0  0  0  0
  1  6  2  0  0  0  0
  1  2  1  0  0  0  0
  2  3  2  0  0  0  0
  3  4  1  0  0  0  0
  3  8  1  0  0  0  0
  5  9  1  0  0  0  0
  5  4  2  0  0  0  0
  6  5  1  0  0  0  0
  7  2  1  0  0  0  0
  9 12  1  6  0  0  0
  9 11  1  0  0  0  0
  9 10  1  0  0  0  0
 10 14  1  0  0  0  0
 10 13  1  0  0  0  0
 11 15  1  6  0  0  0
 11 16  1  0  0  0  0
 11 10  1  0  0  0  0
 16 17  1  0  0  0  0
 18 16  1  0  0  0  0
 19  1  1  0  0  0  0
 20 19  2  0  0  0  0
 21 22  1  0  0  0  0
 21 19  1  0  0  0  0
 23 21  1  0  0  0  0
M  END
>  <minimizedAffinity>
-4.29756355

$$$$

 OpenBabel03252508013D

 23 24  0  0  1  0  0  0  0  0999 V2000
   37.9740   31.3690   40.5060 C   0  0  0  0  0  0  0  0  0  0  0  0
   37.6220   32.7320   40.5320 C   0  0  0  0  0  0  0  0  0  0  0  0
   38.5280   33.6340   39.9580 C   0  0  0  0  0  0  0  0  0  0  0  0
   39.6680   33.1430   39.4220 N   0  0  0  0  0  0  0  0  0  0  0  0
   39.9450   31.7940   39.4340 C   0  0  0  0  0  0  0  0  0  0  0  0
   39.1230   30.9060   39.9640 N   0  0  0  0  0  0  0  0  0  0  0  0
   36.6950   33.0690   40.9740 H   0  0  0  0  0  0  0  0  0  0  0  0
   38.3180   34.6930   39.9440 H   0  0  0  0  0  0  0  0  0  0  0  0
   41.2180   31.3250   38.8000 C   0  0  1  0  0  0  0  0  0  0  0  0
   41.1440   30.3110   37.6800 C   0  0  0  0  0  0  0  0  0  0  0  0
   41.4010   31.7670   37.4010 C   0  0  1  0  0  0  0  0  0  0  0  0
   42.0890   31.2090   39.4450 H   0  0  0  0  0  0  0  0  0  0  0  0
   40.1660   29.8560   37.4940 H   0  0  0  0  0  0  0  0  0  0  0  0
   41.9910   29.6500   37.5110 H   0  0  0  0  0  0  0  0  0  0  0  0
   42.3890   32.0610   37.0180 H   0  0  0  0  0  0  0  0  0  0  0  0
   40.2740   32.3680   36.6830 N   0  0  0  0  0  0  0  0  0  0  0  0
   40.1650   32.0020   35.7280 H   0  0  0  0  0  0  0  0  0  0  0  0
   40.3470   33.3990   36.6570 H   0  0  0  0  0  0  0  0  0  0  0  0
   36.9950   30.4830   41.1000 C   0  0  0  0  0  0  0  0  0  0  0  0
   37.2550   29.2790   41.4540 O   0  0  0  0  0  0  0  0  0  0  0  0
   35.6270   30.8530   41.3580 N   0  0  0  0  0  0  0  0  0  0  0  0
   35.2700   30.5760   40.3960 H   0  0  0  0  0  0  0  0  0  0  0  0
   34.8790   31.2350   41.9910 H   0  0  0  0  0  0  0  0  0  0  0  0
  1  2  1  0  0  0  0
  1 19  1  0  0  0  0
  2  7  1  0  0  0  0
  3  2  2  0  0  0  0
  4  5  2  0  0  0  0
  4  3  1  0  0  0  0
  5  6  1  0  0  0  0
  6  1  2  0  0  0  0
  8  3  1  0  0  0  0
  9  5  1  0  0  0  0
  9 12  1  1  0  0  0
 10  9  1  0  0  0  0
 11 15  1  6  0  0  0
 11 10  1  0  0  0  0
 11  9  1  0  0  0  0
 13 10  1  0  0  0  0
 14 10  1  0  0  0  0
 16 11  1  0  0  0  0
 17 16  1  0  0  0  0
 18 16  1  0  0  0  0
 19 21  1  0  0  0  0
 19 20  2  0  0  0  0
 21 23  1  0  0  0  0
 22 21  1  0  0  0  0
M  END
>  <minimizedAffinity>
-4.26059961

$$$$

 OpenBabel03252508013D

 23 24  0  0  1  0  0  0  0  0999 V2000
   38.5280   27.1330   43.0600 C   0  0  0  0  0  0  0  0  0  0  0  0
   39.7380   26.6630   43.6080 C   0  0  0  0  0  0  0  0  0  0  0  0
   40.0100   25.2950   43.4700 C   0  0  0  0  0  0  0  0  0  0  0  0
   39.1040   24.5240   42.8280 N   0  0  0  0  0  0  0  0  0  0  0  0
   37.9400   25.0560   42.3180 C   0  0  0  0  0  0  0  0  0  0  0  0
   37.6400   26.3370   42.4240 N   0  0  0  0  0  0  0  0  0  0  0  0
   40.4270   27.3270   44.1110 H   0  0  0  0  0  0  0  0  0  0  0  0
   40.9200   24.8710   43.8660 H   0  0  0  0  0  0  0  0  0  0  0  0
   36.9980   24.1400   41.5990 C   0  0  1  0  0  0  0  0  0  0  0  0
   36.6260   24.4550   40.1670 C   0  0  0  0  0  0  0  0  0  0  0  0
   37.6150   23.3720   40.4970 C   0  0  1  0  0  0  0  0  0  0  0  0
   36.1890   23.6940   42.1780 H   0  0  0  0  0  0  0  0  0  0  0  0
   36.9480   25.4270   39.7790 H   0  0  0  0  0  0  0  0  0  0  0  0
   35.6690   24.1090   39.7830 H   0  0  0  0  0  0  0  0  0  0  0  0
   37.3340   22.3270   40.3000 H   0  0  0  0  0  0  0  0  0  0  0  0
   38.9580   23.7310   40.0340 N   0  0  0  0  0  0  0  0  0  0  0  0
   39.0340   23.7600   39.0080 H   0  0  0  0  0  0  0  0  0  0  0  0
   39.6750   23.0950   40.4220 H   0  0  0  0  0  0  0  0  0  0  0  0
   38.3080   28.5550   43.2200 C   0  0  0  0  0  0  0  0  0  0  0  0
   39.2010   29.4400   42.9660 O   0  0  0  0  0  0  0  0  0  0  0  0
   37.0710   29.1320   43.6790 N   0  0  0  0  0  0  0  0  0  0  0  0
   37.3150   29.0700   44.7110 H   0  0  0  0  0  0  0  0  0  0  0  0
   36.1230   29.5480   43.4940 H   0  0  0  0  0  0  0  0  0  0  0  0
  1 19  1  0  0  0  0
  1  2  1  0  0  0  0
  2  7  1  0  0  0  0
  3  2  2  0  0  0  0
  3  8  1  0  0  0  0
  4  3  1  0  0  0  0
  5  6  1  0  0  0  0
  5  4  2  0  0  0  0
  6  1  2  0  0  0  0
  9 12  1  1  0  0  0
  9  5  1  0  0  0  0
 10 11  1  0  0  0  0
 10  9  1  0  0  0  0
 11 15  1  6  0  0  0
 11  9  1  0  0  0  0
 13 10  1  0  0  0  0
 14 10  1  0  0  0  0
 16 18  1  0  0  0  0
 16 11  1  0  0  0  0
 17 16  1  0  0  0  0
 19 21  1  0  0  0  0
 20 19  2  0  0  0  0
 21 22  1  0  0  0  0
 23 21  1  0  0  0  0
M  END
>  <minimizedAffinity>
-4.20494366

$$$$

 OpenBabel03252508013D

 23 24  0  0  1  0  0  0  0  0999 V2000
   38.9470   28.0620   42.4350 C   0  0  0  0  0  0  0  0  0  0  0  0
   38.2240   27.4700   43.4890 C   0  0  0  0  0  0  0  0  0  0  0  0
   36.8330   27.3840   43.3370 C   0  0  0  0  0  0  0  0  0  0  0  0
   36.2820   27.8690   42.2010 N   0  0  0  0  0  0  0  0  0  0  0  0
   37.0560   28.4360   41.2120 C   0  0  0  0  0  0  0  0  0  0  0  0
   38.3680   28.5410   41.3110 N   0  0  0  0  0  0  0  0  0  0  0  0
   38.7190   27.0990   44.3750 H   0  0  0  0  0  0  0  0  0  0  0  0
   36.2210   26.9410   44.1070 H   0  0  0  0  0  0  0  0  0  0  0  0
   36.3730   28.9290   39.9740 C   0  0  1  0  0  0  0  0  0  0  0  0
   34.8780   29.1540   40.0060 C   0  0  0  0  0  0  0  0  0  0  0  0
   35.8440   30.3050   40.0750 C   0  0  1  0  0  0  0  0  0  0  0  0
   36.7450   28.5650   39.0150 H   0  0  0  0  0  0  0  0  0  0  0  0
   34.3470   28.7970   40.8940 H   0  0  0  0  0  0  0  0  0  0  0  0
   34.3140   29.0780   39.0800 H   0  0  0  0  0  0  0  0  0  0  0  0
   35.8920   31.0020   39.2260 H   0  0  0  0  0  0  0  0  0  0  0  0
   35.7850   30.9580   41.3860 N   0  0  0  0  0  0  0  0  0  0  0  0
   34.8930   31.4410   41.5540 H   0  0  0  0  0  0  0  0  0  0  0  0
   36.5710   31.6180   41.5160 H   0  0  0  0  0  0  0  0  0  0  0  0
   40.3790   28.1110   42.6420 C   0  0  0  0  0  0  0  0  0  0  0  0
   40.9590   27.6300   43.6790 O   0  0  0  0  0  0  0  0  0  0  0  0
   41.3080   28.7000   41.7110 N   0  0  0  0  0  0  0  0  0  0  0  0
   41.2330   29.6820   42.1110 H   0  0  0  0  0  0  0  0  0  0  0  0
   41.9660   28.6270   40.8950 H   0  0  0  0  0  0  0  0  0  0  0  0
  1 19  1  0  0  0  0
  1  2  1  0  0  0  0
  2  7  1  0  0  0  0
  3  2  2  0  0  0  0
  3  8  1  0  0  0  0
  4  3  1  0  0  0  0
  5  6  1  0  0  0  0
  5  4  2  0  0  0  0
  6  1  2  0  0  0  0
  9 12  1  6  0  0  0
  9 10  1  0  0  0  0
  9 11  1  0  0  0  0
  9  5  1  0  0  0  0
 10 11  1  0  0  0  0
 10 13  1  0  0  0  0
 11 15  1  6  0  0  0
 11 16  1  0  0  0  0
 14 10  1  0  0  0  0
 16 18  1  0  0  0  0
 16 17  1  0  0  0  0
 19 20  2  0  0  0  0
 21 22  1  0  0  0  0
 21 19  1  0  0  0  0
 23 21  1  0  0  0  0
M  END
>  <minimizedAffinity>
-4.19984722

$$$$

 OpenBabel03252508013D

 23 24  0  0  1  0  0  0  0  0999 V2000
   38.1850   24.9550   42.2100 C   0  0  0  0  0  0  0  0  0  0  0  0
   39.4280   24.5600   42.7400 C   0  0  0  0  0  0  0  0  0  0  0  0
   40.1250   25.5090   43.5010 C   0  0  0  0  0  0  0  0  0  0  0  0
   39.5650   26.7260   43.6750 N   0  0  0  0  0  0  0  0  0  0  0  0
   38.3430   27.0410   43.1230 C   0  0  0  0  0  0  0  0  0  0  0  0
   37.6500   26.1820   42.3990 N   0  0  0  0  0  0  0  0  0  0  0  0
   39.8280   23.5700   42.5690 H   0  0  0  0  0  0  0  0  0  0  0  0
   41.0830   25.2700   43.9370 H   0  0  0  0  0  0  0  0  0  0  0  0
   37.7780   28.4040   43.3810 C   0  0  1  0  0  0  0  0  0  0  0  0
   38.5760   29.6150   42.9550 C   0  0  0  0  0  0  0  0  0  0  0  0
   37.3890   29.1430   42.1620 C   0  0  1  0  0  0  0  0  0  0  0  0
   37.2110   28.5480   44.3010 H   0  0  0  0  0  0  0  0  0  0  0  0
   39.6010   29.4340   42.6170 H   0  0  0  0  0  0  0  0  0  0  0  0
   38.4350   30.5530   43.4870 H   0  0  0  0  0  0  0  0  0  0  0  0
   36.4890   29.7750   42.1370 H   0  0  0  0  0  0  0  0  0  0  0  0
   37.8040   28.6380   40.8500 N   0  0  0  0  0  0  0  0  0  0  0  0
   38.1710   29.3750   40.2340 H   0  0  0  0  0  0  0  0  0  0  0  0
   37.0350   28.1350   40.3770 H   0  0  0  0  0  0  0  0  0  0  0  0
   37.5050   23.9300   41.4450 C   0  0  0  0  0  0  0  0  0  0  0  0
   36.2950   24.0420   41.0350 O   0  0  0  0  0  0  0  0  0  0  0  0
   38.1060   22.6780   41.0620 N   0  0  0  0  0  0  0  0  0  0  0  0
   37.8390   22.1680   41.9550 H   0  0  0  0  0  0  0  0  0  0  0  0
   38.6390   22.0820   40.3790 H   0  0  0  0  0  0  0  0  0  0  0  0
  1  6  2  0  0  0  0
  1  2  1  0  0  0  0
  2  3  2  0  0  0  0
  3  4  1  0  0  0  0
  3  8  1  0  0  0  0
  5  9  1  0  0  0  0
  5  4  2  0  0  0  0
  6  5  1  0  0  0  0
  7  2  1  0  0  0  0
  9 12  1  1  0  0  0
 10  9  1  0  0  0  0
 10 14  1  0  0  0  0
 11 15  1  1  0  0  0
 11 10  1  0  0  0  0
 11  9  1  0  0  0  0
 13 10  1  0  0  0  0
 16 11  1  0  0  0  0
 17 16  1  0  0  0  0
 18 16  1  0  0  0  0
 19  1  1  0  0  0  0
 20 19  2  0  0  0  0
 21 19  1  0  0  0  0
 21 22  1  0  0  0  0
 23 21  1  0  0  0  0
M  END
>  <minimizedAffinity>
-4.17539835

$$$$
