
     RDKit          3D

 22 23  0  0  0  0  0  0  0  0999 V2000
   46.0754   34.1465   41.0019 C   0  0  0  0  0  0  0  0  0  0  0  0
   46.6232   34.8312   42.1035 C   0  0  0  0  0  0  0  0  0  0  0  0
   47.9410   35.2810   41.9877 C   0  0  0  0  0  0  0  0  0  0  0  0
   48.6094   35.0329   40.8288 N   0  0  0  0  0  0  0  0  0  0  0  0
   48.0482   34.3761   39.8033 C   0  0  0  0  0  0  0  0  0  0  0  0
   46.7754   33.9294   39.8870 N   0  0  0  0  0  0  0  0  0  0  0  0
   45.8156   35.0392   43.2918 C   0  0  0  0  0  0  0  0  0  0  0  0
   45.0445   36.1793   43.4920 C   0  0  0  0  0  0  0  0  0  0  0  0
   44.4590   35.9592   44.7217 C   0  0  0  0  0  0  0  0  0  0  0  0
   44.8396   34.7707   45.2439 N   0  0  0  0  0  0  0  0  0  0  0  0
   45.6554   34.2491   44.3528 N   0  0  0  0  0  0  0  0  0  0  0  0
   44.7763   33.6980   41.1043 O   0  0  0  0  0  0  0  0  0  0  0  0
   43.6975   34.2031   40.4224 C   0  0  0  0  0  0  0  0  0  0  0  0
   43.2495   35.3932   40.4219 O   0  0  0  0  0  0  0  0  0  0  0  0
   48.3734   35.8104   42.8316 H   0  0  0  0  0  0  0  0  0  0  0  0
   48.6414   34.2153   38.9118 H   0  0  0  0  0  0  0  0  0  0  0  0
   44.9417   37.0255   42.8297 H   0  0  0  0  0  0  0  0  0  0  0  0
   43.7824   36.7021   45.1529 H   0  0  0  0  0  0  0  0  0  0  0  0
   44.5002   34.4296   46.1687 H   0  0  0  0  0  0  0  0  0  0  0  0
   42.7036   33.6791   39.5088 N   0  0  0  0  0  0  0  0  0  0  0  0
   42.2948   32.7212   39.5764 H   0  0  0  0  0  0  0  0  0  0  0  0
   42.4697   34.3984   38.7908 H   0  0  0  0  0  0  0  0  0  0  0  0
  1 12  1  0
  1  2  2  0
  2  7  1  0
  3  2  1  0
  4  3  2  0
  5  6  2  0
  5  4  1  0
  6  1  1  0
  7  8  1  0
  7 11  2  0
  8  9  2  0
  9 10  1  0
 11 10  1  0
 13 14  2  0
 13 12  1  0
  3 15  1  0
  5 16  1  0
  8 17  1  0
  9 18  1  0
 10 19  1  0
 20 21  1  0
 20 22  1  0
 13 20  1  0
M  ISO  7  15  14  16  14  17  14  18  14  19   9  21   5  22   5
M  END
>  <DihAtoms>  (1) 
13,12,19,20

>  <DihDeg>  (1) 
81.02184770224346

$$$$
