
     RDKit          3D

 32 33  0  0  0  0  0  0  0  0999 V2000
   45.2846   35.6144   44.2078 C   0  0  0  0  0  0  0  0  0  0  0  0
   46.2426   34.8575   43.5284 C   0  0  0  0  0  0  0  0  0  0  0  0
   46.7098   33.6667   44.0794 C   0  0  0  0  0  0  0  0  0  0  0  0
   46.2015   33.3053   45.2579 N   0  0  0  0  0  0  0  0  0  0  0  0
   45.2743   34.0407   45.9116 C   0  0  0  0  0  0  0  0  0  0  0  0
   44.8087   35.1969   45.3959 N   0  0  0  0  0  0  0  0  0  0  0  0
   48.6858   33.7714   42.5812 C   0  0  2  0  0  0  0  0  0  0  0  0
   47.7061   32.9294   43.3179 C   0  0  2  0  0  0  0  0  0  0  0  0
   47.1632   32.1522   42.2530 O   0  0  0  0  0  0  0  0  0  0  0  0
   48.3039   31.6793   41.6327 C   0  0  0  0  0  0  0  0  0  0  0  0
   49.4267   32.6430   41.8341 C   0  0  1  0  0  0  0  0  0  0  0  0
   49.4931   34.5395   43.3630 O   0  0  0  0  0  0  0  0  0  0  0  0
   49.9468   33.1593   40.6518 O   0  0  0  0  0  0  0  0  0  0  0  0
   44.8018   36.9013   43.5973 C   0  0  0  0  0  0  0  0  0  0  0  0
   45.3341   39.2688   44.4705 C   0  0  0  0  0  0  0  0  0  0  0  0
   45.6288   39.6158   43.2933 O   0  0  0  0  0  0  0  0  0  0  0  0
   44.9181   37.9164   44.6361 N   0  0  0  0  0  0  0  0  0  0  0  0
   46.5707   35.2483   42.5971 H   0  0  0  0  0  0  0  0  0  0  0  0
   44.9090   33.6761   46.8708 H   0  0  0  0  0  0  0  0  0  0  0  0
   48.2239   34.3865   41.7860 H   0  0  0  0  0  0  0  0  0  0  0  0
   48.2397   32.1733   43.9363 H   0  0  0  0  0  0  0  0  0  0  0  0
   48.5904   30.7370   42.1691 H   0  0  0  0  0  0  0  0  0  0  0  0
   48.1309   31.3932   40.5750 H   0  0  0  0  0  0  0  0  0  0  0  0
   50.2233   32.2731   42.4835 H   0  0  0  0  0  0  0  0  0  0  0  0
   49.5106   35.4931   43.1391 H   0  0  0  0  0  0  0  0  0  0  0  0
   50.7419   33.6750   40.9042 H   0  0  0  0  0  0  0  0  0  0  0  0
   45.4060   37.1444   42.7253 H   0  0  0  0  0  0  0  0  0  0  0  0
   43.7115   36.8170   43.3684 H   0  0  0  0  0  0  0  0  0  0  0  0
   44.6633   37.6067   45.6208 H   0  0  0  0  0  0  0  0  0  0  0  0
   45.3975   40.1376   45.5942 N   0  0  0  0  0  0  0  0  0  0  0  0
   45.1710   39.6163   46.4893 H   0  0  0  0  0  0  0  0  0  0  0  0
   45.6361   41.1552   45.5415 H   0  0  0  0  0  0  0  0  0  0  0  0
  1  6  2  0
  2  3  2  0
  2  1  1  0
  3  4  1  0
  4  5  2  0
  6  5  1  0
  7  8  1  0
  7 12  1  0
  8  3  1  0
  9  8  1  0
 10 11  1  0
 10  9  1  0
 11  7  1  0
 13 11  1  0
 14  1  1  0
 14 17  1  0
 15 17  1  0
 16 15  2  0
  2 18  1  0
  5 19  1  0
  7 20  1  6
  8 21  1  1
 10 22  1  0
 10 23  1  0
 11 24  1  1
 12 25  1  0
 13 26  1  0
 14 27  1  0
 14 28  1  0
 17 29  1  0
 30 31  1  0
 30 32  1  0
 15 30  1  0
M  ISO  8  18  14  19  14  20  13  21  13  22  13  23  13  24  13  25   3
M  ISO  5  26   3  27   8  28   8  31   5  32   5
M  END
>  <DihAtoms>  (1) 
16,14,29,30

>  <DihDeg>  (1) 
138.93396353626636

$$$$
