
 OpenBabel03242520173D

 25 26  0  0  0  0  0  0  0  0999 V2000
   44.0670   34.5260   41.2590 C   0  0  0  0  0  0  0  0  0  0  0  0
   42.9040   35.2310   40.9080 C   0  0  0  0  0  0  0  0  0  0  0  0
   42.3490   34.9870   39.6310 C   0  0  0  0  0  0  0  0  0  0  0  0
   42.9810   34.0810   38.8230 N   0  0  0  0  0  0  0  0  0  0  0  0
   44.1000   33.4290   39.2130 C   0  0  0  0  0  0  0  0  0  0  0  0
   44.6450   33.6380   40.4040 N   0  0  0  0  0  0  0  0  0  0  0  0
   42.4900   35.9110   41.6050 H   0  0  0  0  0  0  0  0  0  0  0  0
   44.5600   32.7230   38.5350 H   0  0  0  0  0  0  0  0  0  0  0  0
   44.6290   34.7920   42.6110 C   0  0  0  0  0  0  0  0  0  0  0  0
   46.0840   35.2350   42.5720 C   0  0  0  0  0  0  0  0  0  0  0  0
   44.9850   36.1520   43.0170 C   0  0  0  0  0  0  0  0  0  0  0  0
   44.2390   34.1330   43.3870 H   0  0  0  0  0  0  0  0  0  0  0  0
   46.7460   34.7970   43.3720 H   0  0  0  0  0  0  0  0  0  0  0  0
   46.5840   35.3600   41.6130 H   0  0  0  0  0  0  0  0  0  0  0  0
   44.9240   36.4090   44.0860 H   0  0  0  0  0  0  0  0  0  0  0  0
   44.7640   36.9830   42.3260 H   0  0  0  0  0  0  0  0  0  0  0  0
   41.1290   35.7010   39.2140 C   0  0  0  0  0  0  0  0  0  0  0  0
   41.3380   36.7920   39.0360 H   0  0  0  0  0  0  0  0  0  0  0  0
   40.6990   35.3290   38.2720 H   0  0  0  0  0  0  0  0  0  0  0  0
   40.0530   35.6370   40.2710 C   0  0  0  0  0  0  0  0  0  0  0  0
   39.6080   36.6390   40.4540 H   0  0  0  0  0  0  0  0  0  0  0  0
   40.4750   35.2550   41.2210 H   0  0  0  0  0  0  0  0  0  0  0  0
   38.9980   34.7520   39.7980 N   0  0  0  0  0  0  0  0  0  0  0  0
   39.1580   34.5960   38.7690 H   0  0  0  0  0  0  0  0  0  0  0  0
   38.0720   35.1930   39.9420 H   0  0  0  0  0  0  0  0  0  0  0  0
  1  9  1  0  0  0  0
  2  1  1  0  0  0  0
  2  7  1  0  0  0  0
  3  2  2  0  0  0  0
  4  5  2  0  0  0  0
  4  3  1  0  0  0  0
  5  6  1  0  0  0  0
  6  1  2  0  0  0  0
  8  5  1  0  0  0  0
  9 11  1  0  0  0  0
  9 12  1  0  0  0  0
 10  9  1  0  0  0  0
 10 11  1  0  0  0  0
 10 13  1  0  0  0  0
 11 15  1  0  0  0  0
 14 10  1  0  0  0  0
 16 11  1  0  0  0  0
 17  3  1  0  0  0  0
 17 20  1  0  0  0  0
 18 17  1  0  0  0  0
 19 17  1  0  0  0  0
 20 21  1  0  0  0  0
 20 22  1  0  0  0  0
 23 25  1  0  0  0  0
 23 20  1  0  0  0  0
 24 23  1  0  0  0  0
M  END
>  <minimizedAffinity>
-3.53344059

>  <minimizedRMSD>
0.719153106

$$$$
