REMARK  Name = 
REMARK  7 active torsions:
REMARK  status: ('A' for Active; 'I' for Inactive)
REMARK    1  A    between atoms: C_1  and  C_4
REMARK    2  A    between atoms: C_1  and  O_8
REMARK    3  A    between atoms: O_8  and  P_10
REMARK    4  A    between atoms: P_10  and  O_11
REMARK    5  A    between atoms: P_10  and  O_12
REMARK    6  A    between atoms: O_12  and  C_13
REMARK    7  A    between atoms: C_17  and  N_32
REMARK                            x       y       z     vdW  Elec       q    Type
REMARK                         _______ _______ _______ _____ _____    ______ ____
ROOT
ATOM      1  O   UNL     1      44.641  35.173  45.256  0.00  0.00    +0.000 OA
ATOM      2  P   UNL     1      45.448  34.239  44.421  0.00  0.00    +0.000 P 
ENDROOT
BRANCH   2   3
ATOM      3  O   UNL     1      44.516  33.060  43.677  0.00  0.00    +0.000 OA
ATOM      4  H   UNL     1      44.797  32.839  42.760  0.00  0.00    +0.000 HD
ENDBRANCH   2   3
BRANCH   2   5
ATOM      5  O   UNL     1      46.545  33.400  45.411  0.00  0.00    +0.000 OA
BRANCH   5   6
ATOM      6  C   UNL     1      46.178  32.088  45.434  0.00  0.00    +0.000 C 
ATOM      7  H   UNL     1      45.394  31.746  44.778  0.00  0.00    +0.000 HD
ATOM      8  H   UNL     1      47.099  31.512  45.117  0.00  0.00    +0.000 HD
BRANCH   6  11
ATOM      9  C   UNL     1      45.770  32.025  49.130  0.00  0.00    +0.000 A 
ATOM     10  C   UNL     1      46.058  32.493  47.844  0.00  0.00    +0.000 A 
ATOM     11  C   UNL     1      45.881  31.615  46.789  0.00  0.00    +0.000 A 
ATOM     12  N   UNL     1      45.438  30.345  47.059  0.00  0.00    +0.000 NA
ATOM     13  C   UNL     1      45.172  29.933  48.318  0.00  0.00    +0.000 A 
ATOM     14  N   UNL     1      45.339  30.769  49.333  0.00  0.00    +0.000 NA
ATOM     15  H   UNL     1      45.911  32.716  49.939  0.00  0.00    +0.000 HD
ATOM     16  H   UNL     1      46.403  33.499  47.687  0.00  0.00    +0.000 HD
ATOM     17  H   UNL     1      44.823  28.923  48.500  0.00  0.00    +0.000 HD
ENDBRANCH   6  11
ENDBRANCH   5   6
ENDBRANCH   2   5
BRANCH   2  18
ATOM     18  O   UNL     1      46.346  35.121  43.303  0.00  0.00    +0.000 OA
BRANCH  18  19
ATOM     19  C   UNL     1      47.099  34.240  42.526  0.00  0.00    +0.000 C 
ATOM     20  C   UNL     1      46.956  34.477  41.047  0.00  0.00    +0.000 C 
ATOM     21  C   UNL     1      48.121  33.676  40.506  0.00  0.00    +0.000 C 
ATOM     22  C   UNL     1      49.172  33.658  41.604  0.00  0.00    +0.000 C 
ATOM     23  C   UNL     1      48.593  34.542  42.705  0.00  0.00    +0.000 C 
ATOM     24  H   UNL     1      46.956  33.187  42.770  0.00  0.00    +0.000 HD
ATOM     25  H   UNL     1      47.007  35.533  40.780  0.00  0.00    +0.000 HD
ATOM     26  H   UNL     1      46.041  33.984  40.687  0.00  0.00    +0.000 HD
ATOM     27  H   UNL     1      47.834  32.648  40.193  0.00  0.00    +0.000 HD
ATOM     28  H   UNL     1      48.555  34.241  39.668  0.00  0.00    +0.000 HD
ATOM     29  H   UNL     1      50.162  34.011  41.271  0.00  0.00    +0.000 HD
ATOM     30  H   UNL     1      49.192  32.624  42.010  0.00  0.00    +0.000 HD
ATOM     31  H   UNL     1      48.921  34.225  43.694  0.00  0.00    +0.000 HD
BRANCH  23  32
ATOM     32  N   UNL     1      48.906  35.920  42.382  0.00  0.00    +0.000 NA
ATOM     33  H   UNL     1      48.064  36.498  42.153  0.00  0.00    +0.000 HD
ATOM     34  H   UNL     1      49.301  36.337  43.255  0.00  0.00    +0.000 HD
ENDBRANCH  23  32
ENDBRANCH  18  19
ENDBRANCH   2  18
TORSDOF 7
