
 OpenBabel03242515453D

 35 37  0  0  1  0  0  0  0  0999 V2000
   42.7550   34.3730   40.8680 C   0  0  0  0  0  0  0  0  0  0  0  0
   42.8490   34.2440   39.5240 C   0  0  0  0  0  0  0  0  0  0  0  0
   44.1160   33.9100   39.0590 C   0  0  0  0  0  0  0  0  0  0  0  0
   45.1640   33.7340   39.8880 N   0  0  0  0  0  0  0  0  0  0  0  0
   45.0180   33.8770   41.2200 C   0  0  0  0  0  0  0  0  0  0  0  0
   43.8030   34.1950   41.6680 N   0  0  0  0  0  0  0  0  0  0  0  0
   44.3360   33.7230   37.6430 N   0  0  0  0  0  0  0  0  0  0  0  0
   44.5020   32.7090   37.4170 H   0  0  0  0  0  0  0  0  0  0  0  0
   44.3060   34.5760   37.0200 H   0  0  0  0  0  0  0  0  0  0  0  0
   41.9000   34.4090   38.3890 C   0  0  0  0  0  0  0  0  0  0  0  0
   42.3910   35.0860   37.6260 H   0  0  0  0  0  0  0  0  0  0  0  0
   41.0160   35.0330   38.6980 H   0  0  0  0  0  0  0  0  0  0  0  0
   41.6460   33.4880   37.8700 H   0  0  0  0  0  0  0  0  0  0  0  0
   41.0990   34.7790   41.5130 S   0  0  0  0  0  0  0  0  0  0  0  0
   38.9380   33.6170   40.4820 C   0  0  0  0  0  0  0  0  0  0  0  0
   40.0160   33.3650   41.3340 C   0  0  0  0  0  0  0  0  0  0  0  0
   40.1800   32.1330   41.9320 C   0  0  0  0  0  0  0  0  0  0  0  0
   39.2870   31.1230   41.7020 C   0  0  0  0  0  0  0  0  0  0  0  0
   38.2160   31.3580   40.8610 C   0  0  0  0  0  0  0  0  0  0  0  0
   38.0310   32.5670   40.2590 C   0  0  0  0  0  0  0  0  0  0  0  0
   37.4730   30.1600   40.8100 O   0  0  0  0  0  0  0  0  0  0  0  0
   37.9420   29.3120   41.7860 C   0  0  1  0  0  0  0  0  0  0  0  0
   39.2070   29.8010   42.1650 O   0  0  0  0  0  0  0  0  0  0  0  0
   38.7320   34.5470   39.9750 H   0  0  0  0  0  0  0  0  0  0  0  0
   41.0400   32.0330   42.5730 H   0  0  0  0  0  0  0  0  0  0  0  0
   37.1770   32.7330   39.5970 H   0  0  0  0  0  0  0  0  0  0  0  0
   38.0000   28.2900   41.3560 H   0  0  0  0  0  0  0  0  0  0  0  0
   37.0110   29.2630   42.8910 N   0  0  0  0  0  0  0  0  0  0  0  0
   36.1170   28.7980   42.6170 H   0  0  0  0  0  0  0  0  0  0  0  0
   36.8030   30.2130   43.2770 H   0  0  0  0  0  0  0  0  0  0  0  0
   46.0200   33.7220   42.1480 O   0  0  0  0  0  0  0  0  0  0  0  0
   46.8560   34.8360   42.3990 C   0  0  0  0  0  0  0  0  0  0  0  0
   47.7060   34.6040   43.4260 F   0  0  0  0  0  0  0  0  0  0  0  0
   47.5250   35.1160   41.1920 F   0  0  0  0  0  0  0  0  0  0  0  0
   46.0460   35.9100   42.7510 F   0  0  0  0  0  0  0  0  0  0  0  0
  1 14  1  0  0  0  0
  1  6  1  0  0  0  0
  2  1  2  0  0  0  0
  3  2  1  0  0  0  0
  3  4  2  0  0  0  0
  4  5  1  0  0  0  0
  5  6  2  0  0  0  0
  5 31  1  0  0  0  0
  7  3  1  0  0  0  0
  8  7  1  0  0  0  0
  9  7  1  0  0  0  0
 10 12  1  0  0  0  0
 10  2  1  0  0  0  0
 11 10  1  0  0  0  0
 13 10  1  0  0  0  0
 15 16  1  0  0  0  0
 16 14  1  0  0  0  0
 16 17  2  0  0  0  0
 17 25  1  0  0  0  0
 18 17  1  0  0  0  0
 18 23  1  0  0  0  0
 19 18  2  0  0  0  0
 20 15  2  0  0  0  0
 20 19  1  0  0  0  0
 21 19  1  0  0  0  0
 21 22  1  0  0  0  0
 22 27  1  6  0  0  0
 22 23  1  0  0  0  0
 22 28  1  0  0  0  0
 24 15  1  0  0  0  0
 26 20  1  0  0  0  0
 28 30  1  0  0  0  0
 29 28  1  0  0  0  0
 31 32  1  0  0  0  0
 32 35  1  0  0  0  0
 32 33  1  0  0  0  0
 34 32  1  0  0  0  0
M  END
>  <minimizedAffinity>
-6.10264492

>  <minimizedRMSD>
1.46307993

$$$$
