
 OpenBabel03252507353D

 25 27  0  0  0  0  0  0  0  0999 V2000
   48.0720   34.9690   42.1890 C   0  0  0  0  0  0  0  0  0  0  0  0
   47.0330   34.0870   42.3980 C   0  0  0  0  0  0  0  0  0  0  0  0
   46.5250   33.4440   41.3020 C   0  0  0  0  0  0  0  0  0  0  0  0
   46.9890   33.6300   40.0150 C   0  0  0  0  0  0  0  0  0  0  0  0
   46.6270   33.1000   38.8150 N   0  0  0  0  0  0  0  0  0  0  0  0
   47.4330   33.6480   37.8680 C   0  0  0  0  0  0  0  0  0  0  0  0
   48.2930   34.5190   38.4960 N   0  0  0  0  0  0  0  0  0  0  0  0
   48.0250   34.5110   39.8120 C   0  0  0  0  0  0  0  0  0  0  0  0
   48.5550   35.1690   40.8890 C   0  0  0  0  0  0  0  0  0  0  0  0
   48.5780   35.5510   42.9530 H   0  0  0  0  0  0  0  0  0  0  0  0
   45.7060   32.7540   41.4910 H   0  0  0  0  0  0  0  0  0  0  0  0
   45.8590   32.4070   38.7330 H   0  0  0  0  0  0  0  0  0  0  0  0
   47.3240   33.3710   36.8320 H   0  0  0  0  0  0  0  0  0  0  0  0
   49.3630   35.8460   40.6730 H   0  0  0  0  0  0  0  0  0  0  0  0
   45.2110   34.4230   45.6730 C   0  0  0  0  0  0  0  0  0  0  0  0
   45.5730   34.7250   44.3270 C   0  0  0  0  0  0  0  0  0  0  0  0
   46.5580   33.9060   43.7590 C   0  0  0  0  0  0  0  0  0  0  0  0
   47.0980   32.9090   44.4790 N   0  0  0  0  0  0  0  0  0  0  0  0
   46.7220   32.6550   45.7650 C   0  0  0  0  0  0  0  0  0  0  0  0
   45.7800   33.4200   46.3400 N   0  0  0  0  0  0  0  0  0  0  0  0
   45.1490   35.5080   43.7580 H   0  0  0  0  0  0  0  0  0  0  0  0
   47.2020   31.8450   46.2610 H   0  0  0  0  0  0  0  0  0  0  0  0
   44.2110   35.2410   46.2750 N   0  0  0  0  0  0  0  0  0  0  0  0
   43.7220   34.5330   46.8750 H   0  0  0  0  0  0  0  0  0  0  0  0
   43.9690   36.2520   46.1980 H   0  0  0  0  0  0  0  0  0  0  0  0
  1  2  1  0  0  0  0
  1 10  1  0  0  0  0
  2 17  1  0  0  0  0
  3 11  1  0  0  0  0
  3  2  2  0  0  0  0
  4  3  1  0  0  0  0
  5  4  1  0  0  0  0
  6  7  2  0  0  0  0
  6  5  1  0  0  0  0
  7  8  1  0  0  0  0
  8  4  2  0  0  0  0
  8  9  1  0  0  0  0
  9  1  2  0  0  0  0
 12  5  1  0  0  0  0
 13  6  1  0  0  0  0
 14  9  1  0  0  0  0
 15 23  1  0  0  0  0
 15 20  1  0  0  0  0
 16 15  2  0  0  0  0
 17 16  1  0  0  0  0
 17 18  2  0  0  0  0
 18 19  1  0  0  0  0
 19 22  1  0  0  0  0
 19 20  2  0  0  0  0
 21 16  1  0  0  0  0
 23 24  1  0  0  0  0
 25 23  1  0  0  0  0
M  END
>  <minimizedAffinity>
-5.62632084

>  <minimizedRMSD>
1.2112931

$$$$
