
 OpenBabel03252507133D

 36 37  0  0  1  0  0  0  0  0999 V2000
   50.2350   34.8720   42.6560 O   0  0  0  0  0  0  0  0  0  0  0  0
   49.0570   34.5680   41.8100 P   0  0  1  0  0  0  0  0  0  0  0  0
   48.9460   35.8120   40.6500 O   0  0  0  0  0  0  0  0  0  0  0  0
   48.8390   36.6530   41.1500 H   0  0  0  0  0  0  0  0  0  0  0  0
   49.3050   33.1010   40.9430 O   0  0  0  0  0  0  0  0  0  0  0  0
   49.6530   31.3930   42.5310 C   0  0  0  0  0  0  0  0  0  0  0  0
   50.1080   32.0950   41.4410 C   0  0  0  0  0  0  0  0  0  0  0  0
   51.3700   31.7500   40.8910 C   0  0  0  0  0  0  0  0  0  0  0  0
   52.0480   30.7420   41.4830 N   0  0  0  0  0  0  0  0  0  0  0  0
   51.5800   30.0900   42.5280 C   0  0  0  0  0  0  0  0  0  0  0  0
   50.3720   30.4280   43.0470 N   0  0  0  0  0  0  0  0  0  0  0  0
   47.2390   30.8850   42.8820 C   0  0  0  0  0  0  0  0  0  0  0  0
   47.0410   30.5450   41.6560 O   0  0  0  0  0  0  0  0  0  0  0  0
   48.5370   31.3390   43.4060 N   0  0  0  0  0  0  0  0  0  0  0  0
   51.7060   32.3160   40.0360 H   0  0  0  0  0  0  0  0  0  0  0  0
   52.1600   29.2790   42.9790 H   0  0  0  0  0  0  0  0  0  0  0  0
   46.3810   30.8220   43.5360 H   0  0  0  0  0  0  0  0  0  0  0  0
   48.5090   31.5940   44.4160 H   0  0  0  0  0  0  0  0  0  0  0  0
   47.6390   34.5100   42.6500 O   0  0  0  0  0  0  0  0  0  0  0  0
   46.5170   34.9580   42.0850 C   0  0  2  0  0  0  0  0  0  0  0  0
   45.5290   35.6590   42.9250 C   0  0  0  0  0  0  0  0  0  0  0  0
   44.1880   35.6450   42.2160 C   0  0  0  0  0  0  0  0  0  0  0  0
   43.6220   34.3750   42.2600 O   0  0  0  0  0  0  0  0  0  0  0  0
   44.6040   33.4000   42.1830 C   0  0  0  0  0  0  0  0  0  0  0  0
   45.7600   33.8570   41.3180 C   0  0  1  0  0  0  0  0  0  0  0  0
   46.8190   35.6300   41.2370 H   0  0  0  0  0  0  0  0  0  0  0  0
   45.3890   35.1400   43.9100 H   0  0  0  0  0  0  0  0  0  0  0  0
   45.7950   36.7240   43.1100 H   0  0  0  0  0  0  0  0  0  0  0  0
   44.2450   36.0860   41.2240 H   0  0  0  0  0  0  0  0  0  0  0  0
   43.5150   36.2830   42.8570 H   0  0  0  0  0  0  0  0  0  0  0  0
   44.1360   32.5010   41.7370 H   0  0  0  0  0  0  0  0  0  0  0  0
   45.0050   33.1800   43.1870 H   0  0  0  0  0  0  0  0  0  0  0  0
   46.4580   33.0080   41.2250 H   0  0  0  0  0  0  0  0  0  0  0  0
   45.3130   34.2740   40.0280 N   0  0  0  0  0  0  0  0  0  0  0  0
   45.5560   35.2420   39.7980 H   0  0  0  0  0  0  0  0  0  0  0  0
   45.6510   33.6070   39.3230 H   0  0  0  0  0  0  0  0  0  0  0  0
  2 19  1  0  0  0  0
  2  1  2  1  0  0  0
  3  4  1  0  0  0  0
  3  2  1  0  0  0  0
  5  7  1  0  0  0  0
  5  2  1  0  0  0  0
  6 11  1  0  0  0  0
  6 14  1  0  0  0  0
  7  6  2  0  0  0  0
  8  7  1  0  0  0  0
  8  9  2  0  0  0  0
  9 10  1  0  0  0  0
 10 16  1  0  0  0  0
 10 11  2  0  0  0  0
 12 14  1  0  0  0  0
 12 17  1  0  0  0  0
 13 12  2  0  0  0  0
 14 18  1  0  0  0  0
 15  8  1  0  0  0  0
 20 26  1  6  0  0  0
 20 19  1  0  0  0  0
 20 21  1  0  0  0  0
 21 28  1  0  0  0  0
 21 27  1  0  0  0  0
 22 23  1  0  0  0  0
 22 30  1  0  0  0  0
 22 21  1  0  0  0  0
 24 23  1  0  0  0  0
 24 32  1  0  0  0  0
 25 33  1  6  0  0  0
 25 20  1  0  0  0  0
 25 24  1  0  0  0  0
 29 22  1  0  0  0  0
 31 24  1  0  0  0  0
 34 25  1  0  0  0  0
 35 34  1  0  0  0  0
 36 34  1  0  0  0  0
M  END
>  <minimizedAffinity>
-4.47989702

>  <minimizedRMSD>
0.256967694

$$$$
