
 OpenBabel03242522143D

 20 21  0  0  0  0  0  0  0  0999 V2000
   36.7430   28.4000   42.1340 C   0  0  0  0  0  0  0  0  0  0  0  0
   36.9440   29.7170   41.6690 C   0  0  0  0  0  0  0  0  0  0  0  0
   38.2340   30.1390   41.4750 C   0  0  0  0  0  0  0  0  0  0  0  0
   39.2410   29.2410   41.7500 N   0  0  0  0  0  0  0  0  0  0  0  0
   39.0150   27.9950   42.1920 C   0  0  0  0  0  0  0  0  0  0  0  0
   37.7520   27.5800   42.3830 N   0  0  0  0  0  0  0  0  0  0  0  0
   35.7410   28.0200   42.3030 H   0  0  0  0  0  0  0  0  0  0  0  0
   39.9630   27.4750   42.3390 H   0  0  0  0  0  0  0  0  0  0  0  0
   38.5360   31.5050   40.9890 C   0  0  0  0  0  0  0  0  0  0  0  0
   39.7440   32.1140   41.2010 C   0  0  0  0  0  0  0  0  0  0  0  0
   39.5160   33.7540   40.3830 S   0  0  0  0  0  0  0  0  0  0  0  0
   37.7580   33.2890   39.8900 C   0  0  0  0  0  0  0  0  0  0  0  0
   37.6900   32.2380   40.3280 N   0  0  0  0  0  0  0  0  0  0  0  0
   40.6150   31.6370   41.7570 H   0  0  0  0  0  0  0  0  0  0  0  0
   36.8840   34.1580   39.1570 N   0  0  0  0  0  0  0  0  0  0  0  0
   36.5670   33.6600   38.2750 H   0  0  0  0  0  0  0  0  0  0  0  0
   36.6400   35.1180   39.4970 H   0  0  0  0  0  0  0  0  0  0  0  0
   35.7860   30.4960   41.4400 N   0  0  0  0  0  0  0  0  0  0  0  0
   34.9940   30.0200   40.9600 H   0  0  0  0  0  0  0  0  0  0  0  0
   35.9590   31.4630   41.8220 H   0  0  0  0  0  0  0  0  0  0  0  0
  1  7  1  0  0  0  0
  1  6  1  0  0  0  0
  2  1  2  0  0  0  0
  3  2  1  0  0  0  0
  3  4  2  0  0  0  0
  4  5  1  0  0  0  0
  5  8  1  0  0  0  0
  5  6  2  0  0  0  0
  9 10  2  0  0  0  0
  9  3  1  0  0  0  0
 10 14  1  0  0  0  0
 11 10  1  0  0  0  0
 12 13  2  0  0  0  0
 12 11  1  0  0  0  0
 13  9  1  0  0  0  0
 15 17  1  0  0  0  0
 15 12  1  0  0  0  0
 16 15  1  0  0  0  0
 18  2  1  0  0  0  0
 18 20  1  0  0  0  0
 19 18  1  0  0  0  0
M  END
>  <minimizedAffinity>
-4.5831933

$$$$

 OpenBabel03242522143D

 20 21  0  0  0  0  0  0  0  0999 V2000
   39.2390   33.9790   40.1260 C   0  0  0  0  0  0  0  0  0  0  0  0
   38.3190   32.9490   40.4200 C   0  0  0  0  0  0  0  0  0  0  0  0
   38.8180   31.7510   40.8630 C   0  0  0  0  0  0  0  0  0  0  0  0
   40.1850   31.6420   40.9880 N   0  0  0  0  0  0  0  0  0  0  0  0
   41.0320   32.6410   40.6990 C   0  0  0  0  0  0  0  0  0  0  0  0
   40.5460   33.8160   40.2650 N   0  0  0  0  0  0  0  0  0  0  0  0
   38.8930   34.9450   39.7730 H   0  0  0  0  0  0  0  0  0  0  0  0
   42.0600   32.3210   40.8750 H   0  0  0  0  0  0  0  0  0  0  0  0
   37.9250   30.6170   41.1940 C   0  0  0  0  0  0  0  0  0  0  0  0
   38.2620   29.6540   42.1070 C   0  0  0  0  0  0  0  0  0  0  0  0
   36.7860   28.5440   42.0820 S   0  0  0  0  0  0  0  0  0  0  0  0
   35.9580   29.6350   40.7880 C   0  0  0  0  0  0  0  0  0  0  0  0
   36.7570   30.4380   40.6510 N   0  0  0  0  0  0  0  0  0  0  0  0
   39.2400   29.6340   42.6880 H   0  0  0  0  0  0  0  0  0  0  0  0
   34.6610   29.3670   40.2380 N   0  0  0  0  0  0  0  0  0  0  0  0
   34.0400   30.2110   40.4030 H   0  0  0  0  0  0  0  0  0  0  0  0
   34.4340   28.4620   39.7630 H   0  0  0  0  0  0  0  0  0  0  0  0
   36.9490   33.2450   40.2310 N   0  0  0  0  0  0  0  0  0  0  0  0
   36.6250   34.1770   40.5660 H   0  0  0  0  0  0  0  0  0  0  0  0
   36.4960   32.4180   39.7610 H   0  0  0  0  0  0  0  0  0  0  0  0
  1  6  2  0  0  0  0
  1  2  1  0  0  0  0
  2  3  2  0  0  0  0
  3  4  1  0  0  0  0
  3  9  1  0  0  0  0
  5  8  1  0  0  0  0
  5  4  2  0  0  0  0
  6  5  1  0  0  0  0
  7  1  1  0  0  0  0
  9 10  2  0  0  0  0
 10 14  1  0  0  0  0
 11 10  1  0  0  0  0
 12 11  1  0  0  0  0
 13 12  2  0  0  0  0
 13  9  1  0  0  0  0
 15 16  1  0  0  0  0
 15 12  1  0  0  0  0
 17 15  1  0  0  0  0
 18  2  1  0  0  0  0
 18 19  1  0  0  0  0
 20 18  1  0  0  0  0
M  END
>  <minimizedAffinity>
-4.31167173

$$$$

 OpenBabel03242522143D

 20 21  0  0  0  0  0  0  0  0999 V2000
   37.0310   26.9150   42.9410 C   0  0  0  0  0  0  0  0  0  0  0  0
   37.3810   28.2560   42.6750 C   0  0  0  0  0  0  0  0  0  0  0  0
   38.1010   28.5180   41.5380 C   0  0  0  0  0  0  0  0  0  0  0  0
   38.4310   27.4460   40.7380 N   0  0  0  0  0  0  0  0  0  0  0  0
   38.0830   26.1830   41.0210 C   0  0  0  0  0  0  0  0  0  0  0  0
   37.3770   25.9240   42.1340 N   0  0  0  0  0  0  0  0  0  0  0  0
   36.4620   26.6570   43.8280 H   0  0  0  0  0  0  0  0  0  0  0  0
   38.4550   25.5120   40.2450 H   0  0  0  0  0  0  0  0  0  0  0  0
   38.5110   29.8960   41.1820 C   0  0  0  0  0  0  0  0  0  0  0  0
   39.8220   30.2830   41.1140 C   0  0  0  0  0  0  0  0  0  0  0  0
   39.6910   32.0620   40.6370 S   0  0  0  0  0  0  0  0  0  0  0  0
   37.8110   31.9430   40.6200 C   0  0  0  0  0  0  0  0  0  0  0  0
   37.6690   30.8480   40.9070 N   0  0  0  0  0  0  0  0  0  0  0  0
   40.7060   29.5960   41.3180 H   0  0  0  0  0  0  0  0  0  0  0  0
   36.9490   33.0450   40.3050 N   0  0  0  0  0  0  0  0  0  0  0  0
   36.3240   32.7690   39.4930 H   0  0  0  0  0  0  0  0  0  0  0  0
   36.9860   33.9490   40.8330 H   0  0  0  0  0  0  0  0  0  0  0  0
   36.9530   29.2240   43.6130 N   0  0  0  0  0  0  0  0  0  0  0  0
   35.9780   29.1290   43.9670 H   0  0  0  0  0  0  0  0  0  0  0  0
   37.7500   29.8940   43.7820 H   0  0  0  0  0  0  0  0  0  0  0  0
  1  7  1  0  0  0  0
  2  1  1  0  0  0  0
  2 18  1  0  0  0  0
  3  2  2  0  0  0  0
  4  5  2  0  0  0  0
  4  3  1  0  0  0  0
  5  6  1  0  0  0  0
  6  1  2  0  0  0  0
  8  5  1  0  0  0  0
  9  3  1  0  0  0  0
 10  9  2  0  0  0  0
 10 14  1  0  0  0  0
 11 10  1  0  0  0  0
 12 11  1  0  0  0  0
 12 13  2  0  0  0  0
 13  9  1  0  0  0  0
 15 12  1  0  0  0  0
 15 17  1  0  0  0  0
 16 15  1  0  0  0  0
 18 20  1  0  0  0  0
 18 19  1  0  0  0  0
M  END
>  <minimizedAffinity>
-4.27395105

$$$$

 OpenBabel03242522143D

 20 21  0  0  0  0  0  0  0  0999 V2000
   37.1600   32.5400   40.0210 C   0  0  0  0  0  0  0  0  0  0  0  0
   37.0380   31.3450   40.7610 C   0  0  0  0  0  0  0  0  0  0  0  0
   38.1790   30.6290   41.0160 C   0  0  0  0  0  0  0  0  0  0  0  0
   39.3650   31.1330   40.5280 N   0  0  0  0  0  0  0  0  0  0  0  0
   39.4450   32.2730   39.8260 C   0  0  0  0  0  0  0  0  0  0  0  0
   38.3290   32.9760   39.5750 N   0  0  0  0  0  0  0  0  0  0  0  0
   36.2870   33.1420   39.7940 H   0  0  0  0  0  0  0  0  0  0  0  0
   40.4830   32.4660   39.5480 H   0  0  0  0  0  0  0  0  0  0  0  0
   38.1430   29.3640   41.7850 C   0  0  0  0  0  0  0  0  0  0  0  0
   38.6260   29.2610   43.0620 C   0  0  0  0  0  0  0  0  0  0  0  0
   38.3090   27.4880   43.4700 S   0  0  0  0  0  0  0  0  0  0  0  0
   37.5530   27.2080   41.7670 C   0  0  0  0  0  0  0  0  0  0  0  0
   37.6560   28.2510   41.3190 N   0  0  0  0  0  0  0  0  0  0  0  0
   39.0910   30.1220   43.6440 H   0  0  0  0  0  0  0  0  0  0  0  0
   37.0350   25.9450   41.3280 N   0  0  0  0  0  0  0  0  0  0  0  0
   36.0220   26.0720   41.0390 H   0  0  0  0  0  0  0  0  0  0  0  0
   37.6200   25.0760   41.3200 H   0  0  0  0  0  0  0  0  0  0  0  0
   35.7370   30.9860   41.1820 N   0  0  0  0  0  0  0  0  0  0  0  0
   35.1430   31.7530   41.5610 H   0  0  0  0  0  0  0  0  0  0  0  0
   35.6120   29.9510   41.0190 H   0  0  0  0  0  0  0  0  0  0  0  0
  1  2  1  0  0  0  0
  2  3  2  0  0  0  0
  2 18  1  0  0  0  0
  3  9  1  0  0  0  0
  4  3  1  0  0  0  0
  5  4  2  0  0  0  0
  6  5  1  0  0  0  0
  6  1  2  0  0  0  0
  7  1  1  0  0  0  0
  8  5  1  0  0  0  0
  9 10  2  0  0  0  0
 10 11  1  0  0  0  0
 10 14  1  0  0  0  0
 12 11  1  0  0  0  0
 13 12  2  0  0  0  0
 13  9  1  0  0  0  0
 15 12  1  0  0  0  0
 16 15  1  0  0  0  0
 17 15  1  0  0  0  0
 18 19  1  0  0  0  0
 20 18  1  0  0  0  0
M  END
>  <minimizedAffinity>
-4.24266624

$$$$

 OpenBabel03242522143D

 20 21  0  0  0  0  0  0  0  0999 V2000
   42.3130   33.6580   37.1990 C   0  0  0  0  0  0  0  0  0  0  0  0
   41.2490   32.9510   37.7990 C   0  0  0  0  0  0  0  0  0  0  0  0
   41.2830   32.7730   39.1580 C   0  0  0  0  0  0  0  0  0  0  0  0
   42.3580   33.3010   39.8390 N   0  0  0  0  0  0  0  0  0  0  0  0
   43.3530   33.9680   39.2370 C   0  0  0  0  0  0  0  0  0  0  0  0
   43.3220   34.1440   37.9060 N   0  0  0  0  0  0  0  0  0  0  0  0
   42.3320   33.8250   36.1280 H   0  0  0  0  0  0  0  0  0  0  0  0
   44.0870   34.2880   39.9780 H   0  0  0  0  0  0  0  0  0  0  0  0
   40.2080   32.0430   39.8700 C   0  0  0  0  0  0  0  0  0  0  0  0
   40.4370   30.8850   40.5650 C   0  0  0  0  0  0  0  0  0  0  0  0
   38.7570   30.4670   41.2090 S   0  0  0  0  0  0  0  0  0  0  0  0
   38.0330   31.9970   40.3830 C   0  0  0  0  0  0  0  0  0  0  0  0
   38.9680   32.4320   39.8940 N   0  0  0  0  0  0  0  0  0  0  0  0
   41.4540   30.3840   40.6620 H   0  0  0  0  0  0  0  0  0  0  0  0
   36.6480   32.3590   40.4590 N   0  0  0  0  0  0  0  0  0  0  0  0
   36.5710   33.3380   40.8600 H   0  0  0  0  0  0  0  0  0  0  0  0
   35.8850   31.7100   40.1490 H   0  0  0  0  0  0  0  0  0  0  0  0
   40.2300   32.4820   36.9380 N   0  0  0  0  0  0  0  0  0  0  0  0
   39.9050   33.1430   36.2010 H   0  0  0  0  0  0  0  0  0  0  0  0
   39.9830   31.4980   37.2250 H   0  0  0  0  0  0  0  0  0  0  0  0
  1  2  2  0  0  0  0
  1  6  1  0  0  0  0
  2  3  1  0  0  0  0
  3  4  2  0  0  0  0
  3  9  1  0  0  0  0
  5  4  1  0  0  0  0
  5  8  1  0  0  0  0
  6  5  2  0  0  0  0
  7  1  1  0  0  0  0
  9 13  1  0  0  0  0
  9 10  2  0  0  0  0
 10 14  1  0  0  0  0
 10 11  1  0  0  0  0
 12 15  1  0  0  0  0
 12 11  1  0  0  0  0
 13 12  2  0  0  0  0
 15 16  1  0  0  0  0
 17 15  1  0  0  0  0
 18 20  1  0  0  0  0
 18  2  1  0  0  0  0
 19 18  1  0  0  0  0
M  END
>  <minimizedAffinity>
-4.1861167

$$$$

 OpenBabel03242522143D

 20 21  0  0  0  0  0  0  0  0999 V2000
   36.5690   24.5340   40.0850 C   0  0  0  0  0  0  0  0  0  0  0  0
   36.7480   25.9330   40.1350 C   0  0  0  0  0  0  0  0  0  0  0  0
   37.3900   26.4580   41.2270 C   0  0  0  0  0  0  0  0  0  0  0  0
   37.8140   25.5770   42.1960 N   0  0  0  0  0  0  0  0  0  0  0  0
   37.6280   24.2520   42.1180 C   0  0  0  0  0  0  0  0  0  0  0  0
   36.9990   23.7340   41.0490 N   0  0  0  0  0  0  0  0  0  0  0  0
   36.0670   24.0700   39.2420 H   0  0  0  0  0  0  0  0  0  0  0  0
   38.0470   23.7640   42.9990 H   0  0  0  0  0  0  0  0  0  0  0  0
   37.6200   27.9150   41.3620 C   0  0  0  0  0  0  0  0  0  0  0  0
   38.8610   28.4500   41.5780 C   0  0  0  0  0  0  0  0  0  0  0  0
   38.5100   30.2620   41.6550 S   0  0  0  0  0  0  0  0  0  0  0  0
   36.6750   29.9410   41.3690 C   0  0  0  0  0  0  0  0  0  0  0  0
   36.6730   28.8030   41.2890 N   0  0  0  0  0  0  0  0  0  0  0  0
   39.8170   27.8390   41.6710 H   0  0  0  0  0  0  0  0  0  0  0  0
   35.6900   30.9810   41.3010 N   0  0  0  0  0  0  0  0  0  0  0  0
   35.1800   30.9090   40.3730 H   0  0  0  0  0  0  0  0  0  0  0  0
   35.5500   31.6670   42.0800 H   0  0  0  0  0  0  0  0  0  0  0  0
   36.2450   26.6790   39.0450 N   0  0  0  0  0  0  0  0  0  0  0  0
   36.4200   26.2890   38.0950 H   0  0  0  0  0  0  0  0  0  0  0  0
   35.7630   27.5360   39.4260 H   0  0  0  0  0  0  0  0  0  0  0  0
  1  2  2  0  0  0  0
  1  6  1  0  0  0  0
  2  3  1  0  0  0  0
  3  9  1  0  0  0  0
  3  4  2  0  0  0  0
  5  4  1  0  0  0  0
  5  8  1  0  0  0  0
  6  5  2  0  0  0  0
  7  1  1  0  0  0  0
  9 10  2  0  0  0  0
 10 11  1  0  0  0  0
 10 14  1  0  0  0  0
 12 11  1  0  0  0  0
 13  9  1  0  0  0  0
 13 12  2  0  0  0  0
 15 12  1  0  0  0  0
 15 17  1  0  0  0  0
 16 15  1  0  0  0  0
 18 20  1  0  0  0  0
 18  2  1  0  0  0  0
 19 18  1  0  0  0  0
M  END
>  <minimizedAffinity>
-4.04243279

$$$$

 OpenBabel03242522143D

 20 21  0  0  0  0  0  0  0  0999 V2000
   39.5040   25.6130   42.2830 C   0  0  0  0  0  0  0  0  0  0  0  0
   38.8170   26.6850   41.6740 C   0  0  0  0  0  0  0  0  0  0  0  0
   37.5270   26.4680   41.2610 C   0  0  0  0  0  0  0  0  0  0  0  0
   36.9980   25.2140   41.4720 N   0  0  0  0  0  0  0  0  0  0  0  0
   37.6800   24.2160   42.0530 C   0  0  0  0  0  0  0  0  0  0  0  0
   38.9430   24.4260   42.4590 N   0  0  0  0  0  0  0  0  0  0  0  0
   40.5260   25.7350   42.6260 H   0  0  0  0  0  0  0  0  0  0  0  0
   37.0560   23.3230   42.1100 H   0  0  0  0  0  0  0  0  0  0  0  0
   36.7320   27.5370   40.6140 C   0  0  0  0  0  0  0  0  0  0  0  0
   36.1510   27.3830   39.3840 C   0  0  0  0  0  0  0  0  0  0  0  0
   35.3230   29.0140   39.1250 S   0  0  0  0  0  0  0  0  0  0  0  0
   35.9450   29.6210   40.7960 C   0  0  0  0  0  0  0  0  0  0  0  0
   36.5210   28.7030   41.1500 N   0  0  0  0  0  0  0  0  0  0  0  0
   36.2200   26.4380   38.7540 H   0  0  0  0  0  0  0  0  0  0  0  0
   35.6670   30.9270   41.3190 N   0  0  0  0  0  0  0  0  0  0  0  0
   35.1950   30.8230   42.2630 H   0  0  0  0  0  0  0  0  0  0  0  0
   35.9170   31.8010   40.7970 H   0  0  0  0  0  0  0  0  0  0  0  0
   39.5230   27.9030   41.5430 N   0  0  0  0  0  0  0  0  0  0  0  0
   40.0850   28.2050   42.3670 H   0  0  0  0  0  0  0  0  0  0  0  0
   39.3340   28.2910   40.5810 H   0  0  0  0  0  0  0  0  0  0  0  0
  1  6  1  0  0  0  0
  1  7  1  0  0  0  0
  2  1  2  0  0  0  0
  3  4  2  0  0  0  0
  3  2  1  0  0  0  0
  4  5  1  0  0  0  0
  5  8  1  0  0  0  0
  5  6  2  0  0  0  0
  9 13  1  0  0  0  0
  9  3  1  0  0  0  0
 10  9  2  0  0  0  0
 11 10  1  0  0  0  0
 11 12  1  0  0  0  0
 12 13  2  0  0  0  0
 12 15  1  0  0  0  0
 14 10  1  0  0  0  0
 15 16  1  0  0  0  0
 17 15  1  0  0  0  0
 18  2  1  0  0  0  0
 18 19  1  0  0  0  0
 20 18  1  0  0  0  0
M  END
>  <minimizedAffinity>
-3.9604497

$$$$

 OpenBabel03242522143D

 20 21  0  0  0  0  0  0  0  0999 V2000
   38.8700   25.3200   42.0840 C   0  0  0  0  0  0  0  0  0  0  0  0
   38.0780   26.3460   41.5260 C   0  0  0  0  0  0  0  0  0  0  0  0
   38.1480   27.5910   42.0950 C   0  0  0  0  0  0  0  0  0  0  0  0
   38.9900   27.7480   43.1730 N   0  0  0  0  0  0  0  0  0  0  0  0
   39.7290   26.7510   43.6790 C   0  0  0  0  0  0  0  0  0  0  0  0
   39.6630   25.5290   43.1240 N   0  0  0  0  0  0  0  0  0  0  0  0
   38.8500   24.3180   41.6690 H   0  0  0  0  0  0  0  0  0  0  0  0
   40.3130   27.1140   44.5270 H   0  0  0  0  0  0  0  0  0  0  0  0
   37.3510   28.7260   41.5730 C   0  0  0  0  0  0  0  0  0  0  0  0
   37.7970   30.0200   41.6070 C   0  0  0  0  0  0  0  0  0  0  0  0
   36.3980   30.9470   40.8350 S   0  0  0  0  0  0  0  0  0  0  0  0
   35.4340   29.3450   40.6040 C   0  0  0  0  0  0  0  0  0  0  0  0
   36.1700   28.5930   41.0450 N   0  0  0  0  0  0  0  0  0  0  0  0
   38.8030   30.3410   42.0290 H   0  0  0  0  0  0  0  0  0  0  0  0
   34.1300   29.2830   40.0090 N   0  0  0  0  0  0  0  0  0  0  0  0
   34.1640   28.6190   39.1810 H   0  0  0  0  0  0  0  0  0  0  0  0
   33.3210   29.8310   40.3830 H   0  0  0  0  0  0  0  0  0  0  0  0
   37.2730   25.9970   40.4160 N   0  0  0  0  0  0  0  0  0  0  0  0
   37.7170   25.3970   39.6910 H   0  0  0  0  0  0  0  0  0  0  0  0
   36.3240   26.4380   40.5470 H   0  0  0  0  0  0  0  0  0  0  0  0
  1  6  1  0  0  0  0
  2  1  2  0  0  0  0
  2  3  1  0  0  0  0
  3  4  2  0  0  0  0
  4  5  1  0  0  0  0
  5  8  1  0  0  0  0
  6  5  2  0  0  0  0
  7  1  1  0  0  0  0
  9 10  2  0  0  0  0
  9  3  1  0  0  0  0
 10 14  1  0  0  0  0
 11 10  1  0  0  0  0
 12 11  1  0  0  0  0
 12 13  2  0  0  0  0
 13  9  1  0  0  0  0
 15 17  1  0  0  0  0
 15 12  1  0  0  0  0
 16 15  1  0  0  0  0
 18 20  1  0  0  0  0
 18  2  1  0  0  0  0
 19 18  1  0  0  0  0
M  END
>  <minimizedAffinity>
-3.91605234

$$$$

 OpenBabel03242522143D

 20 21  0  0  0  0  0  0  0  0999 V2000
   36.0410   29.4450   41.2650 C   0  0  0  0  0  0  0  0  0  0  0  0
   36.9500   30.3710   40.7090 C   0  0  0  0  0  0  0  0  0  0  0  0
   38.2600   29.9860   40.5830 C   0  0  0  0  0  0  0  0  0  0  0  0
   38.5920   28.7200   41.0110 N   0  0  0  0  0  0  0  0  0  0  0  0
   37.7030   27.8650   41.5370 C   0  0  0  0  0  0  0  0  0  0  0  0
   36.4180   28.2390   41.6610 N   0  0  0  0  0  0  0  0  0  0  0  0
   34.9940   29.7020   41.3850 H   0  0  0  0  0  0  0  0  0  0  0  0
   38.1980   26.9290   41.8010 H   0  0  0  0  0  0  0  0  0  0  0  0
   39.2810   30.8940   40.0100 C   0  0  0  0  0  0  0  0  0  0  0  0
   40.3080   31.4120   40.7520 C   0  0  0  0  0  0  0  0  0  0  0  0
   41.2170   32.4400   39.5160 S   0  0  0  0  0  0  0  0  0  0  0  0
   39.9850   31.9570   38.1740 C   0  0  0  0  0  0  0  0  0  0  0  0
   39.2890   31.2760   38.7670 N   0  0  0  0  0  0  0  0  0  0  0  0
   40.4750   31.1980   41.8570 H   0  0  0  0  0  0  0  0  0  0  0  0
   40.0650   32.4220   36.8200 N   0  0  0  0  0  0  0  0  0  0  0  0
   40.1070   31.5830   36.1720 H   0  0  0  0  0  0  0  0  0  0  0  0
   40.0740   33.4420   36.5820 H   0  0  0  0  0  0  0  0  0  0  0  0
   36.4260   31.6260   40.3240 N   0  0  0  0  0  0  0  0  0  0  0  0
   35.5120   31.6140   39.8250 H   0  0  0  0  0  0  0  0  0  0  0  0
   37.1000   32.3740   40.6370 H   0  0  0  0  0  0  0  0  0  0  0  0
  1  7  1  0  0  0  0
  1  6  1  0  0  0  0
  2  1  2  0  0  0  0
  3  2  1  0  0  0  0
  3  4  2  0  0  0  0
  4  5  1  0  0  0  0
  5  6  2  0  0  0  0
  5  8  1  0  0  0  0
  9  3  1  0  0  0  0
  9 10  2  0  0  0  0
 10 14  1  0  0  0  0
 11 10  1  0  0  0  0
 12 13  2  0  0  0  0
 12 11  1  0  0  0  0
 13  9  1  0  0  0  0
 15 12  1  0  0  0  0
 16 15  1  0  0  0  0
 17 15  1  0  0  0  0
 18 20  1  0  0  0  0
 18  2  1  0  0  0  0
 19 18  1  0  0  0  0
M  END
>  <minimizedAffinity>
-3.85280108

$$$$
