
 OpenBabel03252509343D

 37 38  0  0  1  0  0  0  0  0999 V2000
   37.4570   28.1130   41.8430 C   0  0  1  0  0  0  0  0  0  0  0  0
   37.7680   28.2140   43.3240 C   0  0  0  0  0  0  0  0  0  0  0  0
   39.2130   27.7530   43.3330 C   0  0  0  0  0  0  0  0  0  0  0  0
   39.3590   26.8040   42.1620 C   0  0  0  0  0  0  0  0  0  0  0  0
   37.9730   26.7220   41.5470 C   0  0  1  0  0  0  0  0  0  0  0  0
   38.0750   28.8320   41.3150 H   0  0  0  0  0  0  0  0  0  0  0  0
   37.1020   27.6120   43.9600 H   0  0  0  0  0  0  0  0  0  0  0  0
   37.7300   29.2390   43.7210 H   0  0  0  0  0  0  0  0  0  0  0  0
   39.8710   28.6220   43.2150 H   0  0  0  0  0  0  0  0  0  0  0  0
   39.3890   27.2660   44.3020 H   0  0  0  0  0  0  0  0  0  0  0  0
   39.6430   25.8100   42.5600 H   0  0  0  0  0  0  0  0  0  0  0  0
   40.0990   27.2240   41.4540 H   0  0  0  0  0  0  0  0  0  0  0  0
   38.1230   26.5690   40.4550 H   0  0  0  0  0  0  0  0  0  0  0  0
   37.1440   25.6360   42.1700 C   0  0  0  0  0  0  0  0  0  0  0  0
   36.9480   25.9610   43.2130 H   0  0  0  0  0  0  0  0  0  0  0  0
   36.1720   25.5910   41.6540 H   0  0  0  0  0  0  0  0  0  0  0  0
   37.8050   24.3700   42.2220 N   0  0  0  0  0  0  0  0  0  0  0  0
   37.4050   23.7590   41.4750 H   0  0  0  0  0  0  0  0  0  0  0  0
   38.8300   24.3860   42.1980 H   0  0  0  0  0  0  0  0  0  0  0  0
   36.0820   28.2200   41.6000 O   0  0  0  0  0  0  0  0  0  0  0  0
   34.6380   29.1830   39.6830 O   0  0  0  0  0  0  0  0  0  0  0  0
   35.8060   29.5180   40.5710 P   0  0  1  0  0  0  0  0  0  0  0  0
   35.5530   30.9330   41.4380 O   0  0  0  0  0  0  0  0  0  0  0  0
   35.8340   30.9330   42.3630 H   0  0  0  0  0  0  0  0  0  0  0  0
   37.1800   29.7740   39.6330 O   0  0  0  0  0  0  0  0  0  0  0  0
   37.0060   30.9120   38.9050 C   0  0  0  0  0  0  0  0  0  0  0  0
   36.0070   31.3240   39.2040 H   0  0  0  0  0  0  0  0  0  0  0  0
   36.9770   30.8400   37.8250 H   0  0  0  0  0  0  0  0  0  0  0  0
   38.4280   34.1570   40.0400 C   0  0  0  0  0  0  0  0  0  0  0  0
   37.4800   33.1740   39.7190 C   0  0  0  0  0  0  0  0  0  0  0  0
   37.9800   31.9610   39.2490 C   0  0  0  0  0  0  0  0  0  0  0  0
   39.3350   31.7940   39.1260 N   0  0  0  0  0  0  0  0  0  0  0  0
   40.2070   32.7660   39.4460 C   0  0  0  0  0  0  0  0  0  0  0  0
   39.7580   33.9320   39.8960 N   0  0  0  0  0  0  0  0  0  0  0  0
   38.1230   35.1260   40.4110 H   0  0  0  0  0  0  0  0  0  0  0  0
   36.4350   33.4090   39.8530 H   0  0  0  0  0  0  0  0  0  0  0  0
   41.2380   32.4780   39.2920 H   0  0  0  0  0  0  0  0  0  0  0  0
  1  6  1  6  0  0  0
  1  2  1  0  0  0  0
  2  3  1  0  0  0  0
  2  8  1  0  0  0  0
  2  7  1  0  0  0  0
  3 10  1  0  0  0  0
  4 11  1  0  0  0  0
  4  3  1  0  0  0  0
  5 13  1  6  0  0  0
  5  1  1  0  0  0  0
  5  4  1  0  0  0  0
  5 14  1  0  0  0  0
  9  3  1  0  0  0  0
 12  4  1  0  0  0  0
 14 17  1  0  0  0  0
 14 15  1  0  0  0  0
 16 14  1  0  0  0  0
 18 17  1  0  0  0  0
 19 17  1  0  0  0  0
 20  1  1  0  0  0  0
 22 21  2  6  0  0  0
 22 23  1  0  0  0  0
 22 20  1  0  0  0  0
 23 24  1  0  0  0  0
 25 22  1  0  0  0  0
 26 27  1  0  0  0  0
 26 31  1  0  0  0  0
 26 25  1  0  0  0  0
 28 26  1  0  0  0  0
 29 35  1  0  0  0  0
 30 36  1  0  0  0  0
 30 29  2  0  0  0  0
 31 30  1  0  0  0  0
 32 31  2  0  0  0  0
 32 33  1  0  0  0  0
 33 34  2  0  0  0  0
 34 29  1  0  0  0  0
 37 33  1  0  0  0  0
M  END
>  <minimizedAffinity>
-5.11660004

$$$$

 OpenBabel03252509343D

 37 38  0  0  1  0  0  0  0  0999 V2000
   38.5980   30.4620   39.2140 C   0  0  1  0  0  0  0  0  0  0  0  0
   39.4170   29.5460   38.3260 C   0  0  0  0  0  0  0  0  0  0  0  0
   40.5750   30.4620   37.9790 C   0  0  0  0  0  0  0  0  0  0  0  0
   40.0250   31.8720   38.0260 C   0  0  0  0  0  0  0  0  0  0  0  0
   38.5510   31.7080   38.3570 C   0  0  1  0  0  0  0  0  0  0  0  0
   39.1760   30.6780   40.1070 H   0  0  0  0  0  0  0  0  0  0  0  0
   38.8690   29.1680   37.4510 H   0  0  0  0  0  0  0  0  0  0  0  0
   39.8190   28.6630   38.8430 H   0  0  0  0  0  0  0  0  0  0  0  0
   41.3740   30.3320   38.7180 H   0  0  0  0  0  0  0  0  0  0  0  0
   40.9250   30.1730   36.9790 H   0  0  0  0  0  0  0  0  0  0  0  0
   40.1250   32.3140   37.0150 H   0  0  0  0  0  0  0  0  0  0  0  0
   40.5620   32.4390   38.8110 H   0  0  0  0  0  0  0  0  0  0  0  0
   38.2630   32.6010   38.9550 H   0  0  0  0  0  0  0  0  0  0  0  0
   37.7110   31.5480   37.1220 C   0  0  0  0  0  0  0  0  0  0  0  0
   37.8020   30.4820   36.8270 H   0  0  0  0  0  0  0  0  0  0  0  0
   36.6560   31.7250   37.3860 H   0  0  0  0  0  0  0  0  0  0  0  0
   38.1510   32.3470   36.0230 N   0  0  0  0  0  0  0  0  0  0  0  0
   37.5050   33.1630   35.9280 H   0  0  0  0  0  0  0  0  0  0  0  0
   39.1350   32.6360   36.0300 H   0  0  0  0  0  0  0  0  0  0  0  0
   37.3190   29.9420   39.4460 O   0  0  0  0  0  0  0  0  0  0  0  0
   38.2130   30.5150   41.8040 O   0  0  0  0  0  0  0  0  0  0  0  0
   36.9840   30.0200   41.0900 P   0  0  1  0  0  0  0  0  0  0  0  0
   35.6480   30.9920   41.3890 O   0  0  0  0  0  0  0  0  0  0  0  0
   35.0730   31.1840   40.6370 H   0  0  0  0  0  0  0  0  0  0  0  0
   36.5870   28.4810   41.6410 O   0  0  0  0  0  0  0  0  0  0  0  0
   37.1950   28.2760   42.8420 C   0  0  0  0  0  0  0  0  0  0  0  0
   36.3710   28.1270   43.5870 H   0  0  0  0  0  0  0  0  0  0  0  0
   37.8170   29.0620   43.2520 H   0  0  0  0  0  0  0  0  0  0  0  0
   39.8660   25.8240   43.6740 C   0  0  0  0  0  0  0  0  0  0  0  0
   39.1350   27.0210   43.6590 C   0  0  0  0  0  0  0  0  0  0  0  0
   37.9810   27.0310   42.8760 C   0  0  0  0  0  0  0  0  0  0  0  0
   37.6290   25.9040   42.1810 N   0  0  0  0  0  0  0  0  0  0  0  0
   38.3630   24.7780   42.2260 C   0  0  0  0  0  0  0  0  0  0  0  0
   39.4670   24.7400   42.9640 N   0  0  0  0  0  0  0  0  0  0  0  0
   40.7730   25.7330   44.2560 H   0  0  0  0  0  0  0  0  0  0  0  0
   39.5000   27.8510   44.2430 H   0  0  0  0  0  0  0  0  0  0  0  0
   37.9510   23.9800   41.6230 H   0  0  0  0  0  0  0  0  0  0  0  0
  1 20  1  0  0  0  0
  1  6  1  1  0  0  0
  2  8  1  0  0  0  0
  2  1  1  0  0  0  0
  3  4  1  0  0  0  0
  3  2  1  0  0  0  0
  3  9  1  0  0  0  0
  4  5  1  0  0  0  0
  4 12  1  0  0  0  0
  5 13  1  1  0  0  0
  5  1  1  0  0  0  0
  7  2  1  0  0  0  0
 10  3  1  0  0  0  0
 11  4  1  0  0  0  0
 14 16  1  0  0  0  0
 14  5  1  0  0  0  0
 15 14  1  0  0  0  0
 17 19  1  0  0  0  0
 17 14  1  0  0  0  0
 18 17  1  0  0  0  0
 20 22  1  0  0  0  0
 22 23  1  0  0  0  0
 22 25  1  0  0  0  0
 22 21  2  1  0  0  0
 24 23  1  0  0  0  0
 25 26  1  0  0  0  0
 26 31  1  0  0  0  0
 26 28  1  0  0  0  0
 26 27  1  0  0  0  0
 29 35  1  0  0  0  0
 30 29  1  0  0  0  0
 30 36  1  0  0  0  0
 31 30  2  0  0  0  0
 32 33  2  0  0  0  0
 32 31  1  0  0  0  0
 33 34  1  0  0  0  0
 34 29  2  0  0  0  0
 37 33  1  0  0  0  0
M  END
>  <minimizedAffinity>
-5.08136845

$$$$

 OpenBabel03252509343D

 37 38  0  0  1  0  0  0  0  0999 V2000
   37.3080   27.7580   40.8360 C   0  0  1  0  0  0  0  0  0  0  0  0
   38.5710   26.9230   40.7450 C   0  0  0  0  0  0  0  0  0  0  0  0
   38.0520   25.5860   41.2390 C   0  0  0  0  0  0  0  0  0  0  0  0
   36.9140   25.9000   42.1880 C   0  0  0  0  0  0  0  0  0  0  0  0
   36.8520   27.4170   42.2370 C   0  0  1  0  0  0  0  0  0  0  0  0
   36.5850   27.3610   40.1300 H   0  0  0  0  0  0  0  0  0  0  0  0
   39.4100   27.3220   41.3330 H   0  0  0  0  0  0  0  0  0  0  0  0
   38.9470   26.7900   39.7210 H   0  0  0  0  0  0  0  0  0  0  0  0
   37.6950   24.9980   40.3850 H   0  0  0  0  0  0  0  0  0  0  0  0
   38.8920   25.0780   41.7320 H   0  0  0  0  0  0  0  0  0  0  0  0
   37.1860   25.5120   43.1900 H   0  0  0  0  0  0  0  0  0  0  0  0
   35.9810   25.4630   41.7840 H   0  0  0  0  0  0  0  0  0  0  0  0
   35.7820   27.6810   42.3910 H   0  0  0  0  0  0  0  0  0  0  0  0
   37.7420   27.9830   43.3070 C   0  0  0  0  0  0  0  0  0  0  0  0
   37.5990   27.3360   44.1970 H   0  0  0  0  0  0  0  0  0  0  0  0
   38.7910   27.8750   42.9880 H   0  0  0  0  0  0  0  0  0  0  0  0
   37.4090   29.3210   43.6790 N   0  0  0  0  0  0  0  0  0  0  0  0
   38.1100   29.9670   43.2500 H   0  0  0  0  0  0  0  0  0  0  0  0
   36.4460   29.6230   43.4970 H   0  0  0  0  0  0  0  0  0  0  0  0
   37.5850   29.1240   40.6980 O   0  0  0  0  0  0  0  0  0  0  0  0
   35.1740   28.8940   39.7890 O   0  0  0  0  0  0  0  0  0  0  0  0
   36.1870   29.9210   40.2170 P   0  0  1  0  0  0  0  0  0  0  0  0
   35.6030   30.9090   41.4430 O   0  0  0  0  0  0  0  0  0  0  0  0
   36.2170   31.1240   42.1570 H   0  0  0  0  0  0  0  0  0  0  0  0
   36.5530   30.9340   38.9230 O   0  0  0  0  0  0  0  0  0  0  0  0
   37.0220   32.1150   39.4120 C   0  0  0  0  0  0  0  0  0  0  0  0
   37.0610   31.9970   40.5270 H   0  0  0  0  0  0  0  0  0  0  0  0
   36.4470   33.0160   39.2370 H   0  0  0  0  0  0  0  0  0  0  0  0
   40.4570   33.5410   39.3530 C   0  0  0  0  0  0  0  0  0  0  0  0
   39.1400   33.2950   39.7670 C   0  0  0  0  0  0  0  0  0  0  0  0
   38.4080   32.3910   38.9990 C   0  0  0  0  0  0  0  0  0  0  0  0
   38.9950   31.8040   37.9080 N   0  0  0  0  0  0  0  0  0  0  0  0
   40.2620   32.0720   37.5490 C   0  0  0  0  0  0  0  0  0  0  0  0
   40.9830   32.9300   38.2620 N   0  0  0  0  0  0  0  0  0  0  0  0
   41.0930   34.2300   39.8940 H   0  0  0  0  0  0  0  0  0  0  0  0
   38.7740   33.8110   40.6410 H   0  0  0  0  0  0  0  0  0  0  0  0
   40.5760   31.5290   36.6670 H   0  0  0  0  0  0  0  0  0  0  0  0
  1  6  1  6  0  0  0
  1  5  1  0  0  0  0
  2  1  1  0  0  0  0
  2  3  1  0  0  0  0
  2  7  1  0  0  0  0
  3 10  1  0  0  0  0
  3  4  1  0  0  0  0
  4  5  1  0  0  0  0
  4 11  1  0  0  0  0
  5 13  1  1  0  0  0
  5 14  1  0  0  0  0
  8  2  1  0  0  0  0
  9  3  1  0  0  0  0
 12  4  1  0  0  0  0
 14 17  1  0  0  0  0
 14 15  1  0  0  0  0
 16 14  1  0  0  0  0
 18 17  1  0  0  0  0
 19 17  1  0  0  0  0
 20  1  1  0  0  0  0
 22 21  2  6  0  0  0
 22 20  1  0  0  0  0
 22 23  1  0  0  0  0
 23 24  1  0  0  0  0
 25 26  1  0  0  0  0
 25 22  1  0  0  0  0
 26 27  1  0  0  0  0
 28 26  1  0  0  0  0
 29 30  1  0  0  0  0
 29 35  1  0  0  0  0
 30 36  1  0  0  0  0
 31 26  1  0  0  0  0
 31 30  2  0  0  0  0
 32 31  1  0  0  0  0
 33 32  2  0  0  0  0
 33 34  1  0  0  0  0
 34 29  2  0  0  0  0
 37 33  1  0  0  0  0
M  END
>  <minimizedAffinity>
-5.04343128

$$$$

 OpenBabel03252509343D

 37 38  0  0  1  0  0  0  0  0999 V2000
   36.8040   27.9140   41.2810 C   0  0  1  0  0  0  0  0  0  0  0  0
   37.6640   26.6710   41.1630 C   0  0  0  0  0  0  0  0  0  0  0  0
   37.1000   25.8390   42.3000 C   0  0  0  0  0  0  0  0  0  0  0  0
   36.5920   26.8240   43.3310 C   0  0  0  0  0  0  0  0  0  0  0  0
   36.9240   28.1930   42.7630 C   0  0  1  0  0  0  0  0  0  0  0  0
   35.7770   27.6410   41.0620 H   0  0  0  0  0  0  0  0  0  0  0  0
   38.7430   26.8660   41.2450 H   0  0  0  0  0  0  0  0  0  0  0  0
   37.5210   26.1150   40.2250 H   0  0  0  0  0  0  0  0  0  0  0  0
   36.2820   25.2150   41.9210 H   0  0  0  0  0  0  0  0  0  0  0  0
   37.9200   25.2110   42.6760 H   0  0  0  0  0  0  0  0  0  0  0  0
   37.1640   26.6670   44.2670 H   0  0  0  0  0  0  0  0  0  0  0  0
   35.5000   26.6830   43.4510 H   0  0  0  0  0  0  0  0  0  0  0  0
   36.1220   28.8800   43.1140 H   0  0  0  0  0  0  0  0  0  0  0  0
   38.2940   28.6550   43.1720 C   0  0  0  0  0  0  0  0  0  0  0  0
   38.3810   28.4280   44.2560 H   0  0  0  0  0  0  0  0  0  0  0  0
   39.0450   28.0420   42.6490 H   0  0  0  0  0  0  0  0  0  0  0  0
   38.5010   30.0570   42.9990 N   0  0  0  0  0  0  0  0  0  0  0  0
   39.0930   30.2010   42.1500 H   0  0  0  0  0  0  0  0  0  0  0  0
   37.6630   30.6470   42.9870 H   0  0  0  0  0  0  0  0  0  0  0  0
   37.3160   28.9660   40.5120 O   0  0  0  0  0  0  0  0  0  0  0  0
   34.8730   29.2320   39.7050 O   0  0  0  0  0  0  0  0  0  0  0  0
   36.0710   30.0320   40.1420 P   0  0  1  0  0  0  0  0  0  0  0  0
   35.7220   31.0290   41.4460 O   0  0  0  0  0  0  0  0  0  0  0  0
   36.3900   31.0850   42.1420 H   0  0  0  0  0  0  0  0  0  0  0  0
   36.5690   31.0410   38.8910 O   0  0  0  0  0  0  0  0  0  0  0  0
   37.0580   32.1930   39.4270 C   0  0  0  0  0  0  0  0  0  0  0  0
   36.6480   32.2500   40.4690 H   0  0  0  0  0  0  0  0  0  0  0  0
   36.7970   33.1360   38.9620 H   0  0  0  0  0  0  0  0  0  0  0  0
   40.6810   31.9970   38.6080 C   0  0  0  0  0  0  0  0  0  0  0  0
   39.2900   32.0140   38.4320 C   0  0  0  0  0  0  0  0  0  0  0  0
   38.5220   32.1720   39.5840 C   0  0  0  0  0  0  0  0  0  0  0  0
   39.1470   32.2980   40.7980 N   0  0  0  0  0  0  0  0  0  0  0  0
   40.4860   32.2750   40.9180 C   0  0  0  0  0  0  0  0  0  0  0  0
   41.2420   32.1260   39.8360 N   0  0  0  0  0  0  0  0  0  0  0  0
   41.3490   31.8790   37.7650 H   0  0  0  0  0  0  0  0  0  0  0  0
   38.9000   31.9070   37.4320 H   0  0  0  0  0  0  0  0  0  0  0  0
   40.8210   32.3860   41.9400 H   0  0  0  0  0  0  0  0  0  0  0  0
  1  6  1  6  0  0  0
  1  5  1  0  0  0  0
  2  7  1  0  0  0  0
  2  1  1  0  0  0  0
  2  3  1  0  0  0  0
  3 10  1  0  0  0  0
  3  4  1  0  0  0  0
  4 12  1  0  0  0  0
  4 11  1  0  0  0  0
  5 13  1  1  0  0  0
  5 14  1  0  0  0  0
  5  4  1  0  0  0  0
  8  2  1  0  0  0  0
  9  3  1  0  0  0  0
 14 15  1  0  0  0  0
 16 14  1  0  0  0  0
 17 14  1  0  0  0  0
 18 17  1  0  0  0  0
 19 17  1  0  0  0  0
 20  1  1  0  0  0  0
 22 21  2  6  0  0  0
 22 20  1  0  0  0  0
 22 23  1  0  0  0  0
 23 24  1  0  0  0  0
 25 26  1  0  0  0  0
 25 22  1  0  0  0  0
 26 31  1  0  0  0  0
 26 27  1  0  0  0  0
 28 26  1  0  0  0  0
 29 34  1  0  0  0  0
 30 29  2  0  0  0  0
 30 31  1  0  0  0  0
 31 32  2  0  0  0  0
 32 33  1  0  0  0  0
 33 37  1  0  0  0  0
 34 33  2  0  0  0  0
 35 29  1  0  0  0  0
 36 30  1  0  0  0  0
M  END
>  <minimizedAffinity>
-4.8453331

$$$$

 OpenBabel03252509343D

 37 38  0  0  1  0  0  0  0  0999 V2000
   37.7130   30.4670   39.5860 C   0  0  1  0  0  0  0  0  0  0  0  0
   36.4060   30.0830   38.9190 C   0  0  0  0  0  0  0  0  0  0  0  0
   36.7850   30.2420   37.4590 C   0  0  0  0  0  0  0  0  0  0  0  0
   37.8580   31.3090   37.4160 C   0  0  0  0  0  0  0  0  0  0  0  0
   38.0250   31.7570   38.8580 C   0  0  1  0  0  0  0  0  0  0  0  0
   38.4620   29.7290   39.3180 H   0  0  0  0  0  0  0  0  0  0  0  0
   35.5510   30.7010   39.2290 H   0  0  0  0  0  0  0  0  0  0  0  0
   36.1080   29.0380   39.0870 H   0  0  0  0  0  0  0  0  0  0  0  0
   37.1690   29.2880   37.0790 H   0  0  0  0  0  0  0  0  0  0  0  0
   35.8720   30.5310   36.9200 H   0  0  0  0  0  0  0  0  0  0  0  0
   37.4770   32.1550   36.8120 H   0  0  0  0  0  0  0  0  0  0  0  0
   38.7890   30.8630   37.0140 H   0  0  0  0  0  0  0  0  0  0  0  0
   39.0950   32.0410   38.9760 H   0  0  0  0  0  0  0  0  0  0  0  0
   37.0910   32.8790   39.2110 C   0  0  0  0  0  0  0  0  0  0  0  0
   37.1230   33.5830   38.3530 H   0  0  0  0  0  0  0  0  0  0  0  0
   36.0660   32.4810   39.2690 H   0  0  0  0  0  0  0  0  0  0  0  0
   37.4770   33.5980   40.3830 N   0  0  0  0  0  0  0  0  0  0  0  0
   36.8540   33.3050   41.1700 H   0  0  0  0  0  0  0  0  0  0  0  0
   38.4680   33.5560   40.6420 H   0  0  0  0  0  0  0  0  0  0  0  0
   37.5460   30.6740   40.9600 O   0  0  0  0  0  0  0  0  0  0  0  0
   39.9100   29.6260   40.8740 O   0  0  0  0  0  0  0  0  0  0  0  0
   39.0330   30.5050   41.7250 P   0  0  1  0  0  0  0  0  0  0  0  0
   39.7350   32.0020   42.0180 O   0  0  0  0  0  0  0  0  0  0  0  0
   39.1530   32.7710   41.9730 H   0  0  0  0  0  0  0  0  0  0  0  0
   38.7960   29.7870   43.2280 O   0  0  0  0  0  0  0  0  0  0  0  0
   37.7440   28.9260   43.1410 C   0  0  0  0  0  0  0  0  0  0  0  0
   37.2180   29.1730   42.1820 H   0  0  0  0  0  0  0  0  0  0  0  0
   36.9790   28.9590   43.9070 H   0  0  0  0  0  0  0  0  0  0  0  0
   37.7550   25.3320   42.1800 C   0  0  0  0  0  0  0  0  0  0  0  0
   37.3280   26.6630   42.2970 C   0  0  0  0  0  0  0  0  0  0  0  0
   38.1680   27.5220   43.0030 C   0  0  0  0  0  0  0  0  0  0  0  0
   39.3350   27.0380   43.5350 N   0  0  0  0  0  0  0  0  0  0  0  0
   39.7020   25.7520   43.3980 C   0  0  0  0  0  0  0  0  0  0  0  0
   38.9210   24.9110   42.7300 N   0  0  0  0  0  0  0  0  0  0  0  0
   37.1610   24.6010   41.6470 H   0  0  0  0  0  0  0  0  0  0  0  0
   36.3920   26.9420   41.8400 H   0  0  0  0  0  0  0  0  0  0  0  0
   40.6470   25.5280   43.8740 H   0  0  0  0  0  0  0  0  0  0  0  0
  1  6  1  6  0  0  0
  1 20  1  0  0  0  0
  2  8  1  0  0  0  0
  2  7  1  0  0  0  0
  2  1  1  0  0  0  0
  3  2  1  0  0  0  0
  4  3  1  0  0  0  0
  4  5  1  0  0  0  0
  5 13  1  1  0  0  0
  5 14  1  0  0  0  0
  5  1  1  0  0  0  0
  9  3  1  0  0  0  0
 10  3  1  0  0  0  0
 11  4  1  0  0  0  0
 12  4  1  0  0  0  0
 14 16  1  0  0  0  0
 14 17  1  0  0  0  0
 15 14  1  0  0  0  0
 17 19  1  0  0  0  0
 17 18  1  0  0  0  0
 20 22  1  0  0  0  0
 22 21  2  6  0  0  0
 22 23  1  0  0  0  0
 22 25  1  0  0  0  0
 24 23  1  0  0  0  0
 26 25  1  0  0  0  0
 26 28  1  0  0  0  0
 27 26  1  0  0  0  0
 29 30  2  0  0  0  0
 29 34  1  0  0  0  0
 30 31  1  0  0  0  0
 31 26  1  0  0  0  0
 31 32  2  0  0  0  0
 33 32  1  0  0  0  0
 33 37  1  0  0  0  0
 34 33  2  0  0  0  0
 35 29  1  0  0  0  0
 36 30  1  0  0  0  0
M  END
>  <minimizedAffinity>
-4.81601334

$$$$

 OpenBabel03252509343D

 37 38  0  0  1  0  0  0  0  0999 V2000
   37.8750   31.9900   40.5430 C   0  0  1  0  0  0  0  0  0  0  0  0
   39.1700   32.7750   40.4530 C   0  0  0  0  0  0  0  0  0  0  0  0
   38.6310   34.1610   40.1540 C   0  0  0  0  0  0  0  0  0  0  0  0
   37.3260   33.9550   39.4140 C   0  0  0  0  0  0  0  0  0  0  0  0
   37.1860   32.4490   39.2770 C   0  0  1  0  0  0  0  0  0  0  0  0
   37.3130   32.3570   41.3960 H   0  0  0  0  0  0  0  0  0  0  0  0
   39.8690   32.3940   39.6940 H   0  0  0  0  0  0  0  0  0  0  0  0
   39.7330   32.8190   41.3960 H   0  0  0  0  0  0  0  0  0  0  0  0
   38.4640   34.6950   41.0970 H   0  0  0  0  0  0  0  0  0  0  0  0
   39.3890   34.6770   39.5490 H   0  0  0  0  0  0  0  0  0  0  0  0
   37.4280   34.4070   38.4080 H   0  0  0  0  0  0  0  0  0  0  0  0
   36.5040   34.3920   40.0130 H   0  0  0  0  0  0  0  0  0  0  0  0
   36.0950   32.2320   39.3070 H   0  0  0  0  0  0  0  0  0  0  0  0
   37.8390   31.9350   38.0250 C   0  0  0  0  0  0  0  0  0  0  0  0
   37.5850   32.6630   37.2270 H   0  0  0  0  0  0  0  0  0  0  0  0
   38.9320   31.9640   38.1580 H   0  0  0  0  0  0  0  0  0  0  0  0
   37.3640   30.6510   37.6170 N   0  0  0  0  0  0  0  0  0  0  0  0
   38.0860   29.9380   37.8630 H   0  0  0  0  0  0  0  0  0  0  0  0
   36.4300   30.3820   37.9450 H   0  0  0  0  0  0  0  0  0  0  0  0
   38.1100   30.6100   40.5360 O   0  0  0  0  0  0  0  0  0  0  0  0
   37.4610   29.4510   42.7550 O   0  0  0  0  0  0  0  0  0  0  0  0
   36.9010   29.8430   41.4140 P   0  0  1  0  0  0  0  0  0  0  0  0
   35.5460   30.8240   41.5590 O   0  0  0  0  0  0  0  0  0  0  0  0
   35.4810   31.5690   40.9480 H   0  0  0  0  0  0  0  0  0  0  0  0
   36.4070   28.4690   40.5790 O   0  0  0  0  0  0  0  0  0  0  0  0
   37.5110   27.8050   40.1380 C   0  0  0  0  0  0  0  0  0  0  0  0
   38.3780   28.2270   40.7100 H   0  0  0  0  0  0  0  0  0  0  0  0
   37.7860   27.8880   39.0930 H   0  0  0  0  0  0  0  0  0  0  0  0
   37.0920   24.6470   42.0580 C   0  0  0  0  0  0  0  0  0  0  0  0
   37.1100   26.0190   41.7660 C   0  0  0  0  0  0  0  0  0  0  0  0
   37.4840   26.3710   40.4710 C   0  0  0  0  0  0  0  0  0  0  0  0
   37.8070   25.3870   39.5720 N   0  0  0  0  0  0  0  0  0  0  0  0
   37.7760   24.0830   39.8990 C   0  0  0  0  0  0  0  0  0  0  0  0
   37.4230   23.7190   41.1260 N   0  0  0  0  0  0  0  0  0  0  0  0
   36.8130   24.2890   43.0410 H   0  0  0  0  0  0  0  0  0  0  0  0
   36.8370   26.7110   42.5470 H   0  0  0  0  0  0  0  0  0  0  0  0
   38.0580   23.4350   39.0800 H   0  0  0  0  0  0  0  0  0  0  0  0
  1  6  1  1  0  0  0
  2  1  1  0  0  0  0
  2  8  1  0  0  0  0
  3  2  1  0  0  0  0
  3  9  1  0  0  0  0
  4 12  1  0  0  0  0
  4  3  1  0  0  0  0
  5 13  1  1  0  0  0
  5  4  1  0  0  0  0
  5  1  1  0  0  0  0
  7  2  1  0  0  0  0
 10  3  1  0  0  0  0
 11  4  1  0  0  0  0
 14 16  1  0  0  0  0
 14  5  1  0  0  0  0
 15 14  1  0  0  0  0
 17 18  1  0  0  0  0
 17 19  1  0  0  0  0
 17 14  1  0  0  0  0
 20  1  1  0  0  0  0
 20 22  1  0  0  0  0
 22 23  1  0  0  0  0
 22 21  2  1  0  0  0
 24 23  1  0  0  0  0
 25 22  1  0  0  0  0
 26 31  1  0  0  0  0
 26 25  1  0  0  0  0
 26 27  1  0  0  0  0
 28 26  1  0  0  0  0
 29 35  1  0  0  0  0
 30 29  1  0  0  0  0
 30 36  1  0  0  0  0
 31 30  2  0  0  0  0
 32 33  2  0  0  0  0
 32 31  1  0  0  0  0
 33 34  1  0  0  0  0
 34 29  2  0  0  0  0
 37 33  1  0  0  0  0
M  END
>  <minimizedAffinity>
-4.81347179

$$$$

 OpenBabel03252509343D

 37 38  0  0  1  0  0  0  0  0999 V2000
   38.3320   30.6180   40.4300 C   0  0  1  0  0  0  0  0  0  0  0  0
   38.5600   30.6070   38.9300 C   0  0  0  0  0  0  0  0  0  0  0  0
   38.1580   32.0270   38.5820 C   0  0  0  0  0  0  0  0  0  0  0  0
   37.1270   32.4380   39.6120 C   0  0  0  0  0  0  0  0  0  0  0  0
   36.9430   31.2140   40.4930 C   0  0  1  0  0  0  0  0  0  0  0  0
   39.0310   31.3170   40.8770 H   0  0  0  0  0  0  0  0  0  0  0  0
   37.9850   29.8360   38.3980 H   0  0  0  0  0  0  0  0  0  0  0  0
   39.6100   30.4650   38.6390 H   0  0  0  0  0  0  0  0  0  0  0  0
   39.0400   32.6760   38.6330 H   0  0  0  0  0  0  0  0  0  0  0  0
   37.7550   32.0060   37.5600 H   0  0  0  0  0  0  0  0  0  0  0  0
   36.1780   32.6530   39.0820 H   0  0  0  0  0  0  0  0  0  0  0  0
   37.5190   33.3020   40.1840 H   0  0  0  0  0  0  0  0  0  0  0  0
   36.7110   31.5950   41.5130 H   0  0  0  0  0  0  0  0  0  0  0  0
   35.8770   30.2970   39.9670 C   0  0  0  0  0  0  0  0  0  0  0  0
   35.0970   30.9550   39.5290 H   0  0  0  0  0  0  0  0  0  0  0  0
   36.2990   29.6990   39.1440 H   0  0  0  0  0  0  0  0  0  0  0  0
   35.2600   29.4970   40.9770 N   0  0  0  0  0  0  0  0  0  0  0  0
   35.6360   28.5250   40.9020 H   0  0  0  0  0  0  0  0  0  0  0  0
   35.3050   29.8540   41.9370 H   0  0  0  0  0  0  0  0  0  0  0  0
   38.3650   29.3230   40.9620 O   0  0  0  0  0  0  0  0  0  0  0  0
   39.4330   30.6780   42.8890 O   0  0  0  0  0  0  0  0  0  0  0  0
   38.6600   29.4160   42.6130 P   0  0  1  0  0  0  0  0  0  0  0  0
   37.2280   29.3500   43.4880 O   0  0  0  0  0  0  0  0  0  0  0  0
   36.4500   29.0180   43.0220 H   0  0  0  0  0  0  0  0  0  0  0  0
   39.5680   28.0790   43.0830 O   0  0  0  0  0  0  0  0  0  0  0  0
   38.7250   27.1330   43.5830 C   0  0  0  0  0  0  0  0  0  0  0  0
   37.7330   27.6390   43.7160 H   0  0  0  0  0  0  0  0  0  0  0  0
   38.9530   26.6880   44.5440 H   0  0  0  0  0  0  0  0  0  0  0  0
   36.9440   24.6600   41.4500 C   0  0  0  0  0  0  0  0  0  0  0  0
   37.1520   25.7120   42.3540 C   0  0  0  0  0  0  0  0  0  0  0  0
   38.4780   26.0330   42.6370 C   0  0  0  0  0  0  0  0  0  0  0  0
   39.4860   25.3240   42.0350 N   0  0  0  0  0  0  0  0  0  0  0  0
   39.2370   24.3220   41.1740 C   0  0  0  0  0  0  0  0  0  0  0  0
   37.9830   23.9950   40.8860 N   0  0  0  0  0  0  0  0  0  0  0  0
   35.9450   24.3490   41.1770 H   0  0  0  0  0  0  0  0  0  0  0  0
   36.2880   26.2050   42.7720 H   0  0  0  0  0  0  0  0  0  0  0  0
   40.1380   23.8640   40.7860 H   0  0  0  0  0  0  0  0  0  0  0  0
  1  5  1  0  0  0  0
  1  6  1  1  0  0  0
  1 20  1  0  0  0  0
  2  1  1  0  0  0  0
  3  9  1  0  0  0  0
  3  2  1  0  0  0  0
  3  4  1  0  0  0  0
  4 12  1  0  0  0  0
  4  5  1  0  0  0  0
  5 13  1  1  0  0  0
  7  2  1  0  0  0  0
  8  2  1  0  0  0  0
 10  3  1  0  0  0  0
 11  4  1  0  0  0  0
 14  5  1  0  0  0  0
 14 17  1  0  0  0  0
 15 14  1  0  0  0  0
 16 14  1  0  0  0  0
 17 19  1  0  0  0  0
 18 17  1  0  0  0  0
 20 22  1  0  0  0  0
 22 21  2  1  0  0  0
 22 25  1  0  0  0  0
 22 23  1  0  0  0  0
 24 23  1  0  0  0  0
 25 26  1  0  0  0  0
 26 27  1  0  0  0  0
 26 28  1  0  0  0  0
 29 30  1  0  0  0  0
 30 31  2  0  0  0  0
 30 36  1  0  0  0  0
 31 26  1  0  0  0  0
 32 31  1  0  0  0  0
 33 32  2  0  0  0  0
 34 33  1  0  0  0  0
 34 29  2  0  0  0  0
 35 29  1  0  0  0  0
 37 33  1  0  0  0  0
M  END
>  <minimizedAffinity>
-4.80726337

$$$$

 OpenBabel03252509343D

 37 38  0  0  1  0  0  0  0  0999 V2000
   37.9780   30.9620   39.8460 C   0  0  1  0  0  0  0  0  0  0  0  0
   36.9260   31.2870   38.8030 C   0  0  0  0  0  0  0  0  0  0  0  0
   37.7970   31.4190   37.5670 C   0  0  0  0  0  0  0  0  0  0  0  0
   39.1530   31.8840   38.0550 C   0  0  0  0  0  0  0  0  0  0  0  0
   38.9950   32.0440   39.5580 C   0  0  1  0  0  0  0  0  0  0  0  0
   38.4160   30.0000   39.6010 H   0  0  0  0  0  0  0  0  0  0  0  0
   36.3350   32.1850   39.0320 H   0  0  0  0  0  0  0  0  0  0  0  0
   36.2030   30.4770   38.6300 H   0  0  0  0  0  0  0  0  0  0  0  0
   37.8740   30.4430   37.0730 H   0  0  0  0  0  0  0  0  0  0  0  0
   37.3070   32.1470   36.9060 H   0  0  0  0  0  0  0  0  0  0  0  0
   39.3600   32.8730   37.6010 H   0  0  0  0  0  0  0  0  0  0  0  0
   39.9070   31.1140   37.8010 H   0  0  0  0  0  0  0  0  0  0  0  0
   39.9850   31.8000   40.0040 H   0  0  0  0  0  0  0  0  0  0  0  0
   38.5220   33.4200   39.9300 C   0  0  0  0  0  0  0  0  0  0  0  0
   39.0690   34.1220   39.2660 H   0  0  0  0  0  0  0  0  0  0  0  0
   37.4520   33.5050   39.6850 H   0  0  0  0  0  0  0  0  0  0  0  0
   38.8130   33.7790   41.2820 N   0  0  0  0  0  0  0  0  0  0  0  0
   37.9310   33.7110   41.8390 H   0  0  0  0  0  0  0  0  0  0  0  0
   39.5910   33.2850   41.7310 H   0  0  0  0  0  0  0  0  0  0  0  0
   37.4620   31.0680   41.1440 O   0  0  0  0  0  0  0  0  0  0  0  0
   39.3570   30.2370   42.6960 O   0  0  0  0  0  0  0  0  0  0  0  0
   38.0580   29.8020   42.0750 P   0  0  1  0  0  0  0  0  0  0  0  0
   36.9360   29.3230   43.2290 O   0  0  0  0  0  0  0  0  0  0  0  0
   36.0230   29.6060   43.0920 H   0  0  0  0  0  0  0  0  0  0  0  0
   38.3190   28.4690   41.0820 O   0  0  0  0  0  0  0  0  0  0  0  0
   39.1080   27.5790   41.7450 C   0  0  0  0  0  0  0  0  0  0  0  0
   39.0290   27.8420   42.8320 H   0  0  0  0  0  0  0  0  0  0  0  0
   40.1690   27.5600   41.5280 H   0  0  0  0  0  0  0  0  0  0  0  0
   36.8900   24.6040   42.0210 C   0  0  0  0  0  0  0  0  0  0  0  0
   37.3360   25.9300   42.1310 C   0  0  0  0  0  0  0  0  0  0  0  0
   38.6140   26.1950   41.6430 C   0  0  0  0  0  0  0  0  0  0  0  0
   39.3510   25.1760   41.0950 N   0  0  0  0  0  0  0  0  0  0  0  0
   38.8810   23.9200   41.0120 C   0  0  0  0  0  0  0  0  0  0  0  0
   37.6660   23.6380   41.4700 N   0  0  0  0  0  0  0  0  0  0  0  0
   35.9100   24.3150   42.3760 H   0  0  0  0  0  0  0  0  0  0  0  0
   36.6760   26.6560   42.5790 H   0  0  0  0  0  0  0  0  0  0  0  0
   39.5830   23.2340   40.5560 H   0  0  0  0  0  0  0  0  0  0  0  0
  1  6  1  6  0  0  0
  1 20  1  0  0  0  0
  2  7  1  0  0  0  0
  2  1  1  0  0  0  0
  3  4  1  0  0  0  0
  3  2  1  0  0  0  0
  4  5  1  0  0  0  0
  5  1  1  0  0  0  0
  5 14  1  0  0  0  0
  5 13  1  1  0  0  0
  8  2  1  0  0  0  0
  9  3  1  0  0  0  0
 10  3  1  0  0  0  0
 11  4  1  0  0  0  0
 12  4  1  0  0  0  0
 14 17  1  0  0  0  0
 15 14  1  0  0  0  0
 16 14  1  0  0  0  0
 17 19  1  0  0  0  0
 17 18  1  0  0  0  0
 20 22  1  0  0  0  0
 22 21  2  1  0  0  0
 22 23  1  0  0  0  0
 24 23  1  0  0  0  0
 25 26  1  0  0  0  0
 25 22  1  0  0  0  0
 26 27  1  0  0  0  0
 28 26  1  0  0  0  0
 29 30  1  0  0  0  0
 29 35  1  0  0  0  0
 30 36  1  0  0  0  0
 31 26  1  0  0  0  0
 31 30  2  0  0  0  0
 32 31  1  0  0  0  0
 33 32  2  0  0  0  0
 33 34  1  0  0  0  0
 34 29  2  0  0  0  0
 37 33  1  0  0  0  0
M  END
>  <minimizedAffinity>
-4.72688627

$$$$

 OpenBabel03252509343D

 37 38  0  0  1  0  0  0  0  0999 V2000
   37.8630   31.8970   40.5830 C   0  0  1  0  0  0  0  0  0  0  0  0
   38.9420   32.9510   40.7460 C   0  0  0  0  0  0  0  0  0  0  0  0
   38.2330   34.1610   40.1670 C   0  0  0  0  0  0  0  0  0  0  0  0
   37.2560   33.6260   39.1410 C   0  0  0  0  0  0  0  0  0  0  0  0
   37.4740   32.1220   39.1390 C   0  0  1  0  0  0  0  0  0  0  0  0
   37.0240   32.1680   41.2150 H   0  0  0  0  0  0  0  0  0  0  0  0
   39.8870   32.7030   40.2410 H   0  0  0  0  0  0  0  0  0  0  0  0
   39.1990   33.1700   41.7920 H   0  0  0  0  0  0  0  0  0  0  0  0
   37.7050   34.6890   40.9690 H   0  0  0  0  0  0  0  0  0  0  0  0
   39.0060   34.8060   39.7260 H   0  0  0  0  0  0  0  0  0  0  0  0
   37.5370   34.0380   38.1520 H   0  0  0  0  0  0  0  0  0  0  0  0
   36.2280   33.8920   39.4550 H   0  0  0  0  0  0  0  0  0  0  0  0
   36.4860   31.6640   38.9090 H   0  0  0  0  0  0  0  0  0  0  0  0
   38.5390   31.7100   38.1640 C   0  0  0  0  0  0  0  0  0  0  0  0
   39.4470   32.2860   38.4410 H   0  0  0  0  0  0  0  0  0  0  0  0
   38.7690   30.6440   38.3200 H   0  0  0  0  0  0  0  0  0  0  0  0
   38.2220   32.0170   36.8060 N   0  0  0  0  0  0  0  0  0  0  0  0
   37.9380   31.1330   36.3250 H   0  0  0  0  0  0  0  0  0  0  0  0
   37.5470   32.7730   36.6510 H   0  0  0  0  0  0  0  0  0  0  0  0
   38.3710   30.6090   40.7890 O   0  0  0  0  0  0  0  0  0  0  0  0
   37.7420   29.4070   42.9910 O   0  0  0  0  0  0  0  0  0  0  0  0
   37.2250   29.6920   41.6070 P   0  0  1  0  0  0  0  0  0  0  0  0
   35.7390   30.4720   41.6380 O   0  0  0  0  0  0  0  0  0  0  0  0
   35.6110   31.1900   41.0040 H   0  0  0  0  0  0  0  0  0  0  0  0
   36.9880   28.2470   40.7790 O   0  0  0  0  0  0  0  0  0  0  0  0
   35.9430   28.4030   39.9190 C   0  0  0  0  0  0  0  0  0  0  0  0
   35.4430   29.3640   40.2080 H   0  0  0  0  0  0  0  0  0  0  0  0
   35.1560   27.6580   39.9150 H   0  0  0  0  0  0  0  0  0  0  0  0
   35.9340   29.4070   36.3370 C   0  0  0  0  0  0  0  0  0  0  0  0
   35.4970   29.2400   37.6600 C   0  0  0  0  0  0  0  0  0  0  0  0
   36.3770   28.5920   38.5250 C   0  0  0  0  0  0  0  0  0  0  0  0
   37.5900   28.1620   38.0540 N   0  0  0  0  0  0  0  0  0  0  0  0
   37.9660   28.3450   36.7760 C   0  0  0  0  0  0  0  0  0  0  0  0
   37.1470   28.9590   35.9290 N   0  0  0  0  0  0  0  0  0  0  0  0
   35.3110   29.9000   35.6020 H   0  0  0  0  0  0  0  0  0  0  0  0
   34.5220   29.6170   37.9270 H   0  0  0  0  0  0  0  0  0  0  0  0
   38.9500   27.9490   36.5630 H   0  0  0  0  0  0  0  0  0  0  0  0
  1  2  1  0  0  0  0
  1 20  1  0  0  0  0
  1  6  1  1  0  0  0
  2  8  1  0  0  0  0
  3  2  1  0  0  0  0
  3  9  1  0  0  0  0
  4 12  1  0  0  0  0
  4  3  1  0  0  0  0
  5 13  1  6  0  0  0
  5  4  1  0  0  0  0
  5  1  1  0  0  0  0
  7  2  1  0  0  0  0
 10  3  1  0  0  0  0
 11  4  1  0  0  0  0
 14 16  1  0  0  0  0
 14 15  1  0  0  0  0
 14  5  1  0  0  0  0
 17 14  1  0  0  0  0
 18 17  1  0  0  0  0
 19 17  1  0  0  0  0
 20 22  1  0  0  0  0
 22 23  1  0  0  0  0
 22 21  2  1  0  0  0
 24 23  1  0  0  0  0
 25 22  1  0  0  0  0
 26 27  1  0  0  0  0
 26 25  1  0  0  0  0
 28 26  1  0  0  0  0
 29 30  1  0  0  0  0
 30 36  1  0  0  0  0
 30 31  2  0  0  0  0
 31 26  1  0  0  0  0
 32 31  1  0  0  0  0
 33 32  2  0  0  0  0
 34 29  2  0  0  0  0
 34 33  1  0  0  0  0
 35 29  1  0  0  0  0
 37 33  1  0  0  0  0
M  END
>  <minimizedAffinity>
-4.63278532

$$$$
