
 OpenBabel03242518563D

 36 37  0  0  1  0  0  0  0  0999 V2000
   37.9400   31.2260   39.9250 C   0  0  2  0  0  0  0  0  0  0  0  0
   36.9570   32.2520   39.4670 C   0  0  0  0  0  0  0  0  0  0  0  0
   37.5790   33.5860   39.6780 C   0  0  0  0  0  0  0  0  0  0  0  0
   38.9330   33.5830   40.3040 C   0  0  0  0  0  0  0  0  0  0  0  0
   39.8650   32.6870   39.5270 C   0  0  0  0  0  0  0  0  0  0  0  0
   39.2290   31.4300   39.1560 C   0  0  2  0  0  0  0  0  0  0  0  0
   38.2240   31.4360   40.9790 H   0  0  0  0  0  0  0  0  0  0  0  0
   36.0260   32.0930   40.0480 H   0  0  0  0  0  0  0  0  0  0  0  0
   36.6820   32.1120   38.3990 H   0  0  0  0  0  0  0  0  0  0  0  0
   37.5780   34.2570   38.7860 H   0  0  0  0  0  0  0  0  0  0  0  0
   36.9150   34.1340   40.4080 H   0  0  0  0  0  0  0  0  0  0  0  0
   39.3020   34.6320   40.2650 H   0  0  0  0  0  0  0  0  0  0  0  0
   38.9070   33.3470   41.3990 H   0  0  0  0  0  0  0  0  0  0  0  0
   40.7520   32.4950   40.1980 H   0  0  0  0  0  0  0  0  0  0  0  0
   40.2750   33.3210   38.7040 H   0  0  0  0  0  0  0  0  0  0  0  0
   39.8830   30.5680   39.3430 H   0  0  0  0  0  0  0  0  0  0  0  0
   38.9640   31.5520   37.7000 C   0  0  0  0  0  0  0  0  0  0  0  0
   38.7610   30.5830   37.2010 H   0  0  0  0  0  0  0  0  0  0  0  0
   37.9850   32.1050   37.6070 H   0  0  0  0  0  0  0  0  0  0  0  0
   39.9030   32.3370   36.9620 N   0  0  0  0  0  0  0  0  0  0  0  0
   39.5250   32.8260   36.1390 H   0  0  0  0  0  0  0  0  0  0  0  0
   40.7320   31.7520   36.6770 H   0  0  0  0  0  0  0  0  0  0  0  0
   37.4500   29.8350   39.8710 C   0  0  0  0  0  0  0  0  0  0  0  0
   36.9100   29.3440   38.8480 O   0  0  0  0  0  0  0  0  0  0  0  0
   37.9960   28.8750   43.3500 C   0  0  0  0  0  0  0  0  0  0  0  0
   37.9390   27.4590   43.3390 C   0  0  0  0  0  0  0  0  0  0  0  0
   37.7040   26.8620   42.1030 C   0  0  0  0  0  0  0  0  0  0  0  0
   37.5610   27.7040   41.0780 N   0  0  0  0  0  0  0  0  0  0  0  0
   37.6150   29.0200   41.0830 C   0  0  0  0  0  0  0  0  0  0  0  0
   37.8390   29.6240   42.2620 N   0  0  0  0  0  0  0  0  0  0  0  0
   38.1820   29.3420   44.3270 H   0  0  0  0  0  0  0  0  0  0  0  0
   38.0710   26.8780   44.2430 H   0  0  0  0  0  0  0  0  0  0  0  0
   37.6470   25.4090   42.0770 C   0  0  0  0  0  0  0  0  0  0  0  0
   38.6680   24.8880   42.8520 F   0  0  0  0  0  0  0  0  0  0  0  0
   37.8260   25.0320   40.7850 F   0  0  0  0  0  0  0  0  0  0  0  0
   36.4640   24.9240   42.6250 F   0  0  0  0  0  0  0  0  0  0  0  0
  1  7  1  1  0  0  0
  2  3  1  0  0  0  0
  2  1  1  0  0  0  0
  2  8  1  0  0  0  0
  3  4  1  0  0  0  0
  3 11  1  0  0  0  0
  4 13  1  0  0  0  0
  5 14  1  0  0  0  0
  5  4  1  0  0  0  0
  6 16  1  1  0  0  0
  6  5  1  0  0  0  0
  6  1  1  0  0  0  0
  9  2  1  0  0  0  0
 10  3  1  0  0  0  0
 12  4  1  0  0  0  0
 15  5  1  0  0  0  0
 17  6  1  0  0  0  0
 18 17  1  0  0  0  0
 19 17  1  0  0  0  0
 20 17  1  0  0  0  0
 21 20  1  0  0  0  0
 22 20  1  0  0  0  0
 23  1  1  0  0  0  0
 23 29  1  0  0  0  0
 24 23  2  0  0  0  0
 25 31  1  0  0  0  0
 26 25  1  0  0  0  0
 26 32  1  0  0  0  0
 27 26  2  0  0  0  0
 28 29  2  0  0  0  0
 28 27  1  0  0  0  0
 29 30  1  0  0  0  0
 30 25  2  0  0  0  0
 33 27  1  0  0  0  0
 33 36  1  0  0  0  0
 33 34  1  0  0  0  0
 35 33  1  0  0  0  0
M  END
>  <minimizedAffinity>
-5.64541292

$$$$

 OpenBabel03242518563D

 36 37  0  0  1  0  0  0  0  0999 V2000
   38.4420   29.9390   39.3550 C   0  0  2  0  0  0  0  0  0  0  0  0
   38.8550   31.2540   38.7800 C   0  0  0  0  0  0  0  0  0  0  0  0
   38.1220   31.4260   37.4980 C   0  0  0  0  0  0  0  0  0  0  0  0
   37.2430   30.2910   37.0920 C   0  0  0  0  0  0  0  0  0  0  0  0
   36.2810   29.9530   38.2030 C   0  0  0  0  0  0  0  0  0  0  0  0
   36.9350   29.9400   39.5040 C   0  0  2  0  0  0  0  0  0  0  0  0
   38.6340   29.1370   38.6080 H   0  0  0  0  0  0  0  0  0  0  0  0
   39.9580   31.2300   38.6680 H   0  0  0  0  0  0  0  0  0  0  0  0
   38.6330   32.0940   39.4740 H   0  0  0  0  0  0  0  0  0  0  0  0
   37.5670   32.3890   37.3940 H   0  0  0  0  0  0  0  0  0  0  0  0
   38.9070   31.4970   36.6900 H   0  0  0  0  0  0  0  0  0  0  0  0
   36.6750   30.6340   36.1980 H   0  0  0  0  0  0  0  0  0  0  0  0
   37.8180   29.4040   36.7220 H   0  0  0  0  0  0  0  0  0  0  0  0
   35.8650   28.9310   37.9630 H   0  0  0  0  0  0  0  0  0  0  0  0
   35.4110   30.6410   38.0690 H   0  0  0  0  0  0  0  0  0  0  0  0
   36.6470   29.0640   40.1010 H   0  0  0  0  0  0  0  0  0  0  0  0
   36.4700   31.1790   40.1780 C   0  0  0  0  0  0  0  0  0  0  0  0
   37.2700   31.9320   40.3300 H   0  0  0  0  0  0  0  0  0  0  0  0
   35.7700   31.6840   39.4500 H   0  0  0  0  0  0  0  0  0  0  0  0
   35.6950   30.9870   41.3630 N   0  0  0  0  0  0  0  0  0  0  0  0
   34.9910   31.7140   41.5570 H   0  0  0  0  0  0  0  0  0  0  0  0
   36.3230   30.8690   42.2000 H   0  0  0  0  0  0  0  0  0  0  0  0
   39.1460   29.5600   40.5960 C   0  0  0  0  0  0  0  0  0  0  0  0
   40.3070   29.9570   40.8670 O   0  0  0  0  0  0  0  0  0  0  0  0
   37.3530   28.3600   43.5400 C   0  0  0  0  0  0  0  0  0  0  0  0
   37.1020   26.9920   43.2680 C   0  0  0  0  0  0  0  0  0  0  0  0
   37.5660   26.5120   42.0450 C   0  0  0  0  0  0  0  0  0  0  0  0
   38.1920   27.4080   41.2790 N   0  0  0  0  0  0  0  0  0  0  0  0
   38.4290   28.6790   41.5280 C   0  0  0  0  0  0  0  0  0  0  0  0
   37.9920   29.1700   42.7000 N   0  0  0  0  0  0  0  0  0  0  0  0
   36.9850   28.7340   44.5060 H   0  0  0  0  0  0  0  0  0  0  0  0
   36.5790   26.3590   43.9730 H   0  0  0  0  0  0  0  0  0  0  0  0
   37.3200   25.1080   41.7550 C   0  0  0  0  0  0  0  0  0  0  0  0
   36.8680   24.9740   40.4550 F   0  0  0  0  0  0  0  0  0  0  0  0
   36.3530   24.6940   42.6130 F   0  0  0  0  0  0  0  0  0  0  0  0
   38.4810   24.3480   41.8380 F   0  0  0  0  0  0  0  0  0  0  0  0
  1  7  1  6  0  0  0
  1  6  1  0  0  0  0
  1 23  1  0  0  0  0
  2  1  1  0  0  0  0
  2  9  1  0  0  0  0
  3  2  1  0  0  0  0
  4  3  1  0  0  0  0
  4  5  1  0  0  0  0
  5  6  1  0  0  0  0
  6 16  1  1  0  0  0
  6 17  1  0  0  0  0
  8  2  1  0  0  0  0
 10  3  1  0  0  0  0
 11  3  1  0  0  0  0
 12  4  1  0  0  0  0
 13  4  1  0  0  0  0
 14  5  1  0  0  0  0
 15  5  1  0  0  0  0
 17 18  1  0  0  0  0
 17 20  1  0  0  0  0
 19 17  1  0  0  0  0
 20 21  1  0  0  0  0
 20 22  1  0  0  0  0
 23 24  2  0  0  0  0
 23 29  1  0  0  0  0
 25 31  1  0  0  0  0
 26 25  1  0  0  0  0
 26 32  1  0  0  0  0
 27 26  2  0  0  0  0
 28 29  2  0  0  0  0
 28 27  1  0  0  0  0
 29 30  1  0  0  0  0
 30 25  2  0  0  0  0
 33 36  1  0  0  0  0
 33 27  1  0  0  0  0
 33 35  1  0  0  0  0
 34 33  1  0  0  0  0
M  END
>  <minimizedAffinity>
-5.57287073

$$$$

 OpenBabel03242518563D

 36 37  0  0  1  0  0  0  0  0999 V2000
   37.7080   31.1280   39.3320 C   0  0  2  0  0  0  0  0  0  0  0  0
   37.0610   32.4660   39.1900 C   0  0  0  0  0  0  0  0  0  0  0  0
   37.9570   33.4620   39.8360 C   0  0  0  0  0  0  0  0  0  0  0  0
   39.1870   32.9130   40.4770 C   0  0  0  0  0  0  0  0  0  0  0  0
   39.9610   32.0750   39.4890 C   0  0  0  0  0  0  0  0  0  0  0  0
   39.0890   31.2020   38.7150 C   0  0  2  0  0  0  0  0  0  0  0  0
   37.9080   30.9310   40.4080 H   0  0  0  0  0  0  0  0  0  0  0  0
   36.0580   32.3950   39.6560 H   0  0  0  0  0  0  0  0  0  0  0  0
   36.8880   32.7290   38.1230 H   0  0  0  0  0  0  0  0  0  0  0  0
   38.2220   34.3420   39.2040 H   0  0  0  0  0  0  0  0  0  0  0  0
   37.3640   33.9220   40.6780 H   0  0  0  0  0  0  0  0  0  0  0  0
   39.8010   33.7880   40.7860 H   0  0  0  0  0  0  0  0  0  0  0  0
   38.9770   32.3770   41.4380 H   0  0  0  0  0  0  0  0  0  0  0  0
   40.6910   31.4640   40.0940 H   0  0  0  0  0  0  0  0  0  0  0  0
   40.6050   32.7930   38.9260 H   0  0  0  0  0  0  0  0  0  0  0  0
   39.4900   30.1820   38.6400 H   0  0  0  0  0  0  0  0  0  0  0  0
   39.0340   31.8180   37.3640 C   0  0  0  0  0  0  0  0  0  0  0  0
   38.6280   31.1440   36.5830 H   0  0  0  0  0  0  0  0  0  0  0  0
   38.2630   32.6400   37.4280 H   0  0  0  0  0  0  0  0  0  0  0  0
   40.2300   32.4680   36.9300 N   0  0  0  0  0  0  0  0  0  0  0  0
   40.0970   33.2660   36.2930 H   0  0  0  0  0  0  0  0  0  0  0  0
   40.8910   31.7730   36.4930 H   0  0  0  0  0  0  0  0  0  0  0  0
   36.9070   29.9990   38.8200 C   0  0  0  0  0  0  0  0  0  0  0  0
   36.2270   30.0700   37.7660 O   0  0  0  0  0  0  0  0  0  0  0  0
   36.8210   26.4560   39.6970 C   0  0  0  0  0  0  0  0  0  0  0  0
   36.9490   26.4380   41.1080 C   0  0  0  0  0  0  0  0  0  0  0  0
   37.0680   27.6780   41.7320 C   0  0  0  0  0  0  0  0  0  0  0  0
   37.0480   28.7340   40.9150 N   0  0  0  0  0  0  0  0  0  0  0  0
   36.9270   28.7550   39.6040 C   0  0  0  0  0  0  0  0  0  0  0  0
   36.8120   27.5740   38.9750 N   0  0  0  0  0  0  0  0  0  0  0  0
   36.7280   25.4760   39.2090 H   0  0  0  0  0  0  0  0  0  0  0  0
   36.9540   25.5110   41.6670 H   0  0  0  0  0  0  0  0  0  0  0  0
   37.1960   27.6740   43.1810 C   0  0  0  0  0  0  0  0  0  0  0  0
   38.2450   26.8540   43.5540 F   0  0  0  0  0  0  0  0  0  0  0  0
   36.0350   27.1740   43.6760 F   0  0  0  0  0  0  0  0  0  0  0  0
   37.5000   28.9360   43.6800 F   0  0  0  0  0  0  0  0  0  0  0  0
  1  7  1  1  0  0  0
  2  1  1  0  0  0  0
  2  8  1  0  0  0  0
  2  3  1  0  0  0  0
  3  4  1  0  0  0  0
  3 11  1  0  0  0  0
  4 12  1  0  0  0  0
  4 13  1  0  0  0  0
  5 14  1  0  0  0  0
  5  4  1  0  0  0  0
  6 16  1  6  0  0  0
  6  1  1  0  0  0  0
  6  5  1  0  0  0  0
  9  2  1  0  0  0  0
 10  3  1  0  0  0  0
 15  5  1  0  0  0  0
 17 19  1  0  0  0  0
 17  6  1  0  0  0  0
 18 17  1  0  0  0  0
 20 17  1  0  0  0  0
 21 20  1  0  0  0  0
 22 20  1  0  0  0  0
 23  1  1  0  0  0  0
 23 29  1  0  0  0  0
 24 23  2  0  0  0  0
 25 26  1  0  0  0  0
 26 32  1  0  0  0  0
 26 27  2  0  0  0  0
 27 33  1  0  0  0  0
 28 27  1  0  0  0  0
 29 28  2  0  0  0  0
 30 29  1  0  0  0  0
 30 25  2  0  0  0  0
 31 25  1  0  0  0  0
 33 34  1  0  0  0  0
 33 35  1  0  0  0  0
 33 36  1  0  0  0  0
M  END
>  <minimizedAffinity>
-5.52408791

$$$$

 OpenBabel03242518563D

 36 37  0  0  1  0  0  0  0  0999 V2000
   36.9690   30.0050   39.3430 C   0  0  2  0  0  0  0  0  0  0  0  0
   38.4280   29.7560   39.5390 C   0  0  0  0  0  0  0  0  0  0  0  0
   39.1460   30.4360   38.4270 C   0  0  0  0  0  0  0  0  0  0  0  0
   38.2860   31.1170   37.4170 C   0  0  0  0  0  0  0  0  0  0  0  0
   37.3440   32.0790   38.0960 C   0  0  0  0  0  0  0  0  0  0  0  0
   36.7460   31.5020   39.2930 C   0  0  2  0  0  0  0  0  0  0  0  0
   36.6720   29.6580   38.3290 H   0  0  0  0  0  0  0  0  0  0  0  0
   38.5720   28.6570   39.5620 H   0  0  0  0  0  0  0  0  0  0  0  0
   38.7810   30.1350   40.5230 H   0  0  0  0  0  0  0  0  0  0  0  0
   39.9710   31.1180   38.7420 H   0  0  0  0  0  0  0  0  0  0  0  0
   39.6880   29.6250   37.8590 H   0  0  0  0  0  0  0  0  0  0  0  0
   38.9730   31.6790   36.7440 H   0  0  0  0  0  0  0  0  0  0  0  0
   37.7650   30.4000   36.7320 H   0  0  0  0  0  0  0  0  0  0  0  0
   36.5450   32.3280   37.3390 H   0  0  0  0  0  0  0  0  0  0  0  0
   37.9170   33.0310   38.2130 H   0  0  0  0  0  0  0  0  0  0  0  0
   35.6650   31.6920   39.3450 H   0  0  0  0  0  0  0  0  0  0  0  0
   37.4290   32.1780   40.4250 C   0  0  0  0  0  0  0  0  0  0  0  0
   37.1050   31.8160   41.4210 H   0  0  0  0  0  0  0  0  0  0  0  0
   38.5110   31.8600   40.3700 H   0  0  0  0  0  0  0  0  0  0  0  0
   37.4600   33.6050   40.3670 N   0  0  0  0  0  0  0  0  0  0  0  0
   38.2770   34.0510   40.8080 H   0  0  0  0  0  0  0  0  0  0  0  0
   36.5740   34.0110   40.7690 H   0  0  0  0  0  0  0  0  0  0  0  0
   36.0910   29.3230   40.3140 C   0  0  0  0  0  0  0  0  0  0  0  0
   34.8370   29.3730   40.2490 O   0  0  0  0  0  0  0  0  0  0  0  0
   37.7870   28.5170   43.4440 C   0  0  0  0  0  0  0  0  0  0  0  0
   37.9880   27.1140   43.3860 C   0  0  0  0  0  0  0  0  0  0  0  0
   37.5190   26.4720   42.2430 C   0  0  0  0  0  0  0  0  0  0  0  0
   36.9330   27.2620   41.3410 N   0  0  0  0  0  0  0  0  0  0  0  0
   36.7450   28.5650   41.3900 C   0  0  0  0  0  0  0  0  0  0  0  0
   37.1870   29.2120   42.4820 N   0  0  0  0  0  0  0  0  0  0  0  0
   38.1590   29.0190   44.3480 H   0  0  0  0  0  0  0  0  0  0  0  0
   38.4800   26.5770   44.1870 H   0  0  0  0  0  0  0  0  0  0  0  0
   37.7230   25.0340   42.1690 C   0  0  0  0  0  0  0  0  0  0  0  0
   38.0550   24.6760   40.8740 F   0  0  0  0  0  0  0  0  0  0  0  0
   36.5450   24.4510   42.5080 F   0  0  0  0  0  0  0  0  0  0  0  0
   38.7840   24.6160   42.9650 F   0  0  0  0  0  0  0  0  0  0  0  0
  1  7  1  6  0  0  0
  1  2  1  0  0  0  0
  1 23  1  0  0  0  0
  2  8  1  0  0  0  0
  2  9  1  0  0  0  0
  3 10  1  0  0  0  0
  3  2  1  0  0  0  0
  4  5  1  0  0  0  0
  4  3  1  0  0  0  0
  5 15  1  0  0  0  0
  5  6  1  0  0  0  0
  6  1  1  0  0  0  0
  6 16  1  1  0  0  0
  6 17  1  0  0  0  0
 11  3  1  0  0  0  0
 12  4  1  0  0  0  0
 13  4  1  0  0  0  0
 14  5  1  0  0  0  0
 17 18  1  0  0  0  0
 19 17  1  0  0  0  0
 20 17  1  0  0  0  0
 20 22  1  0  0  0  0
 20 21  1  0  0  0  0
 23 29  1  0  0  0  0
 24 23  2  0  0  0  0
 25 31  1  0  0  0  0
 26 25  1  0  0  0  0
 26 32  1  0  0  0  0
 27 26  2  0  0  0  0
 28 29  2  0  0  0  0
 28 27  1  0  0  0  0
 29 30  1  0  0  0  0
 30 25  2  0  0  0  0
 33 27  1  0  0  0  0
 33 35  1  0  0  0  0
 33 36  1  0  0  0  0
 34 33  1  0  0  0  0
M  END
>  <minimizedAffinity>
-5.48781252

$$$$

 OpenBabel03242518563D

 36 37  0  0  1  0  0  0  0  0999 V2000
   39.1030   31.2060   39.9700 C   0  0  2  0  0  0  0  0  0  0  0  0
   39.8600   31.6470   38.7610 C   0  0  0  0  0  0  0  0  0  0  0  0
   38.8830   31.7690   37.6470 C   0  0  0  0  0  0  0  0  0  0  0  0
   37.4760   31.3940   37.9700 C   0  0  0  0  0  0  0  0  0  0  0  0
   36.9940   32.1640   39.1750 C   0  0  0  0  0  0  0  0  0  0  0  0
   37.9980   32.2080   40.2290 C   0  0  2  0  0  0  0  0  0  0  0  0
   38.5580   30.2650   39.7360 H   0  0  0  0  0  0  0  0  0  0  0  0
   40.6560   30.8970   38.5820 H   0  0  0  0  0  0  0  0  0  0  0  0
   40.3810   32.6150   38.9330 H   0  0  0  0  0  0  0  0  0  0  0  0
   38.8990   32.7450   37.1060 H   0  0  0  0  0  0  0  0  0  0  0  0
   39.2120   31.0350   36.8550 H   0  0  0  0  0  0  0  0  0  0  0  0
   36.8640   31.6680   37.0820 H   0  0  0  0  0  0  0  0  0  0  0  0
   37.3300   30.2880   38.0670 H   0  0  0  0  0  0  0  0  0  0  0  0
   36.0660   31.6350   39.5380 H   0  0  0  0  0  0  0  0  0  0  0  0
   36.6170   33.1380   38.7780 H   0  0  0  0  0  0  0  0  0  0  0  0
   37.5660   31.9990   41.2170 H   0  0  0  0  0  0  0  0  0  0  0  0
   38.5240   33.5970   40.1970 C   0  0  0  0  0  0  0  0  0  0  0  0
   39.3300   33.7520   39.4520 H   0  0  0  0  0  0  0  0  0  0  0  0
   37.6810   34.2400   39.8080 H   0  0  0  0  0  0  0  0  0  0  0  0
   38.8630   34.1610   41.4650 N   0  0  0  0  0  0  0  0  0  0  0  0
   38.7550   35.1820   41.5420 H   0  0  0  0  0  0  0  0  0  0  0  0
   39.8420   33.8870   41.7410 H   0  0  0  0  0  0  0  0  0  0  0  0
   39.9370   30.9450   41.1590 C   0  0  0  0  0  0  0  0  0  0  0  0
   40.8330   31.7370   41.5480 O   0  0  0  0  0  0  0  0  0  0  0  0
   40.4460   27.9810   43.2270 C   0  0  0  0  0  0  0  0  0  0  0  0
   39.1800   27.3430   43.2480 C   0  0  0  0  0  0  0  0  0  0  0  0
   38.1620   27.9720   42.5350 C   0  0  0  0  0  0  0  0  0  0  0  0
   38.5090   29.1030   41.9180 N   0  0  0  0  0  0  0  0  0  0  0  0
   39.6840   29.6980   41.8940 C   0  0  0  0  0  0  0  0  0  0  0  0
   40.6850   29.1150   42.5740 N   0  0  0  0  0  0  0  0  0  0  0  0
   41.2460   27.4810   43.7910 H   0  0  0  0  0  0  0  0  0  0  0  0
   39.0180   26.4200   43.7900 H   0  0  0  0  0  0  0  0  0  0  0  0
   36.8590   27.3260   42.5460 C   0  0  0  0  0  0  0  0  0  0  0  0
   36.1600   27.7040   43.6780 F   0  0  0  0  0  0  0  0  0  0  0  0
   37.0830   25.9880   42.5800 F   0  0  0  0  0  0  0  0  0  0  0  0
   36.0750   27.7170   41.4650 F   0  0  0  0  0  0  0  0  0  0  0  0
  1  7  1  6  0  0  0
  1  6  1  0  0  0  0
  1 23  1  0  0  0  0
  2  9  1  0  0  0  0
  2  1  1  0  0  0  0
  3  4  1  0  0  0  0
  3  2  1  0  0  0  0
  4 13  1  0  0  0  0
  4  5  1  0  0  0  0
  5 14  1  0  0  0  0
  5  6  1  0  0  0  0
  6 16  1  1  0  0  0
  8  2  1  0  0  0  0
 10  3  1  0  0  0  0
 11  3  1  0  0  0  0
 12  4  1  0  0  0  0
 15  5  1  0  0  0  0
 17  6  1  0  0  0  0
 17 20  1  0  0  0  0
 18 17  1  0  0  0  0
 19 17  1  0  0  0  0
 20 21  1  0  0  0  0
 20 22  1  0  0  0  0
 23 24  2  0  0  0  0
 23 29  1  0  0  0  0
 25 26  1  0  0  0  0
 25 31  1  0  0  0  0
 26 32  1  0  0  0  0
 27 33  1  0  0  0  0
 27 26  2  0  0  0  0
 28 27  1  0  0  0  0
 29 28  2  0  0  0  0
 29 30  1  0  0  0  0
 30 25  2  0  0  0  0
 33 35  1  0  0  0  0
 33 34  1  0  0  0  0
 36 33  1  0  0  0  0
M  END
>  <minimizedAffinity>
-5.4136014

$$$$

 OpenBabel03242518563D

 36 37  0  0  1  0  0  0  0  0999 V2000
   36.9050   29.9800   38.3450 C   0  0  2  0  0  0  0  0  0  0  0  0
   38.2860   29.5900   38.7540 C   0  0  0  0  0  0  0  0  0  0  0  0
   39.1830   30.7310   38.4290 C   0  0  0  0  0  0  0  0  0  0  0  0
   38.5360   31.9000   37.7670 C   0  0  0  0  0  0  0  0  0  0  0  0
   37.3580   32.3750   38.5800 C   0  0  0  0  0  0  0  0  0  0  0  0
   36.5450   31.2660   39.0600 C   0  0  2  0  0  0  0  0  0  0  0  0
   36.9080   30.2660   37.2700 H   0  0  0  0  0  0  0  0  0  0  0  0
   38.5350   28.6540   38.2130 H   0  0  0  0  0  0  0  0  0  0  0  0
   38.3410   29.3450   39.8380 H   0  0  0  0  0  0  0  0  0  0  0  0
   39.8270   31.0830   39.2700 H   0  0  0  0  0  0  0  0  0  0  0  0
   39.9330   30.3420   37.6810 H   0  0  0  0  0  0  0  0  0  0  0  0
   39.3060   32.7030   37.7190 H   0  0  0  0  0  0  0  0  0  0  0  0
   38.2810   31.7080   36.6930 H   0  0  0  0  0  0  0  0  0  0  0  0
   36.7520   33.0420   37.9000 H   0  0  0  0  0  0  0  0  0  0  0  0
   37.7810   33.0740   39.3420 H   0  0  0  0  0  0  0  0  0  0  0  0
   35.4710   31.4520   38.9180 H   0  0  0  0  0  0  0  0  0  0  0  0
   36.8480   31.1700   40.5100 C   0  0  0  0  0  0  0  0  0  0  0  0
   37.7020   30.5030   40.7440 H   0  0  0  0  0  0  0  0  0  0  0  0
   37.2210   32.1900   40.8180 H   0  0  0  0  0  0  0  0  0  0  0  0
   35.7300   30.9120   41.3620 N   0  0  0  0  0  0  0  0  0  0  0  0
   35.7940   31.3060   42.3110 H   0  0  0  0  0  0  0  0  0  0  0  0
   35.5400   29.8780   41.4190 H   0  0  0  0  0  0  0  0  0  0  0  0
   35.8890   28.9230   38.5140 C   0  0  0  0  0  0  0  0  0  0  0  0
   34.7480   28.9850   37.9900 O   0  0  0  0  0  0  0  0  0  0  0  0
   36.6400   25.5010   39.5390 C   0  0  0  0  0  0  0  0  0  0  0  0
   36.9440   25.6040   40.9200 C   0  0  0  0  0  0  0  0  0  0  0  0
   36.8840   26.8820   41.4690 C   0  0  0  0  0  0  0  0  0  0  0  0
   36.5460   27.8550   40.6210 N   0  0  0  0  0  0  0  0  0  0  0  0
   36.2610   27.7640   39.3380 C   0  0  0  0  0  0  0  0  0  0  0  0
   36.3120   26.5430   38.7800 N   0  0  0  0  0  0  0  0  0  0  0  0
   36.6880   24.4910   39.1100 H   0  0  0  0  0  0  0  0  0  0  0  0
   37.2080   24.7360   41.5100 H   0  0  0  0  0  0  0  0  0  0  0  0
   37.1900   27.0020   42.8860 C   0  0  0  0  0  0  0  0  0  0  0  0
   37.6920   28.2640   43.1500 F   0  0  0  0  0  0  0  0  0  0  0  0
   38.1400   26.0720   43.1630 F   0  0  0  0  0  0  0  0  0  0  0  0
   36.0540   26.8690   43.6770 F   0  0  0  0  0  0  0  0  0  0  0  0
  1  7  1  6  0  0  0
  1 23  1  0  0  0  0
  1  2  1  0  0  0  0
  1  6  1  0  0  0  0
  2  9  1  0  0  0  0
  3  2  1  0  0  0  0
  3 10  1  0  0  0  0
  4  3  1  0  0  0  0
  4  5  1  0  0  0  0
  5  6  1  0  0  0  0
  5 15  1  0  0  0  0
  6 16  1  6  0  0  0
  6 17  1  0  0  0  0
  8  2  1  0  0  0  0
 11  3  1  0  0  0  0
 12  4  1  0  0  0  0
 13  4  1  0  0  0  0
 14  5  1  0  0  0  0
 17 18  1  0  0  0  0
 17 19  1  0  0  0  0
 17 20  1  0  0  0  0
 20 22  1  0  0  0  0
 20 21  1  0  0  0  0
 23 29  1  0  0  0  0
 24 23  2  0  0  0  0
 25 26  1  0  0  0  0
 26 27  2  0  0  0  0
 26 32  1  0  0  0  0
 27 33  1  0  0  0  0
 28 27  1  0  0  0  0
 29 28  2  0  0  0  0
 30 29  1  0  0  0  0
 30 25  2  0  0  0  0
 31 25  1  0  0  0  0
 33 34  1  0  0  0  0
 33 35  1  0  0  0  0
 33 36  1  0  0  0  0
M  END
>  <minimizedAffinity>
-5.33595943

$$$$

 OpenBabel03242518563D

 36 37  0  0  1  0  0  0  0  0999 V2000
   37.4370   26.1090   41.7550 C   0  0  2  0  0  0  0  0  0  0  0  0
   36.8840   24.7830   42.1610 C   0  0  0  0  0  0  0  0  0  0  0  0
   37.4770   23.7610   41.2580 C   0  0  0  0  0  0  0  0  0  0  0  0
   38.3870   24.2790   40.1950 C   0  0  0  0  0  0  0  0  0  0  0  0
   39.4720   25.1300   40.8070 C   0  0  0  0  0  0  0  0  0  0  0  0
   38.9480   26.0330   41.8230 C   0  0  2  0  0  0  0  0  0  0  0  0
   37.2280   26.2770   40.6750 H   0  0  0  0  0  0  0  0  0  0  0  0
   35.7800   24.8550   42.0940 H   0  0  0  0  0  0  0  0  0  0  0  0
   37.1150   24.5480   43.2230 H   0  0  0  0  0  0  0  0  0  0  0  0
   37.9540   22.8930   41.7720 H   0  0  0  0  0  0  0  0  0  0  0  0
   36.6150   23.2870   40.7050 H   0  0  0  0  0  0  0  0  0  0  0  0
   38.8420   23.3890   39.7060 H   0  0  0  0  0  0  0  0  0  0  0  0
   37.8400   24.7940   39.3640 H   0  0  0  0  0  0  0  0  0  0  0  0
   39.9300   25.7180   39.9580 H   0  0  0  0  0  0  0  0  0  0  0  0
   40.2770   24.4190   41.1120 H   0  0  0  0  0  0  0  0  0  0  0  0
   39.3500   27.0490   41.7170 H   0  0  0  0  0  0  0  0  0  0  0  0
   39.3920   25.4510   43.1150 C   0  0  0  0  0  0  0  0  0  0  0  0
   39.4590   26.1910   43.9380 H   0  0  0  0  0  0  0  0  0  0  0  0
   38.5610   24.7640   43.4480 H   0  0  0  0  0  0  0  0  0  0  0  0
   40.5540   24.6220   43.0560 N   0  0  0  0  0  0  0  0  0  0  0  0
   40.5970   23.8640   43.7510 H   0  0  0  0  0  0  0  0  0  0  0  0
   41.4290   25.2070   43.1150 H   0  0  0  0  0  0  0  0  0  0  0  0
   36.8830   27.2600   42.4940 C   0  0  0  0  0  0  0  0  0  0  0  0
   36.4350   27.1660   43.6640 O   0  0  0  0  0  0  0  0  0  0  0  0
   35.8060   30.0650   40.4210 C   0  0  0  0  0  0  0  0  0  0  0  0
   36.8780   30.9900   40.4920 C   0  0  0  0  0  0  0  0  0  0  0  0
   37.9660   30.6110   41.2750 C   0  0  0  0  0  0  0  0  0  0  0  0
   37.8610   29.4190   41.8640 N   0  0  0  0  0  0  0  0  0  0  0  0
   36.8680   28.5560   41.7990 C   0  0  0  0  0  0  0  0  0  0  0  0
   35.8040   28.8940   41.0520 N   0  0  0  0  0  0  0  0  0  0  0  0
   34.9500   30.3670   39.8020 H   0  0  0  0  0  0  0  0  0  0  0  0
   36.8490   31.9350   39.9660 H   0  0  0  0  0  0  0  0  0  0  0  0
   39.0750   31.5490   41.3530 C   0  0  0  0  0  0  0  0  0  0  0  0
   39.6780   31.4550   42.5950 F   0  0  0  0  0  0  0  0  0  0  0  0
   38.5500   32.7920   41.2000 F   0  0  0  0  0  0  0  0  0  0  0  0
   40.0670   31.2610   40.4230 F   0  0  0  0  0  0  0  0  0  0  0  0
  1  7  1  6  0  0  0
  1  6  1  0  0  0  0
  1  2  1  0  0  0  0
  1 23  1  0  0  0  0
  2  9  1  0  0  0  0
  3 10  1  0  0  0  0
  3  2  1  0  0  0  0
  4  5  1  0  0  0  0
  4  3  1  0  0  0  0
  5 15  1  0  0  0  0
  5  6  1  0  0  0  0
  6 16  1  6  0  0  0
  6 17  1  0  0  0  0
  8  2  1  0  0  0  0
 11  3  1  0  0  0  0
 12  4  1  0  0  0  0
 13  4  1  0  0  0  0
 14  5  1  0  0  0  0
 17 19  1  0  0  0  0
 17 18  1  0  0  0  0
 20 22  1  0  0  0  0
 20 17  1  0  0  0  0
 20 21  1  0  0  0  0
 23 24  2  0  0  0  0
 25 26  2  0  0  0  0
 25 30  1  0  0  0  0
 26 27  1  0  0  0  0
 27 33  1  0  0  0  0
 27 28  2  0  0  0  0
 29 28  1  0  0  0  0
 29 23  1  0  0  0  0
 30 29  2  0  0  0  0
 31 25  1  0  0  0  0
 32 26  1  0  0  0  0
 33 34  1  0  0  0  0
 35 33  1  0  0  0  0
 36 33  1  0  0  0  0
M  END
>  <minimizedAffinity>
-5.20613194

$$$$

 OpenBabel03242518563D

 36 37  0  0  1  0  0  0  0  0999 V2000
   36.1990   27.8190   40.3050 C   0  0  2  0  0  0  0  0  0  0  0  0
   37.1760   28.0120   39.1930 C   0  0  0  0  0  0  0  0  0  0  0  0
   36.3930   28.1450   37.9350 C   0  0  0  0  0  0  0  0  0  0  0  0
   34.9140   28.0100   38.0700 C   0  0  0  0  0  0  0  0  0  0  0  0
   34.3960   28.9690   39.1130 C   0  0  0  0  0  0  0  0  0  0  0  0
   35.2390   28.9890   40.3010 C   0  0  2  0  0  0  0  0  0  0  0  0
   35.5520   26.9440   40.0760 H   0  0  0  0  0  0  0  0  0  0  0  0
   37.8620   27.1420   39.2060 H   0  0  0  0  0  0  0  0  0  0  0  0
   37.8120   28.9100   39.3550 H   0  0  0  0  0  0  0  0  0  0  0  0
   36.6350   29.0420   37.3180 H   0  0  0  0  0  0  0  0  0  0  0  0
   36.7100   27.2870   37.2720 H   0  0  0  0  0  0  0  0  0  0  0  0
   34.4800   28.2660   37.0780 H   0  0  0  0  0  0  0  0  0  0  0  0
   34.5850   26.9530   38.2430 H   0  0  0  0  0  0  0  0  0  0  0  0
   33.3550   28.6190   39.3760 H   0  0  0  0  0  0  0  0  0  0  0  0
   34.2330   29.9360   38.5780 H   0  0  0  0  0  0  0  0  0  0  0  0
   34.6470   28.9550   41.2250 H   0  0  0  0  0  0  0  0  0  0  0  0
   35.9730   30.2780   40.2250 C   0  0  0  0  0  0  0  0  0  0  0  0
   37.0430   30.1670   39.9550 H   0  0  0  0  0  0  0  0  0  0  0  0
   35.5370   30.8330   39.3440 H   0  0  0  0  0  0  0  0  0  0  0  0
   35.7990   31.1580   41.3370 N   0  0  0  0  0  0  0  0  0  0  0  0
   35.8620   32.1630   41.1250 H   0  0  0  0  0  0  0  0  0  0  0  0
   36.4730   30.9150   42.1100 H   0  0  0  0  0  0  0  0  0  0  0  0
   36.8100   27.5790   41.6270 C   0  0  0  0  0  0  0  0  0  0  0  0
   36.6400   28.3500   42.6050 O   0  0  0  0  0  0  0  0  0  0  0  0
   37.8370   24.0930   41.9710 C   0  0  0  0  0  0  0  0  0  0  0  0
   39.2510   24.1480   42.0550 C   0  0  0  0  0  0  0  0  0  0  0  0
   39.8230   25.4160   41.9850 C   0  0  0  0  0  0  0  0  0  0  0  0
   38.9620   26.4260   41.8460 N   0  0  0  0  0  0  0  0  0  0  0  0
   37.6480   26.3800   41.7690 C   0  0  0  0  0  0  0  0  0  0  0  0
   37.0680   25.1700   41.8330 N   0  0  0  0  0  0  0  0  0  0  0  0
   37.3900   23.0910   42.0270 H   0  0  0  0  0  0  0  0  0  0  0  0
   39.8490   23.2520   42.1670 H   0  0  0  0  0  0  0  0  0  0  0  0
   41.2730   25.4870   42.0740 C   0  0  0  0  0  0  0  0  0  0  0  0
   41.6720   26.8100   42.1370 F   0  0  0  0  0  0  0  0  0  0  0  0
   41.7650   24.9220   40.9420 F   0  0  0  0  0  0  0  0  0  0  0  0
   41.7540   24.8860   43.2330 F   0  0  0  0  0  0  0  0  0  0  0  0
  1  7  1  6  0  0  0
  1 23  1  0  0  0  0
  2  8  1  0  0  0  0
  2  9  1  0  0  0  0
  2  1  1  0  0  0  0
  3  4  1  0  0  0  0
  3  2  1  0  0  0  0
  4 13  1  0  0  0  0
  4  5  1  0  0  0  0
  5 14  1  0  0  0  0
  5  6  1  0  0  0  0
  6  1  1  0  0  0  0
  6 16  1  1  0  0  0
 10  3  1  0  0  0  0
 11  3  1  0  0  0  0
 12  4  1  0  0  0  0
 15  5  1  0  0  0  0
 17  6  1  0  0  0  0
 17 20  1  0  0  0  0
 18 17  1  0  0  0  0
 19 17  1  0  0  0  0
 20 22  1  0  0  0  0
 21 20  1  0  0  0  0
 23 29  1  0  0  0  0
 23 24  2  0  0  0  0
 25 31  1  0  0  0  0
 25 26  1  0  0  0  0
 26 32  1  0  0  0  0
 27 26  2  0  0  0  0
 27 33  1  0  0  0  0
 28 27  1  0  0  0  0
 29 30  1  0  0  0  0
 29 28  2  0  0  0  0
 30 25  2  0  0  0  0
 33 34  1  0  0  0  0
 33 36  1  0  0  0  0
 35 33  1  0  0  0  0
M  END
>  <minimizedAffinity>
-5.0459857

$$$$

 OpenBabel03242518563D

 36 37  0  0  1  0  0  0  0  0999 V2000
   38.5800   28.4850   42.0170 C   0  0  2  0  0  0  0  0  0  0  0  0
   38.5110   27.6330   40.7930 C   0  0  0  0  0  0  0  0  0  0  0  0
   37.8380   26.3630   41.1750 C   0  0  0  0  0  0  0  0  0  0  0  0
   37.4620   26.2310   42.6120 C   0  0  0  0  0  0  0  0  0  0  0  0
   36.6320   27.4140   43.0450 C   0  0  0  0  0  0  0  0  0  0  0  0
   37.1730   28.6710   42.5440 C   0  0  2  0  0  0  0  0  0  0  0  0
   39.0940   27.9220   42.8260 H   0  0  0  0  0  0  0  0  0  0  0  0
   39.5500   27.5000   40.4290 H   0  0  0  0  0  0  0  0  0  0  0  0
   37.9580   28.1380   39.9710 H   0  0  0  0  0  0  0  0  0  0  0  0
   36.9750   26.0710   40.5310 H   0  0  0  0  0  0  0  0  0  0  0  0
   38.5860   25.5390   40.9870 H   0  0  0  0  0  0  0  0  0  0  0  0
   36.8580   25.3000   42.6970 H   0  0  0  0  0  0  0  0  0  0  0  0
   38.3420   26.0440   43.2790 H   0  0  0  0  0  0  0  0  0  0  0  0
   36.6350   27.4080   44.1740 H   0  0  0  0  0  0  0  0  0  0  0  0
   35.5790   27.1590   42.7720 H   0  0  0  0  0  0  0  0  0  0  0  0
   37.1940   29.4480   43.3210 H   0  0  0  0  0  0  0  0  0  0  0  0
   36.2480   29.0770   41.4550 C   0  0  0  0  0  0  0  0  0  0  0  0
   36.5640   28.7330   40.4500 H   0  0  0  0  0  0  0  0  0  0  0  0
   35.2880   28.5110   41.6350 H   0  0  0  0  0  0  0  0  0  0  0  0
   35.8680   30.4540   41.4460 N   0  0  0  0  0  0  0  0  0  0  0  0
   34.9310   30.6560   41.0690 H   0  0  0  0  0  0  0  0  0  0  0  0
   36.5870   31.0330   40.9360 H   0  0  0  0  0  0  0  0  0  0  0  0
   39.3040   29.7590   41.8420 C   0  0  0  0  0  0  0  0  0  0  0  0
   39.7200   30.4430   42.8110 O   0  0  0  0  0  0  0  0  0  0  0  0
   40.9480   30.5850   38.6900 C   0  0  0  0  0  0  0  0  0  0  0  0
   39.9120   31.1090   37.8770 C   0  0  0  0  0  0  0  0  0  0  0  0
   38.6440   31.1600   38.4520 C   0  0  0  0  0  0  0  0  0  0  0  0
   38.5650   30.7050   39.7040 N   0  0  0  0  0  0  0  0  0  0  0  0
   39.5250   30.2190   40.4640 C   0  0  0  0  0  0  0  0  0  0  0  0
   40.7590   30.1570   39.9350 N   0  0  0  0  0  0  0  0  0  0  0  0
   41.9460   30.5470   38.2320 H   0  0  0  0  0  0  0  0  0  0  0  0
   40.0990   31.4490   36.8660 H   0  0  0  0  0  0  0  0  0  0  0  0
   37.5720   31.6990   37.6300 C   0  0  0  0  0  0  0  0  0  0  0  0
   38.0780   32.0960   36.4060 F   0  0  0  0  0  0  0  0  0  0  0  0
   37.0800   32.7800   38.2870 F   0  0  0  0  0  0  0  0  0  0  0  0
   36.6000   30.7450   37.3510 F   0  0  0  0  0  0  0  0  0  0  0  0
  1  6  1  0  0  0  0
  1  7  1  1  0  0  0
  2  3  1  0  0  0  0
  2  1  1  0  0  0  0
  3  4  1  0  0  0  0
  4 12  1  0  0  0  0
  4  5  1  0  0  0  0
  4 13  1  0  0  0  0
  5 14  1  0  0  0  0
  6  5  1  0  0  0  0
  6 16  1  1  0  0  0
  8  2  1  0  0  0  0
  9  2  1  0  0  0  0
 10  3  1  0  0  0  0
 11  3  1  0  0  0  0
 15  5  1  0  0  0  0
 17 19  1  0  0  0  0
 17  6  1  0  0  0  0
 18 17  1  0  0  0  0
 20 17  1  0  0  0  0
 21 20  1  0  0  0  0
 22 20  1  0  0  0  0
 23  1  1  0  0  0  0
 23 24  2  0  0  0  0
 25 30  1  0  0  0  0
 26 27  1  0  0  0  0
 26 25  2  0  0  0  0
 27 28  2  0  0  0  0
 28 29  1  0  0  0  0
 29 23  1  0  0  0  0
 30 29  2  0  0  0  0
 31 25  1  0  0  0  0
 32 26  1  0  0  0  0
 33 35  1  0  0  0  0
 33 27  1  0  0  0  0
 34 33  1  0  0  0  0
 36 33  1  0  0  0  0
M  END
>  <minimizedAffinity>
-5.01996756

$$$$
