
 OpenBabel03252507493D

 37 38  0  0  0  0  0  0  0  0999 V2000
   36.5980   29.1680   40.4640 C   0  0  0  0  0  0  0  0  0  0  0  0
   35.5440   29.2640   40.0720 H   0  0  0  0  0  0  0  0  0  0  0  0
   36.7330   29.7990   41.3450 H   0  0  0  0  0  0  0  0  0  0  0  0
   36.7840   27.7360   40.7450 C   0  0  0  0  0  0  0  0  0  0  0  0
   37.2420   27.4000   42.0080 C   0  0  0  0  0  0  0  0  0  0  0  0
   37.4450   26.0820   42.3640 C   0  0  0  0  0  0  0  0  0  0  0  0
   37.1700   25.1290   41.3930 N   0  0  0  0  0  0  0  0  0  0  0  0
   36.7220   25.5060   40.1670 C   0  0  0  0  0  0  0  0  0  0  0  0
   36.5390   26.7840   39.8630 N   0  0  0  0  0  0  0  0  0  0  0  0
   37.7960   25.7790   43.3250 H   0  0  0  0  0  0  0  0  0  0  0  0
   36.5420   24.6890   39.4960 H   0  0  0  0  0  0  0  0  0  0  0  0
   37.5760   28.6870   43.2070 S   0  0  0  0  0  0  0  0  0  0  0  0
   39.1700   29.4690   42.8590 C   0  0  0  0  0  0  0  0  0  0  0  0
   38.9790   30.2780   42.1230 H   0  0  0  0  0  0  0  0  0  0  0  0
   39.5620   29.9590   43.7700 H   0  0  0  0  0  0  0  0  0  0  0  0
   40.1100   28.4340   42.3050 C   0  0  0  0  0  0  0  0  0  0  0  0
   40.7880   28.7830   41.5470 H   0  0  0  0  0  0  0  0  0  0  0  0
   39.4370   27.7050   41.7600 H   0  0  0  0  0  0  0  0  0  0  0  0
   40.6540   27.6830   43.3940 N   0  0  0  0  0  0  0  0  0  0  0  0
   41.5640   28.0470   43.7500 H   0  0  0  0  0  0  0  0  0  0  0  0
   40.0020   27.6520   44.2180 H   0  0  0  0  0  0  0  0  0  0  0  0
   37.4810   29.6990   39.3770 C   0  0  0  0  0  0  0  0  0  0  0  0
   38.2830   28.9450   39.1530 H   0  0  0  0  0  0  0  0  0  0  0  0
   36.9180   29.7800   38.4110 H   0  0  0  0  0  0  0  0  0  0  0  0
   38.1130   30.9990   39.6930 C   0  0  0  0  0  0  0  0  0  0  0  0
   37.4560   31.9080   40.5720 C   0  0  0  0  0  0  0  0  0  0  0  0
   38.6060   33.3300   40.6440 S   0  0  0  0  0  0  0  0  0  0  0  0
   39.8070   32.4460   39.4520 C   0  0  0  0  0  0  0  0  0  0  0  0
   39.2520   31.4660   39.2620 N   0  0  0  0  0  0  0  0  0  0  0  0
   36.5000   31.7710   41.0720 H   0  0  0  0  0  0  0  0  0  0  0  0
   41.0110   33.0030   39.0290 O   0  0  0  0  0  0  0  0  0  0  0  0
   42.3910   31.4350   37.4030 O   0  0  0  0  0  0  0  0  0  0  0  0
   41.5000   32.6770   37.4370 P   0  0  0  0  0  0  0  0  0  0  0  0
   40.1060   32.3620   36.5140 O   0  0  0  0  0  0  0  0  0  0  0  0
   39.9640   33.0440   35.8030 H   0  0  0  0  0  0  0  0  0  0  0  0
   42.2820   34.0260   36.7790 O   0  0  0  0  0  0  0  0  0  0  0  0
   43.0730   34.2540   37.3250 H   0  0  0  0  0  0  0  0  0  0  0  0
  1  4  1  0  0  0  0
  1  3  1  0  0  0  0
  2  1  1  0  0  0  0
  4  5  1  0  0  0  0
  5  6  2  0  0  0  0
  5 12  1  0  0  0  0
  6 10  1  0  0  0  0
  7  6  1  0  0  0  0
  8  7  2  0  0  0  0
  9  8  1  0  0  0  0
  9  4  2  0  0  0  0
 11  8  1  0  0  0  0
 13 12  1  0  0  0  0
 13 15  1  0  0  0  0
 14 13  1  0  0  0  0
 16 13  1  0  0  0  0
 16 19  1  0  0  0  0
 17 16  1  0  0  0  0
 18 16  1  0  0  0  0
 19 20  1  0  0  0  0
 19 21  1  0  0  0  0
 22 25  1  0  0  0  0
 22  1  1  0  0  0  0
 23 22  1  0  0  0  0
 24 22  1  0  0  0  0
 25 26  2  0  0  0  0
 26 27  1  0  0  0  0
 26 30  1  0  0  0  0
 28 27  1  0  0  0  0
 29 28  2  0  0  0  0
 29 25  1  0  0  0  0
 31 28  1  0  0  0  0
 32 33  2  0  0  0  0
 33 31  1  0  0  0  0
 34 33  1  0  0  0  0
 35 34  1  0  0  0  0
 36 37  1  0  0  0  0
 36 33  1  0  0  0  0
M  END
>  <minimizedAffinity>
-4.87791824

$$$$

 OpenBabel03252507493D

 37 38  0  0  0  0  0  0  0  0999 V2000
   35.6440   29.3190   38.6860 C   0  0  0  0  0  0  0  0  0  0  0  0
   34.7500   30.0000   38.7980 H   0  0  0  0  0  0  0  0  0  0  0  0
   36.3370   29.7230   37.9450 H   0  0  0  0  0  0  0  0  0  0  0  0
   36.2310   29.2160   40.0310 C   0  0  0  0  0  0  0  0  0  0  0  0
   36.9510   30.3070   40.4850 C   0  0  0  0  0  0  0  0  0  0  0  0
   37.5370   30.3040   41.7350 C   0  0  0  0  0  0  0  0  0  0  0  0
   37.3650   29.1550   42.4960 N   0  0  0  0  0  0  0  0  0  0  0  0
   36.6490   28.1080   42.0080 C   0  0  0  0  0  0  0  0  0  0  0  0
   36.1010   28.1510   40.8020 N   0  0  0  0  0  0  0  0  0  0  0  0
   38.1000   31.1220   42.1240 H   0  0  0  0  0  0  0  0  0  0  0  0
   36.5800   27.2750   42.6800 H   0  0  0  0  0  0  0  0  0  0  0  0
   37.1300   31.7530   39.4440 S   0  0  0  0  0  0  0  0  0  0  0  0
   38.8740   32.0230   39.0420 C   0  0  0  0  0  0  0  0  0  0  0  0
   39.0130   33.1190   38.9280 H   0  0  0  0  0  0  0  0  0  0  0  0
   39.5130   31.7130   39.8900 H   0  0  0  0  0  0  0  0  0  0  0  0
   39.2000   31.2920   37.7690 C   0  0  0  0  0  0  0  0  0  0  0  0
   38.5760   30.4440   37.5490 H   0  0  0  0  0  0  0  0  0  0  0  0
   40.2220   30.8430   37.9560 H   0  0  0  0  0  0  0  0  0  0  0  0
   39.4080   32.2550   36.7320 N   0  0  0  0  0  0  0  0  0  0  0  0
   38.5550   32.4690   36.1710 H   0  0  0  0  0  0  0  0  0  0  0  0
   39.7560   33.1740   37.1080 H   0  0  0  0  0  0  0  0  0  0  0  0
   35.1010   28.0280   38.1540 C   0  0  0  0  0  0  0  0  0  0  0  0
   35.8740   27.5470   37.4950 H   0  0  0  0  0  0  0  0  0  0  0  0
   34.9600   27.2850   38.9810 H   0  0  0  0  0  0  0  0  0  0  0  0
   33.8400   28.1720   37.3940 C   0  0  0  0  0  0  0  0  0  0  0  0
   33.4170   27.1270   36.5230 C   0  0  0  0  0  0  0  0  0  0  0  0
   31.8450   27.7610   35.8340 S   0  0  0  0  0  0  0  0  0  0  0  0
   32.0200   29.3650   36.8560 C   0  0  0  0  0  0  0  0  0  0  0  0
   33.0040   29.1730   37.4040 N   0  0  0  0  0  0  0  0  0  0  0  0
   33.9220   26.1840   36.3270 H   0  0  0  0  0  0  0  0  0  0  0  0
   31.0880   30.3990   36.8190 O   0  0  0  0  0  0  0  0  0  0  0  0
   28.7010   29.7740   37.7780 O   0  0  0  0  0  0  0  0  0  0  0  0
   29.9990   30.5080   38.1160 P   0  0  0  0  0  0  0  0  0  0  0  0
   30.7090   29.7480   39.4630 O   0  0  0  0  0  0  0  0  0  0  0  0
   30.8850   30.3870   40.2050 H   0  0  0  0  0  0  0  0  0  0  0  0
   29.7180   32.1300   38.5060 O   0  0  0  0  0  0  0  0  0  0  0  0
   29.3440   32.6030   37.7240 H   0  0  0  0  0  0  0  0  0  0  0  0
  1  2  1  0  0  0  0
  1  4  1  0  0  0  0
  3  1  1  0  0  0  0
  4  5  2  0  0  0  0
  4  9  1  0  0  0  0
  5  6  1  0  0  0  0
  6 10  1  0  0  0  0
  6  7  2  0  0  0  0
  8  7  1  0  0  0  0
  8 11  1  0  0  0  0
  9  8  2  0  0  0  0
 12  5  1  0  0  0  0
 13 12  1  0  0  0  0
 13 15  1  0  0  0  0
 14 13  1  0  0  0  0
 16 18  1  0  0  0  0
 16 13  1  0  0  0  0
 17 16  1  0  0  0  0
 19 21  1  0  0  0  0
 19 16  1  0  0  0  0
 20 19  1  0  0  0  0
 22  1  1  0  0  0  0
 22 24  1  0  0  0  0
 23 22  1  0  0  0  0
 25 29  1  0  0  0  0
 25 22  1  0  0  0  0
 26 25  2  0  0  0  0
 27 26  1  0  0  0  0
 27 28  1  0  0  0  0
 28 29  2  0  0  0  0
 30 26  1  0  0  0  0
 31 28  1  0  0  0  0
 31 33  1  0  0  0  0
 32 33  2  0  0  0  0
 33 36  1  0  0  0  0
 33 34  1  0  0  0  0
 34 35  1  0  0  0  0
 37 36  1  0  0  0  0
M  END
>  <minimizedAffinity>
-4.86411285

$$$$

 OpenBabel03252507493D

 37 38  0  0  0  0  0  0  0  0999 V2000
   36.8220   26.9880   42.6900 C   0  0  0  0  0  0  0  0  0  0  0  0
   36.4410   27.7710   41.9700 H   0  0  0  0  0  0  0  0  0  0  0  0
   35.9980   26.5860   43.2830 H   0  0  0  0  0  0  0  0  0  0  0  0
   37.4810   25.9730   41.8540 C   0  0  0  0  0  0  0  0  0  0  0  0
   37.3700   26.1230   40.4820 C   0  0  0  0  0  0  0  0  0  0  0  0
   37.9560   25.2220   39.6170 C   0  0  0  0  0  0  0  0  0  0  0  0
   38.6520   24.1690   40.1980 N   0  0  0  0  0  0  0  0  0  0  0  0
   38.7330   24.0620   41.5500 C   0  0  0  0  0  0  0  0  0  0  0  0
   38.1570   24.9500   42.3470 N   0  0  0  0  0  0  0  0  0  0  0  0
   37.8960   25.2990   38.5540 H   0  0  0  0  0  0  0  0  0  0  0  0
   39.2940   23.2130   41.8890 H   0  0  0  0  0  0  0  0  0  0  0  0
   36.4560   27.5070   39.8080 S   0  0  0  0  0  0  0  0  0  0  0  0
   35.5170   26.9870   38.3510 C   0  0  0  0  0  0  0  0  0  0  0  0
   36.2580   26.6830   37.5810 H   0  0  0  0  0  0  0  0  0  0  0  0
   34.9200   26.0860   38.5840 H   0  0  0  0  0  0  0  0  0  0  0  0
   34.6730   28.1380   37.8770 C   0  0  0  0  0  0  0  0  0  0  0  0
   33.6680   28.1630   38.2580 H   0  0  0  0  0  0  0  0  0  0  0  0
   34.5440   27.9550   36.7670 H   0  0  0  0  0  0  0  0  0  0  0  0
   35.4500   29.3360   37.9620 N   0  0  0  0  0  0  0  0  0  0  0  0
   35.3300   29.8600   38.8550 H   0  0  0  0  0  0  0  0  0  0  0  0
   36.4800   29.1490   37.8610 H   0  0  0  0  0  0  0  0  0  0  0  0
   37.7470   27.7120   43.6180 C   0  0  0  0  0  0  0  0  0  0  0  0
   37.1420   28.2420   44.4030 H   0  0  0  0  0  0  0  0  0  0  0  0
   38.3680   26.9890   44.2070 H   0  0  0  0  0  0  0  0  0  0  0  0
   38.6300   28.6910   42.9460 C   0  0  0  0  0  0  0  0  0  0  0  0
   40.0280   28.4350   42.8550 C   0  0  0  0  0  0  0  0  0  0  0  0
   40.6690   29.8990   41.9630 S   0  0  0  0  0  0  0  0  0  0  0  0
   38.9090   30.6310   41.8570 C   0  0  0  0  0  0  0  0  0  0  0  0
   38.2990   29.8240   42.3900 N   0  0  0  0  0  0  0  0  0  0  0  0
   40.5690   27.5700   43.2320 H   0  0  0  0  0  0  0  0  0  0  0  0
   38.6240   31.8500   41.2470 O   0  0  0  0  0  0  0  0  0  0  0  0
   37.4660   31.0970   38.9880 O   0  0  0  0  0  0  0  0  0  0  0  0
   37.2450   31.9200   40.2590 P   0  0  0  0  0  0  0  0  0  0  0  0
   35.9470   31.2370   41.1200 O   0  0  0  0  0  0  0  0  0  0  0  0
   35.2320   31.9030   41.3130 H   0  0  0  0  0  0  0  0  0  0  0  0
   36.8630   33.5290   39.9040 O   0  0  0  0  0  0  0  0  0  0  0  0
   37.6210   33.9600   39.4400 H   0  0  0  0  0  0  0  0  0  0  0  0
  1  3  1  0  0  0  0
  1 22  1  0  0  0  0
  2  1  1  0  0  0  0
  4  9  1  0  0  0  0
  4  1  1  0  0  0  0
  5  4  2  0  0  0  0
  6  7  2  0  0  0  0
  6  5  1  0  0  0  0
  7  8  1  0  0  0  0
  8 11  1  0  0  0  0
  8  9  2  0  0  0  0
 10  6  1  0  0  0  0
 12  5  1  0  0  0  0
 13 15  1  0  0  0  0
 13 12  1  0  0  0  0
 14 13  1  0  0  0  0
 16 19  1  0  0  0  0
 16 17  1  0  0  0  0
 16 13  1  0  0  0  0
 18 16  1  0  0  0  0
 19 20  1  0  0  0  0
 21 19  1  0  0  0  0
 22 24  1  0  0  0  0
 22 23  1  0  0  0  0
 25 22  1  0  0  0  0
 26 25  2  0  0  0  0
 26 30  1  0  0  0  0
 27 26  1  0  0  0  0
 28 27  1  0  0  0  0
 28 29  2  0  0  0  0
 29 25  1  0  0  0  0
 31 28  1  0  0  0  0
 32 33  2  0  0  0  0
 33 34  1  0  0  0  0
 33 31  1  0  0  0  0
 34 35  1  0  0  0  0
 36 33  1  0  0  0  0
 37 36  1  0  0  0  0
M  END
>  <minimizedAffinity>
-4.85135698

$$$$

 OpenBabel03252507493D

 37 38  0  0  0  0  0  0  0  0999 V2000
   39.7300   31.1130   42.6270 C   0  0  0  0  0  0  0  0  0  0  0  0
   39.5320   31.9000   41.8410 H   0  0  0  0  0  0  0  0  0  0  0  0
   39.6870   31.5550   43.6240 H   0  0  0  0  0  0  0  0  0  0  0  0
   38.7110   30.0750   42.4100 C   0  0  0  0  0  0  0  0  0  0  0  0
   37.8930   30.2220   41.3030 C   0  0  0  0  0  0  0  0  0  0  0  0
   36.9090   29.2980   41.0170 C   0  0  0  0  0  0  0  0  0  0  0  0
   36.7890   28.2290   41.8960 N   0  0  0  0  0  0  0  0  0  0  0  0
   37.6140   28.1270   42.9700 C   0  0  0  0  0  0  0  0  0  0  0  0
   38.5490   29.0360   43.2100 N   0  0  0  0  0  0  0  0  0  0  0  0
   36.2560   29.3720   40.1750 H   0  0  0  0  0  0  0  0  0  0  0  0
   37.4340   27.2630   43.5800 H   0  0  0  0  0  0  0  0  0  0  0  0
   38.1080   31.6280   40.2160 S   0  0  0  0  0  0  0  0  0  0  0  0
   39.3050   31.2360   38.9150 C   0  0  0  0  0  0  0  0  0  0  0  0
   40.2490   31.7600   39.1780 H   0  0  0  0  0  0  0  0  0  0  0  0
   39.5340   30.1540   38.9210 H   0  0  0  0  0  0  0  0  0  0  0  0
   38.7630   31.7100   37.5950 C   0  0  0  0  0  0  0  0  0  0  0  0
   37.8420   32.2630   37.6440 H   0  0  0  0  0  0  0  0  0  0  0  0
   38.4850   30.7590   37.0470 H   0  0  0  0  0  0  0  0  0  0  0  0
   39.8380   32.2680   36.8350 N   0  0  0  0  0  0  0  0  0  0  0  0
   39.9490   33.2990   36.9470 H   0  0  0  0  0  0  0  0  0  0  0  0
   40.7650   31.8400   37.0860 H   0  0  0  0  0  0  0  0  0  0  0  0
   41.1340   30.6520   42.3870 C   0  0  0  0  0  0  0  0  0  0  0  0
   41.5210   30.1490   43.3140 H   0  0  0  0  0  0  0  0  0  0  0  0
   41.1610   29.8390   41.6160 H   0  0  0  0  0  0  0  0  0  0  0  0
   42.0670   31.7340   41.9980 C   0  0  0  0  0  0  0  0  0  0  0  0
   43.1590   32.0640   42.8510 C   0  0  0  0  0  0  0  0  0  0  0  0
   43.9950   33.4250   41.9570 S   0  0  0  0  0  0  0  0  0  0  0  0
   42.7070   33.3220   40.5520 C   0  0  0  0  0  0  0  0  0  0  0  0
   42.0360   32.4750   40.9260 N   0  0  0  0  0  0  0  0  0  0  0  0
   43.4190   31.6060   43.8020 H   0  0  0  0  0  0  0  0  0  0  0  0
   42.7320   34.1470   39.4300 O   0  0  0  0  0  0  0  0  0  0  0  0
   44.7160   33.5630   37.7770 O   0  0  0  0  0  0  0  0  0  0  0  0
   43.2020   33.4430   37.9600 P   0  0  0  0  0  0  0  0  0  0  0  0
   42.7980   31.7910   38.0160 O   0  0  0  0  0  0  0  0  0  0  0  0
   42.1090   31.5500   37.3400 H   0  0  0  0  0  0  0  0  0  0  0  0
   42.3590   34.1540   36.6770 O   0  0  0  0  0  0  0  0  0  0  0  0
   42.5440   35.1240   36.6500 H   0  0  0  0  0  0  0  0  0  0  0  0
  1  3  1  0  0  0  0
  2  1  1  0  0  0  0
  4  1  1  0  0  0  0
  4  9  1  0  0  0  0
  5  4  2  0  0  0  0
  6  5  1  0  0  0  0
  6  7  2  0  0  0  0
  7  8  1  0  0  0  0
  8  9  2  0  0  0  0
  8 11  1  0  0  0  0
 10  6  1  0  0  0  0
 12  5  1  0  0  0  0
 13 15  1  0  0  0  0
 13 14  1  0  0  0  0
 13 12  1  0  0  0  0
 16 17  1  0  0  0  0
 16 13  1  0  0  0  0
 18 16  1  0  0  0  0
 19 20  1  0  0  0  0
 19 21  1  0  0  0  0
 19 16  1  0  0  0  0
 22  1  1  0  0  0  0
 22 23  1  0  0  0  0
 24 22  1  0  0  0  0
 25 22  1  0  0  0  0
 25 26  2  0  0  0  0
 26 30  1  0  0  0  0
 27 26  1  0  0  0  0
 28 29  2  0  0  0  0
 28 27  1  0  0  0  0
 29 25  1  0  0  0  0
 31 28  1  0  0  0  0
 32 33  2  0  0  0  0
 33 34  1  0  0  0  0
 33 31  1  0  0  0  0
 35 34  1  0  0  0  0
 36 33  1  0  0  0  0
 37 36  1  0  0  0  0
M  END
>  <minimizedAffinity>
-4.78465271

$$$$

 OpenBabel03252507493D

 37 38  0  0  0  0  0  0  0  0999 V2000
   38.7820   26.1810   38.7520 C   0  0  0  0  0  0  0  0  0  0  0  0
   39.1020   27.1710   39.1920 H   0  0  0  0  0  0  0  0  0  0  0  0
   39.6470   25.6480   38.3530 H   0  0  0  0  0  0  0  0  0  0  0  0
   38.1140   25.4610   39.8470 C   0  0  0  0  0  0  0  0  0  0  0  0
   38.1460   26.0540   41.0980 C   0  0  0  0  0  0  0  0  0  0  0  0
   37.5450   25.4540   42.1860 C   0  0  0  0  0  0  0  0  0  0  0  0
   36.9180   24.2370   41.9540 N   0  0  0  0  0  0  0  0  0  0  0  0
   36.9120   23.6930   40.7090 C   0  0  0  0  0  0  0  0  0  0  0  0
   37.5010   24.3020   39.6890 N   0  0  0  0  0  0  0  0  0  0  0  0
   37.5460   25.8760   43.1670 H   0  0  0  0  0  0  0  0  0  0  0  0
   36.4000   22.7530   40.6440 H   0  0  0  0  0  0  0  0  0  0  0  0
   38.9750   27.6260   41.3190 S   0  0  0  0  0  0  0  0  0  0  0  0
   39.0810   28.0350   43.0790 C   0  0  0  0  0  0  0  0  0  0  0  0
   38.5900   27.2070   43.6330 H   0  0  0  0  0  0  0  0  0  0  0  0
   40.1380   28.0480   43.4040 H   0  0  0  0  0  0  0  0  0  0  0  0
   38.3820   29.3450   43.3170 C   0  0  0  0  0  0  0  0  0  0  0  0
   38.7500   30.1770   42.7440 H   0  0  0  0  0  0  0  0  0  0  0  0
   38.6390   29.6110   44.3880 H   0  0  0  0  0  0  0  0  0  0  0  0
   36.9710   29.1130   43.3280 N   0  0  0  0  0  0  0  0  0  0  0  0
   36.5090   29.2490   42.4030 H   0  0  0  0  0  0  0  0  0  0  0  0
   36.7320   28.1370   43.6400 H   0  0  0  0  0  0  0  0  0  0  0  0
   37.8820   26.5240   37.6060 C   0  0  0  0  0  0  0  0  0  0  0  0
   38.5080   26.8460   36.7290 H   0  0  0  0  0  0  0  0  0  0  0  0
   37.3510   25.6110   37.2290 H   0  0  0  0  0  0  0  0  0  0  0  0
   36.8940   27.5820   37.9100 C   0  0  0  0  0  0  0  0  0  0  0  0
   35.5110   27.2520   38.0020 C   0  0  0  0  0  0  0  0  0  0  0  0
   34.7180   28.8560   38.3850 S   0  0  0  0  0  0  0  0  0  0  0  0
   36.4170   29.7270   38.3560 C   0  0  0  0  0  0  0  0  0  0  0  0
   37.1120   28.8510   38.1190 N   0  0  0  0  0  0  0  0  0  0  0  0
   35.0550   26.2730   37.8730 H   0  0  0  0  0  0  0  0  0  0  0  0
   36.5810   31.0900   38.5890 O   0  0  0  0  0  0  0  0  0  0  0  0
   38.3670   31.0990   40.5430 O   0  0  0  0  0  0  0  0  0  0  0  0
   36.9580   31.5670   40.1730 P   0  0  0  0  0  0  0  0  0  0  0  0
   36.9250   33.2660   40.2320 O   0  0  0  0  0  0  0  0  0  0  0  0
   36.2070   33.6080   40.8310 H   0  0  0  0  0  0  0  0  0  0  0  0
   35.7990   30.9730   41.2520 O   0  0  0  0  0  0  0  0  0  0  0  0
   35.7700   29.9870   41.2050 H   0  0  0  0  0  0  0  0  0  0  0  0
  1  2  1  0  0  0  0
  1  4  1  0  0  0  0
  3  1  1  0  0  0  0
  4  5  1  0  0  0  0
  5 12  1  0  0  0  0
  5  6  2  0  0  0  0
  6 10  1  0  0  0  0
  7  6  1  0  0  0  0
  8  7  2  0  0  0  0
  9  4  2  0  0  0  0
  9  8  1  0  0  0  0
 11  8  1  0  0  0  0
 12 13  1  0  0  0  0
 13 16  1  0  0  0  0
 13 15  1  0  0  0  0
 13 14  1  0  0  0  0
 16 19  1  0  0  0  0
 16 18  1  0  0  0  0
 17 16  1  0  0  0  0
 19 21  1  0  0  0  0
 20 19  1  0  0  0  0
 22 25  1  0  0  0  0
 22  1  1  0  0  0  0
 23 22  1  0  0  0  0
 24 22  1  0  0  0  0
 25 26  2  0  0  0  0
 25 29  1  0  0  0  0
 26 27  1  0  0  0  0
 28 27  1  0  0  0  0
 28 31  1  0  0  0  0
 29 28  2  0  0  0  0
 30 26  1  0  0  0  0
 31 33  1  0  0  0  0
 33 34  1  0  0  0  0
 33 32  2  0  0  0  0
 33 36  1  0  0  0  0
 34 35  1  0  0  0  0
 37 36  1  0  0  0  0
M  END
>  <minimizedAffinity>
-4.76188183

$$$$

 OpenBabel03252507493D

 37 38  0  0  0  0  0  0  0  0999 V2000
   40.6960   31.0370   40.9740 C   0  0  0  0  0  0  0  0  0  0  0  0
   41.4200   31.6960   41.5380 H   0  0  0  0  0  0  0  0  0  0  0  0
   39.6700   31.2590   41.2740 H   0  0  0  0  0  0  0  0  0  0  0  0
   40.9520   31.3010   39.5490 C   0  0  0  0  0  0  0  0  0  0  0  0
   41.0080   32.6280   39.1590 C   0  0  0  0  0  0  0  0  0  0  0  0
   41.2450   32.9740   37.8440 C   0  0  0  0  0  0  0  0  0  0  0  0
   41.4170   31.9250   36.9500 N   0  0  0  0  0  0  0  0  0  0  0  0
   41.3540   30.6380   37.3790 C   0  0  0  0  0  0  0  0  0  0  0  0
   41.1250   30.3470   38.6520 N   0  0  0  0  0  0  0  0  0  0  0  0
   41.2960   33.9830   37.4990 H   0  0  0  0  0  0  0  0  0  0  0  0
   41.5020   29.9100   36.6050 H   0  0  0  0  0  0  0  0  0  0  0  0
   40.7750   33.9250   40.3710 S   0  0  0  0  0  0  0  0  0  0  0  0
   39.0110   34.1590   40.7050 C   0  0  0  0  0  0  0  0  0  0  0  0
   38.8090   33.7100   41.7010 H   0  0  0  0  0  0  0  0  0  0  0  0
   38.7800   35.2370   40.7930 H   0  0  0  0  0  0  0  0  0  0  0  0
   38.2160   33.4790   39.6250 C   0  0  0  0  0  0  0  0  0  0  0  0
   38.7520   32.7500   39.0450 H   0  0  0  0  0  0  0  0  0  0  0  0
   37.9820   34.3050   38.8850 H   0  0  0  0  0  0  0  0  0  0  0  0
   36.9460   33.1030   40.1640 N   0  0  0  0  0  0  0  0  0  0  0  0
   36.9130   32.1310   40.5390 H   0  0  0  0  0  0  0  0  0  0  0  0
   36.6440   33.7360   40.9470 H   0  0  0  0  0  0  0  0  0  0  0  0
   41.0100   29.6370   41.4030 C   0  0  0  0  0  0  0  0  0  0  0  0
   41.4400   29.0720   40.5320 H   0  0  0  0  0  0  0  0  0  0  0  0
   41.8380   29.6280   42.1590 H   0  0  0  0  0  0  0  0  0  0  0  0
   39.8460   28.8940   41.9340 C   0  0  0  0  0  0  0  0  0  0  0  0
   39.9990   28.0750   43.0900 C   0  0  0  0  0  0  0  0  0  0  0  0
   38.3230   27.3870   43.3440 S   0  0  0  0  0  0  0  0  0  0  0  0
   37.6780   28.3360   41.8180 C   0  0  0  0  0  0  0  0  0  0  0  0
   38.6250   28.8750   41.4750 N   0  0  0  0  0  0  0  0  0  0  0  0
   40.9040   27.9110   43.6700 H   0  0  0  0  0  0  0  0  0  0  0  0
   36.3580   28.2720   41.3800 O   0  0  0  0  0  0  0  0  0  0  0  0
   34.4200   29.2320   39.8520 O   0  0  0  0  0  0  0  0  0  0  0  0
   35.7820   29.5760   40.4580 P   0  0  0  0  0  0  0  0  0  0  0  0
   35.5860   30.9080   41.4980 O   0  0  0  0  0  0  0  0  0  0  0  0
   36.1970   31.6590   41.2660 H   0  0  0  0  0  0  0  0  0  0  0  0
   36.9100   29.9900   39.2670 O   0  0  0  0  0  0  0  0  0  0  0  0
   37.0730   29.2170   38.6750 H   0  0  0  0  0  0  0  0  0  0  0  0
  1  3  1  0  0  0  0
  1 22  1  0  0  0  0
  1  2  1  0  0  0  0
  4  1  1  0  0  0  0
  5  4  1  0  0  0  0
  5 12  1  0  0  0  0
  6  5  2  0  0  0  0
  7  8  2  0  0  0  0
  7  6  1  0  0  0  0
  8  9  1  0  0  0  0
  9  4  2  0  0  0  0
 10  6  1  0  0  0  0
 11  8  1  0  0  0  0
 12 13  1  0  0  0  0
 13 15  1  0  0  0  0
 13 14  1  0  0  0  0
 16 19  1  0  0  0  0
 16 13  1  0  0  0  0
 17 16  1  0  0  0  0
 18 16  1  0  0  0  0
 19 20  1  0  0  0  0
 19 21  1  0  0  0  0
 22 25  1  0  0  0  0
 22 24  1  0  0  0  0
 23 22  1  0  0  0  0
 25 26  2  0  0  0  0
 26 27  1  0  0  0  0
 26 30  1  0  0  0  0
 28 27  1  0  0  0  0
 29 28  2  0  0  0  0
 29 25  1  0  0  0  0
 31 28  1  0  0  0  0
 32 33  2  0  0  0  0
 33 31  1  0  0  0  0
 33 34  1  0  0  0  0
 35 34  1  0  0  0  0
 36 33  1  0  0  0  0
 37 36  1  0  0  0  0
M  END
>  <minimizedAffinity>
-4.75760412

$$$$

 OpenBabel03252507493D

 37 38  0  0  0  0  0  0  0  0999 V2000
   38.6280   29.9380   40.8000 C   0  0  0  0  0  0  0  0  0  0  0  0
   37.8020   29.3870   40.2620 H   0  0  0  0  0  0  0  0  0  0  0  0
   39.6030   29.5750   40.4700 H   0  0  0  0  0  0  0  0  0  0  0  0
   38.4100   31.3620   40.5000 C   0  0  0  0  0  0  0  0  0  0  0  0
   37.5000   31.6590   39.5000 C   0  0  0  0  0  0  0  0  0  0  0  0
   37.2290   32.9660   39.1500 C   0  0  0  0  0  0  0  0  0  0  0  0
   37.9150   33.9500   39.8500 N   0  0  0  0  0  0  0  0  0  0  0  0
   38.7990   33.6100   40.8240 C   0  0  0  0  0  0  0  0  0  0  0  0
   39.0320   32.3420   41.1310 N   0  0  0  0  0  0  0  0  0  0  0  0
   36.5360   33.2400   38.3850 H   0  0  0  0  0  0  0  0  0  0  0  0
   39.2710   34.4490   41.2990 H   0  0  0  0  0  0  0  0  0  0  0  0
   36.6540   30.3350   38.6420 S   0  0  0  0  0  0  0  0  0  0  0  0
   37.2290   30.2310   36.9290 C   0  0  0  0  0  0  0  0  0  0  0  0
   36.4030   30.6070   36.2880 H   0  0  0  0  0  0  0  0  0  0  0  0
   38.0840   30.9150   36.7720 H   0  0  0  0  0  0  0  0  0  0  0  0
   37.5620   28.7990   36.6120 C   0  0  0  0  0  0  0  0  0  0  0  0
   36.9880   28.0620   37.1440 H   0  0  0  0  0  0  0  0  0  0  0  0
   38.6170   28.6630   37.0010 H   0  0  0  0  0  0  0  0  0  0  0  0
   37.6760   28.6620   35.1930 N   0  0  0  0  0  0  0  0  0  0  0  0
   36.7940   28.3650   34.7210 H   0  0  0  0  0  0  0  0  0  0  0  0
   37.9750   29.5580   34.7300 H   0  0  0  0  0  0  0  0  0  0  0  0
   38.4700   29.5850   42.2460 C   0  0  0  0  0  0  0  0  0  0  0  0
   39.2060   30.1790   42.8530 H   0  0  0  0  0  0  0  0  0  0  0  0
   37.4740   29.9260   42.6330 H   0  0  0  0  0  0  0  0  0  0  0  0
   38.6500   28.1460   42.5400 C   0  0  0  0  0  0  0  0  0  0  0  0
   39.8640   27.6920   43.1290 C   0  0  0  0  0  0  0  0  0  0  0  0
   39.6070   25.8880   43.2890 S   0  0  0  0  0  0  0  0  0  0  0  0
   37.8670   26.0460   42.5200 C   0  0  0  0  0  0  0  0  0  0  0  0
   37.8100   27.1710   42.3270 N   0  0  0  0  0  0  0  0  0  0  0  0
   40.7280   28.2910   43.4090 H   0  0  0  0  0  0  0  0  0  0  0  0
   37.0190   24.9600   42.3190 O   0  0  0  0  0  0  0  0  0  0  0  0
   38.0350   24.8850   39.8760 O   0  0  0  0  0  0  0  0  0  0  0  0
   37.2140   24.0780   40.8830 P   0  0  0  0  0  0  0  0  0  0  0  0
   38.0680   22.6540   41.2530 O   0  0  0  0  0  0  0  0  0  0  0  0
   37.5220   21.8360   41.0950 H   0  0  0  0  0  0  0  0  0  0  0  0
   35.7030   23.6450   40.2550 O   0  0  0  0  0  0  0  0  0  0  0  0
   35.1710   24.4570   40.0710 H   0  0  0  0  0  0  0  0  0  0  0  0
  1 22  1  0  0  0  0
  2  1  1  0  0  0  0
  3  1  1  0  0  0  0
  4  1  1  0  0  0  0
  4  9  1  0  0  0  0
  5  4  2  0  0  0  0
  6  5  1  0  0  0  0
  6  7  2  0  0  0  0
  7  8  1  0  0  0  0
  8  9  2  0  0  0  0
  8 11  1  0  0  0  0
 10  6  1  0  0  0  0
 12  5  1  0  0  0  0
 13 12  1  0  0  0  0
 14 13  1  0  0  0  0
 15 13  1  0  0  0  0
 16 13  1  0  0  0  0
 16 18  1  0  0  0  0
 16 17  1  0  0  0  0
 19 16  1  0  0  0  0
 20 19  1  0  0  0  0
 21 19  1  0  0  0  0
 22 25  1  0  0  0  0
 22 24  1  0  0  0  0
 22 23  1  0  0  0  0
 25 26  2  0  0  0  0
 26 27  1  0  0  0  0
 26 30  1  0  0  0  0
 28 27  1  0  0  0  0
 29 28  2  0  0  0  0
 29 25  1  0  0  0  0
 31 28  1  0  0  0  0
 32 33  2  0  0  0  0
 33 34  1  0  0  0  0
 33 31  1  0  0  0  0
 35 34  1  0  0  0  0
 36 33  1  0  0  0  0
 37 36  1  0  0  0  0
M  END
>  <minimizedAffinity>
-4.67784405

$$$$

 OpenBabel03252507493D

 37 38  0  0  0  0  0  0  0  0999 V2000
   37.3380   27.7110   43.0290 C   0  0  0  0  0  0  0  0  0  0  0  0
   36.4090   27.5550   43.6520 H   0  0  0  0  0  0  0  0  0  0  0  0
   38.1430   27.0630   43.3810 H   0  0  0  0  0  0  0  0  0  0  0  0
   36.9340   27.4290   41.6430 C   0  0  0  0  0  0  0  0  0  0  0  0
   37.2600   26.1820   41.1380 C   0  0  0  0  0  0  0  0  0  0  0  0
   36.9200   25.8260   39.8480 C   0  0  0  0  0  0  0  0  0  0  0  0
   36.2450   26.7810   39.0990 N   0  0  0  0  0  0  0  0  0  0  0  0
   35.9470   27.9920   39.6380 C   0  0  0  0  0  0  0  0  0  0  0  0
   36.2890   28.2960   40.8820 N   0  0  0  0  0  0  0  0  0  0  0  0
   37.1520   24.8770   39.4180 H   0  0  0  0  0  0  0  0  0  0  0  0
   35.4240   28.6510   38.9720 H   0  0  0  0  0  0  0  0  0  0  0  0
   38.1320   25.0030   42.1640 S   0  0  0  0  0  0  0  0  0  0  0  0
   39.9110   25.0890   41.8420 C   0  0  0  0  0  0  0  0  0  0  0  0
   40.1620   24.2310   41.1830 H   0  0  0  0  0  0  0  0  0  0  0  0
   40.1520   26.0050   41.2700 H   0  0  0  0  0  0  0  0  0  0  0  0
   40.6480   25.0100   43.1510 C   0  0  0  0  0  0  0  0  0  0  0  0
   40.1580   24.4470   43.9250 H   0  0  0  0  0  0  0  0  0  0  0  0
   40.6470   26.0730   43.5400 H   0  0  0  0  0  0  0  0  0  0  0  0
   42.0230   24.7200   42.8830 N   0  0  0  0  0  0  0  0  0  0  0  0
   42.2570   23.7040   42.9040 H   0  0  0  0  0  0  0  0  0  0  0  0
   42.3260   25.0770   41.9410 H   0  0  0  0  0  0  0  0  0  0  0  0
   37.7490   29.1300   43.2700 C   0  0  0  0  0  0  0  0  0  0  0  0
   36.9670   29.8180   42.8480 H   0  0  0  0  0  0  0  0  0  0  0  0
   37.7450   29.3660   44.3660 H   0  0  0  0  0  0  0  0  0  0  0  0
   39.0650   29.4840   42.6930 C   0  0  0  0  0  0  0  0  0  0  0  0
   40.1770   28.6140   42.8840 C   0  0  0  0  0  0  0  0  0  0  0  0
   41.5360   29.4660   42.0040 S   0  0  0  0  0  0  0  0  0  0  0  0
   40.3570   30.8850   41.5130 C   0  0  0  0  0  0  0  0  0  0  0  0
   39.3790   30.5380   41.9910 N   0  0  0  0  0  0  0  0  0  0  0  0
   40.1940   27.6710   43.4260 H   0  0  0  0  0  0  0  0  0  0  0  0
   40.7580   31.9860   40.7600 O   0  0  0  0  0  0  0  0  0  0  0  0
   38.5190   32.1140   39.3540 O   0  0  0  0  0  0  0  0  0  0  0  0
   39.5360   32.9690   40.1110 P   0  0  0  0  0  0  0  0  0  0  0  0
   38.7370   33.7350   41.4030 O   0  0  0  0  0  0  0  0  0  0  0  0
   38.8540   34.7230   41.3840 H   0  0  0  0  0  0  0  0  0  0  0  0
   40.2120   34.1610   39.1200 O   0  0  0  0  0  0  0  0  0  0  0  0
   40.7180   33.7390   38.3840 H   0  0  0  0  0  0  0  0  0  0  0  0
  1 22  1  0  0  0  0
  1  3  1  0  0  0  0
  1  2  1  0  0  0  0
  4  1  1  0  0  0  0
  5  4  1  0  0  0  0
  5 12  1  0  0  0  0
  6  5  2  0  0  0  0
  7  8  2  0  0  0  0
  7  6  1  0  0  0  0
  8  9  1  0  0  0  0
  9  4  2  0  0  0  0
 10  6  1  0  0  0  0
 11  8  1  0  0  0  0
 13 12  1  0  0  0  0
 13 16  1  0  0  0  0
 14 13  1  0  0  0  0
 15 13  1  0  0  0  0
 16 18  1  0  0  0  0
 16 17  1  0  0  0  0
 19 20  1  0  0  0  0
 19 16  1  0  0  0  0
 21 19  1  0  0  0  0
 22 24  1  0  0  0  0
 23 22  1  0  0  0  0
 25 26  2  0  0  0  0
 25 22  1  0  0  0  0
 26 30  1  0  0  0  0
 27 26  1  0  0  0  0
 28 29  2  0  0  0  0
 28 27  1  0  0  0  0
 29 25  1  0  0  0  0
 31 28  1  0  0  0  0
 32 33  2  0  0  0  0
 33 31  1  0  0  0  0
 33 34  1  0  0  0  0
 35 34  1  0  0  0  0
 36 33  1  0  0  0  0
 37 36  1  0  0  0  0
M  END
>  <minimizedAffinity>
-4.67530251

$$$$

 OpenBabel03252507493D

 37 38  0  0  0  0  0  0  0  0999 V2000
   39.2530   27.9170   42.7890 C   0  0  0  0  0  0  0  0  0  0  0  0
   39.5840   27.7150   43.8500 H   0  0  0  0  0  0  0  0  0  0  0  0
   40.0900   28.2910   42.1960 H   0  0  0  0  0  0  0  0  0  0  0  0
   38.7190   26.6380   42.2950 C   0  0  0  0  0  0  0  0  0  0  0  0
   39.5100   25.9330   41.4040 C   0  0  0  0  0  0  0  0  0  0  0  0
   39.0940   24.7230   40.8870 C   0  0  0  0  0  0  0  0  0  0  0  0
   37.8520   24.2650   41.3060 N   0  0  0  0  0  0  0  0  0  0  0  0
   37.1100   24.9920   42.1820 C   0  0  0  0  0  0  0  0  0  0  0  0
   37.5460   26.1510   42.6560 N   0  0  0  0  0  0  0  0  0  0  0  0
   39.6710   24.1460   40.1980 H   0  0  0  0  0  0  0  0  0  0  0  0
   36.1690   24.5440   42.4360 H   0  0  0  0  0  0  0  0  0  0  0  0
   41.1010   26.5880   40.9100 S   0  0  0  0  0  0  0  0  0  0  0  0
   42.4100   25.3900   41.2670 C   0  0  0  0  0  0  0  0  0  0  0  0
   41.9130   24.4110   41.4360 H   0  0  0  0  0  0  0  0  0  0  0  0
   43.0620   25.2630   40.3840 H   0  0  0  0  0  0  0  0  0  0  0  0
   43.1640   25.8410   42.4890 C   0  0  0  0  0  0  0  0  0  0  0  0
   42.9510   26.8410   42.8200 H   0  0  0  0  0  0  0  0  0  0  0  0
   44.2440   25.8840   42.1520 H   0  0  0  0  0  0  0  0  0  0  0  0
   43.1250   24.7920   43.4600 N   0  0  0  0  0  0  0  0  0  0  0  0
   42.3420   24.8730   44.1440 H   0  0  0  0  0  0  0  0  0  0  0  0
   43.0370   23.8430   43.0150 H   0  0  0  0  0  0  0  0  0  0  0  0
   38.2340   29.0090   42.8880 C   0  0  0  0  0  0  0  0  0  0  0  0
   37.2940   28.5970   43.3460 H   0  0  0  0  0  0  0  0  0  0  0  0
   38.5600   29.7950   43.6170 H   0  0  0  0  0  0  0  0  0  0  0  0
   37.9010   29.6430   41.5920 C   0  0  0  0  0  0  0  0  0  0  0  0
   36.6340   30.2690   41.4170 C   0  0  0  0  0  0  0  0  0  0  0  0
   36.7020   30.8860   39.6960 S   0  0  0  0  0  0  0  0  0  0  0  0
   38.4650   30.1810   39.4910 C   0  0  0  0  0  0  0  0  0  0  0  0
   38.6410   29.7180   40.5200 N   0  0  0  0  0  0  0  0  0  0  0  0
   35.8310   30.3520   42.1450 H   0  0  0  0  0  0  0  0  0  0  0  0
   39.2020   30.2970   38.3150 O   0  0  0  0  0  0  0  0  0  0  0  0
   39.8220   32.6980   39.2430 O   0  0  0  0  0  0  0  0  0  0  0  0
   40.0950   31.7230   38.0960 P   0  0  0  0  0  0  0  0  0  0  0  0
   41.7470   31.3170   38.1200 O   0  0  0  0  0  0  0  0  0  0  0  0
   42.1900   31.4950   37.2460 H   0  0  0  0  0  0  0  0  0  0  0  0
   39.7360   32.4110   36.5920 O   0  0  0  0  0  0  0  0  0  0  0  0
   38.7720   32.6160   36.5390 H   0  0  0  0  0  0  0  0  0  0  0  0
  1 22  1  0  0  0  0
  1  2  1  0  0  0  0
  3  1  1  0  0  0  0
  4  9  1  0  0  0  0
  4  1  1  0  0  0  0
  5  4  2  0  0  0  0
  6  7  2  0  0  0  0
  6  5  1  0  0  0  0
  7  8  1  0  0  0  0
  8 11  1  0  0  0  0
  8  9  2  0  0  0  0
 10  6  1  0  0  0  0
 12 13  1  0  0  0  0
 12  5  1  0  0  0  0
 13 14  1  0  0  0  0
 13 16  1  0  0  0  0
 15 13  1  0  0  0  0
 16 17  1  0  0  0  0
 16 19  1  0  0  0  0
 18 16  1  0  0  0  0
 19 20  1  0  0  0  0
 21 19  1  0  0  0  0
 22 23  1  0  0  0  0
 22 24  1  0  0  0  0
 25 22  1  0  0  0  0
 26 25  2  0  0  0  0
 26 30  1  0  0  0  0
 27 26  1  0  0  0  0
 28 27  1  0  0  0  0
 28 29  2  0  0  0  0
 29 25  1  0  0  0  0
 31 28  1  0  0  0  0
 33 34  1  0  0  0  0
 33 31  1  0  0  0  0
 33 32  2  0  0  0  0
 35 34  1  0  0  0  0
 36 33  1  0  0  0  0
 37 36  1  0  0  0  0
M  END
>  <minimizedAffinity>
-4.65651131

$$$$
