
     RDKit          3D

 37 38  0  0  0  0  0  0  0  0999 V2000
   44.6766   35.2865   45.0709 O   0  0  0  0  0  0  0  0  0  0  0  0
   45.4867   34.2536   44.3336 P   0  0  2  0  0  0  0  0  0  0  0  0
   44.5193   33.0657   43.6473 O   0  0  0  0  0  0  0  0  0  0  0  0
   46.5178   33.4667   45.4060 O   0  0  0  0  0  0  0  0  0  0  0  0
   46.2031   32.1422   45.4223 C   0  0  0  0  0  0  0  0  0  0  0  0
   45.7523   32.0389   49.1127 C   0  0  0  0  0  0  0  0  0  0  0  0
   46.0525   32.5348   47.8356 C   0  0  0  0  0  0  0  0  0  0  0  0
   45.8936   31.6467   46.7736 C   0  0  0  0  0  0  0  0  0  0  0  0
   45.4641   30.3695   47.0233 N   0  0  0  0  0  0  0  0  0  0  0  0
   45.1878   29.9376   48.2661 C   0  0  0  0  0  0  0  0  0  0  0  0
   45.3307   30.7634   49.2973 N   0  0  0  0  0  0  0  0  0  0  0  0
   46.4074   35.0341   43.1652 O   0  0  0  0  0  0  0  0  0  0  0  0
   46.9307   34.0800   42.2841 C   0  0  1  0  0  0  0  0  0  0  0  0
   46.3981   34.2720   40.8775 C   0  0  0  0  0  0  0  0  0  0  0  0
   47.3368   33.3673   40.1025 C   0  0  0  0  0  0  0  0  0  0  0  0
   48.6387   33.3505   40.8750 C   0  0  0  0  0  0  0  0  0  0  0  0
   48.4109   34.2866   42.0489 C   0  0  1  0  0  0  0  0  0  0  0  0
   48.7669   35.7068   41.7131 C   0  0  0  0  0  0  0  0  0  0  0  0
   44.7553   32.7737   42.7573 H   0  0  0  0  0  0  0  0  0  0  0  0
   47.1317   31.5974   45.1113 H   0  0  0  0  0  0  0  0  0  0  0  0
   45.4231   31.7837   44.7614 H   0  0  0  0  0  0  0  0  0  0  0  0
   45.8493   32.6642   49.9914 H   0  0  0  0  0  0  0  0  0  0  0  0
   46.3837   33.5582   47.7499 H   0  0  0  0  0  0  0  0  0  0  0  0
   44.8608   28.9068   48.2943 H   0  0  0  0  0  0  0  0  0  0  0  0
   46.7675   33.0468   42.5728 H   0  0  0  0  0  0  0  0  0  0  0  0
   46.4045   35.3176   40.5382 H   0  0  0  0  0  0  0  0  0  0  0  0
   45.3706   33.9070   40.7342 H   0  0  0  0  0  0  0  0  0  0  0  0
   46.9048   32.3611   40.0455 H   0  0  0  0  0  0  0  0  0  0  0  0
   47.4418   33.7980   39.0972 H   0  0  0  0  0  0  0  0  0  0  0  0
   49.4310   33.7670   40.2223 H   0  0  0  0  0  0  0  0  0  0  0  0
   48.8416   32.3142   41.2091 H   0  0  0  0  0  0  0  0  0  0  0  0
   49.0159   33.8845   42.8915 H   0  0  0  0  0  0  0  0  0  0  0  0
   49.8711   35.7262   41.5982 H   0  0  0  0  0  0  0  0  0  0  0  0
   48.3324   35.9589   40.7327 H   0  0  0  0  0  0  0  0  0  0  0  0
   48.4158   36.6424   42.7340 N   0  0  0  0  0  0  0  0  0  0  0  0
   47.7665   36.1724   43.4037 H   0  0  0  0  0  0  0  0  0  0  0  0
   49.1920   37.1099   43.2151 H   0  0  0  0  0  0  0  0  0  0  0  0
  2  1  2  0
  2  4  1  1
  3  2  1  0
  4  5  1  0
  5  8  1  0
  6 11  2  0
  7  6  1  0
  8  9  1  0
  8  7  2  0
  9 10  2  0
 10 11  1  0
 12  2  1  0
 13 12  1  0
 14 13  1  0
 15 16  1  0
 15 14  1  0
 16 17  1  0
 17 13  1  0
 18 17  1  0
  3 19  1  0
  5 20  1  0
  5 21  1  0
  6 22  1  0
  7 23  1  0
 10 24  1  0
 13 25  1  1
 14 26  1  0
 14 27  1  0
 15 28  1  0
 15 29  1  0
 16 30  1  0
 16 31  1  0
 17 32  1  1
 18 33  1  0
 18 34  1  0
 35 36  1  0
 35 37  1  0
 18 35  1  0
M  ISO  8  19   3  20   8  21   8  22  14  23  14  24  14  25  13  26  13
M  ISO  8  27  13  28  13  29  13  30  13  31  13  32  13  33   8  34   8
M  ISO  2  36   5  37   5
M  END
>  <DihAtoms>  (1) 
16,17,34,35

>  <DihDeg>  (1) 
-104.05592362620175

$$$$
