
 OpenBabel03242522563D

 22 23  0  0  0  0  0  0  0  0999 V2000
   44.5170   32.4560   42.0160 Cl  0  0  0  0  0  0  0  0  0  0  0  0
   45.8760   33.4580   41.5930 C   0  0  0  0  0  0  0  0  0  0  0  0
   46.4400   34.3040   42.4960 C   0  0  0  0  0  0  0  0  0  0  0  0
   47.5130   35.0480   42.0430 C   0  0  0  0  0  0  0  0  0  0  0  0
   47.9990   34.9630   40.7790 C   0  0  0  0  0  0  0  0  0  0  0  0
   47.4160   34.0980   39.8720 C   0  0  0  0  0  0  0  0  0  0  0  0
   46.3510   33.3530   40.3040 C   0  0  0  0  0  0  0  0  0  0  0  0
   47.9820   35.7360   42.7540 H   0  0  0  0  0  0  0  0  0  0  0  0
   47.8030   34.0280   38.8640 H   0  0  0  0  0  0  0  0  0  0  0  0
   45.8970   32.6760   39.5870 H   0  0  0  0  0  0  0  0  0  0  0  0
   44.4930   35.3760   45.5510 C   0  0  0  0  0  0  0  0  0  0  0  0
   45.0030   35.3390   44.2500 C   0  0  0  0  0  0  0  0  0  0  0  0
   45.8950   34.3680   43.8350 C   0  0  0  0  0  0  0  0  0  0  0  0
   46.2470   33.4460   44.7800 N   0  0  0  0  0  0  0  0  0  0  0  0
   45.7580   33.4780   46.0310 C   0  0  0  0  0  0  0  0  0  0  0  0
   44.8890   34.4310   46.4210 N   0  0  0  0  0  0  0  0  0  0  0  0
   43.7930   36.1330   45.8840 H   0  0  0  0  0  0  0  0  0  0  0  0
   44.6910   36.0910   43.5490 H   0  0  0  0  0  0  0  0  0  0  0  0
   46.1550   32.6650   46.6290 H   0  0  0  0  0  0  0  0  0  0  0  0
   49.1120   35.7610   40.3770 N   0  0  0  0  0  0  0  0  0  0  0  0
   49.7650   36.2710   41.0000 H   0  0  0  0  0  0  0  0  0  0  0  0
   49.2900   35.8410   39.3540 H   0  0  0  0  0  0  0  0  0  0  0  0
  2  1  1  0  0  0  0
  2  3  1  0  0  0  0
  3 13  1  0  0  0  0
  4  3  2  0  0  0  0
  4  8  1  0  0  0  0
  5  4  1  0  0  0  0
  6  7  1  0  0  0  0
  6  5  2  0  0  0  0
  7  2  2  0  0  0  0
  9  6  1  0  0  0  0
 10  7  1  0  0  0  0
 11 17  1  0  0  0  0
 11 16  1  0  0  0  0
 12 11  2  0  0  0  0
 13 12  1  0  0  0  0
 13 14  2  0  0  0  0
 14 15  1  0  0  0  0
 15 16  2  0  0  0  0
 15 19  1  0  0  0  0
 18 12  1  0  0  0  0
 20  5  1  0  0  0  0
 20 21  1  0  0  0  0
 22 20  1  0  0  0  0
M  END
>  <minimizedAffinity>
-4.64059401

>  <minimizedRMSD>
0.840196729

$$$$
