
 OpenBabel03242522363D

 37 39  0  0  0  0  0  0  0  0999 V2000
   36.7500   28.7170   41.8680 C   0  0  0  0  0  0  0  0  0  0  0  0
   36.4280   29.4590   40.7660 C   0  0  0  0  0  0  0  0  0  0  0  0
   36.3550   28.8110   39.5530 C   0  0  0  0  0  0  0  0  0  0  0  0
   36.5890   27.4510   39.3740 C   0  0  0  0  0  0  0  0  0  0  0  0
   36.9140   26.7240   40.5130 C   0  0  0  0  0  0  0  0  0  0  0  0
   36.9900   27.3640   41.7330 C   0  0  0  0  0  0  0  0  0  0  0  0
   36.1000   29.3760   38.6640 H   0  0  0  0  0  0  0  0  0  0  0  0
   36.5190   26.9970   38.4170 H   0  0  0  0  0  0  0  0  0  0  0  0
   37.1000   25.6670   40.4000 H   0  0  0  0  0  0  0  0  0  0  0  0
   36.1590   30.9070   40.8330 C   0  0  0  0  0  0  0  0  0  0  0  0
   35.5480   31.1660   39.9190 H   0  0  0  0  0  0  0  0  0  0  0  0
   35.5550   31.2150   41.6780 H   0  0  0  0  0  0  0  0  0  0  0  0
   39.6500   32.1080   41.0810 C   0  0  0  0  0  0  0  0  0  0  0  0
   39.5920   33.3110   40.3860 C   0  0  0  0  0  0  0  0  0  0  0  0
   38.3710   33.6820   39.8530 C   0  0  0  0  0  0  0  0  0  0  0  0
   37.3050   32.8810   40.0220 N   0  0  0  0  0  0  0  0  0  0  0  0
   37.3890   31.7150   40.7030 C   0  0  0  0  0  0  0  0  0  0  0  0
   38.5610   31.3510   41.2200 N   0  0  0  0  0  0  0  0  0  0  0  0
   40.6460   31.8960   41.4640 H   0  0  0  0  0  0  0  0  0  0  0  0
   40.3700   34.0320   40.1850 H   0  0  0  0  0  0  0  0  0  0  0  0
   38.1780   34.5980   39.2850 H   0  0  0  0  0  0  0  0  0  0  0  0
   36.8370   29.3170   43.1090 O   0  0  0  0  0  0  0  0  0  0  0  0
   37.5710   29.1590   43.7880 H   0  0  0  0  0  0  0  0  0  0  0  0
   37.3180   26.6000   42.8430 O   0  0  0  0  0  0  0  0  0  0  0  0
   38.6420   26.2150   42.9930 C   0  0  0  0  0  0  0  0  0  0  0  0
   39.5270   27.1980   43.3940 C   0  0  0  0  0  0  0  0  0  0  0  0
   40.8610   26.8710   43.5610 C   0  0  0  0  0  0  0  0  0  0  0  0
   41.3150   25.5740   43.3310 C   0  0  0  0  0  0  0  0  0  0  0  0
   40.3770   24.6220   42.9290 C   0  0  0  0  0  0  0  0  0  0  0  0
   39.0460   24.9230   42.7560 C   0  0  0  0  0  0  0  0  0  0  0  0
   39.2610   28.2400   43.5960 H   0  0  0  0  0  0  0  0  0  0  0  0
   41.5950   27.6120   43.8750 H   0  0  0  0  0  0  0  0  0  0  0  0
   42.3530   25.2860   43.4530 H   0  0  0  0  0  0  0  0  0  0  0  0
   40.7310   23.5950   42.7460 H   0  0  0  0  0  0  0  0  0  0  0  0
   38.1460   23.9290   42.3500 N   0  0  0  0  0  0  0  0  0  0  0  0
   37.5850   24.0260   41.4760 H   0  0  0  0  0  0  0  0  0  0  0  0
   38.1180   23.1200   43.0100 H   0  0  0  0  0  0  0  0  0  0  0  0
  1 22  1  0  0  0  0
  2 10  1  0  0  0  0
  2  1  2  0  0  0  0
  3  2  1  0  0  0  0
  4  3  2  0  0  0  0
  4  5  1  0  0  0  0
  5  6  2  0  0  0  0
  6  1  1  0  0  0  0
  6 24  1  0  0  0  0
  7  3  1  0  0  0  0
  8  4  1  0  0  0  0
  9  5  1  0  0  0  0
 10 12  1  0  0  0  0
 11 10  1  0  0  0  0
 13 18  1  0  0  0  0
 13 19  1  0  0  0  0
 14 13  2  0  0  0  0
 15 16  2  0  0  0  0
 15 14  1  0  0  0  0
 16 17  1  0  0  0  0
 17 10  1  0  0  0  0
 17 18  2  0  0  0  0
 20 14  1  0  0  0  0
 21 15  1  0  0  0  0
 22 23  1  0  0  0  0
 24 25  1  0  0  0  0
 25 26  1  0  0  0  0
 26 27  2  0  0  0  0
 26 31  1  0  0  0  0
 27 32  1  0  0  0  0
 28 33  1  0  0  0  0
 28 27  1  0  0  0  0
 29 28  2  0  0  0  0
 30 29  1  0  0  0  0
 30 25  2  0  0  0  0
 34 29  1  0  0  0  0
 35 30  1  0  0  0  0
 35 37  1  0  0  0  0
 36 35  1  0  0  0  0
M  END
>  <minimizedAffinity>
-6.2021265

$$$$

 OpenBabel03242522363D

 37 39  0  0  0  0  0  0  0  0999 V2000
   36.9380   29.0640   41.7920 C   0  0  0  0  0  0  0  0  0  0  0  0
   36.8790   27.7450   41.4350 C   0  0  0  0  0  0  0  0  0  0  0  0
   36.8300   27.4440   40.0910 C   0  0  0  0  0  0  0  0  0  0  0  0
   36.8360   28.3930   39.0730 C   0  0  0  0  0  0  0  0  0  0  0  0
   36.8970   29.7240   39.4690 C   0  0  0  0  0  0  0  0  0  0  0  0
   36.9460   30.0360   40.8130 C   0  0  0  0  0  0  0  0  0  0  0  0
   36.7830   26.4080   39.7810 H   0  0  0  0  0  0  0  0  0  0  0  0
   36.7970   28.1120   38.0510 H   0  0  0  0  0  0  0  0  0  0  0  0
   36.9030   30.4790   38.6980 H   0  0  0  0  0  0  0  0  0  0  0  0
   36.8660   26.6520   42.4240 C   0  0  0  0  0  0  0  0  0  0  0  0
   36.4620   27.0880   43.3840 H   0  0  0  0  0  0  0  0  0  0  0  0
   36.2030   25.8320   42.1800 H   0  0  0  0  0  0  0  0  0  0  0  0
   39.9480   24.6240   42.7140 C   0  0  0  0  0  0  0  0  0  0  0  0
   40.7680   25.4510   43.4740 C   0  0  0  0  0  0  0  0  0  0  0  0
   40.2530   26.6730   43.8670 C   0  0  0  0  0  0  0  0  0  0  0  0
   39.0030   27.0110   43.5070 N   0  0  0  0  0  0  0  0  0  0  0  0
   38.2260   26.1870   42.7670 C   0  0  0  0  0  0  0  0  0  0  0  0
   38.7140   25.0090   42.3840 N   0  0  0  0  0  0  0  0  0  0  0  0
   40.4330   23.6870   42.4500 H   0  0  0  0  0  0  0  0  0  0  0  0
   41.7770   25.2940   43.8230 H   0  0  0  0  0  0  0  0  0  0  0  0
   40.7810   27.4220   44.4660 H   0  0  0  0  0  0  0  0  0  0  0  0
   36.9890   29.4210   43.1250 O   0  0  0  0  0  0  0  0  0  0  0  0
   36.4530   30.1640   43.5550 H   0  0  0  0  0  0  0  0  0  0  0  0
   37.0050   31.3770   41.1610 O   0  0  0  0  0  0  0  0  0  0  0  0
   38.1690   32.0710   40.8670 C   0  0  0  0  0  0  0  0  0  0  0  0
   39.3470   31.5270   41.3420 C   0  0  0  0  0  0  0  0  0  0  0  0
   40.5400   32.1760   41.0780 C   0  0  0  0  0  0  0  0  0  0  0  0
   40.5640   33.3610   40.3450 C   0  0  0  0  0  0  0  0  0  0  0  0
   39.3440   33.8650   39.8900 C   0  0  0  0  0  0  0  0  0  0  0  0
   38.1450   33.2370   40.1400 C   0  0  0  0  0  0  0  0  0  0  0  0
   39.4240   30.6030   41.9240 H   0  0  0  0  0  0  0  0  0  0  0  0
   41.4930   31.7850   41.4310 H   0  0  0  0  0  0  0  0  0  0  0  0
   41.4810   33.8940   40.1210 H   0  0  0  0  0  0  0  0  0  0  0  0
   39.3570   34.8020   39.3100 H   0  0  0  0  0  0  0  0  0  0  0  0
   36.9490   33.7860   39.6590 N   0  0  0  0  0  0  0  0  0  0  0  0
   36.1720   34.0480   40.3040 H   0  0  0  0  0  0  0  0  0  0  0  0
   36.9450   33.8910   38.6200 H   0  0  0  0  0  0  0  0  0  0  0  0
  1 22  1  0  0  0  0
  2  1  1  0  0  0  0
  2 10  1  0  0  0  0
  3  2  2  0  0  0  0
  4  5  2  0  0  0  0
  4  3  1  0  0  0  0
  5  6  1  0  0  0  0
  6 24  1  0  0  0  0
  6  1  2  0  0  0  0
  7  3  1  0  0  0  0
  8  4  1  0  0  0  0
  9  5  1  0  0  0  0
 10 17  1  0  0  0  0
 10 11  1  0  0  0  0
 12 10  1  0  0  0  0
 13 14  1  0  0  0  0
 14 20  1  0  0  0  0
 14 15  2  0  0  0  0
 15 21  1  0  0  0  0
 16 15  1  0  0  0  0
 17 16  2  0  0  0  0
 18 13  2  0  0  0  0
 18 17  1  0  0  0  0
 19 13  1  0  0  0  0
 22 23  1  0  0  0  0
 25 24  1  0  0  0  0
 25 26  1  0  0  0  0
 26 31  1  0  0  0  0
 27 26  2  0  0  0  0
 27 32  1  0  0  0  0
 28 27  1  0  0  0  0
 29 30  1  0  0  0  0
 29 28  2  0  0  0  0
 30 25  2  0  0  0  0
 33 28  1  0  0  0  0
 34 29  1  0  0  0  0
 35 30  1  0  0  0  0
 35 36  1  0  0  0  0
 37 35  1  0  0  0  0
M  END
>  <minimizedAffinity>
-6.15729904

$$$$

 OpenBabel03242522363D

 37 39  0  0  0  0  0  0  0  0999 V2000
   36.7540   28.3190   41.7330 C   0  0  0  0  0  0  0  0  0  0  0  0
   37.3720   27.2100   42.2420 C   0  0  0  0  0  0  0  0  0  0  0  0
   37.3980   26.0740   41.4630 C   0  0  0  0  0  0  0  0  0  0  0  0
   36.8370   25.9790   40.1930 C   0  0  0  0  0  0  0  0  0  0  0  0
   36.2160   27.1230   39.7040 C   0  0  0  0  0  0  0  0  0  0  0  0
   36.1850   28.2660   40.4770 C   0  0  0  0  0  0  0  0  0  0  0  0
   37.8820   25.1820   41.8410 H   0  0  0  0  0  0  0  0  0  0  0  0
   36.8830   25.0810   39.6300 H   0  0  0  0  0  0  0  0  0  0  0  0
   35.7730   27.0750   38.7220 H   0  0  0  0  0  0  0  0  0  0  0  0
   38.0020   27.1900   43.5740 C   0  0  0  0  0  0  0  0  0  0  0  0
   37.7080   28.1520   44.0870 H   0  0  0  0  0  0  0  0  0  0  0  0
   37.6520   26.3990   44.2260 H   0  0  0  0  0  0  0  0  0  0  0  0
   41.4850   28.3220   43.0420 C   0  0  0  0  0  0  0  0  0  0  0  0
   42.2140   27.1970   43.4130 C   0  0  0  0  0  0  0  0  0  0  0  0
   41.5050   26.0870   43.8330 C   0  0  0  0  0  0  0  0  0  0  0  0
   40.1620   26.1330   43.8670 N   0  0  0  0  0  0  0  0  0  0  0  0
   39.4770   27.2410   43.5010 C   0  0  0  0  0  0  0  0  0  0  0  0
   40.1520   28.3150   43.0950 N   0  0  0  0  0  0  0  0  0  0  0  0
   42.1220   29.1450   42.7270 H   0  0  0  0  0  0  0  0  0  0  0  0
   43.2820   27.0390   43.4290 H   0  0  0  0  0  0  0  0  0  0  0  0
   41.9440   25.1360   44.1530 H   0  0  0  0  0  0  0  0  0  0  0  0
   36.7000   29.4840   42.4730 O   0  0  0  0  0  0  0  0  0  0  0  0
   35.8840   30.0730   42.5810 H   0  0  0  0  0  0  0  0  0  0  0  0
   35.5540   29.3830   39.9500 O   0  0  0  0  0  0  0  0  0  0  0  0
   36.2830   30.1920   39.0920 C   0  0  0  0  0  0  0  0  0  0  0  0
   36.4900   29.7060   37.8150 C   0  0  0  0  0  0  0  0  0  0  0  0
   37.2110   30.4700   36.9150 C   0  0  0  0  0  0  0  0  0  0  0  0
   37.7240   31.7130   37.2790 C   0  0  0  0  0  0  0  0  0  0  0  0
   37.4840   32.1550   38.5820 C   0  0  0  0  0  0  0  0  0  0  0  0
   36.7710   31.4120   39.4950 C   0  0  0  0  0  0  0  0  0  0  0  0
   36.1260   28.7430   37.4410 H   0  0  0  0  0  0  0  0  0  0  0  0
   37.3990   30.1280   35.8980 H   0  0  0  0  0  0  0  0  0  0  0  0
   38.2920   32.3360   36.5980 H   0  0  0  0  0  0  0  0  0  0  0  0
   37.8880   33.1370   38.8760 H   0  0  0  0  0  0  0  0  0  0  0  0
   36.5590   31.9030   40.7900 N   0  0  0  0  0  0  0  0  0  0  0  0
   36.8820   31.3780   41.6310 H   0  0  0  0  0  0  0  0  0  0  0  0
   36.0600   32.8210   40.7940 H   0  0  0  0  0  0  0  0  0  0  0  0
  1  2  1  0  0  0  0
  1 22  1  0  0  0  0
  2 10  1  0  0  0  0
  3  7  1  0  0  0  0
  3  2  2  0  0  0  0
  4  3  1  0  0  0  0
  5  4  2  0  0  0  0
  5  6  1  0  0  0  0
  6  1  2  0  0  0  0
  8  4  1  0  0  0  0
  9  5  1  0  0  0  0
 10 11  1  0  0  0  0
 10 12  1  0  0  0  0
 13 18  2  0  0  0  0
 13 14  1  0  0  0  0
 14 20  1  0  0  0  0
 14 15  2  0  0  0  0
 15 16  1  0  0  0  0
 15 21  1  0  0  0  0
 17 10  1  0  0  0  0
 17 16  2  0  0  0  0
 18 17  1  0  0  0  0
 19 13  1  0  0  0  0
 22 23  1  0  0  0  0
 24  6  1  0  0  0  0
 25 30  1  0  0  0  0
 25 24  1  0  0  0  0
 26 25  2  0  0  0  0
 27 28  2  0  0  0  0
 27 26  1  0  0  0  0
 28 29  1  0  0  0  0
 29 34  1  0  0  0  0
 29 30  2  0  0  0  0
 30 35  1  0  0  0  0
 31 26  1  0  0  0  0
 32 27  1  0  0  0  0
 33 28  1  0  0  0  0
 35 37  1  0  0  0  0
 35 36  1  0  0  0  0
M  END
>  <minimizedAffinity>
-6.09091377

$$$$

 OpenBabel03242522363D

 37 39  0  0  0  0  0  0  0  0999 V2000
   37.4760   27.8140   42.4920 C   0  0  0  0  0  0  0  0  0  0  0  0
   37.8280   26.4970   42.6030 C   0  0  0  0  0  0  0  0  0  0  0  0
   39.1540   26.2020   42.8310 C   0  0  0  0  0  0  0  0  0  0  0  0
   40.1610   27.1560   42.9550 C   0  0  0  0  0  0  0  0  0  0  0  0
   39.7710   28.4850   42.8370 C   0  0  0  0  0  0  0  0  0  0  0  0
   38.4450   28.7910   42.6090 C   0  0  0  0  0  0  0  0  0  0  0  0
   39.4590   25.1670   42.9240 H   0  0  0  0  0  0  0  0  0  0  0  0
   41.1690   26.8780   43.1310 H   0  0  0  0  0  0  0  0  0  0  0  0
   40.5340   29.2430   42.9290 H   0  0  0  0  0  0  0  0  0  0  0  0
   36.8490   25.4000   42.4900 C   0  0  0  0  0  0  0  0  0  0  0  0
   37.0860   24.6680   43.3170 H   0  0  0  0  0  0  0  0  0  0  0  0
   35.8210   25.6950   42.6540 H   0  0  0  0  0  0  0  0  0  0  0  0
   37.6810   22.7360   40.0600 C   0  0  0  0  0  0  0  0  0  0  0  0
   37.2620   23.2990   38.8590 C   0  0  0  0  0  0  0  0  0  0  0  0
   36.7090   24.5660   38.9070 C   0  0  0  0  0  0  0  0  0  0  0  0
   36.5990   25.1950   40.0900 N   0  0  0  0  0  0  0  0  0  0  0  0
   37.0150   24.6250   41.2430 C   0  0  0  0  0  0  0  0  0  0  0  0
   37.5490   23.4050   41.2060 N   0  0  0  0  0  0  0  0  0  0  0  0
   38.1020   21.7410   39.9290 H   0  0  0  0  0  0  0  0  0  0  0  0
   37.2970   22.8980   37.8580 H   0  0  0  0  0  0  0  0  0  0  0  0
   36.3390   25.1300   38.0450 H   0  0  0  0  0  0  0  0  0  0  0  0
   36.1600   28.1650   42.2640 O   0  0  0  0  0  0  0  0  0  0  0  0
   35.8450   28.8620   41.6010 H   0  0  0  0  0  0  0  0  0  0  0  0
   38.1020   30.1290   42.4970 O   0  0  0  0  0  0  0  0  0  0  0  0
   38.0670   30.6840   41.2270 C   0  0  0  0  0  0  0  0  0  0  0  0
   39.2800   30.8100   40.5760 C   0  0  0  0  0  0  0  0  0  0  0  0
   39.3050   31.3570   39.3060 C   0  0  0  0  0  0  0  0  0  0  0  0
   38.1320   31.7780   38.6830 C   0  0  0  0  0  0  0  0  0  0  0  0
   36.9360   31.6260   39.3870 C   0  0  0  0  0  0  0  0  0  0  0  0
   36.8860   31.0860   40.6510 C   0  0  0  0  0  0  0  0  0  0  0  0
   40.2480   30.5080   40.9870 H   0  0  0  0  0  0  0  0  0  0  0  0
   40.2370   31.4750   38.7550 H   0  0  0  0  0  0  0  0  0  0  0  0
   38.1180   32.2100   37.6890 H   0  0  0  0  0  0  0  0  0  0  0  0
   36.0050   31.9580   38.8990 H   0  0  0  0  0  0  0  0  0  0  0  0
   35.6570   30.9570   41.3130 N   0  0  0  0  0  0  0  0  0  0  0  0
   35.4850   31.4130   42.2350 H   0  0  0  0  0  0  0  0  0  0  0  0
   34.9750   30.3710   40.7810 H   0  0  0  0  0  0  0  0  0  0  0  0
  1  2  2  0  0  0  0
  1  6  1  0  0  0  0
  2  3  1  0  0  0  0
  3  7  1  0  0  0  0
  3  4  2  0  0  0  0
  4  8  1  0  0  0  0
  5  9  1  0  0  0  0
  5  4  1  0  0  0  0
  6  5  2  0  0  0  0
 10  2  1  0  0  0  0
 10 12  1  0  0  0  0
 10 11  1  0  0  0  0
 13 18  1  0  0  0  0
 14 15  1  0  0  0  0
 14 13  2  0  0  0  0
 15 16  2  0  0  0  0
 16 17  1  0  0  0  0
 17 10  1  0  0  0  0
 18 17  2  0  0  0  0
 19 13  1  0  0  0  0
 20 14  1  0  0  0  0
 21 15  1  0  0  0  0
 22  1  1  0  0  0  0
 23 22  1  0  0  0  0
 24  6  1  0  0  0  0
 25 24  1  0  0  0  0
 26 31  1  0  0  0  0
 26 25  2  0  0  0  0
 27 26  1  0  0  0  0
 28 27  2  0  0  0  0
 28 29  1  0  0  0  0
 29 30  2  0  0  0  0
 30 25  1  0  0  0  0
 30 35  1  0  0  0  0
 32 27  1  0  0  0  0
 33 28  1  0  0  0  0
 34 29  1  0  0  0  0
 35 36  1  0  0  0  0
 37 35  1  0  0  0  0
M  END
>  <minimizedAffinity>
-5.93423796

$$$$

 OpenBabel03242522363D

 37 39  0  0  0  0  0  0  0  0999 V2000
   36.4130   30.1320   40.3920 C   0  0  0  0  0  0  0  0  0  0  0  0
   36.5680   30.7550   39.1850 C   0  0  0  0  0  0  0  0  0  0  0  0
   36.3500   30.0120   38.0450 C   0  0  0  0  0  0  0  0  0  0  0  0
   35.9820   28.6690   38.0410 C   0  0  0  0  0  0  0  0  0  0  0  0
   35.8320   28.0660   39.2850 C   0  0  0  0  0  0  0  0  0  0  0  0
   36.0490   28.8020   40.4320 C   0  0  0  0  0  0  0  0  0  0  0  0
   36.4650   30.4800   37.0760 H   0  0  0  0  0  0  0  0  0  0  0  0
   35.8240   28.1390   37.1360 H   0  0  0  0  0  0  0  0  0  0  0  0
   35.5480   27.0250   39.3080 H   0  0  0  0  0  0  0  0  0  0  0  0
   36.9550   32.1720   39.0630 C   0  0  0  0  0  0  0  0  0  0  0  0
   36.7010   32.4890   38.0090 H   0  0  0  0  0  0  0  0  0  0  0  0
   36.4020   32.8460   39.7060 H   0  0  0  0  0  0  0  0  0  0  0  0
   40.5770   32.2990   38.3170 C   0  0  0  0  0  0  0  0  0  0  0  0
   41.1020   32.7800   39.5110 C   0  0  0  0  0  0  0  0  0  0  0  0
   40.2130   33.0480   40.5360 C   0  0  0  0  0  0  0  0  0  0  0  0
   38.8990   32.8380   40.3450 N   0  0  0  0  0  0  0  0  0  0  0  0
   38.4150   32.3690   39.1720 C   0  0  0  0  0  0  0  0  0  0  0  0
   39.2640   32.1080   38.1800 N   0  0  0  0  0  0  0  0  0  0  0  0
   41.3450   32.1160   37.5680 H   0  0  0  0  0  0  0  0  0  0  0  0
   42.1250   32.9880   39.7840 H   0  0  0  0  0  0  0  0  0  0  0  0
   40.4820   33.4280   41.5270 H   0  0  0  0  0  0  0  0  0  0  0  0
   36.6200   30.8310   41.5650 O   0  0  0  0  0  0  0  0  0  0  0  0
   37.1330   30.4910   42.3690 H   0  0  0  0  0  0  0  0  0  0  0  0
   35.8890   28.1590   41.6500 O   0  0  0  0  0  0  0  0  0  0  0  0
   36.9840   27.4930   42.1780 C   0  0  0  0  0  0  0  0  0  0  0  0
   37.3340   26.3030   41.5690 C   0  0  0  0  0  0  0  0  0  0  0  0
   38.4190   25.5950   42.0540 C   0  0  0  0  0  0  0  0  0  0  0  0
   39.1550   26.0650   43.1390 C   0  0  0  0  0  0  0  0  0  0  0  0
   38.7570   27.2730   43.7160 C   0  0  0  0  0  0  0  0  0  0  0  0
   37.6810   27.9950   43.2510 C   0  0  0  0  0  0  0  0  0  0  0  0
   36.8160   25.8570   40.7140 H   0  0  0  0  0  0  0  0  0  0  0  0
   38.7320   24.6530   41.6050 H   0  0  0  0  0  0  0  0  0  0  0  0
   40.0100   25.5350   43.5430 H   0  0  0  0  0  0  0  0  0  0  0  0
   39.3350   27.6500   44.5750 H   0  0  0  0  0  0  0  0  0  0  0  0
   37.3240   29.2010   43.8670 N   0  0  0  0  0  0  0  0  0  0  0  0
   36.3770   29.3420   44.2810 H   0  0  0  0  0  0  0  0  0  0  0  0
   38.0990   29.9030   43.8540 H   0  0  0  0  0  0  0  0  0  0  0  0
  1  6  1  0  0  0  0
  1 22  1  0  0  0  0
  2  1  2  0  0  0  0
  3  2  1  0  0  0  0
  4  3  2  0  0  0  0
  4  5  1  0  0  0  0
  5  9  1  0  0  0  0
  5  6  2  0  0  0  0
  6 24  1  0  0  0  0
  7  3  1  0  0  0  0
  8  4  1  0  0  0  0
 10 17  1  0  0  0  0
 10  2  1  0  0  0  0
 10 12  1  0  0  0  0
 11 10  1  0  0  0  0
 13 14  1  0  0  0  0
 14 20  1  0  0  0  0
 14 15  2  0  0  0  0
 15 21  1  0  0  0  0
 16 15  1  0  0  0  0
 17 16  2  0  0  0  0
 18 13  2  0  0  0  0
 18 17  1  0  0  0  0
 19 13  1  0  0  0  0
 22 23  1  0  0  0  0
 24 25  1  0  0  0  0
 25 30  1  0  0  0  0
 26 27  1  0  0  0  0
 26 25  2  0  0  0  0
 27 28  2  0  0  0  0
 28 33  1  0  0  0  0
 28 29  1  0  0  0  0
 29 34  1  0  0  0  0
 30 29  2  0  0  0  0
 30 35  1  0  0  0  0
 31 26  1  0  0  0  0
 32 27  1  0  0  0  0
 35 36  1  0  0  0  0
 37 35  1  0  0  0  0
M  END
>  <minimizedAffinity>
-5.90491199

$$$$

 OpenBabel03242522363D

 37 39  0  0  0  0  0  0  0  0999 V2000
   34.8680   29.4590   39.2060 C   0  0  0  0  0  0  0  0  0  0  0  0
   36.0370   30.0450   39.6060 C   0  0  0  0  0  0  0  0  0  0  0  0
   37.0260   30.2170   38.6630 C   0  0  0  0  0  0  0  0  0  0  0  0
   36.9150   29.8350   37.3300 C   0  0  0  0  0  0  0  0  0  0  0  0
   35.7150   29.2440   36.9540 C   0  0  0  0  0  0  0  0  0  0  0  0
   34.7180   29.0660   37.8910 C   0  0  0  0  0  0  0  0  0  0  0  0
   37.9620   30.6780   38.9540 H   0  0  0  0  0  0  0  0  0  0  0  0
   37.7070   29.9900   36.6400 H   0  0  0  0  0  0  0  0  0  0  0  0
   35.6050   28.9380   35.9250 H   0  0  0  0  0  0  0  0  0  0  0  0
   36.2700   30.4900   40.9920 C   0  0  0  0  0  0  0  0  0  0  0  0
   36.9960   31.3530   40.9380 H   0  0  0  0  0  0  0  0  0  0  0  0
   35.3930   30.8850   41.4920 H   0  0  0  0  0  0  0  0  0  0  0  0
   38.7480   28.7130   43.0890 C   0  0  0  0  0  0  0  0  0  0  0  0
   38.1310   27.4830   43.2860 C   0  0  0  0  0  0  0  0  0  0  0  0
   36.8920   27.2900   42.7030 C   0  0  0  0  0  0  0  0  0  0  0  0
   36.3390   28.2800   41.9800 N   0  0  0  0  0  0  0  0  0  0  0  0
   36.9620   29.4680   41.8040 C   0  0  0  0  0  0  0  0  0  0  0  0
   38.1550   29.6620   42.3620 N   0  0  0  0  0  0  0  0  0  0  0  0
   39.7160   28.7770   43.5820 H   0  0  0  0  0  0  0  0  0  0  0  0
   38.4690   26.6200   43.8390 H   0  0  0  0  0  0  0  0  0  0  0  0
   36.2920   26.3770   42.7720 H   0  0  0  0  0  0  0  0  0  0  0  0
   33.8430   29.2630   40.1110 O   0  0  0  0  0  0  0  0  0  0  0  0
   33.2920   28.4180   40.2000 H   0  0  0  0  0  0  0  0  0  0  0  0
   33.5380   28.4710   37.4720 O   0  0  0  0  0  0  0  0  0  0  0  0
   32.6400   29.2490   36.7560 C   0  0  0  0  0  0  0  0  0  0  0  0
   32.9120   29.4230   35.4120 C   0  0  0  0  0  0  0  0  0  0  0  0
   32.0500   30.1900   34.6480 C   0  0  0  0  0  0  0  0  0  0  0  0
   30.9240   30.7820   35.2140 C   0  0  0  0  0  0  0  0  0  0  0  0
   30.6980   30.5710   36.5760 C   0  0  0  0  0  0  0  0  0  0  0  0
   31.5410   29.8130   37.3560 C   0  0  0  0  0  0  0  0  0  0  0  0
   33.7710   28.9980   34.8830 H   0  0  0  0  0  0  0  0  0  0  0  0
   32.2240   30.3550   33.5850 H   0  0  0  0  0  0  0  0  0  0  0  0
   30.2290   31.3870   34.6430 H   0  0  0  0  0  0  0  0  0  0  0  0
   29.8080   31.0380   37.0290 H   0  0  0  0  0  0  0  0  0  0  0  0
   31.2670   29.6350   38.7190 N   0  0  0  0  0  0  0  0  0  0  0  0
   31.9490   29.9250   39.4540 H   0  0  0  0  0  0  0  0  0  0  0  0
   30.3350   29.1950   38.8860 H   0  0  0  0  0  0  0  0  0  0  0  0
  1  2  1  0  0  0  0
  1 22  1  0  0  0  0
  2 10  1  0  0  0  0
  3  7  1  0  0  0  0
  3  2  2  0  0  0  0
  4  3  1  0  0  0  0
  5  4  2  0  0  0  0
  5  6  1  0  0  0  0
  6  1  2  0  0  0  0
  8  4  1  0  0  0  0
  9  5  1  0  0  0  0
 10 12  1  0  0  0  0
 10 17  1  0  0  0  0
 11 10  1  0  0  0  0
 13 14  1  0  0  0  0
 13 19  1  0  0  0  0
 14 20  1  0  0  0  0
 15 21  1  0  0  0  0
 15 14  2  0  0  0  0
 16 15  1  0  0  0  0
 17 16  2  0  0  0  0
 17 18  1  0  0  0  0
 18 13  2  0  0  0  0
 22 23  1  0  0  0  0
 24  6  1  0  0  0  0
 25 30  1  0  0  0  0
 25 24  1  0  0  0  0
 26 25  2  0  0  0  0
 27 28  2  0  0  0  0
 27 26  1  0  0  0  0
 28 29  1  0  0  0  0
 29 34  1  0  0  0  0
 29 30  2  0  0  0  0
 30 35  1  0  0  0  0
 31 26  1  0  0  0  0
 32 27  1  0  0  0  0
 33 28  1  0  0  0  0
 35 37  1  0  0  0  0
 35 36  1  0  0  0  0
M  END
>  <minimizedAffinity>
-5.89120483

$$$$

 OpenBabel03242522363D

 37 39  0  0  0  0  0  0  0  0999 V2000
   36.7690   31.2050   39.7220 C   0  0  0  0  0  0  0  0  0  0  0  0
   36.1760   29.9830   39.5620 C   0  0  0  0  0  0  0  0  0  0  0  0
   36.2440   29.3930   38.3190 C   0  0  0  0  0  0  0  0  0  0  0  0
   36.8750   29.9580   37.2150 C   0  0  0  0  0  0  0  0  0  0  0  0
   37.4680   31.2000   37.4100 C   0  0  0  0  0  0  0  0  0  0  0  0
   37.4050   31.8000   38.6510 C   0  0  0  0  0  0  0  0  0  0  0  0
   35.7840   28.4250   38.1650 H   0  0  0  0  0  0  0  0  0  0  0  0
   36.9020   29.4630   36.2760 H   0  0  0  0  0  0  0  0  0  0  0  0
   37.9640   31.6600   36.5680 H   0  0  0  0  0  0  0  0  0  0  0  0
   35.4790   29.2870   40.6580 C   0  0  0  0  0  0  0  0  0  0  0  0
   35.0060   30.0860   41.3010 H   0  0  0  0  0  0  0  0  0  0  0  0
   34.6600   28.6530   40.3400 H   0  0  0  0  0  0  0  0  0  0  0  0
   37.8610   28.5020   43.3790 C   0  0  0  0  0  0  0  0  0  0  0  0
   38.1190   27.1540   43.1580 C   0  0  0  0  0  0  0  0  0  0  0  0
   37.4780   26.5480   42.0930 C   0  0  0  0  0  0  0  0  0  0  0  0
   36.6450   27.2710   41.3240 N   0  0  0  0  0  0  0  0  0  0  0  0
   36.4110   28.5820   41.5620 C   0  0  0  0  0  0  0  0  0  0  0  0
   37.0240   29.1730   42.5860 N   0  0  0  0  0  0  0  0  0  0  0  0
   38.4050   28.8950   44.2360 H   0  0  0  0  0  0  0  0  0  0  0  0
   38.7590   26.4740   43.6980 H   0  0  0  0  0  0  0  0  0  0  0  0
   37.5860   25.4990   41.8000 H   0  0  0  0  0  0  0  0  0  0  0  0
   36.7300   31.8410   40.9470 O   0  0  0  0  0  0  0  0  0  0  0  0
   36.5280   32.8220   41.0940 H   0  0  0  0  0  0  0  0  0  0  0  0
   38.0090   33.0390   38.8000 O   0  0  0  0  0  0  0  0  0  0  0  0
   39.3350   33.0680   39.2070 C   0  0  0  0  0  0  0  0  0  0  0  0
   40.2570   32.5110   38.3410 C   0  0  0  0  0  0  0  0  0  0  0  0
   41.5940   32.5110   38.6950 C   0  0  0  0  0  0  0  0  0  0  0  0
   42.0160   33.0620   39.9030 C   0  0  0  0  0  0  0  0  0  0  0  0
   41.0410   33.6110   40.7390 C   0  0  0  0  0  0  0  0  0  0  0  0
   39.7050   33.6220   40.4080 C   0  0  0  0  0  0  0  0  0  0  0  0
   40.0180   32.0570   37.3740 H   0  0  0  0  0  0  0  0  0  0  0  0
   42.3560   32.0840   38.0440 H   0  0  0  0  0  0  0  0  0  0  0  0
   43.0550   33.0780   40.2090 H   0  0  0  0  0  0  0  0  0  0  0  0
   41.3690   34.0470   41.6960 H   0  0  0  0  0  0  0  0  0  0  0  0
   38.7690   34.1860   41.2850 N   0  0  0  0  0  0  0  0  0  0  0  0
   37.9750   33.6270   41.6670 H   0  0  0  0  0  0  0  0  0  0  0  0
   38.9660   35.1910   41.4900 H   0  0  0  0  0  0  0  0  0  0  0  0
  1 22  1  0  0  0  0
  2  1  1  0  0  0  0
  2 10  1  0  0  0  0
  3  2  2  0  0  0  0
  4  5  2  0  0  0  0
  4  3  1  0  0  0  0
  5  6  1  0  0  0  0
  6 24  1  0  0  0  0
  6  1  2  0  0  0  0
  7  3  1  0  0  0  0
  8  4  1  0  0  0  0
  9  5  1  0  0  0  0
 10 11  1  0  0  0  0
 10 17  1  0  0  0  0
 12 10  1  0  0  0  0
 13 19  1  0  0  0  0
 14 13  1  0  0  0  0
 14 20  1  0  0  0  0
 15 14  2  0  0  0  0
 16 17  2  0  0  0  0
 16 15  1  0  0  0  0
 17 18  1  0  0  0  0
 18 13  2  0  0  0  0
 21 15  1  0  0  0  0
 22 23  1  0  0  0  0
 24 25  1  0  0  0  0
 25 30  1  0  0  0  0
 26 27  1  0  0  0  0
 26 25  2  0  0  0  0
 27 28  2  0  0  0  0
 28 33  1  0  0  0  0
 28 29  1  0  0  0  0
 29 34  1  0  0  0  0
 30 29  2  0  0  0  0
 30 35  1  0  0  0  0
 31 26  1  0  0  0  0
 32 27  1  0  0  0  0
 35 37  1  0  0  0  0
 35 36  1  0  0  0  0
M  END
>  <minimizedAffinity>
-5.865798

$$$$

 OpenBabel03242522363D

 37 39  0  0  0  0  0  0  0  0999 V2000
   37.3350   28.8730   42.2560 C   0  0  0  0  0  0  0  0  0  0  0  0
   38.2900   28.1880   42.9550 C   0  0  0  0  0  0  0  0  0  0  0  0
   39.5390   28.7580   43.0650 C   0  0  0  0  0  0  0  0  0  0  0  0
   39.8940   29.9850   42.5120 C   0  0  0  0  0  0  0  0  0  0  0  0
   38.9010   30.6560   41.8080 C   0  0  0  0  0  0  0  0  0  0  0  0
   37.6460   30.0930   41.6920 C   0  0  0  0  0  0  0  0  0  0  0  0
   40.3140   28.2370   43.6140 H   0  0  0  0  0  0  0  0  0  0  0  0
   40.8710   30.3840   42.6250 H   0  0  0  0  0  0  0  0  0  0  0  0
   39.1520   31.6100   41.3690 H   0  0  0  0  0  0  0  0  0  0  0  0
   38.0310   26.8810   43.5850 C   0  0  0  0  0  0  0  0  0  0  0  0
   38.8990   26.6770   44.2790 H   0  0  0  0  0  0  0  0  0  0  0  0
   37.1490   26.8500   44.2140 H   0  0  0  0  0  0  0  0  0  0  0  0
   39.1720   24.2660   41.2280 C   0  0  0  0  0  0  0  0  0  0  0  0
   37.9680   23.7090   40.8100 C   0  0  0  0  0  0  0  0  0  0  0  0
   36.8040   24.2350   41.3390 C   0  0  0  0  0  0  0  0  0  0  0  0
   36.8760   25.2470   42.2210 N   0  0  0  0  0  0  0  0  0  0  0  0
   38.0600   25.7700   42.6110 C   0  0  0  0  0  0  0  0  0  0  0  0
   39.1870   25.2700   42.1070 N   0  0  0  0  0  0  0  0  0  0  0  0
   40.0340   23.7920   40.7640 H   0  0  0  0  0  0  0  0  0  0  0  0
   37.7820   22.9040   40.1160 H   0  0  0  0  0  0  0  0  0  0  0  0
   35.7890   23.8980   41.1010 H   0  0  0  0  0  0  0  0  0  0  0  0
   36.0660   28.3470   42.1160 O   0  0  0  0  0  0  0  0  0  0  0  0
   35.5280   28.3310   41.2580 H   0  0  0  0  0  0  0  0  0  0  0  0
   36.6870   30.7980   40.9800 O   0  0  0  0  0  0  0  0  0  0  0  0
   36.9460   31.0740   39.6460 C   0  0  0  0  0  0  0  0  0  0  0  0
   36.9530   29.9940   38.7840 C   0  0  0  0  0  0  0  0  0  0  0  0
   37.2050   30.2100   37.4410 C   0  0  0  0  0  0  0  0  0  0  0  0
   37.4490   31.4930   36.9550 C   0  0  0  0  0  0  0  0  0  0  0  0
   37.4280   32.5460   37.8710 C   0  0  0  0  0  0  0  0  0  0  0  0
   37.1810   32.3560   39.2110 C   0  0  0  0  0  0  0  0  0  0  0  0
   36.7730   28.9550   39.0760 H   0  0  0  0  0  0  0  0  0  0  0  0
   37.2200   29.3900   36.7240 H   0  0  0  0  0  0  0  0  0  0  0  0
   37.6490   31.6950   35.9090 H   0  0  0  0  0  0  0  0  0  0  0  0
   37.6210   33.5630   37.4910 H   0  0  0  0  0  0  0  0  0  0  0  0
   37.1730   33.4500   40.0870 N   0  0  0  0  0  0  0  0  0  0  0  0
   37.8180   33.4960   40.9050 H   0  0  0  0  0  0  0  0  0  0  0  0
   36.4670   34.1720   39.8190 H   0  0  0  0  0  0  0  0  0  0  0  0
  1  2  1  0  0  0  0
  2  3  2  0  0  0  0
  2 10  1  0  0  0  0
  3  7  1  0  0  0  0
  4  8  1  0  0  0  0
  4  3  1  0  0  0  0
  5  4  2  0  0  0  0
  6  5  1  0  0  0  0
  6  1  2  0  0  0  0
  9  5  1  0  0  0  0
 10 12  1  0  0  0  0
 10 11  1  0  0  0  0
 13 18  1  0  0  0  0
 14 13  2  0  0  0  0
 14 15  1  0  0  0  0
 15 16  2  0  0  0  0
 16 17  1  0  0  0  0
 17 10  1  0  0  0  0
 18 17  2  0  0  0  0
 19 13  1  0  0  0  0
 20 14  1  0  0  0  0
 21 15  1  0  0  0  0
 22  1  1  0  0  0  0
 23 22  1  0  0  0  0
 24  6  1  0  0  0  0
 25 24  1  0  0  0  0
 26 31  1  0  0  0  0
 26 25  2  0  0  0  0
 27 26  1  0  0  0  0
 28 27  2  0  0  0  0
 28 29  1  0  0  0  0
 29 30  2  0  0  0  0
 30 25  1  0  0  0  0
 30 35  1  0  0  0  0
 32 27  1  0  0  0  0
 33 28  1  0  0  0  0
 34 29  1  0  0  0  0
 35 36  1  0  0  0  0
 37 35  1  0  0  0  0
M  END
>  <minimizedAffinity>
-5.80219173

$$$$

 OpenBabel03242522363D

 37 39  0  0  0  0  0  0  0  0999 V2000
   37.7610   31.1980   40.9280 C   0  0  0  0  0  0  0  0  0  0  0  0
   38.8590   32.0100   40.9910 C   0  0  0  0  0  0  0  0  0  0  0  0
   39.8710   31.6560   41.8570 C   0  0  0  0  0  0  0  0  0  0  0  0
   39.8500   30.5270   42.6700 C   0  0  0  0  0  0  0  0  0  0  0  0
   38.7200   29.7230   42.5820 C   0  0  0  0  0  0  0  0  0  0  0  0
   37.7010   30.0680   41.7190 C   0  0  0  0  0  0  0  0  0  0  0  0
   40.7530   32.2810   41.9260 H   0  0  0  0  0  0  0  0  0  0  0  0
   40.6560   30.2960   43.3210 H   0  0  0  0  0  0  0  0  0  0  0  0
   38.6800   28.8410   43.2030 H   0  0  0  0  0  0  0  0  0  0  0  0
   38.9940   33.2320   40.1780 C   0  0  0  0  0  0  0  0  0  0  0  0
   38.0300   33.3450   39.6000 H   0  0  0  0  0  0  0  0  0  0  0  0
   39.0940   34.1460   40.7510 H   0  0  0  0  0  0  0  0  0  0  0  0
   41.1120   31.9710   37.4180 C   0  0  0  0  0  0  0  0  0  0  0  0
   42.0310   33.0040   37.2630 C   0  0  0  0  0  0  0  0  0  0  0  0
   41.9060   34.0990   38.0990 C   0  0  0  0  0  0  0  0  0  0  0  0
   40.9210   34.1250   39.0130 N   0  0  0  0  0  0  0  0  0  0  0  0
   40.0400   33.1060   39.1420 C   0  0  0  0  0  0  0  0  0  0  0  0
   40.1530   32.0480   38.3420 N   0  0  0  0  0  0  0  0  0  0  0  0
   41.2840   31.1540   36.7210 H   0  0  0  0  0  0  0  0  0  0  0  0
   42.8560   33.0990   36.5740 H   0  0  0  0  0  0  0  0  0  0  0  0
   42.5550   34.9810   38.0920 H   0  0  0  0  0  0  0  0  0  0  0  0
   36.7180   31.5070   40.0770 O   0  0  0  0  0  0  0  0  0  0  0  0
   35.7340   31.4600   40.3130 H   0  0  0  0  0  0  0  0  0  0  0  0
   36.5920   29.2370   41.6640 O   0  0  0  0  0  0  0  0  0  0  0  0
   36.8120   27.8740   41.5320 C   0  0  0  0  0  0  0  0  0  0  0  0
   37.2580   27.4400   40.2980 C   0  0  0  0  0  0  0  0  0  0  0  0
   37.4950   26.0900   40.1080 C   0  0  0  0  0  0  0  0  0  0  0  0
   37.2900   25.1750   41.1380 C   0  0  0  0  0  0  0  0  0  0  0  0
   36.8400   25.6700   42.3630 C   0  0  0  0  0  0  0  0  0  0  0  0
   36.5970   27.0070   42.5750 C   0  0  0  0  0  0  0  0  0  0  0  0
   37.4450   28.0850   39.4330 H   0  0  0  0  0  0  0  0  0  0  0  0
   37.8470   25.7020   39.1530 H   0  0  0  0  0  0  0  0  0  0  0  0
   37.4660   24.1120   41.0210 H   0  0  0  0  0  0  0  0  0  0  0  0
   36.6750   24.9490   43.1810 H   0  0  0  0  0  0  0  0  0  0  0  0
   36.1450   27.4500   43.8260 N   0  0  0  0  0  0  0  0  0  0  0  0
   35.2430   27.9640   43.9280 H   0  0  0  0  0  0  0  0  0  0  0  0
   36.8040   27.2070   44.5990 H   0  0  0  0  0  0  0  0  0  0  0  0
  1  2  2  0  0  0  0
  1  6  1  0  0  0  0
  2  3  1  0  0  0  0
  3  7  1  0  0  0  0
  3  4  2  0  0  0  0
  4  8  1  0  0  0  0
  5  4  1  0  0  0  0
  5  9  1  0  0  0  0
  6  5  2  0  0  0  0
 10 12  1  0  0  0  0
 10  2  1  0  0  0  0
 11 10  1  0  0  0  0
 13 18  1  0  0  0  0
 14 13  2  0  0  0  0
 14 15  1  0  0  0  0
 15 16  2  0  0  0  0
 16 17  1  0  0  0  0
 17 10  1  0  0  0  0
 18 17  2  0  0  0  0
 19 13  1  0  0  0  0
 20 14  1  0  0  0  0
 21 15  1  0  0  0  0
 22 23  1  0  0  0  0
 22  1  1  0  0  0  0
 24  6  1  0  0  0  0
 25 24  1  0  0  0  0
 25 30  1  0  0  0  0
 26 25  2  0  0  0  0
 27 26  1  0  0  0  0
 27 28  2  0  0  0  0
 28 29  1  0  0  0  0
 29 30  2  0  0  0  0
 29 34  1  0  0  0  0
 30 35  1  0  0  0  0
 31 26  1  0  0  0  0
 32 27  1  0  0  0  0
 33 28  1  0  0  0  0
 35 36  1  0  0  0  0
 35 37  1  0  0  0  0
M  END
>  <minimizedAffinity>
-5.60423899

$$$$
