
 OpenBabel03252509353D

 38 39  0  0  1  0  0  0  0  0999 V2000
   46.5550   34.9340   43.2010 O   0  0  0  0  0  0  0  0  0  0  0  0
   46.8060   33.9830   42.2010 C   0  0  1  0  0  0  0  0  0  0  0  0
   46.0910   34.3920   40.9100 C   0  0  0  0  0  0  0  0  0  0  0  0
   46.7230   33.4430   39.9260 C   0  0  0  0  0  0  0  0  0  0  0  0
   48.1030   33.1270   40.4760 C   0  0  0  0  0  0  0  0  0  0  0  0
   48.2270   33.9660   41.7360 C   0  0  1  0  0  0  0  0  0  0  0  0
   46.4610   32.9770   42.4460 H   0  0  0  0  0  0  0  0  0  0  0  0
   46.1780   35.4470   40.6750 H   0  0  0  0  0  0  0  0  0  0  0  0
   45.0030   34.1130   40.9740 H   0  0  0  0  0  0  0  0  0  0  0  0
   46.7850   33.8640   38.9080 H   0  0  0  0  0  0  0  0  0  0  0  0
   46.1580   32.4860   39.9140 H   0  0  0  0  0  0  0  0  0  0  0  0
   48.2040   32.0650   40.7640 H   0  0  0  0  0  0  0  0  0  0  0  0
   48.8860   33.4150   39.7460 H   0  0  0  0  0  0  0  0  0  0  0  0
   48.8710   33.4060   42.4520 H   0  0  0  0  0  0  0  0  0  0  0  0
   48.7620   35.3410   41.4340 C   0  0  0  0  0  0  0  0  0  0  0  0
   49.3520   35.2300   40.4880 H   0  0  0  0  0  0  0  0  0  0  0  0
   47.9900   36.1190   41.3180 H   0  0  0  0  0  0  0  0  0  0  0  0
   49.6350   35.7910   42.4020 O   0  0  0  0  0  0  0  0  0  0  0  0
   50.4940   35.3120   42.4070 H   0  0  0  0  0  0  0  0  0  0  0  0
   44.7140   35.3960   44.9470 O   0  0  0  0  0  0  0  0  0  0  0  0
   45.5530   34.2740   44.3630 P   0  0  1  0  0  0  0  0  0  0  0  0
   44.5640   33.0880   43.6690 O   0  0  0  0  0  0  0  0  0  0  0  0
   43.8940   33.5570   43.1130 H   0  0  0  0  0  0  0  0  0  0  0  0
   46.4400   33.5180   45.5550 O   0  0  0  0  0  0  0  0  0  0  0  0
   46.1800   32.1830   45.5250 C   0  0  0  0  0  0  0  0  0  0  0  0
   45.4130   31.8220   44.8450 H   0  0  0  0  0  0  0  0  0  0  0  0
   47.1290   31.6770   45.1870 H   0  0  0  0  0  0  0  0  0  0  0  0
   45.6170   31.9590   49.2030 C   0  0  0  0  0  0  0  0  0  0  0  0
   45.8970   32.5110   47.9420 C   0  0  0  0  0  0  0  0  0  0  0  0
   45.8880   31.6290   46.8580 C   0  0  0  0  0  0  0  0  0  0  0  0
   45.6150   30.2980   47.0690 N   0  0  0  0  0  0  0  0  0  0  0  0
   45.3510   29.8040   48.2980 C   0  0  0  0  0  0  0  0  0  0  0  0
   45.3550   30.6280   49.3430 N   0  0  0  0  0  0  0  0  0  0  0  0
   45.6080   32.5830   50.0850 H   0  0  0  0  0  0  0  0  0  0  0  0
   46.0930   33.5540   47.9020 H   0  0  0  0  0  0  0  0  0  0  0  0
   45.0700   28.4240   48.4960 N   0  0  0  0  0  0  0  0  0  0  0  0
   45.0540   28.0660   47.5110 H   0  0  0  0  0  0  0  0  0  0  0  0
   44.9140   27.8740   49.3760 H   0  0  0  0  0  0  0  0  0  0  0  0
  1 21  1  0  0  0  0
  2  7  1  1  0  0  0
  2  1  1  0  0  0  0
  3  9  1  0  0  0  0
  3  2  1  0  0  0  0
  4  5  1  0  0  0  0
  4  3  1  0  0  0  0
  5 12  1  0  0  0  0
  5  6  1  0  0  0  0
  6  2  1  0  0  0  0
  6 14  1  1  0  0  0
  8  3  1  0  0  0  0
 10  4  1  0  0  0  0
 11  4  1  0  0  0  0
 13  5  1  0  0  0  0
 15  6  1  0  0  0  0
 15 18  1  0  0  0  0
 16 15  1  0  0  0  0
 17 15  1  0  0  0  0
 18 19  1  0  0  0  0
 21 20  2  1  0  0  0
 21 24  1  0  0  0  0
 22 21  1  0  0  0  0
 23 22  1  0  0  0  0
 25 24  1  0  0  0  0
 25 30  1  0  0  0  0
 26 25  1  0  0  0  0
 27 25  1  0  0  0  0
 28 33  1  0  0  0  0
 28 34  1  0  0  0  0
 29 28  2  0  0  0  0
 30 31  2  0  0  0  0
 30 29  1  0  0  0  0
 31 32  1  0  0  0  0
 32 36  1  0  0  0  0
 32 33  2  0  0  0  0
 35 29  1  0  0  0  0
 36 38  1  0  0  0  0
 37 36  1  0  0  0  0
M  END
>  <minimizedAffinity>
-5.24457359

>  <minimizedRMSD>
0.112785324

$$$$
