
 OpenBabel03252508433D

 25 26  0  0  0  0  0  0  0  0999 V2000
   38.4370   29.3070   41.8260 C   0  0  0  0  0  0  0  0  0  0  0  0
   37.1000   29.0430   41.6380 C   0  0  0  0  0  0  0  0  0  0  0  0
   36.4690   28.0550   42.3630 C   0  0  0  0  0  0  0  0  0  0  0  0
   37.2020   27.3440   43.2690 C   0  0  0  0  0  0  0  0  0  0  0  0
   38.5460   27.5680   43.4960 C   0  0  0  0  0  0  0  0  0  0  0  0
   39.1250   28.5780   42.7340 C   0  0  0  0  0  0  0  0  0  0  0  0
   35.4180   27.8670   42.1950 H   0  0  0  0  0  0  0  0  0  0  0  0
   36.6580   26.5750   43.8160 H   0  0  0  0  0  0  0  0  0  0  0  0
   39.0990   26.9960   44.2120 H   0  0  0  0  0  0  0  0  0  0  0  0
   40.1790   28.7820   42.8840 H   0  0  0  0  0  0  0  0  0  0  0  0
   40.2170   31.2700   39.1310 C   0  0  0  0  0  0  0  0  0  0  0  0
   39.7020   30.1580   39.8310 C   0  0  0  0  0  0  0  0  0  0  0  0
   39.0130   30.3690   41.0260 C   0  0  0  0  0  0  0  0  0  0  0  0
   38.8790   31.6460   41.4390 N   0  0  0  0  0  0  0  0  0  0  0  0
   39.3790   32.7030   40.7560 C   0  0  0  0  0  0  0  0  0  0  0  0
   40.0490   32.5180   39.6030 N   0  0  0  0  0  0  0  0  0  0  0  0
   40.7370   31.0520   38.2180 H   0  0  0  0  0  0  0  0  0  0  0  0
   39.7910   29.1450   39.5340 H   0  0  0  0  0  0  0  0  0  0  0  0
   39.1980   33.6850   41.2040 H   0  0  0  0  0  0  0  0  0  0  0  0
   36.3050   29.8380   40.6330 C   0  0  0  0  0  0  0  0  0  0  0  0
   37.0160   30.2720   39.9010 H   0  0  0  0  0  0  0  0  0  0  0  0
   35.6190   29.1180   40.1600 H   0  0  0  0  0  0  0  0  0  0  0  0
   35.6670   30.9050   41.3130 N   0  0  0  0  0  0  0  0  0  0  0  0
   34.7850   31.2650   40.9590 H   0  0  0  0  0  0  0  0  0  0  0  0
   35.9060   31.0180   42.2890 H   0  0  0  0  0  0  0  0  0  0  0  0
  1  6  1  0  0  0  0
  2  1  2  0  0  0  0
  2  3  1  0  0  0  0
  3  4  2  0  0  0  0
  4  5  1  0  0  0  0
  4  8  1  0  0  0  0
  5  9  1  0  0  0  0
  6 10  1  0  0  0  0
  6  5  2  0  0  0  0
  7  3  1  0  0  0  0
 11 16  2  0  0  0  0
 11 12  1  0  0  0  0
 12 13  2  0  0  0  0
 13 14  1  0  0  0  0
 13  1  1  0  0  0  0
 15 19  1  0  0  0  0
 15 14  2  0  0  0  0
 16 15  1  0  0  0  0
 17 11  1  0  0  0  0
 18 12  1  0  0  0  0
 20 23  1  0  0  0  0
 20  2  1  0  0  0  0
 21 20  1  0  0  0  0
 22 20  1  0  0  0  0
 23 25  1  0  0  0  0
 24 23  1  0  0  0  0
M  END
>  <minimizedAffinity>
-4.64093494

$$$$

 OpenBabel03252508433D

 25 26  0  0  0  0  0  0  0  0999 V2000
   38.5540   29.2080   41.9760 C   0  0  0  0  0  0  0  0  0  0  0  0
   37.2120   29.0960   41.6920 C   0  0  0  0  0  0  0  0  0  0  0  0
   36.4290   28.1670   42.3430 C   0  0  0  0  0  0  0  0  0  0  0  0
   37.0170   27.3600   43.2750 C   0  0  0  0  0  0  0  0  0  0  0  0
   38.3580   27.4310   43.5980 C   0  0  0  0  0  0  0  0  0  0  0  0
   39.0940   28.3890   42.9060 C   0  0  0  0  0  0  0  0  0  0  0  0
   35.3780   28.0980   42.1000 H   0  0  0  0  0  0  0  0  0  0  0  0
   36.3560   26.6440   43.7610 H   0  0  0  0  0  0  0  0  0  0  0  0
   38.7950   26.7870   44.3320 H   0  0  0  0  0  0  0  0  0  0  0  0
   40.1510   28.4720   43.1320 H   0  0  0  0  0  0  0  0  0  0  0  0
   40.2470   32.4170   40.9200 C   0  0  0  0  0  0  0  0  0  0  0  0
   39.5050   31.5160   41.7130 C   0  0  0  0  0  0  0  0  0  0  0  0
   39.2940   30.2170   41.2480 C   0  0  0  0  0  0  0  0  0  0  0  0
   39.8280   29.9030   40.0500 N   0  0  0  0  0  0  0  0  0  0  0  0
   40.5380   30.7780   39.3000 C   0  0  0  0  0  0  0  0  0  0  0  0
   40.7490   32.0360   39.7320 N   0  0  0  0  0  0  0  0  0  0  0  0
   40.3800   33.4020   41.3250 H   0  0  0  0  0  0  0  0  0  0  0  0
   39.0720   31.7340   42.6560 H   0  0  0  0  0  0  0  0  0  0  0  0
   40.9150   30.3900   38.3490 H   0  0  0  0  0  0  0  0  0  0  0  0
   36.5790   29.9950   40.6590 C   0  0  0  0  0  0  0  0  0  0  0  0
   37.3830   30.5990   40.1930 H   0  0  0  0  0  0  0  0  0  0  0  0
   36.0990   29.3210   39.9330 H   0  0  0  0  0  0  0  0  0  0  0  0
   35.6920   30.8790   41.3220 N   0  0  0  0  0  0  0  0  0  0  0  0
   34.8780   31.2320   40.8270 H   0  0  0  0  0  0  0  0  0  0  0  0
   35.6930   30.8370   42.3320 H   0  0  0  0  0  0  0  0  0  0  0  0
  1  6  1  0  0  0  0
  2  1  2  0  0  0  0
  2  3  1  0  0  0  0
  3  4  2  0  0  0  0
  4  5  1  0  0  0  0
  4  8  1  0  0  0  0
  5  9  1  0  0  0  0
  6 10  1  0  0  0  0
  6  5  2  0  0  0  0
  7  3  1  0  0  0  0
 11 17  1  0  0  0  0
 11 12  1  0  0  0  0
 12 18  1  0  0  0  0
 13 12  2  0  0  0  0
 13  1  1  0  0  0  0
 14 13  1  0  0  0  0
 15 16  1  0  0  0  0
 15 14  2  0  0  0  0
 16 11  2  0  0  0  0
 19 15  1  0  0  0  0
 20 23  1  0  0  0  0
 20  2  1  0  0  0  0
 21 20  1  0  0  0  0
 22 20  1  0  0  0  0
 23 25  1  0  0  0  0
 24 23  1  0  0  0  0
M  END
>  <minimizedAffinity>
-4.58593178

$$$$

 OpenBabel03252508433D

 25 26  0  0  0  0  0  0  0  0999 V2000
   36.7980   28.0270   40.8690 C   0  0  0  0  0  0  0  0  0  0  0  0
   37.0750   29.0950   41.6910 C   0  0  0  0  0  0  0  0  0  0  0  0
   37.4520   28.8950   43.0020 C   0  0  0  0  0  0  0  0  0  0  0  0
   37.5430   27.6140   43.4650 C   0  0  0  0  0  0  0  0  0  0  0  0
   37.2770   26.5070   42.6820 C   0  0  0  0  0  0  0  0  0  0  0  0
   36.9010   26.7750   41.3680 C   0  0  0  0  0  0  0  0  0  0  0  0
   37.6620   29.7520   43.6280 H   0  0  0  0  0  0  0  0  0  0  0  0
   37.8450   27.5090   44.5060 H   0  0  0  0  0  0  0  0  0  0  0  0
   37.3550   25.5130   43.0680 H   0  0  0  0  0  0  0  0  0  0  0  0
   36.6830   25.9310   40.7250 H   0  0  0  0  0  0  0  0  0  0  0  0
   36.8230   28.6380   37.1400 C   0  0  0  0  0  0  0  0  0  0  0  0
   37.3050   28.3290   38.4290 C   0  0  0  0  0  0  0  0  0  0  0  0
   36.4180   28.3340   39.5060 C   0  0  0  0  0  0  0  0  0  0  0  0
   35.1320   28.6370   39.2360 N   0  0  0  0  0  0  0  0  0  0  0  0
   34.6820   28.9330   37.9930 C   0  0  0  0  0  0  0  0  0  0  0  0
   35.5260   28.9350   36.9440 N   0  0  0  0  0  0  0  0  0  0  0  0
   37.5480   28.6190   36.3480 H   0  0  0  0  0  0  0  0  0  0  0  0
   38.3080   28.0880   38.6730 H   0  0  0  0  0  0  0  0  0  0  0  0
   33.6150   29.1600   37.9170 H   0  0  0  0  0  0  0  0  0  0  0  0
   36.9690   30.5040   41.1640 C   0  0  0  0  0  0  0  0  0  0  0  0
   37.6630   31.1410   41.7490 H   0  0  0  0  0  0  0  0  0  0  0  0
   37.2610   30.4470   40.1040 H   0  0  0  0  0  0  0  0  0  0  0  0
   35.6490   30.9670   41.3910 N   0  0  0  0  0  0  0  0  0  0  0  0
   35.2470   31.6540   40.7600 H   0  0  0  0  0  0  0  0  0  0  0  0
   35.0480   30.3540   41.9240 H   0  0  0  0  0  0  0  0  0  0  0  0
  1  6  2  0  0  0  0
  1  2  1  0  0  0  0
  2  3  2  0  0  0  0
  3  4  1  0  0  0  0
  3  7  1  0  0  0  0
  4  8  1  0  0  0  0
  5  9  1  0  0  0  0
  5  4  2  0  0  0  0
  6  5  1  0  0  0  0
 10  6  1  0  0  0  0
 11 12  1  0  0  0  0
 12 18  1  0  0  0  0
 12 13  2  0  0  0  0
 13  1  1  0  0  0  0
 14 13  1  0  0  0  0
 15 14  2  0  0  0  0
 16 11  2  0  0  0  0
 16 15  1  0  0  0  0
 17 11  1  0  0  0  0
 19 15  1  0  0  0  0
 20 23  1  0  0  0  0
 20  2  1  0  0  0  0
 20 21  1  0  0  0  0
 22 20  1  0  0  0  0
 23 25  1  0  0  0  0
 24 23  1  0  0  0  0
M  END
>  <minimizedAffinity>
-4.53098106

$$$$

 OpenBabel03252508433D

 25 26  0  0  0  0  0  0  0  0999 V2000
   37.4470   31.0040   38.5510 C   0  0  0  0  0  0  0  0  0  0  0  0
   36.7310   30.1650   39.3740 C   0  0  0  0  0  0  0  0  0  0  0  0
   35.9350   29.1710   38.8440 C   0  0  0  0  0  0  0  0  0  0  0  0
   35.8730   29.0410   37.4870 C   0  0  0  0  0  0  0  0  0  0  0  0
   36.5710   29.8550   36.6170 C   0  0  0  0  0  0  0  0  0  0  0  0
   37.3560   30.8390   37.2120 C   0  0  0  0  0  0  0  0  0  0  0  0
   35.3810   28.5270   39.5130 H   0  0  0  0  0  0  0  0  0  0  0  0
   35.2310   28.2410   37.1190 H   0  0  0  0  0  0  0  0  0  0  0  0
   36.5050   29.7330   35.5560 H   0  0  0  0  0  0  0  0  0  0  0  0
   37.9170   31.4980   36.5600 H   0  0  0  0  0  0  0  0  0  0  0  0
   40.3280   32.9310   40.0550 C   0  0  0  0  0  0  0  0  0  0  0  0
   39.6320   31.8800   39.4210 C   0  0  0  0  0  0  0  0  0  0  0  0
   38.2620   32.0130   39.1960 C   0  0  0  0  0  0  0  0  0  0  0  0
   37.6830   33.1600   39.6050 N   0  0  0  0  0  0  0  0  0  0  0  0
   38.3640   34.1610   40.2130 C   0  0  0  0  0  0  0  0  0  0  0  0
   39.6860   34.0480   40.4390 N   0  0  0  0  0  0  0  0  0  0  0  0
   41.3810   32.7780   40.2020 H   0  0  0  0  0  0  0  0  0  0  0  0
   40.0580   30.9680   39.0900 H   0  0  0  0  0  0  0  0  0  0  0  0
   37.7700   35.0360   40.4920 H   0  0  0  0  0  0  0  0  0  0  0  0
   36.8100   30.3230   40.8710 C   0  0  0  0  0  0  0  0  0  0  0  0
   36.7940   29.3110   41.3230 H   0  0  0  0  0  0  0  0  0  0  0  0
   37.7620   30.8420   41.0640 H   0  0  0  0  0  0  0  0  0  0  0  0
   35.6570   31.0200   41.3080 N   0  0  0  0  0  0  0  0  0  0  0  0
   35.7100   31.5990   42.1410 H   0  0  0  0  0  0  0  0  0  0  0  0
   34.9560   31.2060   40.6030 H   0  0  0  0  0  0  0  0  0  0  0  0
  1 13  1  0  0  0  0
  1  2  1  0  0  0  0
  2 20  1  0  0  0  0
  3  2  2  0  0  0  0
  3  7  1  0  0  0  0
  4  3  1  0  0  0  0
  5  6  1  0  0  0  0
  5  4  2  0  0  0  0
  6  1  2  0  0  0  0
  8  4  1  0  0  0  0
  9  5  1  0  0  0  0
 10  6  1  0  0  0  0
 11 17  1  0  0  0  0
 11 16  1  0  0  0  0
 12 11  2  0  0  0  0
 13 12  1  0  0  0  0
 13 14  2  0  0  0  0
 14 15  1  0  0  0  0
 15 16  2  0  0  0  0
 15 19  1  0  0  0  0
 18 12  1  0  0  0  0
 20 22  1  0  0  0  0
 20 23  1  0  0  0  0
 20 21  1  0  0  0  0
 23 24  1  0  0  0  0
 25 23  1  0  0  0  0
M  END
>  <minimizedAffinity>
-4.47920418

$$$$

 OpenBabel03252508433D

 25 26  0  0  0  0  0  0  0  0999 V2000
   36.6230   28.1700   40.0200 C   0  0  0  0  0  0  0  0  0  0  0  0
   36.3770   29.4790   39.6740 C   0  0  0  0  0  0  0  0  0  0  0  0
   35.7510   29.7860   38.4840 C   0  0  0  0  0  0  0  0  0  0  0  0
   35.3830   28.7630   37.6600 C   0  0  0  0  0  0  0  0  0  0  0  0
   35.6050   27.4330   37.9590 C   0  0  0  0  0  0  0  0  0  0  0  0
   36.2410   27.1870   39.1730 C   0  0  0  0  0  0  0  0  0  0  0  0
   35.5720   30.8230   38.2350 H   0  0  0  0  0  0  0  0  0  0  0  0
   34.8920   29.0580   36.7330 H   0  0  0  0  0  0  0  0  0  0  0  0
   35.3070   26.6490   37.2960 H   0  0  0  0  0  0  0  0  0  0  0  0
   36.4330   26.1560   39.4420 H   0  0  0  0  0  0  0  0  0  0  0  0
   37.3390   27.5270   43.6740 C   0  0  0  0  0  0  0  0  0  0  0  0
   36.5970   27.7450   42.4940 C   0  0  0  0  0  0  0  0  0  0  0  0
   37.2780   27.9430   41.2920 C   0  0  0  0  0  0  0  0  0  0  0  0
   38.6250   27.9090   41.3390 N   0  0  0  0  0  0  0  0  0  0  0  0
   39.3240   27.6980   42.4790 C   0  0  0  0  0  0  0  0  0  0  0  0
   38.6840   27.5080   43.6490 N   0  0  0  0  0  0  0  0  0  0  0  0
   36.7660   27.3790   44.5710 H   0  0  0  0  0  0  0  0  0  0  0  0
   35.5400   27.7790   42.4250 H   0  0  0  0  0  0  0  0  0  0  0  0
   40.4130   27.6950   42.3740 H   0  0  0  0  0  0  0  0  0  0  0  0
   36.7910   30.5970   40.5970 C   0  0  0  0  0  0  0  0  0  0  0  0
   37.5020   30.1820   41.3390 H   0  0  0  0  0  0  0  0  0  0  0  0
   37.2670   31.3530   39.9520 H   0  0  0  0  0  0  0  0  0  0  0  0
   35.6420   31.0500   41.2910 N   0  0  0  0  0  0  0  0  0  0  0  0
   35.5930   32.0190   41.5950 H   0  0  0  0  0  0  0  0  0  0  0  0
   34.7930   30.5220   41.1410 H   0  0  0  0  0  0  0  0  0  0  0  0
  1 13  1  0  0  0  0
  2  1  1  0  0  0  0
  2 20  1  0  0  0  0
  3  2  2  0  0  0  0
  4  5  2  0  0  0  0
  4  3  1  0  0  0  0
  5  6  1  0  0  0  0
  6 10  1  0  0  0  0
  6  1  2  0  0  0  0
  7  3  1  0  0  0  0
  8  4  1  0  0  0  0
  9  5  1  0  0  0  0
 11 17  1  0  0  0  0
 12 11  2  0  0  0  0
 13 14  2  0  0  0  0
 13 12  1  0  0  0  0
 14 15  1  0  0  0  0
 15 16  2  0  0  0  0
 16 11  1  0  0  0  0
 18 12  1  0  0  0  0
 19 15  1  0  0  0  0
 20 23  1  0  0  0  0
 20 21  1  0  0  0  0
 22 20  1  0  0  0  0
 23 24  1  0  0  0  0
 25 23  1  0  0  0  0
M  END
>  <minimizedAffinity>
-4.447299

$$$$

 OpenBabel03252508433D

 25 26  0  0  0  0  0  0  0  0999 V2000
   36.8620   26.8610   40.6570 C   0  0  0  0  0  0  0  0  0  0  0  0
   37.0730   26.3470   41.9160 C   0  0  0  0  0  0  0  0  0  0  0  0
   36.9880   24.9900   42.1460 C   0  0  0  0  0  0  0  0  0  0  0  0
   36.6900   24.1700   41.0960 C   0  0  0  0  0  0  0  0  0  0  0  0
   36.4700   24.6340   39.8130 C   0  0  0  0  0  0  0  0  0  0  0  0
   36.5690   26.0120   39.6460 C   0  0  0  0  0  0  0  0  0  0  0  0
   37.1570   24.6120   43.1450 H   0  0  0  0  0  0  0  0  0  0  0  0
   36.6350   23.1080   41.3290 H   0  0  0  0  0  0  0  0  0  0  0  0
   36.2360   23.9710   39.0080 H   0  0  0  0  0  0  0  0  0  0  0  0
   36.4010   26.4130   38.6540 H   0  0  0  0  0  0  0  0  0  0  0  0
   38.1400   30.3500   39.9680 C   0  0  0  0  0  0  0  0  0  0  0  0
   38.1400   28.9430   40.0800 C   0  0  0  0  0  0  0  0  0  0  0  0
   36.9800   28.2970   40.5100 C   0  0  0  0  0  0  0  0  0  0  0  0
   35.9150   29.0740   40.7910 N   0  0  0  0  0  0  0  0  0  0  0  0
   35.9290   30.4240   40.6790 C   0  0  0  0  0  0  0  0  0  0  0  0
   37.0410   31.0640   40.2680 N   0  0  0  0  0  0  0  0  0  0  0  0
   39.0570   30.7960   39.6320 H   0  0  0  0  0  0  0  0  0  0  0  0
   38.9600   28.3060   39.8680 H   0  0  0  0  0  0  0  0  0  0  0  0
   34.9960   30.9310   40.9390 H   0  0  0  0  0  0  0  0  0  0  0  0
   37.4020   27.2670   43.0650 C   0  0  0  0  0  0  0  0  0  0  0  0
   37.9920   26.6910   43.8060 H   0  0  0  0  0  0  0  0  0  0  0  0
   37.9880   28.0910   42.6270 H   0  0  0  0  0  0  0  0  0  0  0  0
   36.1890   27.6640   43.6790 N   0  0  0  0  0  0  0  0  0  0  0  0
   36.1360   28.5690   44.1390 H   0  0  0  0  0  0  0  0  0  0  0  0
   35.3490   27.2210   43.3340 H   0  0  0  0  0  0  0  0  0  0  0  0
  1  2  1  0  0  0  0
  2  3  2  0  0  0  0
  2 20  1  0  0  0  0
  3  7  1  0  0  0  0
  4  8  1  0  0  0  0
  4  3  1  0  0  0  0
  5  4  2  0  0  0  0
  6  5  1  0  0  0  0
  6  1  2  0  0  0  0
  9  5  1  0  0  0  0
 10  6  1  0  0  0  0
 11 12  2  0  0  0  0
 11 16  1  0  0  0  0
 12 13  1  0  0  0  0
 13  1  1  0  0  0  0
 13 14  2  0  0  0  0
 15 14  1  0  0  0  0
 15 19  1  0  0  0  0
 16 15  2  0  0  0  0
 17 11  1  0  0  0  0
 18 12  1  0  0  0  0
 20 23  1  0  0  0  0
 20 21  1  0  0  0  0
 22 20  1  0  0  0  0
 23 24  1  0  0  0  0
 25 23  1  0  0  0  0
M  END
>  <minimizedAffinity>
-4.39613342

$$$$

 OpenBabel03252508433D

 25 26  0  0  0  0  0  0  0  0999 V2000
   36.8490   30.9080   39.6410 C   0  0  0  0  0  0  0  0  0  0  0  0
   36.7410   30.5110   38.3280 C   0  0  0  0  0  0  0  0  0  0  0  0
   35.8060   29.5700   37.9520 C   0  0  0  0  0  0  0  0  0  0  0  0
   34.9920   29.0420   38.9120 C   0  0  0  0  0  0  0  0  0  0  0  0
   35.0580   29.4050   40.2430 C   0  0  0  0  0  0  0  0  0  0  0  0
   36.0210   30.3590   40.5600 C   0  0  0  0  0  0  0  0  0  0  0  0
   35.7440   29.2750   36.9140 H   0  0  0  0  0  0  0  0  0  0  0  0
   34.2710   28.3030   38.5630 H   0  0  0  0  0  0  0  0  0  0  0  0
   34.4090   28.9760   40.9760 H   0  0  0  0  0  0  0  0  0  0  0  0
   36.1040   30.6670   41.5950 H   0  0  0  0  0  0  0  0  0  0  0  0
   38.6450   34.1570   40.3470 C   0  0  0  0  0  0  0  0  0  0  0  0
   37.5880   33.2730   40.0450 C   0  0  0  0  0  0  0  0  0  0  0  0
   37.8530   31.9070   39.9420 C   0  0  0  0  0  0  0  0  0  0  0  0
   39.1270   31.5150   40.1460 N   0  0  0  0  0  0  0  0  0  0  0  0
   40.1330   32.3750   40.4360 C   0  0  0  0  0  0  0  0  0  0  0  0
   39.8940   33.6960   40.5370 N   0  0  0  0  0  0  0  0  0  0  0  0
   38.3850   35.1970   40.4150 H   0  0  0  0  0  0  0  0  0  0  0  0
   36.5780   33.5500   39.8770 H   0  0  0  0  0  0  0  0  0  0  0  0
   41.1180   31.9210   40.5780 H   0  0  0  0  0  0  0  0  0  0  0  0
   37.6490   31.1050   37.2810 C   0  0  0  0  0  0  0  0  0  0  0  0
   37.0810   31.1650   36.3310 H   0  0  0  0  0  0  0  0  0  0  0  0
   37.9230   32.1030   37.6570 H   0  0  0  0  0  0  0  0  0  0  0  0
   38.7410   30.2250   37.0860 N   0  0  0  0  0  0  0  0  0  0  0  0
   39.6390   30.6010   36.7960 H   0  0  0  0  0  0  0  0  0  0  0  0
   38.6960   29.3430   37.5800 H   0  0  0  0  0  0  0  0  0  0  0  0
  1 13  1  0  0  0  0
  1  6  1  0  0  0  0
  2  1  2  0  0  0  0
  3  2  1  0  0  0  0
  3  4  2  0  0  0  0
  4  5  1  0  0  0  0
  5  6  2  0  0  0  0
  5  9  1  0  0  0  0
  6 10  1  0  0  0  0
  7  3  1  0  0  0  0
  8  4  1  0  0  0  0
 11 17  1  0  0  0  0
 11 16  1  0  0  0  0
 12 11  2  0  0  0  0
 13 12  1  0  0  0  0
 13 14  2  0  0  0  0
 14 15  1  0  0  0  0
 15 16  2  0  0  0  0
 15 19  1  0  0  0  0
 18 12  1  0  0  0  0
 20 22  1  0  0  0  0
 20  2  1  0  0  0  0
 21 20  1  0  0  0  0
 23 20  1  0  0  0  0
 23 25  1  0  0  0  0
 24 23  1  0  0  0  0
M  END
>  <minimizedAffinity>
-4.39540052

$$$$

 OpenBabel03252508433D

 25 26  0  0  0  0  0  0  0  0999 V2000
   37.5510   29.4040   41.4950 C   0  0  0  0  0  0  0  0  0  0  0  0
   38.7410   29.3350   42.1840 C   0  0  0  0  0  0  0  0  0  0  0  0
   38.9120   28.4230   43.2040 C   0  0  0  0  0  0  0  0  0  0  0  0
   37.8740   27.5920   43.5140 C   0  0  0  0  0  0  0  0  0  0  0  0
   36.6610   27.6190   42.8550 C   0  0  0  0  0  0  0  0  0  0  0  0
   36.5500   28.5610   41.8360 C   0  0  0  0  0  0  0  0  0  0  0  0
   39.8550   28.3910   43.7300 H   0  0  0  0  0  0  0  0  0  0  0  0
   38.0590   26.8900   44.3270 H   0  0  0  0  0  0  0  0  0  0  0  0
   35.8620   26.9570   43.1180 H   0  0  0  0  0  0  0  0  0  0  0  0
   35.6110   28.6120   41.2970 H   0  0  0  0  0  0  0  0  0  0  0  0
   37.4100   31.1120   38.1280 C   0  0  0  0  0  0  0  0  0  0  0  0
   37.5070   30.0720   39.0760 C   0  0  0  0  0  0  0  0  0  0  0  0
   37.4660   30.3860   40.4350 C   0  0  0  0  0  0  0  0  0  0  0  0
   37.3310   31.6890   40.7570 N   0  0  0  0  0  0  0  0  0  0  0  0
   37.2390   32.6770   39.8360 C   0  0  0  0  0  0  0  0  0  0  0  0
   37.2790   32.3920   38.5210 N   0  0  0  0  0  0  0  0  0  0  0  0
   37.4470   30.8150   37.0960 H   0  0  0  0  0  0  0  0  0  0  0  0
   37.6160   29.0410   38.8540 H   0  0  0  0  0  0  0  0  0  0  0  0
   37.1320   33.6890   40.2360 H   0  0  0  0  0  0  0  0  0  0  0  0
   39.8770   30.2610   41.8280 C   0  0  0  0  0  0  0  0  0  0  0  0
   40.8220   29.6860   41.9030 H   0  0  0  0  0  0  0  0  0  0  0  0
   39.6790   30.5900   40.7960 H   0  0  0  0  0  0  0  0  0  0  0  0
   39.9180   31.3040   42.7850 N   0  0  0  0  0  0  0  0  0  0  0  0
   40.2710   32.2170   42.5120 H   0  0  0  0  0  0  0  0  0  0  0  0
   39.2790   31.2190   43.5650 H   0  0  0  0  0  0  0  0  0  0  0  0
  1  6  2  0  0  0  0
  1  2  1  0  0  0  0
  2  3  2  0  0  0  0
  3  4  1  0  0  0  0
  3  7  1  0  0  0  0
  4  8  1  0  0  0  0
  5  9  1  0  0  0  0
  5  4  2  0  0  0  0
  6  5  1  0  0  0  0
 10  6  1  0  0  0  0
 11 16  2  0  0  0  0
 11 12  1  0  0  0  0
 12 13  2  0  0  0  0
 13 14  1  0  0  0  0
 13  1  1  0  0  0  0
 15 19  1  0  0  0  0
 15 14  2  0  0  0  0
 16 15  1  0  0  0  0
 17 11  1  0  0  0  0
 18 12  1  0  0  0  0
 20 21  1  0  0  0  0
 20  2  1  0  0  0  0
 20 23  1  0  0  0  0
 22 20  1  0  0  0  0
 23 25  1  0  0  0  0
 24 23  1  0  0  0  0
M  END
>  <minimizedAffinity>
-4.34155798

$$$$

 OpenBabel03252508433D

 25 26  0  0  0  0  0  0  0  0999 V2000
   36.5980   27.1080   40.2210 C   0  0  0  0  0  0  0  0  0  0  0  0
   36.2680   28.1150   41.1000 C   0  0  0  0  0  0  0  0  0  0  0  0
   35.4610   29.1590   40.7020 C   0  0  0  0  0  0  0  0  0  0  0  0
   34.9980   29.1710   39.4180 C   0  0  0  0  0  0  0  0  0  0  0  0
   35.2980   28.1860   38.4970 C   0  0  0  0  0  0  0  0  0  0  0  0
   36.1170   27.1600   38.9590 C   0  0  0  0  0  0  0  0  0  0  0  0
   35.2190   29.9380   41.4110 H   0  0  0  0  0  0  0  0  0  0  0  0
   34.3640   30.0170   39.1540 H   0  0  0  0  0  0  0  0  0  0  0  0
   34.9230   28.2190   37.4960 H   0  0  0  0  0  0  0  0  0  0  0  0
   36.3750   26.3700   38.2630 H   0  0  0  0  0  0  0  0  0  0  0  0
   37.8770   23.9110   41.7780 C   0  0  0  0  0  0  0  0  0  0  0  0
   36.9600   24.8810   41.3210 C   0  0  0  0  0  0  0  0  0  0  0  0
   37.4430   26.0480   40.7300 C   0  0  0  0  0  0  0  0  0  0  0  0
   38.7830   26.1730   40.6290 N   0  0  0  0  0  0  0  0  0  0  0  0
   39.6520   25.2330   41.0720 C   0  0  0  0  0  0  0  0  0  0  0  0
   39.2020   24.1020   41.6470 N   0  0  0  0  0  0  0  0  0  0  0  0
   37.4520   23.0320   42.2240 H   0  0  0  0  0  0  0  0  0  0  0  0
   35.9040   24.8130   41.3880 H   0  0  0  0  0  0  0  0  0  0  0  0
   40.7120   25.4630   40.9260 H   0  0  0  0  0  0  0  0  0  0  0  0
   36.7880   28.0860   42.5150 C   0  0  0  0  0  0  0  0  0  0  0  0
   35.9950   27.6610   43.1620 H   0  0  0  0  0  0  0  0  0  0  0  0
   37.6830   27.4430   42.4890 H   0  0  0  0  0  0  0  0  0  0  0  0
   37.0280   29.4190   42.9290 N   0  0  0  0  0  0  0  0  0  0  0  0
   37.7540   29.6050   43.6150 H   0  0  0  0  0  0  0  0  0  0  0  0
   36.7400   30.1440   42.2860 H   0  0  0  0  0  0  0  0  0  0  0  0
  1 13  1  0  0  0  0
  1  2  1  0  0  0  0
  2 20  1  0  0  0  0
  3  2  2  0  0  0  0
  3  7  1  0  0  0  0
  4  3  1  0  0  0  0
  5  6  1  0  0  0  0
  5  4  2  0  0  0  0
  6  1  2  0  0  0  0
  8  4  1  0  0  0  0
  9  5  1  0  0  0  0
 10  6  1  0  0  0  0
 11 17  1  0  0  0  0
 12 18  1  0  0  0  0
 12 11  2  0  0  0  0
 13 12  1  0  0  0  0
 14 13  2  0  0  0  0
 14 15  1  0  0  0  0
 15 16  2  0  0  0  0
 16 11  1  0  0  0  0
 19 15  1  0  0  0  0
 20 23  1  0  0  0  0
 20 21  1  0  0  0  0
 22 20  1  0  0  0  0
 23 24  1  0  0  0  0
 25 23  1  0  0  0  0
M  END
>  <minimizedAffinity>
-4.33649206

$$$$
