
 OpenBabel03242522353D

 37 39  0  0  0  0  0  0  0  0999 V2000
   43.8100   35.3360   42.4190 C   0  0  0  0  0  0  0  0  0  0  0  0
   42.7470   35.1220   41.5850 C   0  0  0  0  0  0  0  0  0  0  0  0
   42.9890   34.4960   40.3820 C   0  0  0  0  0  0  0  0  0  0  0  0
   44.2430   34.0670   39.9580 C   0  0  0  0  0  0  0  0  0  0  0  0
   45.3020   34.2980   40.8280 C   0  0  0  0  0  0  0  0  0  0  0  0
   45.0700   34.9250   42.0350 C   0  0  0  0  0  0  0  0  0  0  0  0
   42.1650   34.3140   39.7030 H   0  0  0  0  0  0  0  0  0  0  0  0
   44.3790   33.5880   39.0210 H   0  0  0  0  0  0  0  0  0  0  0  0
   46.2850   33.9740   40.5220 H   0  0  0  0  0  0  0  0  0  0  0  0
   41.3720   35.5330   41.9260 C   0  0  0  0  0  0  0  0  0  0  0  0
   41.2520   35.3720   43.0370 H   0  0  0  0  0  0  0  0  0  0  0  0
   41.1630   36.5830   41.7640 H   0  0  0  0  0  0  0  0  0  0  0  0
   39.1310   32.6850   41.1790 C   0  0  0  0  0  0  0  0  0  0  0  0
   38.4420   33.1440   40.0630 C   0  0  0  0  0  0  0  0  0  0  0  0
   38.7550   34.4070   39.5940 C   0  0  0  0  0  0  0  0  0  0  0  0
   39.6980   35.1300   40.2220 N   0  0  0  0  0  0  0  0  0  0  0  0
   40.3540   34.6590   41.3080 C   0  0  0  0  0  0  0  0  0  0  0  0
   40.0580   33.4440   41.7660 N   0  0  0  0  0  0  0  0  0  0  0  0
   38.8200   31.6860   41.4780 H   0  0  0  0  0  0  0  0  0  0  0  0
   37.6730   32.6630   39.4780 H   0  0  0  0  0  0  0  0  0  0  0  0
   38.2970   34.8950   38.7280 H   0  0  0  0  0  0  0  0  0  0  0  0
   43.6220   35.9590   43.6370 O   0  0  0  0  0  0  0  0  0  0  0  0
   44.2130   36.6860   44.0210 H   0  0  0  0  0  0  0  0  0  0  0  0
   46.1560   35.1350   42.8710 O   0  0  0  0  0  0  0  0  0  0  0  0
   47.1930   34.2160   42.8280 C   0  0  0  0  0  0  0  0  0  0  0  0
   46.9510   32.9870   43.4120 C   0  0  0  0  0  0  0  0  0  0  0  0
   47.9490   32.0300   43.3990 C   0  0  0  0  0  0  0  0  0  0  0  0
   49.1840   32.2900   42.8090 C   0  0  0  0  0  0  0  0  0  0  0  0
   49.3740   33.5480   42.2340 C   0  0  0  0  0  0  0  0  0  0  0  0
   48.3960   34.5160   42.2350 C   0  0  0  0  0  0  0  0  0  0  0  0
   46.0140   32.6940   43.8970 H   0  0  0  0  0  0  0  0  0  0  0  0
   47.8040   31.0470   43.8460 H   0  0  0  0  0  0  0  0  0  0  0  0
   49.9870   31.5620   42.7820 H   0  0  0  0  0  0  0  0  0  0  0  0
   50.3490   33.7600   41.7660 H   0  0  0  0  0  0  0  0  0  0  0  0
   48.6390   35.7630   41.6440 N   0  0  0  0  0  0  0  0  0  0  0  0
   48.5670   36.6490   42.1910 H   0  0  0  0  0  0  0  0  0  0  0  0
   48.8890   35.6850   40.6330 H   0  0  0  0  0  0  0  0  0  0  0  0
  1 22  1  0  0  0  0
  2 10  1  0  0  0  0
  2  1  2  0  0  0  0
  3  2  1  0  0  0  0
  4  3  2  0  0  0  0
  4  5  1  0  0  0  0
  5  6  2  0  0  0  0
  6  1  1  0  0  0  0
  6 24  1  0  0  0  0
  7  3  1  0  0  0  0
  8  4  1  0  0  0  0
  9  5  1  0  0  0  0
 10 11  1  0  0  0  0
 12 10  1  0  0  0  0
 13 19  1  0  0  0  0
 13 18  1  0  0  0  0
 14 13  2  0  0  0  0
 15 14  1  0  0  0  0
 15 16  2  0  0  0  0
 16 17  1  0  0  0  0
 17 18  2  0  0  0  0
 17 10  1  0  0  0  0
 20 14  1  0  0  0  0
 21 15  1  0  0  0  0
 22 23  1  0  0  0  0
 25 24  1  0  0  0  0
 25 26  1  0  0  0  0
 26 31  1  0  0  0  0
 27 26  2  0  0  0  0
 27 32  1  0  0  0  0
 28 27  1  0  0  0  0
 29 30  1  0  0  0  0
 29 28  2  0  0  0  0
 30 25  2  0  0  0  0
 33 28  1  0  0  0  0
 34 29  1  0  0  0  0
 35 36  1  0  0  0  0
 35 30  1  0  0  0  0
 37 35  1  0  0  0  0
M  END
>  <minimizedAffinity>
-6.11983061

>  <minimizedRMSD>
0.989655018

$$$$
