
 OpenBabel03252509193D

 43 46  0  0  1  0  0  0  0  0999 V2000
   46.9780   30.9200   47.6780 C   0  0  1  0  0  0  0  0  0  0  0  0
   47.3640   32.1970   47.0210 C   0  0  0  0  0  0  0  0  0  0  0  0
   46.1960   33.0410   46.5860 C   0  0  0  0  0  0  0  0  0  0  0  0
   45.1060   33.1180   47.6200 C   0  0  0  0  0  0  0  0  0  0  0  0
   44.7920   31.7840   48.2170 C   0  0  0  0  0  0  0  0  0  0  0  0
   45.4770   30.6530   47.4170 C   0  0  2  0  0  0  0  0  0  0  0  0
   47.0600   31.0320   48.7580 H   0  0  0  0  0  0  0  0  0  0  0  0
   48.0100   32.8120   47.6890 H   0  0  0  0  0  0  0  0  0  0  0  0
   47.9590   31.9650   46.1110 H   0  0  0  0  0  0  0  0  0  0  0  0
   46.5660   34.0620   46.3990 H   0  0  0  0  0  0  0  0  0  0  0  0
   45.7450   32.6810   45.6290 H   0  0  0  0  0  0  0  0  0  0  0  0
   44.2010   33.5340   47.1310 H   0  0  0  0  0  0  0  0  0  0  0  0
   45.4240   33.7790   48.4770 H   0  0  0  0  0  0  0  0  0  0  0  0
   45.0340   31.6710   49.2770 H   0  0  0  0  0  0  0  0  0  0  0  0
   43.7010   31.5550   48.1130 H   0  0  0  0  0  0  0  0  0  0  0  0
   45.2540   30.7900   46.3410 H   0  0  0  0  0  0  0  0  0  0  0  0
   49.0840   27.9590   45.7860 C   0  0  0  0  0  0  0  0  0  0  0  0
   49.2150   27.9160   47.1690 C   0  0  0  0  0  0  0  0  0  0  0  0
   48.5780   28.8330   47.8870 C   0  0  0  0  0  0  0  0  0  0  0  0
   47.7910   29.8190   47.2610 C   0  0  0  0  0  0  0  0  0  0  0  0
   47.9800   29.4080   45.4990 S   0  0  0  0  0  0  0  0  0  0  0  0
   49.8180   27.1560   47.6400 H   0  0  0  0  0  0  0  0  0  0  0  0
   48.5660   28.9540   48.9560 H   0  0  0  0  0  0  0  0  0  0  0  0
   50.9690   25.1790   44.1730 C   0  0  0  0  0  0  0  0  0  0  0  0
   50.7610   25.4750   42.8250 C   0  0  0  0  0  0  0  0  0  0  0  0
   49.9850   26.6010   42.5290 C   0  0  0  0  0  0  0  0  0  0  0  0
   49.4740   27.3480   43.5620 N   0  0  0  0  0  0  0  0  0  0  0  0
   49.7060   27.0170   44.8380 C   0  0  0  0  0  0  0  0  0  0  0  0
   50.4550   25.9300   45.1350 N   0  0  0  0  0  0  0  0  0  0  0  0
   51.5590   24.3210   44.4050 H   0  0  0  0  0  0  0  0  0  0  0  0
   51.1500   24.9060   41.9880 H   0  0  0  0  0  0  0  0  0  0  0  0
   49.7600   26.9210   41.5000 H   0  0  0  0  0  0  0  0  0  0  0  0
   45.0760   29.3690   47.9560 C   0  0  0  0  0  0  0  0  0  0  0  0
   44.9430   29.1930   49.1730 O   0  0  0  0  0  0  0  0  0  0  0  0
   44.7170   28.0340   47.6100 C   0  0  0  0  0  0  0  0  0  0  0  0
   44.6770   26.8820   48.3660 C   0  0  0  0  0  0  0  0  0  0  0  0
   45.1990   27.0100   49.3360 H   0  0  0  0  0  0  0  0  0  0  0  0
   44.2110   25.6220   48.1780 C   0  0  0  0  0  3  0  0  0  0  0  0
   43.6600   25.4830   46.9450 C   0  0  0  0  0  0  0  0  0  0  0  0
   43.2390   24.5180   46.6530 H   0  0  0  0  0  0  0  0  0  0  0  0
   43.5680   26.4610   45.9880 C   0  0  0  0  0  0  0  0  0  0  0  0
   43.1290   26.3260   45.0230 H   0  0  0  0  0  0  0  0  0  0  0  0
   44.0990   27.6770   46.3730 C   0  0  0  0  0  3  0  0  0  0  0  0
  1  7  1  1  0  0  0
  2  1  1  0  0  0  0
  2  8  1  0  0  0  0
  3  2  1  0  0  0  0
  3  4  1  0  0  0  0
  4  5  1  0  0  0  0
  4 13  1  0  0  0  0
  5 14  1  0  0  0  0
  6 16  1  6  0  0  0
  6  1  1  0  0  0  0
  6 33  1  0  0  0  0
  6  5  1  0  0  0  0
  9  2  1  0  0  0  0
 10  3  1  0  0  0  0
 11  3  1  0  0  0  0
 12  4  1  0  0  0  0
 15  5  1  0  0  0  0
 17 18  2  0  0  0  0
 18 22  1  0  0  0  0
 18 19  1  0  0  0  0
 19 23  1  0  0  0  0
 20  1  1  0  0  0  0
 20 19  2  0  0  0  0
 21 17  1  0  0  0  0
 21 20  1  0  0  0  0
 24 30  1  0  0  0  0
 24 29  1  0  0  0  0
 25 24  2  0  0  0  0
 26 25  1  0  0  0  0
 26 27  2  0  0  0  0
 27 28  1  0  0  0  0
 28 29  2  0  0  0  0
 28 17  1  0  0  0  0
 31 25  1  0  0  0  0
 32 26  1  0  0  0  0
 33 34  2  0  0  0  0
 35 33  1  0  0  0  0
 35 36  1  0  0  0  0
 36 37  1  0  0  0  0
 38 36  2  0  0  0  0
 39 38  1  0  0  0  0
 40 39  1  0  0  0  0
 41 43  1  0  0  0  0
 41 39  2  0  0  0  0
 42 41  1  0  0  0  0
 43 35  2  0  0  0  0
M  END
>  <minimizedAffinity>
-3.80375147

>  <minimizedRMSD>
7.63855219

$$$$
