
 OpenBabel03252509193D

 43 46  0  0  1  0  0  0  0  0999 V2000
   48.2680   27.4250   46.9120 C   0  0  1  0  0  0  0  0  0  0  0  0
   48.8760   26.5120   45.9070 C   0  0  0  0  0  0  0  0  0  0  0  0
   50.1910   26.9940   45.3550 C   0  0  0  0  0  0  0  0  0  0  0  0
   51.1100   27.5390   46.4140 C   0  0  0  0  0  0  0  0  0  0  0  0
   50.4040   28.4460   47.3700 C   0  0  0  0  0  0  0  0  0  0  0  0
   48.9900   28.7920   46.8510 C   0  0  2  0  0  0  0  0  0  0  0  0
   48.4690   27.0440   47.9110 H   0  0  0  0  0  0  0  0  0  0  0  0
   49.0270   25.4930   46.3310 H   0  0  0  0  0  0  0  0  0  0  0  0
   48.1770   26.4090   45.0480 H   0  0  0  0  0  0  0  0  0  0  0  0
   50.6900   26.1390   44.8720 H   0  0  0  0  0  0  0  0  0  0  0  0
   50.0600   27.7770   44.5690 H   0  0  0  0  0  0  0  0  0  0  0  0
   51.9270   28.0920   45.9050 H   0  0  0  0  0  0  0  0  0  0  0  0
   51.5360   26.6990   47.0340 H   0  0  0  0  0  0  0  0  0  0  0  0
   50.3300   28.0830   48.3980 H   0  0  0  0  0  0  0  0  0  0  0  0
   50.9160   29.4400   47.4180 H   0  0  0  0  0  0  0  0  0  0  0  0
   49.0670   29.1280   45.7990 H   0  0  0  0  0  0  0  0  0  0  0  0
   44.4000   28.1100   45.7470 C   0  0  0  0  0  0  0  0  0  0  0  0
   44.4940   27.5970   47.0350 C   0  0  0  0  0  0  0  0  0  0  0  0
   45.7020   27.3310   47.5170 C   0  0  0  0  0  0  0  0  0  0  0  0
   46.8540   27.5670   46.7420 C   0  0  0  0  0  0  0  0  0  0  0  0
   46.1560   28.2150   45.1920 S   0  0  0  0  0  0  0  0  0  0  0  0
   43.6070   27.4230   47.6220 H   0  0  0  0  0  0  0  0  0  0  0  0
   45.9630   26.9330   48.4810 H   0  0  0  0  0  0  0  0  0  0  0  0
   40.8470   28.5950   44.7390 C   0  0  0  0  0  0  0  0  0  0  0  0
   41.0120   29.2570   43.5210 C   0  0  0  0  0  0  0  0  0  0  0  0
   42.3230   29.5110   43.1040 C   0  0  0  0  0  0  0  0  0  0  0  0
   43.3660   29.1050   43.9000 N   0  0  0  0  0  0  0  0  0  0  0  0
   43.1480   28.4740   45.0600 C   0  0  0  0  0  0  0  0  0  0  0  0
   41.8840   28.2230   45.4720 N   0  0  0  0  0  0  0  0  0  0  0  0
   39.8490   28.3990   45.0620 H   0  0  0  0  0  0  0  0  0  0  0  0
   40.2110   29.5890   42.8710 H   0  0  0  0  0  0  0  0  0  0  0  0
   42.5640   30.0270   42.1610 H   0  0  0  0  0  0  0  0  0  0  0  0
   48.3680   29.7470   47.7460 C   0  0  0  0  0  0  0  0  0  0  0  0
   48.8810   30.0460   48.8300 O   0  0  0  0  0  0  0  0  0  0  0  0
   47.2470   30.6120   47.9110 C   0  0  0  0  0  0  0  0  0  0  0  0
   46.4270   30.8340   48.9970 C   0  0  0  0  0  0  0  0  0  0  0  0
   46.5650   30.0610   49.7800 H   0  0  0  0  0  0  0  0  0  0  0  0
   45.4530   31.7280   49.3010 C   0  0  0  0  0  3  0  0  0  0  0  0
   45.2520   32.6000   48.2810 C   0  0  0  0  0  0  0  0  0  0  0  0
   44.4970   33.3830   48.3860 H   0  0  0  0  0  0  0  0  0  0  0  0
   45.9230   32.6090   47.0840 C   0  0  0  0  0  0  0  0  0  0  0  0
   45.7450   33.3070   46.2950 H   0  0  0  0  0  0  0  0  0  0  0  0
   46.8780   31.6180   46.9680 C   0  0  0  0  0  3  0  0  0  0  0  0
  1  7  1  1  0  0  0
  2  8  1  0  0  0  0
  2  1  1  0  0  0  0
  3  2  1  0  0  0  0
  3  4  1  0  0  0  0
  4 13  1  0  0  0  0
  4  5  1  0  0  0  0
  5 15  1  0  0  0  0
  5 14  1  0  0  0  0
  6 16  1  6  0  0  0
  6  1  1  0  0  0  0
  6  5  1  0  0  0  0
  6 33  1  0  0  0  0
  9  2  1  0  0  0  0
 10  3  1  0  0  0  0
 11  3  1  0  0  0  0
 12  4  1  0  0  0  0
 17 18  2  0  0  0  0
 18 19  1  0  0  0  0
 18 22  1  0  0  0  0
 19 23  1  0  0  0  0
 20  1  1  0  0  0  0
 20 19  2  0  0  0  0
 21 17  1  0  0  0  0
 21 20  1  0  0  0  0
 24 30  1  0  0  0  0
 24 29  1  0  0  0  0
 25 24  2  0  0  0  0
 26 25  1  0  0  0  0
 26 27  2  0  0  0  0
 27 28  1  0  0  0  0
 28 29  2  0  0  0  0
 28 17  1  0  0  0  0
 31 25  1  0  0  0  0
 32 26  1  0  0  0  0
 33 35  1  0  0  0  0
 33 34  2  0  0  0  0
 35 36  1  0  0  0  0
 36 38  2  0  0  0  0
 36 37  1  0  0  0  0
 39 40  1  0  0  0  0
 39 38  1  0  0  0  0
 41 39  2  0  0  0  0
 42 41  1  0  0  0  0
 43 41  1  0  0  0  0
 43 35  2  0  0  0  0
M  END
>  <minimizedAffinity>
-4.20335913

>  <minimizedRMSD>
4.73289394

$$$$
