
 OpenBabel03242516533D

 45 48  0  0  1  0  0  0  0  0999 V2000
   47.8540   32.9120   41.8170 C   0  0  1  0  0  0  0  0  0  0  0  0
   47.5430   32.2920   40.5260 C   0  0  0  0  0  0  0  0  0  0  0  0
   48.5780   32.8390   39.5420 C   0  0  0  0  0  0  0  0  0  0  0  0
   48.2410   34.2960   39.3280 C   0  0  0  0  0  0  0  0  0  0  0  0
   48.1580   35.0960   40.5830 C   0  0  0  0  0  0  0  0  0  0  0  0
   47.6480   34.4320   41.7820 C   0  0  1  0  0  0  0  0  0  0  0  0
   48.9680   32.8310   41.9960 H   0  0  0  0  0  0  0  0  0  0  0  0
   47.6180   31.1920   40.6280 H   0  0  0  0  0  0  0  0  0  0  0  0
   46.5220   32.4850   40.1480 H   0  0  0  0  0  0  0  0  0  0  0  0
   49.5740   32.7060   39.9910 H   0  0  0  0  0  0  0  0  0  0  0  0
   48.4480   32.3470   38.5620 H   0  0  0  0  0  0  0  0  0  0  0  0
   47.2400   34.3240   38.8200 H   0  0  0  0  0  0  0  0  0  0  0  0
   48.9680   34.7660   38.6460 H   0  0  0  0  0  0  0  0  0  0  0  0
   47.5300   35.9860   40.3660 H   0  0  0  0  0  0  0  0  0  0  0  0
   49.1820   35.5340   40.7510 H   0  0  0  0  0  0  0  0  0  0  0  0
   48.2290   34.8090   42.6740 H   0  0  0  0  0  0  0  0  0  0  0  0
   45.4130   30.9290   43.8980 C   0  0  0  0  0  0  0  0  0  0  0  0
   46.0960   31.4970   42.8290 C   0  0  0  0  0  0  0  0  0  0  0  0
   47.1900   32.3540   42.9770 C   0  0  0  0  0  0  0  0  0  0  0  0
   47.5420   32.5940   44.2360 N   0  0  0  0  0  0  0  0  0  0  0  0
   46.8930   32.0530   45.2990 C   0  0  0  0  0  0  0  0  0  0  0  0
   45.8440   31.2340   45.1340 N   0  0  0  0  0  0  0  0  0  0  0  0
   44.5700   30.2690   43.7500 H   0  0  0  0  0  0  0  0  0  0  0  0
   45.7220   31.2240   41.8620 H   0  0  0  0  0  0  0  0  0  0  0  0
   47.1840   32.2560   46.3250 H   0  0  0  0  0  0  0  0  0  0  0  0
   46.2510   34.7930   42.1030 C   0  0  0  0  0  0  0  0  0  0  0  0
   45.7970   35.3840   43.2690 C   0  0  0  0  0  0  0  0  0  0  0  0
   44.4230   35.6530   43.3290 C   0  0  0  0  0  0  0  0  0  0  0  0
   43.6500   35.3140   42.2430 C   0  0  0  0  0  0  0  0  0  0  0  0
   44.1160   34.7300   41.0990 C   0  0  0  0  0  0  0  0  0  0  0  0
   45.4510   34.4690   41.0390 N   0  0  0  0  0  0  0  0  0  0  0  0
   46.5250   35.5880   44.0100 H   0  0  0  0  0  0  0  0  0  0  0  0
   44.0590   36.1060   44.2150 H   0  0  0  0  0  0  0  0  0  0  0  0
   42.5810   35.5380   42.3270 H   0  0  0  0  0  0  0  0  0  0  0  0
   43.2210   34.4080   39.9640 C   0  0  0  0  0  0  0  0  0  0  0  0
   42.5710   35.3780   39.4700 O   0  0  0  0  0  0  0  0  0  0  0  0
   43.0320   33.0700   39.3690 C   0  0  0  0  0  0  0  0  0  0  0  0
   43.7640   31.9280   39.6000 C   0  0  0  0  0  0  0  0  0  0  0  0
   44.5290   32.1550   40.3590 H   0  0  0  0  0  0  0  0  0  0  0  0
   43.5230   30.7330   38.9710 C   0  0  0  0  0  3  0  0  0  0  0  0
   42.4880   30.6950   38.0610 C   0  0  0  0  0  0  0  0  0  0  0  0
   42.3370   29.7180   37.5900 H   0  0  0  0  0  0  0  0  0  0  0  0
   41.6960   31.7790   37.7600 C   0  0  0  0  0  0  0  0  0  0  0  0
   40.8940   31.6950   37.0360 H   0  0  0  0  0  0  0  0  0  0  0  0
   41.9930   32.9660   38.4350 C   0  0  0  0  0  3  0  0  0  0  0  0
  1  7  1  1  0  0  0
  1 19  1  0  0  0  0
  2  8  1  0  0  0  0
  2  1  1  0  0  0  0
  3 10  1  0  0  0  0
  3  2  1  0  0  0  0
  4  3  1  0  0  0  0
  4  5  1  0  0  0  0
  5 15  1  0  0  0  0
  5  6  1  0  0  0  0
  6  1  1  0  0  0  0
  6 26  1  0  0  0  0
  6 16  1  1  0  0  0
  9  2  1  0  0  0  0
 11  3  1  0  0  0  0
 12  4  1  0  0  0  0
 13  4  1  0  0  0  0
 14  5  1  0  0  0  0
 17 22  1  0  0  0  0
 18 19  1  0  0  0  0
 18 17  2  0  0  0  0
 19 20  2  0  0  0  0
 20 21  1  0  0  0  0
 21 25  1  0  0  0  0
 22 21  2  0  0  0  0
 23 17  1  0  0  0  0
 24 18  1  0  0  0  0
 26 27  1  0  0  0  0
 27 28  2  0  0  0  0
 27 32  1  0  0  0  0
 28 33  1  0  0  0  0
 29 34  1  0  0  0  0
 29 28  1  0  0  0  0
 30 29  2  0  0  0  0
 31 30  1  0  0  0  0
 31 26  2  0  0  0  0
 35 30  1  0  0  0  0
 36 35  2  0  0  0  0
 37 38  1  0  0  0  0
 37 35  1  0  0  0  0
 38 39  1  0  0  0  0
 40 38  2  0  0  0  0
 41 40  1  0  0  0  0
 42 41  1  0  0  0  0
 43 41  2  0  0  0  0
 43 45  1  0  0  0  0
 44 43  1  0  0  0  0
 45 37  2  0  0  0  0
M  END
>  <minimizedAffinity>
-5.30867434

>  <minimizedRMSD>
0.364578664

$$$$
