
 OpenBabel03242516533D

 45 48  0  0  1  0  0  0  0  0999 V2000
   47.8540   32.8810   41.7170 C   0  0  1  0  0  0  0  0  0  0  0  0
   47.4890   32.2130   40.4640 C   0  0  0  0  0  0  0  0  0  0  0  0
   48.5110   32.6860   39.4290 C   0  0  0  0  0  0  0  0  0  0  0  0
   48.2070   34.1410   39.1590 C   0  0  0  0  0  0  0  0  0  0  0  0
   48.1800   34.9990   40.3790 C   0  0  0  0  0  0  0  0  0  0  0  0
   47.6880   34.4030   41.6200 C   0  0  1  0  0  0  0  0  0  0  0  0
   48.9700   32.7760   41.8700 H   0  0  0  0  0  0  0  0  0  0  0  0
   47.5380   31.1160   40.6140 H   0  0  0  0  0  0  0  0  0  0  0  0
   46.4640   32.4180   40.1060 H   0  0  0  0  0  0  0  0  0  0  0  0
   49.5150   32.5460   39.8560 H   0  0  0  0  0  0  0  0  0  0  0  0
   48.3400   32.1560   38.4770 H   0  0  0  0  0  0  0  0  0  0  0  0
   47.1930   34.1760   38.6780 H   0  0  0  0  0  0  0  0  0  0  0  0
   48.9260   34.5610   38.4370 H   0  0  0  0  0  0  0  0  0  0  0  0
   47.5710   35.8950   40.1390 H   0  0  0  0  0  0  0  0  0  0  0  0
   49.2200   35.4150   40.4990 H   0  0  0  0  0  0  0  0  0  0  0  0
   48.3030   34.8020   42.4780 H   0  0  0  0  0  0  0  0  0  0  0  0
   45.4390   31.0350   43.9510 C   0  0  0  0  0  0  0  0  0  0  0  0
   46.1050   31.5380   42.8390 C   0  0  0  0  0  0  0  0  0  0  0  0
   47.2080   32.3920   42.9190 C   0  0  0  0  0  0  0  0  0  0  0  0
   47.5860   32.6990   44.1550 N   0  0  0  0  0  0  0  0  0  0  0  0
   46.9540   32.2240   45.2590 C   0  0  0  0  0  0  0  0  0  0  0  0
   45.8960   31.4050   45.1600 N   0  0  0  0  0  0  0  0  0  0  0  0
   44.5890   30.3750   43.8560 H   0  0  0  0  0  0  0  0  0  0  0  0
   45.7110   31.2150   41.8960 H   0  0  0  0  0  0  0  0  0  0  0  0
   47.2660   32.4800   46.2660 H   0  0  0  0  0  0  0  0  0  0  0  0
   46.3100   34.8160   41.9620 C   0  0  0  0  0  0  0  0  0  0  0  0
   45.9070   35.4790   43.1080 C   0  0  0  0  0  0  0  0  0  0  0  0
   44.5430   35.7870   43.1940 C   0  0  0  0  0  0  0  0  0  0  0  0
   43.7280   35.4110   42.1510 C   0  0  0  0  0  0  0  0  0  0  0  0
   44.1450   34.7560   41.0260 C   0  0  0  0  0  0  0  0  0  0  0  0
   45.4700   34.4570   40.9410 N   0  0  0  0  0  0  0  0  0  0  0  0
   46.6630   35.7030   43.8150 H   0  0  0  0  0  0  0  0  0  0  0  0
   44.2170   36.2950   44.0640 H   0  0  0  0  0  0  0  0  0  0  0  0
   42.6680   35.6680   42.2550 H   0  0  0  0  0  0  0  0  0  0  0  0
   43.2070   34.3980   39.9380 C   0  0  0  0  0  0  0  0  0  0  0  0
   42.5610   35.3560   39.4160 O   0  0  0  0  0  0  0  0  0  0  0  0
   42.9730   33.0360   39.4160 C   0  0  0  0  0  0  0  0  0  0  0  0
   43.5900   31.8660   39.7920 C   0  0  0  0  0  0  0  0  0  0  0  0
   44.2960   32.0940   40.6050 H   0  0  0  0  0  0  0  0  0  0  0  0
   43.3180   30.6480   39.2210 C   0  0  0  0  0  3  0  0  0  0  0  0
   42.3710   30.6170   38.2190 C   0  0  0  0  0  0  0  0  0  0  0  0
   42.1920   29.6210   37.8000 H   0  0  0  0  0  0  0  0  0  0  0  0
   41.6980   31.7290   37.7720 C   0  0  0  0  0  0  0  0  0  0  0  0
   40.9630   31.6490   36.9780 H   0  0  0  0  0  0  0  0  0  0  0  0
   42.0200   32.9380   38.3930 C   0  0  0  0  0  3  0  0  0  0  0  0
  1  7  1  1  0  0  0
  1 19  1  0  0  0  0
  2  8  1  0  0  0  0
  2  1  1  0  0  0  0
  3 10  1  0  0  0  0
  3  2  1  0  0  0  0
  4  3  1  0  0  0  0
  4  5  1  0  0  0  0
  5 15  1  0  0  0  0
  5  6  1  0  0  0  0
  6  1  1  0  0  0  0
  6 26  1  0  0  0  0
  6 16  1  1  0  0  0
  9  2  1  0  0  0  0
 11  3  1  0  0  0  0
 12  4  1  0  0  0  0
 13  4  1  0  0  0  0
 14  5  1  0  0  0  0
 17 22  1  0  0  0  0
 18 19  1  0  0  0  0
 18 17  2  0  0  0  0
 19 20  2  0  0  0  0
 20 21  1  0  0  0  0
 21 25  1  0  0  0  0
 22 21  2  0  0  0  0
 23 17  1  0  0  0  0
 24 18  1  0  0  0  0
 26 27  1  0  0  0  0
 27 28  2  0  0  0  0
 27 32  1  0  0  0  0
 28 33  1  0  0  0  0
 29 34  1  0  0  0  0
 29 28  1  0  0  0  0
 30 29  2  0  0  0  0
 31 30  1  0  0  0  0
 31 26  2  0  0  0  0
 35 30  1  0  0  0  0
 36 35  2  0  0  0  0
 37 38  1  0  0  0  0
 37 35  1  0  0  0  0
 38 39  1  0  0  0  0
 40 38  2  0  0  0  0
 41 40  1  0  0  0  0
 42 41  1  0  0  0  0
 43 41  2  0  0  0  0
 43 45  1  0  0  0  0
 44 43  1  0  0  0  0
 45 37  2  0  0  0  0
M  END
>  <minimizedAffinity>
-5.32098722

>  <minimizedRMSD>
0.523598075

$$$$
