
 OpenBabel03242516553D

 45 48  0  0  1  0  0  0  0  0999 V2000
   38.9140   24.8290   40.8880 C   0  0  1  0  0  0  0  0  0  0  0  0
   38.2600   23.7000   41.5540 C   0  0  0  0  0  0  0  0  0  0  0  0
   37.3440   23.0710   40.5030 C   0  0  0  0  0  0  0  0  0  0  0  0
   36.2170   24.0500   40.2730 C   0  0  0  0  0  0  0  0  0  0  0  0
   36.6640   25.4240   39.9040 C   0  0  0  0  0  0  0  0  0  0  0  0
   37.9070   25.9180   40.4950 C   0  0  1  0  0  0  0  0  0  0  0  0
   39.2920   24.4830   39.8800 H   0  0  0  0  0  0  0  0  0  0  0  0
   39.0360   22.9870   41.8980 H   0  0  0  0  0  0  0  0  0  0  0  0
   37.6770   23.9610   42.4560 H   0  0  0  0  0  0  0  0  0  0  0  0
   37.9400   22.9040   39.5920 H   0  0  0  0  0  0  0  0  0  0  0  0
   36.8800   22.1600   40.9190 H   0  0  0  0  0  0  0  0  0  0  0  0
   35.6410   24.1100   41.2350 H   0  0  0  0  0  0  0  0  0  0  0  0
   35.5270   23.6740   39.5010 H   0  0  0  0  0  0  0  0  0  0  0  0
   35.8380   26.1190   40.1600 H   0  0  0  0  0  0  0  0  0  0  0  0
   36.6950   25.4570   38.7780 H   0  0  0  0  0  0  0  0  0  0  0  0
   38.4540   26.5310   39.7200 H   0  0  0  0  0  0  0  0  0  0  0  0
   41.2850   25.7380   43.6770 C   0  0  0  0  0  0  0  0  0  0  0  0
   40.2330   25.1950   42.9490 C   0  0  0  0  0  0  0  0  0  0  0  0
   40.0350   25.4270   41.5850 C   0  0  0  0  0  0  0  0  0  0  0  0
   40.9400   26.2180   41.0190 N   0  0  0  0  0  0  0  0  0  0  0  0
   41.9760   26.7630   41.7050 C   0  0  0  0  0  0  0  0  0  0  0  0
   42.1480   26.5280   43.0150 N   0  0  0  0  0  0  0  0  0  0  0  0
   41.4110   25.5380   44.7320 H   0  0  0  0  0  0  0  0  0  0  0  0
   39.5720   24.5680   43.5150 H   0  0  0  0  0  0  0  0  0  0  0  0
   42.7100   27.4110   41.2370 H   0  0  0  0  0  0  0  0  0  0  0  0
   37.6890   26.8750   41.6010 C   0  0  0  0  0  0  0  0  0  0  0  0
   36.9720   26.6450   42.7610 C   0  0  0  0  0  0  0  0  0  0  0  0
   36.9280   27.7050   43.6780 C   0  0  0  0  0  0  0  0  0  0  0  0
   37.5890   28.8670   43.3550 C   0  0  0  0  0  0  0  0  0  0  0  0
   38.2930   29.0750   42.2030 C   0  0  0  0  0  0  0  0  0  0  0  0
   38.3370   28.0460   41.3120 N   0  0  0  0  0  0  0  0  0  0  0  0
   36.5250   25.6900   42.8610 H   0  0  0  0  0  0  0  0  0  0  0  0
   36.3830   27.5460   44.5730 H   0  0  0  0  0  0  0  0  0  0  0  0
   37.5310   29.6730   44.0950 H   0  0  0  0  0  0  0  0  0  0  0  0
   38.9920   30.3520   41.9330 C   0  0  0  0  0  0  0  0  0  0  0  0
   40.1460   30.4790   42.4450 O   0  0  0  0  0  0  0  0  0  0  0  0
   38.4640   31.4700   41.1250 C   0  0  0  0  0  0  0  0  0  0  0  0
   37.3710   31.4710   40.2900 C   0  0  0  0  0  0  0  0  0  0  0  0
   36.8980   30.4780   40.3400 H   0  0  0  0  0  0  0  0  0  0  0  0
   36.9770   32.5610   39.5580 C   0  0  0  0  0  3  0  0  0  0  0  0
   37.7320   33.7090   39.6780 C   0  0  0  0  0  0  0  0  0  0  0  0
   37.3730   34.5490   39.0740 H   0  0  0  0  0  0  0  0  0  0  0  0
   38.8400   33.8130   40.4850 C   0  0  0  0  0  0  0  0  0  0  0  0
   39.3990   34.7400   40.5420 H   0  0  0  0  0  0  0  0  0  0  0  0
   39.1890   32.6660   41.2060 C   0  0  0  0  0  3  0  0  0  0  0  0
  1  7  1  6  0  0  0
  1  2  1  0  0  0  0
  1 19  1  0  0  0  0
  2  8  1  0  0  0  0
  2  9  1  0  0  0  0
  3 11  1  0  0  0  0
  3  2  1  0  0  0  0
  4  3  1  0  0  0  0
  4 12  1  0  0  0  0
  5 14  1  0  0  0  0
  5  4  1  0  0  0  0
  5  6  1  0  0  0  0
  6 16  1  6  0  0  0
  6  1  1  0  0  0  0
  6 26  1  0  0  0  0
 10  3  1  0  0  0  0
 13  4  1  0  0  0  0
 15  5  1  0  0  0  0
 17 23  1  0  0  0  0
 18 24  1  0  0  0  0
 18 17  2  0  0  0  0
 19 18  1  0  0  0  0
 20 19  2  0  0  0  0
 20 21  1  0  0  0  0
 21 22  2  0  0  0  0
 22 17  1  0  0  0  0
 25 21  1  0  0  0  0
 26 27  1  0  0  0  0
 27 32  1  0  0  0  0
 27 28  2  0  0  0  0
 28 33  1  0  0  0  0
 29 28  1  0  0  0  0
 29 34  1  0  0  0  0
 30 29  2  0  0  0  0
 31 26  2  0  0  0  0
 31 30  1  0  0  0  0
 35 30  1  0  0  0  0
 35 36  2  0  0  0  0
 37 45  1  0  0  0  0
 37 35  1  0  0  0  0
 38 39  1  0  0  0  0
 38 37  2  0  0  0  0
 40 41  2  0  0  0  0
 40 38  1  0  0  0  0
 41 43  1  0  0  0  0
 42 41  1  0  0  0  0
 43 44  1  0  0  0  0
 43 45  2  0  0  0  0
M  END
>  <minimizedAffinity>
-6.41177464

$$$$

 OpenBabel03242516553D

 45 48  0  0  1  0  0  0  0  0999 V2000
   36.7740   30.3710   39.3860 C   0  0  1  0  0  0  0  0  0  0  0  0
   36.8160   29.4610   38.2380 C   0  0  0  0  0  0  0  0  0  0  0  0
   35.3940   29.4370   37.6740 C   0  0  0  0  0  0  0  0  0  0  0  0
   34.5450   28.6990   38.6820 C   0  0  0  0  0  0  0  0  0  0  0  0
   34.6100   29.2570   40.0640 C   0  0  0  0  0  0  0  0  0  0  0  0
   35.8800   29.8290   40.5090 C   0  0  1  0  0  0  0  0  0  0  0  0
   36.2230   31.3110   39.0810 H   0  0  0  0  0  0  0  0  0  0  0  0
   37.5420   29.8510   37.4970 H   0  0  0  0  0  0  0  0  0  0  0  0
   37.1500   28.4330   38.4680 H   0  0  0  0  0  0  0  0  0  0  0  0
   35.0660   30.4780   37.5400 H   0  0  0  0  0  0  0  0  0  0  0  0
   35.3760   28.8280   36.7540 H   0  0  0  0  0  0  0  0  0  0  0  0
   34.9190   27.6410   38.7080 H   0  0  0  0  0  0  0  0  0  0  0  0
   33.4940   28.6660   38.3540 H   0  0  0  0  0  0  0  0  0  0  0  0
   34.3120   28.4460   40.7610 H   0  0  0  0  0  0  0  0  0  0  0  0
   33.7650   29.9970   40.1480 H   0  0  0  0  0  0  0  0  0  0  0  0
   35.6610   30.7340   41.1470 H   0  0  0  0  0  0  0  0  0  0  0  0
   40.4610   30.3650   40.1800 C   0  0  0  0  0  0  0  0  0  0  0  0
   39.2060   30.0310   39.6860 C   0  0  0  0  0  0  0  0  0  0  0  0
   38.0520   30.7800   39.9320 C   0  0  0  0  0  0  0  0  0  0  0  0
   38.2400   31.8590   40.6850 N   0  0  0  0  0  0  0  0  0  0  0  0
   39.4540   32.2090   41.1810 C   0  0  0  0  0  0  0  0  0  0  0  0
   40.5480   31.4750   40.9340 N   0  0  0  0  0  0  0  0  0  0  0  0
   41.3340   29.7650   39.9710 H   0  0  0  0  0  0  0  0  0  0  0  0
   39.1820   29.1420   39.0860 H   0  0  0  0  0  0  0  0  0  0  0  0
   39.6000   33.0900   41.7990 H   0  0  0  0  0  0  0  0  0  0  0  0
   36.6360   28.9400   41.4170 C   0  0  0  0  0  0  0  0  0  0  0  0
   37.2360   29.2980   42.6110 C   0  0  0  0  0  0  0  0  0  0  0  0
   37.8780   28.2670   43.3120 C   0  0  0  0  0  0  0  0  0  0  0  0
   37.8600   27.0060   42.7630 C   0  0  0  0  0  0  0  0  0  0  0  0
   37.2620   26.6710   41.5810 C   0  0  0  0  0  0  0  0  0  0  0  0
   36.6380   27.6720   40.9010 N   0  0  0  0  0  0  0  0  0  0  0  0
   37.1520   30.3140   42.8980 H   0  0  0  0  0  0  0  0  0  0  0  0
   38.3420   28.5230   44.2280 H   0  0  0  0  0  0  0  0  0  0  0  0
   38.3730   26.2260   43.3380 H   0  0  0  0  0  0  0  0  0  0  0  0
   37.2740   25.2840   41.0640 C   0  0  0  0  0  0  0  0  0  0  0  0
   38.0440   24.4710   41.6580 O   0  0  0  0  0  0  0  0  0  0  0  0
   36.4690   24.7790   39.9330 C   0  0  0  0  0  0  0  0  0  0  0  0
   36.3010   25.3450   38.6910 C   0  0  0  0  0  0  0  0  0  0  0  0
   36.9140   26.2580   38.6420 H   0  0  0  0  0  0  0  0  0  0  0  0
   35.5050   24.8060   37.7130 C   0  0  0  0  0  3  0  0  0  0  0  0
   34.8430   23.6330   38.0120 C   0  0  0  0  0  0  0  0  0  0  0  0
   34.2240   23.2460   37.1970 H   0  0  0  0  0  0  0  0  0  0  0  0
   34.9440   22.9870   39.2220 C   0  0  0  0  0  0  0  0  0  0  0  0
   34.4000   22.0670   39.4050 H   0  0  0  0  0  0  0  0  0  0  0  0
   35.7720   23.5870   40.1760 C   0  0  0  0  0  3  0  0  0  0  0  0
  1  7  1  6  0  0  0
  1 19  1  0  0  0  0
  1  6  1  0  0  0  0
  2  9  1  0  0  0  0
  2  1  1  0  0  0  0
  3  2  1  0  0  0  0
  3  4  1  0  0  0  0
  4 12  1  0  0  0  0
  4  5  1  0  0  0  0
  5 15  1  0  0  0  0
  5  6  1  0  0  0  0
  5 14  1  0  0  0  0
  6 16  1  1  0  0  0
  6 26  1  0  0  0  0
  8  2  1  0  0  0  0
 10  3  1  0  0  0  0
 11  3  1  0  0  0  0
 13  4  1  0  0  0  0
 17 22  1  0  0  0  0
 18 19  1  0  0  0  0
 18 17  2  0  0  0  0
 19 20  2  0  0  0  0
 20 21  1  0  0  0  0
 21 25  1  0  0  0  0
 22 21  2  0  0  0  0
 23 17  1  0  0  0  0
 24 18  1  0  0  0  0
 26 27  1  0  0  0  0
 27 32  1  0  0  0  0
 27 28  2  0  0  0  0
 28 33  1  0  0  0  0
 29 28  1  0  0  0  0
 29 34  1  0  0  0  0
 30 29  2  0  0  0  0
 31 26  2  0  0  0  0
 31 30  1  0  0  0  0
 35 30  1  0  0  0  0
 35 36  2  0  0  0  0
 37 45  1  0  0  0  0
 37 35  1  0  0  0  0
 38 37  2  0  0  0  0
 39 38  1  0  0  0  0
 40 41  2  0  0  0  0
 40 38  1  0  0  0  0
 41 43  1  0  0  0  0
 42 41  1  0  0  0  0
 43 44  1  0  0  0  0
 43 45  2  0  0  0  0
M  END
>  <minimizedAffinity>
-6.14715815

$$$$

 OpenBabel03242516553D

 45 48  0  0  1  0  0  0  0  0999 V2000
   36.5750   30.7070   38.8740 C   0  0  1  0  0  0  0  0  0  0  0  0
   36.8240   29.7520   37.7900 C   0  0  0  0  0  0  0  0  0  0  0  0
   35.4440   29.2860   37.3220 C   0  0  0  0  0  0  0  0  0  0  0  0
   34.8800   28.4290   38.4300 C   0  0  0  0  0  0  0  0  0  0  0  0
   34.8430   29.0970   39.7640 C   0  0  0  0  0  0  0  0  0  0  0  0
   35.9180   30.0350   40.0860 C   0  0  1  0  0  0  0  0  0  0  0  0
   35.7690   31.4280   38.5400 H   0  0  0  0  0  0  0  0  0  0  0  0
   37.3790   30.2640   36.9800 H   0  0  0  0  0  0  0  0  0  0  0  0
   37.4430   28.8800   38.0680 H   0  0  0  0  0  0  0  0  0  0  0  0
   34.8300   30.1810   37.1380 H   0  0  0  0  0  0  0  0  0  0  0  0
   35.5590   28.6220   36.4480 H   0  0  0  0  0  0  0  0  0  0  0  0
   35.5380   27.5230   38.5050 H   0  0  0  0  0  0  0  0  0  0  0  0
   33.8680   28.0790   38.1730 H   0  0  0  0  0  0  0  0  0  0  0  0
   34.8160   28.2970   40.5320 H   0  0  0  0  0  0  0  0  0  0  0  0
   33.8290   29.5790   39.8510 H   0  0  0  0  0  0  0  0  0  0  0  0
   35.4810   30.8940   40.6730 H   0  0  0  0  0  0  0  0  0  0  0  0
   38.5610   33.5650   40.3270 C   0  0  0  0  0  0  0  0  0  0  0  0
   37.5190   32.7550   39.8920 C   0  0  0  0  0  0  0  0  0  0  0  0
   37.7090   31.5000   39.3070 C   0  0  0  0  0  0  0  0  0  0  0  0
   38.9780   31.1250   39.1910 N   0  0  0  0  0  0  0  0  0  0  0  0
   40.0150   31.8970   39.6060 C   0  0  0  0  0  0  0  0  0  0  0  0
   39.8110   33.0990   40.1650 N   0  0  0  0  0  0  0  0  0  0  0  0
   38.3820   34.5310   40.7770 H   0  0  0  0  0  0  0  0  0  0  0  0
   36.5400   33.1630   40.0440 H   0  0  0  0  0  0  0  0  0  0  0  0
   41.0500   31.5860   39.5060 H   0  0  0  0  0  0  0  0  0  0  0  0
   36.9320   29.4700   41.0030 C   0  0  0  0  0  0  0  0  0  0  0  0
   37.3850   30.0360   42.1810 C   0  0  0  0  0  0  0  0  0  0  0  0
   38.3370   29.2940   42.8950 C   0  0  0  0  0  0  0  0  0  0  0  0
   38.7380   28.0860   42.3730 C   0  0  0  0  0  0  0  0  0  0  0  0
   38.2780   27.5440   41.2060 C   0  0  0  0  0  0  0  0  0  0  0  0
   37.3540   28.2630   40.5130 N   0  0  0  0  0  0  0  0  0  0  0  0
   36.9690   30.9730   42.4470 H   0  0  0  0  0  0  0  0  0  0  0  0
   38.6940   29.7130   43.8000 H   0  0  0  0  0  0  0  0  0  0  0  0
   39.4840   27.5360   42.9580 H   0  0  0  0  0  0  0  0  0  0  0  0
   38.7490   26.2270   40.7180 C   0  0  0  0  0  0  0  0  0  0  0  0
   40.0060   26.0690   40.6550 O   0  0  0  0  0  0  0  0  0  0  0  0
   37.8860   25.1000   40.3110 C   0  0  0  0  0  0  0  0  0  0  0  0
   36.6410   25.1520   39.7260 C   0  0  0  0  0  0  0  0  0  0  0  0
   36.3810   26.2090   39.5610 H   0  0  0  0  0  0  0  0  0  0  0  0
   35.9050   24.0390   39.4100 C   0  0  0  0  0  3  0  0  0  0  0  0
   36.4600   22.8110   39.7030 C   0  0  0  0  0  0  0  0  0  0  0  0
   35.8320   21.9570   39.4290 H   0  0  0  0  0  0  0  0  0  0  0  0
   37.6950   22.6500   40.2850 C   0  0  0  0  0  0  0  0  0  0  0  0
   38.0830   21.6590   40.4950 H   0  0  0  0  0  0  0  0  0  0  0  0
   38.3950   23.8230   40.5820 C   0  0  0  0  0  3  0  0  0  0  0  0
  1  7  1  6  0  0  0
  1 19  1  0  0  0  0
  1  6  1  0  0  0  0
  2  9  1  0  0  0  0
  2  1  1  0  0  0  0
  3  2  1  0  0  0  0
  3  4  1  0  0  0  0
  4 12  1  0  0  0  0
  4  5  1  0  0  0  0
  5 15  1  0  0  0  0
  5  6  1  0  0  0  0
  5 14  1  0  0  0  0
  6 16  1  1  0  0  0
  6 26  1  0  0  0  0
  8  2  1  0  0  0  0
 10  3  1  0  0  0  0
 11  3  1  0  0  0  0
 13  4  1  0  0  0  0
 17 23  1  0  0  0  0
 18 24  1  0  0  0  0
 18 17  2  0  0  0  0
 19 18  1  0  0  0  0
 20 19  2  0  0  0  0
 20 21  1  0  0  0  0
 21 22  2  0  0  0  0
 22 17  1  0  0  0  0
 25 21  1  0  0  0  0
 26 27  1  0  0  0  0
 27 32  1  0  0  0  0
 27 28  2  0  0  0  0
 28 33  1  0  0  0  0
 29 28  1  0  0  0  0
 29 34  1  0  0  0  0
 30 29  2  0  0  0  0
 31 26  2  0  0  0  0
 31 30  1  0  0  0  0
 35 30  1  0  0  0  0
 36 35  2  0  0  0  0
 37 45  1  0  0  0  0
 37 35  1  0  0  0  0
 38 37  2  0  0  0  0
 39 38  1  0  0  0  0
 40 41  2  0  0  0  0
 40 38  1  0  0  0  0
 41 43  1  0  0  0  0
 42 41  1  0  0  0  0
 43 44  1  0  0  0  0
 43 45  2  0  0  0  0
M  END
>  <minimizedAffinity>
-6.11533117

$$$$

 OpenBabel03242516553D

 45 48  0  0  1  0  0  0  0  0999 V2000
   36.7340   30.4030   39.2790 C   0  0  1  0  0  0  0  0  0  0  0  0
   36.8860   29.4350   38.1890 C   0  0  0  0  0  0  0  0  0  0  0  0
   35.4840   29.2440   37.6060 C   0  0  0  0  0  0  0  0  0  0  0  0
   34.6860   28.4900   38.6440 C   0  0  0  0  0  0  0  0  0  0  0  0
   34.6700   29.1320   39.9900 C   0  0  0  0  0  0  0  0  0  0  0  0
   35.8720   29.8460   40.4190 C   0  0  1  0  0  0  0  0  0  0  0  0
   36.1050   31.2670   38.9090 H   0  0  0  0  0  0  0  0  0  0  0  0
   37.5870   29.8470   37.4370 H   0  0  0  0  0  0  0  0  0  0  0  0
   37.3090   28.4580   38.4860 H   0  0  0  0  0  0  0  0  0  0  0  0
   35.0630   30.2400   37.4040 H   0  0  0  0  0  0  0  0  0  0  0  0
   35.5420   28.5830   36.7240 H   0  0  0  0  0  0  0  0  0  0  0  0
   35.1570   27.4750   38.7390 H   0  0  0  0  0  0  0  0  0  0  0  0
   33.6500   28.3390   38.3020 H   0  0  0  0  0  0  0  0  0  0  0  0
   34.4340   28.3390   40.7310 H   0  0  0  0  0  0  0  0  0  0  0  0
   33.7590   29.7930   40.0170 H   0  0  0  0  0  0  0  0  0  0  0  0
   35.5560   30.7630   40.9980 H   0  0  0  0  0  0  0  0  0  0  0  0
   39.0910   32.8050   40.9830 C   0  0  0  0  0  0  0  0  0  0  0  0
   37.9550   32.2110   40.4470 C   0  0  0  0  0  0  0  0  0  0  0  0
   37.9580   30.9630   39.8180 C   0  0  0  0  0  0  0  0  0  0  0  0
   39.1450   30.3690   39.7660 N   0  0  0  0  0  0  0  0  0  0  0  0
   40.2710   30.9260   40.2800 C   0  0  0  0  0  0  0  0  0  0  0  0
   40.2460   32.1260   40.8790 N   0  0  0  0  0  0  0  0  0  0  0  0
   39.0560   33.7720   41.4640 H   0  0  0  0  0  0  0  0  0  0  0  0
   37.0550   32.7840   40.5550 H   0  0  0  0  0  0  0  0  0  0  0  0
   41.2390   30.4370   40.2320 H   0  0  0  0  0  0  0  0  0  0  0  0
   36.6880   29.0880   41.3910 C   0  0  0  0  0  0  0  0  0  0  0  0
   37.3410   29.6000   42.4980 C   0  0  0  0  0  0  0  0  0  0  0  0
   38.0350   28.6730   43.2870 C   0  0  0  0  0  0  0  0  0  0  0  0
   38.0130   27.3530   42.9030 C   0  0  0  0  0  0  0  0  0  0  0  0
   37.3620   26.8650   41.8050 C   0  0  0  0  0  0  0  0  0  0  0  0
   36.6870   27.7650   41.0380 N   0  0  0  0  0  0  0  0  0  0  0  0
   37.2540   30.6440   42.6590 H   0  0  0  0  0  0  0  0  0  0  0  0
   38.5400   29.0490   44.1400 H   0  0  0  0  0  0  0  0  0  0  0  0
   38.5680   26.6580   43.5440 H   0  0  0  0  0  0  0  0  0  0  0  0
   37.3730   25.4240   41.4650 C   0  0  0  0  0  0  0  0  0  0  0  0
   36.5770   24.6870   42.1220 O   0  0  0  0  0  0  0  0  0  0  0  0
   38.2200   24.7880   40.4360 C   0  0  0  0  0  0  0  0  0  0  0  0
   39.0940   25.3930   39.5630 C   0  0  0  0  0  0  0  0  0  0  0  0
   39.1020   26.4730   39.7760 H   0  0  0  0  0  0  0  0  0  0  0  0
   39.8180   24.7110   38.6200 C   0  0  0  0  0  3  0  0  0  0  0  0
   39.6460   23.3430   38.5580 C   0  0  0  0  0  0  0  0  0  0  0  0
   40.2480   22.8480   37.7890 H   0  0  0  0  0  0  0  0  0  0  0  0
   38.7990   22.6430   39.3840 C   0  0  0  0  0  0  0  0  0  0  0  0
   38.7000   21.5670   39.2920 H   0  0  0  0  0  0  0  0  0  0  0  0
   38.0900   23.3970   40.3250 C   0  0  0  0  0  3  0  0  0  0  0  0
  1  7  1  6  0  0  0
  1 19  1  0  0  0  0
  1  6  1  0  0  0  0
  2  9  1  0  0  0  0
  2  1  1  0  0  0  0
  3  2  1  0  0  0  0
  3  4  1  0  0  0  0
  4 12  1  0  0  0  0
  4  5  1  0  0  0  0
  5 15  1  0  0  0  0
  5  6  1  0  0  0  0
  5 14  1  0  0  0  0
  6 16  1  1  0  0  0
  6 26  1  0  0  0  0
  8  2  1  0  0  0  0
 10  3  1  0  0  0  0
 11  3  1  0  0  0  0
 13  4  1  0  0  0  0
 17 23  1  0  0  0  0
 18 24  1  0  0  0  0
 18 17  2  0  0  0  0
 19 18  1  0  0  0  0
 20 19  2  0  0  0  0
 20 21  1  0  0  0  0
 21 22  2  0  0  0  0
 22 17  1  0  0  0  0
 25 21  1  0  0  0  0
 26 27  1  0  0  0  0
 27 32  1  0  0  0  0
 27 28  2  0  0  0  0
 28 33  1  0  0  0  0
 29 28  1  0  0  0  0
 29 34  1  0  0  0  0
 30 29  2  0  0  0  0
 31 26  2  0  0  0  0
 31 30  1  0  0  0  0
 35 30  1  0  0  0  0
 35 36  2  0  0  0  0
 37 35  1  0  0  0  0
 38 39  1  0  0  0  0
 38 37  2  0  0  0  0
 40 38  1  0  0  0  0
 41 40  2  0  0  0  0
 41 43  1  0  0  0  0
 42 41  1  0  0  0  0
 43 45  2  0  0  0  0
 44 43  1  0  0  0  0
 45 37  1  0  0  0  0
M  END
>  <minimizedAffinity>
-6.01680374

$$$$

 OpenBabel03242516553D

 45 48  0  0  1  0  0  0  0  0999 V2000
   37.3730   30.3920   38.6730 C   0  0  1  0  0  0  0  0  0  0  0  0
   36.8270   29.0470   38.4710 C   0  0  0  0  0  0  0  0  0  0  0  0
   35.3180   29.1740   38.6930 C   0  0  0  0  0  0  0  0  0  0  0  0
   35.1200   29.4200   40.1700 C   0  0  0  0  0  0  0  0  0  0  0  0
   35.8840   30.5850   40.7050 C   0  0  0  0  0  0  0  0  0  0  0  0
   37.1950   30.8670   40.1210 C   0  0  1  0  0  0  0  0  0  0  0  0
   36.7330   31.1310   38.1030 H   0  0  0  0  0  0  0  0  0  0  0  0
   37.0600   28.7150   37.4400 H   0  0  0  0  0  0  0  0  0  0  0  0
   37.2430   28.2680   39.1340 H   0  0  0  0  0  0  0  0  0  0  0  0
   34.9560   30.0140   38.0810 H   0  0  0  0  0  0  0  0  0  0  0  0
   34.8330   28.2070   38.4750 H   0  0  0  0  0  0  0  0  0  0  0  0
   35.4670   28.4940   40.7010 H   0  0  0  0  0  0  0  0  0  0  0  0
   34.0520   29.5510   40.4020 H   0  0  0  0  0  0  0  0  0  0  0  0
   35.9990   30.4290   41.7980 H   0  0  0  0  0  0  0  0  0  0  0  0
   35.1970   31.4740   40.6380 H   0  0  0  0  0  0  0  0  0  0  0  0
   37.3270   31.9860   40.0610 H   0  0  0  0  0  0  0  0  0  0  0  0
   40.5020   32.1440   37.5030 C   0  0  0  0  0  0  0  0  0  0  0  0
   39.2020   31.8760   37.9140 C   0  0  0  0  0  0  0  0  0  0  0  0
   38.7450   30.6000   38.2540 C   0  0  0  0  0  0  0  0  0  0  0  0
   39.6570   29.6380   38.1570 N   0  0  0  0  0  0  0  0  0  0  0  0
   40.9330   29.8710   37.7580 C   0  0  0  0  0  0  0  0  0  0  0  0
   41.3510   31.1040   37.4350 N   0  0  0  0  0  0  0  0  0  0  0  0
   40.8250   33.1430   37.2480 H   0  0  0  0  0  0  0  0  0  0  0  0
   38.5600   32.7330   37.9590 H   0  0  0  0  0  0  0  0  0  0  0  0
   41.6730   29.0800   37.6770 H   0  0  0  0  0  0  0  0  0  0  0  0
   38.3220   30.4300   40.9730 C   0  0  0  0  0  0  0  0  0  0  0  0
   39.3870   31.2060   41.3930 C   0  0  0  0  0  0  0  0  0  0  0  0
   40.3230   30.5710   42.2210 C   0  0  0  0  0  0  0  0  0  0  0  0
   40.1110   29.2500   42.5410 C   0  0  0  0  0  0  0  0  0  0  0  0
   39.0510   28.5000   42.1160 C   0  0  0  0  0  0  0  0  0  0  0  0
   38.1410   29.1160   41.3130 N   0  0  0  0  0  0  0  0  0  0  0  0
   39.4010   32.2120   41.0610 H   0  0  0  0  0  0  0  0  0  0  0  0
   41.1460   31.1510   42.5520 H   0  0  0  0  0  0  0  0  0  0  0  0
   40.8640   28.7880   43.1890 H   0  0  0  0  0  0  0  0  0  0  0  0
   38.8840   27.0840   42.5190 C   0  0  0  0  0  0  0  0  0  0  0  0
   39.4160   26.7480   43.6200 O   0  0  0  0  0  0  0  0  0  0  0  0
   38.1540   26.0520   41.7550 C   0  0  0  0  0  0  0  0  0  0  0  0
   37.2300   26.2330   40.7520 C   0  0  0  0  0  0  0  0  0  0  0  0
   37.1330   27.3130   40.5630 H   0  0  0  0  0  0  0  0  0  0  0  0
   36.5850   25.2010   40.1200 C   0  0  0  0  0  3  0  0  0  0  0  0
   36.8930   23.9190   40.5280 C   0  0  0  0  0  0  0  0  0  0  0  0
   36.3510   23.1340   39.9910 H   0  0  0  0  0  0  0  0  0  0  0  0
   37.8010   23.6310   41.5190 C   0  0  0  0  0  0  0  0  0  0  0  0
   38.0050   22.6040   41.8020 H   0  0  0  0  0  0  0  0  0  0  0  0
   38.4250   24.7270   42.1230 C   0  0  0  0  0  3  0  0  0  0  0  0
  1  7  1  6  0  0  0
  1  6  1  0  0  0  0
  2  1  1  0  0  0  0
  2  3  1  0  0  0  0
  2  9  1  0  0  0  0
  3  4  1  0  0  0  0
  4 13  1  0  0  0  0
  4 12  1  0  0  0  0
  4  5  1  0  0  0  0
  5 14  1  0  0  0  0
  6 16  1  6  0  0  0
  6  5  1  0  0  0  0
  6 26  1  0  0  0  0
  8  2  1  0  0  0  0
 10  3  1  0  0  0  0
 11  3  1  0  0  0  0
 15  5  1  0  0  0  0
 17 18  1  0  0  0  0
 18 24  1  0  0  0  0
 18 19  2  0  0  0  0
 19  1  1  0  0  0  0
 20 19  1  0  0  0  0
 21 20  2  0  0  0  0
 22 17  2  0  0  0  0
 22 21  1  0  0  0  0
 23 17  1  0  0  0  0
 25 21  1  0  0  0  0
 26 31  2  0  0  0  0
 26 27  1  0  0  0  0
 27 28  2  0  0  0  0
 28 29  1  0  0  0  0
 28 33  1  0  0  0  0
 29 34  1  0  0  0  0
 30 35  1  0  0  0  0
 30 29  2  0  0  0  0
 31 30  1  0  0  0  0
 32 27  1  0  0  0  0
 35 36  2  0  0  0  0
 37 45  1  0  0  0  0
 37 35  1  0  0  0  0
 38 37  2  0  0  0  0
 39 38  1  0  0  0  0
 40 41  2  0  0  0  0
 40 38  1  0  0  0  0
 41 43  1  0  0  0  0
 42 41  1  0  0  0  0
 43 44  1  0  0  0  0
 43 45  2  0  0  0  0
M  END
>  <minimizedAffinity>
-5.9775548

$$$$

 OpenBabel03242516553D

 45 48  0  0  1  0  0  0  0  0999 V2000
   39.0880   26.9420   41.8080 C   0  0  1  0  0  0  0  0  0  0  0  0
   38.9200   28.3920   41.9320 C   0  0  0  0  0  0  0  0  0  0  0  0
   38.4240   28.6320   43.3590 C   0  0  0  0  0  0  0  0  0  0  0  0
   37.0100   28.1040   43.4180 C   0  0  0  0  0  0  0  0  0  0  0  0
   36.8690   26.6830   42.9870 C   0  0  0  0  0  0  0  0  0  0  0  0
   37.7490   26.2020   41.9230 C   0  0  1  0  0  0  0  0  0  0  0  0
   39.6440   26.5640   42.7180 H   0  0  0  0  0  0  0  0  0  0  0  0
   39.8970   28.8840   41.7510 H   0  0  0  0  0  0  0  0  0  0  0  0
   38.2210   28.8470   41.2070 H   0  0  0  0  0  0  0  0  0  0  0  0
   39.0960   28.0940   44.0450 H   0  0  0  0  0  0  0  0  0  0  0  0
   38.3540   29.7180   43.5450 H   0  0  0  0  0  0  0  0  0  0  0  0
   36.3970   28.7460   42.7310 H   0  0  0  0  0  0  0  0  0  0  0  0
   36.5950   28.2180   44.4310 H   0  0  0  0  0  0  0  0  0  0  0  0
   35.8120   26.5350   42.6800 H   0  0  0  0  0  0  0  0  0  0  0  0
   36.9600   26.0570   43.9190 H   0  0  0  0  0  0  0  0  0  0  0  0
   38.0420   25.1370   42.1540 H   0  0  0  0  0  0  0  0  0  0  0  0
   41.0890   24.6930   39.5350 C   0  0  0  0  0  0  0  0  0  0  0  0
   40.3850   25.2020   40.6200 C   0  0  0  0  0  0  0  0  0  0  0  0
   39.8080   26.4740   40.6400 C   0  0  0  0  0  0  0  0  0  0  0  0
   39.9800   27.1810   39.5280 N   0  0  0  0  0  0  0  0  0  0  0  0
   40.6630   26.7100   38.4540 C   0  0  0  0  0  0  0  0  0  0  0  0
   41.2110   25.4860   38.4560 N   0  0  0  0  0  0  0  0  0  0  0  0
   41.5240   23.7040   39.5500 H   0  0  0  0  0  0  0  0  0  0  0  0
   40.3090   24.5360   41.4570 H   0  0  0  0  0  0  0  0  0  0  0  0
   40.8030   27.2930   37.5490 H   0  0  0  0  0  0  0  0  0  0  0  0
   37.0770   26.0980   40.6100 C   0  0  0  0  0  0  0  0  0  0  0  0
   36.8640   24.9420   39.8810 C   0  0  0  0  0  0  0  0  0  0  0  0
   36.1780   25.0950   38.6680 C   0  0  0  0  0  0  0  0  0  0  0  0
   35.7800   26.3610   38.3070 C   0  0  0  0  0  0  0  0  0  0  0  0
   35.9990   27.4930   39.0410 C   0  0  0  0  0  0  0  0  0  0  0  0
   36.6650   27.3440   40.2190 N   0  0  0  0  0  0  0  0  0  0  0  0
   37.2300   24.0420   40.3030 H   0  0  0  0  0  0  0  0  0  0  0  0
   36.0070   24.2190   38.0970 H   0  0  0  0  0  0  0  0  0  0  0  0
   35.2480   26.4420   37.3530 H   0  0  0  0  0  0  0  0  0  0  0  0
   35.5240   28.8210   38.5910 C   0  0  0  0  0  0  0  0  0  0  0  0
   34.3720   28.8550   38.0620 O   0  0  0  0  0  0  0  0  0  0  0  0
   36.2710   30.0890   38.7120 C   0  0  0  0  0  0  0  0  0  0  0  0
   36.9910   30.7470   37.7410 C   0  0  0  0  0  0  0  0  0  0  0  0
   36.8970   30.1830   36.8000 H   0  0  0  0  0  0  0  0  0  0  0  0
   37.6760   31.9140   37.9640 C   0  0  0  0  0  3  0  0  0  0  0  0
   37.6290   32.4400   39.2380 C   0  0  0  0  0  0  0  0  0  0  0  0
   38.1910   33.3710   39.3610 H   0  0  0  0  0  0  0  0  0  0  0  0
   36.9380   31.8620   40.2780 C   0  0  0  0  0  0  0  0  0  0  0  0
   36.9350   32.3180   41.2620 H   0  0  0  0  0  0  0  0  0  0  0  0
   36.2600   30.6750   39.9850 C   0  0  0  0  0  3  0  0  0  0  0  0
  1  6  1  0  0  0  0
  1  2  1  0  0  0  0
  1  7  1  1  0  0  0
  2  3  1  0  0  0  0
  3  4  1  0  0  0  0
  3 11  1  0  0  0  0
  3 10  1  0  0  0  0
  4 13  1  0  0  0  0
  5  4  1  0  0  0  0
  5 15  1  0  0  0  0
  6 16  1  1  0  0  0
  6  5  1  0  0  0  0
  8  2  1  0  0  0  0
  9  2  1  0  0  0  0
 12  4  1  0  0  0  0
 14  5  1  0  0  0  0
 17 23  1  0  0  0  0
 17 18  1  0  0  0  0
 18 19  2  0  0  0  0
 18 24  1  0  0  0  0
 19  1  1  0  0  0  0
 20 19  1  0  0  0  0
 21 22  1  0  0  0  0
 21 20  2  0  0  0  0
 22 17  2  0  0  0  0
 25 21  1  0  0  0  0
 26  6  1  0  0  0  0
 27 32  1  0  0  0  0
 27 26  2  0  0  0  0
 28 27  1  0  0  0  0
 29 28  2  0  0  0  0
 29 30  1  0  0  0  0
 30 31  2  0  0  0  0
 31 26  1  0  0  0  0
 33 28  1  0  0  0  0
 34 29  1  0  0  0  0
 35 37  1  0  0  0  0
 35 30  1  0  0  0  0
 36 35  2  0  0  0  0
 37 45  1  0  0  0  0
 38 40  1  0  0  0  0
 38 37  2  0  0  0  0
 39 38  1  0  0  0  0
 40 41  2  0  0  0  0
 41 42  1  0  0  0  0
 41 43  1  0  0  0  0
 43 44  1  0  0  0  0
 45 43  2  0  0  0  0
M  END
>  <minimizedAffinity>
-5.87134123

$$$$

 OpenBabel03242516553D

 45 48  0  0  1  0  0  0  0  0999 V2000
   40.0320   30.3290   37.8190 C   0  0  1  0  0  0  0  0  0  0  0  0
   40.5760   29.0050   38.1350 C   0  0  0  0  0  0  0  0  0  0  0  0
   40.3110   28.1410   36.9000 C   0  0  0  0  0  0  0  0  0  0  0  0
   38.8190   27.9100   36.8500 C   0  0  0  0  0  0  0  0  0  0  0  0
   38.0040   29.1590   36.8690 C   0  0  0  0  0  0  0  0  0  0  0  0
   38.5080   30.2900   37.6470 C   0  0  1  0  0  0  0  0  0  0  0  0
   40.3780   30.6230   36.7830 H   0  0  0  0  0  0  0  0  0  0  0  0
   41.6610   29.1020   38.3390 H   0  0  0  0  0  0  0  0  0  0  0  0
   40.1480   28.5240   39.0330 H   0  0  0  0  0  0  0  0  0  0  0  0
   40.6740   28.6910   36.0190 H   0  0  0  0  0  0  0  0  0  0  0  0
   40.7700   27.1480   37.0420 H   0  0  0  0  0  0  0  0  0  0  0  0
   38.5560   27.3000   37.7560 H   0  0  0  0  0  0  0  0  0  0  0  0
   38.5480   27.3140   35.9650 H   0  0  0  0  0  0  0  0  0  0  0  0
   36.9920   28.8870   37.2370 H   0  0  0  0  0  0  0  0  0  0  0  0
   37.8240   29.4390   35.7930 H   0  0  0  0  0  0  0  0  0  0  0  0
   38.2710   31.2430   37.0890 H   0  0  0  0  0  0  0  0  0  0  0  0
   41.2240   32.1180   40.9180 C   0  0  0  0  0  0  0  0  0  0  0  0
   40.8600   31.1340   40.0070 C   0  0  0  0  0  0  0  0  0  0  0  0
   40.3970   31.4060   38.7170 C   0  0  0  0  0  0  0  0  0  0  0  0
   40.3280   32.6970   38.4120 N   0  0  0  0  0  0  0  0  0  0  0  0
   40.6760   33.6800   39.2810 C   0  0  0  0  0  0  0  0  0  0  0  0
   41.1170   33.3970   40.5160 N   0  0  0  0  0  0  0  0  0  0  0  0
   41.5790   31.8750   41.9090 H   0  0  0  0  0  0  0  0  0  0  0  0
   40.9650   30.1290   40.3670 H   0  0  0  0  0  0  0  0  0  0  0  0
   40.6140   34.7330   39.0270 H   0  0  0  0  0  0  0  0  0  0  0  0
   37.8150   30.4660   38.9410 C   0  0  0  0  0  0  0  0  0  0  0  0
   37.1340   31.5930   39.3660 C   0  0  0  0  0  0  0  0  0  0  0  0
   36.5350   31.5100   40.6310 C   0  0  0  0  0  0  0  0  0  0  0  0
   36.6720   30.3360   41.3350 C   0  0  0  0  0  0  0  0  0  0  0  0
   37.3490   29.2330   40.8980 C   0  0  0  0  0  0  0  0  0  0  0  0
   37.9310   29.3120   39.6700 N   0  0  0  0  0  0  0  0  0  0  0  0
   37.1160   32.4150   38.7000 H   0  0  0  0  0  0  0  0  0  0  0  0
   36.0080   32.3640   40.9720 H   0  0  0  0  0  0  0  0  0  0  0  0
   36.1910   30.3090   42.3190 H   0  0  0  0  0  0  0  0  0  0  0  0
   37.4390   27.9980   41.7100 C   0  0  0  0  0  0  0  0  0  0  0  0
   37.8340   28.1410   42.9060 O   0  0  0  0  0  0  0  0  0  0  0  0
   37.1040   26.6360   41.2470 C   0  0  0  0  0  0  0  0  0  0  0  0
   36.7140   26.2390   39.9890 C   0  0  0  0  0  0  0  0  0  0  0  0
   36.7220   27.1210   39.3310 H   0  0  0  0  0  0  0  0  0  0  0  0
   36.3970   24.9440   39.6670 C   0  0  0  0  0  3  0  0  0  0  0  0
   36.4800   24.0040   40.6730 C   0  0  0  0  0  0  0  0  0  0  0  0
   36.2180   22.9880   40.3620 H   0  0  0  0  0  0  0  0  0  0  0  0
   36.8600   24.2970   41.9620 C   0  0  0  0  0  0  0  0  0  0  0  0
   36.9070   23.5190   42.7150 H   0  0  0  0  0  0  0  0  0  0  0  0
   37.1710   25.6350   42.2250 C   0  0  0  0  0  3  0  0  0  0  0  0
  1  7  1  6  0  0  0
  1  2  1  0  0  0  0
  1 19  1  0  0  0  0
  2  8  1  0  0  0  0
  2  9  1  0  0  0  0
  3 11  1  0  0  0  0
  3  2  1  0  0  0  0
  4  5  1  0  0  0  0
  4  3  1  0  0  0  0
  4 12  1  0  0  0  0
  5 14  1  0  0  0  0
  5  6  1  0  0  0  0
  6 16  1  6  0  0  0
  6  1  1  0  0  0  0
  6 26  1  0  0  0  0
 10  3  1  0  0  0  0
 13  4  1  0  0  0  0
 15  5  1  0  0  0  0
 17 23  1  0  0  0  0
 18 24  1  0  0  0  0
 18 17  2  0  0  0  0
 19 18  1  0  0  0  0
 20 19  2  0  0  0  0
 20 21  1  0  0  0  0
 21 22  2  0  0  0  0
 22 17  1  0  0  0  0
 25 21  1  0  0  0  0
 26 27  2  0  0  0  0
 26 31  1  0  0  0  0
 27 28  1  0  0  0  0
 28 33  1  0  0  0  0
 28 29  2  0  0  0  0
 29 34  1  0  0  0  0
 30 29  1  0  0  0  0
 30 35  1  0  0  0  0
 31 30  2  0  0  0  0
 32 27  1  0  0  0  0
 35 36  2  0  0  0  0
 37 35  1  0  0  0  0
 37 45  1  0  0  0  0
 38 37  2  0  0  0  0
 39 38  1  0  0  0  0
 40 38  1  0  0  0  0
 40 41  2  0  0  0  0
 41 43  1  0  0  0  0
 42 41  1  0  0  0  0
 43 45  2  0  0  0  0
 43 44  1  0  0  0  0
M  END
>  <minimizedAffinity>
-5.84361839

$$$$

 OpenBabel03242516553D

 45 48  0  0  1  0  0  0  0  0999 V2000
   37.7530   31.4390   39.4310 C   0  0  1  0  0  0  0  0  0  0  0  0
   37.4660   32.6200   40.2510 C   0  0  0  0  0  0  0  0  0  0  0  0
   38.6330   33.5810   40.0180 C   0  0  0  0  0  0  0  0  0  0  0  0
   39.8380   32.9660   40.6900 C   0  0  0  0  0  0  0  0  0  0  0  0
   40.1400   31.5730   40.2500 C   0  0  0  0  0  0  0  0  0  0  0  0
   39.0120   30.7060   39.9120 C   0  0  1  0  0  0  0  0  0  0  0  0
   38.0630   31.7840   38.3990 H   0  0  0  0  0  0  0  0  0  0  0  0
   36.5030   33.0600   39.9230 H   0  0  0  0  0  0  0  0  0  0  0  0
   37.3480   32.4220   41.3320 H   0  0  0  0  0  0  0  0  0  0  0  0
   38.7730   33.6860   38.9320 H   0  0  0  0  0  0  0  0  0  0  0  0
   38.4370   34.5300   40.5480 H   0  0  0  0  0  0  0  0  0  0  0  0
   39.6220   32.9520   41.7910 H   0  0  0  0  0  0  0  0  0  0  0  0
   40.7300   33.5950   40.5390 H   0  0  0  0  0  0  0  0  0  0  0  0
   40.7370   31.0960   41.0550 H   0  0  0  0  0  0  0  0  0  0  0  0
   40.8710   31.6590   39.3990 H   0  0  0  0  0  0  0  0  0  0  0  0
   39.3070   30.0610   39.0330 H   0  0  0  0  0  0  0  0  0  0  0  0
   35.4750   28.9020   37.8200 C   0  0  0  0  0  0  0  0  0  0  0  0
   36.4940   29.8180   38.0490 C   0  0  0  0  0  0  0  0  0  0  0  0
   36.6690   30.4930   39.2610 C   0  0  0  0  0  0  0  0  0  0  0  0
   35.7770   30.1930   40.1990 N   0  0  0  0  0  0  0  0  0  0  0  0
   34.7720   29.3020   40.0020 C   0  0  0  0  0  0  0  0  0  0  0  0
   34.6210   28.6660   38.8310 N   0  0  0  0  0  0  0  0  0  0  0  0
   35.3670   28.3950   36.8710 H   0  0  0  0  0  0  0  0  0  0  0  0
   37.1540   29.9730   37.2190 H   0  0  0  0  0  0  0  0  0  0  0  0
   34.0440   29.0640   40.7710 H   0  0  0  0  0  0  0  0  0  0  0  0
   38.6910   29.7230   40.9680 C   0  0  0  0  0  0  0  0  0  0  0  0
   38.3480   30.0020   42.2790 C   0  0  0  0  0  0  0  0  0  0  0  0
   38.0620   28.8960   43.0910 C   0  0  0  0  0  0  0  0  0  0  0  0
   38.1460   27.6440   42.5280 C   0  0  0  0  0  0  0  0  0  0  0  0
   38.4870   27.3870   41.2300 C   0  0  0  0  0  0  0  0  0  0  0  0
   38.7640   28.4610   40.4410 N   0  0  0  0  0  0  0  0  0  0  0  0
   38.3230   31.0250   42.5540 H   0  0  0  0  0  0  0  0  0  0  0  0
   37.7970   29.0920   44.0980 H   0  0  0  0  0  0  0  0  0  0  0  0
   37.9170   26.8030   43.1940 H   0  0  0  0  0  0  0  0  0  0  0  0
   38.5400   26.0070   40.6940 C   0  0  0  0  0  0  0  0  0  0  0  0
   39.6670   25.4290   40.7470 O   0  0  0  0  0  0  0  0  0  0  0  0
   37.4020   25.2620   40.1180 C   0  0  0  0  0  0  0  0  0  0  0  0
   36.7270   24.1930   40.6600 C   0  0  0  0  0  0  0  0  0  0  0  0
   37.1540   23.9820   41.6520 H   0  0  0  0  0  0  0  0  0  0  0  0
   35.6930   23.5500   40.0280 C   0  0  0  0  0  3  0  0  0  0  0  0
   35.3270   24.0160   38.7820 C   0  0  0  0  0  0  0  0  0  0  0  0
   34.4970   23.4690   38.3230 H   0  0  0  0  0  0  0  0  0  0  0  0
   35.9360   25.0770   38.1550 C   0  0  0  0  0  0  0  0  0  0  0  0
   35.6080   25.4020   37.1730 H   0  0  0  0  0  0  0  0  0  0  0  0
   36.9820   25.6900   38.8520 C   0  0  0  0  0  3  0  0  0  0  0  0
  1  7  1  6  0  0  0
  1  6  1  0  0  0  0
  1  2  1  0  0  0  0
  2  9  1  0  0  0  0
  3  2  1  0  0  0  0
  3 11  1  0  0  0  0
  3  4  1  0  0  0  0
  4 12  1  0  0  0  0
  5  4  1  0  0  0  0
  5 14  1  0  0  0  0
  6 16  1  6  0  0  0
  6  5  1  0  0  0  0
  6 26  1  0  0  0  0
  8  2  1  0  0  0  0
 10  3  1  0  0  0  0
 13  4  1  0  0  0  0
 15  5  1  0  0  0  0
 17 18  2  0  0  0  0
 17 22  1  0  0  0  0
 18 19  1  0  0  0  0
 19  1  1  0  0  0  0
 19 20  2  0  0  0  0
 21 20  1  0  0  0  0
 21 25  1  0  0  0  0
 22 21  2  0  0  0  0
 23 17  1  0  0  0  0
 24 18  1  0  0  0  0
 26 27  1  0  0  0  0
 27 32  1  0  0  0  0
 27 28  2  0  0  0  0
 28 33  1  0  0  0  0
 29 28  1  0  0  0  0
 29 34  1  0  0  0  0
 30 29  2  0  0  0  0
 31 26  2  0  0  0  0
 31 30  1  0  0  0  0
 35 36  2  0  0  0  0
 35 30  1  0  0  0  0
 37 38  1  0  0  0  0
 37 35  1  0  0  0  0
 38 39  1  0  0  0  0
 40 38  2  0  0  0  0
 41 40  1  0  0  0  0
 42 41  1  0  0  0  0
 43 41  2  0  0  0  0
 43 45  1  0  0  0  0
 44 43  1  0  0  0  0
 45 37  2  0  0  0  0
M  END
>  <minimizedAffinity>
-5.83089733

$$$$

 OpenBabel03242516553D

 45 48  0  0  1  0  0  0  0  0999 V2000
   39.3770   31.9590   38.4090 C   0  0  1  0  0  0  0  0  0  0  0  0
   38.6270   30.7300   38.6870 C   0  0  0  0  0  0  0  0  0  0  0  0
   37.1780   31.1680   38.9060 C   0  0  0  0  0  0  0  0  0  0  0  0
   37.1470   31.9090   40.2220 C   0  0  0  0  0  0  0  0  0  0  0  0
   38.1140   33.0420   40.3110 C   0  0  0  0  0  0  0  0  0  0  0  0
   39.3950   32.9000   39.6210 C   0  0  1  0  0  0  0  0  0  0  0  0
   38.8020   32.5670   37.6480 H   0  0  0  0  0  0  0  0  0  0  0  0
   38.7200   30.0490   37.8180 H   0  0  0  0  0  0  0  0  0  0  0  0
   38.9840   30.1510   39.5580 H   0  0  0  0  0  0  0  0  0  0  0  0
   36.8880   31.8120   38.0620 H   0  0  0  0  0  0  0  0  0  0  0  0
   36.5420   30.2760   39.0410 H   0  0  0  0  0  0  0  0  0  0  0  0
   37.4020   31.1610   41.0200 H   0  0  0  0  0  0  0  0  0  0  0  0
   36.1330   32.2820   40.4340 H   0  0  0  0  0  0  0  0  0  0  0  0
   38.3000   33.2330   41.3880 H   0  0  0  0  0  0  0  0  0  0  0  0
   37.5580   33.9620   39.9750 H   0  0  0  0  0  0  0  0  0  0  0  0
   39.6810   33.9020   39.1860 H   0  0  0  0  0  0  0  0  0  0  0  0
   42.7430   32.7990   36.9310 C   0  0  0  0  0  0  0  0  0  0  0  0
   41.4520   32.8900   37.4350 C   0  0  0  0  0  0  0  0  0  0  0  0
   40.7220   31.7910   37.8980 C   0  0  0  0  0  0  0  0  0  0  0  0
   41.3600   30.6280   37.8220 N   0  0  0  0  0  0  0  0  0  0  0  0
   42.6210   30.5100   37.3340 C   0  0  0  0  0  0  0  0  0  0  0  0
   43.3030   31.5770   36.8940 N   0  0  0  0  0  0  0  0  0  0  0  0
   43.2820   33.6680   36.5820 H   0  0  0  0  0  0  0  0  0  0  0  0
   41.0450   33.8820   37.4510 H   0  0  0  0  0  0  0  0  0  0  0  0
   43.1360   29.5560   37.2720 H   0  0  0  0  0  0  0  0  0  0  0  0
   40.5180   32.5840   40.5300 C   0  0  0  0  0  0  0  0  0  0  0  0
   41.5900   33.4050   40.8330 C   0  0  0  0  0  0  0  0  0  0  0  0
   42.5200   32.8910   41.7470 C   0  0  0  0  0  0  0  0  0  0  0  0
   42.2960   31.6340   42.2580 C   0  0  0  0  0  0  0  0  0  0  0  0
   41.2300   30.8380   41.9470 C   0  0  0  0  0  0  0  0  0  0  0  0
   40.3260   31.3360   41.0600 N   0  0  0  0  0  0  0  0  0  0  0  0
   41.6120   34.3510   40.3570 H   0  0  0  0  0  0  0  0  0  0  0  0
   43.3470   33.5060   41.9910 H   0  0  0  0  0  0  0  0  0  0  0  0
   43.0450   31.2650   42.9690 H   0  0  0  0  0  0  0  0  0  0  0  0
   41.0510   29.4980   42.5530 C   0  0  0  0  0  0  0  0  0  0  0  0
   42.1110   28.8840   42.8790 O   0  0  0  0  0  0  0  0  0  0  0  0
   39.7560   28.8350   42.8100 C   0  0  0  0  0  0  0  0  0  0  0  0
   39.5260   27.5160   43.1270 C   0  0  0  0  0  0  0  0  0  0  0  0
   40.4980   27.0050   43.2020 H   0  0  0  0  0  0  0  0  0  0  0  0
   38.2750   26.9900   43.3210 C   0  0  0  0  0  3  0  0  0  0  0  0
   37.2020   27.8460   43.1860 C   0  0  0  0  0  0  0  0  0  0  0  0
   36.2280   27.3760   43.3520 H   0  0  0  0  0  0  0  0  0  0  0  0
   37.3240   29.1800   42.8730 C   0  0  0  0  0  0  0  0  0  0  0  0
   36.4450   29.8080   42.7770 H   0  0  0  0  0  0  0  0  0  0  0  0
   38.6260   29.6540   42.6880 C   0  0  0  0  0  3  0  0  0  0  0  0
  1  7  1  6  0  0  0
  1  2  1  0  0  0  0
  1  6  1  0  0  0  0
  2  3  1  0  0  0  0
  2  9  1  0  0  0  0
  3 11  1  0  0  0  0
  3  4  1  0  0  0  0
  4  5  1  0  0  0  0
  4 13  1  0  0  0  0
  4 12  1  0  0  0  0
  5 14  1  0  0  0  0
  6 16  1  6  0  0  0
  6  5  1  0  0  0  0
  6 26  1  0  0  0  0
  8  2  1  0  0  0  0
 10  3  1  0  0  0  0
 15  5  1  0  0  0  0
 17 18  1  0  0  0  0
 18 24  1  0  0  0  0
 18 19  2  0  0  0  0
 19  1  1  0  0  0  0
 20 19  1  0  0  0  0
 21 20  2  0  0  0  0
 22 17  2  0  0  0  0
 22 21  1  0  0  0  0
 23 17  1  0  0  0  0
 25 21  1  0  0  0  0
 26 27  2  0  0  0  0
 26 31  1  0  0  0  0
 27 28  1  0  0  0  0
 28 33  1  0  0  0  0
 28 29  2  0  0  0  0
 29 34  1  0  0  0  0
 30 29  1  0  0  0  0
 30 35  1  0  0  0  0
 31 30  2  0  0  0  0
 32 27  1  0  0  0  0
 35 37  1  0  0  0  0
 35 36  2  0  0  0  0
 37 38  1  0  0  0  0
 38 39  1  0  0  0  0
 38 40  2  0  0  0  0
 41 40  1  0  0  0  0
 41 42  1  0  0  0  0
 43 41  2  0  0  0  0
 44 43  1  0  0  0  0
 45 37  2  0  0  0  0
 45 43  1  0  0  0  0
M  END
>  <minimizedAffinity>
-5.81337929

$$$$
