
 OpenBabel03242516533D

 45 48  0  0  1  0  0  0  0  0999 V2000
   47.8450   32.9070   41.8100 C   0  0  1  0  0  0  0  0  0  0  0  0
   47.5280   32.2870   40.5210 C   0  0  0  0  0  0  0  0  0  0  0  0
   48.5620   32.8290   39.5330 C   0  0  0  0  0  0  0  0  0  0  0  0
   48.2290   34.2870   39.3180 C   0  0  0  0  0  0  0  0  0  0  0  0
   48.1510   35.0890   40.5740 C   0  0  0  0  0  0  0  0  0  0  0  0
   47.6430   34.4270   41.7750 C   0  0  1  0  0  0  0  0  0  0  0  0
   48.9590   32.8220   41.9860 H   0  0  0  0  0  0  0  0  0  0  0  0
   47.6000   31.1860   40.6240 H   0  0  0  0  0  0  0  0  0  0  0  0
   46.5070   32.4820   40.1450 H   0  0  0  0  0  0  0  0  0  0  0  0
   49.5590   32.6940   39.9790 H   0  0  0  0  0  0  0  0  0  0  0  0
   48.4280   32.3370   38.5540 H   0  0  0  0  0  0  0  0  0  0  0  0
   47.2260   34.3180   38.8140 H   0  0  0  0  0  0  0  0  0  0  0  0
   48.9550   34.7550   38.6350 H   0  0  0  0  0  0  0  0  0  0  0  0
   47.5250   35.9800   40.3570 H   0  0  0  0  0  0  0  0  0  0  0  0
   49.1770   35.5240   40.7380 H   0  0  0  0  0  0  0  0  0  0  0  0
   48.2270   34.8030   42.6650 H   0  0  0  0  0  0  0  0  0  0  0  0
   45.3950   30.9440   43.9000 C   0  0  0  0  0  0  0  0  0  0  0  0
   46.0770   31.5080   42.8290 C   0  0  0  0  0  0  0  0  0  0  0  0
   47.1820   32.3510   42.9730 C   0  0  0  0  0  0  0  0  0  0  0  0
   47.5460   32.5810   44.2300 N   0  0  0  0  0  0  0  0  0  0  0  0
   46.8980   32.0440   45.2950 C   0  0  0  0  0  0  0  0  0  0  0  0
   45.8390   31.2380   45.1340 N   0  0  0  0  0  0  0  0  0  0  0  0
   44.5430   30.2950   43.7560 H   0  0  0  0  0  0  0  0  0  0  0  0
   45.6930   31.2440   41.8630 H   0  0  0  0  0  0  0  0  0  0  0  0
   47.1990   32.2390   46.3200 H   0  0  0  0  0  0  0  0  0  0  0  0
   46.2470   34.7930   42.0990 C   0  0  0  0  0  0  0  0  0  0  0  0
   45.7930   35.3460   43.2820 C   0  0  0  0  0  0  0  0  0  0  0  0
   44.4210   35.6290   43.3430 C   0  0  0  0  0  0  0  0  0  0  0  0
   43.6520   35.3370   42.2410 C   0  0  0  0  0  0  0  0  0  0  0  0
   44.1200   34.7900   41.0800 C   0  0  0  0  0  0  0  0  0  0  0  0
   45.4510   34.5150   41.0190 N   0  0  0  0  0  0  0  0  0  0  0  0
   46.5180   35.5160   44.0350 H   0  0  0  0  0  0  0  0  0  0  0  0
   44.0560   36.0540   44.2420 H   0  0  0  0  0  0  0  0  0  0  0  0
   42.5850   35.5710   42.3260 H   0  0  0  0  0  0  0  0  0  0  0  0
   43.2280   34.5180   39.9290 C   0  0  0  0  0  0  0  0  0  0  0  0
   42.2440   35.3040   39.7840 O   0  0  0  0  0  0  0  0  0  0  0  0
   43.3950   33.4260   38.9480 C   0  0  0  0  0  0  0  0  0  0  0  0
   44.5380   33.0550   38.2780 C   0  0  0  0  0  0  0  0  0  0  0  0
   45.3640   33.6980   38.6190 H   0  0  0  0  0  0  0  0  0  0  0  0
   44.5810   32.0360   37.3600 C   0  0  0  0  0  3  0  0  0  0  0  0
   43.4060   31.3600   37.1100 C   0  0  0  0  0  0  0  0  0  0  0  0
   43.4960   30.5560   36.3730 H   0  0  0  0  0  0  0  0  0  0  0  0
   42.2120   31.6510   37.7280 C   0  0  0  0  0  0  0  0  0  0  0  0
   41.3160   31.0870   37.4940 H   0  0  0  0  0  0  0  0  0  0  0  0
   42.2350   32.7000   38.6530 C   0  0  0  0  0  3  0  0  0  0  0  0
  1  7  1  1  0  0  0
  1 19  1  0  0  0  0
  2  8  1  0  0  0  0
  2  1  1  0  0  0  0
  3 10  1  0  0  0  0
  3  2  1  0  0  0  0
  4  3  1  0  0  0  0
  4  5  1  0  0  0  0
  5 15  1  0  0  0  0
  5  6  1  0  0  0  0
  6  1  1  0  0  0  0
  6 26  1  0  0  0  0
  6 16  1  1  0  0  0
  9  2  1  0  0  0  0
 11  3  1  0  0  0  0
 12  4  1  0  0  0  0
 13  4  1  0  0  0  0
 14  5  1  0  0  0  0
 17 22  1  0  0  0  0
 18 19  1  0  0  0  0
 18 17  2  0  0  0  0
 19 20  2  0  0  0  0
 20 21  1  0  0  0  0
 21 25  1  0  0  0  0
 22 21  2  0  0  0  0
 23 17  1  0  0  0  0
 24 18  1  0  0  0  0
 26 27  1  0  0  0  0
 27 28  2  0  0  0  0
 27 32  1  0  0  0  0
 28 33  1  0  0  0  0
 29 34  1  0  0  0  0
 29 28  1  0  0  0  0
 30 29  2  0  0  0  0
 31 30  1  0  0  0  0
 31 26  2  0  0  0  0
 35 30  1  0  0  0  0
 36 35  2  0  0  0  0
 37 35  1  0  0  0  0
 38 39  1  0  0  0  0
 38 37  2  0  0  0  0
 40 38  1  0  0  0  0
 41 40  2  0  0  0  0
 41 43  1  0  0  0  0
 42 41  1  0  0  0  0
 43 45  2  0  0  0  0
 44 43  1  0  0  0  0
 45 37  1  0  0  0  0
M  END
>  <minimizedAffinity>
-5.4955864

>  <minimizedRMSD>
0.680386066

$$$$
