
 OpenBabel03242516533D

 45 48  0  0  1  0  0  0  0  0999 V2000
   47.8020   32.7630   41.6480 C   0  0  1  0  0  0  0  0  0  0  0  0
   47.4230   32.1450   40.3740 C   0  0  0  0  0  0  0  0  0  0  0  0
   48.4400   32.6490   39.3490 C   0  0  0  0  0  0  0  0  0  0  0  0
   48.1460   34.1150   39.1350 C   0  0  0  0  0  0  0  0  0  0  0  0
   48.1350   34.9270   40.3860 C   0  0  0  0  0  0  0  0  0  0  0  0
   47.6470   34.2890   41.6080 C   0  0  1  0  0  0  0  0  0  0  0  0
   48.9190   32.6440   41.7870 H   0  0  0  0  0  0  0  0  0  0  0  0
   47.4640   31.0430   40.4830 H   0  0  0  0  0  0  0  0  0  0  0  0
   46.3960   32.3710   40.0320 H   0  0  0  0  0  0  0  0  0  0  0  0
   49.4460   32.4850   39.7630 H   0  0  0  0  0  0  0  0  0  0  0  0
   48.2580   32.1550   38.3790 H   0  0  0  0  0  0  0  0  0  0  0  0
   47.1280   34.1750   38.6640 H   0  0  0  0  0  0  0  0  0  0  0  0
   48.8630   34.5550   38.4240 H   0  0  0  0  0  0  0  0  0  0  0  0
   47.5310   35.8360   40.1840 H   0  0  0  0  0  0  0  0  0  0  0  0
   49.1790   35.3300   40.5130 H   0  0  0  0  0  0  0  0  0  0  0  0
   48.2720   34.6510   42.4760 H   0  0  0  0  0  0  0  0  0  0  0  0
   45.3440   30.9180   43.8340 C   0  0  0  0  0  0  0  0  0  0  0  0
   46.0080   31.4520   42.7360 C   0  0  0  0  0  0  0  0  0  0  0  0
   47.1620   32.2350   42.8360 C   0  0  0  0  0  0  0  0  0  0  0  0
   47.5910   32.4390   44.0770 N   0  0  0  0  0  0  0  0  0  0  0  0
   46.9620   31.9300   45.1670 C   0  0  0  0  0  0  0  0  0  0  0  0
   45.8550   31.1810   45.0490 N   0  0  0  0  0  0  0  0  0  0  0  0
   44.4540   30.3150   43.7240 H   0  0  0  0  0  0  0  0  0  0  0  0
   45.5700   31.2150   41.7870 H   0  0  0  0  0  0  0  0  0  0  0  0
   47.3160   32.1020   46.1780 H   0  0  0  0  0  0  0  0  0  0  0  0
   46.2750   34.7000   41.9760 C   0  0  0  0  0  0  0  0  0  0  0  0
   45.8780   35.2750   43.1700 C   0  0  0  0  0  0  0  0  0  0  0  0
   44.5190   35.6020   43.2740 C   0  0  0  0  0  0  0  0  0  0  0  0
   43.7040   35.3280   42.2000 C   0  0  0  0  0  0  0  0  0  0  0  0
   44.1160   34.7590   41.0280 C   0  0  0  0  0  0  0  0  0  0  0  0
   45.4350   34.4420   40.9260 N   0  0  0  0  0  0  0  0  0  0  0  0
   46.6330   35.4260   43.8970 H   0  0  0  0  0  0  0  0  0  0  0  0
   44.1980   36.0430   44.1820 H   0  0  0  0  0  0  0  0  0  0  0  0
   42.6480   35.5960   42.3190 H   0  0  0  0  0  0  0  0  0  0  0  0
   43.1780   34.5090   39.9090 C   0  0  0  0  0  0  0  0  0  0  0  0
   42.2950   35.3960   39.7090 O   0  0  0  0  0  0  0  0  0  0  0  0
   43.1940   33.3300   39.0190 C   0  0  0  0  0  0  0  0  0  0  0  0
   42.2400   32.3470   38.8950 C   0  0  0  0  0  0  0  0  0  0  0  0
   41.4000   32.5950   39.5630 H   0  0  0  0  0  0  0  0  0  0  0  0
   42.3640   31.2720   38.0520 C   0  0  0  0  0  3  0  0  0  0  0  0
   43.5140   31.1900   37.2970 C   0  0  0  0  0  0  0  0  0  0  0  0
   43.5610   30.3140   36.6420 H   0  0  0  0  0  0  0  0  0  0  0  0
   44.5260   32.1190   37.3470 C   0  0  0  0  0  0  0  0  0  0  0  0
   45.4130   32.0050   36.7310 H   0  0  0  0  0  0  0  0  0  0  0  0
   44.3390   33.1920   38.2240 C   0  0  0  0  0  3  0  0  0  0  0  0
  1  7  1  1  0  0  0
  1 19  1  0  0  0  0
  2  8  1  0  0  0  0
  2  1  1  0  0  0  0
  3 10  1  0  0  0  0
  3  2  1  0  0  0  0
  4  3  1  0  0  0  0
  4  5  1  0  0  0  0
  5 15  1  0  0  0  0
  5  6  1  0  0  0  0
  6  1  1  0  0  0  0
  6 26  1  0  0  0  0
  6 16  1  1  0  0  0
  9  2  1  0  0  0  0
 11  3  1  0  0  0  0
 12  4  1  0  0  0  0
 13  4  1  0  0  0  0
 14  5  1  0  0  0  0
 17 22  1  0  0  0  0
 18 19  1  0  0  0  0
 18 17  2  0  0  0  0
 19 20  2  0  0  0  0
 20 21  1  0  0  0  0
 21 25  1  0  0  0  0
 22 21  2  0  0  0  0
 23 17  1  0  0  0  0
 24 18  1  0  0  0  0
 26 27  1  0  0  0  0
 27 28  2  0  0  0  0
 27 32  1  0  0  0  0
 28 33  1  0  0  0  0
 29 34  1  0  0  0  0
 29 28  1  0  0  0  0
 30 29  2  0  0  0  0
 31 30  1  0  0  0  0
 31 26  2  0  0  0  0
 35 30  1  0  0  0  0
 36 35  2  0  0  0  0
 37 35  1  0  0  0  0
 38 37  1  0  0  0  0
 38 39  1  0  0  0  0
 40 38  2  0  0  0  0
 41 43  2  0  0  0  0
 41 40  1  0  0  0  0
 42 41  1  0  0  0  0
 43 45  1  0  0  0  0
 44 43  1  0  0  0  0
 45 37  2  0  0  0  0
M  END
>  <minimizedAffinity>
-5.34964371

>  <minimizedRMSD>
0.49089545

$$$$
