
     RDKit          3D

 47 50  0  0  0  0  0  0  0  0999 V2000
   47.8798   32.9237   41.8224 C   0  0  1  0  0  0  0  0  0  0  0  0
   47.5675   32.1790   40.5991 C   0  0  0  0  0  0  0  0  0  0  0  0
   48.5975   32.6332   39.5617 C   0  0  0  0  0  0  0  0  0  0  0  0
   48.2503   34.0601   39.2084 C   0  0  0  0  0  0  0  0  0  0  0  0
   48.1646   34.9794   40.3795 C   0  0  0  0  0  0  0  0  0  0  0  0
   47.6638   34.4316   41.6399 C   0  0  1  0  0  0  0  0  0  0  0  0
   45.4888   31.1013   44.0993 C   0  0  0  0  0  0  0  0  0  0  0  0
   46.1628   31.5677   42.9765 C   0  0  0  0  0  0  0  0  0  0  0  0
   47.2234   32.4765   43.0341 C   0  0  0  0  0  0  0  0  0  0  0  0
   47.5514   32.8732   44.2591 N   0  0  0  0  0  0  0  0  0  0  0  0
   46.9100   32.4344   45.3720 C   0  0  0  0  0  0  0  0  0  0  0  0
   45.8940   31.5616   45.2951 N   0  0  0  0  0  0  0  0  0  0  0  0
   46.2647   34.8141   41.9287 C   0  0  0  0  0  0  0  0  0  0  0  0
   45.8086   35.4965   43.0432 C   0  0  0  0  0  0  0  0  0  0  0  0
   44.4338   35.7664   43.0804 C   0  0  0  0  0  0  0  0  0  0  0  0
   43.6628   35.3373   42.0249 C   0  0  0  0  0  0  0  0  0  0  0  0
   44.1316   34.6644   40.9323 C   0  0  0  0  0  0  0  0  0  0  0  0
   45.4673   34.4023   40.8947 N   0  0  0  0  0  0  0  0  0  0  0  0
   43.2383   34.2480   39.8265 C   0  0  0  0  0  0  0  0  0  0  0  0
   42.3670   35.0942   39.4622 O   0  0  0  0  0  0  0  0  0  0  0  0
   48.9954   32.8670   42.0037 H   0  0  0  0  0  0  0  0  0  0  0  0
   47.6513   31.0944   40.8082 H   0  0  0  0  0  0  0  0  0  0  0  0
   46.5453   32.3283   40.2082 H   0  0  0  0  0  0  0  0  0  0  0  0
   49.5947   32.5511   40.0180 H   0  0  0  0  0  0  0  0  0  0  0  0
   48.4669   32.0468   38.6356 H   0  0  0  0  0  0  0  0  0  0  0  0
   47.2466   34.0335   38.7039 H   0  0  0  0  0  0  0  0  0  0  0  0
   48.9709   34.4660   38.4806 H   0  0  0  0  0  0  0  0  0  0  0  0
   47.5314   35.8394   40.0793 H   0  0  0  0  0  0  0  0  0  0  0  0
   49.1868   35.4374   40.4999 H   0  0  0  0  0  0  0  0  0  0  0  0
   48.2453   34.8970   42.4893 H   0  0  0  0  0  0  0  0  0  0  0  0
   44.6733   30.3972   44.0218 H   0  0  0  0  0  0  0  0  0  0  0  0
   45.8113   31.1717   42.0449 H   0  0  0  0  0  0  0  0  0  0  0  0
   47.1810   32.7639   46.3705 H   0  0  0  0  0  0  0  0  0  0  0  0
   46.5364   35.7617   43.7660 H   0  0  0  0  0  0  0  0  0  0  0  0
   44.0675   36.2878   43.9263 H   0  0  0  0  0  0  0  0  0  0  0  0
   42.5926   35.5646   42.0898 H   0  0  0  0  0  0  0  0  0  0  0  0
   43.2843   32.9498   39.1238 C   0  0  0  0  0  0  0  0  0  0  0  0
   42.3050   32.3669   38.3535 C   0  0  0  0  0  0  0  0  0  0  0  0
   41.4493   33.0577   38.3016 H   0  0  0  0  0  0  0  0  0  0  0  0
   42.4382   31.1362   37.7625 C   0  0  0  0  0  0  0  0  0  0  0  0
   43.6243   30.4627   37.9636 C   0  0  0  0  0  0  0  0  0  0  0  0
   43.6780   29.4877   37.4691 H   0  0  0  0  0  0  0  0  0  0  0  0
   44.6645   30.9584   38.7148 C   0  0  0  0  0  0  0  0  0  0  0  0
   45.5770   30.3862   38.8421 H   0  0  0  0  0  0  0  0  0  0  0  0
   44.4670   32.2171   39.2896 C   0  0  0  0  0  0  0  0  0  0  0  0
   41.5703   30.8434   37.1951 H   0  0  0  0  0  0  0  0  0  0  0  0
   45.3364   32.5529   39.8770 H   0  0  0  0  0  0  0  0  0  0  0  0
  1  9  1  0
  2  1  1  0
  3  2  1  0
  4  3  1  0
  4  5  1  0
  5  6  1  0
  6  1  1  0
  6 13  1  0
  7 12  2  0
  8  9  2  0
  8  7  1  0
  9 10  1  0
 10 11  2  0
 12 11  1  0
 13 14  2  0
 14 15  1  0
 16 15  2  0
 17 16  1  0
 18 17  2  0
 18 13  1  0
 19 17  1  0
 20 19  2  0
  1 21  1  1
  2 22  1  0
  2 23  1  0
  3 24  1  0
  3 25  1  0
  4 26  1  0
  4 27  1  0
  5 28  1  0
  5 29  1  0
  6 30  1  1
  7 31  1  0
  8 32  1  0
 11 33  1  0
 14 34  1  0
 15 35  1  0
 16 36  1  0
 37 38  2  0
 38 39  1  0
 38 40  1  0
 40 41  2  0
 41 42  1  0
 41 43  1  0
 43 44  1  0
 43 45  2  0
 45 37  1  0
 40 46  1  0
 45 47  1  0
 19 37  1  0
M  ISO  8  21  13  22  13  23  13  24  13  25  13  26  13  27  13  28  13
M  ISO  8  29  13  30  13  31  14  32  14  33  14  34  14  35  14  36  14
M  ISO  3  39  16  42  16  44  16
M  END
>  <DihAtoms>  (1) 
16,18,36,37

>  <DihDeg>  (1) 
26.616477395401425

$$$$
