
 OpenBabel03242523543D

 45 48  0  0  1  0  0  0  0  0999 V2000
   42.8020   34.4850   38.7370 C   0  0  1  0  0  0  0  0  0  0  0  0
   42.9810   35.1700   40.0820 C   0  0  1  0  0  0  0  0  0  0  0  0
   41.7010   35.4390   40.6130 O   0  0  0  0  0  0  0  0  0  0  0  0
   40.7710   35.7850   39.6310 C   0  0  0  0  0  0  0  0  0  0  0  0
   40.4240   34.6080   38.7400 C   0  0  2  0  0  0  0  0  0  0  0  0
   41.6130   33.5940   38.8740 C   0  0  1  0  0  0  0  0  0  0  0  0
   43.7230   33.9440   38.4310 H   0  0  0  0  0  0  0  0  0  0  0  0
   43.5930   36.0720   40.0330 H   0  0  0  0  0  0  0  0  0  0  0  0
   41.0810   36.6730   39.0460 H   0  0  0  0  0  0  0  0  0  0  0  0
   39.8550   36.0390   40.1770 H   0  0  0  0  0  0  0  0  0  0  0  0
   39.4890   34.1030   39.0540 H   0  0  0  0  0  0  0  0  0  0  0  0
   41.4110   33.3590   39.9730 H   0  0  0  0  0  0  0  0  0  0  0  0
   42.5950   35.4300   37.7220 O   0  0  0  0  0  0  0  0  0  0  0  0
   43.4560   35.7590   37.3800 H   0  0  0  0  0  0  0  0  0  0  0  0
   40.4320   35.0050   37.4140 O   0  0  0  0  0  0  0  0  0  0  0  0
   39.7490   34.5480   36.8590 H   0  0  0  0  0  0  0  0  0  0  0  0
   43.4910   34.1780   40.9400 O   0  0  0  0  0  0  0  0  0  0  0  0
   44.5950   34.3120   41.6850 C   0  0  0  0  0  0  0  0  0  0  0  0
   45.8580   34.4300   41.0890 C   0  0  0  0  0  0  0  0  0  0  0  0
   46.9690   34.5670   41.9030 C   0  0  0  0  0  0  0  0  0  0  0  0
   46.8020   34.5840   43.2780 N   0  0  0  0  0  0  0  0  0  0  0  0
   45.5670   34.4670   43.8160 C   0  0  0  0  0  0  0  0  0  0  0  0
   44.4720   34.3310   43.0240 N   0  0  0  0  0  0  0  0  0  0  0  0
   45.9950   34.4170   40.0280 H   0  0  0  0  0  0  0  0  0  0  0  0
   45.4250   34.4780   44.8960 H   0  0  0  0  0  0  0  0  0  0  0  0
   48.3500   34.6770   41.3450 C   0  0  0  0  0  0  0  0  0  0  0  0
   49.0630   36.0160   41.5160 C   0  0  0  0  0  0  0  0  0  0  0  0
   49.4930   34.7040   42.2010 C   0  0  0  0  0  0  0  0  0  0  0  0
   48.4060   34.2240   40.3210 H   0  0  0  0  0  0  0  0  0  0  0  0
   48.6000   36.7880   42.1270 H   0  0  0  0  0  0  0  0  0  0  0  0
   49.7320   36.2960   40.6770 H   0  0  0  0  0  0  0  0  0  0  0  0
   50.4340   34.2190   41.8500 H   0  0  0  0  0  0  0  0  0  0  0  0
   49.4280   34.7020   43.3080 H   0  0  0  0  0  0  0  0  0  0  0  0
   41.4350   32.6410   37.9490 O   0  0  0  0  0  0  0  0  0  0  0  0
   40.7030   31.5210   37.9550 C   0  0  0  0  0  0  0  0  0  0  0  0
   39.4830   31.4930   37.4300 O   0  0  0  0  0  0  0  0  0  0  0  0
   40.9360   30.1190   38.4580 C   0  0  0  0  0  0  0  0  0  0  0  0
   40.7420   29.8090   39.7530 C   0  0  0  0  0  0  0  0  0  0  0  0
   40.4350   30.4710   40.5190 H   0  0  0  0  0  0  0  0  0  0  0  0
   40.9460   28.5000   40.2150 C   0  0  0  0  0  3  0  0  0  0  0  0
   41.3490   27.4980   39.3640 C   0  0  0  0  0  0  0  0  0  0  0  0
   41.5010   26.4980   39.7370 H   0  0  0  0  0  0  0  0  0  0  0  0
   41.5620   27.7570   38.0310 C   0  0  0  0  0  0  0  0  0  0  0  0
   41.8770   27.0320   37.2960 H   0  0  0  0  0  0  0  0  0  0  0  0
   41.3430   29.0480   37.6580 C   0  0  0  0  0  3  0  0  0  0  0  0
  1  7  1  6  0  0  0
  1  6  1  0  0  0  0
  1  2  1  0  0  0  0
  2  8  1  6  0  0  0
  2  3  1  0  0  0  0
  2 17  1  0  0  0  0
  4 10  1  0  0  0  0
  4  3  1  0  0  0  0
  5  6  1  0  0  0  0
  5 11  1  1  0  0  0
  5  4  1  0  0  0  0
  6 12  1  1  0  0  0
  9  4  1  0  0  0  0
 13  1  1  0  0  0  0
 14 13  1  0  0  0  0
 15  5  1  0  0  0  0
 16 15  1  0  0  0  0
 17 18  1  0  0  0  0
 18 23  1  0  0  0  0
 19 18  2  0  0  0  0
 19 20  1  0  0  0  0
 20 21  2  0  0  0  0
 21 22  1  0  0  0  0
 22 25  1  0  0  0  0
 23 22  2  0  0  0  0
 24 19  1  0  0  0  0
 26 27  1  0  0  0  0
 26 20  1  0  0  0  0
 26 28  1  0  0  0  0
 27 30  1  0  0  0  0
 27 28  1  0  0  0  0
 28 33  1  0  0  0  0
 29 26  1  0  0  0  0
 31 27  1  0  0  0  0
 32 28  1  0  0  0  0
 34 35  1  0  0  0  0
 34  6  1  0  0  0  0
 35 37  1  0  0  0  0
 36 35  2  0  0  0  0
 37 38  1  0  0  0  0
 38 40  2  0  0  0  0
 38 39  1  0  0  0  0
 41 42  1  0  0  0  0
 41 40  1  0  0  0  0
 43 41  2  0  0  0  0
 44 43  1  0  0  0  0
 45 43  1  0  0  0  0
 45 37  2  0  0  0  0
M  END
>  <minimizedAffinity>
-5.68987751

>  <minimizedRMSD>
0.3337937

$$$$
