
     RDKit          3D

 47 50  0  0  0  0  0  0  0  0999 V2000
   42.8279   34.4887   38.7778 C   0  0  1  0  0  0  0  0  0  0  0  0
   42.9552   35.1656   40.1329 C   0  0  1  0  0  0  0  0  0  0  0  0
   41.6559   35.3787   40.6434 O   0  0  0  0  0  0  0  0  0  0  0  0
   40.7313   35.6993   39.6471 C   0  0  0  0  0  0  0  0  0  0  0  0
   40.4465   34.5189   38.7378 C   0  0  2  0  0  0  0  0  0  0  0  0
   41.6722   33.5509   38.8835 C   0  0  1  0  0  0  0  0  0  0  0  0
   42.6034   35.4370   37.7686 O   0  0  0  0  0  0  0  0  0  0  0  0
   40.4639   34.9305   37.4161 O   0  0  0  0  0  0  0  0  0  0  0  0
   43.4883   34.1851   40.9904 O   0  0  0  0  0  0  0  0  0  0  0  0
   44.5987   34.3359   41.7211 C   0  0  0  0  0  0  0  0  0  0  0  0
   45.8565   34.4437   41.1092 C   0  0  0  0  0  0  0  0  0  0  0  0
   46.9753   34.6003   41.9083 C   0  0  0  0  0  0  0  0  0  0  0  0
   46.8222   34.6460   43.2844 N   0  0  0  0  0  0  0  0  0  0  0  0
   45.5929   34.5380   43.8380 C   0  0  0  0  0  0  0  0  0  0  0  0
   44.4903   34.3840   43.0601 N   0  0  0  0  0  0  0  0  0  0  0  0
   48.3497   34.6995   41.3337 C   0  0  0  0  0  0  0  0  0  0  0  0
   49.0728   36.0349   41.4942 C   0  0  0  0  0  0  0  0  0  0  0  0
   49.5031   34.7219   42.1756 C   0  0  0  0  0  0  0  0  0  0  0  0
   41.5492   32.6021   37.9448 O   0  0  0  0  0  0  0  0  0  0  0  0
   40.9358   31.4124   37.9592 C   0  0  0  0  0  0  0  0  0  0  0  0
   39.6750   31.2827   37.5638 O   0  0  0  0  0  0  0  0  0  0  0  0
   43.7747   33.9882   38.4843 H   0  0  0  0  0  0  0  0  0  0  0  0
   43.5325   36.0914   40.1051 H   0  0  0  0  0  0  0  0  0  0  0  0
   41.0168   36.6049   39.0771 H   0  0  0  0  0  0  0  0  0  0  0  0
   39.7958   35.9113   40.1782 H   0  0  0  0  0  0  0  0  0  0  0  0
   39.5267   33.9746   39.0285 H   0  0  0  0  0  0  0  0  0  0  0  0
   41.4588   33.2961   39.9756 H   0  0  0  0  0  0  0  0  0  0  0  0
   43.4555   35.8034   37.4474 H   0  0  0  0  0  0  0  0  0  0  0  0
   39.8102   34.4542   36.8438 H   0  0  0  0  0  0  0  0  0  0  0  0
   45.9807   34.4091   40.0468 H   0  0  0  0  0  0  0  0  0  0  0  0
   45.4621   34.5722   44.9190 H   0  0  0  0  0  0  0  0  0  0  0  0
   48.3914   34.2448   40.3105 H   0  0  0  0  0  0  0  0  0  0  0  0
   48.6224   36.8111   42.1095 H   0  0  0  0  0  0  0  0  0  0  0  0
   49.7335   36.3085   40.6461 H   0  0  0  0  0  0  0  0  0  0  0  0
   50.4365   34.2295   41.8148 H   0  0  0  0  0  0  0  0  0  0  0  0
   49.4508   34.7217   43.2839 H   0  0  0  0  0  0  0  0  0  0  0  0
   41.3607   30.0190   38.3474 C   0  0  0  0  0  0  0  0  0  0  0  0
   41.2299   29.5854   39.6128 C   0  0  0  0  0  0  0  0  0  0  0  0
   40.8496   30.1373   40.4323 H   0  0  0  0  0  0  0  0  0  0  0  0
   41.6136   28.2820   39.9680 C   0  0  0  0  0  0  0  0  0  0  0  0
   42.1327   27.4126   39.0366 C   0  0  0  0  0  0  0  0  0  0  0  0
   42.4216   26.4162   39.3278 H   0  0  0  0  0  0  0  0  0  0  0  0
   42.2887   27.8026   37.7279 C   0  0  0  0  0  0  0  0  0  0  0  0
   42.6859   27.1873   36.9362 H   0  0  0  0  0  0  0  0  0  0  0  0
   41.8950   29.0783   37.4610 C   0  0  0  0  0  0  0  0  0  0  0  0
   41.5106   27.9284   40.9842 H   0  0  0  0  0  0  0  0  0  0  0  0
   42.0057   29.4264   36.4194 H   0  0  0  0  0  0  0  0  0  0  0  0
  1  6  1  0
  1  2  1  0
  2  3  1  0
  2  9  1  0
  4  3  1  0
  5  6  1  0
  5  4  1  0
  7  1  1  0
  8  5  1  0
  9 10  1  0
 10 15  1  0
 11 10  2  0
 11 12  1  0
 12 13  2  0
 13 14  1  0
 15 14  2  0
 16 17  1  0
 16 12  1  0
 16 18  1  0
 17 18  1  0
 19 20  1  0
 19  6  1  0
 21 20  2  0
  1 22  1  6
  2 23  1  6
  4 24  1  0
  4 25  1  0
  5 26  1  1
  6 27  1  1
  7 28  1  0
  8 29  1  0
 11 30  1  0
 14 31  1  0
 16 32  1  0
 17 33  1  0
 17 34  1  0
 18 35  1  0
 18 36  1  0
 37 38  2  0
 38 39  1  0
 38 40  1  0
 40 41  2  0
 41 42  1  0
 41 43  1  0
 43 44  1  0
 43 45  2  0
 45 37  1  0
 40 46  1  0
 45 47  1  0
 20 37  1  0
M  ISO  8  22  13  23  13  24  13  25  13  26  13  27  13  28   3  29   3
M  ISO  8  30  14  31  14  32  13  33  13  34  13  35  13  36  13  39  16
M  ISO  2  42  16  44  16
M  END
>  <DihAtoms>  (1) 
18,19,36,37

>  <DihDeg>  (1) 
178.5841789357649

$$$$
