
 OpenBabel03242523543D

 45 48  0  0  1  0  0  0  0  0999 V2000
   42.8180   34.5230   38.7440 C   0  0  1  0  0  0  0  0  0  0  0  0
   42.9610   35.1890   40.1030 C   0  0  1  0  0  0  0  0  0  0  0  0
   41.6680   35.4120   40.6240 O   0  0  0  0  0  0  0  0  0  0  0  0
   40.7390   35.7480   39.6370 C   0  0  0  0  0  0  0  0  0  0  0  0
   40.4370   34.5770   38.7220 C   0  0  2  0  0  0  0  0  0  0  0  0
   41.6530   33.5960   38.8510 C   0  0  1  0  0  0  0  0  0  0  0  0
   43.7580   34.0150   38.4400 H   0  0  0  0  0  0  0  0  0  0  0  0
   43.5470   36.1090   40.0770 H   0  0  0  0  0  0  0  0  0  0  0  0
   41.0300   36.6550   39.0710 H   0  0  0  0  0  0  0  0  0  0  0  0
   39.8100   35.9660   40.1760 H   0  0  0  0  0  0  0  0  0  0  0  0
   39.5140   34.0400   39.0150 H   0  0  0  0  0  0  0  0  0  0  0  0
   41.4450   33.3360   39.9440 H   0  0  0  0  0  0  0  0  0  0  0  0
   42.5950   35.4800   37.7430 O   0  0  0  0  0  0  0  0  0  0  0  0
   43.4490   35.8400   37.4180 H   0  0  0  0  0  0  0  0  0  0  0  0
   40.4490   34.9980   37.4020 O   0  0  0  0  0  0  0  0  0  0  0  0
   39.7860   34.5320   36.8320 H   0  0  0  0  0  0  0  0  0  0  0  0
   43.4900   34.1970   40.9490 O   0  0  0  0  0  0  0  0  0  0  0  0
   44.5950   34.3400   41.6910 C   0  0  0  0  0  0  0  0  0  0  0  0
   45.8580   34.4440   41.0910 C   0  0  0  0  0  0  0  0  0  0  0  0
   46.9710   34.5920   41.9010 C   0  0  0  0  0  0  0  0  0  0  0  0
   46.8050   34.6340   43.2760 N   0  0  0  0  0  0  0  0  0  0  0  0
   45.5700   34.5310   43.8180 C   0  0  0  0  0  0  0  0  0  0  0  0
   44.4740   34.3850   43.0290 N   0  0  0  0  0  0  0  0  0  0  0  0
   45.9930   34.4120   40.0300 H   0  0  0  0  0  0  0  0  0  0  0  0
   45.4290   34.5620   44.8980 H   0  0  0  0  0  0  0  0  0  0  0  0
   48.3510   34.6870   41.3410 C   0  0  0  0  0  0  0  0  0  0  0  0
   49.0770   36.0200   41.5050 C   0  0  0  0  0  0  0  0  0  0  0  0
   49.4960   34.7070   42.1940 C   0  0  0  0  0  0  0  0  0  0  0  0
   48.4010   34.2300   40.3180 H   0  0  0  0  0  0  0  0  0  0  0  0
   48.6220   36.7990   42.1140 H   0  0  0  0  0  0  0  0  0  0  0  0
   49.7460   36.2910   40.6630 H   0  0  0  0  0  0  0  0  0  0  0  0
   50.4320   34.2120   41.8430 H   0  0  0  0  0  0  0  0  0  0  0  0
   49.4330   34.7100   43.3010 H   0  0  0  0  0  0  0  0  0  0  0  0
   41.5140   32.6550   37.9070 O   0  0  0  0  0  0  0  0  0  0  0  0
   40.8930   31.4690   37.9190 C   0  0  0  0  0  0  0  0  0  0  0  0
   39.6520   31.3370   37.4680 O   0  0  0  0  0  0  0  0  0  0  0  0
   41.2910   30.0830   38.3590 C   0  0  0  0  0  0  0  0  0  0  0  0
   42.5400   29.6290   38.1620 C   0  0  0  0  0  0  0  0  0  0  0  0
   43.3340   30.1500   37.6970 H   0  0  0  0  0  0  0  0  0  0  0  0
   42.9100   28.3420   38.5850 C   0  0  0  0  0  3  0  0  0  0  0  0
   42.0110   27.5100   39.2120 C   0  0  0  0  0  0  0  0  0  0  0  0
   42.3140   26.5260   39.5300 H   0  0  0  0  0  0  0  0  0  0  0  0
   40.7200   27.9240   39.4400 C   0  0  0  0  0  0  0  0  0  0  0  0
   39.9530   27.3380   39.9220 H   0  0  0  0  0  0  0  0  0  0  0  0
   40.4360   29.1810   39.0010 C   0  0  0  0  0  3  0  0  0  0  0  0
  1  7  1  6  0  0  0
  1  6  1  0  0  0  0
  1  2  1  0  0  0  0
  2  8  1  6  0  0  0
  2  3  1  0  0  0  0
  2 17  1  0  0  0  0
  4 10  1  0  0  0  0
  4  3  1  0  0  0  0
  5  6  1  0  0  0  0
  5 11  1  1  0  0  0
  5  4  1  0  0  0  0
  6 12  1  1  0  0  0
  9  4  1  0  0  0  0
 13  1  1  0  0  0  0
 14 13  1  0  0  0  0
 15  5  1  0  0  0  0
 16 15  1  0  0  0  0
 17 18  1  0  0  0  0
 18 23  1  0  0  0  0
 19 18  2  0  0  0  0
 19 20  1  0  0  0  0
 20 21  2  0  0  0  0
 21 22  1  0  0  0  0
 22 25  1  0  0  0  0
 23 22  2  0  0  0  0
 24 19  1  0  0  0  0
 26 27  1  0  0  0  0
 26 20  1  0  0  0  0
 26 28  1  0  0  0  0
 27 30  1  0  0  0  0
 27 28  1  0  0  0  0
 28 33  1  0  0  0  0
 29 26  1  0  0  0  0
 31 27  1  0  0  0  0
 32 28  1  0  0  0  0
 34 35  1  0  0  0  0
 34  6  1  0  0  0  0
 35 37  1  0  0  0  0
 36 35  2  0  0  0  0
 37 45  1  0  0  0  0
 38 37  2  0  0  0  0
 38 40  1  0  0  0  0
 39 38  1  0  0  0  0
 40 41  2  0  0  0  0
 41 43  1  0  0  0  0
 41 42  1  0  0  0  0
 43 44  1  0  0  0  0
 45 43  2  0  0  0  0
M  END
>  <minimizedAffinity>
-5.64485121

>  <minimizedRMSD>
0.0868514255

$$$$
