
 OpenBabel03242523553D

 45 48  0  0  1  0  0  0  0  0999 V2000
   42.8040   34.4840   38.7440 C   0  0  1  0  0  0  0  0  0  0  0  0
   42.9760   35.1710   40.0890 C   0  0  1  0  0  0  0  0  0  0  0  0
   41.6940   35.4340   40.6170 O   0  0  0  0  0  0  0  0  0  0  0  0
   40.7640   35.7750   39.6330 C   0  0  0  0  0  0  0  0  0  0  0  0
   40.4250   34.5960   38.7420 C   0  0  2  0  0  0  0  0  0  0  0  0
   41.6180   33.5880   38.8780 C   0  0  1  0  0  0  0  0  0  0  0  0
   43.7280   33.9480   38.4400 H   0  0  0  0  0  0  0  0  0  0  0  0
   43.5840   36.0760   40.0410 H   0  0  0  0  0  0  0  0  0  0  0  0
   41.0710   36.6650   39.0480 H   0  0  0  0  0  0  0  0  0  0  0  0
   39.8460   36.0250   40.1770 H   0  0  0  0  0  0  0  0  0  0  0  0
   39.4920   34.0870   39.0540 H   0  0  0  0  0  0  0  0  0  0  0  0
   41.4150   33.3520   39.9780 H   0  0  0  0  0  0  0  0  0  0  0  0
   42.5940   35.4290   37.7280 O   0  0  0  0  0  0  0  0  0  0  0  0
   43.4540   35.7620   37.3880 H   0  0  0  0  0  0  0  0  0  0  0  0
   40.4340   34.9930   37.4160 O   0  0  0  0  0  0  0  0  0  0  0  0
   39.7540   34.5320   36.8600 H   0  0  0  0  0  0  0  0  0  0  0  0
   43.4900   34.1820   40.9480 O   0  0  0  0  0  0  0  0  0  0  0  0
   44.5950   34.3180   41.6910 C   0  0  0  0  0  0  0  0  0  0  0  0
   45.8570   34.4330   41.0920 C   0  0  0  0  0  0  0  0  0  0  0  0
   46.9700   34.5740   41.9030 C   0  0  0  0  0  0  0  0  0  0  0  0
   46.8050   34.5980   43.2780 N   0  0  0  0  0  0  0  0  0  0  0  0
   45.5710   34.4830   43.8190 C   0  0  0  0  0  0  0  0  0  0  0  0
   44.4740   34.3450   43.0300 N   0  0  0  0  0  0  0  0  0  0  0  0
   45.9910   34.4160   40.0300 H   0  0  0  0  0  0  0  0  0  0  0  0
   45.4310   34.5000   44.9000 H   0  0  0  0  0  0  0  0  0  0  0  0
   48.3500   34.6800   41.3420 C   0  0  0  0  0  0  0  0  0  0  0  0
   49.0670   36.0170   41.5130 C   0  0  0  0  0  0  0  0  0  0  0  0
   49.4940   34.7040   42.1950 C   0  0  0  0  0  0  0  0  0  0  0  0
   48.4020   34.2280   40.3170 H   0  0  0  0  0  0  0  0  0  0  0  0
   48.6070   36.7900   42.1260 H   0  0  0  0  0  0  0  0  0  0  0  0
   49.7340   36.2960   40.6720 H   0  0  0  0  0  0  0  0  0  0  0  0
   50.4340   34.2160   41.8420 H   0  0  0  0  0  0  0  0  0  0  0  0
   49.4320   34.7000   43.3030 H   0  0  0  0  0  0  0  0  0  0  0  0
   41.4470   32.6340   37.9530 O   0  0  0  0  0  0  0  0  0  0  0  0
   40.7120   31.5150   37.9550 C   0  0  0  0  0  0  0  0  0  0  0  0
   39.4900   31.4940   37.4370 O   0  0  0  0  0  0  0  0  0  0  0  0
   40.9450   30.1090   38.4460 C   0  0  0  0  0  0  0  0  0  0  0  0
   41.2730   29.1260   37.5900 C   0  0  0  0  0  0  0  0  0  0  0  0
   41.3900   29.2140   36.5420 H   0  0  0  0  0  0  0  0  0  0  0  0
   41.5040   27.8200   38.0530 C   0  0  0  0  0  3  0  0  0  0  0  0
   41.4000   27.5080   39.3890 C   0  0  0  0  0  0  0  0  0  0  0  0
   41.5790   26.5000   39.7250 H   0  0  0  0  0  0  0  0  0  0  0  0
   41.0660   28.4730   40.3080 C   0  0  0  0  0  0  0  0  0  0  0  0
   40.9630   28.3160   41.3700 H   0  0  0  0  0  0  0  0  0  0  0  0
   40.8580   29.7130   39.7850 C   0  0  0  0  0  3  0  0  0  0  0  0
  1  7  1  6  0  0  0
  1  6  1  0  0  0  0
  1  2  1  0  0  0  0
  2  8  1  6  0  0  0
  2  3  1  0  0  0  0
  2 17  1  0  0  0  0
  4 10  1  0  0  0  0
  4  3  1  0  0  0  0
  5  6  1  0  0  0  0
  5 11  1  1  0  0  0
  5  4  1  0  0  0  0
  6 12  1  1  0  0  0
  9  4  1  0  0  0  0
 13  1  1  0  0  0  0
 14 13  1  0  0  0  0
 15  5  1  0  0  0  0
 16 15  1  0  0  0  0
 17 18  1  0  0  0  0
 18 23  1  0  0  0  0
 19 18  2  0  0  0  0
 19 20  1  0  0  0  0
 20 21  2  0  0  0  0
 21 22  1  0  0  0  0
 22 25  1  0  0  0  0
 23 22  2  0  0  0  0
 24 19  1  0  0  0  0
 26 27  1  0  0  0  0
 26 20  1  0  0  0  0
 26 28  1  0  0  0  0
 27 30  1  0  0  0  0
 27 28  1  0  0  0  0
 28 33  1  0  0  0  0
 29 26  1  0  0  0  0
 31 27  1  0  0  0  0
 32 28  1  0  0  0  0
 34 35  1  0  0  0  0
 34  6  1  0  0  0  0
 35 37  1  0  0  0  0
 36 35  2  0  0  0  0
 37 45  1  0  0  0  0
 38 40  1  0  0  0  0
 38 37  2  0  0  0  0
 39 38  1  0  0  0  0
 40 41  2  0  0  0  0
 41 42  1  0  0  0  0
 41 43  1  0  0  0  0
 43 44  1  0  0  0  0
 45 43  2  0  0  0  0
M  END
>  <minimizedAffinity>
-5.68612194

>  <minimizedRMSD>
0.329634845

$$$$
