
 OpenBabel03242521193D

 38 40  0  0  0  0  0  0  0  0999 V2000
   40.0410   31.1230   38.2980 C   0  0  0  0  0  0  0  0  0  0  0  0
   40.9860   31.9410   38.9530 C   0  0  0  0  0  0  0  0  0  0  0  0
   40.5230   32.7490   39.9870 C   0  0  0  0  0  0  0  0  0  0  0  0
   39.1880   32.7070   40.3080 N   0  0  0  0  0  0  0  0  0  0  0  0
   38.3280   31.9150   39.6570 C   0  0  0  0  0  0  0  0  0  0  0  0
   38.7410   31.1090   38.6400 N   0  0  0  0  0  0  0  0  0  0  0  0
   40.3920   30.5020   37.5060 H   0  0  0  0  0  0  0  0  0  0  0  0
   42.0220   31.9460   38.6740 H   0  0  0  0  0  0  0  0  0  0  0  0
   41.4570   33.5780   40.6580 N   0  0  0  0  0  0  0  0  0  0  0  0
   42.3990   32.9760   41.4270 C   0  0  0  0  0  0  0  0  0  0  0  0
   43.3220   33.7820   42.0920 C   0  0  0  0  0  0  0  0  0  0  0  0
   43.2380   35.1290   41.9400 C   0  0  0  0  0  0  0  0  0  0  0  0
   44.0840   35.8480   42.5500 O   0  0  0  0  0  0  0  0  0  0  0  0
   42.3060   35.7400   41.1770 N   0  0  0  0  0  0  0  0  0  0  0  0
   41.4310   34.9140   40.5510 C   0  0  0  0  0  0  0  0  0  0  0  0
   40.5330   35.3700   39.8250 O   0  0  0  0  0  0  0  0  0  0  0  0
   42.4450   31.8990   41.5320 H   0  0  0  0  0  0  0  0  0  0  0  0
   44.0710   33.3040   42.7030 H   0  0  0  0  0  0  0  0  0  0  0  0
   42.2670   36.7640   41.0800 H   0  0  0  0  0  0  0  0  0  0  0  0
   36.9530   32.0570   40.1960 C   0  0  0  0  0  0  0  0  0  0  0  0
   36.7930   33.0240   40.7310 H   0  0  0  0  0  0  0  0  0  0  0  0
   36.2740   32.1150   39.3010 H   0  0  0  0  0  0  0  0  0  0  0  0
   36.5790   30.8740   41.0550 C   0  0  0  0  0  0  0  0  0  0  0  0
   35.8680   31.1970   41.8160 H   0  0  0  0  0  0  0  0  0  0  0  0
   36.0230   30.1420   40.4020 H   0  0  0  0  0  0  0  0  0  0  0  0
   37.7030   29.0360   42.2200 C   0  0  0  0  0  0  0  0  0  0  0  0
   36.5810   28.5060   42.2950 O   0  0  0  0  0  0  0  0  0  0  0  0
   37.7760   30.2780   41.5880 N   0  0  0  0  0  0  0  0  0  0  0  0
   38.6890   30.7710   41.5020 H   0  0  0  0  0  0  0  0  0  0  0  0
   38.8500   28.3370   42.7880 C   0  0  0  0  0  0  0  0  0  0  0  0
   40.0960   28.8810   42.5650 C   0  0  0  0  0  0  0  0  0  0  0  0
   40.2350   29.7950   41.9910 H   0  0  0  0  0  0  0  0  0  0  0  0
   41.2610   28.2900   43.0650 C   0  0  0  0  0  3  0  0  0  0  0  0
   41.0450   27.1340   43.7860 C   0  0  0  0  0  0  0  0  0  0  0  0
   41.9460   26.6550   44.1880 H   0  0  0  0  0  0  0  0  0  0  0  0
   39.8310   26.5340   44.0480 C   0  0  0  0  0  0  0  0  0  0  0  0
   39.7920   25.6230   44.6300 H   0  0  0  0  0  0  0  0  0  0  0  0
   38.7310   27.1760   43.5220 C   0  0  0  0  0  3  0  0  0  0  0  0
  1  6  2  0  0  0  0
  1  2  1  0  0  0  0
  2  3  2  0  0  0  0
  3  4  1  0  0  0  0
  3  9  1  0  0  0  0
  5 20  1  0  0  0  0
  5  4  2  0  0  0  0
  6  5  1  0  0  0  0
  7  1  1  0  0  0  0
  8  2  1  0  0  0  0
  9 10  1  0  0  0  0
 10 17  1  0  0  0  0
 10 11  2  0  0  0  0
 11 18  1  0  0  0  0
 12 11  1  0  0  0  0
 12 13  2  0  0  0  0
 14 12  1  0  0  0  0
 15  9  1  0  0  0  0
 15 14  1  0  0  0  0
 16 15  2  0  0  0  0
 19 14  1  0  0  0  0
 20 21  1  0  0  0  0
 20 23  1  0  0  0  0
 22 20  1  0  0  0  0
 23 28  1  0  0  0  0
 23 24  1  0  0  0  0
 25 23  1  0  0  0  0
 26 27  2  0  0  0  0
 26 30  1  0  0  0  0
 28 26  1  0  0  0  0
 29 28  1  0  0  0  0
 30 38  1  0  0  0  0
 31 30  2  0  0  0  0
 31 33  1  0  0  0  0
 32 31  1  0  0  0  0
 33 34  2  0  0  0  0
 34 36  1  0  0  0  0
 34 35  1  0  0  0  0
 36 37  1  0  0  0  0
 38 36  2  0  0  0  0
M  END
>  <minimizedAffinity>
-6.28268862

$$$$

 OpenBabel03242521193D

 38 40  0  0  0  0  0  0  0  0999 V2000
   39.9750   31.6610   38.6490 C   0  0  0  0  0  0  0  0  0  0  0  0
   39.5030   30.6930   39.5600 C   0  0  0  0  0  0  0  0  0  0  0  0
   38.8580   31.1540   40.7030 C   0  0  0  0  0  0  0  0  0  0  0  0
   38.7180   32.5090   40.8800 N   0  0  0  0  0  0  0  0  0  0  0  0
   39.1830   33.3900   39.9870 C   0  0  0  0  0  0  0  0  0  0  0  0
   39.8200   32.9800   38.8550 N   0  0  0  0  0  0  0  0  0  0  0  0
   40.4700   31.3120   37.7720 H   0  0  0  0  0  0  0  0  0  0  0  0
   39.6320   29.6410   39.3890 H   0  0  0  0  0  0  0  0  0  0  0  0
   38.3760   30.1960   41.6320 N   0  0  0  0  0  0  0  0  0  0  0  0
   39.2890   29.5210   42.3760 C   0  0  0  0  0  0  0  0  0  0  0  0
   38.8260   28.5770   43.2920 C   0  0  0  0  0  0  0  0  0  0  0  0
   37.4870   28.3770   43.3990 C   0  0  0  0  0  0  0  0  0  0  0  0
   37.0810   27.5170   44.2350 O   0  0  0  0  0  0  0  0  0  0  0  0
   36.5690   29.0430   42.6650 N   0  0  0  0  0  0  0  0  0  0  0  0
   37.0680   29.9500   41.7890 C   0  0  0  0  0  0  0  0  0  0  0  0
   36.3120   30.6180   41.0640 O   0  0  0  0  0  0  0  0  0  0  0  0
   40.3520   29.6990   42.2710 H   0  0  0  0  0  0  0  0  0  0  0  0
   39.5510   28.0410   43.8830 H   0  0  0  0  0  0  0  0  0  0  0  0
   35.5600   28.8710   42.7690 H   0  0  0  0  0  0  0  0  0  0  0  0
   38.9030   34.7840   40.4110 C   0  0  0  0  0  0  0  0  0  0  0  0
   37.9330   35.1720   40.0160 H   0  0  0  0  0  0  0  0  0  0  0  0
   38.7590   34.7450   41.5260 H   0  0  0  0  0  0  0  0  0  0  0  0
   40.0530   35.7000   40.0690 C   0  0  0  0  0  0  0  0  0  0  0  0
   40.4450   35.4270   39.0890 H   0  0  0  0  0  0  0  0  0  0  0  0
   39.6370   36.7410   39.9580 H   0  0  0  0  0  0  0  0  0  0  0  0
   42.2850   35.0910   40.8730 C   0  0  0  0  0  0  0  0  0  0  0  0
   42.4900   34.6550   39.7270 O   0  0  0  0  0  0  0  0  0  0  0  0
   41.0300   35.6470   41.1250 N   0  0  0  0  0  0  0  0  0  0  0  0
   40.8010   36.0220   42.0690 H   0  0  0  0  0  0  0  0  0  0  0  0
   43.3520   34.9940   41.8630 C   0  0  0  0  0  0  0  0  0  0  0  0
   44.2910   34.0010   41.6850 C   0  0  0  0  0  0  0  0  0  0  0  0
   44.2510   33.3100   40.8450 H   0  0  0  0  0  0  0  0  0  0  0  0
   45.3530   33.8200   42.5760 C   0  0  0  0  0  3  0  0  0  0  0  0
   45.3700   34.7140   43.6270 C   0  0  0  0  0  0  0  0  0  0  0  0
   46.1970   34.5900   44.3360 H   0  0  0  0  0  0  0  0  0  0  0  0
   44.4670   35.7290   43.8670 C   0  0  0  0  0  0  0  0  0  0  0  0
   44.5890   36.3680   44.7320 H   0  0  0  0  0  0  0  0  0  0  0  0
   43.4490   35.8420   42.9450 C   0  0  0  0  0  3  0  0  0  0  0  0
  1  6  2  0  0  0  0
  1  2  1  0  0  0  0
  2  3  2  0  0  0  0
  3  4  1  0  0  0  0
  3  9  1  0  0  0  0
  5 20  1  0  0  0  0
  5  4  2  0  0  0  0
  6  5  1  0  0  0  0
  7  1  1  0  0  0  0
  8  2  1  0  0  0  0
  9 15  1  0  0  0  0
  9 10  1  0  0  0  0
 10 11  2  0  0  0  0
 11 12  1  0  0  0  0
 11 18  1  0  0  0  0
 12 13  2  0  0  0  0
 14 19  1  0  0  0  0
 14 12  1  0  0  0  0
 15 14  1  0  0  0  0
 16 15  2  0  0  0  0
 17 10  1  0  0  0  0
 20 22  1  0  0  0  0
 21 20  1  0  0  0  0
 23 20  1  0  0  0  0
 23 28  1  0  0  0  0
 24 23  1  0  0  0  0
 25 23  1  0  0  0  0
 26 28  1  0  0  0  0
 26 30  1  0  0  0  0
 27 26  2  0  0  0  0
 28 29  1  0  0  0  0
 30 38  1  0  0  0  0
 31 30  2  0  0  0  0
 31 33  1  0  0  0  0
 32 31  1  0  0  0  0
 33 34  2  0  0  0  0
 34 36  1  0  0  0  0
 34 35  1  0  0  0  0
 36 37  1  0  0  0  0
 38 36  2  0  0  0  0
M  END
>  <minimizedAffinity>
-6.25217533

$$$$

 OpenBabel03242521193D

 38 40  0  0  0  0  0  0  0  0999 V2000
   36.9520   30.3260   36.9010 C   0  0  0  0  0  0  0  0  0  0  0  0
   37.7900   31.3740   37.3370 C   0  0  0  0  0  0  0  0  0  0  0  0
   37.8070   31.6530   38.7000 C   0  0  0  0  0  0  0  0  0  0  0  0
   37.0170   30.9020   39.5360 N   0  0  0  0  0  0  0  0  0  0  0  0
   36.2380   29.9160   39.0760 C   0  0  0  0  0  0  0  0  0  0  0  0
   36.1920   29.6120   37.7490 N   0  0  0  0  0  0  0  0  0  0  0  0
   36.9360   30.1090   35.8580 H   0  0  0  0  0  0  0  0  0  0  0  0
   38.3930   31.9400   36.6530 H   0  0  0  0  0  0  0  0  0  0  0  0
   38.6430   32.7030   39.1580 N   0  0  0  0  0  0  0  0  0  0  0  0
   39.9790   32.4690   39.2160 C   0  0  0  0  0  0  0  0  0  0  0  0
   40.8090   33.4950   39.6650 C   0  0  0  0  0  0  0  0  0  0  0  0
   40.2460   34.6780   40.0230 C   0  0  0  0  0  0  0  0  0  0  0  0
   41.0140   35.6010   40.4290 O   0  0  0  0  0  0  0  0  0  0  0  0
   38.9190   34.9240   39.9690 N   0  0  0  0  0  0  0  0  0  0  0  0
   38.1530   33.8960   39.5260 C   0  0  0  0  0  0  0  0  0  0  0  0
   36.9200   34.0130   39.4370 O   0  0  0  0  0  0  0  0  0  0  0  0
   40.4020   31.5160   38.9260 H   0  0  0  0  0  0  0  0  0  0  0  0
   41.8700   33.3100   39.7120 H   0  0  0  0  0  0  0  0  0  0  0  0
   38.5210   35.8310   40.2460 H   0  0  0  0  0  0  0  0  0  0  0  0
   35.4900   29.2630   40.1790 C   0  0  0  0  0  0  0  0  0  0  0  0
   34.4100   29.5460   40.1980 H   0  0  0  0  0  0  0  0  0  0  0  0
   35.4890   28.1630   39.9430 H   0  0  0  0  0  0  0  0  0  0  0  0
   36.1570   29.5070   41.5100 C   0  0  0  0  0  0  0  0  0  0  0  0
   36.4330   30.5600   41.5820 H   0  0  0  0  0  0  0  0  0  0  0  0
   35.3860   29.3320   42.3140 H   0  0  0  0  0  0  0  0  0  0  0  0
   37.1860   27.5640   42.5880 C   0  0  0  0  0  0  0  0  0  0  0  0
   36.1410   27.4850   43.2580 O   0  0  0  0  0  0  0  0  0  0  0  0
   37.2650   28.6010   41.6570 N   0  0  0  0  0  0  0  0  0  0  0  0
   38.1190   28.7180   41.0730 H   0  0  0  0  0  0  0  0  0  0  0  0
   38.2420   26.5830   42.8150 C   0  0  0  0  0  0  0  0  0  0  0  0
   38.0900   25.3440   42.2340 C   0  0  0  0  0  0  0  0  0  0  0  0
   37.2230   25.0910   41.6270 H   0  0  0  0  0  0  0  0  0  0  0  0
   39.0430   24.3320   42.3900 C   0  0  0  0  0  3  0  0  0  0  0  0
   40.1270   24.6900   43.1660 C   0  0  0  0  0  0  0  0  0  0  0  0
   40.8860   23.9100   43.2990 H   0  0  0  0  0  0  0  0  0  0  0  0
   40.3440   25.9070   43.7760 C   0  0  0  0  0  0  0  0  0  0  0  0
   41.2400   26.0660   44.3630 H   0  0  0  0  0  0  0  0  0  0  0  0
   39.3610   26.8510   43.5760 C   0  0  0  0  0  3  0  0  0  0  0  0
  1  2  2  0  0  0  0
  1  6  1  0  0  0  0
  2  3  1  0  0  0  0
  3  9  1  0  0  0  0
  3  4  2  0  0  0  0
  5  4  1  0  0  0  0
  5 20  1  0  0  0  0
  6  5  2  0  0  0  0
  7  1  1  0  0  0  0
  8  2  1  0  0  0  0
  9 10  1  0  0  0  0
  9 15  1  0  0  0  0
 10 11  2  0  0  0  0
 11 18  1  0  0  0  0
 11 12  1  0  0  0  0
 12 13  2  0  0  0  0
 14 12  1  0  0  0  0
 14 19  1  0  0  0  0
 15 14  1  0  0  0  0
 16 15  2  0  0  0  0
 17 10  1  0  0  0  0
 20 21  1  0  0  0  0
 20 23  1  0  0  0  0
 22 20  1  0  0  0  0
 23 24  1  0  0  0  0
 23 28  1  0  0  0  0
 23 25  1  0  0  0  0
 26 30  1  0  0  0  0
 26 27  2  0  0  0  0
 28 26  1  0  0  0  0
 29 28  1  0  0  0  0
 30 38  1  0  0  0  0
 31 33  1  0  0  0  0
 31 30  2  0  0  0  0
 32 31  1  0  0  0  0
 33 34  2  0  0  0  0
 34 35  1  0  0  0  0
 34 36  1  0  0  0  0
 36 37  1  0  0  0  0
 38 36  2  0  0  0  0
M  END
>  <minimizedAffinity>
-6.19700575

$$$$

 OpenBabel03242521193D

 38 40  0  0  0  0  0  0  0  0999 V2000
   36.1580   30.6420   40.6370 C   0  0  0  0  0  0  0  0  0  0  0  0
   36.9720   31.7040   40.1910 C   0  0  0  0  0  0  0  0  0  0  0  0
   38.2510   31.7980   40.7320 C   0  0  0  0  0  0  0  0  0  0  0  0
   38.6440   30.8630   41.6580 N   0  0  0  0  0  0  0  0  0  0  0  0
   37.8360   29.8730   42.0510 C   0  0  0  0  0  0  0  0  0  0  0  0
   36.5770   29.7460   41.5470 N   0  0  0  0  0  0  0  0  0  0  0  0
   35.1770   30.5670   40.2250 H   0  0  0  0  0  0  0  0  0  0  0  0
   36.6290   32.4160   39.4650 H   0  0  0  0  0  0  0  0  0  0  0  0
   39.0860   32.8590   40.2960 N   0  0  0  0  0  0  0  0  0  0  0  0
   38.8150   34.1070   40.7580 C   0  0  0  0  0  0  0  0  0  0  0  0
   39.6290   35.1560   40.3350 C   0  0  0  0  0  0  0  0  0  0  0  0
   40.6530   34.8840   39.4850 C   0  0  0  0  0  0  0  0  0  0  0  0
   41.3840   35.8490   39.1110 O   0  0  0  0  0  0  0  0  0  0  0  0
   40.9330   33.6480   39.0200 N   0  0  0  0  0  0  0  0  0  0  0  0
   40.1130   32.6600   39.4590 C   0  0  0  0  0  0  0  0  0  0  0  0
   40.2790   31.4850   39.0930 O   0  0  0  0  0  0  0  0  0  0  0  0
   37.9920   34.2970   41.4340 H   0  0  0  0  0  0  0  0  0  0  0  0
   39.4160   36.1480   40.7010 H   0  0  0  0  0  0  0  0  0  0  0  0
   41.7160   33.4710   38.3760 H   0  0  0  0  0  0  0  0  0  0  0  0
   38.4990   29.0030   43.0550 C   0  0  0  0  0  0  0  0  0  0  0  0
   39.4200   28.5100   42.6600 H   0  0  0  0  0  0  0  0  0  0  0  0
   38.8710   29.6910   43.8630 H   0  0  0  0  0  0  0  0  0  0  0  0
   37.5300   28.0010   43.6330 C   0  0  0  0  0  0  0  0  0  0  0  0
   38.0060   27.4870   44.4690 H   0  0  0  0  0  0  0  0  0  0  0  0
   36.6670   28.5770   44.0730 H   0  0  0  0  0  0  0  0  0  0  0  0
   37.8140   25.9740   42.2880 C   0  0  0  0  0  0  0  0  0  0  0  0
   38.8470   25.7770   42.9530 O   0  0  0  0  0  0  0  0  0  0  0  0
   37.0780   27.1210   42.5870 N   0  0  0  0  0  0  0  0  0  0  0  0
   36.2080   27.3400   42.0580 H   0  0  0  0  0  0  0  0  0  0  0  0
   37.4470   25.0100   41.2570 C   0  0  0  0  0  0  0  0  0  0  0  0
   36.7690   25.4870   40.1570 C   0  0  0  0  0  0  0  0  0  0  0  0
   36.5100   26.5390   40.0480 H   0  0  0  0  0  0  0  0  0  0  0  0
   36.3700   24.6470   39.1130 C   0  0  0  0  0  3  0  0  0  0  0  0
   36.7150   23.3230   39.2880 C   0  0  0  0  0  0  0  0  0  0  0  0
   36.4120   22.6480   38.4780 H   0  0  0  0  0  0  0  0  0  0  0  0
   37.3910   22.7760   40.3580 C   0  0  0  0  0  0  0  0  0  0  0  0
   37.6050   21.7150   40.3790 H   0  0  0  0  0  0  0  0  0  0  0  0
   37.7500   23.6680   41.3460 C   0  0  0  0  0  3  0  0  0  0  0  0
  1  6  1  0  0  0  0
  2  1  2  0  0  0  0
  2  3  1  0  0  0  0
  3  4  2  0  0  0  0
  4  5  1  0  0  0  0
  5 20  1  0  0  0  0
  6  5  2  0  0  0  0
  7  1  1  0  0  0  0
  8  2  1  0  0  0  0
  9  3  1  0  0  0  0
  9 10  1  0  0  0  0
 10 17  1  0  0  0  0
 11 18  1  0  0  0  0
 11 10  2  0  0  0  0
 12 11  1  0  0  0  0
 13 12  2  0  0  0  0
 14 15  1  0  0  0  0
 14 12  1  0  0  0  0
 15  9  1  0  0  0  0
 16 15  2  0  0  0  0
 19 14  1  0  0  0  0
 20 23  1  0  0  0  0
 20 22  1  0  0  0  0
 21 20  1  0  0  0  0
 23 25  1  0  0  0  0
 23 24  1  0  0  0  0
 26 28  1  0  0  0  0
 26 27  2  0  0  0  0
 28 23  1  0  0  0  0
 29 28  1  0  0  0  0
 30 38  1  0  0  0  0
 30 26  1  0  0  0  0
 31 30  2  0  0  0  0
 32 31  1  0  0  0  0
 33 34  2  0  0  0  0
 33 31  1  0  0  0  0
 34 36  1  0  0  0  0
 35 34  1  0  0  0  0
 36 37  1  0  0  0  0
 36 38  2  0  0  0  0
M  END
>  <minimizedAffinity>
-6.19605684

$$$$

 OpenBabel03242521193D

 38 40  0  0  0  0  0  0  0  0999 V2000
   38.1270   33.6680   40.0810 C   0  0  0  0  0  0  0  0  0  0  0  0
   37.1900   32.7750   39.5200 C   0  0  0  0  0  0  0  0  0  0  0  0
   37.3790   31.4180   39.7600 C   0  0  0  0  0  0  0  0  0  0  0  0
   38.4540   31.0270   40.5210 N   0  0  0  0  0  0  0  0  0  0  0  0
   39.3170   31.9120   41.0330 C   0  0  0  0  0  0  0  0  0  0  0  0
   39.1670   33.2490   40.8210 N   0  0  0  0  0  0  0  0  0  0  0  0
   37.9850   34.7090   39.9000 H   0  0  0  0  0  0  0  0  0  0  0  0
   36.3620   33.1180   38.9290 H   0  0  0  0  0  0  0  0  0  0  0  0
   36.4480   30.5040   39.2030 N   0  0  0  0  0  0  0  0  0  0  0  0
   35.5220   29.9600   40.0340 C   0  0  0  0  0  0  0  0  0  0  0  0
   34.6030   29.0600   39.4970 C   0  0  0  0  0  0  0  0  0  0  0  0
   34.6750   28.7690   38.1720 C   0  0  0  0  0  0  0  0  0  0  0  0
   33.8330   27.9490   37.6990 O   0  0  0  0  0  0  0  0  0  0  0  0
   35.5910   29.3030   37.3360 N   0  0  0  0  0  0  0  0  0  0  0  0
   36.4630   30.1720   37.9050 C   0  0  0  0  0  0  0  0  0  0  0  0
   37.3470   30.7220   37.2270 O   0  0  0  0  0  0  0  0  0  0  0  0
   35.4870   30.2090   41.0870 H   0  0  0  0  0  0  0  0  0  0  0  0
   33.8670   28.6280   40.1560 H   0  0  0  0  0  0  0  0  0  0  0  0
   35.6210   29.0640   36.3360 H   0  0  0  0  0  0  0  0  0  0  0  0
   40.3820   31.2340   41.8130 C   0  0  0  0  0  0  0  0  0  0  0  0
   41.0060   30.5480   41.1900 H   0  0  0  0  0  0  0  0  0  0  0  0
   41.0910   32.0440   42.1370 H   0  0  0  0  0  0  0  0  0  0  0  0
   39.8120   30.5310   43.0210 C   0  0  0  0  0  0  0  0  0  0  0  0
   40.4010   30.7980   43.8990 H   0  0  0  0  0  0  0  0  0  0  0  0
   38.7800   30.9480   43.2000 H   0  0  0  0  0  0  0  0  0  0  0  0
   38.5590   28.4280   42.9650 C   0  0  0  0  0  0  0  0  0  0  0  0
   37.5890   29.0900   43.3740 O   0  0  0  0  0  0  0  0  0  0  0  0
   39.7550   29.1170   42.7620 N   0  0  0  0  0  0  0  0  0  0  0  0
   40.6010   28.6120   42.4260 H   0  0  0  0  0  0  0  0  0  0  0  0
   38.3840   26.9990   42.7280 C   0  0  0  0  0  0  0  0  0  0  0  0
   39.4790   26.1870   42.9280 C   0  0  0  0  0  0  0  0  0  0  0  0
   40.4420   26.5800   43.2490 H   0  0  0  0  0  0  0  0  0  0  0  0
   39.4200   24.8040   42.7280 C   0  0  0  0  0  3  0  0  0  0  0  0
   38.1840   24.3430   42.3210 C   0  0  0  0  0  0  0  0  0  0  0  0
   38.1170   23.2600   42.1600 H   0  0  0  0  0  0  0  0  0  0  0  0
   37.0490   25.0950   42.1020 C   0  0  0  0  0  0  0  0  0  0  0  0
   36.1340   24.6140   41.7820 H   0  0  0  0  0  0  0  0  0  0  0  0
   37.1880   26.4490   42.3200 C   0  0  0  0  0  3  0  0  0  0  0  0
  1  6  1  0  0  0  0
  2  3  1  0  0  0  0
  2  1  2  0  0  0  0
  3  4  2  0  0  0  0
  4  5  1  0  0  0  0
  5 20  1  0  0  0  0
  6  5  2  0  0  0  0
  7  1  1  0  0  0  0
  8  2  1  0  0  0  0
  9  3  1  0  0  0  0
  9 10  1  0  0  0  0
 10 17  1  0  0  0  0
 11 10  2  0  0  0  0
 11 18  1  0  0  0  0
 12 11  1  0  0  0  0
 13 12  2  0  0  0  0
 14 15  1  0  0  0  0
 14 12  1  0  0  0  0
 15  9  1  0  0  0  0
 16 15  2  0  0  0  0
 19 14  1  0  0  0  0
 20 22  1  0  0  0  0
 20 23  1  0  0  0  0
 21 20  1  0  0  0  0
 23 25  1  0  0  0  0
 23 24  1  0  0  0  0
 26 27  2  0  0  0  0
 28 26  1  0  0  0  0
 28 23  1  0  0  0  0
 29 28  1  0  0  0  0
 30 31  1  0  0  0  0
 30 26  1  0  0  0  0
 31 32  1  0  0  0  0
 33 31  2  0  0  0  0
 34 33  1  0  0  0  0
 35 34  1  0  0  0  0
 36 38  1  0  0  0  0
 36 34  2  0  0  0  0
 37 36  1  0  0  0  0
 38 30  2  0  0  0  0
M  END
>  <minimizedAffinity>
-6.05270195

$$$$

 OpenBabel03242521193D

 38 40  0  0  0  0  0  0  0  0999 V2000
   38.4710   34.5550   40.2630 C   0  0  0  0  0  0  0  0  0  0  0  0
   37.5430   33.5530   39.9060 C   0  0  0  0  0  0  0  0  0  0  0  0
   38.0350   32.2650   39.7210 C   0  0  0  0  0  0  0  0  0  0  0  0
   39.3790   32.0420   39.8930 N   0  0  0  0  0  0  0  0  0  0  0  0
   40.2220   33.0240   40.2320 C   0  0  0  0  0  0  0  0  0  0  0  0
   39.7800   34.2990   40.4220 N   0  0  0  0  0  0  0  0  0  0  0  0
   38.0980   35.5430   40.4060 H   0  0  0  0  0  0  0  0  0  0  0  0
   36.4990   33.7660   39.7810 H   0  0  0  0  0  0  0  0  0  0  0  0
   37.1180   31.2440   39.3620 N   0  0  0  0  0  0  0  0  0  0  0  0
   36.3640   30.6950   40.3490 C   0  0  0  0  0  0  0  0  0  0  0  0
   35.4600   29.6910   40.0070 C   0  0  0  0  0  0  0  0  0  0  0  0
   35.3740   29.3070   38.7070 C   0  0  0  0  0  0  0  0  0  0  0  0
   34.5480   28.3930   38.4120 O   0  0  0  0  0  0  0  0  0  0  0  0
   36.1180   29.8450   37.7170 N   0  0  0  0  0  0  0  0  0  0  0  0
   36.9820   30.8190   38.0990 C   0  0  0  0  0  0  0  0  0  0  0  0
   37.7150   31.3810   37.2690 O   0  0  0  0  0  0  0  0  0  0  0  0
   36.4520   31.0190   41.3790 H   0  0  0  0  0  0  0  0  0  0  0  0
   34.8610   29.2540   40.7900 H   0  0  0  0  0  0  0  0  0  0  0  0
   36.0310   29.5350   36.7400 H   0  0  0  0  0  0  0  0  0  0  0  0
   41.6120   32.5220   40.3550 C   0  0  0  0  0  0  0  0  0  0  0  0
   41.8420   31.7000   39.6340 H   0  0  0  0  0  0  0  0  0  0  0  0
   42.2770   33.3710   40.0350 H   0  0  0  0  0  0  0  0  0  0  0  0
   41.9250   32.1250   41.7770 C   0  0  0  0  0  0  0  0  0  0  0  0
   42.8870   31.6110   41.7990 H   0  0  0  0  0  0  0  0  0  0  0  0
   42.0660   33.0720   42.3710 H   0  0  0  0  0  0  0  0  0  0  0  0
   40.9320   29.9560   42.3300 C   0  0  0  0  0  0  0  0  0  0  0  0
   41.9790   29.4550   41.8820 O   0  0  0  0  0  0  0  0  0  0  0  0
   40.8340   31.3480   42.3020 N   0  0  0  0  0  0  0  0  0  0  0  0
   39.9780   31.8210   42.6590 H   0  0  0  0  0  0  0  0  0  0  0  0
   39.8940   29.0710   42.8470 C   0  0  0  0  0  0  0  0  0  0  0  0
   38.6210   29.5850   42.9560 C   0  0  0  0  0  0  0  0  0  0  0  0
   38.3840   30.6090   42.6730 H   0  0  0  0  0  0  0  0  0  0  0  0
   37.5540   28.8220   43.4410 C   0  0  0  0  0  3  0  0  0  0  0  0
   37.8940   27.5310   43.7890 C   0  0  0  0  0  0  0  0  0  0  0  0
   37.0700   26.9150   44.1700 H   0  0  0  0  0  0  0  0  0  0  0  0
   39.1420   26.9500   43.7070 C   0  0  0  0  0  0  0  0  0  0  0  0
   39.2820   25.9220   44.0130 H   0  0  0  0  0  0  0  0  0  0  0  0
   40.1410   27.7670   43.2210 C   0  0  0  0  0  3  0  0  0  0  0  0
  1  7  1  0  0  0  0
  1  6  1  0  0  0  0
  2  1  2  0  0  0  0
  3  4  2  0  0  0  0
  3  2  1  0  0  0  0
  4  5  1  0  0  0  0
  5 20  1  0  0  0  0
  5  6  2  0  0  0  0
  8  2  1  0  0  0  0
  9  3  1  0  0  0  0
  9 10  1  0  0  0  0
 10 17  1  0  0  0  0
 11 10  2  0  0  0  0
 11 18  1  0  0  0  0
 12 11  1  0  0  0  0
 13 12  2  0  0  0  0
 14 15  1  0  0  0  0
 14 12  1  0  0  0  0
 15  9  1  0  0  0  0
 16 15  2  0  0  0  0
 19 14  1  0  0  0  0
 20 23  1  0  0  0  0
 21 20  1  0  0  0  0
 22 20  1  0  0  0  0
 23 24  1  0  0  0  0
 23 28  1  0  0  0  0
 23 25  1  0  0  0  0
 26 30  1  0  0  0  0
 27 26  2  0  0  0  0
 28 26  1  0  0  0  0
 28 29  1  0  0  0  0
 30 31  2  0  0  0  0
 30 38  1  0  0  0  0
 31 33  1  0  0  0  0
 32 31  1  0  0  0  0
 33 34  2  0  0  0  0
 34 35  1  0  0  0  0
 36 34  1  0  0  0  0
 36 37  1  0  0  0  0
 38 36  2  0  0  0  0
M  END
>  <minimizedAffinity>
-6.01458549

$$$$

 OpenBabel03242521193D

 38 40  0  0  0  0  0  0  0  0999 V2000
   38.4290   34.8800   40.0790 C   0  0  0  0  0  0  0  0  0  0  0  0
   39.8280   35.0530   40.0450 C   0  0  0  0  0  0  0  0  0  0  0  0
   40.6090   33.9100   39.9050 C   0  0  0  0  0  0  0  0  0  0  0  0
   39.9810   32.6910   39.8080 N   0  0  0  0  0  0  0  0  0  0  0  0
   38.6490   32.5770   39.8450 C   0  0  0  0  0  0  0  0  0  0  0  0
   37.8500   33.6720   39.9810 N   0  0  0  0  0  0  0  0  0  0  0  0
   37.8270   35.7540   40.1860 H   0  0  0  0  0  0  0  0  0  0  0  0
   40.2830   36.0220   40.1240 H   0  0  0  0  0  0  0  0  0  0  0  0
   42.0190   34.0620   39.8690 N   0  0  0  0  0  0  0  0  0  0  0  0
   42.6840   34.0700   41.0530 C   0  0  0  0  0  0  0  0  0  0  0  0
   44.0700   34.2190   41.0290 C   0  0  0  0  0  0  0  0  0  0  0  0
   44.6900   34.3480   39.8270 C   0  0  0  0  0  0  0  0  0  0  0  0
   45.9490   34.4830   39.8210 O   0  0  0  0  0  0  0  0  0  0  0  0
   44.0390   34.3410   38.6430 N   0  0  0  0  0  0  0  0  0  0  0  0
   42.6930   34.1930   38.7180 C   0  0  0  0  0  0  0  0  0  0  0  0
   41.9960   34.1730   37.6900 O   0  0  0  0  0  0  0  0  0  0  0  0
   42.1660   33.9660   41.9970 H   0  0  0  0  0  0  0  0  0  0  0  0
   44.5990   34.2260   41.9680 H   0  0  0  0  0  0  0  0  0  0  0  0
   44.5360   34.4400   37.7480 H   0  0  0  0  0  0  0  0  0  0  0  0
   38.2270   31.1600   39.7200 C   0  0  0  0  0  0  0  0  0  0  0  0
   37.4610   31.0040   38.9220 H   0  0  0  0  0  0  0  0  0  0  0  0
   39.1310   30.5990   39.3560 H   0  0  0  0  0  0  0  0  0  0  0  0
   37.7730   30.6070   41.0490 C   0  0  0  0  0  0  0  0  0  0  0  0
   38.4120   31.0070   41.8370 H   0  0  0  0  0  0  0  0  0  0  0  0
   36.7400   31.0110   41.2500 H   0  0  0  0  0  0  0  0  0  0  0  0
   38.1000   28.4250   42.1120 C   0  0  0  0  0  0  0  0  0  0  0  0
   38.4140   29.0610   43.1330 O   0  0  0  0  0  0  0  0  0  0  0  0
   37.7570   29.1690   40.9820 N   0  0  0  0  0  0  0  0  0  0  0  0
   37.4910   28.6890   40.0980 H   0  0  0  0  0  0  0  0  0  0  0  0
   38.1100   26.9670   42.1620 C   0  0  0  0  0  0  0  0  0  0  0  0
   39.3380   26.3440   42.1760 C   0  0  0  0  0  0  0  0  0  0  0  0
   40.2720   26.9020   42.1520 H   0  0  0  0  0  0  0  0  0  0  0  0
   39.4590   24.9510   42.2220 C   0  0  0  0  0  3  0  0  0  0  0  0
   38.2550   24.2780   42.2510 C   0  0  0  0  0  0  0  0  0  0  0  0
   38.3290   23.1850   42.2890 H   0  0  0  0  0  0  0  0  0  0  0  0
   36.9930   24.8340   42.2390 C   0  0  0  0  0  0  0  0  0  0  0  0
   36.1200   24.1960   42.2650 H   0  0  0  0  0  0  0  0  0  0  0  0
   36.9570   26.2120   42.1930 C   0  0  0  0  0  3  0  0  0  0  0  0
  1  7  1  0  0  0  0
  2  1  1  0  0  0  0
  2  8  1  0  0  0  0
  3  2  2  0  0  0  0
  4  5  2  0  0  0  0
  4  3  1  0  0  0  0
  5  6  1  0  0  0  0
  6  1  2  0  0  0  0
  9  3  1  0  0  0  0
  9 10  1  0  0  0  0
 10 17  1  0  0  0  0
 11 10  2  0  0  0  0
 11 18  1  0  0  0  0
 12 11  1  0  0  0  0
 13 12  2  0  0  0  0
 14 15  1  0  0  0  0
 14 12  1  0  0  0  0
 15  9  1  0  0  0  0
 16 15  2  0  0  0  0
 19 14  1  0  0  0  0
 20  5  1  0  0  0  0
 20 23  1  0  0  0  0
 21 20  1  0  0  0  0
 22 20  1  0  0  0  0
 23 25  1  0  0  0  0
 23 24  1  0  0  0  0
 26 30  1  0  0  0  0
 26 27  2  0  0  0  0
 28 23  1  0  0  0  0
 28 26  1  0  0  0  0
 29 28  1  0  0  0  0
 30 31  2  0  0  0  0
 30 38  1  0  0  0  0
 31 33  1  0  0  0  0
 32 31  1  0  0  0  0
 33 34  2  0  0  0  0
 34 35  1  0  0  0  0
 36 34  1  0  0  0  0
 36 37  1  0  0  0  0
 38 36  2  0  0  0  0
M  END
>  <minimizedAffinity>
-5.87654305

$$$$

 OpenBabel03242521193D

 38 40  0  0  0  0  0  0  0  0999 V2000
   35.3370   29.3340   40.4920 C   0  0  0  0  0  0  0  0  0  0  0  0
   35.3310   28.9180   39.1440 C   0  0  0  0  0  0  0  0  0  0  0  0
   36.0290   29.7030   38.2310 C   0  0  0  0  0  0  0  0  0  0  0  0
   36.6770   30.8250   38.6880 N   0  0  0  0  0  0  0  0  0  0  0  0
   36.6540   31.1800   39.9770 C   0  0  0  0  0  0  0  0  0  0  0  0
   35.9820   30.4390   40.9020 N   0  0  0  0  0  0  0  0  0  0  0  0
   34.8040   28.7350   41.1950 H   0  0  0  0  0  0  0  0  0  0  0  0
   34.8130   28.0350   38.8250 H   0  0  0  0  0  0  0  0  0  0  0  0
   36.0350   29.3020   36.8710 N   0  0  0  0  0  0  0  0  0  0  0  0
   34.8400   29.2080   36.2340 C   0  0  0  0  0  0  0  0  0  0  0  0
   34.8340   28.8150   34.8960 C   0  0  0  0  0  0  0  0  0  0  0  0
   36.0210   28.5450   34.2930 C   0  0  0  0  0  0  0  0  0  0  0  0
   36.0000   28.1890   33.0770 O   0  0  0  0  0  0  0  0  0  0  0  0
   37.2160   28.6350   34.9150 N   0  0  0  0  0  0  0  0  0  0  0  0
   37.1690   29.0220   36.2150 C   0  0  0  0  0  0  0  0  0  0  0  0
   38.2100   29.1370   36.8830 O   0  0  0  0  0  0  0  0  0  0  0  0
   33.9070   29.4280   36.7380 H   0  0  0  0  0  0  0  0  0  0  0  0
   33.8860   28.7400   34.3890 H   0  0  0  0  0  0  0  0  0  0  0  0
   38.1000   28.4250   34.4320 H   0  0  0  0  0  0  0  0  0  0  0  0
   37.4280   32.4250   40.2070 C   0  0  0  0  0  0  0  0  0  0  0  0
   37.4500   33.0930   39.3120 H   0  0  0  0  0  0  0  0  0  0  0  0
   36.8570   33.0070   40.9800 H   0  0  0  0  0  0  0  0  0  0  0  0
   38.8170   32.1180   40.7110 C   0  0  0  0  0  0  0  0  0  0  0  0
   39.5420   32.3800   39.9380 H   0  0  0  0  0  0  0  0  0  0  0  0
   39.0240   32.8080   41.5780 H   0  0  0  0  0  0  0  0  0  0  0  0
   39.5470   30.4060   42.3030 C   0  0  0  0  0  0  0  0  0  0  0  0
   40.0730   31.3380   42.9370 O   0  0  0  0  0  0  0  0  0  0  0  0
   38.8770   30.7410   41.1250 N   0  0  0  0  0  0  0  0  0  0  0  0
   38.4230   30.0010   40.5510 H   0  0  0  0  0  0  0  0  0  0  0  0
   39.6630   29.0480   42.8230 C   0  0  0  0  0  0  0  0  0  0  0  0
   38.4980   28.4070   43.1810 C   0  0  0  0  0  0  0  0  0  0  0  0
   37.5220   28.8800   43.0850 H   0  0  0  0  0  0  0  0  0  0  0  0
   38.4980   27.1050   43.6910 C   0  0  0  0  0  3  0  0  0  0  0  0
   39.7510   26.5380   43.7970 C   0  0  0  0  0  0  0  0  0  0  0  0
   39.7720   25.5160   44.1950 H   0  0  0  0  0  0  0  0  0  0  0  0
   40.9550   27.1180   43.4600 C   0  0  0  0  0  0  0  0  0  0  0  0
   41.8780   26.5680   43.5910 H   0  0  0  0  0  0  0  0  0  0  0  0
   40.8720   28.4020   42.9650 C   0  0  0  0  0  3  0  0  0  0  0  0
  1  6  1  0  0  0  0
  1  7  1  0  0  0  0
  2  1  2  0  0  0  0
  3  4  2  0  0  0  0
  3  2  1  0  0  0  0
  4  5  1  0  0  0  0
  5 20  1  0  0  0  0
  5  6  2  0  0  0  0
  8  2  1  0  0  0  0
  9  3  1  0  0  0  0
 10 17  1  0  0  0  0
 10  9  1  0  0  0  0
 11 10  2  0  0  0  0
 12 11  1  0  0  0  0
 12 14  1  0  0  0  0
 13 12  2  0  0  0  0
 14 15  1  0  0  0  0
 15  9  1  0  0  0  0
 15 16  2  0  0  0  0
 18 11  1  0  0  0  0
 19 14  1  0  0  0  0
 20 23  1  0  0  0  0
 20 22  1  0  0  0  0
 21 20  1  0  0  0  0
 23 28  1  0  0  0  0
 23 25  1  0  0  0  0
 24 23  1  0  0  0  0
 26 30  1  0  0  0  0
 26 27  2  0  0  0  0
 28 26  1  0  0  0  0
 29 28  1  0  0  0  0
 30 38  2  0  0  0  0
 30 31  1  0  0  0  0
 31 33  2  0  0  0  0
 32 31  1  0  0  0  0
 33 34  1  0  0  0  0
 34 35  1  0  0  0  0
 36 37  1  0  0  0  0
 36 34  2  0  0  0  0
 38 36  1  0  0  0  0
M  END
>  <minimizedAffinity>
-5.82292509

$$$$

 OpenBabel03242521193D

 38 40  0  0  0  0  0  0  0  0999 V2000
   37.5070   33.1640   40.2900 C   0  0  0  0  0  0  0  0  0  0  0  0
   38.7950   33.5360   40.7290 C   0  0  0  0  0  0  0  0  0  0  0  0
   39.8790   33.0830   39.9840 C   0  0  0  0  0  0  0  0  0  0  0  0
   39.6380   32.3090   38.8750 N   0  0  0  0  0  0  0  0  0  0  0  0
   38.3970   31.9810   38.4970 C   0  0  0  0  0  0  0  0  0  0  0  0
   37.3100   32.4040   39.2000 N   0  0  0  0  0  0  0  0  0  0  0  0
   36.6740   33.5100   40.8590 H   0  0  0  0  0  0  0  0  0  0  0  0
   38.9440   34.1430   41.6010 H   0  0  0  0  0  0  0  0  0  0  0  0
   41.1820   33.4470   40.4090 N   0  0  0  0  0  0  0  0  0  0  0  0
   41.8560   32.5730   41.2000 C   0  0  0  0  0  0  0  0  0  0  0  0
   43.1380   32.9200   41.6240 C   0  0  0  0  0  0  0  0  0  0  0  0
   43.6540   34.1130   41.2260 C   0  0  0  0  0  0  0  0  0  0  0  0
   44.8190   34.4140   41.6190 O   0  0  0  0  0  0  0  0  0  0  0  0
   42.9940   34.9900   40.4390 N   0  0  0  0  0  0  0  0  0  0  0  0
   41.7510   34.6070   40.0530 C   0  0  0  0  0  0  0  0  0  0  0  0
   41.0560   35.3380   39.3290 O   0  0  0  0  0  0  0  0  0  0  0  0
   41.4220   31.6290   41.5030 H   0  0  0  0  0  0  0  0  0  0  0  0
   43.6740   32.2270   42.2520 H   0  0  0  0  0  0  0  0  0  0  0  0
   43.4100   35.8860   40.1540 H   0  0  0  0  0  0  0  0  0  0  0  0
   38.4120   31.1420   37.2730 C   0  0  0  0  0  0  0  0  0  0  0  0
   37.7190   31.5180   36.4820 H   0  0  0  0  0  0  0  0  0  0  0  0
   39.4380   31.2600   36.8290 H   0  0  0  0  0  0  0  0  0  0  0  0
   38.1530   29.6920   37.6030 C   0  0  0  0  0  0  0  0  0  0  0  0
   37.1780   29.4060   37.2050 H   0  0  0  0  0  0  0  0  0  0  0  0
   38.9110   29.0750   37.0410 H   0  0  0  0  0  0  0  0  0  0  0  0
   37.2630   28.8620   39.7280 C   0  0  0  0  0  0  0  0  0  0  0  0
   36.2700   28.4960   39.0750 O   0  0  0  0  0  0  0  0  0  0  0  0
   38.2850   29.4980   39.0220 N   0  0  0  0  0  0  0  0  0  0  0  0
   39.1380   29.8300   39.5190 H   0  0  0  0  0  0  0  0  0  0  0  0
   37.2940   28.6050   41.1630 C   0  0  0  0  0  0  0  0  0  0  0  0
   38.0880   29.4240   41.9360 C   0  0  0  0  0  0  0  0  0  0  0  0
   38.6740   30.2350   41.5060 H   0  0  0  0  0  0  0  0  0  0  0  0
   38.1890   29.2630   43.3210 C   0  0  0  0  0  3  0  0  0  0  0  0
   37.4330   28.2270   43.8280 C   0  0  0  0  0  0  0  0  0  0  0  0
   37.4980   28.0850   44.9130 H   0  0  0  0  0  0  0  0  0  0  0  0
   36.6190   27.3700   43.1180 C   0  0  0  0  0  0  0  0  0  0  0  0
   36.0720   26.5900   43.6330 H   0  0  0  0  0  0  0  0  0  0  0  0
   36.5720   27.5920   41.7580 C   0  0  0  0  0  3  0  0  0  0  0  0
  1  2  1  0  0  0  0
  1  7  1  0  0  0  0
  2  8  1  0  0  0  0
  3  9  1  0  0  0  0
  3  2  2  0  0  0  0
  4  3  1  0  0  0  0
  5  4  2  0  0  0  0
  5  6  1  0  0  0  0
  6  1  2  0  0  0  0
  9 10  1  0  0  0  0
 10 17  1  0  0  0  0
 10 11  2  0  0  0  0
 11 18  1  0  0  0  0
 12 13  2  0  0  0  0
 12 11  1  0  0  0  0
 14 12  1  0  0  0  0
 15  9  1  0  0  0  0
 15 14  1  0  0  0  0
 16 15  2  0  0  0  0
 19 14  1  0  0  0  0
 20 23  1  0  0  0  0
 20  5  1  0  0  0  0
 21 20  1  0  0  0  0
 22 20  1  0  0  0  0
 23 28  1  0  0  0  0
 24 23  1  0  0  0  0
 25 23  1  0  0  0  0
 26 30  1  0  0  0  0
 27 26  2  0  0  0  0
 28 29  1  0  0  0  0
 28 26  1  0  0  0  0
 30 38  2  0  0  0  0
 30 31  1  0  0  0  0
 31 33  2  0  0  0  0
 32 31  1  0  0  0  0
 33 34  1  0  0  0  0
 34 35  1  0  0  0  0
 36 37  1  0  0  0  0
 36 34  2  0  0  0  0
 38 36  1  0  0  0  0
M  END
>  <minimizedAffinity>
-5.79240704

$$$$
