
 OpenBabel03252506213D

 35 37  0  0  0  0  0  0  0  0999 V2000
   44.7200   35.1350   42.1470 C   0  0  0  0  0  0  0  0  0  0  0  0
   43.6350   35.2080   41.2620 C   0  0  0  0  0  0  0  0  0  0  0  0
   43.6780   34.4130   40.1090 C   0  0  0  0  0  0  0  0  0  0  0  0
   44.7580   33.6170   39.9100 N   0  0  0  0  0  0  0  0  0  0  0  0
   45.7760   33.5770   40.7850 C   0  0  0  0  0  0  0  0  0  0  0  0
   45.7640   34.3300   41.9010 N   0  0  0  0  0  0  0  0  0  0  0  0
   42.7940   35.8480   41.4460 H   0  0  0  0  0  0  0  0  0  0  0  0
   42.8710   34.4240   39.3870 H   0  0  0  0  0  0  0  0  0  0  0  0
   48.3600   34.9790   40.0470 Cl  0  0  0  0  0  0  0  0  0  0  0  0
   48.1300   33.2620   40.1430 C   0  0  0  0  0  0  0  0  0  0  0  0
   46.9160   32.6800   40.4880 C   0  0  0  0  0  0  0  0  0  0  0  0
   46.7150   31.3320   40.5680 C   0  0  0  0  0  0  0  0  0  0  0  0
   47.7810   30.5240   40.2910 C   0  0  0  0  0  0  0  0  0  0  0  0
   49.0290   30.9880   39.9380 C   0  0  0  0  0  0  0  0  0  0  0  0
   49.1460   32.3640   39.8800 C   0  0  0  0  0  0  0  0  0  0  0  0
   45.7630   30.9440   40.8380 H   0  0  0  0  0  0  0  0  0  0  0  0
   47.6470   29.4450   40.3480 H   0  0  0  0  0  0  0  0  0  0  0  0
   49.8870   30.3570   39.7150 H   0  0  0  0  0  0  0  0  0  0  0  0
   50.1110   32.7940   39.6070 H   0  0  0  0  0  0  0  0  0  0  0  0
   44.6800   35.9660   43.3540 C   0  0  0  0  0  3  0  0  0  0  0  0
   45.1820   37.1670   43.3010 C   0  0  0  0  0  3  0  0  0  0  0  0
   45.1690   38.0540   44.4970 C   0  0  0  0  0  0  0  0  0  0  0  0
   46.1510   37.9140   45.0280 H   0  0  0  0  0  0  0  0  0  0  0  0
   44.3400   37.8120   45.1880 H   0  0  0  0  0  0  0  0  0  0  0  0
   45.1650   39.4250   44.0480 N   0  0  0  0  0  0  0  0  0  0  0  0
   45.3700   39.6950   43.0600 H   0  0  0  0  0  0  0  0  0  0  0  0
   44.8720   40.4610   44.9780 C   0  0  0  0  0  0  0  0  0  0  0  0
   44.9310   40.2540   46.3380 C   0  0  0  0  0  0  0  0  0  0  0  0
   45.2020   39.2890   46.7520 H   0  0  0  0  0  0  0  0  0  0  0  0
   44.6530   41.2360   47.2780 C   0  0  0  0  0  3  0  0  0  0  0  0
   44.2990   42.4920   46.8280 C   0  0  0  0  0  0  0  0  0  0  0  0
   44.0790   43.2680   47.5570 H   0  0  0  0  0  0  0  0  0  0  0  0
   44.2390   42.7060   45.4720 C   0  0  0  0  0  0  0  0  0  0  0  0
   43.9550   43.7140   45.1340 H   0  0  0  0  0  0  0  0  0  0  0  0
   44.5160   41.7270   44.5630 C   0  0  0  0  0  3  0  0  0  0  0  0
  1 20  1  0  0  0  0
  2  7  1  0  0  0  0
  2  1  2  0  0  0  0
  3  2  1  0  0  0  0
  4  3  2  0  0  0  0
  4  5  1  0  0  0  0
  5  6  2  0  0  0  0
  6  1  1  0  0  0  0
  8  3  1  0  0  0  0
  9 10  1  0  0  0  0
 10 11  1  0  0  0  0
 11 12  2  0  0  0  0
 11  5  1  0  0  0  0
 12 16  1  0  0  0  0
 13 17  1  0  0  0  0
 13 12  1  0  0  0  0
 14 13  2  0  0  0  0
 15 14  1  0  0  0  0
 15 10  2  0  0  0  0
 18 14  1  0  0  0  0
 19 15  1  0  0  0  0
 21 20  2  0  0  0  0
 21 22  1  0  0  0  0
 22 23  1  0  0  0  0
 22 24  1  0  0  0  0
 25 22  1  0  0  0  0
 25 27  1  0  0  0  0
 26 25  1  0  0  0  0
 27 28  1  0  0  0  0
 28 29  1  0  0  0  0
 28 30  2  0  0  0  0
 31 30  1  0  0  0  0
 31 32  1  0  0  0  0
 33 31  2  0  0  0  0
 34 33  1  0  0  0  0
 35 27  2  0  0  0  0
 35 33  1  0  0  0  0
M  END
>  <minimizedAffinity>
-3.70016384

>  <minimizedRMSD>
1.69654441

$$$$
