REMARK  Name = 
REMARK  5 active torsions:
REMARK  status: ('A' for Active; 'I' for Inactive)
REMARK    1  A    between atoms: C_1  and  C_14
REMARK    2  A    between atoms: C_5  and  C_9
REMARK    3  A    between atoms: C_15  and  C_16
REMARK    4  A    between atoms: C_16  and  N_17
REMARK    5  A    between atoms: N_17  and  C_29
REMARK                            x       y       z     vdW  Elec       q    Type
REMARK                         _______ _______ _______ _____ _____    ______ ____
ROOT
ATOM      1  C   UNL     1      45.139  36.006  43.063  0.00  0.00    +0.000 A 
ATOM      2  C   UNL     1      44.149  35.805  42.091  0.00  0.00    +0.000 A 
ATOM      3  C   UNL     1      44.376  34.819  41.122  0.00  0.00    +0.000 A 
ATOM      4  N   UNL     1      45.533  34.113  41.173  0.00  0.00    +0.000 NA
ATOM      5  C   UNL     1      46.455  34.338  42.123  0.00  0.00    +0.000 A 
ATOM      6  N   UNL     1      46.266  35.279  43.068  0.00  0.00    +0.000 NA
ATOM      7  H   UNL     1      43.243  36.380  42.076  0.00  0.00    +0.000 HD
ATOM      8  H   UNL     1      43.650  34.616  40.345  0.00  0.00    +0.000 HD
ENDROOT
BRANCH   5  11
ATOM      9 CL   UNL     1      48.956  35.805  41.239  0.00  0.00    +0.000 Cl
ATOM     10  C   UNL     1      48.872  34.136  41.707  0.00  0.00    +0.000 A 
ATOM     11  C   UNL     1      47.690  33.521  42.104  0.00  0.00    +0.000 A 
ATOM     12  C   UNL     1      47.603  32.211  42.475  0.00  0.00    +0.000 A 
ATOM     13  C   UNL     1      48.755  31.477  42.450  0.00  0.00    +0.000 A 
ATOM     14  C   UNL     1      49.981  31.979  42.075  0.00  0.00    +0.000 A 
ATOM     15  C   UNL     1      49.981  33.313  41.714  0.00  0.00    +0.000 A 
ATOM     16  H   UNL     1      46.671  31.794  42.770  0.00  0.00    +0.000 HD
ATOM     17  H   UNL     1      48.713  30.429  42.742  0.00  0.00    +0.000 HD
ATOM     18  H   UNL     1      50.907  31.407  42.050  0.00  0.00    +0.000 HD
ATOM     19  H   UNL     1      50.923  33.771  41.407  0.00  0.00    +0.000 HD
ENDBRANCH   5  11
BRANCH   1  20
ATOM     20  C   UNL     1      44.907  37.037  44.079  0.00  0.00    +0.000 C 
ATOM     21  C   UNL     1      45.466  38.204  43.923  0.00  0.00    +0.000 C 
BRANCH  21  22
ATOM     22  C   UNL     1      45.264  39.288  44.924  0.00  0.00    +0.000 C 
ATOM     23  H   UNL     1      46.280  39.579  45.311  0.00  0.00    +0.000 HD
ATOM     24  H   UNL     1      44.628  38.964  45.769  0.00  0.00    +0.000 HD
BRANCH  22  25
ATOM     25  N   UNL     1      44.764  40.454  44.238  0.00  0.00    +0.000 N 
ATOM     26  H   UNL     1      44.593  40.472  43.208  0.00  0.00    +0.000 HD
BRANCH  25  27
ATOM     27  C   UNL     1      44.489  41.635  44.982  0.00  0.00    +0.000 A 
ATOM     28  C   UNL     1      44.391  41.620  46.356  0.00  0.00    +0.000 A 
ATOM     29  H   UNL     1      44.521  40.705  46.922  0.00  0.00    +0.000 HD
ATOM     30  C   UNL     1      44.125  42.748  47.119  0.00  0.00    +0.000 A 
ATOM     31  C   UNL     1      43.947  43.952  46.469  0.00  0.00    +0.000 A 
ATOM     32  H   UNL     1      43.738  44.841  47.058  0.00  0.00    +0.000 HD
ATOM     33  C   UNL     1      44.043  43.975  45.099  0.00  0.00    +0.000 A 
ATOM     34  H   UNL     1      43.899  44.944  44.599  0.00  0.00    +0.000 HD
ATOM     35  C   UNL     1      44.306  42.855  44.365  0.00  0.00    +0.000 A 
ENDBRANCH  25  27
ENDBRANCH  22  25
ENDBRANCH  21  22
ENDBRANCH   1  20
TORSDOF 5
