
 OpenBabel03252506213D

 35 37  0  0  0  0  0  0  0  0999 V2000
   44.8190   35.0020   42.1630 C   0  0  0  0  0  0  0  0  0  0  0  0
   43.7610   35.0730   41.2460 C   0  0  0  0  0  0  0  0  0  0  0  0
   43.8490   34.2910   40.0860 C   0  0  0  0  0  0  0  0  0  0  0  0
   44.9430   33.5100   39.9110 N   0  0  0  0  0  0  0  0  0  0  0  0
   45.9340   33.4720   40.8160 C   0  0  0  0  0  0  0  0  0  0  0  0
   45.8800   34.2120   41.9410 N   0  0  0  0  0  0  0  0  0  0  0  0
   42.9070   35.7010   41.4110 H   0  0  0  0  0  0  0  0  0  0  0  0
   43.0640   34.3020   39.3400 H   0  0  0  0  0  0  0  0  0  0  0  0
   48.3380   34.8490   39.5860 Cl  0  0  0  0  0  0  0  0  0  0  0  0
   48.2280   33.1620   39.9800 C   0  0  0  0  0  0  0  0  0  0  0  0
   47.0940   32.5910   40.5450 C   0  0  0  0  0  0  0  0  0  0  0  0
   46.9870   31.2680   40.8620 C   0  0  0  0  0  0  0  0  0  0  0  0
   48.0690   30.4750   40.6030 C   0  0  0  0  0  0  0  0  0  0  0  0
   49.2430   30.9300   40.0470 C   0  0  0  0  0  0  0  0  0  0  0  0
   49.2670   32.2810   39.7560 C   0  0  0  0  0  0  0  0  0  0  0  0
   46.0940   30.8860   41.2920 H   0  0  0  0  0  0  0  0  0  0  0  0
   48.0100   29.4150   40.8470 H   0  0  0  0  0  0  0  0  0  0  0  0
   50.1130   30.3110   39.8350 H   0  0  0  0  0  0  0  0  0  0  0  0
   50.1710   32.7040   39.3140 H   0  0  0  0  0  0  0  0  0  0  0  0
   44.7330   35.8180   43.3770 C   0  0  0  0  0  3  0  0  0  0  0  0
   45.1780   37.0430   43.3390 C   0  0  0  0  0  3  0  0  0  0  0  0
   45.1150   37.9170   44.5430 C   0  0  0  0  0  0  0  0  0  0  0  0
   46.0020   37.6620   45.1870 H   0  0  0  0  0  0  0  0  0  0  0  0
   44.1850   37.7660   45.1220 H   0  0  0  0  0  0  0  0  0  0  0  0
   45.3220   39.2820   44.1260 N   0  0  0  0  0  0  0  0  0  0  0  0
   45.7250   39.5330   43.1960 H   0  0  0  0  0  0  0  0  0  0  0  0
   44.9660   40.3400   45.0070 C   0  0  0  0  0  0  0  0  0  0  0  0
   44.5880   41.5800   44.5390 C   0  0  0  0  0  0  0  0  0  0  0  0
   44.5500   41.7950   43.4770 H   0  0  0  0  0  0  0  0  0  0  0  0
   44.2350   42.6370   45.3620 C   0  0  0  0  0  3  0  0  0  0  0  0
   44.2600   42.4410   46.7290 C   0  0  0  0  0  0  0  0  0  0  0  0
   43.9830   43.2640   47.3830 H   0  0  0  0  0  0  0  0  0  0  0  0
   44.6350   41.2080   47.2040 C   0  0  0  0  0  0  0  0  0  0  0  0
   44.6480   41.0720   48.2950 H   0  0  0  0  0  0  0  0  0  0  0  0
   44.9800   40.1790   46.3770 C   0  0  0  0  0  3  0  0  0  0  0  0
  1 20  1  0  0  0  0
  2  7  1  0  0  0  0
  2  1  2  0  0  0  0
  3  2  1  0  0  0  0
  4  3  2  0  0  0  0
  4  5  1  0  0  0  0
  5  6  2  0  0  0  0
  6  1  1  0  0  0  0
  8  3  1  0  0  0  0
  9 10  1  0  0  0  0
 10 11  1  0  0  0  0
 11  5  1  0  0  0  0
 11 12  2  0  0  0  0
 12 16  1  0  0  0  0
 13 17  1  0  0  0  0
 13 12  1  0  0  0  0
 14 13  2  0  0  0  0
 15 10  2  0  0  0  0
 15 14  1  0  0  0  0
 18 14  1  0  0  0  0
 19 15  1  0  0  0  0
 21 20  2  0  0  0  0
 21 22  1  0  0  0  0
 22 24  1  0  0  0  0
 22 23  1  0  0  0  0
 25 22  1  0  0  0  0
 25 27  1  0  0  0  0
 26 25  1  0  0  0  0
 27 35  1  0  0  0  0
 28 27  2  0  0  0  0
 28 30  1  0  0  0  0
 29 28  1  0  0  0  0
 30 31  2  0  0  0  0
 31 33  1  0  0  0  0
 31 32  1  0  0  0  0
 33 34  1  0  0  0  0
 35 33  2  0  0  0  0
M  END
>  <minimizedAffinity>
-3.73098278

>  <minimizedRMSD>
1.68608308

$$$$
