
 OpenBabel03242520453D

 22 23  0  0  0  0  0  0  0  0999 V2000
   44.9330   35.1460   44.0490 C   0  0  0  0  0  0  0  0  0  0  0  0
   45.7740   35.4610   42.9590 C   0  0  0  0  0  0  0  0  0  0  0  0
   46.9710   34.7180   42.8440 C   0  0  0  0  0  0  0  0  0  0  0  0
   47.2550   33.7600   43.7580 N   0  0  0  0  0  0  0  0  0  0  0  0
   46.4070   33.4990   44.7880 C   0  0  0  0  0  0  0  0  0  0  0  0
   45.2600   34.1920   44.9210 N   0  0  0  0  0  0  0  0  0  0  0  0
   43.7280   35.8610   44.2040 N   0  0  0  0  0  0  0  0  0  0  0  0
   45.5100   36.2310   42.2540 H   0  0  0  0  0  0  0  0  0  0  0  0
   46.7660   32.7110   45.4340 H   0  0  0  0  0  0  0  0  0  0  0  0
   43.3010   36.1960   45.1190 H   0  0  0  0  0  0  0  0  0  0  0  0
   43.1350   36.1260   43.3740 H   0  0  0  0  0  0  0  0  0  0  0  0
   47.7870   35.0810   41.7110 C   0  0  0  0  0  0  0  0  0  0  0  0
   48.7440   35.8830   41.7420 O   0  0  0  0  0  0  0  0  0  0  0  0
   47.3900   34.4110   40.4790 C   0  0  0  0  0  0  0  0  0  0  0  0
   48.2860   34.6010   39.4300 C   0  0  0  0  0  0  0  0  0  0  0  0
   49.1950   35.1890   39.5110 H   0  0  0  0  0  0  0  0  0  0  0  0
   47.9830   33.9960   38.2110 C   0  0  0  0  0  0  0  0  0  0  0  0
   46.8250   33.2290   38.0540 C   0  0  0  0  0  0  0  0  0  0  0  0
   46.6080   32.7700   37.1040 H   0  0  0  0  0  0  0  0  0  0  0  0
   45.9520   33.0570   39.1140 C   0  0  0  0  0  0  0  0  0  0  0  0
   45.0300   32.4640   39.0390 H   0  0  0  0  0  0  0  0  0  0  0  0
   46.2450   33.6560   40.3340 C   0  0  0  0  0  0  0  0  0  0  0  0
  1  7  1  0  0  0  0
  1  6  1  0  0  0  0
  2  1  2  0  0  0  0
  3  2  1  0  0  0  0
  3  4  2  0  0  0  0
  4  5  1  0  0  0  0
  5  6  2  0  0  0  0
  5  9  1  0  0  0  0
  7 10  1  0  0  0  0
  8  2  1  0  0  0  0
 11  7  1  0  0  0  0
 12 13  2  0  0  0  0
 12  3  1  0  0  0  0
 14 12  1  0  0  0  0
 15 16  1  0  0  0  0
 15 14  2  0  0  0  0
 17 15  1  0  0  0  0
 18 17  2  0  0  0  0
 18 20  1  0  0  0  0
 19 18  1  0  0  0  0
 20 22  2  0  0  0  0
 21 20  1  0  0  0  0
 22 14  1  0  0  0  0
M  END
>  <minimizedAffinity>
-5.25274229

>  <minimizedRMSD>
0.493642986

$$$$
