
 OpenBabel03252506223D

 35 37  0  0  0  0  0  0  0  0999 V2000
   44.6530   35.0100   41.9620 C   0  0  0  0  0  0  0  0  0  0  0  0
   43.5530   35.0740   41.0960 C   0  0  0  0  0  0  0  0  0  0  0  0
   43.6040   34.3180   39.9180 C   0  0  0  0  0  0  0  0  0  0  0  0
   44.7070   33.5670   39.6770 N   0  0  0  0  0  0  0  0  0  0  0  0
   45.7400   33.5340   40.5350 C   0  0  0  0  0  0  0  0  0  0  0  0
   45.7200   34.2500   41.6750 N   0  0  0  0  0  0  0  0  0  0  0  0
   42.6930   35.6790   41.3140 H   0  0  0  0  0  0  0  0  0  0  0  0
   42.7860   34.3250   39.2090 H   0  0  0  0  0  0  0  0  0  0  0  0
   48.3450   35.0290   40.1280 Cl  0  0  0  0  0  0  0  0  0  0  0  0
   48.1300   33.3130   39.9930 C   0  0  0  0  0  0  0  0  0  0  0  0
   46.9050   32.6860   40.1920 C   0  0  0  0  0  0  0  0  0  0  0  0
   46.7150   31.3390   40.0900 C   0  0  0  0  0  0  0  0  0  0  0  0
   47.8040   30.5770   39.7740 C   0  0  0  0  0  0  0  0  0  0  0  0
   49.0640   31.0870   39.5540 C   0  0  0  0  0  0  0  0  0  0  0  0
   49.1690   32.4600   39.6770 C   0  0  0  0  0  0  0  0  0  0  0  0
   45.7540   30.9150   40.2540 H   0  0  0  0  0  0  0  0  0  0  0  0
   47.6800   29.4990   39.6860 H   0  0  0  0  0  0  0  0  0  0  0  0
   49.9410   30.4930   39.3010 H   0  0  0  0  0  0  0  0  0  0  0  0
   50.1430   32.9260   39.5150 H   0  0  0  0  0  0  0  0  0  0  0  0
   44.6050   35.8000   43.1960 C   0  0  0  0  0  3  0  0  0  0  0  0
   45.1460   36.9860   43.2000 C   0  0  0  0  0  3  0  0  0  0  0  0
   45.1260   37.8310   44.4260 C   0  0  0  0  0  0  0  0  0  0  0  0
   46.0280   37.5520   45.0390 H   0  0  0  0  0  0  0  0  0  0  0  0
   44.2110   37.6750   45.0270 H   0  0  0  0  0  0  0  0  0  0  0  0
   45.3350   39.2040   44.0360 N   0  0  0  0  0  0  0  0  0  0  0  0
   45.7350   39.4720   43.1090 H   0  0  0  0  0  0  0  0  0  0  0  0
   44.9870   40.2450   44.9410 C   0  0  0  0  0  0  0  0  0  0  0  0
   45.0180   40.0610   46.3050 C   0  0  0  0  0  0  0  0  0  0  0  0
   45.3080   39.1120   46.7420 H   0  0  0  0  0  0  0  0  0  0  0  0
   44.6860   41.0480   47.2210 C   0  0  0  0  0  3  0  0  0  0  0  0
   44.3040   42.2850   46.7420 C   0  0  0  0  0  0  0  0  0  0  0  0
   44.0420   43.0650   47.4530 H   0  0  0  0  0  0  0  0  0  0  0  0
   44.2720   42.4760   45.3820 C   0  0  0  0  0  0  0  0  0  0  0  0
   43.9650   43.4690   45.0210 H   0  0  0  0  0  0  0  0  0  0  0  0
   44.6010   41.4920   44.4970 C   0  0  0  0  0  3  0  0  0  0  0  0
  1 20  1  0  0  0  0
  2  7  1  0  0  0  0
  2  1  2  0  0  0  0
  3  2  1  0  0  0  0
  4  3  2  0  0  0  0
  4  5  1  0  0  0  0
  5  6  2  0  0  0  0
  6  1  1  0  0  0  0
  8  3  1  0  0  0  0
 10  9  1  0  0  0  0
 10 11  1  0  0  0  0
 11  5  1  0  0  0  0
 12 11  2  0  0  0  0
 12 16  1  0  0  0  0
 13 12  1  0  0  0  0
 14 15  1  0  0  0  0
 14 13  2  0  0  0  0
 15 10  2  0  0  0  0
 17 13  1  0  0  0  0
 18 14  1  0  0  0  0
 19 15  1  0  0  0  0
 20 21  2  0  0  0  0
 21 22  1  0  0  0  0
 22 24  1  0  0  0  0
 22 23  1  0  0  0  0
 25 22  1  0  0  0  0
 25 27  1  0  0  0  0
 26 25  1  0  0  0  0
 27 28  1  0  0  0  0
 28 29  1  0  0  0  0
 28 30  2  0  0  0  0
 31 30  1  0  0  0  0
 31 32  1  0  0  0  0
 33 31  2  0  0  0  0
 34 33  1  0  0  0  0
 35 27  2  0  0  0  0
 35 33  1  0  0  0  0
M  END
>  <minimizedAffinity>
-3.81325603

>  <minimizedRMSD>
1.89959908

$$$$
