
 OpenBabel03252508013D

 29 31  0  0  1  0  0  0  0  0999 V2000
   38.8190   29.6670   42.0830 C   0  0  0  0  0  0  0  0  0  0  0  0
   39.8240   30.4480   42.7160 C   0  0  0  0  0  0  0  0  0  0  0  0
   40.3180   31.5440   42.0000 C   0  0  0  0  0  0  0  0  0  0  0  0
   39.8100   31.7870   40.7610 N   0  0  0  0  0  0  0  0  0  0  0  0
   38.8470   31.0010   40.2040 C   0  0  0  0  0  0  0  0  0  0  0  0
   38.3590   29.9640   40.8430 N   0  0  0  0  0  0  0  0  0  0  0  0
   40.2610   30.3090   43.6950 H   0  0  0  0  0  0  0  0  0  0  0  0
   41.0880   32.2170   42.3810 H   0  0  0  0  0  0  0  0  0  0  0  0
   38.3380   31.3570   38.8420 C   0  0  1  0  0  0  0  0  0  0  0  0
   36.8790   31.1000   38.5270 C   0  0  0  0  0  0  0  0  0  0  0  0
   37.3800   32.4810   38.8150 C   0  0  1  0  0  0  0  0  0  0  0  0
   39.0560   31.2720   38.0070 H   0  0  0  0  0  0  0  0  0  0  0  0
   36.3050   30.5300   39.2680 H   0  0  0  0  0  0  0  0  0  0  0  0
   36.6780   30.8740   37.4550 H   0  0  0  0  0  0  0  0  0  0  0  0
   37.3540   33.2140   37.9960 H   0  0  0  0  0  0  0  0  0  0  0  0
   36.8740   33.0310   40.0830 N   0  0  0  0  0  0  0  0  0  0  0  0
   35.8480   32.8250   40.1940 H   0  0  0  0  0  0  0  0  0  0  0  0
   37.0540   34.0500   40.1260 H   0  0  0  0  0  0  0  0  0  0  0  0
   38.3330   28.5800   42.8680 C   0  0  1  0  0  3  0  0  0  0  0  0
   37.3360   28.6690   43.6800 O   0  0  0  0  0  1  0  0  0  0  0  0
   38.8000   27.1750   42.9520 C   0  0  0  0  0  0  0  0  0  0  0  0
   38.0340   26.1720   42.3200 C   0  0  0  0  0  0  0  0  0  0  0  0
   37.1100   26.3820   41.7590 H   0  0  0  0  0  0  0  0  0  0  0  0
   38.4670   24.8430   42.4010 C   0  0  0  0  0  3  0  0  0  0  0  0
   39.6340   24.4690   43.0900 C   0  0  0  0  0  0  0  0  0  0  0  0
   39.8690   23.4080   43.0920 H   0  0  0  0  0  0  0  0  0  0  0  0
   40.3310   25.4670   43.6800 C   0  0  0  0  0  0  0  0  0  0  0  0
   41.2330   25.1770   44.2130 H   0  0  0  0  0  0  0  0  0  0  0  0
   39.9380   26.7610   43.6180 C   0  0  0  0  0  3  0  0  0  0  0  0
  1  2  1  0  0  0  0
  1 19  1  0  0  0  0
  2  7  1  0  0  0  0
  3  8  1  0  0  0  0
  3  2  2  0  0  0  0
  4  3  1  0  0  0  0
  5  4  2  0  0  0  0
  5  6  1  0  0  0  0
  6  1  2  0  0  0  0
  9 12  1  6  0  0  0
  9  5  1  0  0  0  0
 10 11  1  0  0  0  0
 10  9  1  0  0  0  0
 10 13  1  0  0  0  0
 11 15  1  6  0  0  0
 11  9  1  0  0  0  0
 11 16  1  0  0  0  0
 14 10  1  0  0  0  0
 16 18  1  0  0  0  0
 16 17  1  0  0  0  0
 19 21  1  0  0  0  0
 19 20  1  6  0  0  0
 21 29  1  0  0  0  0
 22 24  1  0  0  0  0
 22 21  2  0  0  0  0
 23 22  1  0  0  0  0
 24 25  2  0  0  0  0
 25 26  1  0  0  0  0
 25 27  1  0  0  0  0
 27 28  1  0  0  0  0
 29 27  2  0  0  0  0
M  END
>  <minimizedAffinity>
-5.43098354

$$$$

 OpenBabel03252508013D

 29 31  0  0  1  0  0  0  0  0999 V2000
   37.0840   28.8510   41.3110 C   0  0  0  0  0  0  0  0  0  0  0  0
   35.7670   28.4890   40.9140 C   0  0  0  0  0  0  0  0  0  0  0  0
   35.2720   29.0840   39.7480 C   0  0  0  0  0  0  0  0  0  0  0  0
   36.0730   29.9570   39.0790 N   0  0  0  0  0  0  0  0  0  0  0  0
   37.3280   30.2670   39.5090 C   0  0  0  0  0  0  0  0  0  0  0  0
   37.8280   29.7310   40.5980 N   0  0  0  0  0  0  0  0  0  0  0  0
   35.0880   27.8010   41.3990 H   0  0  0  0  0  0  0  0  0  0  0  0
   34.2780   28.8850   39.3440 H   0  0  0  0  0  0  0  0  0  0  0  0
   38.1410   31.2260   38.6970 C   0  0  1  0  0  0  0  0  0  0  0  0
   37.4170   32.2420   37.8380 C   0  0  0  0  0  0  0  0  0  0  0  0
   38.0540   32.6340   39.1350 C   0  0  1  0  0  0  0  0  0  0  0  0
   39.1170   30.8610   38.3300 H   0  0  0  0  0  0  0  0  0  0  0  0
   36.3300   32.1240   37.7440 H   0  0  0  0  0  0  0  0  0  0  0  0
   37.9720   32.5380   36.9190 H   0  0  0  0  0  0  0  0  0  0  0  0
   38.9130   33.3190   39.0930 H   0  0  0  0  0  0  0  0  0  0  0  0
   37.0790   33.0100   40.1720 N   0  0  0  0  0  0  0  0  0  0  0  0
   36.3230   33.6200   39.7670 H   0  0  0  0  0  0  0  0  0  0  0  0
   37.5600   33.4870   40.9560 H   0  0  0  0  0  0  0  0  0  0  0  0
   37.5480   28.1950   42.4890 C   0  0  1  0  0  3  0  0  0  0  0  0
   37.4250   28.6800   43.6770 O   0  0  0  0  0  1  0  0  0  0  0  0
   38.2320   26.8890   42.6520 C   0  0  0  0  0  0  0  0  0  0  0  0
   39.3380   26.8140   43.5250 C   0  0  0  0  0  0  0  0  0  0  0  0
   39.7130   27.6740   44.1000 H   0  0  0  0  0  0  0  0  0  0  0  0
   39.9920   25.5850   43.6780 C   0  0  0  0  0  3  0  0  0  0  0  0
   39.5910   24.4240   42.9930 C   0  0  0  0  0  0  0  0  0  0  0  0
   40.1760   23.5300   43.1840 H   0  0  0  0  0  0  0  0  0  0  0  0
   38.5270   24.5510   42.1670 C   0  0  0  0  0  0  0  0  0  0  0  0
   38.2170   23.6530   41.6360 H   0  0  0  0  0  0  0  0  0  0  0  0
   37.8740   25.7250   41.9990 C   0  0  0  0  0  3  0  0  0  0  0  0
  1 19  1  0  0  0  0
  2  1  1  0  0  0  0
  2  7  1  0  0  0  0
  3  2  2  0  0  0  0
  4  5  2  0  0  0  0
  4  3  1  0  0  0  0
  5  6  1  0  0  0  0
  6  1  2  0  0  0  0
  8  3  1  0  0  0  0
  9 12  1  6  0  0  0
  9 11  1  0  0  0  0
  9  5  1  0  0  0  0
 10  9  1  0  0  0  0
 10 11  1  0  0  0  0
 11 15  1  6  0  0  0
 11 16  1  0  0  0  0
 13 10  1  0  0  0  0
 14 10  1  0  0  0  0
 16 18  1  0  0  0  0
 17 16  1  0  0  0  0
 19 21  1  0  0  0  0
 19 20  1  1  0  0  0
 21 22  1  0  0  0  0
 22 24  2  0  0  0  0
 22 23  1  0  0  0  0
 25 26  1  0  0  0  0
 25 24  1  0  0  0  0
 27 25  2  0  0  0  0
 28 27  1  0  0  0  0
 29 27  1  0  0  0  0
 29 21  2  0  0  0  0
M  END
>  <minimizedAffinity>
-5.40896845

$$$$

 OpenBabel03252508013D

 29 31  0  0  1  0  0  0  0  0999 V2000
   38.4970   29.6070   42.0080 C   0  0  0  0  0  0  0  0  0  0  0  0
   39.7200   29.7460   42.7210 C   0  0  0  0  0  0  0  0  0  0  0  0
   40.5560   30.8020   42.3410 C   0  0  0  0  0  0  0  0  0  0  0  0
   40.1500   31.6150   41.3280 N   0  0  0  0  0  0  0  0  0  0  0  0
   38.9670   31.4310   40.6800 C   0  0  0  0  0  0  0  0  0  0  0  0
   38.1540   30.4520   41.0060 N   0  0  0  0  0  0  0  0  0  0  0  0
   40.0920   29.1380   43.5330 H   0  0  0  0  0  0  0  0  0  0  0  0
   41.5180   31.0100   42.8140 H   0  0  0  0  0  0  0  0  0  0  0  0
   38.5970   32.3870   39.5890 C   0  0  1  0  0  0  0  0  0  0  0  0
   37.2860   33.1360   39.6980 C   0  0  0  0  0  0  0  0  0  0  0  0
   38.5910   33.8090   39.9900 C   0  0  1  0  0  0  0  0  0  0  0  0
   38.9520   32.1400   38.5720 H   0  0  0  0  0  0  0  0  0  0  0  0
   36.6050   32.8290   40.5030 H   0  0  0  0  0  0  0  0  0  0  0  0
   36.8220   33.3870   38.7180 H   0  0  0  0  0  0  0  0  0  0  0  0
   38.9110   34.6130   39.3120 H   0  0  0  0  0  0  0  0  0  0  0  0
   38.7610   34.1610   41.4080 N   0  0  0  0  0  0  0  0  0  0  0  0
   37.8740   34.5750   41.7970 H   0  0  0  0  0  0  0  0  0  0  0  0
   39.5550   34.8170   41.5190 H   0  0  0  0  0  0  0  0  0  0  0  0
   37.6720   28.5330   42.4550 C   0  0  1  0  0  3  0  0  0  0  0  0
   37.0580   28.5210   43.5880 O   0  0  0  0  0  1  0  0  0  0  0  0
   37.3240   27.2530   41.7900 C   0  0  0  0  0  0  0  0  0  0  0  0
   37.3410   26.0700   42.5590 C   0  0  0  0  0  0  0  0  0  0  0  0
   37.5900   26.0500   43.6310 H   0  0  0  0  0  0  0  0  0  0  0  0
   37.0190   24.8580   41.9360 C   0  0  0  0  0  3  0  0  0  0  0  0
   36.6830   24.7740   40.5730 C   0  0  0  0  0  0  0  0  0  0  0  0
   36.4590   23.7810   40.1960 H   0  0  0  0  0  0  0  0  0  0  0  0
   36.6840   25.9360   39.8810 C   0  0  0  0  0  0  0  0  0  0  0  0
   36.4250   25.8710   38.8260 H   0  0  0  0  0  0  0  0  0  0  0  0
   36.9900   27.1230   40.4550 C   0  0  0  0  0  3  0  0  0  0  0  0
  1 19  1  0  0  0  0
  1  2  1  0  0  0  0
  2  7  1  0  0  0  0
  3  2  2  0  0  0  0
  3  8  1  0  0  0  0
  4  3  1  0  0  0  0
  5  6  1  0  0  0  0
  5  4  2  0  0  0  0
  6  1  2  0  0  0  0
  9 12  1  6  0  0  0
  9 10  1  0  0  0  0
  9 11  1  0  0  0  0
  9  5  1  0  0  0  0
 10 11  1  0  0  0  0
 10 13  1  0  0  0  0
 11 15  1  6  0  0  0
 11 16  1  0  0  0  0
 14 10  1  0  0  0  0
 16 18  1  0  0  0  0
 16 17  1  0  0  0  0
 19 20  1  6  0  0  0
 21 19  1  0  0  0  0
 21 22  1  0  0  0  0
 22 23  1  0  0  0  0
 24 22  2  0  0  0  0
 25 24  1  0  0  0  0
 26 25  1  0  0  0  0
 27 29  1  0  0  0  0
 27 25  2  0  0  0  0
 28 27  1  0  0  0  0
 29 21  2  0  0  0  0
M  END
>  <minimizedAffinity>
-5.33541822

$$$$

 OpenBabel03252508013D

 29 31  0  0  1  0  0  0  0  0999 V2000
   37.2700   30.4490   40.0960 C   0  0  0  0  0  0  0  0  0  0  0  0
   36.7400   31.7560   40.2750 C   0  0  0  0  0  0  0  0  0  0  0  0
   37.5810   32.8280   39.9570 C   0  0  0  0  0  0  0  0  0  0  0  0
   38.8340   32.5530   39.5030 N   0  0  0  0  0  0  0  0  0  0  0  0
   39.2880   31.2780   39.3540 C   0  0  0  0  0  0  0  0  0  0  0  0
   38.5300   30.2450   39.6420 N   0  0  0  0  0  0  0  0  0  0  0  0
   35.7560   32.0360   40.6250 H   0  0  0  0  0  0  0  0  0  0  0  0
   37.2870   33.8750   40.0510 H   0  0  0  0  0  0  0  0  0  0  0  0
   40.6770   31.0730   38.8330 C   0  0  1  0  0  0  0  0  0  0  0  0
   40.8650   30.2230   37.5940 C   0  0  0  0  0  0  0  0  0  0  0  0
   40.9480   31.7170   37.5310 C   0  0  1  0  0  0  0  0  0  0  0  0
   41.4890   31.0600   39.5810 H   0  0  0  0  0  0  0  0  0  0  0  0
   39.9840   29.6800   37.2270 H   0  0  0  0  0  0  0  0  0  0  0  0
   41.8380   29.6840   37.5560 H   0  0  0  0  0  0  0  0  0  0  0  0
   41.9230   32.1620   37.2860 H   0  0  0  0  0  0  0  0  0  0  0  0
   39.8400   32.3310   36.7830 N   0  0  0  0  0  0  0  0  0  0  0  0
   39.6440   31.7920   35.9000 H   0  0  0  0  0  0  0  0  0  0  0  0
   40.0590   33.3210   36.5710 H   0  0  0  0  0  0  0  0  0  0  0  0
   36.3610   29.3950   40.4080 C   0  0  1  0  0  3  0  0  0  0  0  0
   35.0900   29.4600   40.2120 O   0  0  0  0  0  1  0  0  0  0  0  0
   36.6140   28.0540   40.9900 C   0  0  0  0  0  0  0  0  0  0  0  0
   36.6840   27.9320   42.3940 C   0  0  0  0  0  0  0  0  0  0  0  0
   36.5490   28.7810   43.0810 H   0  0  0  0  0  0  0  0  0  0  0  0
   36.9290   26.6690   42.9490 C   0  0  0  0  0  3  0  0  0  0  0  0
   37.1110   25.5200   42.1600 C   0  0  0  0  0  0  0  0  0  0  0  0
   37.3020   24.5960   42.6980 H   0  0  0  0  0  0  0  0  0  0  0  0
   37.0380   25.6910   40.8200 C   0  0  0  0  0  0  0  0  0  0  0  0
   37.1800   24.8020   40.2100 H   0  0  0  0  0  0  0  0  0  0  0  0
   36.8010   26.8980   40.2550 C   0  0  0  0  0  3  0  0  0  0  0  0
  1  2  1  0  0  0  0
  1 19  1  0  0  0  0
  2  7  1  0  0  0  0
  3  8  1  0  0  0  0
  3  2  2  0  0  0  0
  4  3  1  0  0  0  0
  5  4  2  0  0  0  0
  5  6  1  0  0  0  0
  6  1  2  0  0  0  0
  9  5  1  0  0  0  0
  9 12  1  1  0  0  0
 10  9  1  0  0  0  0
 11 15  1  6  0  0  0
 11 10  1  0  0  0  0
 11  9  1  0  0  0  0
 13 10  1  0  0  0  0
 14 10  1  0  0  0  0
 16 11  1  0  0  0  0
 17 16  1  0  0  0  0
 18 16  1  0  0  0  0
 19 20  1  6  0  0  0
 19 21  1  0  0  0  0
 21 22  1  0  0  0  0
 22 24  2  0  0  0  0
 22 23  1  0  0  0  0
 25 26  1  0  0  0  0
 25 24  1  0  0  0  0
 27 25  2  0  0  0  0
 28 27  1  0  0  0  0
 29 27  1  0  0  0  0
 29 21  2  0  0  0  0
M  END
>  <minimizedAffinity>
-5.2988348

$$$$

 OpenBabel03252508013D

 29 31  0  0  1  0  0  0  0  0999 V2000
   36.8260   28.6690   41.5940 C   0  0  0  0  0  0  0  0  0  0  0  0
   37.8040   29.2470   42.4490 C   0  0  0  0  0  0  0  0  0  0  0  0
   38.4950   28.3750   43.2990 C   0  0  0  0  0  0  0  0  0  0  0  0
   38.1890   27.0500   43.2520 N   0  0  0  0  0  0  0  0  0  0  0  0
   37.2380   26.5550   42.4120 C   0  0  0  0  0  0  0  0  0  0  0  0
   36.5680   27.3390   41.6000 N   0  0  0  0  0  0  0  0  0  0  0  0
   38.0940   30.2850   42.5270 H   0  0  0  0  0  0  0  0  0  0  0  0
   39.2680   28.7000   43.9980 H   0  0  0  0  0  0  0  0  0  0  0  0
   36.9820   25.0790   42.4200 C   0  0  1  0  0  0  0  0  0  0  0  0
   36.9810   24.3400   41.0980 C   0  0  0  0  0  0  0  0  0  0  0  0
   38.1420   24.2490   42.0390 C   0  0  1  0  0  0  0  0  0  0  0  0
   36.3120   24.6970   43.2110 H   0  0  0  0  0  0  0  0  0  0  0  0
   37.0240   24.9520   40.1880 H   0  0  0  0  0  0  0  0  0  0  0  0
   36.3090   23.4520   41.0750 H   0  0  0  0  0  0  0  0  0  0  0  0
   38.3470   23.2740   42.5020 H   0  0  0  0  0  0  0  0  0  0  0  0
   39.3590   24.8990   41.5250 N   0  0  0  0  0  0  0  0  0  0  0  0
   39.5040   24.6660   40.5080 H   0  0  0  0  0  0  0  0  0  0  0  0
   40.1790   24.6150   42.0900 H   0  0  0  0  0  0  0  0  0  0  0  0
   36.1720   29.5980   40.7310 C   0  0  1  0  0  3  0  0  0  0  0  0
   36.0390   30.8520   40.9940 O   0  0  0  0  0  1  0  0  0  0  0  0
   35.5310   29.3890   39.4100 C   0  0  0  0  0  0  0  0  0  0  0  0
   36.3130   29.5630   38.2480 C   0  0  0  0  0  0  0  0  0  0  0  0
   37.3790   29.8350   38.2720 H   0  0  0  0  0  0  0  0  0  0  0  0
   35.7110   29.3730   36.9970 C   0  0  0  0  0  3  0  0  0  0  0  0
   34.3580   29.0200   36.8550 C   0  0  0  0  0  0  0  0  0  0  0  0
   33.9970   28.9070   35.8370 H   0  0  0  0  0  0  0  0  0  0  0  0
   33.6520   28.8680   37.9990 C   0  0  0  0  0  0  0  0  0  0  0  0
   32.6050   28.5960   37.8890 H   0  0  0  0  0  0  0  0  0  0  0  0
   34.2060   29.0440   39.2220 C   0  0  0  0  0  3  0  0  0  0  0  0
  1  6  2  0  0  0  0
  1  2  1  0  0  0  0
  2  7  1  0  0  0  0
  2  3  2  0  0  0  0
  3  8  1  0  0  0  0
  4  3  1  0  0  0  0
  5  9  1  0  0  0  0
  5  4  2  0  0  0  0
  6  5  1  0  0  0  0
  9 12  1  1  0  0  0
 10 11  1  0  0  0  0
 10  9  1  0  0  0  0
 11  9  1  0  0  0  0
 11 15  1  1  0  0  0
 13 10  1  0  0  0  0
 14 10  1  0  0  0  0
 16 11  1  0  0  0  0
 16 18  1  0  0  0  0
 17 16  1  0  0  0  0
 19 20  1  6  0  0  0
 19  1  1  0  0  0  0
 21 19  1  0  0  0  0
 22 23  1  0  0  0  0
 22 21  2  0  0  0  0
 24 22  1  0  0  0  0
 25 24  2  0  0  0  0
 25 27  1  0  0  0  0
 26 25  1  0  0  0  0
 27 29  2  0  0  0  0
 28 27  1  0  0  0  0
 29 21  1  0  0  0  0
M  END
>  <minimizedAffinity>
-5.20982504

$$$$

 OpenBabel03252508013D

 29 31  0  0  1  0  0  0  0  0999 V2000
   37.6670   26.9510   41.4710 C   0  0  0  0  0  0  0  0  0  0  0  0
   37.3910   26.9550   42.8660 C   0  0  0  0  0  0  0  0  0  0  0  0
   37.3560   28.2030   43.5000 C   0  0  0  0  0  0  0  0  0  0  0  0
   37.5850   29.3150   42.7500 N   0  0  0  0  0  0  0  0  0  0  0  0
   37.8470   29.2480   41.4150 C   0  0  0  0  0  0  0  0  0  0  0  0
   37.8900   28.0980   40.7840 N   0  0  0  0  0  0  0  0  0  0  0  0
   37.1970   26.1100   43.5110 H   0  0  0  0  0  0  0  0  0  0  0  0
   37.1530   28.3330   44.5650 H   0  0  0  0  0  0  0  0  0  0  0  0
   38.0700   30.5270   40.6700 C   0  0  1  0  0  0  0  0  0  0  0  0
   37.2680   30.7790   39.4100 C   0  0  0  0  0  0  0  0  0  0  0  0
   36.9300   31.4650   40.6980 C   0  0  1  0  0  0  0  0  0  0  0  0
   39.0890   30.9530   40.7110 H   0  0  0  0  0  0  0  0  0  0  0  0
   36.6670   29.9420   39.0300 H   0  0  0  0  0  0  0  0  0  0  0  0
   37.7930   31.4050   38.6540 H   0  0  0  0  0  0  0  0  0  0  0  0
   37.0640   32.5550   40.7430 H   0  0  0  0  0  0  0  0  0  0  0  0
   35.6470   31.0270   41.2710 N   0  0  0  0  0  0  0  0  0  0  0  0
   34.9110   30.9530   40.5220 H   0  0  0  0  0  0  0  0  0  0  0  0
   35.3510   31.6810   42.0180 H   0  0  0  0  0  0  0  0  0  0  0  0
   37.6640   25.6570   40.8720 C   0  0  1  0  0  3  0  0  0  0  0  0
   38.5990   24.7870   41.0370 O   0  0  0  0  0  1  0  0  0  0  0  0
   36.6680   25.0190   39.9770 C   0  0  0  0  0  0  0  0  0  0  0  0
   36.1020   23.7880   40.3720 C   0  0  0  0  0  0  0  0  0  0  0  0
   36.3540   23.2820   41.3160 H   0  0  0  0  0  0  0  0  0  0  0  0
   35.1650   23.1770   39.5290 C   0  0  0  0  0  3  0  0  0  0  0  0
   34.7700   23.7410   38.3030 C   0  0  0  0  0  0  0  0  0  0  0  0
   34.0420   23.1760   37.7280 H   0  0  0  0  0  0  0  0  0  0  0  0
   35.3440   24.9200   37.9700 C   0  0  0  0  0  0  0  0  0  0  0  0
   35.0390   25.3560   37.0220 H   0  0  0  0  0  0  0  0  0  0  0  0
   36.2510   25.5350   38.7650 C   0  0  0  0  0  3  0  0  0  0  0  0
  1  2  1  0  0  0  0
  2  3  2  0  0  0  0
  2  7  1  0  0  0  0
  3  8  1  0  0  0  0
  4  3  1  0  0  0  0
  5  4  2  0  0  0  0
  6  5  1  0  0  0  0
  6  1  2  0  0  0  0
  9 11  1  0  0  0  0
  9 12  1  1  0  0  0
  9  5  1  0  0  0  0
 10  9  1  0  0  0  0
 10 11  1  0  0  0  0
 11 15  1  1  0  0  0
 11 16  1  0  0  0  0
 13 10  1  0  0  0  0
 14 10  1  0  0  0  0
 16 18  1  0  0  0  0
 17 16  1  0  0  0  0
 19 20  1  1  0  0  0
 19  1  1  0  0  0  0
 21 22  1  0  0  0  0
 21 19  1  0  0  0  0
 22 23  1  0  0  0  0
 24 22  2  0  0  0  0
 25 24  1  0  0  0  0
 26 25  1  0  0  0  0
 27 25  2  0  0  0  0
 27 29  1  0  0  0  0
 28 27  1  0  0  0  0
 29 21  2  0  0  0  0
M  END
>  <minimizedAffinity>
-5.19443464

$$$$

 OpenBabel03252508013D

 29 31  0  0  1  0  0  0  0  0999 V2000
   37.6060   29.3820   41.6700 C   0  0  0  0  0  0  0  0  0  0  0  0
   36.4070   29.5970   40.9350 C   0  0  0  0  0  0  0  0  0  0  0  0
   36.4520   30.5600   39.9210 C   0  0  0  0  0  0  0  0  0  0  0  0
   37.6230   31.2190   39.7070 N   0  0  0  0  0  0  0  0  0  0  0  0
   38.7400   30.9710   40.4450 C   0  0  0  0  0  0  0  0  0  0  0  0
   38.7400   30.0760   41.4060 N   0  0  0  0  0  0  0  0  0  0  0  0
   35.4530   29.1040   41.0550 H   0  0  0  0  0  0  0  0  0  0  0  0
   35.5980   30.8120   39.2900 H   0  0  0  0  0  0  0  0  0  0  0  0
   39.9880   31.7340   40.1260 C   0  0  1  0  0  0  0  0  0  0  0  0
   39.8890   32.9240   39.1940 C   0  0  0  0  0  0  0  0  0  0  0  0
   40.0310   33.1050   40.6740 C   0  0  1  0  0  0  0  0  0  0  0  0
   40.9300   31.1570   40.1070 H   0  0  0  0  0  0  0  0  0  0  0  0
   38.9280   33.0760   38.6860 H   0  0  0  0  0  0  0  0  0  0  0  0
   40.8090   33.1100   38.5950 H   0  0  0  0  0  0  0  0  0  0  0  0
   40.9600   33.5630   41.0430 H   0  0  0  0  0  0  0  0  0  0  0  0
   38.8290   33.6680   41.3090 N   0  0  0  0  0  0  0  0  0  0  0  0
   38.4380   34.4570   40.7320 H   0  0  0  0  0  0  0  0  0  0  0  0
   39.0510   33.9860   42.2690 H   0  0  0  0  0  0  0  0  0  0  0  0
   37.5120   28.3710   42.6720 C   0  0  1  0  0  3  0  0  0  0  0  0
   36.7120   28.4320   43.6800 O   0  0  0  0  0  1  0  0  0  0  0  0
   38.2430   27.0880   42.8090 C   0  0  0  0  0  0  0  0  0  0  0  0
   39.4430   27.0740   43.5520 C   0  0  0  0  0  0  0  0  0  0  0  0
   39.8590   27.9660   44.0450 H   0  0  0  0  0  0  0  0  0  0  0  0
   40.1420   25.8670   43.6800 C   0  0  0  0  0  3  0  0  0  0  0  0
   39.6950   24.6700   43.0930 C   0  0  0  0  0  0  0  0  0  0  0  0
   40.3210   23.7960   43.2520 H   0  0  0  0  0  0  0  0  0  0  0  0
   38.5420   24.7370   42.3900 C   0  0  0  0  0  0  0  0  0  0  0  0
   38.1970   23.8120   41.9350 H   0  0  0  0  0  0  0  0  0  0  0  0
   37.8440   25.8890   42.2490 C   0  0  0  0  0  3  0  0  0  0  0  0
  1 19  1  0  0  0  0
  2  7  1  0  0  0  0
  2  1  2  0  0  0  0
  3  2  1  0  0  0  0
  4  3  2  0  0  0  0
  4  5  1  0  0  0  0
  5  6  2  0  0  0  0
  6  1  1  0  0  0  0
  8  3  1  0  0  0  0
  9 12  1  6  0  0  0
  9  5  1  0  0  0  0
  9 11  1  0  0  0  0
 10  9  1  0  0  0  0
 10 11  1  0  0  0  0
 11 15  1  1  0  0  0
 11 16  1  0  0  0  0
 13 10  1  0  0  0  0
 14 10  1  0  0  0  0
 16 18  1  0  0  0  0
 17 16  1  0  0  0  0
 19 21  1  0  0  0  0
 19 20  1  6  0  0  0
 21 22  1  0  0  0  0
 22 24  2  0  0  0  0
 22 23  1  0  0  0  0
 25 26  1  0  0  0  0
 25 24  1  0  0  0  0
 27 25  2  0  0  0  0
 28 27  1  0  0  0  0
 29 27  1  0  0  0  0
 29 21  2  0  0  0  0
M  END
>  <minimizedAffinity>
-5.10809231

$$$$

 OpenBabel03252508013D

 29 31  0  0  1  0  0  0  0  0999 V2000
   37.7440   28.9980   42.1730 C   0  0  0  0  0  0  0  0  0  0  0  0
   38.9980   29.1810   42.8190 C   0  0  0  0  0  0  0  0  0  0  0  0
   39.6690   30.3830   42.5670 C   0  0  0  0  0  0  0  0  0  0  0  0
   39.0850   31.2860   41.7320 N   0  0  0  0  0  0  0  0  0  0  0  0
   37.8810   31.0530   41.1400 C   0  0  0  0  0  0  0  0  0  0  0  0
   37.2210   29.9380   41.3490 N   0  0  0  0  0  0  0  0  0  0  0  0
   39.5070   28.5070   43.4930 H   0  0  0  0  0  0  0  0  0  0  0  0
   40.6350   30.6390   43.0060 H   0  0  0  0  0  0  0  0  0  0  0  0
   37.3100   32.1120   40.2490 C   0  0  1  0  0  0  0  0  0  0  0  0
   38.1240   32.5690   39.0560 C   0  0  0  0  0  0  0  0  0  0  0  0
   36.9520   31.6510   38.8920 C   0  0  1  0  0  0  0  0  0  0  0  0
   36.6550   32.8610   40.7280 H   0  0  0  0  0  0  0  0  0  0  0  0
   39.1560   32.2010   38.9900 H   0  0  0  0  0  0  0  0  0  0  0  0
   37.9490   33.6300   38.7660 H   0  0  0  0  0  0  0  0  0  0  0  0
   36.0760   32.0350   38.3510 H   0  0  0  0  0  0  0  0  0  0  0  0
   37.3310   30.2940   38.4660 N   0  0  0  0  0  0  0  0  0  0  0  0
   38.0610   30.3330   37.7090 H   0  0  0  0  0  0  0  0  0  0  0  0
   36.4940   29.7750   38.1470 H   0  0  0  0  0  0  0  0  0  0  0  0
   37.0920   27.7680   42.4860 C   0  0  1  0  0  3  0  0  0  0  0  0
   36.4550   27.5530   43.5850 O   0  0  0  0  0  1  0  0  0  0  0  0
   36.9790   26.5170   41.6970 C   0  0  0  0  0  0  0  0  0  0  0  0
   36.7610   26.6160   40.3060 C   0  0  0  0  0  0  0  0  0  0  0  0
   36.6810   27.5760   39.7750 H   0  0  0  0  0  0  0  0  0  0  0  0
   36.6460   25.4380   39.5580 C   0  0  0  0  0  3  0  0  0  0  0  0
   36.7370   24.1610   40.1390 C   0  0  0  0  0  0  0  0  0  0  0  0
   36.6260   23.3190   39.4630 H   0  0  0  0  0  0  0  0  0  0  0  0
   36.9430   24.1210   41.4750 C   0  0  0  0  0  0  0  0  0  0  0  0
   37.0120   23.1330   41.9250 H   0  0  0  0  0  0  0  0  0  0  0  0
   37.0590   25.2420   42.2250 C   0  0  0  0  0  3  0  0  0  0  0  0
  1 19  1  0  0  0  0
  1  2  1  0  0  0  0
  2  7  1  0  0  0  0
  3  2  2  0  0  0  0
  3  8  1  0  0  0  0
  4  3  1  0  0  0  0
  5  6  1  0  0  0  0
  5  4  2  0  0  0  0
  6  1  2  0  0  0  0
  9 12  1  1  0  0  0
  9  5  1  0  0  0  0
 10  9  1  0  0  0  0
 11 15  1  6  0  0  0
 11 10  1  0  0  0  0
 11  9  1  0  0  0  0
 13 10  1  0  0  0  0
 14 10  1  0  0  0  0
 16 11  1  0  0  0  0
 17 16  1  0  0  0  0
 18 16  1  0  0  0  0
 19 20  1  6  0  0  0
 21 29  1  0  0  0  0
 21 19  1  0  0  0  0
 22 21  2  0  0  0  0
 23 22  1  0  0  0  0
 24 25  2  0  0  0  0
 24 22  1  0  0  0  0
 25 27  1  0  0  0  0
 26 25  1  0  0  0  0
 27 28  1  0  0  0  0
 27 29  2  0  0  0  0
M  END
>  <minimizedAffinity>
-5.09734297

$$$$

 OpenBabel03252508013D

 29 31  0  0  1  0  0  0  0  0999 V2000
   36.6300   28.3420   41.3970 C   0  0  0  0  0  0  0  0  0  0  0  0
   37.3490   29.0520   42.3970 C   0  0  0  0  0  0  0  0  0  0  0  0
   38.0310   28.2860   43.3490 C   0  0  0  0  0  0  0  0  0  0  0  0
   37.9620   26.9300   43.2570 N   0  0  0  0  0  0  0  0  0  0  0  0
   37.2530   26.3050   42.2760 C   0  0  0  0  0  0  0  0  0  0  0  0
   36.6000   26.9880   41.3650 N   0  0  0  0  0  0  0  0  0  0  0  0
   37.4450   30.1220   42.5180 H   0  0  0  0  0  0  0  0  0  0  0  0
   38.6180   28.7170   44.1630 H   0  0  0  0  0  0  0  0  0  0  0  0
   37.2490   24.8080   42.2460 C   0  0  1  0  0  0  0  0  0  0  0  0
   37.2110   24.1130   40.9010 C   0  0  0  0  0  0  0  0  0  0  0  0
   38.4760   24.1980   41.6960 C   0  0  1  0  0  0  0  0  0  0  0  0
   36.7530   24.2970   43.0910 H   0  0  0  0  0  0  0  0  0  0  0  0
   37.0410   24.7470   40.0210 H   0  0  0  0  0  0  0  0  0  0  0  0
   36.6980   23.1250   40.9140 H   0  0  0  0  0  0  0  0  0  0  0  0
   38.8950   23.2600   42.0880 H   0  0  0  0  0  0  0  0  0  0  0  0
   39.4960   25.0590   41.0760 N   0  0  0  0  0  0  0  0  0  0  0  0
   39.5540   24.8800   40.0400 H   0  0  0  0  0  0  0  0  0  0  0  0
   40.4150   24.9050   41.5290 H   0  0  0  0  0  0  0  0  0  0  0  0
   35.9770   29.1710   40.4380 C   0  0  1  0  0  3  0  0  0  0  0  0
   34.6970   29.2720   40.3290 O   0  0  0  0  0  1  0  0  0  0  0  0
   36.5450   30.0660   39.4010 C   0  0  0  0  0  0  0  0  0  0  0  0
   36.7730   31.4190   39.7310 C   0  0  0  0  0  0  0  0  0  0  0  0
   36.5590   31.8420   40.7240 H   0  0  0  0  0  0  0  0  0  0  0  0
   37.3040   32.2700   38.7530 C   0  0  0  0  0  3  0  0  0  0  0  0
   37.6160   31.8290   37.4560 C   0  0  0  0  0  0  0  0  0  0  0  0
   38.0160   32.5780   36.7790 H   0  0  0  0  0  0  0  0  0  0  0  0
   37.3760   30.5240   37.1890 C   0  0  0  0  0  0  0  0  0  0  0  0
   37.6170   30.1840   36.1850 H   0  0  0  0  0  0  0  0  0  0  0  0
   36.8650   29.6770   38.1130 C   0  0  0  0  0  3  0  0  0  0  0  0
  1  2  1  0  0  0  0
  2  7  1  0  0  0  0
  2  3  2  0  0  0  0
  3  8  1  0  0  0  0
  4  3  1  0  0  0  0
  5  4  2  0  0  0  0
  6  1  2  0  0  0  0
  6  5  1  0  0  0  0
  9  5  1  0  0  0  0
  9 12  1  1  0  0  0
 10 14  1  0  0  0  0
 10 11  1  0  0  0  0
 10  9  1  0  0  0  0
 11 15  1  1  0  0  0
 11  9  1  0  0  0  0
 13 10  1  0  0  0  0
 16 18  1  0  0  0  0
 16 11  1  0  0  0  0
 17 16  1  0  0  0  0
 19 20  1  1  0  0  0
 19  1  1  0  0  0  0
 21 22  1  0  0  0  0
 21 19  1  0  0  0  0
 22 23  1  0  0  0  0
 24 22  2  0  0  0  0
 25 24  1  0  0  0  0
 26 25  1  0  0  0  0
 27 25  2  0  0  0  0
 27 29  1  0  0  0  0
 28 27  1  0  0  0  0
 29 21  2  0  0  0  0
M  END
>  <minimizedAffinity>
-5.07100344

$$$$
