
     RDKit          3D

 30 32  0  0  0  0  0  0  0  0999 V2000
   46.0826   34.1612   41.0122 C   0  0  0  0  0  0  0  0  0  0  0  0
   46.6108   34.8316   42.1087 C   0  0  0  0  0  0  0  0  0  0  0  0
   47.9357   35.2720   41.9810 C   0  0  0  0  0  0  0  0  0  0  0  0
   48.6122   35.0253   40.8222 N   0  0  0  0  0  0  0  0  0  0  0  0
   48.0502   34.3769   39.8056 C   0  0  0  0  0  0  0  0  0  0  0  0
   46.7829   33.9390   39.8895 N   0  0  0  0  0  0  0  0  0  0  0  0
   45.8083   35.0427   43.2942 C   0  0  0  0  0  0  0  0  0  0  0  0
   45.0497   36.1831   43.4933 C   0  0  0  0  0  0  0  0  0  0  0  0
   44.4649   35.9619   44.7256 C   0  0  0  0  0  0  0  0  0  0  0  0
   44.8408   34.7745   45.2371 N   0  0  0  0  0  0  0  0  0  0  0  0
   45.6540   34.2359   44.3530 N   0  0  0  0  0  0  0  0  0  0  0  0
   44.7795   33.7098   41.0965 O   0  0  0  0  0  0  0  0  0  0  0  0
   43.6886   34.1842   40.4279 C   0  0  0  0  0  0  0  0  0  0  0  0
   43.2499   35.3908   40.4162 O   0  0  0  0  0  0  0  0  0  0  0  0
   48.3653   35.7964   42.8248 H   0  0  0  0  0  0  0  0  0  0  0  0
   48.6389   34.2109   38.9095 H   0  0  0  0  0  0  0  0  0  0  0  0
   44.9060   37.0647   42.8784 H   0  0  0  0  0  0  0  0  0  0  0  0
   43.7914   36.6526   45.2179 H   0  0  0  0  0  0  0  0  0  0  0  0
   44.5162   34.4050   46.1629 H   0  0  0  0  0  0  0  0  0  0  0  0
   42.8125   33.3253   39.5813 C   0  0  0  0  0  0  0  0  0  0  0  0
   42.3769   33.7079   38.3112 C   0  0  0  0  0  0  0  0  0  0  0  0
   42.7053   34.6832   37.9411 H   0  0  0  0  0  0  0  0  0  0  0  0
   41.5717   32.9823   37.4684 C   0  0  0  0  0  0  0  0  0  0  0  0
   41.1604   31.7544   37.9389 C   0  0  0  0  0  0  0  0  0  0  0  0
   40.5245   31.1337   37.3233 H   0  0  0  0  0  0  0  0  0  0  0  0
   41.5384   31.2918   39.1780 C   0  0  0  0  0  0  0  0  0  0  0  0
   41.2091   30.3275   39.5349 H   0  0  0  0  0  0  0  0  0  0  0  0
   42.3475   32.0877   39.9548 C   0  0  0  0  0  0  0  0  0  0  0  0
   41.2964   33.3805   36.5015 H   0  0  0  0  0  0  0  0  0  0  0  0
   42.6305   31.7011   40.9248 H   0  0  0  0  0  0  0  0  0  0  0  0
  1 12  1  0
  1  2  1  0
  2  7  1  0
  3  2  2  0
  4  3  1  0
  5  6  1  0
  5  4  2  0
  6  1  2  0
  7  8  1  0
  7 11  2  0
  8  9  2  0
  9 10  1  0
 11 10  1  0
 13 14  2  0
 13 12  1  0
  3 15  1  0
  5 16  1  0
  8 17  1  0
  9 18  1  0
 10 19  1  0
 20 21  2  0
 21 22  1  0
 21 23  1  0
 23 24  2  0
 24 25  1  0
 24 26  1  0
 26 27  1  0
 26 28  2  0
 28 20  1  0
 23 29  1  0
 28 30  1  0
 13 20  1  0
M  ISO  8  15  14  16  14  17  14  18  14  19   9  22  16  25  16  27  16
M  END
>  <DihAtoms>  (1) 
13,12,19,20

>  <DihDeg>  (1) 
-179.44640736830624

$$$$
