
 OpenBabel03252508503D

 28 30  0  0  0  0  0  0  0  0999 V2000
   45.9460   34.1750   41.0380 C   0  0  0  0  0  0  0  0  0  0  0  0
   46.5270   34.8010   42.1360 C   0  0  0  0  0  0  0  0  0  0  0  0
   47.8720   35.1670   41.9940 C   0  0  0  0  0  0  0  0  0  0  0  0
   48.5170   34.8980   40.8220 N   0  0  0  0  0  0  0  0  0  0  0  0
   47.9050   34.2960   39.8060 C   0  0  0  0  0  0  0  0  0  0  0  0
   46.6170   33.9290   39.9020 N   0  0  0  0  0  0  0  0  0  0  0  0
   48.3420   35.6550   42.8380 H   0  0  0  0  0  0  0  0  0  0  0  0
   48.4710   34.1100   38.8990 H   0  0  0  0  0  0  0  0  0  0  0  0
   45.7540   35.0400   43.3350 C   0  0  0  0  0  0  0  0  0  0  0  0
   45.0680   36.2200   43.5620 C   0  0  0  0  0  0  0  0  0  0  0  0
   44.4870   36.0150   44.8000 C   0  0  0  0  0  0  0  0  0  0  0  0
   44.7980   34.8000   45.2870 N   0  0  0  0  0  0  0  0  0  0  0  0
   45.5660   34.2280   44.3840 N   0  0  0  0  0  0  0  0  0  0  0  0
   44.9690   37.1190   42.9620 H   0  0  0  0  0  0  0  0  0  0  0  0
   43.8620   36.7370   45.3110 H   0  0  0  0  0  0  0  0  0  0  0  0
   44.4640   34.4360   46.2120 H   0  0  0  0  0  0  0  0  0  0  0  0
   44.6200   33.7960   41.1360 O   0  0  0  0  0  0  0  0  0  0  0  0
   43.5300   34.4430   40.6330 C   0  0  0  0  0  0  0  0  0  0  0  0
   43.3320   35.7110   40.5870 O   0  0  0  0  0  0  0  0  0  0  0  0
   42.3600   33.7330   40.0410 C   0  0  0  0  0  0  0  0  0  0  0  0
   41.3150   33.2240   40.8130 C   0  0  0  0  0  0  0  0  0  0  0  0
   41.3770   33.3640   41.8960 H   0  0  0  0  0  0  0  0  0  0  0  0
   40.2050   32.5580   40.3530 C   0  0  0  0  0  3  0  0  0  0  0  0
   40.1330   32.3840   38.9880 C   0  0  0  0  0  0  0  0  0  0  0  0
   39.2840   31.8680   38.5610 H   0  0  0  0  0  0  0  0  0  0  0  0
   41.1150   32.8510   38.1460 C   0  0  0  0  0  0  0  0  0  0  0  0
   41.0450   32.7080   37.0780 H   0  0  0  0  0  0  0  0  0  0  0  0
   42.1910   33.5070   38.6970 C   0  0  0  0  0  3  0  0  0  0  0  0
  1 17  1  0  0  0  0
  1  2  1  0  0  0  0
  2  9  1  0  0  0  0
  3  2  2  0  0  0  0
  3  7  1  0  0  0  0
  4  3  1  0  0  0  0
  5  6  1  0  0  0  0
  5  4  2  0  0  0  0
  6  1  2  0  0  0  0
  8  5  1  0  0  0  0
  9 10  1  0  0  0  0
  9 13  2  0  0  0  0
 10 11  2  0  0  0  0
 11 12  1  0  0  0  0
 11 15  1  0  0  0  0
 12 16  1  0  0  0  0
 13 12  1  0  0  0  0
 14 10  1  0  0  0  0
 18 17  1  0  0  0  0
 19 18  2  0  0  0  0
 20 18  1  0  0  0  0
 20 21  1  0  0  0  0
 21 22  1  0  0  0  0
 23 21  2  0  0  0  0
 24 23  1  0  0  0  0
 25 24  1  0  0  0  0
 26 28  1  0  0  0  0
 26 24  2  0  0  0  0
 27 26  1  0  0  0  0
 28 20  2  0  0  0  0
M  END
>  <minimizedAffinity>
-5.25696564

>  <minimizedRMSD>
0.689114273

$$$$
