
 OpenBabel03252508513D

 28 30  0  0  0  0  0  0  0  0999 V2000
   45.9410   34.2330   41.0340 C   0  0  0  0  0  0  0  0  0  0  0  0
   46.5310   34.8060   42.1540 C   0  0  0  0  0  0  0  0  0  0  0  0
   47.8930   35.1170   42.0400 C   0  0  0  0  0  0  0  0  0  0  0  0
   48.5430   34.8490   40.8710 N   0  0  0  0  0  0  0  0  0  0  0  0
   47.9210   34.2980   39.8320 C   0  0  0  0  0  0  0  0  0  0  0  0
   46.6170   33.9850   39.9020 N   0  0  0  0  0  0  0  0  0  0  0  0
   48.3710   35.5640   42.9020 H   0  0  0  0  0  0  0  0  0  0  0  0
   48.4920   34.1090   38.9290 H   0  0  0  0  0  0  0  0  0  0  0  0
   45.7520   35.0500   43.3480 C   0  0  0  0  0  0  0  0  0  0  0  0
   45.1070   36.2500   43.5910 C   0  0  0  0  0  0  0  0  0  0  0  0
   44.5020   36.0420   44.8160 C   0  0  0  0  0  0  0  0  0  0  0  0
   44.7620   34.8060   45.2830 N   0  0  0  0  0  0  0  0  0  0  0  0
   45.5200   34.2240   44.3780 N   0  0  0  0  0  0  0  0  0  0  0  0
   45.0480   37.1630   43.0080 H   0  0  0  0  0  0  0  0  0  0  0  0
   43.8970   36.7760   45.3350 H   0  0  0  0  0  0  0  0  0  0  0  0
   44.4020   34.4360   46.1960 H   0  0  0  0  0  0  0  0  0  0  0  0
   44.5990   33.9100   41.1040 O   0  0  0  0  0  0  0  0  0  0  0  0
   43.5440   34.6240   40.6170 C   0  0  0  0  0  0  0  0  0  0  0  0
   43.2770   35.8610   40.8350 O   0  0  0  0  0  0  0  0  0  0  0  0
   42.5030   34.0380   39.7240 C   0  0  0  0  0  0  0  0  0  0  0  0
   41.5660   34.8160   39.0420 C   0  0  0  0  0  0  0  0  0  0  0  0
   41.6170   35.9000   39.1830 H   0  0  0  0  0  0  0  0  0  0  0  0
   40.5780   34.3610   38.2040 C   0  0  0  0  0  3  0  0  0  0  0  0
   40.5180   32.9960   38.0310 C   0  0  0  0  0  0  0  0  0  0  0  0
   39.7630   32.5730   37.3840 H   0  0  0  0  0  0  0  0  0  0  0  0
   41.3990   32.1480   38.6620 C   0  0  0  0  0  0  0  0  0  0  0  0
   41.3420   31.0790   38.5170 H   0  0  0  0  0  0  0  0  0  0  0  0
   42.3580   32.6940   39.4840 C   0  0  0  0  0  3  0  0  0  0  0  0
  1 17  1  0  0  0  0
  1  2  1  0  0  0  0
  2  9  1  0  0  0  0
  3  2  2  0  0  0  0
  3  7  1  0  0  0  0
  4  3  1  0  0  0  0
  5  6  1  0  0  0  0
  5  4  2  0  0  0  0
  6  1  2  0  0  0  0
  8  5  1  0  0  0  0
  9 10  1  0  0  0  0
  9 13  2  0  0  0  0
 10 11  2  0  0  0  0
 11 12  1  0  0  0  0
 11 15  1  0  0  0  0
 12 16  1  0  0  0  0
 13 12  1  0  0  0  0
 14 10  1  0  0  0  0
 18 19  2  0  0  0  0
 18 17  1  0  0  0  0
 20 18  1  0  0  0  0
 21 22  1  0  0  0  0
 21 20  2  0  0  0  0
 23 21  1  0  0  0  0
 24 23  2  0  0  0  0
 24 26  1  0  0  0  0
 25 24  1  0  0  0  0
 26 28  2  0  0  0  0
 27 26  1  0  0  0  0
 28 20  1  0  0  0  0
M  END
>  <minimizedAffinity>
-5.46584606

>  <minimizedRMSD>
0.659093618

$$$$
