
 OpenBabel03242515013D

 37 39  0  0  0  0  0  0  0  0999 V2000
   44.7760   34.6860   41.9990 C   0  0  0  0  0  0  0  0  0  0  0  0
   46.0860   34.5830   41.5480 C   0  0  0  0  0  0  0  0  0  0  0  0
   47.1060   34.3920   42.4680 C   0  0  0  0  0  0  0  0  0  0  0  0
   46.7600   34.3170   43.7740 N   0  0  0  0  0  0  0  0  0  0  0  0
   45.4880   34.4180   44.2130 C   0  0  0  0  0  0  0  0  0  0  0  0
   44.5220   34.6010   43.3130 N   0  0  0  0  0  0  0  0  0  0  0  0
   46.3420   34.6470   40.4920 H   0  0  0  0  0  0  0  0  0  0  0  0
   48.1380   34.3050   42.1850 H   0  0  0  0  0  0  0  0  0  0  0  0
   45.2200   34.3260   45.6450 C   0  0  0  0  0  0  0  0  0  0  0  0
   44.5230   35.2490   46.1410 O   0  0  0  0  0  0  0  0  0  0  0  0
   45.7680   33.1850   46.4000 C   0  0  0  0  0  0  0  0  0  0  0  0
   46.7900   32.3730   45.8950 C   0  0  0  0  0  0  0  0  0  0  0  0
   47.1910   32.5910   44.9160 H   0  0  0  0  0  0  0  0  0  0  0  0
   47.2350   31.3180   46.7010 C   0  0  0  0  0  0  0  0  0  0  0  0
   46.6700   31.1100   47.9380 C   0  0  0  0  0  0  0  0  0  0  0  0
   47.0210   30.2840   48.5690 H   0  0  0  0  0  0  0  0  0  0  0  0
   45.6650   31.8950   48.4530 C   0  0  0  0  0  0  0  0  0  0  0  0
   45.1920   31.7750   49.4140 H   0  0  0  0  0  0  0  0  0  0  0  0
   45.2400   32.9260   47.6520 C   0  0  0  0  0  0  0  0  0  0  0  0
   43.4970   34.9310   40.7530 S   0  0  0  0  0  0  0  0  0  0  0  0
   41.8590   35.0810   41.4700 C   0  0  0  0  0  0  0  0  0  0  0  0
   41.3810   34.1000   41.6610 H   0  0  0  0  0  0  0  0  0  0  0  0
   41.9920   35.5520   42.4790 H   0  0  0  0  0  0  0  0  0  0  0  0
   40.9620   35.9840   40.6940 C   0  0  0  0  0  0  0  0  0  0  0  0
   41.5230   36.7930   40.2090 H   0  0  0  0  0  0  0  0  0  0  0  0
   40.2450   36.4620   41.3960 H   0  0  0  0  0  0  0  0  0  0  0  0
   41.7910   36.2450   37.7750 Cl  0  0  0  0  0  0  0  0  0  0  0  0
   40.4610   35.2840   38.3280 C   0  0  0  0  0  0  0  0  0  0  0  0
   40.1550   35.2260   39.7010 C   0  0  0  0  0  0  0  0  0  0  0  0
   39.0920   34.4450   40.0520 C   0  0  0  0  0  0  0  0  0  0  0  0
   38.2840   33.7050   39.1990 C   0  0  0  0  0  0  0  0  0  0  0  0
   38.5970   33.7730   37.8550 C   0  0  0  0  0  0  0  0  0  0  0  0
   37.6430   32.8790   36.6790 Cl  0  0  0  0  0  0  0  0  0  0  0  0
   39.6600   34.5460   37.4480 C   0  0  0  0  0  0  0  0  0  0  0  0
   38.8340   34.3840   41.1130 H   0  0  0  0  0  0  0  0  0  0  0  0
   37.4600   33.1140   39.5780 H   0  0  0  0  0  0  0  0  0  0  0  0
   39.9300   34.6170   36.3860 H   0  0  0  0  0  0  0  0  0  0  0  0
  1  6  1  0  0  0  0
  2  1  2  0  0  0  0
  2  3  1  0  0  0  0
  3  4  2  0  0  0  0
  4  5  1  0  0  0  0
  5  9  1  0  0  0  0
  6  5  2  0  0  0  0
  7  2  1  0  0  0  0
  8  3  1  0  0  0  0
  9 10  2  0  0  0  0
  9 11  1  0  0  0  0
 11 19  1  0  0  0  0
 12 11  2  0  0  0  0
 12 14  1  0  0  0  0
 13 12  1  0  0  0  0
 14 15  2  0  0  0  0
 15 17  1  0  0  0  0
 15 16  1  0  0  0  0
 17 18  1  0  0  0  0
 19 17  2  0  0  0  0
 20 21  1  0  0  0  0
 20  1  1  0  0  0  0
 21 22  1  0  0  0  0
 21 23  1  0  0  0  0
 24 26  1  0  0  0  0
 24 21  1  0  0  0  0
 25 24  1  0  0  0  0
 27 28  1  0  0  0  0
 28 29  1  0  0  0  0
 29 30  2  0  0  0  0
 29 24  1  0  0  0  0
 30 35  1  0  0  0  0
 31 36  1  0  0  0  0
 31 30  1  0  0  0  0
 32 31  2  0  0  0  0
 33 32  1  0  0  0  0
 34 32  1  0  0  0  0
 34 28  2  0  0  0  0
 37 34  1  0  0  0  0
M  END
>  <minimizedAffinity>
-7.06299353

>  <minimizedRMSD>
0.20678924

$$$$
