
 OpenBabel03252504013D

 34 37  0  0  0  0  0  0  0  0999 V2000
   33.6980   28.7510   36.7330 C   0  0  0  0  0  0  0  0  0  0  0  0
   34.5280   29.1060   35.6610 C   0  0  0  0  0  0  0  0  0  0  0  0
   35.8930   29.1310   35.8920 C   0  0  0  0  0  0  0  0  0  0  0  0
   36.3550   28.8180   37.1230 N   0  0  0  0  0  0  0  0  0  0  0  0
   35.5170   28.4800   38.1330 C   0  0  0  0  0  0  0  0  0  0  0  0
   34.1960   28.4450   37.9430 N   0  0  0  0  0  0  0  0  0  0  0  0
   34.1480   29.3570   34.6740 H   0  0  0  0  0  0  0  0  0  0  0  0
   36.5520   29.4070   35.0670 H   0  0  0  0  0  0  0  0  0  0  0  0
   36.4680   26.8320   39.6710 C   0  0  0  0  0  0  0  0  0  0  0  0
   36.0350   28.1400   39.4620 C   0  0  0  0  0  0  0  0  0  0  0  0
   36.1110   29.0530   40.4940 C   0  0  0  0  0  0  0  0  0  0  0  0
   36.6170   28.6440   41.7170 C   0  0  0  0  0  0  0  0  0  0  0  0
   36.8080   29.2950   42.8780 N   0  0  0  0  0  0  0  0  0  0  0  0
   37.3370   28.4600   43.8010 C   0  0  0  0  0  0  0  0  0  0  0  0
   37.4980   27.2100   43.2170 C   0  0  0  0  0  0  0  0  0  0  0  0
   37.0510   27.3200   41.9160 C   0  0  0  0  0  0  0  0  0  0  0  0
   36.9700   26.4230   40.8840 C   0  0  0  0  0  0  0  0  0  0  0  0
   36.4160   26.1010   38.8730 H   0  0  0  0  0  0  0  0  0  0  0  0
   35.7750   30.0550   40.3160 H   0  0  0  0  0  0  0  0  0  0  0  0
   36.5770   30.3100   43.0390 H   0  0  0  0  0  0  0  0  0  0  0  0
   37.5820   28.7530   44.8190 H   0  0  0  0  0  0  0  0  0  0  0  0
   37.9040   26.3250   43.7140 H   0  0  0  0  0  0  0  0  0  0  0  0
   37.3070   25.4200   41.0610 H   0  0  0  0  0  0  0  0  0  0  0  0
   32.2940   28.7430   36.4270 C   0  0  0  0  0  0  0  0  0  0  0  0
   31.6100   27.7350   36.0880 O   0  0  0  0  0  0  0  0  0  0  0  0
   31.4960   29.9600   36.4850 C   0  0  0  0  0  0  0  0  0  0  0  0
   31.3340   30.8450   35.4380 C   0  0  0  0  0  0  0  0  0  0  0  0
   31.8410   30.6150   34.4930 H   0  0  0  0  0  0  0  0  0  0  0  0
   30.5690   31.9840   35.5430 C   0  0  0  0  0  3  0  0  0  0  0  0
   29.9390   32.2520   36.7360 C   0  0  0  0  0  0  0  0  0  0  0  0
   29.3270   33.1450   36.8520 H   0  0  0  0  0  0  0  0  0  0  0  0
   30.0550   31.4190   37.8160 C   0  0  0  0  0  0  0  0  0  0  0  0
   29.5760   31.5870   38.7880 H   0  0  0  0  0  0  0  0  0  0  0  0
   30.8380   30.2800   37.6670 C   0  0  0  0  0  3  0  0  0  0  0  0
  1  6  1  0  0  0  0
  2  3  1  0  0  0  0
  2  1  2  0  0  0  0
  3  4  2  0  0  0  0
  4  5  1  0  0  0  0
  5 10  1  0  0  0  0
  6  5  2  0  0  0  0
  7  2  1  0  0  0  0
  8  3  1  0  0  0  0
  9 17  1  0  0  0  0
 10  9  2  0  0  0  0
 10 11  1  0  0  0  0
 11 12  2  0  0  0  0
 12 16  1  0  0  0  0
 12 13  1  0  0  0  0
 13 20  1  0  0  0  0
 13 14  1  0  0  0  0
 14 21  1  0  0  0  0
 15 22  1  0  0  0  0
 15 14  2  0  0  0  0
 16 15  1  0  0  0  0
 17 23  1  0  0  0  0
 17 16  2  0  0  0  0
 18  9  1  0  0  0  0
 19 11  1  0  0  0  0
 24 26  1  0  0  0  0
 24  1  1  0  0  0  0
 25 24  2  0  0  0  0
 26 34  1  0  0  0  0
 27 29  1  0  0  0  0
 27 26  2  0  0  0  0
 28 27  1  0  0  0  0
 29 30  2  0  0  0  0
 30 31  1  0  0  0  0
 30 32  1  0  0  0  0
 32 33  1  0  0  0  0
 34 32  2  0  0  0  0
M  END
>  <minimizedAffinity>
-6.51635408

$$$$

 OpenBabel03252504013D

 34 37  0  0  0  0  0  0  0  0999 V2000
   36.8970   28.6620   41.9930 C   0  0  0  0  0  0  0  0  0  0  0  0
   35.7730   28.6130   41.1570 C   0  0  0  0  0  0  0  0  0  0  0  0
   35.6490   29.6030   40.1970 C   0  0  0  0  0  0  0  0  0  0  0  0
   36.6020   30.5570   40.1130 N   0  0  0  0  0  0  0  0  0  0  0  0
   37.6730   30.5680   40.9430 C   0  0  0  0  0  0  0  0  0  0  0  0
   37.8230   29.6280   41.8780 N   0  0  0  0  0  0  0  0  0  0  0  0
   35.0110   27.8410   41.2320 H   0  0  0  0  0  0  0  0  0  0  0  0
   34.7780   29.5780   39.5390 H   0  0  0  0  0  0  0  0  0  0  0  0
   38.3750   32.7650   40.1260 C   0  0  0  0  0  0  0  0  0  0  0  0
   38.7000   31.6100   40.8360 C   0  0  0  0  0  0  0  0  0  0  0  0
   39.9510   31.4920   41.4030 C   0  0  0  0  0  0  0  0  0  0  0  0
   40.8580   32.5280   41.2530 C   0  0  0  0  0  0  0  0  0  0  0  0
   42.1210   32.6920   41.6830 N   0  0  0  0  0  0  0  0  0  0  0  0
   42.6020   33.8900   41.2800 C   0  0  0  0  0  0  0  0  0  0  0  0
   41.6090   34.5350   40.5530 C   0  0  0  0  0  0  0  0  0  0  0  0
   40.5180   33.6900   40.5340 C   0  0  0  0  0  0  0  0  0  0  0  0
   39.2730   33.7960   39.9750 C   0  0  0  0  0  0  0  0  0  0  0  0
   37.3970   32.8770   39.6740 H   0  0  0  0  0  0  0  0  0  0  0  0
   40.1840   30.5970   41.9450 H   0  0  0  0  0  0  0  0  0  0  0  0
   42.6540   31.9860   42.2540 H   0  0  0  0  0  0  0  0  0  0  0  0
   43.6010   34.2530   41.5040 H   0  0  0  0  0  0  0  0  0  0  0  0
   41.7000   35.5240   40.0950 H   0  0  0  0  0  0  0  0  0  0  0  0
   39.0380   34.6910   39.4320 H   0  0  0  0  0  0  0  0  0  0  0  0
   36.9660   27.6060   42.9660 C   0  0  0  0  0  0  0  0  0  0  0  0
   36.0990   27.3490   43.8500 O   0  0  0  0  0  0  0  0  0  0  0  0
   38.0990   26.6940   43.0190 C   0  0  0  0  0  0  0  0  0  0  0  0
   39.2400   26.8990   43.7690 C   0  0  0  0  0  0  0  0  0  0  0  0
   39.2970   27.8150   44.3700 H   0  0  0  0  0  0  0  0  0  0  0  0
   40.2870   26.0060   43.7850 C   0  0  0  0  0  3  0  0  0  0  0  0
   40.1930   24.8620   43.0270 C   0  0  0  0  0  0  0  0  0  0  0  0
   41.0050   24.1360   43.0170 H   0  0  0  0  0  0  0  0  0  0  0  0
   39.0920   24.5930   42.2590 C   0  0  0  0  0  0  0  0  0  0  0  0
   38.9690   23.6990   41.6360 H   0  0  0  0  0  0  0  0  0  0  0  0
   38.0590   25.5220   42.2710 C   0  0  0  0  0  3  0  0  0  0  0  0
  1 24  1  0  0  0  0
  2  7  1  0  0  0  0
  2  1  2  0  0  0  0
  3  2  1  0  0  0  0
  4  3  2  0  0  0  0
  4  5  1  0  0  0  0
  5  6  2  0  0  0  0
  6  1  1  0  0  0  0
  8  3  1  0  0  0  0
  9 10  1  0  0  0  0
 10  5  1  0  0  0  0
 10 11  2  0  0  0  0
 11 19  1  0  0  0  0
 12 11  1  0  0  0  0
 12 13  1  0  0  0  0
 13 20  1  0  0  0  0
 14 21  1  0  0  0  0
 14 13  1  0  0  0  0
 15 14  2  0  0  0  0
 16 15  1  0  0  0  0
 16 12  2  0  0  0  0
 17  9  2  0  0  0  0
 17 16  1  0  0  0  0
 18  9  1  0  0  0  0
 22 15  1  0  0  0  0
 23 17  1  0  0  0  0
 24 26  1  0  0  0  0
 24 25  2  0  0  0  0
 26 27  1  0  0  0  0
 27 29  2  0  0  0  0
 27 28  1  0  0  0  0
 30 29  1  0  0  0  0
 31 30  1  0  0  0  0
 32 34  1  0  0  0  0
 32 30  2  0  0  0  0
 33 32  1  0  0  0  0
 34 26  2  0  0  0  0
M  END
>  <minimizedAffinity>
-6.49698257

$$$$

 OpenBabel03252504013D

 34 37  0  0  0  0  0  0  0  0999 V2000
   36.8210   28.5410   41.8680 C   0  0  0  0  0  0  0  0  0  0  0  0
   37.5710   29.6940   42.1400 C   0  0  0  0  0  0  0  0  0  0  0  0
   37.5610   30.7000   41.1890 C   0  0  0  0  0  0  0  0  0  0  0  0
   36.8410   30.5270   40.0590 N   0  0  0  0  0  0  0  0  0  0  0  0
   36.1290   29.3960   39.8350 C   0  0  0  0  0  0  0  0  0  0  0  0
   36.1160   28.4070   40.7320 N   0  0  0  0  0  0  0  0  0  0  0  0
   38.1480   29.8240   43.0510 H   0  0  0  0  0  0  0  0  0  0  0  0
   38.1420   31.6040   41.3870 H   0  0  0  0  0  0  0  0  0  0  0  0
   36.0250   29.3490   37.3910 C   0  0  0  0  0  0  0  0  0  0  0  0
   35.3500   29.2260   38.6040 C   0  0  0  0  0  0  0  0  0  0  0  0
   33.9980   28.9520   38.6030 C   0  0  0  0  0  0  0  0  0  0  0  0
   33.3430   28.8050   37.3920 C   0  0  0  0  0  0  0  0  0  0  0  0
   32.0610   28.5410   37.0850 N   0  0  0  0  0  0  0  0  0  0  0  0
   31.9000   28.4940   35.7430 C   0  0  0  0  0  0  0  0  0  0  0  0
   33.1320   28.7370   35.1490 C   0  0  0  0  0  0  0  0  0  0  0  0
   34.0350   28.9310   36.1740 C   0  0  0  0  0  0  0  0  0  0  0  0
   35.3770   29.2040   36.1870 C   0  0  0  0  0  0  0  0  0  0  0  0
   37.0870   29.5630   37.3720 H   0  0  0  0  0  0  0  0  0  0  0  0
   33.4940   28.8600   39.5450 H   0  0  0  0  0  0  0  0  0  0  0  0
   31.2950   28.3930   37.7930 H   0  0  0  0  0  0  0  0  0  0  0  0
   30.9530   28.2950   35.2490 H   0  0  0  0  0  0  0  0  0  0  0  0
   33.3220   28.7630   34.0720 H   0  0  0  0  0  0  0  0  0  0  0  0
   35.8830   29.2960   35.2450 H   0  0  0  0  0  0  0  0  0  0  0  0
   36.8730   27.5370   42.8940 C   0  0  0  0  0  0  0  0  0  0  0  0
   36.0700   27.4190   43.8640 O   0  0  0  0  0  0  0  0  0  0  0  0
   37.9080   26.5130   42.9050 C   0  0  0  0  0  0  0  0  0  0  0  0
   37.8430   25.3210   42.2140 C   0  0  0  0  0  0  0  0  0  0  0  0
   36.9470   25.1300   41.6090 H   0  0  0  0  0  0  0  0  0  0  0  0
   38.8490   24.3830   42.2570 C   0  0  0  0  0  3  0  0  0  0  0  0
   39.9650   24.6430   43.0170 C   0  0  0  0  0  0  0  0  0  0  0  0
   40.7780   23.9210   43.0740 H   0  0  0  0  0  0  0  0  0  0  0  0
   40.0980   25.8040   43.7300 C   0  0  0  0  0  0  0  0  0  0  0  0
   40.9640   26.0590   44.3520 H   0  0  0  0  0  0  0  0  0  0  0  0
   39.0580   26.7230   43.6590 C   0  0  0  0  0  3  0  0  0  0  0  0
  1  2  1  0  0  0  0
  1 24  1  0  0  0  0
  2  7  1  0  0  0  0
  3  8  1  0  0  0  0
  3  2  2  0  0  0  0
  4  3  1  0  0  0  0
  5  4  2  0  0  0  0
  5  6  1  0  0  0  0
  6  1  2  0  0  0  0
  9 10  1  0  0  0  0
 10  5  1  0  0  0  0
 11 10  2  0  0  0  0
 11 19  1  0  0  0  0
 12 11  1  0  0  0  0
 13 12  1  0  0  0  0
 13 20  1  0  0  0  0
 14 13  1  0  0  0  0
 15 14  2  0  0  0  0
 15 16  1  0  0  0  0
 16 17  1  0  0  0  0
 16 12  2  0  0  0  0
 17  9  2  0  0  0  0
 18  9  1  0  0  0  0
 21 14  1  0  0  0  0
 22 15  1  0  0  0  0
 23 17  1  0  0  0  0
 24 26  1  0  0  0  0
 24 25  2  0  0  0  0
 26 34  1  0  0  0  0
 27 29  1  0  0  0  0
 27 26  2  0  0  0  0
 28 27  1  0  0  0  0
 29 30  2  0  0  0  0
 30 31  1  0  0  0  0
 30 32  1  0  0  0  0
 32 33  1  0  0  0  0
 34 32  2  0  0  0  0
M  END
>  <minimizedAffinity>
-6.39161682

$$$$

 OpenBabel03252504013D

 34 37  0  0  0  0  0  0  0  0999 V2000
   36.9460   28.6970   41.6510 C   0  0  0  0  0  0  0  0  0  0  0  0
   35.7370   28.6830   40.9400 C   0  0  0  0  0  0  0  0  0  0  0  0
   35.6090   29.5700   39.8840 C   0  0  0  0  0  0  0  0  0  0  0  0
   36.6380   30.3940   39.5920 N   0  0  0  0  0  0  0  0  0  0  0  0
   37.7900   30.3750   40.3050 C   0  0  0  0  0  0  0  0  0  0  0  0
   37.9470   29.5330   41.3280 N   0  0  0  0  0  0  0  0  0  0  0  0
   34.9150   28.0160   41.1830 H   0  0  0  0  0  0  0  0  0  0  0  0
   34.6720   29.5710   39.3220 H   0  0  0  0  0  0  0  0  0  0  0  0
   39.5990   31.8560   41.0290 C   0  0  0  0  0  0  0  0  0  0  0  0
   38.8990   31.2770   39.9720 C   0  0  0  0  0  0  0  0  0  0  0  0
   39.2680   31.5650   38.6750 C   0  0  0  0  0  0  0  0  0  0  0  0
   40.3290   32.4270   38.4540 C   0  0  0  0  0  0  0  0  0  0  0  0
   40.9030   32.8820   37.3270 N   0  0  0  0  0  0  0  0  0  0  0  0
   41.9240   33.7170   37.6250 C   0  0  0  0  0  0  0  0  0  0  0  0
   42.0220   33.8100   39.0070 C   0  0  0  0  0  0  0  0  0  0  0  0
   41.0290   33.0060   39.5290 C   0  0  0  0  0  0  0  0  0  0  0  0
   40.6530   32.7120   40.8130 C   0  0  0  0  0  0  0  0  0  0  0  0
   39.3230   31.6410   42.0550 H   0  0  0  0  0  0  0  0  0  0  0  0
   38.7190   31.1110   37.8740 H   0  0  0  0  0  0  0  0  0  0  0  0
   40.5960   32.6230   36.3530 H   0  0  0  0  0  0  0  0  0  0  0  0
   42.5430   34.2130   36.8820 H   0  0  0  0  0  0  0  0  0  0  0  0
   42.7550   34.4110   39.5530 H   0  0  0  0  0  0  0  0  0  0  0  0
   41.2010   33.1660   41.6160 H   0  0  0  0  0  0  0  0  0  0  0  0
   37.0150   27.7540   42.7330 C   0  0  0  0  0  0  0  0  0  0  0  0
   36.2060   27.6690   43.7010 O   0  0  0  0  0  0  0  0  0  0  0  0
   38.0780   26.7620   42.8110 C   0  0  0  0  0  0  0  0  0  0  0  0
   38.1460   25.6200   42.0400 C   0  0  0  0  0  0  0  0  0  0  0  0
   37.3430   25.4460   41.3120 H   0  0  0  0  0  0  0  0  0  0  0  0
   39.1730   24.7100   42.1510 C   0  0  0  0  0  3  0  0  0  0  0  0
   40.1710   24.9470   43.0670 C   0  0  0  0  0  0  0  0  0  0  0  0
   40.9970   24.2470   43.1810 H   0  0  0  0  0  0  0  0  0  0  0  0
   40.1680   26.0590   43.8660 C   0  0  0  0  0  0  0  0  0  0  0  0
   40.9380   26.2940   44.6120 H   0  0  0  0  0  0  0  0  0  0  0  0
   39.1130   26.9510   43.7200 C   0  0  0  0  0  3  0  0  0  0  0  0
  1 24  1  0  0  0  0
  2  7  1  0  0  0  0
  2  1  2  0  0  0  0
  3  2  1  0  0  0  0
  4  3  2  0  0  0  0
  4  5  1  0  0  0  0
  5  6  2  0  0  0  0
  6  1  1  0  0  0  0
  8  3  1  0  0  0  0
  9 18  1  0  0  0  0
 10  5  1  0  0  0  0
 10  9  2  0  0  0  0
 11 10  1  0  0  0  0
 12 11  2  0  0  0  0
 12 16  1  0  0  0  0
 13 14  1  0  0  0  0
 13 12  1  0  0  0  0
 14 15  2  0  0  0  0
 15 16  1  0  0  0  0
 15 22  1  0  0  0  0
 16 17  2  0  0  0  0
 17  9  1  0  0  0  0
 17 23  1  0  0  0  0
 19 11  1  0  0  0  0
 20 13  1  0  0  0  0
 21 14  1  0  0  0  0
 24 26  1  0  0  0  0
 24 25  2  0  0  0  0
 26 34  1  0  0  0  0
 27 29  1  0  0  0  0
 27 26  2  0  0  0  0
 28 27  1  0  0  0  0
 29 30  2  0  0  0  0
 30 31  1  0  0  0  0
 30 32  1  0  0  0  0
 32 33  1  0  0  0  0
 34 32  2  0  0  0  0
M  END
>  <minimizedAffinity>
-6.34555197

$$$$

 OpenBabel03252504013D

 34 37  0  0  0  0  0  0  0  0999 V2000
   38.8290   31.4230   41.0250 C   0  0  0  0  0  0  0  0  0  0  0  0
   38.7630   32.8240   41.0480 C   0  0  0  0  0  0  0  0  0  0  0  0
   38.0430   33.4450   40.0410 C   0  0  0  0  0  0  0  0  0  0  0  0
   37.4470   32.6840   39.0970 N   0  0  0  0  0  0  0  0  0  0  0  0
   37.5360   31.3320   39.1110 C   0  0  0  0  0  0  0  0  0  0  0  0
   38.2210   30.7020   40.0680 N   0  0  0  0  0  0  0  0  0  0  0  0
   39.2460   33.4270   41.8120 H   0  0  0  0  0  0  0  0  0  0  0  0
   37.9840   34.5360   40.0460 H   0  0  0  0  0  0  0  0  0  0  0  0
   35.7820   29.7550   38.4620 C   0  0  0  0  0  0  0  0  0  0  0  0
   36.8810   30.5220   38.0790 C   0  0  0  0  0  0  0  0  0  0  0  0
   37.3040   30.4930   36.7670 C   0  0  0  0  0  0  0  0  0  0  0  0
   36.6230   29.7000   35.8590 C   0  0  0  0  0  0  0  0  0  0  0  0
   36.8000   29.4760   34.5450 N   0  0  0  0  0  0  0  0  0  0  0  0
   35.8690   28.6080   34.0880 C   0  0  0  0  0  0  0  0  0  0  0  0
   35.0480   28.2500   35.1500 C   0  0  0  0  0  0  0  0  0  0  0  0
   35.5140   28.9300   36.2570 C   0  0  0  0  0  0  0  0  0  0  0  0
   35.1040   28.9660   37.5630 C   0  0  0  0  0  0  0  0  0  0  0  0
   35.4350   29.7650   39.4890 H   0  0  0  0  0  0  0  0  0  0  0  0
   38.1500   31.0900   36.4890 H   0  0  0  0  0  0  0  0  0  0  0  0
   37.5570   29.9160   33.9600 H   0  0  0  0  0  0  0  0  0  0  0  0
   35.8040   28.2700   33.0570 H   0  0  0  0  0  0  0  0  0  0  0  0
   34.2010   27.5610   35.0930 H   0  0  0  0  0  0  0  0  0  0  0  0
   34.2570   28.3700   37.8430 H   0  0  0  0  0  0  0  0  0  0  0  0
   39.5890   30.8420   42.0970 C   0  0  0  0  0  0  0  0  0  0  0  0
   40.6050   31.3510   42.6510 O   0  0  0  0  0  0  0  0  0  0  0  0
   39.2360   29.5490   42.6660 C   0  0  0  0  0  0  0  0  0  0  0  0
   37.9950   29.2270   43.1760 C   0  0  0  0  0  0  0  0  0  0  0  0
   37.2160   29.9990   43.1480 H   0  0  0  0  0  0  0  0  0  0  0  0
   37.7100   27.9890   43.7050 C   0  0  0  0  0  3  0  0  0  0  0  0
   38.6990   27.0350   43.7280 C   0  0  0  0  0  0  0  0  0  0  0  0
   38.5060   26.0460   44.1410 H   0  0  0  0  0  0  0  0  0  0  0  0
   39.9540   27.2840   43.2410 C   0  0  0  0  0  0  0  0  0  0  0  0
   40.7780   26.5600   43.2360 H   0  0  0  0  0  0  0  0  0  0  0  0
   40.1990   28.5470   42.7150 C   0  0  0  0  0  3  0  0  0  0  0  0
  1  2  1  0  0  0  0
  1 24  1  0  0  0  0
  2  7  1  0  0  0  0
  3  8  1  0  0  0  0
  3  2  2  0  0  0  0
  4  5  2  0  0  0  0
  4  3  1  0  0  0  0
  5  6  1  0  0  0  0
  6  1  2  0  0  0  0
  9 18  1  0  0  0  0
 10  9  1  0  0  0  0
 10  5  1  0  0  0  0
 11 10  2  0  0  0  0
 12 16  2  0  0  0  0
 12 11  1  0  0  0  0
 13 12  1  0  0  0  0
 14 13  1  0  0  0  0
 14 15  2  0  0  0  0
 15 16  1  0  0  0  0
 16 17  1  0  0  0  0
 17 23  1  0  0  0  0
 17  9  2  0  0  0  0
 19 11  1  0  0  0  0
 20 13  1  0  0  0  0
 21 14  1  0  0  0  0
 22 15  1  0  0  0  0
 24 25  2  0  0  0  0
 24 26  1  0  0  0  0
 26 34  2  0  0  0  0
 26 27  1  0  0  0  0
 27 29  2  0  0  0  0
 28 27  1  0  0  0  0
 29 30  1  0  0  0  0
 30 31  1  0  0  0  0
 32 30  2  0  0  0  0
 33 32  1  0  0  0  0
 34 32  1  0  0  0  0
M  END
>  <minimizedAffinity>
-6.32500982

$$$$

 OpenBabel03252504013D

 34 37  0  0  0  0  0  0  0  0999 V2000
   33.5780   28.9380   36.7140 C   0  0  0  0  0  0  0  0  0  0  0  0
   34.3860   28.9870   35.5690 C   0  0  0  0  0  0  0  0  0  0  0  0
   35.7570   29.0160   35.7560 C   0  0  0  0  0  0  0  0  0  0  0  0
   36.2470   28.9960   37.0150 N   0  0  0  0  0  0  0  0  0  0  0  0
   35.4310   28.9490   38.0960 C   0  0  0  0  0  0  0  0  0  0  0  0
   34.1040   28.9190   37.9500 N   0  0  0  0  0  0  0  0  0  0  0  0
   33.9830   29.0020   34.5590 H   0  0  0  0  0  0  0  0  0  0  0  0
   36.3990   29.0550   34.8730 H   0  0  0  0  0  0  0  0  0  0  0  0
   36.1570   30.1480   40.1010 C   0  0  0  0  0  0  0  0  0  0  0  0
   35.9800   28.9260   39.4560 C   0  0  0  0  0  0  0  0  0  0  0  0
   36.3190   27.7590   40.1090 C   0  0  0  0  0  0  0  0  0  0  0  0
   36.8290   27.8320   41.3940 C   0  0  0  0  0  0  0  0  0  0  0  0
   37.2380   26.8870   42.2580 N   0  0  0  0  0  0  0  0  0  0  0  0
   37.6620   27.4560   43.4090 C   0  0  0  0  0  0  0  0  0  0  0  0
   37.5240   28.8330   43.2910 C   0  0  0  0  0  0  0  0  0  0  0  0
   37.0040   29.0730   42.0350 C   0  0  0  0  0  0  0  0  0  0  0  0
   36.6640   30.2240   41.3770 C   0  0  0  0  0  0  0  0  0  0  0  0
   35.8960   31.0760   39.6040 H   0  0  0  0  0  0  0  0  0  0  0  0
   36.1760   26.8270   39.5980 H   0  0  0  0  0  0  0  0  0  0  0  0
   37.2270   25.8520   42.0610 H   0  0  0  0  0  0  0  0  0  0  0  0
   38.0410   26.8990   44.2620 H   0  0  0  0  0  0  0  0  0  0  0  0
   37.7840   29.5650   44.0610 H   0  0  0  0  0  0  0  0  0  0  0  0
   36.8070   31.1580   41.8860 H   0  0  0  0  0  0  0  0  0  0  0  0
   32.1660   28.9090   36.4500 C   0  0  0  0  0  0  0  0  0  0  0  0
   31.4980   27.9040   36.0770 O   0  0  0  0  0  0  0  0  0  0  0  0
   31.3400   30.0990   36.6000 C   0  0  0  0  0  0  0  0  0  0  0  0
   30.6430   30.4330   37.7430 C   0  0  0  0  0  0  0  0  0  0  0  0
   30.7160   29.7550   38.6030 H   0  0  0  0  0  0  0  0  0  0  0  0
   29.8730   31.5710   37.8350 C   0  0  0  0  0  3  0  0  0  0  0  0
   29.7960   32.4080   36.7470 C   0  0  0  0  0  0  0  0  0  0  0  0
   29.1950   33.3160   36.7870 H   0  0  0  0  0  0  0  0  0  0  0  0
   30.4610   32.1400   35.5810 C   0  0  0  0  0  0  0  0  0  0  0  0
   30.4320   32.7730   34.6860 H   0  0  0  0  0  0  0  0  0  0  0  0
   31.2260   30.9810   35.5310 C   0  0  0  0  0  3  0  0  0  0  0  0
  1  6  1  0  0  0  0
  2  3  1  0  0  0  0
  2  1  2  0  0  0  0
  3  4  2  0  0  0  0
  4  5  1  0  0  0  0
  5 10  1  0  0  0  0
  6  5  2  0  0  0  0
  7  2  1  0  0  0  0
  8  3  1  0  0  0  0
  9 17  1  0  0  0  0
 10  9  2  0  0  0  0
 10 11  1  0  0  0  0
 11 12  2  0  0  0  0
 12 16  1  0  0  0  0
 12 13  1  0  0  0  0
 13 14  1  0  0  0  0
 14 21  1  0  0  0  0
 15 14  2  0  0  0  0
 15 22  1  0  0  0  0
 16 15  1  0  0  0  0
 17 23  1  0  0  0  0
 17 16  2  0  0  0  0
 18  9  1  0  0  0  0
 19 11  1  0  0  0  0
 20 13  1  0  0  0  0
 24 26  1  0  0  0  0
 24  1  1  0  0  0  0
 25 24  2  0  0  0  0
 26 27  1  0  0  0  0
 27 29  2  0  0  0  0
 27 28  1  0  0  0  0
 30 31  1  0  0  0  0
 30 29  1  0  0  0  0
 32 30  2  0  0  0  0
 33 32  1  0  0  0  0
 34 32  1  0  0  0  0
 34 26  2  0  0  0  0
M  END
>  <minimizedAffinity>
-6.15494776

$$$$

 OpenBabel03252504013D

 34 37  0  0  0  0  0  0  0  0999 V2000
   37.5340   26.6220   41.3910 C   0  0  0  0  0  0  0  0  0  0  0  0
   36.9400   26.3330   42.6270 C   0  0  0  0  0  0  0  0  0  0  0  0
   36.7100   27.3930   43.4880 C   0  0  0  0  0  0  0  0  0  0  0  0
   37.0640   28.6380   43.1020 N   0  0  0  0  0  0  0  0  0  0  0  0
   37.6370   28.8750   41.8970 C   0  0  0  0  0  0  0  0  0  0  0  0
   37.8720   27.8750   41.0440 N   0  0  0  0  0  0  0  0  0  0  0  0
   36.6580   25.3270   42.9290 H   0  0  0  0  0  0  0  0  0  0  0  0
   36.2480   27.1820   44.4550 H   0  0  0  0  0  0  0  0  0  0  0  0
   39.3090   30.6580   41.7860 C   0  0  0  0  0  0  0  0  0  0  0  0
   38.0140   30.2340   41.4940 C   0  0  0  0  0  0  0  0  0  0  0  0
   37.1490   31.0910   40.8470 C   0  0  0  0  0  0  0  0  0  0  0  0
   37.5910   32.3570   40.5020 C   0  0  0  0  0  0  0  0  0  0  0  0
   36.9880   33.3860   39.8800 N   0  0  0  0  0  0  0  0  0  0  0  0
   37.8400   34.4300   39.7680 C   0  0  0  0  0  0  0  0  0  0  0  0
   39.0510   34.0680   40.3430 C   0  0  0  0  0  0  0  0  0  0  0  0
   38.9010   32.7740   40.8020 C   0  0  0  0  0  0  0  0  0  0  0  0
   39.7510   31.9150   41.4450 C   0  0  0  0  0  0  0  0  0  0  0  0
   40.0030   29.9980   42.2930 H   0  0  0  0  0  0  0  0  0  0  0  0
   36.1560   30.7490   40.6300 H   0  0  0  0  0  0  0  0  0  0  0  0
   35.9940   33.3730   39.5310 H   0  0  0  0  0  0  0  0  0  0  0  0
   37.5840   35.3780   39.3020 H   0  0  0  0  0  0  0  0  0  0  0  0
   39.9390   34.7040   40.4060 H   0  0  0  0  0  0  0  0  0  0  0  0
   40.7440   32.2560   41.6620 H   0  0  0  0  0  0  0  0  0  0  0  0
   37.7450   25.4790   40.5460 C   0  0  0  0  0  0  0  0  0  0  0  0
   38.8310   24.8470   40.4030 O   0  0  0  0  0  0  0  0  0  0  0  0
   36.6690   24.9210   39.7390 C   0  0  0  0  0  0  0  0  0  0  0  0
   36.1850   25.4830   38.5760 C   0  0  0  0  0  0  0  0  0  0  0  0
   36.6450   26.4180   38.2300 H   0  0  0  0  0  0  0  0  0  0  0  0
   35.1630   24.9170   37.8470 C   0  0  0  0  0  3  0  0  0  0  0  0
   34.6030   23.7430   38.2950 C   0  0  0  0  0  0  0  0  0  0  0  0
   33.7920   23.2700   37.7430 H   0  0  0  0  0  0  0  0  0  0  0  0
   35.0320   23.1290   39.4420 C   0  0  0  0  0  0  0  0  0  0  0  0
   34.6190   22.1960   39.8420 H   0  0  0  0  0  0  0  0  0  0  0  0
   36.0650   23.7360   40.1460 C   0  0  0  0  0  3  0  0  0  0  0  0
  1  2  1  0  0  0  0
  2  7  1  0  0  0  0
  2  3  2  0  0  0  0
  3  8  1  0  0  0  0
  4  3  1  0  0  0  0
  5  4  2  0  0  0  0
  6  1  2  0  0  0  0
  6  5  1  0  0  0  0
  9 18  1  0  0  0  0
 10  9  1  0  0  0  0
 10  5  1  0  0  0  0
 11 10  2  0  0  0  0
 12 16  2  0  0  0  0
 12 11  1  0  0  0  0
 13 12  1  0  0  0  0
 14 13  1  0  0  0  0
 14 15  2  0  0  0  0
 15 22  1  0  0  0  0
 15 16  1  0  0  0  0
 16 17  1  0  0  0  0
 17 23  1  0  0  0  0
 17  9  2  0  0  0  0
 19 11  1  0  0  0  0
 20 13  1  0  0  0  0
 21 14  1  0  0  0  0
 24  1  1  0  0  0  0
 25 24  2  0  0  0  0
 26 34  1  0  0  0  0
 26 24  1  0  0  0  0
 27 26  2  0  0  0  0
 28 27  1  0  0  0  0
 29 30  2  0  0  0  0
 29 27  1  0  0  0  0
 30 32  1  0  0  0  0
 31 30  1  0  0  0  0
 32 33  1  0  0  0  0
 32 34  2  0  0  0  0
M  END
>  <minimizedAffinity>
-6.14129734

$$$$

 OpenBabel03252504013D

 34 37  0  0  0  0  0  0  0  0999 V2000
   33.2270   28.1490   36.7410 C   0  0  0  0  0  0  0  0  0  0  0  0
   33.6110   26.8010   36.7300 C   0  0  0  0  0  0  0  0  0  0  0  0
   34.7730   26.4630   37.4030 C   0  0  0  0  0  0  0  0  0  0  0  0
   35.4730   27.4340   38.0290 N   0  0  0  0  0  0  0  0  0  0  0  0
   35.0670   28.7270   38.0150 C   0  0  0  0  0  0  0  0  0  0  0  0
   33.9510   29.0860   37.3760 N   0  0  0  0  0  0  0  0  0  0  0  0
   33.0410   26.0260   36.2240 H   0  0  0  0  0  0  0  0  0  0  0  0
   35.0850   25.4170   37.4020 H   0  0  0  0  0  0  0  0  0  0  0  0
   35.6260   29.9320   40.0700 C   0  0  0  0  0  0  0  0  0  0  0  0
   35.8380   29.7680   38.7020 C   0  0  0  0  0  0  0  0  0  0  0  0
   36.7510   30.5760   38.0560 C   0  0  0  0  0  0  0  0  0  0  0  0
   37.4370   31.5320   38.7860 C   0  0  0  0  0  0  0  0  0  0  0  0
   38.3640   32.4410   38.4360 N   0  0  0  0  0  0  0  0  0  0  0  0
   38.7420   33.1640   39.5150 C   0  0  0  0  0  0  0  0  0  0  0  0
   38.0290   32.7070   40.6160 C   0  0  0  0  0  0  0  0  0  0  0  0
   37.2140   31.6880   40.1660 C   0  0  0  0  0  0  0  0  0  0  0  0
   36.3050   30.8820   40.7970 C   0  0  0  0  0  0  0  0  0  0  0  0
   34.9130   29.3070   40.5950 H   0  0  0  0  0  0  0  0  0  0  0  0
   36.9030   30.4360   37.0040 H   0  0  0  0  0  0  0  0  0  0  0  0
   38.7400   32.5660   37.4600 H   0  0  0  0  0  0  0  0  0  0  0  0
   39.4810   33.9600   39.4870 H   0  0  0  0  0  0  0  0  0  0  0  0
   38.1170   33.0970   41.6350 H   0  0  0  0  0  0  0  0  0  0  0  0
   36.1520   31.0200   41.8500 H   0  0  0  0  0  0  0  0  0  0  0  0
   32.0130   28.4320   36.0260 C   0  0  0  0  0  0  0  0  0  0  0  0
   31.2390   27.5790   35.5040 O   0  0  0  0  0  0  0  0  0  0  0  0
   31.5450   29.7970   35.8320 C   0  0  0  0  0  0  0  0  0  0  0  0
   30.8330   30.5240   36.7640 C   0  0  0  0  0  0  0  0  0  0  0  0
   30.6040   30.0410   37.7220 H   0  0  0  0  0  0  0  0  0  0  0  0
   30.4100   31.8140   36.5330 C   0  0  0  0  0  3  0  0  0  0  0  0
   30.7100   32.4020   35.3270 C   0  0  0  0  0  0  0  0  0  0  0  0
   30.3900   33.4210   35.1120 H   0  0  0  0  0  0  0  0  0  0  0  0
   31.4130   31.7410   34.3550 C   0  0  0  0  0  0  0  0  0  0  0  0
   31.6760   32.1630   33.3780 H   0  0  0  0  0  0  0  0  0  0  0  0
   31.8190   30.4410   34.6300 C   0  0  0  0  0  3  0  0  0  0  0  0
  1  6  1  0  0  0  0
  2  1  2  0  0  0  0
  2  3  1  0  0  0  0
  3  4  2  0  0  0  0
  5  4  1  0  0  0  0
  5 10  1  0  0  0  0
  6  5  2  0  0  0  0
  7  2  1  0  0  0  0
  8  3  1  0  0  0  0
  9 18  1  0  0  0  0
  9 17  1  0  0  0  0
 10  9  2  0  0  0  0
 11 10  1  0  0  0  0
 11 12  2  0  0  0  0
 12 16  1  0  0  0  0
 13 12  1  0  0  0  0
 13 14  1  0  0  0  0
 14 15  2  0  0  0  0
 15 22  1  0  0  0  0
 16 15  1  0  0  0  0
 16 17  2  0  0  0  0
 17 23  1  0  0  0  0
 19 11  1  0  0  0  0
 20 13  1  0  0  0  0
 21 14  1  0  0  0  0
 24  1  1  0  0  0  0
 25 24  2  0  0  0  0
 26 24  1  0  0  0  0
 26 27  1  0  0  0  0
 27 28  1  0  0  0  0
 29 27  2  0  0  0  0
 30 29  1  0  0  0  0
 31 30  1  0  0  0  0
 32 34  1  0  0  0  0
 32 30  2  0  0  0  0
 33 32  1  0  0  0  0
 34 26  2  0  0  0  0
M  END
>  <minimizedAffinity>
-6.05384016

$$$$

 OpenBabel03252504013D

 34 37  0  0  0  0  0  0  0  0999 V2000
   33.7000   28.9810   35.8480 C   0  0  0  0  0  0  0  0  0  0  0  0
   34.6370   29.1960   34.8270 C   0  0  0  0  0  0  0  0  0  0  0  0
   35.9770   29.1570   35.1730 C   0  0  0  0  0  0  0  0  0  0  0  0
   36.3140   28.9170   36.4590 N   0  0  0  0  0  0  0  0  0  0  0  0
   35.3760   28.7140   37.4160 C   0  0  0  0  0  0  0  0  0  0  0  0
   34.0760   28.7450   37.1150 N   0  0  0  0  0  0  0  0  0  0  0  0
   34.3560   29.3890   33.7950 H   0  0  0  0  0  0  0  0  0  0  0  0
   36.7180   29.3230   34.3890 H   0  0  0  0  0  0  0  0  0  0  0  0
   35.5450   29.4670   39.7380 C   0  0  0  0  0  0  0  0  0  0  0  0
   35.7610   28.4530   38.8070 C   0  0  0  0  0  0  0  0  0  0  0  0
   36.3170   27.2600   39.2200 C   0  0  0  0  0  0  0  0  0  0  0  0
   36.6480   27.1000   40.5550 C   0  0  0  0  0  0  0  0  0  0  0  0
   37.1910   26.0740   41.2340 N   0  0  0  0  0  0  0  0  0  0  0  0
   37.3260   26.3960   42.5410 C   0  0  0  0  0  0  0  0  0  0  0  0
   36.8500   27.6880   42.7220 C   0  0  0  0  0  0  0  0  0  0  0  0
   36.4250   28.1320   41.4860 C   0  0  0  0  0  0  0  0  0  0  0  0
   35.8730   29.3110   41.0640 C   0  0  0  0  0  0  0  0  0  0  0  0
   35.1090   30.4110   39.4320 H   0  0  0  0  0  0  0  0  0  0  0  0
   36.4760   26.4900   38.4910 H   0  0  0  0  0  0  0  0  0  0  0  0
   37.4690   25.1540   40.8040 H   0  0  0  0  0  0  0  0  0  0  0  0
   37.7400   25.7300   43.2930 H   0  0  0  0  0  0  0  0  0  0  0  0
   36.8270   28.2280   43.6730 H   0  0  0  0  0  0  0  0  0  0  0  0
   35.7130   30.0830   41.7920 H   0  0  0  0  0  0  0  0  0  0  0  0
   32.3280   29.0350   35.4220 C   0  0  0  0  0  0  0  0  0  0  0  0
   31.6430   28.0640   34.9910 O   0  0  0  0  0  0  0  0  0  0  0  0
   31.5690   30.2770   35.4550 C   0  0  0  0  0  0  0  0  0  0  0  0
   31.4630   31.1610   34.4010 C   0  0  0  0  0  0  0  0  0  0  0  0
   31.9850   30.9100   33.4690 H   0  0  0  0  0  0  0  0  0  0  0  0
   30.7330   32.3260   34.4810 C   0  0  0  0  0  3  0  0  0  0  0  0
   30.0840   32.6200   35.6570 C   0  0  0  0  0  0  0  0  0  0  0  0
   29.4990   33.5340   35.7540 H   0  0  0  0  0  0  0  0  0  0  0  0
   30.1460   31.7900   36.7440 C   0  0  0  0  0  0  0  0  0  0  0  0
   29.6480   31.9790   37.7030 H   0  0  0  0  0  0  0  0  0  0  0  0
   30.8940   30.6250   36.6190 C   0  0  0  0  0  3  0  0  0  0  0  0
  1  6  1  0  0  0  0
  2  3  1  0  0  0  0
  2  1  2  0  0  0  0
  3  4  2  0  0  0  0
  4  5  1  0  0  0  0
  5 10  1  0  0  0  0
  6  5  2  0  0  0  0
  7  2  1  0  0  0  0
  8  3  1  0  0  0  0
  9 17  1  0  0  0  0
 10 11  1  0  0  0  0
 10  9  2  0  0  0  0
 11 12  2  0  0  0  0
 12 13  1  0  0  0  0
 12 16  1  0  0  0  0
 13 14  1  0  0  0  0
 14 15  2  0  0  0  0
 14 21  1  0  0  0  0
 15 22  1  0  0  0  0
 16 15  1  0  0  0  0
 17 16  2  0  0  0  0
 17 23  1  0  0  0  0
 18  9  1  0  0  0  0
 19 11  1  0  0  0  0
 20 13  1  0  0  0  0
 24 26  1  0  0  0  0
 24  1  1  0  0  0  0
 25 24  2  0  0  0  0
 26 34  1  0  0  0  0
 27 29  1  0  0  0  0
 27 26  2  0  0  0  0
 28 27  1  0  0  0  0
 29 30  2  0  0  0  0
 30 31  1  0  0  0  0
 30 32  1  0  0  0  0
 32 33  1  0  0  0  0
 34 32  2  0  0  0  0
M  END
>  <minimizedAffinity>
-5.96626377

$$$$
