
 OpenBabel03252503093D

 27 29  0  0  1  0  0  0  0  0999 V2000
   45.5830   35.3720   43.3690 C   0  0  0  0  0  0  0  0  0  0  0  0
   46.0650   34.1500   43.8800 C   0  0  0  0  0  0  0  0  0  0  0  0
   45.6770   33.8060   45.1460 C   0  0  0  0  0  0  0  0  0  0  0  0
   44.8650   34.5920   45.8890 N   0  0  0  0  0  0  0  0  0  0  0  0
   44.4080   35.7820   45.3590 C   0  0  0  0  0  0  0  0  0  0  0  0
   44.7610   36.1650   44.1230 N   0  0  0  0  0  0  0  0  0  0  0  0
   45.7970   35.7630   42.3960 H   0  0  0  0  0  0  0  0  0  0  0  0
   43.7720   36.3670   45.9960 H   0  0  0  0  0  0  0  0  0  0  0  0
   46.1370   32.6180   45.6930 C   0  0  0  0  0  0  0  0  0  0  0  0
   46.0710   31.3090   45.2960 C   0  0  0  0  0  0  0  0  0  0  0  0
   46.5930   30.3150   46.0010 C   0  0  0  0  0  0  0  0  0  0  0  0
   47.2380   30.6670   47.2040 C   0  0  0  0  0  0  0  0  0  0  0  0
   47.0420   32.5330   47.2560 S   0  0  0  0  0  0  0  0  0  0  0  0
   45.6870   30.7970   44.4980 H   0  0  0  0  0  0  0  0  0  0  0  0
   46.7520   29.2640   46.0530 H   0  0  0  0  0  0  0  0  0  0  0  0
   47.7820   30.3320   48.0820 H   0  0  0  0  0  0  0  0  0  0  0  0
   46.8570   33.3890   42.9990 C   0  0  2  0  0  0  0  0  0  0  0  0
   46.2160   32.6710   42.1190 O   0  0  0  0  0  0  0  0  0  0  0  0
   48.2680   33.0940   42.7330 C   0  0  0  0  0  0  0  0  0  0  0  0
   48.9700   34.3000   42.7150 C   0  0  0  0  0  0  0  0  0  0  0  0
   48.5860   35.3090   42.8670 H   0  0  0  0  0  0  0  0  0  0  0  0
   50.3520   34.3780   42.4910 C   0  0  0  0  0  0  0  0  0  0  0  0
   50.9500   33.1240   42.2860 C   0  0  0  0  0  0  0  0  0  0  0  0
   52.0160   33.0630   42.0940 H   0  0  0  0  0  0  0  0  0  0  0  0
   50.2730   31.9470   42.3010 C   0  0  0  0  0  0  0  0  0  0  0  0
   50.6680   30.9490   42.1520 H   0  0  0  0  0  0  0  0  0  0  0  0
   48.8970   31.9050   42.5290 C   0  0  0  0  0  0  0  0  0  0  0  0
  1  2  2  0  0  0  0
  1  6  1  0  0  0  0
  2  3  1  0  0  0  0
  3  9  1  0  0  0  0
  3  4  2  0  0  0  0
  5  4  1  0  0  0  0
  5  8  1  0  0  0  0
  6  5  2  0  0  0  0
  7  1  1  0  0  0  0
  9 13  1  0  0  0  0
 10  9  2  0  0  0  0
 10 11  1  0  0  0  0
 11 15  1  0  0  0  0
 11 12  2  0  0  0  0
 12 13  1  0  0  0  0
 12 16  1  0  0  0  0
 14 10  1  0  0  0  0
 17 18  1  1  0  0  0
 17  2  1  0  0  0  0
 19 17  1  0  0  0  0
 20 19  1  0  0  0  0
 20 21  1  0  0  0  0
 22 20  2  0  0  0  0
 23 25  2  0  0  0  0
 23 22  1  0  0  0  0
 24 23  1  0  0  0  0
 25 27  1  0  0  0  0
 26 25  1  0  0  0  0
 27 19  2  0  0  0  0
M  END
>  <minimizedAffinity>
-5.16998959

>  <minimizedRMSD>
3.09693646

$$$$
