
 OpenBabel03252502293D

 35 37  0  0  0  0  0  0  0  0999 V2000
   37.4320   31.3550   40.0110 C   0  0  0  0  0  0  0  0  0  0  0  0
   37.3410   32.6870   39.6200 C   0  0  0  0  0  0  0  0  0  0  0  0
   38.2730   33.5930   40.1110 C   0  0  0  0  0  0  0  0  0  0  0  0
   39.2580   33.1400   40.9720 C   0  0  0  0  0  0  0  0  0  0  0  0
   39.3590   31.8360   41.3640 C   0  0  0  0  0  0  0  0  0  0  0  0
   38.4130   30.9480   40.8570 C   0  0  0  0  0  0  0  0  0  0  0  0
   36.5600   33.0130   38.9470 H   0  0  0  0  0  0  0  0  0  0  0  0
   38.1560   34.6140   39.7770 H   0  0  0  0  0  0  0  0  0  0  0  0
   39.9300   33.9220   41.2960 H   0  0  0  0  0  0  0  0  0  0  0  0
   40.1390   31.5120   42.0370 H   0  0  0  0  0  0  0  0  0  0  0  0
   35.2860   29.2520   37.7260 C   0  0  0  0  0  0  0  0  0  0  0  0
   36.3080   30.1280   38.1340 C   0  0  0  0  0  0  0  0  0  0  0  0
   36.4250   30.4620   39.4560 C   0  0  0  0  0  0  0  0  0  0  0  0
   35.5230   29.9080   40.3050 N   0  0  0  0  0  0  0  0  0  0  0  0
   34.5420   29.0680   39.9130 C   0  0  0  0  0  0  0  0  0  0  0  0
   34.4260   28.7390   38.6120 N   0  0  0  0  0  0  0  0  0  0  0  0
   37.0130   30.5540   37.4360 H   0  0  0  0  0  0  0  0  0  0  0  0
   33.8700   28.6820   40.6970 H   0  0  0  0  0  0  0  0  0  0  0  0
   35.1530   28.8850   36.2970 C   0  0  0  0  0  0  0  0  0  0  0  0
   36.0780   29.6370   35.5760 F   0  0  0  0  0  0  0  0  0  0  0  0
   33.9080   29.3350   35.8770 F   0  0  0  0  0  0  0  0  0  0  0  0
   35.3380   27.5470   36.0590 F   0  0  0  0  0  0  0  0  0  0  0  0
   38.2580   28.8170   42.3750 C   0  0  0  0  0  0  0  0  0  0  0  0
   38.0700   29.3050   43.5060 O   0  0  0  0  0  0  0  0  0  0  0  0
   38.4280   29.5790   41.1790 N   0  0  0  0  0  0  0  0  0  0  0  0
   38.6170   29.1260   40.2550 H   0  0  0  0  0  0  0  0  0  0  0  0
   38.3090   27.3650   42.2720 C   0  0  0  0  0  0  0  0  0  0  0  0
   39.4360   26.5400   42.2010 C   0  0  0  0  0  0  0  0  0  0  0  0
   40.3780   27.0550   42.2230 H   0  0  0  0  0  0  0  0  0  0  0  0
   39.4400   25.1850   42.1090 C   0  0  0  0  0  3  0  0  0  0  0  0
   38.1990   24.5950   42.0850 C   0  0  0  0  0  0  0  0  0  0  0  0
   38.1500   23.5000   42.0120 H   0  0  0  0  0  0  0  0  0  0  0  0
   37.0110   25.2800   42.1460 C   0  0  0  0  0  0  0  0  0  0  0  0
   36.0490   24.7940   42.1250 H   0  0  0  0  0  0  0  0  0  0  0  0
   37.1230   26.6460   42.2390 C   0  0  0  0  0  3  0  0  0  0  0  0
  1  6  1  0  0  0  0
  2  1  2  0  0  0  0
  2  3  1  0  0  0  0
  3  4  2  0  0  0  0
  4  9  1  0  0  0  0
  4  5  1  0  0  0  0
  5 10  1  0  0  0  0
  6 25  1  0  0  0  0
  6  5  2  0  0  0  0
  7  2  1  0  0  0  0
  8  3  1  0  0  0  0
 11 12  2  0  0  0  0
 11 16  1  0  0  0  0
 12 13  1  0  0  0  0
 13  1  1  0  0  0  0
 13 14  2  0  0  0  0
 15 14  1  0  0  0  0
 15 18  1  0  0  0  0
 16 15  2  0  0  0  0
 17 12  1  0  0  0  0
 19 11  1  0  0  0  0
 20 19  1  0  0  0  0
 21 19  1  0  0  0  0
 22 19  1  0  0  0  0
 23 24  2  0  0  0  0
 25 23  1  0  0  0  0
 26 25  1  0  0  0  0
 27 23  1  0  0  0  0
 28 29  1  0  0  0  0
 28 27  2  0  0  0  0
 30 28  1  0  0  0  0
 31 30  2  0  0  0  0
 31 33  1  0  0  0  0
 32 31  1  0  0  0  0
 33 35  2  0  0  0  0
 34 33  1  0  0  0  0
 35 27  1  0  0  0  0
M  END
>  <minimizedAffinity>
-6.08749771

$$$$

 OpenBabel03252502293D

 35 37  0  0  0  0  0  0  0  0999 V2000
   37.0940   30.9370   39.1390 C   0  0  0  0  0  0  0  0  0  0  0  0
   37.2180   32.2840   38.8190 C   0  0  0  0  0  0  0  0  0  0  0  0
   37.9780   33.1000   39.6480 C   0  0  0  0  0  0  0  0  0  0  0  0
   38.5840   32.5460   40.7620 C   0  0  0  0  0  0  0  0  0  0  0  0
   38.4700   31.2250   41.0880 C   0  0  0  0  0  0  0  0  0  0  0  0
   37.7030   30.4280   40.2410 C   0  0  0  0  0  0  0  0  0  0  0  0
   36.7330   32.6910   37.9420 H   0  0  0  0  0  0  0  0  0  0  0  0
   38.0420   34.1380   39.3540 H   0  0  0  0  0  0  0  0  0  0  0  0
   39.1500   33.2640   41.3390 H   0  0  0  0  0  0  0  0  0  0  0  0
   38.9540   30.8210   41.9650 H   0  0  0  0  0  0  0  0  0  0  0  0
   35.6410   29.2210   36.1070 C   0  0  0  0  0  0  0  0  0  0  0  0
   36.4990   30.0240   36.8800 C   0  0  0  0  0  0  0  0  0  0  0  0
   36.2860   30.1400   38.2260 C   0  0  0  0  0  0  0  0  0  0  0  0
   35.2330   29.4540   38.7370 N   0  0  0  0  0  0  0  0  0  0  0  0
   34.4090   28.6840   37.9940 C   0  0  0  0  0  0  0  0  0  0  0  0
   34.6190   28.5690   36.6680 N   0  0  0  0  0  0  0  0  0  0  0  0
   37.3310   30.5600   36.4470 H   0  0  0  0  0  0  0  0  0  0  0  0
   33.5880   28.1740   38.5230 H   0  0  0  0  0  0  0  0  0  0  0  0
   35.8660   29.0890   34.6480 C   0  0  0  0  0  0  0  0  0  0  0  0
   37.2240   28.8550   34.4460 F   0  0  0  0  0  0  0  0  0  0  0  0
   35.6220   30.3350   34.0860 F   0  0  0  0  0  0  0  0  0  0  0  0
   35.1200   28.0940   34.0700 F   0  0  0  0  0  0  0  0  0  0  0  0
   37.1710   28.2480   41.5950 C   0  0  0  0  0  0  0  0  0  0  0  0
   36.9500   28.6870   42.7390 O   0  0  0  0  0  0  0  0  0  0  0  0
   37.5280   29.0510   40.4690 N   0  0  0  0  0  0  0  0  0  0  0  0
   37.7370   28.6330   39.5330 H   0  0  0  0  0  0  0  0  0  0  0  0
   37.0560   26.8090   41.3960 C   0  0  0  0  0  0  0  0  0  0  0  0
   37.2240   25.7880   42.3370 C   0  0  0  0  0  0  0  0  0  0  0  0
   37.4730   26.1190   43.3270 H   0  0  0  0  0  0  0  0  0  0  0  0
   37.1040   24.4540   42.1100 C   0  0  0  0  0  3  0  0  0  0  0  0
   36.7850   24.1040   40.8200 C   0  0  0  0  0  0  0  0  0  0  0  0
   36.6770   23.0360   40.5880 H   0  0  0  0  0  0  0  0  0  0  0  0
   36.5920   24.9980   39.7970 C   0  0  0  0  0  0  0  0  0  0  0  0
   36.3430   24.6990   38.7920 H   0  0  0  0  0  0  0  0  0  0  0  0
   36.7370   26.3220   40.1360 C   0  0  0  0  0  3  0  0  0  0  0  0
  1  6  1  0  0  0  0
  2  1  2  0  0  0  0
  2  3  1  0  0  0  0
  3  4  2  0  0  0  0
  4  5  1  0  0  0  0
  4  9  1  0  0  0  0
  5 10  1  0  0  0  0
  6 25  1  0  0  0  0
  6  5  2  0  0  0  0
  7  2  1  0  0  0  0
  8  3  1  0  0  0  0
 11 16  2  0  0  0  0
 11 12  1  0  0  0  0
 12 13  2  0  0  0  0
 13 14  1  0  0  0  0
 13  1  1  0  0  0  0
 15 18  1  0  0  0  0
 15 14  2  0  0  0  0
 16 15  1  0  0  0  0
 17 12  1  0  0  0  0
 19 11  1  0  0  0  0
 20 19  1  0  0  0  0
 21 19  1  0  0  0  0
 22 19  1  0  0  0  0
 23 24  2  0  0  0  0
 25 23  1  0  0  0  0
 26 25  1  0  0  0  0
 27 23  1  0  0  0  0
 27 28  1  0  0  0  0
 28 29  1  0  0  0  0
 30 28  2  0  0  0  0
 31 30  1  0  0  0  0
 32 31  1  0  0  0  0
 33 35  1  0  0  0  0
 33 31  2  0  0  0  0
 34 33  1  0  0  0  0
 35 27  2  0  0  0  0
M  END
>  <minimizedAffinity>
-6.00888109

$$$$

 OpenBabel03252502293D

 35 37  0  0  0  0  0  0  0  0999 V2000
   37.6850   29.5090   41.6120 C   0  0  0  0  0  0  0  0  0  0  0  0
   38.1720   29.4220   42.9120 C   0  0  0  0  0  0  0  0  0  0  0  0
   37.8330   28.3150   43.6800 C   0  0  0  0  0  0  0  0  0  0  0  0
   37.0230   27.3390   43.1260 C   0  0  0  0  0  0  0  0  0  0  0  0
   36.5370   27.4120   41.8520 C   0  0  0  0  0  0  0  0  0  0  0  0
   36.8920   28.5310   41.1030 C   0  0  0  0  0  0  0  0  0  0  0  0
   38.8030   30.2010   43.3190 H   0  0  0  0  0  0  0  0  0  0  0  0
   38.2370   28.2970   44.6820 H   0  0  0  0  0  0  0  0  0  0  0  0
   36.8180   26.5220   43.8050 H   0  0  0  0  0  0  0  0  0  0  0  0
   35.9070   26.6340   41.4480 H   0  0  0  0  0  0  0  0  0  0  0  0
   39.5940   32.1290   39.6780 C   0  0  0  0  0  0  0  0  0  0  0  0
   39.3400   30.9410   40.3860 C   0  0  0  0  0  0  0  0  0  0  0  0
   38.0820   30.6940   40.8650 C   0  0  0  0  0  0  0  0  0  0  0  0
   37.1400   31.6390   40.6160 N   0  0  0  0  0  0  0  0  0  0  0  0
   37.3850   32.7800   39.9370 C   0  0  0  0  0  0  0  0  0  0  0  0
   38.6230   33.0230   39.4660 N   0  0  0  0  0  0  0  0  0  0  0  0
   40.1090   30.2050   40.5690 H   0  0  0  0  0  0  0  0  0  0  0  0
   36.5380   33.4710   39.7980 H   0  0  0  0  0  0  0  0  0  0  0  0
   40.9530   32.4030   39.1560 C   0  0  0  0  0  0  0  0  0  0  0  0
   40.8680   33.4980   38.2990 F   0  0  0  0  0  0  0  0  0  0  0  0
   41.3000   31.3300   38.3450 F   0  0  0  0  0  0  0  0  0  0  0  0
   41.8770   32.6410   40.1410 F   0  0  0  0  0  0  0  0  0  0  0  0
   35.2230   29.0230   39.1440 C   0  0  0  0  0  0  0  0  0  0  0  0
   34.1450   29.1950   39.7440 O   0  0  0  0  0  0  0  0  0  0  0  0
   36.4640   28.7060   39.7750 N   0  0  0  0  0  0  0  0  0  0  0  0
   37.3380   28.5370   39.2250 H   0  0  0  0  0  0  0  0  0  0  0  0
   35.2100   29.1550   37.6930 C   0  0  0  0  0  0  0  0  0  0  0  0
   34.1580   28.8930   36.8080 C   0  0  0  0  0  0  0  0  0  0  0  0
   33.2520   28.5480   37.2690 H   0  0  0  0  0  0  0  0  0  0  0  0
   34.1870   29.0340   35.4570 C   0  0  0  0  0  3  0  0  0  0  0  0
   35.3800   29.4780   34.9380 C   0  0  0  0  0  0  0  0  0  0  0  0
   35.4510   29.6070   33.8500 H   0  0  0  0  0  0  0  0  0  0  0  0
   36.4910   29.7720   35.6870 C   0  0  0  0  0  0  0  0  0  0  0  0
   37.4170   30.1190   35.2560 H   0  0  0  0  0  0  0  0  0  0  0  0
   36.3530   29.5960   37.0420 C   0  0  0  0  0  3  0  0  0  0  0  0
  1  2  1  0  0  0  0
  2  7  1  0  0  0  0
  2  3  2  0  0  0  0
  3  8  1  0  0  0  0
  4  3  1  0  0  0  0
  4  9  1  0  0  0  0
  5  4  2  0  0  0  0
  6  1  2  0  0  0  0
  6  5  1  0  0  0  0
 10  5  1  0  0  0  0
 11 12  1  0  0  0  0
 12 17  1  0  0  0  0
 12 13  2  0  0  0  0
 13  1  1  0  0  0  0
 14 13  1  0  0  0  0
 15 14  2  0  0  0  0
 16 11  2  0  0  0  0
 16 15  1  0  0  0  0
 18 15  1  0  0  0  0
 19 11  1  0  0  0  0
 19 22  1  0  0  0  0
 20 19  1  0  0  0  0
 21 19  1  0  0  0  0
 23 24  2  0  0  0  0
 23 25  1  0  0  0  0
 25  6  1  0  0  0  0
 26 25  1  0  0  0  0
 27 23  1  0  0  0  0
 28 29  1  0  0  0  0
 28 27  2  0  0  0  0
 30 28  1  0  0  0  0
 31 30  2  0  0  0  0
 31 33  1  0  0  0  0
 32 31  1  0  0  0  0
 33 35  2  0  0  0  0
 34 33  1  0  0  0  0
 35 27  1  0  0  0  0
M  END
>  <minimizedAffinity>
-5.96310425

$$$$

 OpenBabel03252502293D

 35 37  0  0  0  0  0  0  0  0999 V2000
   35.8580   29.1520   38.0740 C   0  0  0  0  0  0  0  0  0  0  0  0
   34.8270   28.2720   37.7630 C   0  0  0  0  0  0  0  0  0  0  0  0
   34.4920   28.0830   36.4270 C   0  0  0  0  0  0  0  0  0  0  0  0
   35.1930   28.7750   35.4560 C   0  0  0  0  0  0  0  0  0  0  0  0
   36.2060   29.6430   35.7480 C   0  0  0  0  0  0  0  0  0  0  0  0
   36.5230   29.8140   37.0930 C   0  0  0  0  0  0  0  0  0  0  0  0
   34.2950   27.7450   38.5420 H   0  0  0  0  0  0  0  0  0  0  0  0
   33.6840   27.3890   36.2400 H   0  0  0  0  0  0  0  0  0  0  0  0
   34.8540   28.5580   34.4520 H   0  0  0  0  0  0  0  0  0  0  0  0
   36.7350   30.1690   34.9680 H   0  0  0  0  0  0  0  0  0  0  0  0
   36.6640   28.5480   41.7120 C   0  0  0  0  0  0  0  0  0  0  0  0
   36.3860   28.2700   40.3630 C   0  0  0  0  0  0  0  0  0  0  0  0
   36.1570   29.3000   39.4920 C   0  0  0  0  0  0  0  0  0  0  0  0
   36.2160   30.5550   40.0060 N   0  0  0  0  0  0  0  0  0  0  0  0
   36.4820   30.8220   41.3020 C   0  0  0  0  0  0  0  0  0  0  0  0
   36.7080   29.8070   42.1590 N   0  0  0  0  0  0  0  0  0  0  0  0
   36.3450   27.2600   39.9800 H   0  0  0  0  0  0  0  0  0  0  0  0
   36.5040   31.8820   41.6010 H   0  0  0  0  0  0  0  0  0  0  0  0
   36.9140   27.4380   42.6610 C   0  0  0  0  0  0  0  0  0  0  0  0
   38.1970   27.5990   43.1770 F   0  0  0  0  0  0  0  0  0  0  0  0
   36.9640   26.2690   41.9120 F   0  0  0  0  0  0  0  0  0  0  0  0
   35.9960   27.3730   43.6780 F   0  0  0  0  0  0  0  0  0  0  0  0
   38.9690   30.5400   37.6940 C   0  0  0  0  0  0  0  0  0  0  0  0
   39.6140   29.4890   37.5150 O   0  0  0  0  0  0  0  0  0  0  0  0
   37.5580   30.6700   37.5120 N   0  0  0  0  0  0  0  0  0  0  0  0
   37.0540   31.5650   37.7070 H   0  0  0  0  0  0  0  0  0  0  0  0
   39.7120   31.7180   38.1200 C   0  0  0  0  0  0  0  0  0  0  0  0
   39.4670   32.5470   39.2190 C   0  0  0  0  0  0  0  0  0  0  0  0
   38.6180   32.2720   39.8150 H   0  0  0  0  0  0  0  0  0  0  0  0
   40.1900   33.6380   39.5850 C   0  0  0  0  0  3  0  0  0  0  0  0
   41.2610   33.9300   38.7750 C   0  0  0  0  0  0  0  0  0  0  0  0
   41.8770   34.8040   39.0300 H   0  0  0  0  0  0  0  0  0  0  0  0
   41.6180   33.2060   37.6660 C   0  0  0  0  0  0  0  0  0  0  0  0
   42.4630   33.4560   37.0450 H   0  0  0  0  0  0  0  0  0  0  0  0
   40.8200   32.1230   37.3880 C   0  0  0  0  0  3  0  0  0  0  0  0
  1 13  1  0  0  0  0
  2  1  1  0  0  0  0
  2  7  1  0  0  0  0
  3  2  2  0  0  0  0
  4  5  2  0  0  0  0
  4  3  1  0  0  0  0
  5  6  1  0  0  0  0
  6 25  1  0  0  0  0
  6  1  2  0  0  0  0
  8  3  1  0  0  0  0
  9  4  1  0  0  0  0
 10  5  1  0  0  0  0
 11 16  1  0  0  0  0
 11 19  1  0  0  0  0
 12 11  2  0  0  0  0
 13 14  2  0  0  0  0
 13 12  1  0  0  0  0
 14 15  1  0  0  0  0
 15 18  1  0  0  0  0
 15 16  2  0  0  0  0
 17 12  1  0  0  0  0
 19 20  1  0  0  0  0
 19 22  1  0  0  0  0
 21 19  1  0  0  0  0
 23 27  1  0  0  0  0
 24 23  2  0  0  0  0
 25 23  1  0  0  0  0
 25 26  1  0  0  0  0
 27 28  1  0  0  0  0
 28 30  2  0  0  0  0
 28 29  1  0  0  0  0
 31 32  1  0  0  0  0
 31 30  1  0  0  0  0
 33 31  2  0  0  0  0
 34 33  1  0  0  0  0
 35 33  1  0  0  0  0
 35 27  2  0  0  0  0
M  END
>  <minimizedAffinity>
-5.90650606

$$$$

 OpenBabel03252502293D

 35 37  0  0  0  0  0  0  0  0999 V2000
   36.4240   29.3400   37.1100 C   0  0  0  0  0  0  0  0  0  0  0  0
   35.9590   29.6780   35.8440 C   0  0  0  0  0  0  0  0  0  0  0  0
   34.9810   28.8830   35.2570 C   0  0  0  0  0  0  0  0  0  0  0  0
   34.5050   27.7850   35.9520 C   0  0  0  0  0  0  0  0  0  0  0  0
   34.9530   27.4420   37.1950 C   0  0  0  0  0  0  0  0  0  0  0  0
   35.9320   28.2550   37.7610 C   0  0  0  0  0  0  0  0  0  0  0  0
   36.3490   30.5420   35.3230 H   0  0  0  0  0  0  0  0  0  0  0  0
   34.6560   29.1900   34.2730 H   0  0  0  0  0  0  0  0  0  0  0  0
   33.7490   27.2350   35.4090 H   0  0  0  0  0  0  0  0  0  0  0  0
   34.5630   26.5780   37.7130 H   0  0  0  0  0  0  0  0  0  0  0  0
   38.2830   32.1000   38.8930 C   0  0  0  0  0  0  0  0  0  0  0  0
   37.2040   31.3350   38.4170 C   0  0  0  0  0  0  0  0  0  0  0  0
   37.4450   30.2180   37.6650 C   0  0  0  0  0  0  0  0  0  0  0  0
   38.7460   29.9170   37.4230 N   0  0  0  0  0  0  0  0  0  0  0  0
   39.7830   30.6520   37.8790 C   0  0  0  0  0  0  0  0  0  0  0  0
   39.5450   31.7520   38.6200 N   0  0  0  0  0  0  0  0  0  0  0  0
   36.1760   31.5970   38.6250 H   0  0  0  0  0  0  0  0  0  0  0  0
   40.7960   30.3060   37.6180 H   0  0  0  0  0  0  0  0  0  0  0  0
   38.0300   33.3100   39.7090 C   0  0  0  0  0  0  0  0  0  0  0  0
   36.9370   33.9750   39.1570 F   0  0  0  0  0  0  0  0  0  0  0  0
   39.1100   34.1610   39.5190 F   0  0  0  0  0  0  0  0  0  0  0  0
   37.8010   33.0360   41.0330 F   0  0  0  0  0  0  0  0  0  0  0  0
   36.0700   28.3360   40.3770 C   0  0  0  0  0  0  0  0  0  0  0  0
   35.0730   29.0200   40.6790 O   0  0  0  0  0  0  0  0  0  0  0  0
   36.4580   28.0070   39.0430 N   0  0  0  0  0  0  0  0  0  0  0  0
   37.3230   27.4570   38.8360 H   0  0  0  0  0  0  0  0  0  0  0  0
   36.8960   27.8380   41.4690 C   0  0  0  0  0  0  0  0  0  0  0  0
   37.5460   26.6040   41.5710 C   0  0  0  0  0  0  0  0  0  0  0  0
   37.4080   25.9470   40.7330 H   0  0  0  0  0  0  0  0  0  0  0  0
   38.3140   26.1790   42.6080 C   0  0  0  0  0  3  0  0  0  0  0  0
   38.4450   27.0720   43.6450 C   0  0  0  0  0  0  0  0  0  0  0  0
   39.0570   26.7730   44.5070 H   0  0  0  0  0  0  0  0  0  0  0  0
   37.8640   28.3140   43.6790 C   0  0  0  0  0  0  0  0  0  0  0  0
   37.9820   28.9970   44.5050 H   0  0  0  0  0  0  0  0  0  0  0  0
   37.1100   28.6430   42.5790 C   0  0  0  0  0  3  0  0  0  0  0  0
  1 13  1  0  0  0  0
  1  6  1  0  0  0  0
  2  1  2  0  0  0  0
  3  2  1  0  0  0  0
  3  4  2  0  0  0  0
  4  5  1  0  0  0  0
  5 10  1  0  0  0  0
  5  6  2  0  0  0  0
  6 25  1  0  0  0  0
  7  2  1  0  0  0  0
  8  3  1  0  0  0  0
  9  4  1  0  0  0  0
 11 19  1  0  0  0  0
 12 17  1  0  0  0  0
 12 11  2  0  0  0  0
 13 12  1  0  0  0  0
 14 13  2  0  0  0  0
 14 15  1  0  0  0  0
 15 16  2  0  0  0  0
 16 11  1  0  0  0  0
 18 15  1  0  0  0  0
 19 22  1  0  0  0  0
 20 19  1  0  0  0  0
 21 19  1  0  0  0  0
 23 24  2  0  0  0  0
 23 27  1  0  0  0  0
 25 23  1  0  0  0  0
 26 25  1  0  0  0  0
 27 28  2  0  0  0  0
 27 35  1  0  0  0  0
 28 30  1  0  0  0  0
 29 28  1  0  0  0  0
 30 31  2  0  0  0  0
 31 33  1  0  0  0  0
 31 32  1  0  0  0  0
 33 34  1  0  0  0  0
 35 33  2  0  0  0  0
M  END
>  <minimizedAffinity>
-5.87230492

$$$$

 OpenBabel03252502293D

 35 37  0  0  0  0  0  0  0  0999 V2000
   39.6620   29.7270   41.9030 C   0  0  0  0  0  0  0  0  0  0  0  0
   40.6810   30.0130   42.8050 C   0  0  0  0  0  0  0  0  0  0  0  0
   41.4910   31.1170   42.5690 C   0  0  0  0  0  0  0  0  0  0  0  0
   41.2570   31.8920   41.4460 C   0  0  0  0  0  0  0  0  0  0  0  0
   40.2600   31.6220   40.5520 C   0  0  0  0  0  0  0  0  0  0  0  0
   39.4630   30.5100   40.8120 C   0  0  0  0  0  0  0  0  0  0  0  0
   40.8420   29.3900   43.6740 H   0  0  0  0  0  0  0  0  0  0  0  0
   42.2670   31.2950   43.3000 H   0  0  0  0  0  0  0  0  0  0  0  0
   41.9410   32.7240   41.3540 H   0  0  0  0  0  0  0  0  0  0  0  0
   40.1020   32.2440   39.6840 H   0  0  0  0  0  0  0  0  0  0  0  0
   38.3990   26.2190   42.4990 C   0  0  0  0  0  0  0  0  0  0  0  0
   39.2860   27.2610   42.1760 C   0  0  0  0  0  0  0  0  0  0  0  0
   38.8510   28.5580   42.2140 C   0  0  0  0  0  0  0  0  0  0  0  0
   37.5560   28.7540   42.5710 N   0  0  0  0  0  0  0  0  0  0  0  0
   36.7040   27.7540   42.8800 C   0  0  0  0  0  0  0  0  0  0  0  0
   37.1330   26.4770   42.8430 N   0  0  0  0  0  0  0  0  0  0  0  0
   40.3130   27.0760   41.8950 H   0  0  0  0  0  0  0  0  0  0  0  0
   35.6760   28.0380   43.1560 H   0  0  0  0  0  0  0  0  0  0  0  0
   38.8640   24.8130   42.4610 C   0  0  0  0  0  0  0  0  0  0  0  0
   39.5690   24.6290   41.2740 F   0  0  0  0  0  0  0  0  0  0  0  0
   37.7330   24.0150   42.3430 F   0  0  0  0  0  0  0  0  0  0  0  0
   39.6420   24.4680   43.5360 F   0  0  0  0  0  0  0  0  0  0  0  0
   37.0920   30.6600   39.7030 C   0  0  0  0  0  0  0  0  0  0  0  0
   36.5890   31.6470   40.2730 O   0  0  0  0  0  0  0  0  0  0  0  0
   38.3970   30.1440   39.9700 N   0  0  0  0  0  0  0  0  0  0  0  0
   38.7650   29.2910   39.4890 H   0  0  0  0  0  0  0  0  0  0  0  0
   36.2860   29.9870   38.6940 C   0  0  0  0  0  0  0  0  0  0  0  0
   36.5170   29.9000   37.3170 C   0  0  0  0  0  0  0  0  0  0  0  0
   37.4010   30.4000   36.9720 H   0  0  0  0  0  0  0  0  0  0  0  0
   35.7390   29.2560   36.4080 C   0  0  0  0  0  3  0  0  0  0  0  0
   34.6240   28.6390   36.9210 C   0  0  0  0  0  0  0  0  0  0  0  0
   33.9640   28.1050   36.2250 H   0  0  0  0  0  0  0  0  0  0  0  0
   34.2750   28.6430   38.2480 C   0  0  0  0  0  0  0  0  0  0  0  0
   33.3930   28.1510   38.6270 H   0  0  0  0  0  0  0  0  0  0  0  0
   35.1310   29.3220   39.0810 C   0  0  0  0  0  3  0  0  0  0  0  0
  1 13  1  0  0  0  0
  1  2  1  0  0  0  0
  2  7  1  0  0  0  0
  3  2  2  0  0  0  0
  3  8  1  0  0  0  0
  4  3  1  0  0  0  0
  5  6  1  0  0  0  0
  5  4  2  0  0  0  0
  6  1  2  0  0  0  0
  9  4  1  0  0  0  0
 10  5  1  0  0  0  0
 11 16  1  0  0  0  0
 12 13  1  0  0  0  0
 12 11  2  0  0  0  0
 13 14  2  0  0  0  0
 14 15  1  0  0  0  0
 15 18  1  0  0  0  0
 16 15  2  0  0  0  0
 17 12  1  0  0  0  0
 19 11  1  0  0  0  0
 19 22  1  0  0  0  0
 20 19  1  0  0  0  0
 21 19  1  0  0  0  0
 23 25  1  0  0  0  0
 23 24  2  0  0  0  0
 25  6  1  0  0  0  0
 26 25  1  0  0  0  0
 27 35  1  0  0  0  0
 27 23  1  0  0  0  0
 28 27  2  0  0  0  0
 29 28  1  0  0  0  0
 30 31  2  0  0  0  0
 30 28  1  0  0  0  0
 31 33  1  0  0  0  0
 32 31  1  0  0  0  0
 33 34  1  0  0  0  0
 33 35  2  0  0  0  0
M  END
>  <minimizedAffinity>
-5.82087469

$$$$

 OpenBabel03252502293D

 35 37  0  0  0  0  0  0  0  0999 V2000
   38.3990   28.1720   42.1130 C   0  0  0  0  0  0  0  0  0  0  0  0
   39.3180   28.1710   43.1570 C   0  0  0  0  0  0  0  0  0  0  0  0
   39.7330   26.9520   43.6800 C   0  0  0  0  0  0  0  0  0  0  0  0
   39.2190   25.7840   43.1450 C   0  0  0  0  0  0  0  0  0  0  0  0
   38.3160   25.7710   42.1210 C   0  0  0  0  0  0  0  0  0  0  0  0
   37.9160   27.0050   41.6140 C   0  0  0  0  0  0  0  0  0  0  0  0
   39.7030   29.0990   43.5560 H   0  0  0  0  0  0  0  0  0  0  0  0
   40.4470   27.0080   44.4890 H   0  0  0  0  0  0  0  0  0  0  0  0
   39.6040   24.8930   43.6220 H   0  0  0  0  0  0  0  0  0  0  0  0
   37.9320   24.8420   41.7250 H   0  0  0  0  0  0  0  0  0  0  0  0
   38.3700   31.7150   40.8100 C   0  0  0  0  0  0  0  0  0  0  0  0
   38.8760   30.4910   41.2820 C   0  0  0  0  0  0  0  0  0  0  0  0
   38.0110   29.4830   41.6130 C   0  0  0  0  0  0  0  0  0  0  0  0
   36.6880   29.7430   41.4580 N   0  0  0  0  0  0  0  0  0  0  0  0
   36.2020   30.9190   41.0050 C   0  0  0  0  0  0  0  0  0  0  0  0
   37.0540   31.9100   40.6800 N   0  0  0  0  0  0  0  0  0  0  0  0
   39.9350   30.3110   41.3960 H   0  0  0  0  0  0  0  0  0  0  0  0
   35.1080   31.0100   40.9210 H   0  0  0  0  0  0  0  0  0  0  0  0
   39.3000   32.8100   40.4490 C   0  0  0  0  0  0  0  0  0  0  0  0
   40.5220   32.5530   41.0680 F   0  0  0  0  0  0  0  0  0  0  0  0
   38.8210   33.9650   41.0530 F   0  0  0  0  0  0  0  0  0  0  0  0
   39.4730   32.9540   39.0960 F   0  0  0  0  0  0  0  0  0  0  0  0
   36.9570   26.6440   39.2020 C   0  0  0  0  0  0  0  0  0  0  0  0
   37.8600   25.9870   38.6480 O   0  0  0  0  0  0  0  0  0  0  0  0
   37.0030   27.1140   40.5500 N   0  0  0  0  0  0  0  0  0  0  0  0
   36.2350   27.6910   40.9620 H   0  0  0  0  0  0  0  0  0  0  0  0
   35.7730   26.9520   38.4120 C   0  0  0  0  0  0  0  0  0  0  0  0
   35.0760   28.1620   38.3320 C   0  0  0  0  0  0  0  0  0  0  0  0
   35.4720   28.9560   38.9360 H   0  0  0  0  0  0  0  0  0  0  0  0
   33.9740   28.4100   37.5770 C   0  0  0  0  0  3  0  0  0  0  0  0
   33.5230   27.3480   36.8300 C   0  0  0  0  0  0  0  0  0  0  0  0
   32.6340   27.5000   36.2030 H   0  0  0  0  0  0  0  0  0  0  0  0
   34.1070   26.1070   36.8130 C   0  0  0  0  0  0  0  0  0  0  0  0
   33.7330   25.2880   36.2180 H   0  0  0  0  0  0  0  0  0  0  0  0
   35.2160   25.9650   37.6110 C   0  0  0  0  0  3  0  0  0  0  0  0
  1  2  1  0  0  0  0
  2  7  1  0  0  0  0
  2  3  2  0  0  0  0
  3  8  1  0  0  0  0
  4  9  1  0  0  0  0
  4  3  1  0  0  0  0
  5  4  2  0  0  0  0
  6  1  2  0  0  0  0
  6  5  1  0  0  0  0
 10  5  1  0  0  0  0
 11 12  1  0  0  0  0
 12 17  1  0  0  0  0
 12 13  2  0  0  0  0
 13  1  1  0  0  0  0
 14 13  1  0  0  0  0
 15 14  2  0  0  0  0
 16 11  2  0  0  0  0
 16 15  1  0  0  0  0
 18 15  1  0  0  0  0
 19 11  1  0  0  0  0
 19 21  1  0  0  0  0
 19 20  1  0  0  0  0
 22 19  1  0  0  0  0
 23 25  1  0  0  0  0
 24 23  2  0  0  0  0
 25 26  1  0  0  0  0
 25  6  1  0  0  0  0
 27 23  1  0  0  0  0
 28 27  1  0  0  0  0
 28 29  1  0  0  0  0
 30 28  2  0  0  0  0
 31 30  1  0  0  0  0
 32 31  1  0  0  0  0
 33 31  2  0  0  0  0
 33 35  1  0  0  0  0
 34 33  1  0  0  0  0
 35 27  2  0  0  0  0
M  END
>  <minimizedAffinity>
-5.76714516

$$$$

 OpenBabel03252502293D

 35 37  0  0  0  0  0  0  0  0999 V2000
   36.8810   28.6730   39.9000 C   0  0  0  0  0  0  0  0  0  0  0  0
   35.7830   28.0470   39.3200 C   0  0  0  0  0  0  0  0  0  0  0  0
   35.2550   28.5750   38.1480 C   0  0  0  0  0  0  0  0  0  0  0  0
   35.8400   29.7030   37.5990 C   0  0  0  0  0  0  0  0  0  0  0  0
   36.9180   30.3270   38.1580 C   0  0  0  0  0  0  0  0  0  0  0  0
   37.4280   29.7780   39.3320 C   0  0  0  0  0  0  0  0  0  0  0  0
   35.3450   27.1670   39.7720 H   0  0  0  0  0  0  0  0  0  0  0  0
   34.4030   28.0520   37.7400 H   0  0  0  0  0  0  0  0  0  0  0  0
   35.3550   30.0330   36.6910 H   0  0  0  0  0  0  0  0  0  0  0  0
   37.3530   31.2070   37.7070 H   0  0  0  0  0  0  0  0  0  0  0  0
   38.4220   26.3630   42.4580 C   0  0  0  0  0  0  0  0  0  0  0  0
   37.9820   26.8380   41.2100 C   0  0  0  0  0  0  0  0  0  0  0  0
   37.3820   28.0650   41.1250 C   0  0  0  0  0  0  0  0  0  0  0  0
   37.2500   28.7580   42.2840 N   0  0  0  0  0  0  0  0  0  0  0  0
   37.6720   28.3020   43.4830 C   0  0  0  0  0  0  0  0  0  0  0  0
   38.2630   27.0930   43.5660 N   0  0  0  0  0  0  0  0  0  0  0  0
   38.1010   26.2640   40.3010 H   0  0  0  0  0  0  0  0  0  0  0  0
   37.5100   28.9570   44.3530 H   0  0  0  0  0  0  0  0  0  0  0  0
   39.0740   25.0360   42.5570 C   0  0  0  0  0  0  0  0  0  0  0  0
   39.8230   24.8410   41.3990 F   0  0  0  0  0  0  0  0  0  0  0  0
   38.0640   24.0840   42.5040 F   0  0  0  0  0  0  0  0  0  0  0  0
   39.8680   24.9010   43.6670 F   0  0  0  0  0  0  0  0  0  0  0  0
   38.8220   31.5540   40.6640 C   0  0  0  0  0  0  0  0  0  0  0  0
   38.0160   32.4980   40.7790 O   0  0  0  0  0  0  0  0  0  0  0  0
   38.5450   30.3270   39.9880 N   0  0  0  0  0  0  0  0  0  0  0  0
   39.2650   29.5750   39.8880 H   0  0  0  0  0  0  0  0  0  0  0  0
   40.1400   31.7210   41.2610 C   0  0  0  0  0  0  0  0  0  0  0  0
   41.1950   32.5270   40.8210 C   0  0  0  0  0  0  0  0  0  0  0  0
   40.9980   33.0850   39.9260 H   0  0  0  0  0  0  0  0  0  0  0  0
   42.4110   32.6570   41.4120 C   0  0  0  0  0  3  0  0  0  0  0  0
   42.5920   31.9120   42.5530 C   0  0  0  0  0  0  0  0  0  0  0  0
   43.5600   31.9850   43.0670 H   0  0  0  0  0  0  0  0  0  0  0  0
   41.6460   31.0810   43.0970 C   0  0  0  0  0  0  0  0  0  0  0  0
   41.8120   30.5060   43.9940 H   0  0  0  0  0  0  0  0  0  0  0  0
   40.4520   31.0250   42.4200 C   0  0  0  0  0  3  0  0  0  0  0  0
  1 13  1  0  0  0  0
  2  7  1  0  0  0  0
  2  1  2  0  0  0  0
  3  2  1  0  0  0  0
  4  3  2  0  0  0  0
  4  5  1  0  0  0  0
  5  6  2  0  0  0  0
  6  1  1  0  0  0  0
  6 25  1  0  0  0  0
  8  3  1  0  0  0  0
  9  4  1  0  0  0  0
 10  5  1  0  0  0  0
 11 19  1  0  0  0  0
 11 16  1  0  0  0  0
 12 11  2  0  0  0  0
 13 12  1  0  0  0  0
 13 14  2  0  0  0  0
 14 15  1  0  0  0  0
 15 16  2  0  0  0  0
 15 18  1  0  0  0  0
 17 12  1  0  0  0  0
 19 22  1  0  0  0  0
 20 19  1  0  0  0  0
 21 19  1  0  0  0  0
 23 24  2  0  0  0  0
 23 27  1  0  0  0  0
 25 23  1  0  0  0  0
 26 25  1  0  0  0  0
 27 35  1  0  0  0  0
 28 27  2  0  0  0  0
 28 30  1  0  0  0  0
 29 28  1  0  0  0  0
 30 31  2  0  0  0  0
 31 32  1  0  0  0  0
 31 33  1  0  0  0  0
 33 34  1  0  0  0  0
 35 33  2  0  0  0  0
M  END
>  <minimizedAffinity>
-5.74543238

$$$$

 OpenBabel03252502293D

 35 37  0  0  0  0  0  0  0  0999 V2000
   37.7590   31.0610   39.4100 C   0  0  0  0  0  0  0  0  0  0  0  0
   37.7410   32.3850   38.9870 C   0  0  0  0  0  0  0  0  0  0  0  0
   38.3650   33.3460   39.7730 C   0  0  0  0  0  0  0  0  0  0  0  0
   38.9830   32.9520   40.9480 C   0  0  0  0  0  0  0  0  0  0  0  0
   39.0080   31.6550   41.3740 C   0  0  0  0  0  0  0  0  0  0  0  0
   38.3760   30.7120   40.5680 C   0  0  0  0  0  0  0  0  0  0  0  0
   37.2500   32.6650   38.0650 H   0  0  0  0  0  0  0  0  0  0  0  0
   38.3210   34.3590   39.4000 H   0  0  0  0  0  0  0  0  0  0  0  0
   39.4370   33.7730   41.4840 H   0  0  0  0  0  0  0  0  0  0  0  0
   39.4980   31.3780   42.2960 H   0  0  0  0  0  0  0  0  0  0  0  0
   35.2180   28.9150   37.6230 C   0  0  0  0  0  0  0  0  0  0  0  0
   35.7420   29.8650   38.5170 C   0  0  0  0  0  0  0  0  0  0  0  0
   37.0880   30.1080   38.5360 C   0  0  0  0  0  0  0  0  0  0  0  0
   37.8470   29.3950   37.6650 N   0  0  0  0  0  0  0  0  0  0  0  0
   37.3440   28.4820   36.8070 C   0  0  0  0  0  0  0  0  0  0  0  0
   36.0180   28.2430   36.7890 N   0  0  0  0  0  0  0  0  0  0  0  0
   35.1140   30.4200   39.2000 H   0  0  0  0  0  0  0  0  0  0  0  0
   38.0600   27.9670   36.1470 H   0  0  0  0  0  0  0  0  0  0  0  0
   33.7610   28.6480   37.5970 C   0  0  0  0  0  0  0  0  0  0  0  0
   33.1890   29.4960   36.6510 F   0  0  0  0  0  0  0  0  0  0  0  0
   33.2500   29.0650   38.8190 F   0  0  0  0  0  0  0  0  0  0  0  0
   33.4520   27.3420   37.3140 F   0  0  0  0  0  0  0  0  0  0  0  0
   37.8740   28.5780   42.0060 C   0  0  0  0  0  0  0  0  0  0  0  0
   37.3500   29.0590   43.0290 O   0  0  0  0  0  0  0  0  0  0  0  0
   38.3510   29.3450   40.8990 N   0  0  0  0  0  0  0  0  0  0  0  0
   38.8150   28.8990   40.0740 H   0  0  0  0  0  0  0  0  0  0  0  0
   38.0100   27.1300   41.9400 C   0  0  0  0  0  0  0  0  0  0  0  0
   37.0440   26.1550   42.2120 C   0  0  0  0  0  0  0  0  0  0  0  0
   36.0860   26.5370   42.5100 H   0  0  0  0  0  0  0  0  0  0  0  0
   37.2100   24.8090   42.1340 C   0  0  0  0  0  3  0  0  0  0  0  0
   38.4620   24.3950   41.7480 C   0  0  0  0  0  0  0  0  0  0  0  0
   38.6460   23.3150   41.6700 H   0  0  0  0  0  0  0  0  0  0  0  0
   39.5030   25.2380   41.4510 C   0  0  0  0  0  0  0  0  0  0  0  0
   40.4780   24.8870   41.1500 H   0  0  0  0  0  0  0  0  0  0  0  0
   39.2260   26.5790   41.5610 C   0  0  0  0  0  3  0  0  0  0  0  0
  1  6  1  0  0  0  0
  2  1  2  0  0  0  0
  2  3  1  0  0  0  0
  3  4  2  0  0  0  0
  4  5  1  0  0  0  0
  4  9  1  0  0  0  0
  5 10  1  0  0  0  0
  6 25  1  0  0  0  0
  6  5  2  0  0  0  0
  7  2  1  0  0  0  0
  8  3  1  0  0  0  0
 11 12  1  0  0  0  0
 12 13  2  0  0  0  0
 12 17  1  0  0  0  0
 13  1  1  0  0  0  0
 14 13  1  0  0  0  0
 15 14  2  0  0  0  0
 16 15  1  0  0  0  0
 16 11  2  0  0  0  0
 18 15  1  0  0  0  0
 19 11  1  0  0  0  0
 19 21  1  0  0  0  0
 20 19  1  0  0  0  0
 22 19  1  0  0  0  0
 23 24  2  0  0  0  0
 25 23  1  0  0  0  0
 26 25  1  0  0  0  0
 27 23  1  0  0  0  0
 27 28  1  0  0  0  0
 28 29  1  0  0  0  0
 30 28  2  0  0  0  0
 31 30  1  0  0  0  0
 32 31  1  0  0  0  0
 33 35  1  0  0  0  0
 33 31  2  0  0  0  0
 34 33  1  0  0  0  0
 35 27  2  0  0  0  0
M  END
>  <minimizedAffinity>
-5.73067045

$$$$
