
 OpenBabel03242515023D

 37 39  0  0  0  0  0  0  0  0999 V2000
   38.6300   31.6510   40.6300 C   0  0  0  0  0  0  0  0  0  0  0  0
   37.4040   32.0430   40.1050 C   0  0  0  0  0  0  0  0  0  0  0  0
   37.2320   33.3560   39.6920 C   0  0  0  0  0  0  0  0  0  0  0  0
   38.2870   34.1940   39.8270 N   0  0  0  0  0  0  0  0  0  0  0  0
   39.4770   33.8140   40.3360 C   0  0  0  0  0  0  0  0  0  0  0  0
   39.6230   32.5490   40.7270 N   0  0  0  0  0  0  0  0  0  0  0  0
   36.5690   31.3520   40.0070 H   0  0  0  0  0  0  0  0  0  0  0  0
   36.3120   33.7220   39.2790 H   0  0  0  0  0  0  0  0  0  0  0  0
   40.5520   34.7970   40.4410 C   0  0  0  0  0  0  0  0  0  0  0  0
   40.2910   35.8400   41.0970 O   0  0  0  0  0  0  0  0  0  0  0  0
   41.8420   34.5120   39.7890 C   0  0  0  0  0  0  0  0  0  0  0  0
   41.9950   34.5040   38.3990 C   0  0  0  0  0  0  0  0  0  0  0  0
   41.1340   34.7140   37.7810 H   0  0  0  0  0  0  0  0  0  0  0  0
   43.2680   34.2220   37.8900 C   0  0  0  0  0  3  0  0  0  0  0  0
   44.3120   33.9660   38.7470 C   0  0  0  0  0  0  0  0  0  0  0  0
   45.3100   33.7460   38.3470 H   0  0  0  0  0  0  0  0  0  0  0  0
   44.1850   33.9670   40.1170 C   0  0  0  0  0  0  0  0  0  0  0  0
   44.9700   33.7750   40.8300 H   0  0  0  0  0  0  0  0  0  0  0  0
   42.9310   34.2460   40.6010 C   0  0  0  0  0  3  0  0  0  0  0  0
   38.7900   29.9330   41.1450 S   0  0  0  0  0  0  0  0  0  0  0  0
   37.6260   29.4910   42.4380 C   0  0  0  0  0  0  0  0  0  0  0  0
   37.2290   30.3730   42.9790 H   0  0  0  0  0  0  0  0  0  0  0  0
   36.7410   29.0280   41.9280 H   0  0  0  0  0  0  0  0  0  0  0  0
   38.1590   28.4670   43.3790 C   0  0  0  0  0  0  0  0  0  0  0  0
   37.6260   28.4810   44.3380 H   0  0  0  0  0  0  0  0  0  0  0  0
   39.2240   28.7030   43.5970 H   0  0  0  0  0  0  0  0  0  0  0  0
   40.4470   26.5980   44.1210 Cl  0  0  0  0  0  0  0  0  0  0  0  0
   39.1470   26.1730   43.0580 C   0  0  0  0  0  0  0  0  0  0  0  0
   38.1330   27.1080   42.7750 C   0  0  0  0  0  0  0  0  0  0  0  0
   37.1460   26.6920   41.9300 C   0  0  0  0  0  0  0  0  0  0  0  0
   37.0390   25.4490   41.3210 C   0  0  0  0  0  0  0  0  0  0  0  0
   38.0430   24.5430   41.6080 C   0  0  0  0  0  0  0  0  0  0  0  0
   38.0140   22.9360   40.8940 Cl  0  0  0  0  0  0  0  0  0  0  0  0
   39.0620   24.9120   42.4560 C   0  0  0  0  0  0  0  0  0  0  0  0
   36.3460   27.4000   41.6940 H   0  0  0  0  0  0  0  0  0  0  0  0
   36.2120   25.2150   40.6620 H   0  0  0  0  0  0  0  0  0  0  0  0
   39.8710   24.2120   42.7010 H   0  0  0  0  0  0  0  0  0  0  0  0
  1  6  1  0  0  0  0
  1 20  1  0  0  0  0
  2  1  2  0  0  0  0
  3  4  2  0  0  0  0
  3  2  1  0  0  0  0
  4  5  1  0  0  0  0
  5  9  1  0  0  0  0
  5  6  2  0  0  0  0
  7  2  1  0  0  0  0
  8  3  1  0  0  0  0
  9 10  2  0  0  0  0
 11  9  1  0  0  0  0
 11 19  1  0  0  0  0
 12 11  2  0  0  0  0
 13 12  1  0  0  0  0
 14 12  1  0  0  0  0
 14 15  2  0  0  0  0
 15 17  1  0  0  0  0
 16 15  1  0  0  0  0
 17 19  2  0  0  0  0
 17 18  1  0  0  0  0
 20 21  1  0  0  0  0
 21 22  1  0  0  0  0
 21 24  1  0  0  0  0
 23 21  1  0  0  0  0
 24 26  1  0  0  0  0
 24 25  1  0  0  0  0
 28 27  1  0  0  0  0
 29 28  1  0  0  0  0
 29 24  1  0  0  0  0
 30 29  2  0  0  0  0
 31 32  2  0  0  0  0
 31 30  1  0  0  0  0
 32 34  1  0  0  0  0
 33 32  1  0  0  0  0
 34 37  1  0  0  0  0
 34 28  2  0  0  0  0
 35 30  1  0  0  0  0
 36 31  1  0  0  0  0
M  END
>  <minimizedAffinity>
-5.98419714

$$$$

 OpenBabel03242515023D

 37 39  0  0  0  0  0  0  0  0999 V2000
   40.7310   32.0270   41.3660 C   0  0  0  0  0  0  0  0  0  0  0  0
   41.5450   32.9980   40.7950 C   0  0  0  0  0  0  0  0  0  0  0  0
   41.0050   33.8700   39.8610 C   0  0  0  0  0  0  0  0  0  0  0  0
   39.6950   33.7220   39.5560 N   0  0  0  0  0  0  0  0  0  0  0  0
   38.9050   32.7790   40.1090 C   0  0  0  0  0  0  0  0  0  0  0  0
   39.4410   31.9500   41.0040 N   0  0  0  0  0  0  0  0  0  0  0  0
   42.5960   33.0980   41.0550 H   0  0  0  0  0  0  0  0  0  0  0  0
   41.5790   34.6410   39.3830 H   0  0  0  0  0  0  0  0  0  0  0  0
   37.5030   32.7010   39.7090 C   0  0  0  0  0  0  0  0  0  0  0  0
   36.9490   33.7890   39.4030 O   0  0  0  0  0  0  0  0  0  0  0  0
   36.8410   31.3840   39.6900 C   0  0  0  0  0  0  0  0  0  0  0  0
   36.1990   30.8510   40.8140 C   0  0  0  0  0  0  0  0  0  0  0  0
   36.1900   31.4250   41.7280 H   0  0  0  0  0  0  0  0  0  0  0  0
   35.6030   29.5910   40.6800 C   0  0  0  0  0  3  0  0  0  0  0  0
   35.6610   28.9250   39.4780 C   0  0  0  0  0  0  0  0  0  0  0  0
   35.1920   27.9380   39.3730 H   0  0  0  0  0  0  0  0  0  0  0  0
   36.2870   29.4300   38.3610 C   0  0  0  0  0  0  0  0  0  0  0  0
   36.3590   28.9490   37.3990 H   0  0  0  0  0  0  0  0  0  0  0  0
   36.8660   30.6650   38.5080 C   0  0  0  0  0  3  0  0  0  0  0  0
   41.4920   30.9270   42.5730 S   0  0  0  0  0  0  0  0  0  0  0  0
   40.7660   29.2850   42.5610 C   0  0  0  0  0  0  0  0  0  0  0  0
   40.9750   28.7300   41.6250 H   0  0  0  0  0  0  0  0  0  0  0  0
   41.2730   28.7050   43.3750 H   0  0  0  0  0  0  0  0  0  0  0  0
   39.3110   29.2870   42.8820 C   0  0  0  0  0  0  0  0  0  0  0  0
   38.8340   30.2340   42.5980 H   0  0  0  0  0  0  0  0  0  0  0  0
   39.1890   29.1810   43.9830 H   0  0  0  0  0  0  0  0  0  0  0  0
   37.0590   28.0160   44.4910 Cl  0  0  0  0  0  0  0  0  0  0  0  0
   37.5610   27.4780   42.9230 C   0  0  0  0  0  0  0  0  0  0  0  0
   38.6150   28.1320   42.2570 C   0  0  0  0  0  0  0  0  0  0  0  0
   38.9460   27.6450   41.0260 C   0  0  0  0  0  0  0  0  0  0  0  0
   38.3560   26.5770   40.3650 C   0  0  0  0  0  0  0  0  0  0  0  0
   37.3240   25.9450   41.0330 C   0  0  0  0  0  0  0  0  0  0  0  0
   36.5000   24.5780   40.2950 Cl  0  0  0  0  0  0  0  0  0  0  0  0
   36.9490   26.3970   42.2770 C   0  0  0  0  0  0  0  0  0  0  0  0
   39.7620   28.1360   40.4880 H   0  0  0  0  0  0  0  0  0  0  0  0
   38.6930   26.2660   39.3840 H   0  0  0  0  0  0  0  0  0  0  0  0
   36.1320   25.9130   42.8290 H   0  0  0  0  0  0  0  0  0  0  0  0
  1 20  1  0  0  0  0
  2  7  1  0  0  0  0
  2  1  2  0  0  0  0
  3  2  1  0  0  0  0
  4  3  2  0  0  0  0
  4  5  1  0  0  0  0
  5  6  2  0  0  0  0
  6  1  1  0  0  0  0
  8  3  1  0  0  0  0
  9  5  1  0  0  0  0
 10  9  2  0  0  0  0
 11  9  1  0  0  0  0
 11 12  1  0  0  0  0
 12 13  1  0  0  0  0
 14 12  2  0  0  0  0
 15 14  1  0  0  0  0
 16 15  1  0  0  0  0
 17 19  1  0  0  0  0
 17 15  2  0  0  0  0
 18 17  1  0  0  0  0
 19 11  2  0  0  0  0
 21 20  1  0  0  0  0
 21 24  1  0  0  0  0
 21 23  1  0  0  0  0
 22 21  1  0  0  0  0
 24 26  1  0  0  0  0
 25 24  1  0  0  0  0
 28 27  1  0  0  0  0
 29 24  1  0  0  0  0
 29 28  2  0  0  0  0
 30 29  1  0  0  0  0
 31 30  2  0  0  0  0
 31 32  1  0  0  0  0
 32 34  2  0  0  0  0
 33 32  1  0  0  0  0
 34 37  1  0  0  0  0
 34 28  1  0  0  0  0
 35 30  1  0  0  0  0
 36 31  1  0  0  0  0
M  END
>  <minimizedAffinity>
-5.97279835

$$$$

 OpenBabel03242515023D

 37 39  0  0  0  0  0  0  0  0999 V2000
   36.7650   29.8290   39.3380 C   0  0  0  0  0  0  0  0  0  0  0  0
   36.9060   29.5390   37.9860 C   0  0  0  0  0  0  0  0  0  0  0  0
   37.3650   30.5250   37.1250 C   0  0  0  0  0  0  0  0  0  0  0  0
   37.6530   31.7340   37.6620 N   0  0  0  0  0  0  0  0  0  0  0  0
   37.5160   32.0170   38.9740 C   0  0  0  0  0  0  0  0  0  0  0  0
   37.0730   31.0560   39.7850 N   0  0  0  0  0  0  0  0  0  0  0  0
   36.6680   28.5590   37.5760 H   0  0  0  0  0  0  0  0  0  0  0  0
   37.4960   30.3660   36.0720 H   0  0  0  0  0  0  0  0  0  0  0  0
   37.8510   33.3540   39.4530 C   0  0  0  0  0  0  0  0  0  0  0  0
   36.9150   34.1960   39.4570 O   0  0  0  0  0  0  0  0  0  0  0  0
   39.2310   33.6270   39.8920 C   0  0  0  0  0  0  0  0  0  0  0  0
   40.1600   32.6070   40.1260 C   0  0  0  0  0  0  0  0  0  0  0  0
   39.8530   31.5820   39.9790 H   0  0  0  0  0  0  0  0  0  0  0  0
   41.4430   32.9840   40.5390 C   0  0  0  0  0  3  0  0  0  0  0  0
   41.7530   34.3140   40.7010 C   0  0  0  0  0  0  0  0  0  0  0  0
   42.7600   34.6080   41.0240 H   0  0  0  0  0  0  0  0  0  0  0  0
   40.8560   35.3330   40.4780 C   0  0  0  0  0  0  0  0  0  0  0  0
   41.0490   36.3880   40.5900 H   0  0  0  0  0  0  0  0  0  0  0  0
   39.6020   34.9480   40.0730 C   0  0  0  0  0  3  0  0  0  0  0  0
   36.1670   28.5040   40.4020 S   0  0  0  0  0  0  0  0  0  0  0  0
   36.6500   28.7280   42.1150 C   0  0  0  0  0  0  0  0  0  0  0  0
   37.6020   29.2840   42.2250 H   0  0  0  0  0  0  0  0  0  0  0  0
   35.8660   29.3770   42.5880 H   0  0  0  0  0  0  0  0  0  0  0  0
   36.6690   27.4540   42.8880 C   0  0  0  0  0  0  0  0  0  0  0  0
   35.9530   26.7250   42.4860 H   0  0  0  0  0  0  0  0  0  0  0  0
   36.3610   27.6670   43.9350 H   0  0  0  0  0  0  0  0  0  0  0  0
   36.9850   24.5830   41.9200 Cl  0  0  0  0  0  0  0  0  0  0  0  0
   38.2840   25.5560   42.5250 C   0  0  0  0  0  0  0  0  0  0  0  0
   38.0380   26.8760   42.9500 C   0  0  0  0  0  0  0  0  0  0  0  0
   39.1160   27.5730   43.4110 C   0  0  0  0  0  0  0  0  0  0  0  0
   40.4250   27.1200   43.5050 C   0  0  0  0  0  0  0  0  0  0  0  0
   40.6490   25.8220   43.0850 C   0  0  0  0  0  0  0  0  0  0  0  0
   42.2670   25.1370   43.1580 Cl  0  0  0  0  0  0  0  0  0  0  0  0
   39.5960   25.0750   42.6100 C   0  0  0  0  0  0  0  0  0  0  0  0
   38.9510   28.6010   43.7480 H   0  0  0  0  0  0  0  0  0  0  0  0
   41.2140   27.7540   43.8880 H   0  0  0  0  0  0  0  0  0  0  0  0
   39.7470   24.0420   42.2700 H   0  0  0  0  0  0  0  0  0  0  0  0
  1  6  1  0  0  0  0
  1 20  1  0  0  0  0
  2  1  2  0  0  0  0
  3  4  2  0  0  0  0
  3  2  1  0  0  0  0
  4  5  1  0  0  0  0
  5  9  1  0  0  0  0
  5  6  2  0  0  0  0
  7  2  1  0  0  0  0
  8  3  1  0  0  0  0
  9 10  2  0  0  0  0
  9 11  1  0  0  0  0
 11 19  2  0  0  0  0
 11 12  1  0  0  0  0
 12 14  2  0  0  0  0
 13 12  1  0  0  0  0
 14 15  1  0  0  0  0
 15 16  1  0  0  0  0
 17 18  1  0  0  0  0
 17 15  2  0  0  0  0
 19 17  1  0  0  0  0
 20 21  1  0  0  0  0
 21 22  1  0  0  0  0
 21 23  1  0  0  0  0
 21 24  1  0  0  0  0
 24 29  1  0  0  0  0
 24 26  1  0  0  0  0
 25 24  1  0  0  0  0
 27 28  1  0  0  0  0
 28 34  2  0  0  0  0
 28 29  1  0  0  0  0
 29 30  2  0  0  0  0
 30 31  1  0  0  0  0
 30 35  1  0  0  0  0
 31 36  1  0  0  0  0
 32 33  1  0  0  0  0
 32 31  2  0  0  0  0
 34 32  1  0  0  0  0
 37 34  1  0  0  0  0
M  END
>  <minimizedAffinity>
-5.93862867

$$$$

 OpenBabel03242515023D

 37 39  0  0  0  0  0  0  0  0999 V2000
   36.6040   25.9430   39.7580 C   0  0  0  0  0  0  0  0  0  0  0  0
   36.5620   24.5970   40.1010 C   0  0  0  0  0  0  0  0  0  0  0  0
   36.7980   24.2240   41.4160 C   0  0  0  0  0  0  0  0  0  0  0  0
   37.0610   25.2110   42.3040 N   0  0  0  0  0  0  0  0  0  0  0  0
   37.1020   26.5180   41.9730 C   0  0  0  0  0  0  0  0  0  0  0  0
   36.8720   26.8560   40.7040 N   0  0  0  0  0  0  0  0  0  0  0  0
   36.3490   23.8200   39.3690 H   0  0  0  0  0  0  0  0  0  0  0  0
   36.7810   23.2030   41.7440 H   0  0  0  0  0  0  0  0  0  0  0  0
   37.3970   27.5050   43.0070 C   0  0  0  0  0  0  0  0  0  0  0  0
   36.5830   27.5690   43.9640 O   0  0  0  0  0  0  0  0  0  0  0  0
   38.6010   28.3440   42.8670 C   0  0  0  0  0  0  0  0  0  0  0  0
   38.5330   29.7270   42.6670 C   0  0  0  0  0  0  0  0  0  0  0  0
   37.5620   30.1960   42.6130 H   0  0  0  0  0  0  0  0  0  0  0  0
   39.7420   30.4230   42.5490 C   0  0  0  0  0  3  0  0  0  0  0  0
   40.9370   29.7480   42.6310 C   0  0  0  0  0  0  0  0  0  0  0  0
   41.8840   30.2950   42.5390 H   0  0  0  0  0  0  0  0  0  0  0  0
   41.0280   28.3890   42.8250 C   0  0  0  0  0  0  0  0  0  0  0  0
   41.9370   27.8140   42.8970 H   0  0  0  0  0  0  0  0  0  0  0  0
   39.8340   27.7200   42.9390 C   0  0  0  0  0  3  0  0  0  0  0  0
   36.2860   26.3610   38.0350 S   0  0  0  0  0  0  0  0  0  0  0  0
   37.0680   27.9000   37.5460 C   0  0  0  0  0  0  0  0  0  0  0  0
   38.0040   28.1040   38.1020 H   0  0  0  0  0  0  0  0  0  0  0  0
   37.3750   27.7770   36.4740 H   0  0  0  0  0  0  0  0  0  0  0  0
   36.1410   29.0670   37.5900 C   0  0  0  0  0  0  0  0  0  0  0  0
   35.1560   28.7870   37.9860 H   0  0  0  0  0  0  0  0  0  0  0  0
   35.9820   29.4350   36.5530 H   0  0  0  0  0  0  0  0  0  0  0  0
   35.0000   29.5480   40.3730 Cl  0  0  0  0  0  0  0  0  0  0  0  0
   36.2620   30.4960   39.6600 C   0  0  0  0  0  0  0  0  0  0  0  0
   36.7240   30.1950   38.3650 C   0  0  0  0  0  0  0  0  0  0  0  0
   37.7210   30.9900   37.8780 C   0  0  0  0  0  0  0  0  0  0  0  0
   38.3240   32.0600   38.5250 C   0  0  0  0  0  0  0  0  0  0  0  0
   37.8590   32.3430   39.7950 C   0  0  0  0  0  0  0  0  0  0  0  0
   38.5460   33.6770   40.7110 Cl  0  0  0  0  0  0  0  0  0  0  0  0
   36.8550   31.5710   40.3330 C   0  0  0  0  0  0  0  0  0  0  0  0
   38.0970   30.7770   36.8730 H   0  0  0  0  0  0  0  0  0  0  0  0
   39.1120   32.6330   38.0510 H   0  0  0  0  0  0  0  0  0  0  0  0
   36.4670   31.7740   41.3400 H   0  0  0  0  0  0  0  0  0  0  0  0
  1  2  2  0  0  0  0
  1  6  1  0  0  0  0
  2  3  1  0  0  0  0
  3  8  1  0  0  0  0
  3  4  2  0  0  0  0
  5  4  1  0  0  0  0
  5  9  1  0  0  0  0
  6  5  2  0  0  0  0
  7  2  1  0  0  0  0
  9 10  2  0  0  0  0
 11 19  1  0  0  0  0
 11  9  1  0  0  0  0
 12 11  2  0  0  0  0
 13 12  1  0  0  0  0
 14 15  2  0  0  0  0
 14 12  1  0  0  0  0
 15 17  1  0  0  0  0
 16 15  1  0  0  0  0
 17 18  1  0  0  0  0
 17 19  2  0  0  0  0
 20  1  1  0  0  0  0
 21 24  1  0  0  0  0
 21 20  1  0  0  0  0
 21 22  1  0  0  0  0
 23 21  1  0  0  0  0
 24 25  1  0  0  0  0
 24 29  1  0  0  0  0
 26 24  1  0  0  0  0
 28 34  1  0  0  0  0
 28 27  1  0  0  0  0
 29 28  2  0  0  0  0
 30 29  1  0  0  0  0
 30 31  2  0  0  0  0
 31 32  1  0  0  0  0
 32 34  2  0  0  0  0
 32 33  1  0  0  0  0
 34 37  1  0  0  0  0
 35 30  1  0  0  0  0
 36 31  1  0  0  0  0
M  END
>  <minimizedAffinity>
-5.86821365

$$$$

 OpenBabel03242515023D

 37 39  0  0  0  0  0  0  0  0999 V2000
   41.1250   31.5110   39.7980 C   0  0  0  0  0  0  0  0  0  0  0  0
   41.8000   32.6570   40.2020 C   0  0  0  0  0  0  0  0  0  0  0  0
   41.0840   33.8260   40.4160 C   0  0  0  0  0  0  0  0  0  0  0  0
   39.7470   33.7810   40.2150 N   0  0  0  0  0  0  0  0  0  0  0  0
   39.0910   32.6700   39.8220 C   0  0  0  0  0  0  0  0  0  0  0  0
   39.7960   31.5570   39.6220 N   0  0  0  0  0  0  0  0  0  0  0  0
   42.8770   32.6700   40.3580 H   0  0  0  0  0  0  0  0  0  0  0  0
   41.5450   34.7430   40.7280 H   0  0  0  0  0  0  0  0  0  0  0  0
   37.6450   32.7270   39.6300 C   0  0  0  0  0  0  0  0  0  0  0  0
   37.1470   33.8740   39.4840 O   0  0  0  0  0  0  0  0  0  0  0  0
   36.8780   31.4680   39.6190 C   0  0  0  0  0  0  0  0  0  0  0  0
   36.2730   30.9480   40.7690 C   0  0  0  0  0  0  0  0  0  0  0  0
   36.3730   31.4900   41.6980 H   0  0  0  0  0  0  0  0  0  0  0  0
   35.5690   29.7450   40.6400 C   0  0  0  0  0  3  0  0  0  0  0  0
   35.4890   29.1200   39.4180 C   0  0  0  0  0  0  0  0  0  0  0  0
   34.9350   28.1780   39.3180 H   0  0  0  0  0  0  0  0  0  0  0  0
   36.0760   29.6120   38.2750 C   0  0  0  0  0  0  0  0  0  0  0  0
   36.0420   29.1620   37.2970 H   0  0  0  0  0  0  0  0  0  0  0  0
   36.7630   30.7920   38.4170 C   0  0  0  0  0  3  0  0  0  0  0  0
   42.1120   30.0270   39.5400 S   0  0  0  0  0  0  0  0  0  0  0  0
   41.3970   28.5810   40.3270 C   0  0  0  0  0  0  0  0  0  0  0  0
   42.0030   27.6650   40.1760 H   0  0  0  0  0  0  0  0  0  0  0  0
   41.4140   28.7750   41.4310 H   0  0  0  0  0  0  0  0  0  0  0  0
   39.9710   28.3590   39.9560 C   0  0  0  0  0  0  0  0  0  0  0  0
   39.8520   27.4770   39.3140 H   0  0  0  0  0  0  0  0  0  0  0  0
   39.6140   29.2360   39.3720 H   0  0  0  0  0  0  0  0  0  0  0  0
   38.0690   25.9830   40.0810 Cl  0  0  0  0  0  0  0  0  0  0  0  0
   38.1930   27.1990   41.3090 C   0  0  0  0  0  0  0  0  0  0  0  0
   39.1050   28.2610   41.1610 C   0  0  0  0  0  0  0  0  0  0  0  0
   39.1390   29.1740   42.1740 C   0  0  0  0  0  0  0  0  0  0  0  0
   38.3730   29.1650   43.3310 C   0  0  0  0  0  0  0  0  0  0  0  0
   37.4820   28.1160   43.4610 C   0  0  0  0  0  0  0  0  0  0  0  0
   36.4560   27.9990   44.8850 Cl  0  0  0  0  0  0  0  0  0  0  0  0
   37.4070   27.1670   42.4670 C   0  0  0  0  0  0  0  0  0  0  0  0
   39.8400   30.0090   42.0820 H   0  0  0  0  0  0  0  0  0  0  0  0
   38.4750   29.9400   44.0800 H   0  0  0  0  0  0  0  0  0  0  0  0
   36.7090   26.3240   42.5460 H   0  0  0  0  0  0  0  0  0  0  0  0
  1  2  1  0  0  0  0
  2  7  1  0  0  0  0
  2  3  2  0  0  0  0
  3  8  1  0  0  0  0
  4  3  1  0  0  0  0
  5  4  2  0  0  0  0
  6  1  2  0  0  0  0
  6  5  1  0  0  0  0
  9  5  1  0  0  0  0
 10  9  2  0  0  0  0
 11  9  1  0  0  0  0
 11 12  1  0  0  0  0
 12 13  1  0  0  0  0
 14 12  2  0  0  0  0
 15 14  1  0  0  0  0
 16 15  1  0  0  0  0
 17 19  1  0  0  0  0
 17 15  2  0  0  0  0
 18 17  1  0  0  0  0
 19 11  2  0  0  0  0
 20  1  1  0  0  0  0
 20 21  1  0  0  0  0
 21 23  1  0  0  0  0
 22 21  1  0  0  0  0
 24 21  1  0  0  0  0
 24 29  1  0  0  0  0
 25 24  1  0  0  0  0
 26 24  1  0  0  0  0
 27 28  1  0  0  0  0
 28 34  1  0  0  0  0
 29 28  2  0  0  0  0
 29 30  1  0  0  0  0
 30 31  2  0  0  0  0
 31 32  1  0  0  0  0
 31 36  1  0  0  0  0
 32 33  1  0  0  0  0
 34 37  1  0  0  0  0
 34 32  2  0  0  0  0
 35 30  1  0  0  0  0
M  END
>  <minimizedAffinity>
-5.80426741

$$$$

 OpenBabel03242515023D

 37 39  0  0  0  0  0  0  0  0999 V2000
   37.9510   29.7400   41.8350 C   0  0  0  0  0  0  0  0  0  0  0  0
   39.0840   30.5200   42.0330 C   0  0  0  0  0  0  0  0  0  0  0  0
   40.2330   29.9300   42.5400 C   0  0  0  0  0  0  0  0  0  0  0  0
   40.1810   28.6060   42.8180 N   0  0  0  0  0  0  0  0  0  0  0  0
   39.0810   27.8480   42.6270 C   0  0  0  0  0  0  0  0  0  0  0  0
   37.9880   28.4330   42.1380 N   0  0  0  0  0  0  0  0  0  0  0  0
   39.1020   31.5830   41.8030 H   0  0  0  0  0  0  0  0  0  0  0  0
   41.1400   30.4760   42.7160 H   0  0  0  0  0  0  0  0  0  0  0  0
   39.1290   26.4290   42.9610 C   0  0  0  0  0  0  0  0  0  0  0  0
   39.6310   26.1350   44.0780 O   0  0  0  0  0  0  0  0  0  0  0  0
   38.5980   25.4520   41.9930 C   0  0  0  0  0  0  0  0  0  0  0  0
   39.3690   24.9410   40.9430 C   0  0  0  0  0  0  0  0  0  0  0  0
   40.3900   25.2760   40.8380 H   0  0  0  0  0  0  0  0  0  0  0  0
   38.7610   24.0170   40.0850 C   0  0  0  0  0  3  0  0  0  0  0  0
   37.4530   23.6430   40.2900 C   0  0  0  0  0  0  0  0  0  0  0  0
   36.9780   22.9170   39.6170 H   0  0  0  0  0  0  0  0  0  0  0  0
   36.6770   24.1320   41.3140 C   0  0  0  0  0  0  0  0  0  0  0  0
   35.6510   23.8710   41.5180 H   0  0  0  0  0  0  0  0  0  0  0  0
   37.2870   25.0370   42.1480 C   0  0  0  0  0  3  0  0  0  0  0  0
   36.4940   30.5650   41.1720 S   0  0  0  0  0  0  0  0  0  0  0  0
   36.8390   31.4540   39.6520 C   0  0  0  0  0  0  0  0  0  0  0  0
   37.4550   30.8690   38.9410 H   0  0  0  0  0  0  0  0  0  0  0  0
   35.8530   31.6080   39.1390 H   0  0  0  0  0  0  0  0  0  0  0  0
   37.4130   32.8100   39.8850 C   0  0  0  0  0  0  0  0  0  0  0  0
   37.4130   33.0720   40.9510 H   0  0  0  0  0  0  0  0  0  0  0  0
   36.7760   33.5600   39.3670 H   0  0  0  0  0  0  0  0  0  0  0  0
   39.1240   35.1200   40.8890 Cl  0  0  0  0  0  0  0  0  0  0  0  0
   39.6430   33.9640   39.7080 C   0  0  0  0  0  0  0  0  0  0  0  0
   38.7780   32.9290   39.3070 C   0  0  0  0  0  0  0  0  0  0  0  0
   39.2650   32.0610   38.3740 C   0  0  0  0  0  0  0  0  0  0  0  0
   40.5200   32.0930   37.7810 C   0  0  0  0  0  0  0  0  0  0  0  0
   41.3570   33.1160   38.1850 C   0  0  0  0  0  0  0  0  0  0  0  0
   42.9710   33.2590   37.5020 Cl  0  0  0  0  0  0  0  0  0  0  0  0
   40.9140   34.0180   39.1240 C   0  0  0  0  0  0  0  0  0  0  0  0
   38.6120   31.2470   38.0460 H   0  0  0  0  0  0  0  0  0  0  0  0
   40.8140   31.3540   37.0460 H   0  0  0  0  0  0  0  0  0  0  0  0
   41.5590   34.8400   39.4630 H   0  0  0  0  0  0  0  0  0  0  0  0
  1  2  2  0  0  0  0
  1  6  1  0  0  0  0
  2  3  1  0  0  0  0
  3  8  1  0  0  0  0
  3  4  2  0  0  0  0
  5  4  1  0  0  0  0
  5  9  1  0  0  0  0
  6  5  2  0  0  0  0
  7  2  1  0  0  0  0
  9 10  2  0  0  0  0
 11 19  1  0  0  0  0
 11  9  1  0  0  0  0
 12 11  2  0  0  0  0
 13 12  1  0  0  0  0
 14 15  2  0  0  0  0
 14 12  1  0  0  0  0
 15 17  1  0  0  0  0
 16 15  1  0  0  0  0
 17 18  1  0  0  0  0
 17 19  2  0  0  0  0
 20  1  1  0  0  0  0
 21 24  1  0  0  0  0
 21 20  1  0  0  0  0
 22 21  1  0  0  0  0
 23 21  1  0  0  0  0
 24 25  1  0  0  0  0
 26 24  1  0  0  0  0
 28 27  1  0  0  0  0
 29 28  1  0  0  0  0
 29 24  1  0  0  0  0
 30 29  2  0  0  0  0
 31 32  2  0  0  0  0
 31 30  1  0  0  0  0
 32 34  1  0  0  0  0
 33 32  1  0  0  0  0
 34 37  1  0  0  0  0
 34 28  2  0  0  0  0
 35 30  1  0  0  0  0
 36 31  1  0  0  0  0
M  END
>  <minimizedAffinity>
-5.68100595

$$$$

 OpenBabel03242515023D

 37 39  0  0  0  0  0  0  0  0999 V2000
   40.3660   31.3800   39.8230 C   0  0  0  0  0  0  0  0  0  0  0  0
   40.7580   30.7790   38.6330 C   0  0  0  0  0  0  0  0  0  0  0  0
   41.0240   29.4180   38.6170 C   0  0  0  0  0  0  0  0  0  0  0  0
   40.8850   28.7430   39.7820 N   0  0  0  0  0  0  0  0  0  0  0  0
   40.5050   29.3260   40.9380 C   0  0  0  0  0  0  0  0  0  0  0  0
   40.2540   30.6350   40.9330 N   0  0  0  0  0  0  0  0  0  0  0  0
   40.8630   31.3420   37.7080 H   0  0  0  0  0  0  0  0  0  0  0  0
   41.3300   28.8940   37.7320 H   0  0  0  0  0  0  0  0  0  0  0  0
   40.3880   28.5100   42.1420 C   0  0  0  0  0  0  0  0  0  0  0  0
   41.4650   28.2120   42.7210 O   0  0  0  0  0  0  0  0  0  0  0  0
   39.0470   28.0960   42.5930 C   0  0  0  0  0  0  0  0  0  0  0  0
   38.2870   28.8590   43.4860 C   0  0  0  0  0  0  0  0  0  0  0  0
   38.6990   29.7850   43.8590 H   0  0  0  0  0  0  0  0  0  0  0  0
   37.0250   28.3680   43.8440 C   0  0  0  0  0  3  0  0  0  0  0  0
   36.5750   27.1770   43.3220 C   0  0  0  0  0  0  0  0  0  0  0  0
   35.5850   26.7940   43.6020 H   0  0  0  0  0  0  0  0  0  0  0  0
   37.3060   26.4110   42.4440 C   0  0  0  0  0  0  0  0  0  0  0  0
   36.9980   25.4750   42.0070 H   0  0  0  0  0  0  0  0  0  0  0  0
   38.5400   26.9050   42.1020 C   0  0  0  0  0  3  0  0  0  0  0  0
   40.0320   33.1500   39.7770 S   0  0  0  0  0  0  0  0  0  0  0  0
   38.4150   33.5620   40.4340 C   0  0  0  0  0  0  0  0  0  0  0  0
   38.2240   33.1050   41.4250 H   0  0  0  0  0  0  0  0  0  0  0  0
   38.4120   34.6700   40.6080 H   0  0  0  0  0  0  0  0  0  0  0  0
   37.3060   33.2790   39.4790 C   0  0  0  0  0  0  0  0  0  0  0  0
   37.5290   33.6610   38.4750 H   0  0  0  0  0  0  0  0  0  0  0  0
   36.3910   33.8040   39.8300 H   0  0  0  0  0  0  0  0  0  0  0  0
   37.6820   31.8730   36.8040 Cl  0  0  0  0  0  0  0  0  0  0  0  0
   37.1240   31.0920   38.2450 C   0  0  0  0  0  0  0  0  0  0  0  0
   36.9830   31.8280   39.4370 C   0  0  0  0  0  0  0  0  0  0  0  0
   36.5390   31.1360   40.5260 C   0  0  0  0  0  0  0  0  0  0  0  0
   36.2140   29.7880   40.5810 C   0  0  0  0  0  0  0  0  0  0  0  0
   36.3570   29.0790   39.4030 C   0  0  0  0  0  0  0  0  0  0  0  0
   35.9740   27.3640   39.3510 Cl  0  0  0  0  0  0  0  0  0  0  0  0
   36.8020   29.7300   38.2750 C   0  0  0  0  0  0  0  0  0  0  0  0
   36.4200   31.6860   41.4640 H   0  0  0  0  0  0  0  0  0  0  0  0
   35.8680   29.3290   41.4990 H   0  0  0  0  0  0  0  0  0  0  0  0
   36.9260   29.1910   37.3260 H   0  0  0  0  0  0  0  0  0  0  0  0
  1  6  1  0  0  0  0
  2  1  2  0  0  0  0
  3  2  1  0  0  0  0
  3  4  2  0  0  0  0
  4  5  1  0  0  0  0
  5  9  1  0  0  0  0
  6  5  2  0  0  0  0
  7  2  1  0  0  0  0
  8  3  1  0  0  0  0
  9 11  1  0  0  0  0
  9 10  2  0  0  0  0
 11 12  1  0  0  0  0
 12 14  2  0  0  0  0
 12 13  1  0  0  0  0
 15 16  1  0  0  0  0
 15 14  1  0  0  0  0
 17 15  2  0  0  0  0
 18 17  1  0  0  0  0
 19 17  1  0  0  0  0
 19 11  2  0  0  0  0
 20  1  1  0  0  0  0
 20 21  1  0  0  0  0
 21 23  1  0  0  0  0
 21 22  1  0  0  0  0
 24 26  1  0  0  0  0
 24 21  1  0  0  0  0
 25 24  1  0  0  0  0
 27 28  1  0  0  0  0
 28 34  2  0  0  0  0
 28 29  1  0  0  0  0
 29 24  1  0  0  0  0
 29 30  2  0  0  0  0
 30 31  1  0  0  0  0
 30 35  1  0  0  0  0
 31 36  1  0  0  0  0
 32 31  2  0  0  0  0
 33 32  1  0  0  0  0
 34 32  1  0  0  0  0
 37 34  1  0  0  0  0
M  END
>  <minimizedAffinity>
-5.62306643

$$$$

 OpenBabel03242515023D

 37 39  0  0  0  0  0  0  0  0999 V2000
   37.7120   29.7720   41.6280 C   0  0  0  0  0  0  0  0  0  0  0  0
   38.7540   29.6740   42.5430 C   0  0  0  0  0  0  0  0  0  0  0  0
   39.6870   30.6980   42.6200 C   0  0  0  0  0  0  0  0  0  0  0  0
   39.5260   31.7500   41.7850 N   0  0  0  0  0  0  0  0  0  0  0  0
   38.5160   31.8470   40.8960 C   0  0  0  0  0  0  0  0  0  0  0  0
   37.6290   30.8530   40.8370 N   0  0  0  0  0  0  0  0  0  0  0  0
   38.8640   28.8170   43.2050 H   0  0  0  0  0  0  0  0  0  0  0  0
   40.5140   30.6830   43.3040 H   0  0  0  0  0  0  0  0  0  0  0  0
   38.4330   33.0240   40.0380 C   0  0  0  0  0  0  0  0  0  0  0  0
   37.2750   33.4480   39.7840 O   0  0  0  0  0  0  0  0  0  0  0  0
   39.6800   33.6270   39.5340 C   0  0  0  0  0  0  0  0  0  0  0  0
   40.1340   34.8790   39.9620 C   0  0  0  0  0  0  0  0  0  0  0  0
   39.5480   35.4240   40.6880 H   0  0  0  0  0  0  0  0  0  0  0  0
   41.3330   35.3530   39.4170 C   0  0  0  0  0  3  0  0  0  0  0  0
   42.0190   34.5940   38.4970 C   0  0  0  0  0  0  0  0  0  0  0  0
   42.9600   34.9660   38.0710 H   0  0  0  0  0  0  0  0  0  0  0  0
   41.5910   33.3620   38.0610 C   0  0  0  0  0  0  0  0  0  0  0  0
   42.0910   32.7300   37.3450 H   0  0  0  0  0  0  0  0  0  0  0  0
   40.4140   32.9110   38.6050 C   0  0  0  0  0  3  0  0  0  0  0  0
   36.5330   28.4120   41.5780 S   0  0  0  0  0  0  0  0  0  0  0  0
   36.7510   27.2630   42.9400 C   0  0  0  0  0  0  0  0  0  0  0  0
   37.3410   27.6920   43.7740 H   0  0  0  0  0  0  0  0  0  0  0  0
   35.7310   27.0680   43.3610 H   0  0  0  0  0  0  0  0  0  0  0  0
   37.2930   25.9430   42.5100 C   0  0  0  0  0  0  0  0  0  0  0  0
   36.9470   25.6710   41.5050 H   0  0  0  0  0  0  0  0  0  0  0  0
   36.9180   25.1610   43.2050 H   0  0  0  0  0  0  0  0  0  0  0  0
   38.7790   25.1920   39.9590 Cl  0  0  0  0  0  0  0  0  0  0  0  0
   39.5530   25.5780   41.4600 C   0  0  0  0  0  0  0  0  0  0  0  0
   38.7780   25.9140   42.5870 C   0  0  0  0  0  0  0  0  0  0  0  0
   39.4660   26.2050   43.7290 C   0  0  0  0  0  0  0  0  0  0  0  0
   40.8450   26.2040   43.8950 C   0  0  0  0  0  0  0  0  0  0  0  0
   41.5900   25.8710   42.7800 C   0  0  0  0  0  0  0  0  0  0  0  0
   43.3460   25.8350   42.8690 Cl  0  0  0  0  0  0  0  0  0  0  0  0
   40.9450   25.5690   41.6020 C   0  0  0  0  0  0  0  0  0  0  0  0
   38.8870   26.4690   44.6190 H   0  0  0  0  0  0  0  0  0  0  0  0
   41.2970   26.4510   44.8470 H   0  0  0  0  0  0  0  0  0  0  0  0
   41.5140   25.3020   40.7020 H   0  0  0  0  0  0  0  0  0  0  0  0
  1  2  1  0  0  0  0
  2  3  2  0  0  0  0
  2  7  1  0  0  0  0
  3  8  1  0  0  0  0
  4  3  1  0  0  0  0
  5  4  2  0  0  0  0
  6  5  1  0  0  0  0
  6  1  2  0  0  0  0
  9  5  1  0  0  0  0
 10  9  2  0  0  0  0
 11 12  1  0  0  0  0
 11  9  1  0  0  0  0
 12 13  1  0  0  0  0
 14 12  2  0  0  0  0
 15 14  1  0  0  0  0
 16 15  1  0  0  0  0
 17 15  2  0  0  0  0
 17 19  1  0  0  0  0
 18 17  1  0  0  0  0
 19 11  2  0  0  0  0
 20  1  1  0  0  0  0
 20 21  1  0  0  0  0
 21 23  1  0  0  0  0
 21 22  1  0  0  0  0
 24 29  1  0  0  0  0
 24 21  1  0  0  0  0
 24 26  1  0  0  0  0
 25 24  1  0  0  0  0
 27 28  1  0  0  0  0
 28 34  2  0  0  0  0
 28 29  1  0  0  0  0
 29 30  2  0  0  0  0
 30 31  1  0  0  0  0
 30 35  1  0  0  0  0
 31 36  1  0  0  0  0
 32 33  1  0  0  0  0
 32 31  2  0  0  0  0
 34 32  1  0  0  0  0
 37 34  1  0  0  0  0
M  END
>  <minimizedAffinity>
-5.60853958

$$$$

 OpenBabel03242515023D

 37 39  0  0  0  0  0  0  0  0999 V2000
   36.8260   25.0520   39.2270 C   0  0  0  0  0  0  0  0  0  0  0  0
   37.4120   24.6540   38.0310 C   0  0  0  0  0  0  0  0  0  0  0  0
   37.2560   25.4470   36.9040 C   0  0  0  0  0  0  0  0  0  0  0  0
   36.5290   26.5810   37.0360 N   0  0  0  0  0  0  0  0  0  0  0  0
   35.9600   26.9680   38.1960 C   0  0  0  0  0  0  0  0  0  0  0  0
   36.1210   26.1930   39.2690 N   0  0  0  0  0  0  0  0  0  0  0  0
   37.9920   23.7370   37.9480 H   0  0  0  0  0  0  0  0  0  0  0  0
   37.6820   25.1960   35.9510 H   0  0  0  0  0  0  0  0  0  0  0  0
   35.1930   28.2090   38.2330 C   0  0  0  0  0  0  0  0  0  0  0  0
   34.0430   28.1680   37.7230 O   0  0  0  0  0  0  0  0  0  0  0  0
   35.7990   29.4020   38.8500 C   0  0  0  0  0  0  0  0  0  0  0  0
   36.6260   30.2770   38.1380 C   0  0  0  0  0  0  0  0  0  0  0  0
   36.8270   30.0700   37.0970 H   0  0  0  0  0  0  0  0  0  0  0  0
   37.1460   31.3800   38.8260 C   0  0  0  0  0  3  0  0  0  0  0  0
   36.8390   31.5710   40.1530 C   0  0  0  0  0  0  0  0  0  0  0  0
   37.2460   32.4370   40.6920 H   0  0  0  0  0  0  0  0  0  0  0  0
   36.0300   30.7230   40.8740 C   0  0  0  0  0  0  0  0  0  0  0  0
   35.7590   30.8290   41.9120 H   0  0  0  0  0  0  0  0  0  0  0  0
   35.5280   29.6470   40.1850 C   0  0  0  0  0  3  0  0  0  0  0  0
   37.0680   23.9810   40.6550 S   0  0  0  0  0  0  0  0  0  0  0  0
   37.8520   24.8300   42.0270 C   0  0  0  0  0  0  0  0  0  0  0  0
   38.1420   24.1450   42.8480 H   0  0  0  0  0  0  0  0  0  0  0  0
   38.8130   25.2550   41.6350 H   0  0  0  0  0  0  0  0  0  0  0  0
   37.0540   25.9830   42.5340 C   0  0  0  0  0  0  0  0  0  0  0  0
   36.7200   25.8210   43.5670 H   0  0  0  0  0  0  0  0  0  0  0  0
   36.1390   26.0840   41.9100 H   0  0  0  0  0  0  0  0  0  0  0  0
   36.7060   27.9950   44.7940 Cl  0  0  0  0  0  0  0  0  0  0  0  0
   37.7080   28.2530   43.4050 C   0  0  0  0  0  0  0  0  0  0  0  0
   37.8050   27.2600   42.4110 C   0  0  0  0  0  0  0  0  0  0  0  0
   38.6160   27.5430   41.3510 C   0  0  0  0  0  0  0  0  0  0  0  0
   39.3530   28.7030   41.1510 C   0  0  0  0  0  0  0  0  0  0  0  0
   39.2460   29.6670   42.1350 C   0  0  0  0  0  0  0  0  0  0  0  0
   40.1330   31.1790   41.9900 Cl  0  0  0  0  0  0  0  0  0  0  0  0
   38.4410   29.4320   43.2260 C   0  0  0  0  0  0  0  0  0  0  0  0
   38.7080   26.7880   40.5650 H   0  0  0  0  0  0  0  0  0  0  0  0
   39.9700   28.8320   40.2710 H   0  0  0  0  0  0  0  0  0  0  0  0
   38.3390   30.1810   44.0220 H   0  0  0  0  0  0  0  0  0  0  0  0
  1  6  1  0  0  0  0
  1 20  1  0  0  0  0
  2  1  2  0  0  0  0
  3  4  2  0  0  0  0
  3  2  1  0  0  0  0
  4  5  1  0  0  0  0
  5  9  1  0  0  0  0
  5  6  2  0  0  0  0
  7  2  1  0  0  0  0
  8  3  1  0  0  0  0
  9 11  1  0  0  0  0
 10  9  2  0  0  0  0
 11 19  1  0  0  0  0
 12 14  1  0  0  0  0
 12 11  2  0  0  0  0
 13 12  1  0  0  0  0
 14 15  2  0  0  0  0
 15 16  1  0  0  0  0
 15 17  1  0  0  0  0
 17 18  1  0  0  0  0
 19 17  2  0  0  0  0
 20 21  1  0  0  0  0
 21 24  1  0  0  0  0
 21 22  1  0  0  0  0
 23 21  1  0  0  0  0
 24 25  1  0  0  0  0
 26 24  1  0  0  0  0
 28 27  1  0  0  0  0
 29 24  1  0  0  0  0
 29 28  2  0  0  0  0
 30 29  1  0  0  0  0
 31 30  2  0  0  0  0
 31 32  1  0  0  0  0
 32 34  2  0  0  0  0
 33 32  1  0  0  0  0
 34 28  1  0  0  0  0
 34 37  1  0  0  0  0
 35 30  1  0  0  0  0
 36 31  1  0  0  0  0
M  END
>  <minimizedAffinity>
-5.54497576

$$$$
