
 OpenBabel03242510513D

 22 23  0  0  0  0  0  0  0  0999 V2000
   44.2690   35.9640   44.4030 C   0  0  0  0  0  0  0  0  0  0  0  0
   44.2610   35.4060   43.0980 C   0  0  0  0  0  0  0  0  0  0  0  0
   44.8660   34.1580   42.9350 C   0  0  0  0  0  0  0  0  0  0  0  0
   45.4260   33.5410   44.0110 N   0  0  0  0  0  0  0  0  0  0  0  0
   45.4160   34.0950   45.2300 C   0  0  0  0  0  0  0  0  0  0  0  0
   44.8330   35.3140   45.4190 N   0  0  0  0  0  0  0  0  0  0  0  0
   46.8800   32.3220   45.9750 C   0  0  0  0  0  0  0  0  0  0  0  0
   47.1490   31.9450   44.8140 O   0  0  0  0  0  0  0  0  0  0  0  0
   46.0180   33.3990   46.3090 N   0  0  0  0  0  0  0  0  0  0  0  0
   43.7880   36.9290   44.4700 H   0  0  0  0  0  0  0  0  0  0  0  0
   43.8220   35.8800   42.2300 H   0  0  0  0  0  0  0  0  0  0  0  0
   44.9210   33.6360   41.9890 H   0  0  0  0  0  0  0  0  0  0  0  0
   45.8010   33.7050   47.2810 H   0  0  0  0  0  0  0  0  0  0  0  0
   47.5320   31.5640   47.0420 C   0  0  0  0  0  0  0  0  0  0  0  0
   47.9290   30.2510   46.7980 C   0  0  0  0  0  0  0  0  0  0  0  0
   47.7690   29.7750   45.8420 H   0  0  0  0  0  0  0  0  0  0  0  0
   48.5580   29.4340   47.7440 C   0  0  0  0  0  0  0  0  0  0  0  0
   48.8020   29.9620   48.9950 C   0  0  0  0  0  0  0  0  0  0  0  0
   49.2840   29.4010   49.7880 H   0  0  0  0  0  0  0  0  0  0  0  0
   48.4210   31.2570   49.2660 C   0  0  0  0  0  0  0  0  0  0  0  0
   48.6150   31.6640   50.2480 H   0  0  0  0  0  0  0  0  0  0  0  0
   47.8100   32.0170   48.3150 C   0  0  0  0  0  0  0  0  0  0  0  0
  1 10  1  0  0  0  0
  1  6  1  0  0  0  0
  2  1  2  0  0  0  0
  3  2  1  0  0  0  0
  3  4  2  0  0  0  0
  4  5  1  0  0  0  0
  5  6  2  0  0  0  0
  5  9  1  0  0  0  0
  7  9  1  0  0  0  0
  7 14  1  0  0  0  0
  8  7  2  0  0  0  0
  9 13  1  0  0  0  0
 11  2  1  0  0  0  0
 12  3  1  0  0  0  0
 14 22  1  0  0  0  0
 15 14  2  0  0  0  0
 15 17  1  0  0  0  0
 16 15  1  0  0  0  0
 17 18  2  0  0  0  0
 18 20  1  0  0  0  0
 18 19  1  0  0  0  0
 20 21  1  0  0  0  0
 22 20  2  0  0  0  0
M  END
>  <minimizedAffinity>
-4.61816311

>  <minimizedRMSD>
1.86753774

$$$$
