
 OpenBabel03242510523D

 22 23  0  0  0  0  0  0  0  0999 V2000
   37.1700   32.7180   39.2460 C   0  0  0  0  0  0  0  0  0  0  0  0
   38.1290   33.1980   40.1760 C   0  0  0  0  0  0  0  0  0  0  0  0
   38.7170   32.2590   41.0260 C   0  0  0  0  0  0  0  0  0  0  0  0
   38.3540   30.9510   40.9300 N   0  0  0  0  0  0  0  0  0  0  0  0
   37.4450   30.5310   40.0410 C   0  0  0  0  0  0  0  0  0  0  0  0
   36.8530   31.4260   39.1980 N   0  0  0  0  0  0  0  0  0  0  0  0
   37.5070   28.3600   41.1030 C   0  0  0  0  0  0  0  0  0  0  0  0
   38.1200   28.7790   42.1090 O   0  0  0  0  0  0  0  0  0  0  0  0
   37.1110   29.1540   39.9940 N   0  0  0  0  0  0  0  0  0  0  0  0
   36.7480   33.4880   38.6160 H   0  0  0  0  0  0  0  0  0  0  0  0
   38.4320   34.2330   40.2680 H   0  0  0  0  0  0  0  0  0  0  0  0
   39.4600   32.5070   41.7730 H   0  0  0  0  0  0  0  0  0  0  0  0
   36.6000   28.7940   39.1600 H   0  0  0  0  0  0  0  0  0  0  0  0
   37.1920   26.9330   41.1150 C   0  0  0  0  0  0  0  0  0  0  0  0
   36.7910   26.3150   39.9310 C   0  0  0  0  0  0  0  0  0  0  0  0
   36.7040   26.8620   39.0040 H   0  0  0  0  0  0  0  0  0  0  0  0
   36.4660   24.9580   39.8270 C   0  0  0  0  0  3  0  0  0  0  0  0
   36.5490   24.1830   40.9650 C   0  0  0  0  0  0  0  0  0  0  0  0
   36.3150   23.1250   40.9760 H   0  0  0  0  0  0  0  0  0  0  0  0
   36.9420   24.7650   42.1490 C   0  0  0  0  0  0  0  0  0  0  0  0
   37.0050   24.1530   43.0370 H   0  0  0  0  0  0  0  0  0  0  0  0
   37.2490   26.0910   42.2060 C   0  0  0  0  0  3  0  0  0  0  0  0
  1  2  1  0  0  0  0
  2 11  1  0  0  0  0
  2  3  2  0  0  0  0
  3 12  1  0  0  0  0
  4  3  1  0  0  0  0
  5  4  2  0  0  0  0
  6  1  2  0  0  0  0
  6  5  1  0  0  0  0
  7 14  1  0  0  0  0
  7  8  2  0  0  0  0
  9  5  1  0  0  0  0
  9  7  1  0  0  0  0
 10  1  1  0  0  0  0
 13  9  1  0  0  0  0
 14 22  1  0  0  0  0
 15 14  2  0  0  0  0
 16 15  1  0  0  0  0
 17 15  1  0  0  0  0
 17 18  2  0  0  0  0
 18 19  1  0  0  0  0
 18 20  1  0  0  0  0
 20 22  2  0  0  0  0
 20 21  1  0  0  0  0
M  END
>  <minimizedAffinity>
-4.63761663

$$$$

 OpenBabel03242510523D

 22 23  0  0  0  0  0  0  0  0999 V2000
   39.2330   33.5070   40.7830 C   0  0  0  0  0  0  0  0  0  0  0  0
   38.2230   34.0190   39.9270 C   0  0  0  0  0  0  0  0  0  0  0  0
   37.1920   33.1480   39.5680 C   0  0  0  0  0  0  0  0  0  0  0  0
   37.1980   31.8720   40.0420 N   0  0  0  0  0  0  0  0  0  0  0  0
   38.1670   31.4220   40.8490 C   0  0  0  0  0  0  0  0  0  0  0  0
   39.1870   32.2490   41.2170 N   0  0  0  0  0  0  0  0  0  0  0  0
   37.2290   29.2050   40.6260 C   0  0  0  0  0  0  0  0  0  0  0  0
   36.5010   29.5210   39.6600 O   0  0  0  0  0  0  0  0  0  0  0  0
   38.1140   30.0810   41.3070 N   0  0  0  0  0  0  0  0  0  0  0  0
   40.0040   34.2240   41.0270 H   0  0  0  0  0  0  0  0  0  0  0  0
   38.1990   35.0290   39.5390 H   0  0  0  0  0  0  0  0  0  0  0  0
   36.3690   33.4250   38.9210 H   0  0  0  0  0  0  0  0  0  0  0  0
   38.7160   29.8060   42.1120 H   0  0  0  0  0  0  0  0  0  0  0  0
   37.1280   27.8100   41.0510 C   0  0  0  0  0  0  0  0  0  0  0  0
   37.0480   27.5180   42.4110 C   0  0  0  0  0  0  0  0  0  0  0  0
   37.0600   28.2940   43.1630 H   0  0  0  0  0  0  0  0  0  0  0  0
   36.9490   26.2220   42.9300 C   0  0  0  0  0  3  0  0  0  0  0  0
   36.9280   25.1680   42.0400 C   0  0  0  0  0  0  0  0  0  0  0  0
   36.8540   24.1330   42.3530 H   0  0  0  0  0  0  0  0  0  0  0  0
   37.0050   25.4260   40.6900 C   0  0  0  0  0  0  0  0  0  0  0  0
   36.9880   24.5960   39.9980 H   0  0  0  0  0  0  0  0  0  0  0  0
   37.1010   26.7040   40.2280 C   0  0  0  0  0  3  0  0  0  0  0  0
  1 10  1  0  0  0  0
  1  6  1  0  0  0  0
  2  1  2  0  0  0  0
  3  2  1  0  0  0  0
  3  4  2  0  0  0  0
  4  5  1  0  0  0  0
  5  6  2  0  0  0  0
  5  9  1  0  0  0  0
  7 14  1  0  0  0  0
  7  9  1  0  0  0  0
  8  7  2  0  0  0  0
  9 13  1  0  0  0  0
 11  2  1  0  0  0  0
 12  3  1  0  0  0  0
 14 15  1  0  0  0  0
 15 17  2  0  0  0  0
 15 16  1  0  0  0  0
 18 19  1  0  0  0  0
 18 17  1  0  0  0  0
 20 18  2  0  0  0  0
 21 20  1  0  0  0  0
 22 20  1  0  0  0  0
 22 14  2  0  0  0  0
M  END
>  <minimizedAffinity>
-4.53670835

$$$$

 OpenBabel03242510523D

 22 23  0  0  0  0  0  0  0  0999 V2000
   37.1600   25.4380   40.3170 C   0  0  0  0  0  0  0  0  0  0  0  0
   37.0760   25.1900   41.7120 C   0  0  0  0  0  0  0  0  0  0  0  0
   37.1070   26.3000   42.5590 C   0  0  0  0  0  0  0  0  0  0  0  0
   37.2170   27.5460   42.0240 N   0  0  0  0  0  0  0  0  0  0  0  0
   37.2940   27.7460   40.7030 C   0  0  0  0  0  0  0  0  0  0  0  0
   37.2650   26.6810   39.8510 N   0  0  0  0  0  0  0  0  0  0  0  0
   37.7630   30.0740   41.1490 C   0  0  0  0  0  0  0  0  0  0  0  0
   37.9860   29.8820   42.3640 O   0  0  0  0  0  0  0  0  0  0  0  0
   37.4060   29.0710   40.2110 N   0  0  0  0  0  0  0  0  0  0  0  0
   37.1310   24.5440   39.7110 H   0  0  0  0  0  0  0  0  0  0  0  0
   36.9890   24.2080   42.1570 H   0  0  0  0  0  0  0  0  0  0  0  0
   37.0500   26.2340   43.6380 H   0  0  0  0  0  0  0  0  0  0  0  0
   37.2230   29.2430   39.2000 H   0  0  0  0  0  0  0  0  0  0  0  0
   37.8950   31.4610   40.7040 C   0  0  0  0  0  0  0  0  0  0  0  0
   38.9810   32.2160   41.1430 C   0  0  0  0  0  0  0  0  0  0  0  0
   39.7310   31.8050   41.8050 H   0  0  0  0  0  0  0  0  0  0  0  0
   39.2060   33.5480   40.7830 C   0  0  0  0  0  3  0  0  0  0  0  0
   38.2980   34.1540   39.9400 C   0  0  0  0  0  0  0  0  0  0  0  0
   38.3930   35.1820   39.6100 H   0  0  0  0  0  0  0  0  0  0  0  0
   37.2140   33.4330   39.4890 C   0  0  0  0  0  0  0  0  0  0  0  0
   36.5060   33.9130   38.8290 H   0  0  0  0  0  0  0  0  0  0  0  0
   37.0330   32.1370   39.8660 C   0  0  0  0  0  3  0  0  0  0  0  0
  1  2  1  0  0  0  0
  2 11  1  0  0  0  0
  2  3  2  0  0  0  0
  3 12  1  0  0  0  0
  4  3  1  0  0  0  0
  5  4  2  0  0  0  0
  6  1  2  0  0  0  0
  6  5  1  0  0  0  0
  7  8  2  0  0  0  0
  9  5  1  0  0  0  0
  9  7  1  0  0  0  0
 10  1  1  0  0  0  0
 13  9  1  0  0  0  0
 14 15  1  0  0  0  0
 14  7  1  0  0  0  0
 15 16  1  0  0  0  0
 17 15  2  0  0  0  0
 18 17  1  0  0  0  0
 19 18  1  0  0  0  0
 20 22  1  0  0  0  0
 20 18  2  0  0  0  0
 21 20  1  0  0  0  0
 22 14  2  0  0  0  0
M  END
>  <minimizedAffinity>
-4.52951479

$$$$

 OpenBabel03242510523D

 22 23  0  0  0  0  0  0  0  0999 V2000
   42.1200   33.1590   37.3030 C   0  0  0  0  0  0  0  0  0  0  0  0
   42.2130   34.1540   38.3110 C   0  0  0  0  0  0  0  0  0  0  0  0
   41.2190   34.1610   39.2910 C   0  0  0  0  0  0  0  0  0  0  0  0
   40.2230   33.2350   39.2410 N   0  0  0  0  0  0  0  0  0  0  0  0
   40.1650   32.3090   38.2760 C   0  0  0  0  0  0  0  0  0  0  0  0
   41.1220   32.2770   37.3050 N   0  0  0  0  0  0  0  0  0  0  0  0
   37.9860   31.6750   39.1070 C   0  0  0  0  0  0  0  0  0  0  0  0
   37.8710   32.6940   39.8220 O   0  0  0  0  0  0  0  0  0  0  0  0
   39.1000   31.3720   38.2820 N   0  0  0  0  0  0  0  0  0  0  0  0
   42.9150   33.2010   36.5720 H   0  0  0  0  0  0  0  0  0  0  0  0
   42.9950   34.8990   38.3690 H   0  0  0  0  0  0  0  0  0  0  0  0
   41.1850   34.8710   40.1080 H   0  0  0  0  0  0  0  0  0  0  0  0
   39.1850   30.5190   37.6900 H   0  0  0  0  0  0  0  0  0  0  0  0
   36.8550   30.7490   39.1580 C   0  0  0  0  0  0  0  0  0  0  0  0
   36.4360   30.1230   37.9850 C   0  0  0  0  0  0  0  0  0  0  0  0
   36.9230   30.3030   37.0370 H   0  0  0  0  0  0  0  0  0  0  0  0
   35.3690   29.2220   37.9170 C   0  0  0  0  0  3  0  0  0  0  0  0
   34.6880   28.9330   39.0820 C   0  0  0  0  0  0  0  0  0  0  0  0
   33.8500   28.2480   39.1210 H   0  0  0  0  0  0  0  0  0  0  0  0
   35.0800   29.5360   40.2560 C   0  0  0  0  0  0  0  0  0  0  0  0
   34.5430   29.3060   41.1650 H   0  0  0  0  0  0  0  0  0  0  0  0
   36.1260   30.4090   40.2770 C   0  0  0  0  0  3  0  0  0  0  0  0
  1  6  2  0  0  0  0
  1  2  1  0  0  0  0
  2 11  1  0  0  0  0
  2  3  2  0  0  0  0
  3 12  1  0  0  0  0
  4  3  1  0  0  0  0
  5  9  1  0  0  0  0
  5  4  2  0  0  0  0
  6  5  1  0  0  0  0
  7 14  1  0  0  0  0
  7  8  2  0  0  0  0
  9  7  1  0  0  0  0
 10  1  1  0  0  0  0
 13  9  1  0  0  0  0
 14 22  1  0  0  0  0
 15 14  2  0  0  0  0
 16 15  1  0  0  0  0
 17 15  1  0  0  0  0
 17 18  2  0  0  0  0
 18 19  1  0  0  0  0
 18 20  1  0  0  0  0
 20 22  2  0  0  0  0
 20 21  1  0  0  0  0
M  END
>  <minimizedAffinity>
-4.44407749

$$$$

 OpenBabel03242510523D

 22 23  0  0  0  0  0  0  0  0999 V2000
   38.0560   31.5560   38.2770 C   0  0  0  0  0  0  0  0  0  0  0  0
   37.2430   32.3610   39.1170 C   0  0  0  0  0  0  0  0  0  0  0  0
   36.9700   31.8730   40.3960 C   0  0  0  0  0  0  0  0  0  0  0  0
   37.4820   30.6700   40.7760 N   0  0  0  0  0  0  0  0  0  0  0  0
   38.2460   29.9350   39.9590 C   0  0  0  0  0  0  0  0  0  0  0  0
   38.5300   30.3870   38.7030 N   0  0  0  0  0  0  0  0  0  0  0  0
   38.1450   28.1470   41.5810 C   0  0  0  0  0  0  0  0  0  0  0  0
   37.2130   28.6740   42.2270 O   0  0  0  0  0  0  0  0  0  0  0  0
   38.7480   28.6910   40.4180 N   0  0  0  0  0  0  0  0  0  0  0  0
   38.2340   31.9820   37.3000 H   0  0  0  0  0  0  0  0  0  0  0  0
   36.8270   33.3180   38.8340 H   0  0  0  0  0  0  0  0  0  0  0  0
   36.3640   32.3980   41.1220 H   0  0  0  0  0  0  0  0  0  0  0  0
   39.5250   28.2420   39.8880 H   0  0  0  0  0  0  0  0  0  0  0  0
   38.6180   26.8660   42.1050 C   0  0  0  0  0  0  0  0  0  0  0  0
   39.5870   26.8580   43.1070 C   0  0  0  0  0  0  0  0  0  0  0  0
   40.0010   27.7720   43.5080 H   0  0  0  0  0  0  0  0  0  0  0  0
   40.1110   25.6940   43.6790 C   0  0  0  0  0  3  0  0  0  0  0  0
   39.6390   24.4790   43.2270 C   0  0  0  0  0  0  0  0  0  0  0  0
   39.9890   23.5290   43.6130 H   0  0  0  0  0  0  0  0  0  0  0  0
   38.6810   24.4560   42.2380 C   0  0  0  0  0  0  0  0  0  0  0  0
   38.3160   23.5020   41.8870 H   0  0  0  0  0  0  0  0  0  0  0  0
   38.1980   25.6140   41.7070 C   0  0  0  0  0  3  0  0  0  0  0  0
  1  6  2  0  0  0  0
  1  2  1  0  0  0  0
  2  3  2  0  0  0  0
  3  4  1  0  0  0  0
  3 12  1  0  0  0  0
  5  9  1  0  0  0  0
  5  4  2  0  0  0  0
  6  5  1  0  0  0  0
  7 14  1  0  0  0  0
  7  8  2  0  0  0  0
  9  7  1  0  0  0  0
 10  1  1  0  0  0  0
 11  2  1  0  0  0  0
 13  9  1  0  0  0  0
 14 15  1  0  0  0  0
 15 16  1  0  0  0  0
 15 17  2  0  0  0  0
 18 19  1  0  0  0  0
 18 17  1  0  0  0  0
 20 18  2  0  0  0  0
 21 20  1  0  0  0  0
 22 14  2  0  0  0  0
 22 20  1  0  0  0  0
M  END
>  <minimizedAffinity>
-4.40862846

$$$$

 OpenBabel03242510523D

 22 23  0  0  0  0  0  0  0  0999 V2000
   40.4150   34.0590   39.5520 C   0  0  0  0  0  0  0  0  0  0  0  0
   41.6610   34.1160   40.2310 C   0  0  0  0  0  0  0  0  0  0  0  0
   41.9520   33.0730   41.1130 C   0  0  0  0  0  0  0  0  0  0  0  0
   41.0490   32.0680   41.2820 N   0  0  0  0  0  0  0  0  0  0  0  0
   39.8840   32.0450   40.6250 C   0  0  0  0  0  0  0  0  0  0  0  0
   39.5710   33.0500   39.7570 N   0  0  0  0  0  0  0  0  0  0  0  0
   39.2270   30.1610   41.9900 C   0  0  0  0  0  0  0  0  0  0  0  0
   40.1580   30.3240   42.8080 O   0  0  0  0  0  0  0  0  0  0  0  0
   38.9870   30.9680   40.8480 N   0  0  0  0  0  0  0  0  0  0  0  0
   40.2430   34.8910   38.8830 H   0  0  0  0  0  0  0  0  0  0  0  0
   42.3910   34.9040   40.1110 H   0  0  0  0  0  0  0  0  0  0  0  0
   42.8680   33.0090   41.6860 H   0  0  0  0  0  0  0  0  0  0  0  0
   38.2080   30.8230   40.1710 H   0  0  0  0  0  0  0  0  0  0  0  0
   38.3400   29.0350   42.2740 C   0  0  0  0  0  0  0  0  0  0  0  0
   38.0480   28.1250   41.2590 C   0  0  0  0  0  0  0  0  0  0  0  0
   38.4590   28.2290   40.2650 H   0  0  0  0  0  0  0  0  0  0  0  0
   37.2130   27.0140   41.4180 C   0  0  0  0  0  3  0  0  0  0  0  0
   36.6430   26.8050   42.6570 C   0  0  0  0  0  0  0  0  0  0  0  0
   35.9840   25.9710   42.8690 H   0  0  0  0  0  0  0  0  0  0  0  0
   36.9130   27.6860   43.6800 C   0  0  0  0  0  0  0  0  0  0  0  0
   36.4630   27.5170   44.6470 H   0  0  0  0  0  0  0  0  0  0  0  0
   37.7320   28.7560   43.4800 C   0  0  0  0  0  3  0  0  0  0  0  0
  1  6  2  0  0  0  0
  1  2  1  0  0  0  0
  2  3  2  0  0  0  0
  3  4  1  0  0  0  0
  3 12  1  0  0  0  0
  5  9  1  0  0  0  0
  5  4  2  0  0  0  0
  6  5  1  0  0  0  0
  7 14  1  0  0  0  0
  7  8  2  0  0  0  0
  9  7  1  0  0  0  0
 10  1  1  0  0  0  0
 11  2  1  0  0  0  0
 13  9  1  0  0  0  0
 14 22  1  0  0  0  0
 15 17  1  0  0  0  0
 15 14  2  0  0  0  0
 16 15  1  0  0  0  0
 17 18  2  0  0  0  0
 18 19  1  0  0  0  0
 18 20  1  0  0  0  0
 20 21  1  0  0  0  0
 22 20  2  0  0  0  0
M  END
>  <minimizedAffinity>
-4.40542412

$$$$

 OpenBabel03242510523D

 22 23  0  0  0  0  0  0  0  0999 V2000
   41.4730   32.3090   37.3090 C   0  0  0  0  0  0  0  0  0  0  0  0
   41.6790   33.5310   38.0010 C   0  0  0  0  0  0  0  0  0  0  0  0
   41.1500   33.6290   39.2900 C   0  0  0  0  0  0  0  0  0  0  0  0
   40.4720   32.5730   39.8170 N   0  0  0  0  0  0  0  0  0  0  0  0
   40.2950   31.4340   39.1360 C   0  0  0  0  0  0  0  0  0  0  0  0
   40.8010   31.3090   37.8750 N   0  0  0  0  0  0  0  0  0  0  0  0
   38.8110   30.6930   40.8940 C   0  0  0  0  0  0  0  0  0  0  0  0
   38.7170   31.8290   41.4070 O   0  0  0  0  0  0  0  0  0  0  0  0
   39.5780   30.3720   39.7440 N   0  0  0  0  0  0  0  0  0  0  0  0
   41.9030   32.2890   36.3180 H   0  0  0  0  0  0  0  0  0  0  0  0
   42.2150   34.3810   37.6010 H   0  0  0  0  0  0  0  0  0  0  0  0
   41.2440   34.5100   39.9120 H   0  0  0  0  0  0  0  0  0  0  0  0
   39.6500   29.4210   39.3250 H   0  0  0  0  0  0  0  0  0  0  0  0
   38.0490   29.6410   41.5660 C   0  0  0  0  0  0  0  0  0  0  0  0
   38.2960   29.3790   42.9130 C   0  0  0  0  0  0  0  0  0  0  0  0
   39.0360   29.9300   43.4750 H   0  0  0  0  0  0  0  0  0  0  0  0
   37.6290   28.3980   43.6540 C   0  0  0  0  0  3  0  0  0  0  0  0
   36.6670   27.6450   43.0150 C   0  0  0  0  0  0  0  0  0  0  0  0
   36.1020   26.8650   43.5120 H   0  0  0  0  0  0  0  0  0  0  0  0
   36.4000   27.8820   41.6850 C   0  0  0  0  0  0  0  0  0  0  0  0
   35.6450   27.2880   41.1900 H   0  0  0  0  0  0  0  0  0  0  0  0
   37.0740   28.8470   41.0000 C   0  0  0  0  0  3  0  0  0  0  0  0
  1  6  2  0  0  0  0
  1  2  1  0  0  0  0
  2  3  2  0  0  0  0
  3  4  1  0  0  0  0
  3 12  1  0  0  0  0
  5  9  1  0  0  0  0
  5  4  2  0  0  0  0
  6  5  1  0  0  0  0
  7  8  2  0  0  0  0
  7 14  1  0  0  0  0
  9  7  1  0  0  0  0
 10  1  1  0  0  0  0
 11  2  1  0  0  0  0
 13  9  1  0  0  0  0
 14 15  1  0  0  0  0
 15 16  1  0  0  0  0
 15 17  2  0  0  0  0
 18 19  1  0  0  0  0
 18 17  1  0  0  0  0
 20 18  2  0  0  0  0
 21 20  1  0  0  0  0
 22 14  2  0  0  0  0
 22 20  1  0  0  0  0
M  END
>  <minimizedAffinity>
-4.35027504

$$$$

 OpenBabel03242510523D

 22 23  0  0  0  0  0  0  0  0999 V2000
   38.5380   25.2960   40.8260 C   0  0  0  0  0  0  0  0  0  0  0  0
   37.6020   25.0510   41.8650 C   0  0  0  0  0  0  0  0  0  0  0  0
   36.9330   26.1590   42.3910 C   0  0  0  0  0  0  0  0  0  0  0  0
   37.2000   27.3990   41.8980 N   0  0  0  0  0  0  0  0  0  0  0  0
   38.0890   27.5940   40.9170 C   0  0  0  0  0  0  0  0  0  0  0  0
   38.7590   26.5320   40.3830 N   0  0  0  0  0  0  0  0  0  0  0  0
   37.8510   29.9740   41.2650 C   0  0  0  0  0  0  0  0  0  0  0  0
   37.2540   29.8380   42.3560 O   0  0  0  0  0  0  0  0  0  0  0  0
   38.3210   28.9130   40.4490 N   0  0  0  0  0  0  0  0  0  0  0  0
   39.0250   24.4040   40.4580 H   0  0  0  0  0  0  0  0  0  0  0  0
   37.3750   24.0750   42.2700 H   0  0  0  0  0  0  0  0  0  0  0  0
   36.1980   26.0950   43.1840 H   0  0  0  0  0  0  0  0  0  0  0  0
   38.8180   29.0380   39.5420 H   0  0  0  0  0  0  0  0  0  0  0  0
   38.0580   31.3570   40.8380 C   0  0  0  0  0  0  0  0  0  0  0  0
   37.0940   31.9750   40.0430 C   0  0  0  0  0  0  0  0  0  0  0  0
   36.1970   31.4610   39.7320 H   0  0  0  0  0  0  0  0  0  0  0  0
   37.1900   33.2900   39.5780 C   0  0  0  0  0  3  0  0  0  0  0  0
   38.3050   34.0230   39.9270 C   0  0  0  0  0  0  0  0  0  0  0  0
   38.4620   35.0470   39.6110 H   0  0  0  0  0  0  0  0  0  0  0  0
   39.2750   33.4390   40.7120 C   0  0  0  0  0  0  0  0  0  0  0  0
   40.1460   34.0170   40.9830 H   0  0  0  0  0  0  0  0  0  0  0  0
   39.1410   32.1540   41.1440 C   0  0  0  0  0  3  0  0  0  0  0  0
  1  2  1  0  0  0  0
  2 11  1  0  0  0  0
  2  3  2  0  0  0  0
  3 12  1  0  0  0  0
  4  3  1  0  0  0  0
  5  4  2  0  0  0  0
  6  1  2  0  0  0  0
  6  5  1  0  0  0  0
  7  8  2  0  0  0  0
  9  5  1  0  0  0  0
  9  7  1  0  0  0  0
 10  1  1  0  0  0  0
 13  9  1  0  0  0  0
 14 22  1  0  0  0  0
 14  7  1  0  0  0  0
 15 14  2  0  0  0  0
 16 15  1  0  0  0  0
 17 18  2  0  0  0  0
 17 15  1  0  0  0  0
 18 20  1  0  0  0  0
 19 18  1  0  0  0  0
 20 21  1  0  0  0  0
 20 22  2  0  0  0  0
M  END
>  <minimizedAffinity>
-4.34179163

$$$$

 OpenBabel03242510523D

 22 23  0  0  0  0  0  0  0  0999 V2000
   37.3310   27.9520   43.3330 C   0  0  0  0  0  0  0  0  0  0  0  0
   38.2570   29.0280   43.3420 C   0  0  0  0  0  0  0  0  0  0  0  0
   38.2240   29.9040   42.2550 C   0  0  0  0  0  0  0  0  0  0  0  0
   37.3280   29.6940   41.2530 N   0  0  0  0  0  0  0  0  0  0  0  0
   36.4680   28.6690   41.2750 C   0  0  0  0  0  0  0  0  0  0  0  0
   36.4760   27.7960   42.3240 N   0  0  0  0  0  0  0  0  0  0  0  0
   35.8340   29.2370   39.0130 C   0  0  0  0  0  0  0  0  0  0  0  0
   36.8080   30.0040   38.8450 O   0  0  0  0  0  0  0  0  0  0  0  0
   35.5590   28.5070   40.1990 N   0  0  0  0  0  0  0  0  0  0  0  0
   37.4010   27.3060   44.1970 H   0  0  0  0  0  0  0  0  0  0  0  0
   38.9770   29.2120   44.1280 H   0  0  0  0  0  0  0  0  0  0  0  0
   38.8810   30.7590   42.1530 H   0  0  0  0  0  0  0  0  0  0  0  0
   34.7440   27.8710   40.3270 H   0  0  0  0  0  0  0  0  0  0  0  0
   34.9350   29.1140   37.8670 C   0  0  0  0  0  0  0  0  0  0  0  0
   35.4630   29.1790   36.5790 C   0  0  0  0  0  0  0  0  0  0  0  0
   36.5190   29.3180   36.4020 H   0  0  0  0  0  0  0  0  0  0  0  0
   34.6970   29.0740   35.4130 C   0  0  0  0  0  3  0  0  0  0  0  0
   33.3360   28.8940   35.5450 C   0  0  0  0  0  0  0  0  0  0  0  0
   32.6670   28.8040   34.6970 H   0  0  0  0  0  0  0  0  0  0  0  0
   32.7850   28.8270   36.8060 C   0  0  0  0  0  0  0  0  0  0  0  0
   31.7190   28.6860   36.9030 H   0  0  0  0  0  0  0  0  0  0  0  0
   33.5690   28.9340   37.9150 C   0  0  0  0  0  3  0  0  0  0  0  0
  1  2  1  0  0  0  0
  1 10  1  0  0  0  0
  2 11  1  0  0  0  0
  3  2  2  0  0  0  0
  4  5  2  0  0  0  0
  4  3  1  0  0  0  0
  5  6  1  0  0  0  0
  6  1  2  0  0  0  0
  7  9  1  0  0  0  0
  8  7  2  0  0  0  0
  9 13  1  0  0  0  0
  9  5  1  0  0  0  0
 12  3  1  0  0  0  0
 14 22  1  0  0  0  0
 14  7  1  0  0  0  0
 15 14  2  0  0  0  0
 16 15  1  0  0  0  0
 17 18  2  0  0  0  0
 17 15  1  0  0  0  0
 18 20  1  0  0  0  0
 19 18  1  0  0  0  0
 20 21  1  0  0  0  0
 20 22  2  0  0  0  0
M  END
>  <minimizedAffinity>
-4.31174755

$$$$
