
 OpenBabel03252507163D

 29 31  0  0  0  0  0  0  0  0999 V2000
   45.2390   36.2190   43.5270 C   0  0  0  0  0  0  0  0  0  0  0  0
   45.8640   35.0270   43.1460 C   0  0  0  0  0  0  0  0  0  0  0  0
   45.8260   33.9560   44.0440 C   0  0  0  0  0  0  0  0  0  0  0  0
   45.1990   34.1280   45.2120 N   0  0  0  0  0  0  0  0  0  0  0  0
   44.5960   35.2880   45.5730 C   0  0  0  0  0  0  0  0  0  0  0  0
   44.6310   36.3060   44.7230 N   0  0  0  0  0  0  0  0  0  0  0  0
   45.2250   37.0970   42.8930 H   0  0  0  0  0  0  0  0  0  0  0  0
   44.1300   35.2750   46.5470 H   0  0  0  0  0  0  0  0  0  0  0  0
   46.4680   32.7120   43.6660 C   0  0  0  0  0  0  0  0  0  0  0  0
   45.6940   31.6500   43.2390 C   0  0  0  0  0  0  0  0  0  0  0  0
   46.3270   30.4850   42.8800 C   0  0  0  0  0  0  0  0  0  0  0  0
   47.7170   30.3160   42.9240 C   0  0  0  0  0  0  0  0  0  0  0  0
   48.4300   31.4290   43.3640 C   0  0  0  0  0  0  0  0  0  0  0  0
   47.7850   32.5520   43.7070 N   0  0  0  0  0  0  0  0  0  0  0  0
   44.6030   31.7250   43.1850 H   0  0  0  0  0  0  0  0  0  0  0  0
   45.7480   29.6120   42.5360 H   0  0  0  0  0  0  0  0  0  0  0  0
   48.2230   29.4180   42.6480 H   0  0  0  0  0  0  0  0  0  0  0  0
   49.5070   31.3540   43.4150 H   0  0  0  0  0  0  0  0  0  0  0  0
   46.5160   34.9140   41.8680 C   0  0  0  0  0  0  0  0  0  0  0  0
   47.6690   35.4100   41.7770 O   0  0  0  0  0  0  0  0  0  0  0  0
   45.7970   34.2330   40.7690 C   0  0  0  0  0  0  0  0  0  0  0  0
   46.5460   33.4700   39.8690 C   0  0  0  0  0  0  0  0  0  0  0  0
   47.5910   33.3260   39.9160 H   0  0  0  0  0  0  0  0  0  0  0  0
   45.6720   32.9410   38.9130 C   0  0  0  0  0  3  0  0  0  0  0  0
   44.3290   33.0770   38.7880 C   0  0  0  0  0  0  0  0  0  0  0  0
   43.8130   32.5880   37.9780 H   0  0  0  0  0  0  0  0  0  0  0  0
   43.7260   33.8590   39.7510 C   0  0  0  0  0  0  0  0  0  0  0  0
   42.6620   34.0120   39.7100 H   0  0  0  0  0  0  0  0  0  0  0  0
   44.4430   34.4550   40.7620 C   0  0  0  0  0  3  0  0  0  0  0  0
  1  6  1  0  0  0  0
  2  1  2  0  0  0  0
  2  3  1  0  0  0  0
  3  4  2  0  0  0  0
  4  5  1  0  0  0  0
  5  8  1  0  0  0  0
  6  5  2  0  0  0  0
  7  1  1  0  0  0  0
  9 14  1  0  0  0  0
  9  3  1  0  0  0  0
 10  9  2  0  0  0  0
 11 12  2  0  0  0  0
 11 10  1  0  0  0  0
 12 13  1  0  0  0  0
 13 18  1  0  0  0  0
 13 14  2  0  0  0  0
 15 10  1  0  0  0  0
 16 11  1  0  0  0  0
 17 12  1  0  0  0  0
 19  2  1  0  0  0  0
 20 19  2  0  0  0  0
 21 19  1  0  0  0  0
 22 23  1  0  0  0  0
 22 21  2  0  0  0  0
 24 22  1  0  0  0  0
 25 24  2  0  0  0  0
 25 27  1  0  0  0  0
 26 25  1  0  0  0  0
 27 29  2  0  0  0  0
 28 27  1  0  0  0  0
 29 21  1  0  0  0  0
M  END
>  <minimizedAffinity>
-4.62228203

>  <minimizedRMSD>
0.356776804

$$$$
