
 OpenBabel03252507163D

 29 31  0  0  0  0  0  0  0  0999 V2000
   45.0830   36.1560   43.6590 C   0  0  0  0  0  0  0  0  0  0  0  0
   45.7180   34.9850   43.2310 C   0  0  0  0  0  0  0  0  0  0  0  0
   45.7760   33.9120   44.1250 C   0  0  0  0  0  0  0  0  0  0  0  0
   45.2240   34.0620   45.3340 N   0  0  0  0  0  0  0  0  0  0  0  0
   44.6100   35.2010   45.7390 C   0  0  0  0  0  0  0  0  0  0  0  0
   44.5550   36.2210   44.8930 N   0  0  0  0  0  0  0  0  0  0  0  0
   44.9970   37.0340   43.0310 H   0  0  0  0  0  0  0  0  0  0  0  0
   44.2120   35.1710   46.7420 H   0  0  0  0  0  0  0  0  0  0  0  0
   46.4310   32.6910   43.6990 C   0  0  0  0  0  0  0  0  0  0  0  0
   45.6660   31.6270   43.2590 C   0  0  0  0  0  0  0  0  0  0  0  0
   46.3100   30.4840   42.8550 C   0  0  0  0  0  0  0  0  0  0  0  0
   47.7040   30.3380   42.8650 C   0  0  0  0  0  0  0  0  0  0  0  0
   48.4080   31.4510   43.3200 C   0  0  0  0  0  0  0  0  0  0  0  0
   47.7510   32.5530   43.7080 N   0  0  0  0  0  0  0  0  0  0  0  0
   44.5730   31.6840   43.2310 H   0  0  0  0  0  0  0  0  0  0  0  0
   45.7400   29.6110   42.4990 H   0  0  0  0  0  0  0  0  0  0  0  0
   48.2190   29.4560   42.5540 H   0  0  0  0  0  0  0  0  0  0  0  0
   49.4860   31.3940   43.3470 H   0  0  0  0  0  0  0  0  0  0  0  0
   46.2850   34.8970   41.9120 C   0  0  0  0  0  0  0  0  0  0  0  0
   47.4560   35.3370   41.7690 O   0  0  0  0  0  0  0  0  0  0  0  0
   45.4660   34.3010   40.8330 C   0  0  0  0  0  0  0  0  0  0  0  0
   44.1040   34.6140   40.7960 C   0  0  0  0  0  0  0  0  0  0  0  0
   43.6080   35.2560   41.4730 H   0  0  0  0  0  0  0  0  0  0  0  0
   43.5300   33.9320   39.7170 C   0  0  0  0  0  3  0  0  0  0  0  0
   44.0960   33.0990   38.8090 C   0  0  0  0  0  0  0  0  0  0  0  0
   43.4900   32.6600   38.0330 H   0  0  0  0  0  0  0  0  0  0  0  0
   45.4480   32.8870   38.9730 C   0  0  0  0  0  0  0  0  0  0  0  0
   45.9620   32.2330   38.2890 H   0  0  0  0  0  0  0  0  0  0  0  0
   46.1650   33.4820   39.9850 C   0  0  0  0  0  3  0  0  0  0  0  0
  1  6  1  0  0  0  0
  2  1  2  0  0  0  0
  2  3  1  0  0  0  0
  3  4  2  0  0  0  0
  4  5  1  0  0  0  0
  5  8  1  0  0  0  0
  6  5  2  0  0  0  0
  7  1  1  0  0  0  0
  9 14  1  0  0  0  0
  9  3  1  0  0  0  0
 10  9  2  0  0  0  0
 11 12  2  0  0  0  0
 11 10  1  0  0  0  0
 12 13  1  0  0  0  0
 13 18  1  0  0  0  0
 13 14  2  0  0  0  0
 15 10  1  0  0  0  0
 16 11  1  0  0  0  0
 17 12  1  0  0  0  0
 19  2  1  0  0  0  0
 20 19  2  0  0  0  0
 21 19  1  0  0  0  0
 22 21  1  0  0  0  0
 22 23  1  0  0  0  0
 24 22  2  0  0  0  0
 25 27  2  0  0  0  0
 25 24  1  0  0  0  0
 26 25  1  0  0  0  0
 27 29  1  0  0  0  0
 28 27  1  0  0  0  0
 29 21  2  0  0  0  0
M  END
>  <minimizedAffinity>
-4.59100389

>  <minimizedRMSD>
0.80117321

$$$$
