
 OpenBabel03252507163D

 29 31  0  0  0  0  0  0  0  0999 V2000
   45.1720   36.1800   43.4960 C   0  0  0  0  0  0  0  0  0  0  0  0
   45.7950   34.9870   43.1140 C   0  0  0  0  0  0  0  0  0  0  0  0
   45.8090   33.9350   44.0350 C   0  0  0  0  0  0  0  0  0  0  0  0
   45.2300   34.1260   45.2250 N   0  0  0  0  0  0  0  0  0  0  0  0
   44.6290   35.2860   45.5870 C   0  0  0  0  0  0  0  0  0  0  0  0
   44.6140   36.2860   44.7140 N   0  0  0  0  0  0  0  0  0  0  0  0
   45.1190   37.0430   42.8450 H   0  0  0  0  0  0  0  0  0  0  0  0
   44.2040   35.2890   46.5800 H   0  0  0  0  0  0  0  0  0  0  0  0
   46.4490   32.6910   43.6560 C   0  0  0  0  0  0  0  0  0  0  0  0
   45.6740   31.6290   43.2290 C   0  0  0  0  0  0  0  0  0  0  0  0
   46.3060   30.4650   42.8700 C   0  0  0  0  0  0  0  0  0  0  0  0
   47.6960   30.2940   42.9130 C   0  0  0  0  0  0  0  0  0  0  0  0
   48.4110   31.4060   43.3520 C   0  0  0  0  0  0  0  0  0  0  0  0
   47.7670   32.5300   43.6960 N   0  0  0  0  0  0  0  0  0  0  0  0
   44.5840   31.7050   43.1770 H   0  0  0  0  0  0  0  0  0  0  0  0
   45.7270   29.5920   42.5260 H   0  0  0  0  0  0  0  0  0  0  0  0
   48.2010   29.3950   42.6370 H   0  0  0  0  0  0  0  0  0  0  0  0
   49.4870   31.3310   43.4030 H   0  0  0  0  0  0  0  0  0  0  0  0
   46.3930   34.8540   41.8120 C   0  0  0  0  0  0  0  0  0  0  0  0
   47.5670   35.2900   41.6820 O   0  0  0  0  0  0  0  0  0  0  0  0
   45.5990   34.2230   40.7340 C   0  0  0  0  0  0  0  0  0  0  0  0
   46.2710   33.4090   39.8170 C   0  0  0  0  0  0  0  0  0  0  0  0
   47.3050   33.1940   39.8370 H   0  0  0  0  0  0  0  0  0  0  0  0
   45.3370   32.9400   38.8850 C   0  0  0  0  0  0  0  0  0  0  0  0
   44.0050   33.1680   38.7950 C   0  0  0  0  0  0  0  0  0  0  0  0
   43.4350   32.7150   38.0000 H   0  0  0  0  0  0  0  0  0  0  0  0
   43.4830   33.9910   39.7710 C   0  0  0  0  0  0  0  0  0  0  0  0
   42.4310   34.2160   39.7580 H   0  0  0  0  0  0  0  0  0  0  0  0
   44.2660   34.5370   40.7620 C   0  0  0  0  0  0  0  0  0  0  0  0
  1  6  1  0  0  0  0
  2  1  2  0  0  0  0
  2  3  1  0  0  0  0
  3  4  2  0  0  0  0
  4  5  1  0  0  0  0
  5  8  1  0  0  0  0
  6  5  2  0  0  0  0
  7  1  1  0  0  0  0
  9 14  1  0  0  0  0
  9  3  1  0  0  0  0
 10  9  2  0  0  0  0
 11 12  2  0  0  0  0
 11 10  1  0  0  0  0
 12 13  1  0  0  0  0
 13 18  1  0  0  0  0
 13 14  2  0  0  0  0
 15 10  1  0  0  0  0
 16 11  1  0  0  0  0
 17 12  1  0  0  0  0
 19  2  1  0  0  0  0
 20 19  2  0  0  0  0
 21 29  1  0  0  0  0
 21 19  1  0  0  0  0
 22 23  1  0  0  0  0
 22 21  2  0  0  0  0
 24 22  1  0  0  0  0
 25 24  2  0  0  0  0
 25 27  1  0  0  0  0
 26 25  1  0  0  0  0
 27 29  2  0  0  0  0
 28 27  1  0  0  0  0
M  END
>  <minimizedAffinity>
-4.65135145

>  <minimizedRMSD>
0.736743093

$$$$
