
 OpenBabel03242512053D

 20 21  0  0  0  0  0  0  0  0999 V2000
   35.4680   29.1740   40.2290 C   0  0  0  0  0  0  0  0  0  0  0  0
   34.2380   29.1800   39.9970 O   0  0  0  0  0  0  0  0  0  0  0  0
   36.6030   30.4870   38.5190 C   0  0  0  0  0  0  0  0  0  0  0  0
   36.2280   30.3210   39.8560 C   0  0  0  0  0  0  0  0  0  0  0  0
   36.6250   31.3080   40.7720 C   0  0  0  0  0  0  0  0  0  0  0  0
   37.3480   32.3640   40.3160 N   0  0  0  0  0  0  0  0  0  0  0  0
   37.6900   32.4820   39.0140 C   0  0  0  0  0  0  0  0  0  0  0  0
   37.3170   31.5460   38.1190 N   0  0  0  0  0  0  0  0  0  0  0  0
   36.3250   29.7540   37.7560 H   0  0  0  0  0  0  0  0  0  0  0  0
   36.3510   31.2110   41.8150 H   0  0  0  0  0  0  0  0  0  0  0  0
   38.2620   33.3810   38.8390 H   0  0  0  0  0  0  0  0  0  0  0  0
   36.1700   28.0600   40.8610 C   0  0  0  0  0  0  0  0  0  0  0  0
   36.5560   27.0370   40.0200 C   0  0  0  0  0  0  0  0  0  0  0  0
   36.3810   26.9990   38.9580 H   0  0  0  0  0  0  0  0  0  0  0  0
   37.2280   25.9380   40.5220 C   0  0  0  0  0  3  0  0  0  0  0  0
   37.4960   25.9000   41.8780 C   0  0  0  0  0  0  0  0  0  0  0  0
   38.0280   25.0210   42.2530 H   0  0  0  0  0  0  0  0  0  0  0  0
   37.1030   26.9240   42.6880 C   0  0  0  0  0  0  0  0  0  0  0  0
   37.3430   26.8360   43.7460 H   0  0  0  0  0  0  0  0  0  0  0  0
   36.4290   28.0370   42.2060 C   0  0  0  0  0  3  0  0  0  0  0  0
  1 12  1  0  0  0  0
  2  1  2  0  0  0  0
  3  4  1  0  0  0  0
  4  1  1  0  0  0  0
  4  5  2  0  0  0  0
  5 10  1  0  0  0  0
  6  5  1  0  0  0  0
  7  6  2  0  0  0  0
  8  3  2  0  0  0  0
  8  7  1  0  0  0  0
  9  3  1  0  0  0  0
 11  7  1  0  0  0  0
 12 20  1  0  0  0  0
 13 15  1  0  0  0  0
 13 12  2  0  0  0  0
 14 13  1  0  0  0  0
 15 16  2  0  0  0  0
 16 17  1  0  0  0  0
 16 18  1  0  0  0  0
 18 19  1  0  0  0  0
 20 18  2  0  0  0  0
M  END
>  <minimizedAffinity>
-4.45780659

$$$$

 OpenBabel03242512053D

 20 21  0  0  0  0  0  0  0  0999 V2000
   35.4680   29.1620   40.1900 C   0  0  0  0  0  0  0  0  0  0  0  0
   34.2290   29.1900   40.0100 O   0  0  0  0  0  0  0  0  0  0  0  0
   36.6180   30.4830   38.4960 C   0  0  0  0  0  0  0  0  0  0  0  0
   36.2260   30.3130   39.8280 C   0  0  0  0  0  0  0  0  0  0  0  0
   36.6070   31.3000   40.7510 C   0  0  0  0  0  0  0  0  0  0  0  0
   37.3300   32.3610   40.3060 N   0  0  0  0  0  0  0  0  0  0  0  0
   37.6870   32.4830   39.0090 C   0  0  0  0  0  0  0  0  0  0  0  0
   37.3310   31.5460   38.1070 N   0  0  0  0  0  0  0  0  0  0  0  0
   36.3530   29.7500   37.7290 H   0  0  0  0  0  0  0  0  0  0  0  0
   36.3200   31.2000   41.7910 H   0  0  0  0  0  0  0  0  0  0  0  0
   38.2570   33.3860   38.8420 H   0  0  0  0  0  0  0  0  0  0  0  0
   36.1810   28.0170   40.7500 C   0  0  0  0  0  0  0  0  0  0  0  0
   36.3850   28.0430   42.1140 C   0  0  0  0  0  0  0  0  0  0  0  0
   36.0640   28.8260   42.7800 H   0  0  0  0  0  0  0  0  0  0  0  0
   37.0490   27.0040   42.7400 C   0  0  0  0  0  3  0  0  0  0  0  0
   37.4980   25.9530   41.9610 C   0  0  0  0  0  0  0  0  0  0  0  0
   38.0210   25.1420   42.4770 H   0  0  0  0  0  0  0  0  0  0  0  0
   37.2850   25.9520   40.6140 C   0  0  0  0  0  0  0  0  0  0  0  0
   37.6620   25.0970   40.0560 H   0  0  0  0  0  0  0  0  0  0  0  0
   36.6190   26.9830   39.9650 C   0  0  0  0  0  3  0  0  0  0  0  0
  1 12  1  0  0  0  0
  2  1  2  0  0  0  0
  3  4  1  0  0  0  0
  4  1  1  0  0  0  0
  4  5  2  0  0  0  0
  5 10  1  0  0  0  0
  6  5  1  0  0  0  0
  7  6  2  0  0  0  0
  8  3  2  0  0  0  0
  8  7  1  0  0  0  0
  9  3  1  0  0  0  0
 11  7  1  0  0  0  0
 12 13  1  0  0  0  0
 13 15  2  0  0  0  0
 13 14  1  0  0  0  0
 16 17  1  0  0  0  0
 16 15  1  0  0  0  0
 18 16  2  0  0  0  0
 19 18  1  0  0  0  0
 20 18  1  0  0  0  0
 20 12  2  0  0  0  0
M  END
>  <minimizedAffinity>
-4.43352985

$$$$

 OpenBabel03242512053D

 20 21  0  0  0  0  0  0  0  0999 V2000
   35.5180   29.2000   40.2590 C   0  0  0  0  0  0  0  0  0  0  0  0
   34.2760   29.1100   40.1320 O   0  0  0  0  0  0  0  0  0  0  0  0
   36.5970   27.0280   40.0270 C   0  0  0  0  0  0  0  0  0  0  0  0
   36.2150   28.1010   40.8390 C   0  0  0  0  0  0  0  0  0  0  0  0
   36.5450   28.0360   42.2020 C   0  0  0  0  0  0  0  0  0  0  0  0
   37.2110   26.9430   42.6580 N   0  0  0  0  0  0  0  0  0  0  0  0
   37.5590   25.9290   41.8370 C   0  0  0  0  0  0  0  0  0  0  0  0
   37.2520   25.9720   40.5250 N   0  0  0  0  0  0  0  0  0  0  0  0
   36.3710   27.0170   38.9570 H   0  0  0  0  0  0  0  0  0  0  0  0
   36.2650   28.8500   42.8600 H   0  0  0  0  0  0  0  0  0  0  0  0
   38.0790   25.1490   42.3730 H   0  0  0  0  0  0  0  0  0  0  0  0
   36.2950   30.3670   39.8470 C   0  0  0  0  0  0  0  0  0  0  0  0
   36.6390   30.4210   38.5120 C   0  0  0  0  0  0  0  0  0  0  0  0
   36.3820   29.6840   37.7700 H   0  0  0  0  0  0  0  0  0  0  0  0
   37.3730   31.4860   38.0240 C   0  0  0  0  0  3  0  0  0  0  0  0
   37.7470   32.4810   38.9080 C   0  0  0  0  0  0  0  0  0  0  0  0
   38.3270   33.3130   38.5000 H   0  0  0  0  0  0  0  0  0  0  0  0
   37.3960   32.4030   40.2240 C   0  0  0  0  0  0  0  0  0  0  0  0
   37.7210   33.2160   40.8690 H   0  0  0  0  0  0  0  0  0  0  0  0
   36.6590   31.3440   40.7360 C   0  0  0  0  0  3  0  0  0  0  0  0
  1  4  1  0  0  0  0
  2  1  2  0  0  0  0
  3  8  2  0  0  0  0
  3  4  1  0  0  0  0
  4  5  2  0  0  0  0
  5  6  1  0  0  0  0
  5 10  1  0  0  0  0
  7 11  1  0  0  0  0
  7  6  2  0  0  0  0
  8  7  1  0  0  0  0
  9  3  1  0  0  0  0
 12  1  1  0  0  0  0
 12 20  1  0  0  0  0
 13 12  2  0  0  0  0
 14 13  1  0  0  0  0
 15 13  1  0  0  0  0
 15 16  2  0  0  0  0
 16 18  1  0  0  0  0
 17 16  1  0  0  0  0
 18 20  2  0  0  0  0
 18 19  1  0  0  0  0
M  END
>  <minimizedAffinity>
-4.36461496

$$$$

 OpenBabel03242512053D

 20 21  0  0  0  0  0  0  0  0999 V2000
   36.9210   27.4560   42.8670 C   0  0  0  0  0  0  0  0  0  0  0  0
   35.9700   27.4150   43.6800 O   0  0  0  0  0  0  0  0  0  0  0  0
   37.4750   29.6690   42.0120 C   0  0  0  0  0  0  0  0  0  0  0  0
   36.8700   28.4220   41.8210 C   0  0  0  0  0  0  0  0  0  0  0  0
   36.2360   28.1870   40.5900 C   0  0  0  0  0  0  0  0  0  0  0  0
   36.2420   29.1740   39.6570 N   0  0  0  0  0  0  0  0  0  0  0  0
   36.8380   30.3640   39.8860 C   0  0  0  0  0  0  0  0  0  0  0  0
   37.4530   30.6100   41.0600 N   0  0  0  0  0  0  0  0  0  0  0  0
   37.9850   29.9150   42.9470 H   0  0  0  0  0  0  0  0  0  0  0  0
   35.7570   27.2320   40.4090 H   0  0  0  0  0  0  0  0  0  0  0  0
   36.7420   31.0220   39.0340 H   0  0  0  0  0  0  0  0  0  0  0  0
   38.0810   26.5700   42.9290 C   0  0  0  0  0  0  0  0  0  0  0  0
   37.9940   25.4110   42.1850 C   0  0  0  0  0  0  0  0  0  0  0  0
   37.1540   25.1190   41.5780 H   0  0  0  0  0  0  0  0  0  0  0  0
   39.0410   24.5090   42.1770 C   0  0  0  0  0  3  0  0  0  0  0  0
   40.1630   24.8030   42.9300 C   0  0  0  0  0  0  0  0  0  0  0  0
   40.9790   24.0740   42.9080 H   0  0  0  0  0  0  0  0  0  0  0  0
   40.2230   25.9540   43.6570 C   0  0  0  0  0  0  0  0  0  0  0  0
   41.1320   26.1280   44.2290 H   0  0  0  0  0  0  0  0  0  0  0  0
   39.1850   26.8750   43.6800 C   0  0  0  0  0  3  0  0  0  0  0  0
  1 12  1  0  0  0  0
  1  2  2  0  0  0  0
  3  9  1  0  0  0  0
  4  3  1  0  0  0  0
  4  1  1  0  0  0  0
  5  4  2  0  0  0  0
  6  7  2  0  0  0  0
  6  5  1  0  0  0  0
  7  8  1  0  0  0  0
  8  3  2  0  0  0  0
 10  5  1  0  0  0  0
 11  7  1  0  0  0  0
 12 20  1  0  0  0  0
 13 12  2  0  0  0  0
 14 13  1  0  0  0  0
 15 13  1  0  0  0  0
 15 16  2  0  0  0  0
 16 18  1  0  0  0  0
 17 16  1  0  0  0  0
 18 20  2  0  0  0  0
 18 19  1  0  0  0  0
M  END
>  <minimizedAffinity>
-4.35033131

$$$$

 OpenBabel03242512053D

 20 21  0  0  0  0  0  0  0  0999 V2000
   39.1420   30.3770   42.1220 C   0  0  0  0  0  0  0  0  0  0  0  0
   40.2170   30.6700   42.6940 O   0  0  0  0  0  0  0  0  0  0  0  0
   39.2000   32.5740   41.0700 C   0  0  0  0  0  0  0  0  0  0  0  0
   38.5530   31.3490   41.2620 C   0  0  0  0  0  0  0  0  0  0  0  0
   37.3390   31.1390   40.5880 C   0  0  0  0  0  0  0  0  0  0  0  0
   36.8610   32.1300   39.7900 N   0  0  0  0  0  0  0  0  0  0  0  0
   37.5200   33.2980   39.6350 C   0  0  0  0  0  0  0  0  0  0  0  0
   38.6860   33.5180   40.2730 N   0  0  0  0  0  0  0  0  0  0  0  0
   40.1490   32.7990   41.5660 H   0  0  0  0  0  0  0  0  0  0  0  0
   36.8120   30.2020   40.7140 H   0  0  0  0  0  0  0  0  0  0  0  0
   36.9900   33.9620   38.9670 H   0  0  0  0  0  0  0  0  0  0  0  0
   38.4580   29.0970   42.2840 C   0  0  0  0  0  0  0  0  0  0  0  0
   37.7120   28.9540   43.4350 C   0  0  0  0  0  0  0  0  0  0  0  0
   37.6000   29.6990   44.2050 H   0  0  0  0  0  0  0  0  0  0  0  0
   37.0250   27.7790   43.6800 C   0  0  0  0  0  3  0  0  0  0  0  0
   37.1120   26.7650   42.7430 C   0  0  0  0  0  0  0  0  0  0  0  0
   36.5610   25.8450   42.9570 H   0  0  0  0  0  0  0  0  0  0  0  0
   37.8580   26.9310   41.6140 C   0  0  0  0  0  0  0  0  0  0  0  0
   37.8870   26.0960   40.9160 H   0  0  0  0  0  0  0  0  0  0  0  0
   38.5540   28.1010   41.3470 C   0  0  0  0  0  3  0  0  0  0  0  0
  1 12  1  0  0  0  0
  1  2  2  0  0  0  0
  3  4  1  0  0  0  0
  3  9  1  0  0  0  0
  4  1  1  0  0  0  0
  5 10  1  0  0  0  0
  5  4  2  0  0  0  0
  6  5  1  0  0  0  0
  7  6  2  0  0  0  0
  7  8  1  0  0  0  0
  8  3  2  0  0  0  0
 11  7  1  0  0  0  0
 12 13  1  0  0  0  0
 13 15  2  0  0  0  0
 13 14  1  0  0  0  0
 16 17  1  0  0  0  0
 16 15  1  0  0  0  0
 18 16  2  0  0  0  0
 19 18  1  0  0  0  0
 20 18  1  0  0  0  0
 20 12  2  0  0  0  0
M  END
>  <minimizedAffinity>
-4.3187871

$$$$

 OpenBabel03242512053D

 20 21  0  0  0  0  0  0  0  0999 V2000
   36.9230   27.6260   42.7770 C   0  0  0  0  0  0  0  0  0  0  0  0
   36.1080   27.3100   43.6720 O   0  0  0  0  0  0  0  0  0  0  0  0
   38.3530   26.0910   41.5380 C   0  0  0  0  0  0  0  0  0  0  0  0
   38.1310   26.8770   42.6730 C   0  0  0  0  0  0  0  0  0  0  0  0
   39.1260   26.8860   43.6650 C   0  0  0  0  0  0  0  0  0  0  0  0
   40.2430   26.1370   43.4710 N   0  0  0  0  0  0  0  0  0  0  0  0
   40.4140   25.3920   42.3580 C   0  0  0  0  0  0  0  0  0  0  0  0
   39.4710   25.3700   41.3940 N   0  0  0  0  0  0  0  0  0  0  0  0
   37.6190   26.0410   40.7290 H   0  0  0  0  0  0  0  0  0  0  0  0
   38.9860   27.4850   44.5570 H   0  0  0  0  0  0  0  0  0  0  0  0
   41.3570   24.8660   42.3790 H   0  0  0  0  0  0  0  0  0  0  0  0
   36.7080   28.7180   41.8310 C   0  0  0  0  0  0  0  0  0  0  0  0
   37.5970   29.7700   41.9140 C   0  0  0  0  0  0  0  0  0  0  0  0
   38.4170   29.8440   42.6070 H   0  0  0  0  0  0  0  0  0  0  0  0
   37.4780   30.8510   41.0600 C   0  0  0  0  0  3  0  0  0  0  0  0
   36.4510   30.8430   40.1340 C   0  0  0  0  0  0  0  0  0  0  0  0
   36.3760   31.7080   39.4700 H   0  0  0  0  0  0  0  0  0  0  0  0
   35.5850   29.7910   40.0740 C   0  0  0  0  0  0  0  0  0  0  0  0
   34.7980   29.8440   39.3250 H   0  0  0  0  0  0  0  0  0  0  0  0
   35.6860   28.6950   40.9190 C   0  0  0  0  0  3  0  0  0  0  0  0
  1  2  2  0  0  0  0
  3  4  1  0  0  0  0
  4  1  1  0  0  0  0
  4  5  2  0  0  0  0
  5 10  1  0  0  0  0
  6  5  1  0  0  0  0
  7 11  1  0  0  0  0
  7  6  2  0  0  0  0
  8  3  2  0  0  0  0
  8  7  1  0  0  0  0
  9  3  1  0  0  0  0
 12 13  1  0  0  0  0
 12  1  1  0  0  0  0
 13 14  1  0  0  0  0
 15 13  2  0  0  0  0
 16 15  1  0  0  0  0
 17 16  1  0  0  0  0
 18 16  2  0  0  0  0
 18 20  1  0  0  0  0
 19 18  1  0  0  0  0
 20 12  2  0  0  0  0
M  END
>  <minimizedAffinity>
-4.24839497

$$$$

 OpenBabel03242512053D

 20 21  0  0  0  0  0  0  0  0999 V2000
   37.5690   28.0820   42.6930 C   0  0  0  0  0  0  0  0  0  0  0  0
   37.3330   28.8180   43.6790 O   0  0  0  0  0  0  0  0  0  0  0  0
   35.8150   28.6520   41.1020 C   0  0  0  0  0  0  0  0  0  0  0  0
   37.1760   28.5420   41.4030 C   0  0  0  0  0  0  0  0  0  0  0  0
   38.0950   28.8950   40.4020 C   0  0  0  0  0  0  0  0  0  0  0  0
   37.6190   29.3220   39.2040 N   0  0  0  0  0  0  0  0  0  0  0  0
   36.2940   29.4110   38.9570 C   0  0  0  0  0  0  0  0  0  0  0  0
   35.3950   29.0770   39.9050 N   0  0  0  0  0  0  0  0  0  0  0  0
   35.0470   28.3930   41.8380 H   0  0  0  0  0  0  0  0  0  0  0  0
   39.1580   28.8220   40.6020 H   0  0  0  0  0  0  0  0  0  0  0  0
   36.1040   29.7670   37.9550 H   0  0  0  0  0  0  0  0  0  0  0  0
   38.2250   26.7810   42.7890 C   0  0  0  0  0  0  0  0  0  0  0  0
   39.3990   26.7500   43.5140 C   0  0  0  0  0  0  0  0  0  0  0  0
   39.8550   27.5940   44.0030 H   0  0  0  0  0  0  0  0  0  0  0  0
   40.0940   25.5640   43.6640 C   0  0  0  0  0  3  0  0  0  0  0  0
   39.5800   24.4260   43.0700 C   0  0  0  0  0  0  0  0  0  0  0  0
   40.1470   23.5000   43.2010 H   0  0  0  0  0  0  0  0  0  0  0  0
   38.4190   24.4840   42.3570 C   0  0  0  0  0  0  0  0  0  0  0  0
   38.0670   23.5550   41.9130 H   0  0  0  0  0  0  0  0  0  0  0  0
   37.7040   25.6620   42.1940 C   0  0  0  0  0  3  0  0  0  0  0  0
  1 12  1  0  0  0  0
  1  2  2  0  0  0  0
  3  4  1  0  0  0  0
  3  9  1  0  0  0  0
  4  1  1  0  0  0  0
  5 10  1  0  0  0  0
  5  4  2  0  0  0  0
  6  5  1  0  0  0  0
  7  6  2  0  0  0  0
  7  8  1  0  0  0  0
  8  3  2  0  0  0  0
 11  7  1  0  0  0  0
 12 13  1  0  0  0  0
 13 15  2  0  0  0  0
 13 14  1  0  0  0  0
 16 17  1  0  0  0  0
 16 15  1  0  0  0  0
 18 16  2  0  0  0  0
 19 18  1  0  0  0  0
 20 18  1  0  0  0  0
 20 12  2  0  0  0  0
M  END
>  <minimizedAffinity>
-4.24761295

$$$$

 OpenBabel03242512053D

 20 21  0  0  0  0  0  0  0  0999 V2000
   35.8740   29.2340   40.5540 C   0  0  0  0  0  0  0  0  0  0  0  0
   34.6430   29.0080   40.5790 O   0  0  0  0  0  0  0  0  0  0  0  0
   37.0700   27.1330   40.8600 C   0  0  0  0  0  0  0  0  0  0  0  0
   36.7250   28.4010   41.3380 C   0  0  0  0  0  0  0  0  0  0  0  0
   37.2440   28.7920   42.5830 C   0  0  0  0  0  0  0  0  0  0  0  0
   38.0470   27.9250   43.2530 N   0  0  0  0  0  0  0  0  0  0  0  0
   38.3530   26.7090   42.7530 C   0  0  0  0  0  0  0  0  0  0  0  0
   37.8650   26.3150   41.5590 N   0  0  0  0  0  0  0  0  0  0  0  0
   36.7000   26.7680   39.8970 H   0  0  0  0  0  0  0  0  0  0  0  0
   36.9970   29.7680   42.9820 H   0  0  0  0  0  0  0  0  0  0  0  0
   39.0000   26.1600   43.4220 H   0  0  0  0  0  0  0  0  0  0  0  0
   36.4900   30.2990   39.7670 C   0  0  0  0  0  0  0  0  0  0  0  0
   36.7090   31.4880   40.4320 C   0  0  0  0  0  0  0  0  0  0  0  0
   36.4660   31.6830   41.4630 H   0  0  0  0  0  0  0  0  0  0  0  0
   37.2880   32.5580   39.7750 C   0  0  0  0  0  3  0  0  0  0  0  0
   37.6350   32.3980   38.4460 C   0  0  0  0  0  0  0  0  0  0  0  0
   38.0910   33.2570   37.9450 H   0  0  0  0  0  0  0  0  0  0  0  0
   37.4050   31.2120   37.8110 C   0  0  0  0  0  0  0  0  0  0  0  0
   37.6990   31.1490   36.7650 H   0  0  0  0  0  0  0  0  0  0  0  0
   36.8270   30.1250   38.4510 C   0  0  0  0  0  3  0  0  0  0  0  0
  1  2  2  0  0  0  0
  1  4  1  0  0  0  0
  3  4  2  0  0  0  0
  3  8  1  0  0  0  0
  4  5  1  0  0  0  0
  5 10  1  0  0  0  0
  5  6  2  0  0  0  0
  7  6  1  0  0  0  0
  7 11  1  0  0  0  0
  8  7  2  0  0  0  0
  9  3  1  0  0  0  0
 12 13  1  0  0  0  0
 12  1  1  0  0  0  0
 13 14  1  0  0  0  0
 15 13  2  0  0  0  0
 16 15  1  0  0  0  0
 17 16  1  0  0  0  0
 18 16  2  0  0  0  0
 18 20  1  0  0  0  0
 19 18  1  0  0  0  0
 20 12  2  0  0  0  0
M  END
>  <minimizedAffinity>
-4.2440176

$$$$

 OpenBabel03242512053D

 20 21  0  0  0  0  0  0  0  0999 V2000
   37.1880   30.5950   41.1950 C   0  0  0  0  0  0  0  0  0  0  0  0
   36.0260   31.0600   41.1860 O   0  0  0  0  0  0  0  0  0  0  0  0
   38.6610   30.7010   39.2570 C   0  0  0  0  0  0  0  0  0  0  0  0
   38.1890   31.2750   40.4420 C   0  0  0  0  0  0  0  0  0  0  0  0
   38.7360   32.5070   40.8330 C   0  0  0  0  0  0  0  0  0  0  0  0
   39.6870   33.0750   40.0450 N   0  0  0  0  0  0  0  0  0  0  0  0
   40.1130   32.4830   38.9080 C   0  0  0  0  0  0  0  0  0  0  0  0
   39.6010   31.3000   38.5160 N   0  0  0  0  0  0  0  0  0  0  0  0
   38.2760   29.7420   38.8980 H   0  0  0  0  0  0  0  0  0  0  0  0
   38.3930   32.9800   41.7450 H   0  0  0  0  0  0  0  0  0  0  0  0
   40.8700   33.0770   38.4160 H   0  0  0  0  0  0  0  0  0  0  0  0
   37.5780   29.3960   41.9320 C   0  0  0  0  0  0  0  0  0  0  0  0
   36.6740   28.3540   41.9080 C   0  0  0  0  0  0  0  0  0  0  0  0
   35.7260   28.3590   41.3980 H   0  0  0  0  0  0  0  0  0  0  0  0
   36.9520   27.1750   42.5750 C   0  0  0  0  0  3  0  0  0  0  0  0
   38.1500   27.0780   43.2590 C   0  0  0  0  0  0  0  0  0  0  0  0
   38.3490   26.1370   43.7800 H   0  0  0  0  0  0  0  0  0  0  0  0
   39.0250   28.1240   43.2690 C   0  0  0  0  0  0  0  0  0  0  0  0
   39.9500   27.9860   43.8250 H   0  0  0  0  0  0  0  0  0  0  0  0
   38.7680   29.3150   42.6060 C   0  0  0  0  0  3  0  0  0  0  0  0
  1 12  1  0  0  0  0
  2  1  2  0  0  0  0
  3  4  1  0  0  0  0
  4  5  2  0  0  0  0
  4  1  1  0  0  0  0
  5 10  1  0  0  0  0
  6  5  1  0  0  0  0
  7  6  2  0  0  0  0
  8  7  1  0  0  0  0
  8  3  2  0  0  0  0
  9  3  1  0  0  0  0
 11  7  1  0  0  0  0
 12 20  1  0  0  0  0
 13 12  2  0  0  0  0
 13 15  1  0  0  0  0
 14 13  1  0  0  0  0
 15 16  2  0  0  0  0
 16 18  1  0  0  0  0
 16 17  1  0  0  0  0
 18 19  1  0  0  0  0
 20 18  2  0  0  0  0
M  END
>  <minimizedAffinity>
-4.2212801

$$$$
