
 OpenBabel03252507163D

 29 31  0  0  0  0  0  0  0  0999 V2000
   45.1710   36.1790   43.4970 C   0  0  0  0  0  0  0  0  0  0  0  0
   45.7950   34.9860   43.1150 C   0  0  0  0  0  0  0  0  0  0  0  0
   45.8090   33.9340   44.0350 C   0  0  0  0  0  0  0  0  0  0  0  0
   45.2310   34.1240   45.2250 N   0  0  0  0  0  0  0  0  0  0  0  0
   44.6290   35.2840   45.5880 C   0  0  0  0  0  0  0  0  0  0  0  0
   44.6140   36.2840   44.7160 N   0  0  0  0  0  0  0  0  0  0  0  0
   45.1180   37.0420   42.8470 H   0  0  0  0  0  0  0  0  0  0  0  0
   44.2050   35.2860   46.5810 H   0  0  0  0  0  0  0  0  0  0  0  0
   46.4510   32.6910   43.6560 C   0  0  0  0  0  0  0  0  0  0  0  0
   45.6760   31.6280   43.2290 C   0  0  0  0  0  0  0  0  0  0  0  0
   46.3080   30.4640   42.8690 C   0  0  0  0  0  0  0  0  0  0  0  0
   47.6990   30.2950   42.9110 C   0  0  0  0  0  0  0  0  0  0  0  0
   48.4130   31.4070   43.3510 C   0  0  0  0  0  0  0  0  0  0  0  0
   47.7680   32.5300   43.6950 N   0  0  0  0  0  0  0  0  0  0  0  0
   44.5850   31.7040   43.1770 H   0  0  0  0  0  0  0  0  0  0  0  0
   45.7290   29.5910   42.5250 H   0  0  0  0  0  0  0  0  0  0  0  0
   48.2040   29.3960   42.6340 H   0  0  0  0  0  0  0  0  0  0  0  0
   49.4890   31.3330   43.4010 H   0  0  0  0  0  0  0  0  0  0  0  0
   46.3930   34.8540   41.8130 C   0  0  0  0  0  0  0  0  0  0  0  0
   47.5660   35.2900   41.6830 O   0  0  0  0  0  0  0  0  0  0  0  0
   45.5990   34.2230   40.7340 C   0  0  0  0  0  0  0  0  0  0  0  0
   46.2720   33.4100   39.8160 C   0  0  0  0  0  0  0  0  0  0  0  0
   47.3050   33.1940   39.8370 H   0  0  0  0  0  0  0  0  0  0  0  0
   45.3370   32.9410   38.8850 C   0  0  0  0  0  3  0  0  0  0  0  0
   44.0040   33.1680   38.7950 C   0  0  0  0  0  0  0  0  0  0  0  0
   43.4340   32.7150   38.0000 H   0  0  0  0  0  0  0  0  0  0  0  0
   43.4830   33.9910   39.7720 C   0  0  0  0  0  0  0  0  0  0  0  0
   42.4300   34.2160   39.7590 H   0  0  0  0  0  0  0  0  0  0  0  0
   44.2650   34.5370   40.7620 C   0  0  0  0  0  3  0  0  0  0  0  0
  1  6  1  0  0  0  0
  2  1  2  0  0  0  0
  2  3  1  0  0  0  0
  3  4  2  0  0  0  0
  4  5  1  0  0  0  0
  5  8  1  0  0  0  0
  6  5  2  0  0  0  0
  7  1  1  0  0  0  0
  9 14  1  0  0  0  0
  9  3  1  0  0  0  0
 10  9  2  0  0  0  0
 11 12  2  0  0  0  0
 11 10  1  0  0  0  0
 12 13  1  0  0  0  0
 13 18  1  0  0  0  0
 13 14  2  0  0  0  0
 15 10  1  0  0  0  0
 16 11  1  0  0  0  0
 17 12  1  0  0  0  0
 19  2  1  0  0  0  0
 20 19  2  0  0  0  0
 21 29  1  0  0  0  0
 21 19  1  0  0  0  0
 22 23  1  0  0  0  0
 22 21  2  0  0  0  0
 24 22  1  0  0  0  0
 25 24  2  0  0  0  0
 25 27  1  0  0  0  0
 26 25  1  0  0  0  0
 27 29  2  0  0  0  0
 28 27  1  0  0  0  0
M  END
>  <minimizedAffinity>
-4.65130281

>  <minimizedRMSD>
0.836265206

$$$$
