
 OpenBabel03242519123D

 47 50  0  0  1  0  0  0  0  0999 V2000
   40.8740   33.5860   39.0050 C   0  0  0  0  0  0  0  0  0  0  0  0
   40.2480   32.6620   38.1440 C   0  0  0  0  0  0  0  0  0  0  0  0
   41.1240   32.0720   37.2630 C   0  0  0  0  0  0  0  0  0  0  0  0
   42.4710   32.3020   37.1690 C   0  0  0  0  0  0  0  0  0  0  0  0
   43.0380   33.2150   38.0330 C   0  0  0  0  0  0  0  0  0  0  0  0
   42.2200   33.8400   38.9370 C   0  0  0  0  0  0  0  0  0  0  0  0
   40.7000   31.3440   36.5660 H   0  0  0  0  0  0  0  0  0  0  0  0
   43.0790   31.7830   36.4340 H   0  0  0  0  0  0  0  0  0  0  0  0
   44.0910   33.4190   37.9850 H   0  0  0  0  0  0  0  0  0  0  0  0
   43.3850   34.3430   41.0440 C   0  0  0  0  0  0  0  0  0  0  0  0
   43.3310   33.0920   41.3370 O   0  0  0  0  0  0  0  0  0  0  0  0
   42.8390   34.7800   39.8170 N   0  0  0  0  0  0  0  0  0  0  0  0
   42.8640   35.7770   39.5070 H   0  0  0  0  0  0  0  0  0  0  0  0
   44.0010   35.2910   41.9710 C   0  0  0  0  0  0  0  0  0  0  0  0
   45.3540   35.5300   42.1090 C   0  0  0  0  0  0  0  0  0  0  0  0
   46.0100   34.9580   41.4660 H   0  0  0  0  0  0  0  0  0  0  0  0
   45.8260   36.4530   43.0200 C   0  0  0  0  0  3  0  0  0  0  0  0
   44.9510   37.1610   43.8180 C   0  0  0  0  0  0  0  0  0  0  0  0
   45.3440   37.8790   44.5260 H   0  0  0  0  0  0  0  0  0  0  0  0
   43.5890   36.9710   43.7330 C   0  0  0  0  0  0  0  0  0  0  0  0
   42.8600   37.4990   44.3330 H   0  0  0  0  0  0  0  0  0  0  0  0
   43.1820   36.0370   42.8040 C   0  0  0  0  0  3  0  0  0  0  0  0
   38.8760   32.3610   38.1670 N   0  0  0  0  0  0  0  0  0  0  0  0
   38.4130   32.9510   37.4230 H   0  0  0  0  0  0  0  0  0  0  0  0
   37.8790   29.4600   39.9610 N   0  0  0  0  0  0  0  0  0  0  0  0
   38.9510   30.3850   39.6130 C   0  0  0  0  0  0  0  0  0  0  0  0
   38.1160   31.4600   38.9790 C   0  0  2  0  0  0  0  0  0  0  0  0
   37.2250   30.6580   38.0470 C   0  0  0  0  0  0  0  0  0  0  0  0
   37.0020   29.3880   38.8220 C   0  0  0  0  0  0  0  0  0  0  0  0
   39.4440   30.8130   40.4980 H   0  0  0  0  0  0  0  0  0  0  0  0
   39.6380   29.9810   38.8620 H   0  0  0  0  0  0  0  0  0  0  0  0
   37.4820   31.9930   39.6870 H   0  0  0  0  0  0  0  0  0  0  0  0
   36.2690   31.2100   37.8680 H   0  0  0  0  0  0  0  0  0  0  0  0
   37.7770   30.4820   37.1110 H   0  0  0  0  0  0  0  0  0  0  0  0
   35.9410   29.2290   39.0950 H   0  0  0  0  0  0  0  0  0  0  0  0
   37.3530   28.5240   38.2020 H   0  0  0  0  0  0  0  0  0  0  0  0
   37.1310   26.7820   42.4380 C   0  0  0  0  0  0  0  0  0  0  0  0
   37.3230   27.3910   41.2050 C   0  0  0  0  0  0  0  0  0  0  0  0
   37.6600   28.7380   41.1460 C   0  0  0  0  0  0  0  0  0  0  0  0
   37.7810   29.3770   42.3420 N   0  0  0  0  0  0  0  0  0  0  0  0
   37.5990   28.8050   43.5300 C   0  0  0  0  0  0  0  0  0  0  0  0
   37.2710   27.4940   43.5750 N   0  0  0  0  0  0  0  0  0  0  0  0
   36.8700   25.7300   42.3820 H   0  0  0  0  0  0  0  0  0  0  0  0
   37.2300   26.8990   40.2680 H   0  0  0  0  0  0  0  0  0  0  0  0
   37.7120   29.3770   44.4310 H   0  0  0  0  0  0  0  0  0  0  0  0
   39.3620   34.7870   40.7450 N   0  0  0  0  0  0  0  0  0  0  0  0
   40.0250   34.2580   39.9700 C   0  0  0  0  0  0  0  0  0  0  0  0
  1 47  1  0  0  0  0
  2 23  1  0  0  0  0
  2  1  2  0  0  0  0
  3  2  1  0  0  0  0
  4  3  2  0  0  0  0
  4  5  1  0  0  0  0
  5  6  2  0  0  0  0
  6  1  1  0  0  0  0
  6 12  1  0  0  0  0
  7  3  1  0  0  0  0
  8  4  1  0  0  0  0
  9  5  1  0  0  0  0
 10 11  2  0  0  0  0
 10 14  1  0  0  0  0
 12 10  1  0  0  0  0
 13 12  1  0  0  0  0
 14 15  2  0  0  0  0
 14 22  1  0  0  0  0
 15 17  1  0  0  0  0
 16 15  1  0  0  0  0
 17 18  2  0  0  0  0
 18 19  1  0  0  0  0
 20 18  1  0  0  0  0
 20 21  1  0  0  0  0
 22 20  2  0  0  0  0
 23 27  1  0  0  0  0
 24 23  1  0  0  0  0
 25 39  1  0  0  0  0
 26 25  1  0  0  0  0
 26 30  1  0  0  0  0
 27 26  1  0  0  0  0
 27 32  1  1  0  0  0
 28 29  1  0  0  0  0
 28 27  1  0  0  0  0
 29 35  1  0  0  0  0
 29 25  1  0  0  0  0
 31 26  1  0  0  0  0
 33 28  1  0  0  0  0
 34 28  1  0  0  0  0
 36 29  1  0  0  0  0
 37 42  1  0  0  0  0
 38 37  2  0  0  0  0
 39 38  1  0  0  0  0
 39 40  2  0  0  0  0
 40 41  1  0  0  0  0
 41 42  2  0  0  0  0
 41 45  1  0  0  0  0
 43 37  1  0  0  0  0
 44 38  1  0  0  0  0
 47 46  3  0  0  0  0
M  END
>  <minimizedAffinity>
-7.15256929

$$$$

 OpenBabel03242519123D

 47 50  0  0  1  0  0  0  0  0999 V2000
   39.6190   31.5660   39.8490 C   0  0  0  0  0  0  0  0  0  0  0  0
   39.4210   32.9090   39.4690 C   0  0  0  0  0  0  0  0  0  0  0  0
   38.1200   33.3240   39.6250 C   0  0  0  0  0  0  0  0  0  0  0  0
   37.0720   32.5760   40.0920 C   0  0  0  0  0  0  0  0  0  0  0  0
   37.3140   31.2670   40.4520 C   0  0  0  0  0  0  0  0  0  0  0  0
   38.5920   30.7890   40.3210 C   0  0  0  0  0  0  0  0  0  0  0  0
   37.9000   34.3580   39.3470 H   0  0  0  0  0  0  0  0  0  0  0  0
   36.0750   32.9990   40.1780 H   0  0  0  0  0  0  0  0  0  0  0  0
   36.5140   30.6540   40.8220 H   0  0  0  0  0  0  0  0  0  0  0  0
   38.9920   29.1000   42.0630 C   0  0  0  0  0  0  0  0  0  0  0  0
   38.9370   30.0380   42.9420 O   0  0  0  0  0  0  0  0  0  0  0  0
   38.8080   29.4300   40.7020 N   0  0  0  0  0  0  0  0  0  0  0  0
   38.8220   28.7180   39.9390 H   0  0  0  0  0  0  0  0  0  0  0  0
   39.2400   27.7190   42.4740 C   0  0  0  0  0  0  0  0  0  0  0  0
   38.5900   26.6000   41.9940 C   0  0  0  0  0  0  0  0  0  0  0  0
   37.8290   26.7710   41.2450 H   0  0  0  0  0  0  0  0  0  0  0  0
   38.9080   25.3380   42.4540 C   0  0  0  0  0  3  0  0  0  0  0  0
   39.8880   25.1670   43.4100 C   0  0  0  0  0  0  0  0  0  0  0  0
   40.1200   24.1680   43.7570 H   0  0  0  0  0  0  0  0  0  0  0  0
   40.5760   26.2410   43.9320 C   0  0  0  0  0  0  0  0  0  0  0  0
   41.3520   26.1630   44.6820 H   0  0  0  0  0  0  0  0  0  0  0  0
   40.2120   27.4730   43.4310 C   0  0  0  0  0  3  0  0  0  0  0  0
   40.4340   33.7510   38.9800 N   0  0  0  0  0  0  0  0  0  0  0  0
   40.5120   33.5770   37.9410 H   0  0  0  0  0  0  0  0  0  0  0  0
   41.9850   35.6960   41.5170 N   0  0  0  0  0  0  0  0  0  0  0  0
   41.5130   34.3860   41.0860 C   0  0  0  0  0  0  0  0  0  0  0  0
   41.2740   34.7050   39.6380 C   0  0  2  0  0  0  0  0  0  0  0  0
   40.4940   36.0050   39.7270 C   0  0  0  0  0  0  0  0  0  0  0  0
   41.1080   36.6730   40.9270 C   0  0  0  0  0  0  0  0  0  0  0  0
   42.2960   33.6150   41.1400 H   0  0  0  0  0  0  0  0  0  0  0  0
   40.5630   34.0990   41.5470 H   0  0  0  0  0  0  0  0  0  0  0  0
   42.1890   34.8910   39.0770 H   0  0  0  0  0  0  0  0  0  0  0  0
   40.6440   36.6030   38.7950 H   0  0  0  0  0  0  0  0  0  0  0  0
   39.4330   35.7580   39.8880 H   0  0  0  0  0  0  0  0  0  0  0  0
   41.6160   37.6250   40.6790 H   0  0  0  0  0  0  0  0  0  0  0  0
   40.3020   36.8740   41.6780 H   0  0  0  0  0  0  0  0  0  0  0  0
   45.3820   36.0720   42.9970 C   0  0  0  0  0  0  0  0  0  0  0  0
   44.3920   35.6760   42.1070 C   0  0  0  0  0  0  0  0  0  0  0  0
   43.0700   36.0370   42.3430 C   0  0  0  0  0  0  0  0  0  0  0  0
   42.8420   36.7750   43.4640 N   0  0  0  0  0  0  0  0  0  0  0  0
   43.7830   37.1590   44.3240 C   0  0  0  0  0  0  0  0  0  0  0  0
   45.0640   36.8030   44.0850 N   0  0  0  0  0  0  0  0  0  0  0  0
   46.3810   35.7430   42.7290 H   0  0  0  0  0  0  0  0  0  0  0  0
   44.5620   35.1010   41.2320 H   0  0  0  0  0  0  0  0  0  0  0  0
   43.5220   37.7410   45.1870 H   0  0  0  0  0  0  0  0  0  0  0  0
   42.0370   30.6410   39.6150 N   0  0  0  0  0  0  0  0  0  0  0  0
   40.9650   31.0420   39.7180 C   0  0  0  0  0  0  0  0  0  0  0  0
  1  6  1  0  0  0  0
  2  3  1  0  0  0  0
  2  1  2  0  0  0  0
  3  4  2  0  0  0  0
  4  8  1  0  0  0  0
  4  5  1  0  0  0  0
  5  9  1  0  0  0  0
  6  5  2  0  0  0  0
  6 12  1  0  0  0  0
  7  3  1  0  0  0  0
 10 14  1  0  0  0  0
 10 11  2  0  0  0  0
 12 10  1  0  0  0  0
 13 12  1  0  0  0  0
 14 22  1  0  0  0  0
 15 17  1  0  0  0  0
 15 14  2  0  0  0  0
 16 15  1  0  0  0  0
 17 18  2  0  0  0  0
 18 19  1  0  0  0  0
 18 20  1  0  0  0  0
 20 21  1  0  0  0  0
 22 20  2  0  0  0  0
 23  2  1  0  0  0  0
 23 27  1  0  0  0  0
 24 23  1  0  0  0  0
 25 39  1  0  0  0  0
 26 30  1  0  0  0  0
 26 25  1  0  0  0  0
 26 31  1  0  0  0  0
 27 32  1  6  0  0  0
 27 28  1  0  0  0  0
 27 26  1  0  0  0  0
 28 34  1  0  0  0  0
 28 29  1  0  0  0  0
 29 25  1  0  0  0  0
 29 36  1  0  0  0  0
 33 28  1  0  0  0  0
 35 29  1  0  0  0  0
 37 42  1  0  0  0  0
 38 39  1  0  0  0  0
 38 37  2  0  0  0  0
 39 40  2  0  0  0  0
 40 41  1  0  0  0  0
 41 45  1  0  0  0  0
 42 41  2  0  0  0  0
 43 37  1  0  0  0  0
 44 38  1  0  0  0  0
 46 47  3  0  0  0  0
 47  1  1  0  0  0  0
M  END
>  <minimizedAffinity>
-7.00865269

$$$$

 OpenBabel03242519123D

 47 50  0  0  1  0  0  0  0  0999 V2000
   39.9260   31.8480   39.2300 C   0  0  0  0  0  0  0  0  0  0  0  0
   40.8770   32.6070   38.5180 C   0  0  0  0  0  0  0  0  0  0  0  0
   41.7870   31.8290   37.8420 C   0  0  0  0  0  0  0  0  0  0  0  0
   41.8330   30.4600   37.8140 C   0  0  0  0  0  0  0  0  0  0  0  0
   40.8820   29.7610   38.5260 C   0  0  0  0  0  0  0  0  0  0  0  0
   39.9440   30.4770   39.2230 C   0  0  0  0  0  0  0  0  0  0  0  0
   42.5530   32.3580   37.2690 H   0  0  0  0  0  0  0  0  0  0  0  0
   42.5980   29.9360   37.2480 H   0  0  0  0  0  0  0  0  0  0  0  0
   40.8910   28.6870   38.5260 H   0  0  0  0  0  0  0  0  0  0  0  0
   39.2750   29.2490   41.2460 C   0  0  0  0  0  0  0  0  0  0  0  0
   40.4200   29.5310   41.7590 O   0  0  0  0  0  0  0  0  0  0  0  0
   38.9740   29.7220   39.9500 N   0  0  0  0  0  0  0  0  0  0  0  0
   38.0580   29.5460   39.4800 H   0  0  0  0  0  0  0  0  0  0  0  0
   38.3070   28.4530   41.9980 C   0  0  0  0  0  0  0  0  0  0  0  0
   37.6590   27.3210   41.5450 C   0  0  0  0  0  0  0  0  0  0  0  0
   37.8980   27.0020   40.5400 H   0  0  0  0  0  0  0  0  0  0  0  0
   36.7610   26.6440   42.3460 C   0  0  0  0  0  3  0  0  0  0  0  0
   36.4880   27.0880   43.6240 C   0  0  0  0  0  0  0  0  0  0  0  0
   35.7790   26.5420   44.2330 H   0  0  0  0  0  0  0  0  0  0  0  0
   37.0990   28.2110   44.1390 C   0  0  0  0  0  0  0  0  0  0  0  0
   36.9220   28.6010   45.1320 H   0  0  0  0  0  0  0  0  0  0  0  0
   37.9850   28.8400   43.2900 C   0  0  0  0  0  3  0  0  0  0  0  0
   40.9080   34.0110   38.4880 N   0  0  0  0  0  0  0  0  0  0  0  0
   40.3620   34.3190   37.6370 H   0  0  0  0  0  0  0  0  0  0  0  0
   42.0420   35.6410   41.4350 N   0  0  0  0  0  0  0  0  0  0  0  0
   41.8870   34.3910   40.7010 C   0  0  0  0  0  0  0  0  0  0  0  0
   41.5160   34.9660   39.3640 C   0  0  2  0  0  0  0  0  0  0  0  0
   40.4450   35.9750   39.7420 C   0  0  0  0  0  0  0  0  0  0  0  0
   40.9280   36.4790   41.0750 C   0  0  0  0  0  0  0  0  0  0  0  0
   42.8360   33.8480   40.5870 H   0  0  0  0  0  0  0  0  0  0  0  0
   41.0560   33.7790   41.0670 H   0  0  0  0  0  0  0  0  0  0  0  0
   42.3320   35.4970   38.8780 H   0  0  0  0  0  0  0  0  0  0  0  0
   40.4050   36.7890   38.9780 H   0  0  0  0  0  0  0  0  0  0  0  0
   39.4850   35.4420   39.8230 H   0  0  0  0  0  0  0  0  0  0  0  0
   41.1760   37.5580   41.0640 H   0  0  0  0  0  0  0  0  0  0  0  0
   40.1300   36.2950   41.8380 H   0  0  0  0  0  0  0  0  0  0  0  0
   43.9050   37.1600   44.2800 C   0  0  0  0  0  0  0  0  0  0  0  0
   42.8330   36.8280   43.4610 C   0  0  0  0  0  0  0  0  0  0  0  0
   43.0440   36.0410   42.3350 C   0  0  0  0  0  0  0  0  0  0  0  0
   44.3270   35.6430   42.1160 N   0  0  0  0  0  0  0  0  0  0  0  0
   45.3620   35.9550   42.8920 C   0  0  0  0  0  0  0  0  0  0  0  0
   45.1460   36.7210   43.9840 N   0  0  0  0  0  0  0  0  0  0  0  0
   43.6420   37.7770   45.1330 H   0  0  0  0  0  0  0  0  0  0  0  0
   41.8300   37.1350   43.6260 H   0  0  0  0  0  0  0  0  0  0  0  0
   46.3470   35.6020   42.6510 H   0  0  0  0  0  0  0  0  0  0  0  0
   38.1360   33.1870   40.5570 N   0  0  0  0  0  0  0  0  0  0  0  0
   38.9240   32.5880   39.9730 C   0  0  0  0  0  0  0  0  0  0  0  0
  1 47  1  0  0  0  0
  2  1  2  0  0  0  0
  3  2  1  0  0  0  0
  4  3  2  0  0  0  0
  4  5  1  0  0  0  0
  5  6  2  0  0  0  0
  6  1  1  0  0  0  0
  6 12  1  0  0  0  0
  7  3  1  0  0  0  0
  8  4  1  0  0  0  0
  9  5  1  0  0  0  0
 10 11  2  0  0  0  0
 10 14  1  0  0  0  0
 12 10  1  0  0  0  0
 13 12  1  0  0  0  0
 14 22  1  0  0  0  0
 15 14  2  0  0  0  0
 15 17  1  0  0  0  0
 16 15  1  0  0  0  0
 17 18  2  0  0  0  0
 18 20  1  0  0  0  0
 18 19  1  0  0  0  0
 20 21  1  0  0  0  0
 22 20  2  0  0  0  0
 23  2  1  0  0  0  0
 23 27  1  0  0  0  0
 24 23  1  0  0  0  0
 25 39  1  0  0  0  0
 26 31  1  0  0  0  0
 26 25  1  0  0  0  0
 27 32  1  6  0  0  0
 27 28  1  0  0  0  0
 27 26  1  0  0  0  0
 28 34  1  0  0  0  0
 28 29  1  0  0  0  0
 29 25  1  0  0  0  0
 29 36  1  0  0  0  0
 30 26  1  0  0  0  0
 33 28  1  0  0  0  0
 35 29  1  0  0  0  0
 37 43  1  0  0  0  0
 38 44  1  0  0  0  0
 38 37  2  0  0  0  0
 39 38  1  0  0  0  0
 40 39  2  0  0  0  0
 40 41  1  0  0  0  0
 41 42  2  0  0  0  0
 42 37  1  0  0  0  0
 45 41  1  0  0  0  0
 47 46  3  0  0  0  0
M  END
>  <minimizedAffinity>
-6.97322655

$$$$

 OpenBabel03242519123D

 47 50  0  0  1  0  0  0  0  0999 V2000
   39.2550   31.0980   39.6790 C   0  0  0  0  0  0  0  0  0  0  0  0
   39.5300   32.4800   39.6280 C   0  0  0  0  0  0  0  0  0  0  0  0
   38.3950   33.2540   39.6690 C   0  0  0  0  0  0  0  0  0  0  0  0
   37.1020   32.8090   39.7510 C   0  0  0  0  0  0  0  0  0  0  0  0
   36.8820   31.4490   39.7990 C   0  0  0  0  0  0  0  0  0  0  0  0
   37.9720   30.6190   39.7620 C   0  0  0  0  0  0  0  0  0  0  0  0
   38.5400   34.3370   39.6330 H   0  0  0  0  0  0  0  0  0  0  0  0
   36.2690   33.5060   39.7770 H   0  0  0  0  0  0  0  0  0  0  0  0
   35.8810   31.0670   39.8630 H   0  0  0  0  0  0  0  0  0  0  0  0
   37.4000   28.6010   41.0460 C   0  0  0  0  0  0  0  0  0  0  0  0
   37.3380   29.3290   42.1040 O   0  0  0  0  0  0  0  0  0  0  0  0
   37.7100   29.2160   39.8130 N   0  0  0  0  0  0  0  0  0  0  0  0
   37.7590   28.6900   38.9130 H   0  0  0  0  0  0  0  0  0  0  0  0
   37.1530   27.1630   41.1260 C   0  0  0  0  0  0  0  0  0  0  0  0
   37.2250   26.3880   42.2660 C   0  0  0  0  0  0  0  0  0  0  0  0
   37.4900   26.9030   43.1800 H   0  0  0  0  0  0  0  0  0  0  0  0
   36.9690   25.0320   42.2260 C   0  0  0  0  0  3  0  0  0  0  0  0
   36.6330   24.4170   41.0370 C   0  0  0  0  0  0  0  0  0  0  0  0
   36.4380   23.3530   41.0290 H   0  0  0  0  0  0  0  0  0  0  0  0
   36.5440   25.1310   39.8610 C   0  0  0  0  0  0  0  0  0  0  0  0
   36.2840   24.7000   38.9030 H   0  0  0  0  0  0  0  0  0  0  0  0
   36.8100   26.4800   39.9690 C   0  0  0  0  0  3  0  0  0  0  0  0
   40.8210   33.0280   39.5440 N   0  0  0  0  0  0  0  0  0  0  0  0
   41.0140   33.2190   38.5230 H   0  0  0  0  0  0  0  0  0  0  0  0
   43.2060   34.7680   41.5220 N   0  0  0  0  0  0  0  0  0  0  0  0
   41.9150   34.7930   40.8440 C   0  0  0  0  0  0  0  0  0  0  0  0
   41.7930   33.3250   40.5520 C   0  0  2  0  0  0  0  0  0  0  0  0
   43.1580   33.0060   39.9670 C   0  0  0  0  0  0  0  0  0  0  0  0
   44.0680   33.9120   40.7500 C   0  0  0  0  0  0  0  0  0  0  0  0
   41.0910   35.0770   41.5140 H   0  0  0  0  0  0  0  0  0  0  0  0
   41.9390   35.3420   39.8970 H   0  0  0  0  0  0  0  0  0  0  0  0
   41.6490   32.7140   41.4420 H   0  0  0  0  0  0  0  0  0  0  0  0
   43.3990   31.9270   40.1340 H   0  0  0  0  0  0  0  0  0  0  0  0
   43.1400   33.2600   38.8960 H   0  0  0  0  0  0  0  0  0  0  0  0
   44.8030   33.3590   41.3660 H   0  0  0  0  0  0  0  0  0  0  0  0
   44.6170   34.5740   40.0330 H   0  0  0  0  0  0  0  0  0  0  0  0
   43.5820   37.1570   44.3540 C   0  0  0  0  0  0  0  0  0  0  0  0
   43.0910   36.6100   43.1750 C   0  0  0  0  0  0  0  0  0  0  0  0
   43.6190   35.4160   42.6980 C   0  0  0  0  0  0  0  0  0  0  0  0
   44.6080   34.8570   43.4480 N   0  0  0  0  0  0  0  0  0  0  0  0
   45.0870   35.3720   44.5790 C   0  0  0  0  0  0  0  0  0  0  0  0
   44.5660   36.5330   45.0330 N   0  0  0  0  0  0  0  0  0  0  0  0
   43.1090   38.0890   44.6450 H   0  0  0  0  0  0  0  0  0  0  0  0
   42.3210   37.0400   42.5850 H   0  0  0  0  0  0  0  0  0  0  0  0
   45.8700   34.8700   45.1140 H   0  0  0  0  0  0  0  0  0  0  0  0
   41.3010   29.4970   39.5960 N   0  0  0  0  0  0  0  0  0  0  0  0
   40.3950   30.2030   39.6410 C   0  0  0  0  0  0  0  0  0  0  0  0
  1  6  1  0  0  0  0
  2  3  1  0  0  0  0
  2  1  2  0  0  0  0
  3  4  2  0  0  0  0
  4  8  1  0  0  0  0
  4  5  1  0  0  0  0
  5  9  1  0  0  0  0
  6  5  2  0  0  0  0
  6 12  1  0  0  0  0
  7  3  1  0  0  0  0
 10 14  1  0  0  0  0
 10 11  2  0  0  0  0
 12 10  1  0  0  0  0
 13 12  1  0  0  0  0
 14 15  1  0  0  0  0
 15 16  1  0  0  0  0
 17 15  2  0  0  0  0
 18 17  1  0  0  0  0
 19 18  1  0  0  0  0
 20 22  1  0  0  0  0
 20 18  2  0  0  0  0
 21 20  1  0  0  0  0
 22 14  2  0  0  0  0
 23  2  1  0  0  0  0
 23 27  1  0  0  0  0
 24 23  1  0  0  0  0
 25 39  1  0  0  0  0
 26 30  1  0  0  0  0
 26 25  1  0  0  0  0
 27 26  1  0  0  0  0
 27 32  1  1  0  0  0
 28 33  1  0  0  0  0
 28 27  1  0  0  0  0
 28 29  1  0  0  0  0
 29 35  1  0  0  0  0
 29 25  1  0  0  0  0
 31 26  1  0  0  0  0
 34 28  1  0  0  0  0
 36 29  1  0  0  0  0
 37 43  1  0  0  0  0
 37 42  1  0  0  0  0
 38 37  2  0  0  0  0
 39 38  1  0  0  0  0
 39 40  2  0  0  0  0
 40 41  1  0  0  0  0
 41 42  2  0  0  0  0
 41 45  1  0  0  0  0
 44 38  1  0  0  0  0
 46 47  3  0  0  0  0
 47  1  1  0  0  0  0
M  END
>  <minimizedAffinity>
-6.80592537

$$$$

 OpenBabel03242519123D

 47 50  0  0  1  0  0  0  0  0999 V2000
   41.1060   33.5650   38.8950 C   0  0  0  0  0  0  0  0  0  0  0  0
   40.5350   32.6180   38.0200 C   0  0  0  0  0  0  0  0  0  0  0  0
   41.4690   31.9770   37.2410 C   0  0  0  0  0  0  0  0  0  0  0  0
   42.8240   32.1790   37.2540 C   0  0  0  0  0  0  0  0  0  0  0  0
   43.3360   33.1150   38.1270 C   0  0  0  0  0  0  0  0  0  0  0  0
   42.4580   33.7910   38.9340 C   0  0  0  0  0  0  0  0  0  0  0  0
   41.0900   31.2300   36.5390 H   0  0  0  0  0  0  0  0  0  0  0  0
   43.4810   31.6190   36.5950 H   0  0  0  0  0  0  0  0  0  0  0  0
   44.3930   33.2970   38.1620 H   0  0  0  0  0  0  0  0  0  0  0  0
   43.3950   34.3690   41.1320 C   0  0  0  0  0  0  0  0  0  0  0  0
   43.2400   33.1430   41.4870 O   0  0  0  0  0  0  0  0  0  0  0  0
   43.0210   34.7540   39.8260 N   0  0  0  0  0  0  0  0  0  0  0  0
   43.1350   35.7270   39.4660 H   0  0  0  0  0  0  0  0  0  0  0  0
   43.9490   35.3430   42.0710 C   0  0  0  0  0  0  0  0  0  0  0  0
   43.2360   36.0690   43.0040 C   0  0  0  0  0  0  0  0  0  0  0  0
   42.1690   35.8930   43.0360 H   0  0  0  0  0  0  0  0  0  0  0  0
   43.8660   36.9650   43.8450 C   0  0  0  0  0  3  0  0  0  0  0  0
   45.2310   37.1560   43.7690 C   0  0  0  0  0  0  0  0  0  0  0  0
   45.7030   37.8650   44.4380 H   0  0  0  0  0  0  0  0  0  0  0  0
   46.0030   36.4650   42.8610 C   0  0  0  0  0  0  0  0  0  0  0  0
   47.0740   36.5760   42.7600 H   0  0  0  0  0  0  0  0  0  0  0  0
   45.3140   35.5860   42.0520 C   0  0  0  0  0  3  0  0  0  0  0  0
   39.1600   32.3440   37.9370 N   0  0  0  0  0  0  0  0  0  0  0  0
   38.6970   33.1900   37.5060 H   0  0  0  0  0  0  0  0  0  0  0  0
   36.5260   29.9710   38.1790 N   0  0  0  0  0  0  0  0  0  0  0  0
   37.3390   30.8250   37.3220 C   0  0  0  0  0  0  0  0  0  0  0  0
   38.3970   31.1950   38.3210 C   0  0  2  0  0  0  0  0  0  0  0  0
   37.5640   31.5920   39.5280 C   0  0  0  0  0  0  0  0  0  0  0  0
   36.3960   30.6470   39.4430 C   0  0  0  0  0  0  0  0  0  0  0  0
   37.8210   30.2680   36.5050 H   0  0  0  0  0  0  0  0  0  0  0  0
   36.8180   31.7340   37.0040 H   0  0  0  0  0  0  0  0  0  0  0  0
   39.0380   30.3620   38.6050 H   0  0  0  0  0  0  0  0  0  0  0  0
   38.1560   31.4390   40.4640 H   0  0  0  0  0  0  0  0  0  0  0  0
   37.2590   32.6420   39.4040 H   0  0  0  0  0  0  0  0  0  0  0  0
   36.3350   29.9570   40.3060 H   0  0  0  0  0  0  0  0  0  0  0  0
   35.4530   31.2480   39.3880 H   0  0  0  0  0  0  0  0  0  0  0  0
   34.1570   27.2390   37.2870 C   0  0  0  0  0  0  0  0  0  0  0  0
   34.6230   28.5260   37.5210 C   0  0  0  0  0  0  0  0  0  0  0  0
   35.9420   28.7200   37.9140 C   0  0  0  0  0  0  0  0  0  0  0  0
   36.7000   27.5960   38.0410 N   0  0  0  0  0  0  0  0  0  0  0  0
   36.2650   26.3580   37.8200 C   0  0  0  0  0  0  0  0  0  0  0  0
   34.9800   26.1810   37.4390 N   0  0  0  0  0  0  0  0  0  0  0  0
   33.1150   27.1880   36.9860 H   0  0  0  0  0  0  0  0  0  0  0  0
   34.0380   29.4070   37.4250 H   0  0  0  0  0  0  0  0  0  0  0  0
   36.9250   25.5210   37.9430 H   0  0  0  0  0  0  0  0  0  0  0  0
   39.4770   34.8610   40.4530 N   0  0  0  0  0  0  0  0  0  0  0  0
   40.1930   34.2900   39.7580 C   0  0  0  0  0  0  0  0  0  0  0  0
  1  6  1  0  0  0  0
  1 47  1  0  0  0  0
  2  1  2  0  0  0  0
  3  4  2  0  0  0  0
  3  2  1  0  0  0  0
  4  5  1  0  0  0  0
  5  9  1  0  0  0  0
  5  6  2  0  0  0  0
  6 12  1  0  0  0  0
  7  3  1  0  0  0  0
  8  4  1  0  0  0  0
 10 11  2  0  0  0  0
 10 14  1  0  0  0  0
 12 10  1  0  0  0  0
 13 12  1  0  0  0  0
 14 15  1  0  0  0  0
 15 16  1  0  0  0  0
 15 17  2  0  0  0  0
 18 17  1  0  0  0  0
 18 19  1  0  0  0  0
 20 18  2  0  0  0  0
 21 20  1  0  0  0  0
 22 14  2  0  0  0  0
 22 20  1  0  0  0  0
 23  2  1  0  0  0  0
 23 27  1  0  0  0  0
 24 23  1  0  0  0  0
 25 29  1  0  0  0  0
 26 25  1  0  0  0  0
 26 27  1  0  0  0  0
 27 32  1  1  0  0  0
 27 28  1  0  0  0  0
 28 33  1  0  0  0  0
 29 28  1  0  0  0  0
 29 35  1  0  0  0  0
 30 26  1  0  0  0  0
 31 26  1  0  0  0  0
 34 28  1  0  0  0  0
 36 29  1  0  0  0  0
 37 42  2  0  0  0  0
 37 38  1  0  0  0  0
 38 39  2  0  0  0  0
 39 40  1  0  0  0  0
 39 25  1  0  0  0  0
 41 45  1  0  0  0  0
 41 40  2  0  0  0  0
 42 41  1  0  0  0  0
 43 37  1  0  0  0  0
 44 38  1  0  0  0  0
 47 46  3  0  0  0  0
M  END
>  <minimizedAffinity>
-6.58187151

$$$$

 OpenBabel03242519123D

 47 50  0  0  1  0  0  0  0  0999 V2000
   38.1310   30.8810   39.7070 C   0  0  0  0  0  0  0  0  0  0  0  0
   38.2360   32.0360   38.9060 C   0  0  0  0  0  0  0  0  0  0  0  0
   37.7150   31.8640   37.6460 C   0  0  0  0  0  0  0  0  0  0  0  0
   37.1390   30.7250   37.1460 C   0  0  0  0  0  0  0  0  0  0  0  0
   37.0590   29.6210   37.9670 C   0  0  0  0  0  0  0  0  0  0  0  0
   37.5610   29.7260   39.2380 C   0  0  0  0  0  0  0  0  0  0  0  0
   37.7650   32.7240   36.9730 H   0  0  0  0  0  0  0  0  0  0  0  0
   36.7550   30.6890   36.1300 H   0  0  0  0  0  0  0  0  0  0  0  0
   36.6140   28.7130   37.6060 H   0  0  0  0  0  0  0  0  0  0  0  0
   38.4720   27.5780   40.0160 C   0  0  0  0  0  0  0  0  0  0  0  0
   39.4820   27.7610   39.2400 O   0  0  0  0  0  0  0  0  0  0  0  0
   37.4620   28.5630   40.0630 N   0  0  0  0  0  0  0  0  0  0  0  0
   36.6250   28.4890   40.6820 H   0  0  0  0  0  0  0  0  0  0  0  0
   38.3800   26.3690   40.8320 C   0  0  0  0  0  0  0  0  0  0  0  0
   39.4310   25.7260   41.4540 C   0  0  0  0  0  0  0  0  0  0  0  0
   40.4100   26.1670   41.3200 H   0  0  0  0  0  0  0  0  0  0  0  0
   39.2270   24.5860   42.2050 C   0  0  0  0  0  3  0  0  0  0  0  0
   37.9590   24.0600   42.3500 C   0  0  0  0  0  0  0  0  0  0  0  0
   37.8230   23.1640   42.9430 H   0  0  0  0  0  0  0  0  0  0  0  0
   36.8660   24.6510   41.7550 C   0  0  0  0  0  0  0  0  0  0  0  0
   35.8520   24.2810   41.8370 H   0  0  0  0  0  0  0  0  0  0  0  0
   37.1360   25.7860   41.0210 C   0  0  0  0  0  3  0  0  0  0  0  0
   38.8090   33.2460   39.3310 N   0  0  0  0  0  0  0  0  0  0  0  0
   38.1000   34.0090   39.1530 H   0  0  0  0  0  0  0  0  0  0  0  0
   41.6180   35.0320   40.5770 N   0  0  0  0  0  0  0  0  0  0  0  0
   40.1660   34.9180   40.5000 C   0  0  0  0  0  0  0  0  0  0  0  0
   40.0850   33.5400   39.9090 C   0  0  2  0  0  0  0  0  0  0  0  0
   41.0850   33.6270   38.7690 C   0  0  0  0  0  0  0  0  0  0  0  0
   42.1440   34.5360   39.3320 C   0  0  0  0  0  0  0  0  0  0  0  0
   39.6910   34.8930   41.4910 H   0  0  0  0  0  0  0  0  0  0  0  0
   39.7170   35.6300   39.8000 H   0  0  0  0  0  0  0  0  0  0  0  0
   40.4090   32.7550   40.5910 H   0  0  0  0  0  0  0  0  0  0  0  0
   41.4880   32.6100   38.5390 H   0  0  0  0  0  0  0  0  0  0  0  0
   40.5760   34.0720   37.9000 H   0  0  0  0  0  0  0  0  0  0  0  0
   43.1270   34.0390   39.4390 H   0  0  0  0  0  0  0  0  0  0  0  0
   42.2530   35.4220   38.6560 H   0  0  0  0  0  0  0  0  0  0  0  0
   44.3620   35.5230   43.0460 C   0  0  0  0  0  0  0  0  0  0  0  0
   43.6440   34.9570   42.0010 C   0  0  0  0  0  0  0  0  0  0  0  0
   42.4310   35.5150   41.6170 C   0  0  0  0  0  0  0  0  0  0  0  0
   42.0270   36.6100   42.3170 N   0  0  0  0  0  0  0  0  0  0  0  0
   42.7060   37.1610   43.3210 C   0  0  0  0  0  0  0  0  0  0  0  0
   43.8850   36.6100   43.6870 N   0  0  0  0  0  0  0  0  0  0  0  0
   45.2960   35.0180   43.2730 H   0  0  0  0  0  0  0  0  0  0  0  0
   43.9520   34.1030   41.4500 H   0  0  0  0  0  0  0  0  0  0  0  0
   42.3200   38.0260   43.8260 H   0  0  0  0  0  0  0  0  0  0  0  0
   39.0630   31.0340   42.1290 N   0  0  0  0  0  0  0  0  0  0  0  0
   38.6560   30.9730   41.0560 C   0  0  0  0  0  0  0  0  0  0  0  0
  1 47  1  0  0  0  0
  2 23  1  0  0  0  0
  2  1  2  0  0  0  0
  3  2  1  0  0  0  0
  4  3  2  0  0  0  0
  4  5  1  0  0  0  0
  5  6  2  0  0  0  0
  6  1  1  0  0  0  0
  6 12  1  0  0  0  0
  7  3  1  0  0  0  0
  8  4  1  0  0  0  0
  9  5  1  0  0  0  0
 10 12  1  0  0  0  0
 10 14  1  0  0  0  0
 11 10  2  0  0  0  0
 12 13  1  0  0  0  0
 14 22  2  0  0  0  0
 14 15  1  0  0  0  0
 15 17  2  0  0  0  0
 16 15  1  0  0  0  0
 17 18  1  0  0  0  0
 18 19  1  0  0  0  0
 20 21  1  0  0  0  0
 20 18  2  0  0  0  0
 22 20  1  0  0  0  0
 23 27  1  0  0  0  0
 24 23  1  0  0  0  0
 25 39  1  0  0  0  0
 26 25  1  0  0  0  0
 26 30  1  0  0  0  0
 27 26  1  0  0  0  0
 27 32  1  1  0  0  0
 28 29  1  0  0  0  0
 28 27  1  0  0  0  0
 29 35  1  0  0  0  0
 29 25  1  0  0  0  0
 31 26  1  0  0  0  0
 33 28  1  0  0  0  0
 34 28  1  0  0  0  0
 36 29  1  0  0  0  0
 37 43  1  0  0  0  0
 37 42  1  0  0  0  0
 38 37  2  0  0  0  0
 39 38  1  0  0  0  0
 39 40  2  0  0  0  0
 40 41  1  0  0  0  0
 41 42  2  0  0  0  0
 41 45  1  0  0  0  0
 44 38  1  0  0  0  0
 47 46  3  0  0  0  0
M  END
>  <minimizedAffinity>
-6.46790457

$$$$

 OpenBabel03242519123D

 47 50  0  0  1  0  0  0  0  0999 V2000
   40.1780   33.0860   39.9710 C   0  0  0  0  0  0  0  0  0  0  0  0
   41.0820   34.1670   39.9460 C   0  0  0  0  0  0  0  0  0  0  0  0
   40.4580   35.3890   40.0230 C   0  0  0  0  0  0  0  0  0  0  0  0
   39.1100   35.6170   40.1160 C   0  0  0  0  0  0  0  0  0  0  0  0
   38.2650   34.5280   40.1360 C   0  0  0  0  0  0  0  0  0  0  0  0
   38.8230   33.2780   40.0620 C   0  0  0  0  0  0  0  0  0  0  0  0
   41.1050   36.2710   40.0090 H   0  0  0  0  0  0  0  0  0  0  0  0
   38.7140   36.6270   40.1700 H   0  0  0  0  0  0  0  0  0  0  0  0
   37.2040   34.6720   40.2070 H   0  0  0  0  0  0  0  0  0  0  0  0
   37.3340   31.7150   38.8840 C   0  0  0  0  0  0  0  0  0  0  0  0
   37.6470   32.2960   37.7810 O   0  0  0  0  0  0  0  0  0  0  0  0
   37.9190   32.1720   40.0850 N   0  0  0  0  0  0  0  0  0  0  0  0
   37.7250   31.7360   41.0140 H   0  0  0  0  0  0  0  0  0  0  0  0
   36.3870   30.6010   38.8880 C   0  0  0  0  0  0  0  0  0  0  0  0
   35.7260   30.1010   39.9920 C   0  0  0  0  0  0  0  0  0  0  0  0
   35.9340   30.5850   40.9360 H   0  0  0  0  0  0  0  0  0  0  0  0
   34.8480   29.0410   39.8780 C   0  0  0  0  0  3  0  0  0  0  0  0
   34.6130   28.4550   38.6510 C   0  0  0  0  0  0  0  0  0  0  0  0
   33.9210   27.6240   38.5860 H   0  0  0  0  0  0  0  0  0  0  0  0
   35.2400   28.9040   37.5090 C   0  0  0  0  0  0  0  0  0  0  0  0
   35.0910   28.4820   36.5240 H   0  0  0  0  0  0  0  0  0  0  0  0
   36.1020   29.9650   37.6900 C   0  0  0  0  0  3  0  0  0  0  0  0
   42.4770   34.0310   39.8540 N   0  0  0  0  0  0  0  0  0  0  0  0
   42.7370   34.1460   38.8370 H   0  0  0  0  0  0  0  0  0  0  0  0
   44.6580   34.4700   42.6250 N   0  0  0  0  0  0  0  0  0  0  0  0
   43.3220   34.6500   42.0690 C   0  0  0  0  0  0  0  0  0  0  0  0
   43.4740   33.7840   40.8520 C   0  0  2  0  0  0  0  0  0  0  0  0
   44.8010   34.2620   40.2890 C   0  0  0  0  0  0  0  0  0  0  0  0
   45.5870   34.5820   41.5310 C   0  0  0  0  0  0  0  0  0  0  0  0
   42.5380   34.2120   42.7030 H   0  0  0  0  0  0  0  0  0  0  0  0
   43.1260   35.6780   41.7500 H   0  0  0  0  0  0  0  0  0  0  0  0
   43.5610   32.7230   41.0810 H   0  0  0  0  0  0  0  0  0  0  0  0
   45.2770   33.4450   39.6930 H   0  0  0  0  0  0  0  0  0  0  0  0
   44.6110   35.1570   39.6750 H   0  0  0  0  0  0  0  0  0  0  0  0
   46.4840   33.9450   41.6510 H   0  0  0  0  0  0  0  0  0  0  0  0
   45.9030   35.6550   41.4890 H   0  0  0  0  0  0  0  0  0  0  0  0
   45.3850   34.7960   46.2640 C   0  0  0  0  0  0  0  0  0  0  0  0
   44.9540   35.1470   44.9900 C   0  0  0  0  0  0  0  0  0  0  0  0
   45.0590   34.2310   43.9510 C   0  0  0  0  0  0  0  0  0  0  0  0
   45.5910   33.0200   44.2730 N   0  0  0  0  0  0  0  0  0  0  0  0
   46.0070   32.6720   45.4880 C   0  0  0  0  0  0  0  0  0  0  0  0
   45.9020   33.5710   46.4910 N   0  0  0  0  0  0  0  0  0  0  0  0
   45.2640   35.5770   47.0080 H   0  0  0  0  0  0  0  0  0  0  0  0
   44.5390   36.0890   44.7320 H   0  0  0  0  0  0  0  0  0  0  0  0
   46.4170   31.6960   45.6620 H   0  0  0  0  0  0  0  0  0  0  0  0
   41.2060   30.7030   39.8190 N   0  0  0  0  0  0  0  0  0  0  0  0
   40.7490   31.7550   39.8940 C   0  0  0  0  0  0  0  0  0  0  0  0
  1  6  1  0  0  0  0
  2  1  2  0  0  0  0
  2  3  1  0  0  0  0
  3  4  2  0  0  0  0
  4  5  1  0  0  0  0
  4  8  1  0  0  0  0
  5  9  1  0  0  0  0
  6 12  1  0  0  0  0
  6  5  2  0  0  0  0
  7  3  1  0  0  0  0
 10 14  1  0  0  0  0
 10 12  1  0  0  0  0
 11 10  2  0  0  0  0
 12 13  1  0  0  0  0
 14 15  1  0  0  0  0
 15 16  1  0  0  0  0
 17 15  2  0  0  0  0
 18 17  1  0  0  0  0
 19 18  1  0  0  0  0
 20 22  1  0  0  0  0
 20 18  2  0  0  0  0
 21 20  1  0  0  0  0
 22 14  2  0  0  0  0
 23  2  1  0  0  0  0
 23 27  1  0  0  0  0
 24 23  1  0  0  0  0
 25 39  1  0  0  0  0
 26 25  1  0  0  0  0
 26 30  1  0  0  0  0
 27 32  1  1  0  0  0
 27 26  1  0  0  0  0
 28 27  1  0  0  0  0
 28 29  1  0  0  0  0
 29 35  1  0  0  0  0
 29 25  1  0  0  0  0
 31 26  1  0  0  0  0
 33 28  1  0  0  0  0
 34 28  1  0  0  0  0
 36 29  1  0  0  0  0
 37 42  1  0  0  0  0
 37 43  1  0  0  0  0
 38 37  2  0  0  0  0
 39 40  2  0  0  0  0
 39 38  1  0  0  0  0
 40 41  1  0  0  0  0
 41 45  1  0  0  0  0
 41 42  2  0  0  0  0
 44 38  1  0  0  0  0
 46 47  3  0  0  0  0
 47  1  1  0  0  0  0
M  END
>  <minimizedAffinity>
-6.41703749

$$$$

 OpenBabel03242519123D

 47 50  0  0  1  0  0  0  0  0999 V2000
   37.8490   29.9040   41.5890 C   0  0  0  0  0  0  0  0  0  0  0  0
   37.2150   28.6460   41.6400 C   0  0  0  0  0  0  0  0  0  0  0  0
   35.9940   28.6340   41.0080 C   0  0  0  0  0  0  0  0  0  0  0  0
   35.3900   29.6870   40.3740 C   0  0  0  0  0  0  0  0  0  0  0  0
   36.0480   30.8980   40.3500 C   0  0  0  0  0  0  0  0  0  0  0  0
   37.2710   30.9790   40.9620 C   0  0  0  0  0  0  0  0  0  0  0  0
   35.4500   27.6860   41.0130 H   0  0  0  0  0  0  0  0  0  0  0  0
   34.4170   29.5760   39.9030 H   0  0  0  0  0  0  0  0  0  0  0  0
   35.6010   31.7440   39.8620 H   0  0  0  0  0  0  0  0  0  0  0  0
   38.7810   32.5630   39.8400 C   0  0  0  0  0  0  0  0  0  0  0  0
   38.9360   31.7010   38.8980 O   0  0  0  0  0  0  0  0  0  0  0  0
   37.9260   32.2480   40.9190 N   0  0  0  0  0  0  0  0  0  0  0  0
   37.7400   32.9070   41.7070 H   0  0  0  0  0  0  0  0  0  0  0  0
   39.4810   33.8450   39.7870 C   0  0  0  0  0  0  0  0  0  0  0  0
   40.7820   34.0440   39.3700 C   0  0  0  0  0  0  0  0  0  0  0  0
   41.3240   33.1630   39.0540 H   0  0  0  0  0  0  0  0  0  0  0  0
   41.3440   35.3050   39.3600 C   0  0  0  0  0  3  0  0  0  0  0  0
   40.6130   36.4010   39.7710 C   0  0  0  0  0  0  0  0  0  0  0  0
   41.0750   37.3800   39.7560 H   0  0  0  0  0  0  0  0  0  0  0  0
   39.3100   36.2740   40.2000 C   0  0  0  0  0  0  0  0  0  0  0  0
   38.6930   37.0980   40.5320 H   0  0  0  0  0  0  0  0  0  0  0  0
   38.8080   34.9900   40.1850 C   0  0  0  0  0  3  0  0  0  0  0  0
   37.7570   27.5110   42.2660 N   0  0  0  0  0  0  0  0  0  0  0  0
   37.5870   27.6140   43.3030 H   0  0  0  0  0  0  0  0  0  0  0  0
   38.4690   24.1760   41.2670 N   0  0  0  0  0  0  0  0  0  0  0  0
   37.5000   25.2640   41.3230 C   0  0  0  0  0  0  0  0  0  0  0  0
   38.4330   26.3670   41.7340 C   0  0  2  0  0  0  0  0  0  0  0  0
   39.1960   25.7230   42.8800 C   0  0  0  0  0  0  0  0  0  0  0  0
   39.2950   24.2880   42.4400 C   0  0  0  0  0  0  0  0  0  0  0  0
   37.0890   25.5160   40.3350 H   0  0  0  0  0  0  0  0  0  0  0  0
   36.7470   25.1270   42.1060 H   0  0  0  0  0  0  0  0  0  0  0  0
   39.1470   26.6440   40.9600 H   0  0  0  0  0  0  0  0  0  0  0  0
   40.2020   26.1990   42.9810 H   0  0  0  0  0  0  0  0  0  0  0  0
   38.5960   25.8360   43.7970 H   0  0  0  0  0  0  0  0  0  0  0  0
   40.3390   23.9580   42.2750 H   0  0  0  0  0  0  0  0  0  0  0  0
   38.8260   23.6400   43.2240 H   0  0  0  0  0  0  0  0  0  0  0  0
   39.4790   22.2430   38.2470 C   0  0  0  0  0  0  0  0  0  0  0  0
   39.3800   23.3110   39.1310 C   0  0  0  0  0  0  0  0  0  0  0  0
   38.6410   23.1710   40.2990 C   0  0  0  0  0  0  0  0  0  0  0  0
   38.0520   21.9590   40.4940 N   0  0  0  0  0  0  0  0  0  0  0  0
   38.1380   20.9300   39.6540 C   0  0  0  0  0  0  0  0  0  0  0  0
   38.8600   21.0770   38.5210 N   0  0  0  0  0  0  0  0  0  0  0  0
   40.0760   22.4480   37.3640 H   0  0  0  0  0  0  0  0  0  0  0  0
   39.8360   24.2580   38.9860 H   0  0  0  0  0  0  0  0  0  0  0  0
   37.6430   20.0040   39.8780 H   0  0  0  0  0  0  0  0  0  0  0  0
   40.1750   30.0780   42.7360 N   0  0  0  0  0  0  0  0  0  0  0  0
   39.1450   30.0090   42.2310 C   0  0  0  0  0  0  0  0  0  0  0  0
  1  2  1  0  0  0  0
  1 47  1  0  0  0  0
  2 23  1  0  0  0  0
  3  7  1  0  0  0  0
  3  2  2  0  0  0  0
  4  3  1  0  0  0  0
  5  4  2  0  0  0  0
  5  6  1  0  0  0  0
  6  1  2  0  0  0  0
  8  4  1  0  0  0  0
  9  5  1  0  0  0  0
 10 12  1  0  0  0  0
 11 10  2  0  0  0  0
 12  6  1  0  0  0  0
 12 13  1  0  0  0  0
 14 10  1  0  0  0  0
 14 22  1  0  0  0  0
 15 14  2  0  0  0  0
 16 15  1  0  0  0  0
 17 15  1  0  0  0  0
 17 18  2  0  0  0  0
 18 20  1  0  0  0  0
 19 18  1  0  0  0  0
 20 21  1  0  0  0  0
 22 20  2  0  0  0  0
 23 24  1  0  0  0  0
 25 26  1  0  0  0  0
 25 29  1  0  0  0  0
 26 27  1  0  0  0  0
 26 31  1  0  0  0  0
 27 32  1  6  0  0  0
 27 23  1  0  0  0  0
 27 28  1  0  0  0  0
 28 33  1  0  0  0  0
 28 34  1  0  0  0  0
 29 28  1  0  0  0  0
 29 36  1  0  0  0  0
 30 26  1  0  0  0  0
 35 29  1  0  0  0  0
 37 42  2  0  0  0  0
 37 38  1  0  0  0  0
 38 39  2  0  0  0  0
 39 40  1  0  0  0  0
 39 25  1  0  0  0  0
 41 45  1  0  0  0  0
 41 40  2  0  0  0  0
 42 41  1  0  0  0  0
 43 37  1  0  0  0  0
 44 38  1  0  0  0  0
 47 46  3  0  0  0  0
M  END
>  <minimizedAffinity>
-6.31599712

$$$$

 OpenBabel03242519123D

 47 50  0  0  1  0  0  0  0  0999 V2000
   38.5840   27.5150   41.7100 C   0  0  0  0  0  0  0  0  0  0  0  0
   39.0130   28.5430   42.5730 C   0  0  0  0  0  0  0  0  0  0  0  0
   38.1670   28.7360   43.6390 C   0  0  0  0  0  0  0  0  0  0  0  0
   37.0140   28.0470   43.9050 C   0  0  0  0  0  0  0  0  0  0  0  0
   36.6340   27.0500   43.0320 C   0  0  0  0  0  0  0  0  0  0  0  0
   37.4340   26.8050   41.9460 C   0  0  0  0  0  0  0  0  0  0  0  0
   38.4450   29.5220   44.3470 H   0  0  0  0  0  0  0  0  0  0  0  0
   36.4100   28.2780   44.7780 H   0  0  0  0  0  0  0  0  0  0  0  0
   35.7350   26.4920   43.2110 H   0  0  0  0  0  0  0  0  0  0  0  0
   37.3510   24.4240   41.3400 C   0  0  0  0  0  0  0  0  0  0  0  0
   38.0200   24.1600   42.4060 O   0  0  0  0  0  0  0  0  0  0  0  0
   37.0120   25.7660   41.0620 N   0  0  0  0  0  0  0  0  0  0  0  0
   36.4560   26.0500   40.2250 H   0  0  0  0  0  0  0  0  0  0  0  0
   36.9510   23.3470   40.4360 C   0  0  0  0  0  0  0  0  0  0  0  0
   37.6960   22.2250   40.1300 C   0  0  0  0  0  0  0  0  0  0  0  0
   38.6620   22.1450   40.6090 H   0  0  0  0  0  0  0  0  0  0  0  0
   37.2170   21.2660   39.2590 C   0  0  0  0  0  3  0  0  0  0  0  0
   35.9770   21.4100   38.6710 C   0  0  0  0  0  0  0  0  0  0  0  0
   35.6220   20.6460   37.9910 H   0  0  0  0  0  0  0  0  0  0  0  0
   35.1820   22.5050   38.9330 C   0  0  0  0  0  0  0  0  0  0  0  0
   34.2030   22.6660   38.5010 H   0  0  0  0  0  0  0  0  0  0  0  0
   35.7170   23.4240   39.8100 C   0  0  0  0  0  3  0  0  0  0  0  0
   40.1810   29.3020   42.3820 N   0  0  0  0  0  0  0  0  0  0  0  0
   40.9890   28.6250   42.3290 H   0  0  0  0  0  0  0  0  0  0  0  0
   40.7520   32.5230   40.9950 N   0  0  0  0  0  0  0  0  0  0  0  0
   40.0470   31.2500   40.9030 C   0  0  0  0  0  0  0  0  0  0  0  0
   40.3850   30.7140   42.2640 C   0  0  2  0  0  0  0  0  0  0  0  0
   41.8830   30.9580   42.3350 C   0  0  0  0  0  0  0  0  0  0  0  0
   42.0390   32.2480   41.5770 C   0  0  0  0  0  0  0  0  0  0  0  0
   38.9560   31.3750   40.8470 H   0  0  0  0  0  0  0  0  0  0  0  0
   40.4660   30.5820   40.1440 H   0  0  0  0  0  0  0  0  0  0  0  0
   39.9090   31.2590   43.0770 H   0  0  0  0  0  0  0  0  0  0  0  0
   42.2000   31.0600   43.4020 H   0  0  0  0  0  0  0  0  0  0  0  0
   42.3910   30.1180   41.8350 H   0  0  0  0  0  0  0  0  0  0  0  0
   42.4210   33.0750   42.2070 H   0  0  0  0  0  0  0  0  0  0  0  0
   42.7470   32.0800   40.7260 H   0  0  0  0  0  0  0  0  0  0  0  0
   38.7300   35.5160   40.0860 C   0  0  0  0  0  0  0  0  0  0  0  0
   39.0170   34.2100   40.4650 C   0  0  0  0  0  0  0  0  0  0  0  0
   40.3390   33.8120   40.6170 C   0  0  0  0  0  0  0  0  0  0  0  0
   41.2820   34.7640   40.3750 N   0  0  0  0  0  0  0  0  0  0  0  0
   41.0200   36.0170   40.0110 C   0  0  0  0  0  0  0  0  0  0  0  0
   39.7300   36.3940   39.8660 N   0  0  0  0  0  0  0  0  0  0  0  0
   37.6700   35.7320   39.9930 H   0  0  0  0  0  0  0  0  0  0  0  0
   38.2870   33.4630   40.6540 H   0  0  0  0  0  0  0  0  0  0  0  0
   41.8210   36.7100   39.8380 H   0  0  0  0  0  0  0  0  0  0  0  0
   40.0670   27.0160   39.6340 N   0  0  0  0  0  0  0  0  0  0  0  0
   39.4180   27.2400   40.5550 C   0  0  0  0  0  0  0  0  0  0  0  0
  1  6  2  0  0  0  0
  1  2  1  0  0  0  0
  2  3  2  0  0  0  0
  3  4  1  0  0  0  0
  3  7  1  0  0  0  0
  4  8  1  0  0  0  0
  5  9  1  0  0  0  0
  5  4  2  0  0  0  0
  6  5  1  0  0  0  0
 10 11  2  0  0  0  0
 12 10  1  0  0  0  0
 12  6  1  0  0  0  0
 13 12  1  0  0  0  0
 14 10  1  0  0  0  0
 15 14  1  0  0  0  0
 15 16  1  0  0  0  0
 17 15  2  0  0  0  0
 18 20  2  0  0  0  0
 18 17  1  0  0  0  0
 19 18  1  0  0  0  0
 20 22  1  0  0  0  0
 21 20  1  0  0  0  0
 22 14  2  0  0  0  0
 23  2  1  0  0  0  0
 24 23  1  0  0  0  0
 25 29  1  0  0  0  0
 26 25  1  0  0  0  0
 26 27  1  0  0  0  0
 27 28  1  0  0  0  0
 27 23  1  0  0  0  0
 27 32  1  1  0  0  0
 28 33  1  0  0  0  0
 29 35  1  0  0  0  0
 29 28  1  0  0  0  0
 30 26  1  0  0  0  0
 31 26  1  0  0  0  0
 34 28  1  0  0  0  0
 36 29  1  0  0  0  0
 37 38  1  0  0  0  0
 38 39  2  0  0  0  0
 38 44  1  0  0  0  0
 39 25  1  0  0  0  0
 40 39  1  0  0  0  0
 41 40  2  0  0  0  0
 42 41  1  0  0  0  0
 42 37  2  0  0  0  0
 43 37  1  0  0  0  0
 45 41  1  0  0  0  0
 46 47  3  0  0  0  0
 47  1  1  0  0  0  0
M  END
>  <minimizedAffinity>
-6.26979923

$$$$
