
 OpenBabel03252507463D

 37 39  0  0  0  0  0  0  0  0999 V2000
   46.9510   34.3530   40.9420 C   0  0  0  0  0  0  0  0  0  0  0  0
   47.0940   35.1580   40.1650 H   0  0  0  0  0  0  0  0  0  0  0  0
   46.3940   33.5170   40.5250 H   0  0  0  0  0  0  0  0  0  0  0  0
   48.3110   33.9830   41.3780 C   0  0  0  0  0  0  0  0  0  0  0  0
   48.7690   32.7440   40.9670 C   0  0  0  0  0  0  0  0  0  0  0  0
   50.0440   32.3100   41.3320 C   0  0  0  0  0  0  0  0  0  0  0  0
   50.7980   33.1590   42.1000 N   0  0  0  0  0  0  0  0  0  0  0  0
   50.3060   34.3730   42.4840 C   0  0  0  0  0  0  0  0  0  0  0  0
   49.0900   34.7540   42.1190 N   0  0  0  0  0  0  0  0  0  0  0  0
   50.4460   31.3470   41.0330 H   0  0  0  0  0  0  0  0  0  0  0  0
   50.9060   35.0380   43.0910 H   0  0  0  0  0  0  0  0  0  0  0  0
   47.7470   31.6680   39.9610 S   0  0  0  0  0  0  0  0  0  0  0  0
   48.0600   32.0610   38.2540 C   0  0  0  0  0  0  0  0  0  0  0  0
   48.4420   33.3150   37.8820 C   0  0  0  0  0  0  0  0  0  0  0  0
   48.5620   34.1030   38.6350 H   0  0  0  0  0  0  0  0  0  0  0  0
   48.6920   33.6570   36.5850 C   0  0  0  0  0  3  0  0  0  0  0  0
   48.5650   32.7250   35.5650 C   0  0  0  0  0  0  0  0  0  0  0  0
   48.7560   32.9670   34.5300 H   0  0  0  0  0  0  0  0  0  0  0  0
   48.1780   31.4450   35.9140 C   0  0  0  0  0  0  0  0  0  0  0  0
   48.0770   30.7120   35.1290 H   0  0  0  0  0  0  0  0  0  0  0  0
   47.9370   31.1440   37.2360 C   0  0  0  0  0  3  0  0  0  0  0  0
   46.1290   34.9760   42.0250 C   0  0  0  0  0  0  0  0  0  0  0  0
   46.2660   34.3500   42.9550 H   0  0  0  0  0  0  0  0  0  0  0  0
   46.4680   35.9900   42.3240 H   0  0  0  0  0  0  0  0  0  0  0  0
   44.6630   34.9580   41.7550 C   0  0  0  0  0  0  0  0  0  0  0  0
   43.7630   35.4580   42.7390 C   0  0  0  0  0  0  0  0  0  0  0  0
   42.1200   35.2250   41.9580 S   0  0  0  0  0  0  0  0  0  0  0  0
   42.9410   34.4770   40.4070 C   0  0  0  0  0  0  0  0  0  0  0  0
   44.0450   34.5270   40.6920 N   0  0  0  0  0  0  0  0  0  0  0  0
   44.0190   35.8750   43.7130 H   0  0  0  0  0  0  0  0  0  0  0  0
   42.2120   34.0350   39.3000 O   0  0  0  0  0  0  0  0  0  0  0  0
   40.3220   34.5760   37.5260 O   0  0  0  0  0  0  0  0  0  0  0  0
   41.4190   35.2190   38.3710 P   0  0  0  0  0  0  0  0  0  0  0  0
   40.7320   36.3400   39.4270 O   0  0  0  0  0  0  0  0  0  0  0  0
   39.8900   35.9660   39.8280 H   0  0  0  0  0  0  0  0  0  0  0  0
   42.5450   36.0040   37.3810 O   0  0  0  0  0  0  0  0  0  0  0  0
   42.9950   36.6900   37.9610 H   0  0  0  0  0  0  0  0  0  0  0  0
  1  4  1  0  0  0  0
  1 22  1  0  0  0  0
  2  1  1  0  0  0  0
  3  1  1  0  0  0  0
  4  9  1  0  0  0  0
  5  6  1  0  0  0  0
  5  4  2  0  0  0  0
  6  7  2  0  0  0  0
  7  8  1  0  0  0  0
  8 11  1  0  0  0  0
  9  8  2  0  0  0  0
 10  6  1  0  0  0  0
 12  5  1  0  0  0  0
 13 12  1  0  0  0  0
 14 13  1  0  0  0  0
 14 15  1  0  0  0  0
 16 14  2  0  0  0  0
 17 19  2  0  0  0  0
 17 16  1  0  0  0  0
 18 17  1  0  0  0  0
 19 21  1  0  0  0  0
 20 19  1  0  0  0  0
 21 13  2  0  0  0  0
 22 24  1  0  0  0  0
 22 23  1  0  0  0  0
 25 22  1  0  0  0  0
 25 26  2  0  0  0  0
 26 30  1  0  0  0  0
 27 26  1  0  0  0  0
 28 29  2  0  0  0  0
 28 27  1  0  0  0  0
 29 25  1  0  0  0  0
 31 28  1  0  0  0  0
 32 33  2  0  0  0  0
 33 31  1  0  0  0  0
 33 34  1  0  0  0  0
 34 35  1  0  0  0  0
 36 37  1  0  0  0  0
 36 33  1  0  0  0  0
M  END
>  <minimizedAffinity>
-4.91746569

>  <minimizedRMSD>
0.307643145

$$$$
