
 OpenBabel03252507463D

 37 39  0  0  0  0  0  0  0  0999 V2000
   47.2040   34.5420   40.9870 C   0  0  0  0  0  0  0  0  0  0  0  0
   47.4430   35.4960   40.4350 H   0  0  0  0  0  0  0  0  0  0  0  0
   46.6300   33.8700   40.3520 H   0  0  0  0  0  0  0  0  0  0  0  0
   48.5070   33.9840   41.3920 C   0  0  0  0  0  0  0  0  0  0  0  0
   48.7820   32.6980   40.9640 C   0  0  0  0  0  0  0  0  0  0  0  0
   49.9930   32.0900   41.3000 C   0  0  0  0  0  0  0  0  0  0  0  0
   50.8710   32.8200   42.0570 N   0  0  0  0  0  0  0  0  0  0  0  0
   50.5590   34.0860   42.4580 C   0  0  0  0  0  0  0  0  0  0  0  0
   49.4000   34.6350   42.1210 N   0  0  0  0  0  0  0  0  0  0  0  0
   50.2520   31.0830   40.9870 H   0  0  0  0  0  0  0  0  0  0  0  0
   51.2570   34.6580   43.0570 H   0  0  0  0  0  0  0  0  0  0  0  0
   47.6020   31.7820   39.9740 S   0  0  0  0  0  0  0  0  0  0  0  0
   47.9430   32.1300   38.2620 C   0  0  0  0  0  0  0  0  0  0  0  0
   47.7450   31.1860   37.3020 C   0  0  0  0  0  0  0  0  0  0  0  0
   47.3710   30.1900   37.5720 H   0  0  0  0  0  0  0  0  0  0  0  0
   47.9940   31.4120   35.9790 C   0  0  0  0  0  3  0  0  0  0  0  0
   48.4690   32.6420   35.5450 C   0  0  0  0  0  0  0  0  0  0  0  0
   48.6740   32.8500   34.5050 H   0  0  0  0  0  0  0  0  0  0  0  0
   48.6790   33.6190   36.4990 C   0  0  0  0  0  0  0  0  0  0  0  0
   49.0470   34.5780   36.1720 H   0  0  0  0  0  0  0  0  0  0  0  0
   48.4130   33.3460   37.8220 C   0  0  0  0  0  3  0  0  0  0  0  0
   46.3450   34.9470   42.1430 C   0  0  0  0  0  0  0  0  0  0  0  0
   46.4910   34.1780   42.9570 H   0  0  0  0  0  0  0  0  0  0  0  0
   46.6460   35.9060   42.6150 H   0  0  0  0  0  0  0  0  0  0  0  0
   44.8850   34.9290   41.8450 C   0  0  0  0  0  0  0  0  0  0  0  0
   43.9710   35.4900   42.7840 C   0  0  0  0  0  0  0  0  0  0  0  0
   42.3410   35.2320   41.9830 S   0  0  0  0  0  0  0  0  0  0  0  0
   43.1850   34.3950   40.4900 C   0  0  0  0  0  0  0  0  0  0  0  0
   44.2830   34.4500   40.7940 N   0  0  0  0  0  0  0  0  0  0  0  0
   44.2130   35.9540   43.7390 H   0  0  0  0  0  0  0  0  0  0  0  0
   42.4720   33.9030   39.3930 O   0  0  0  0  0  0  0  0  0  0  0  0
   40.5190   34.3040   37.6500 O   0  0  0  0  0  0  0  0  0  0  0  0
   41.5740   35.0260   38.4850 P   0  0  0  0  0  0  0  0  0  0  0  0
   40.8150   36.0830   39.5600 O   0  0  0  0  0  0  0  0  0  0  0  0
   40.0120   35.6400   39.9690 H   0  0  0  0  0  0  0  0  0  0  0  0
   42.6190   35.9060   37.4850 O   0  0  0  0  0  0  0  0  0  0  0  0
   43.0210   36.6220   38.0650 H   0  0  0  0  0  0  0  0  0  0  0  0
  1  4  1  0  0  0  0
  1 22  1  0  0  0  0
  2  1  1  0  0  0  0
  3  1  1  0  0  0  0
  4  9  1  0  0  0  0
  5  6  1  0  0  0  0
  5  4  2  0  0  0  0
  6  7  2  0  0  0  0
  7  8  1  0  0  0  0
  8 11  1  0  0  0  0
  9  8  2  0  0  0  0
 10  6  1  0  0  0  0
 12  5  1  0  0  0  0
 13 12  1  0  0  0  0
 14 15  1  0  0  0  0
 14 13  2  0  0  0  0
 16 14  1  0  0  0  0
 17 16  2  0  0  0  0
 17 19  1  0  0  0  0
 18 17  1  0  0  0  0
 19 21  2  0  0  0  0
 20 19  1  0  0  0  0
 21 13  1  0  0  0  0
 22 24  1  0  0  0  0
 22 23  1  0  0  0  0
 25 22  1  0  0  0  0
 25 26  2  0  0  0  0
 26 30  1  0  0  0  0
 27 26  1  0  0  0  0
 28 29  2  0  0  0  0
 28 27  1  0  0  0  0
 29 25  1  0  0  0  0
 31 28  1  0  0  0  0
 32 33  2  0  0  0  0
 33 31  1  0  0  0  0
 33 34  1  0  0  0  0
 34 35  1  0  0  0  0
 36 37  1  0  0  0  0
 36 33  1  0  0  0  0
M  END
>  <minimizedAffinity>
-4.95656919

>  <minimizedRMSD>
0.356926113

$$$$
