
 OpenBabel03252507463D

 37 39  0  0  0  0  0  0  0  0999 V2000
   46.9490   34.3440   40.9520 C   0  0  0  0  0  0  0  0  0  0  0  0
   47.0880   35.1390   40.1640 H   0  0  0  0  0  0  0  0  0  0  0  0
   46.3930   33.5010   40.5470 H   0  0  0  0  0  0  0  0  0  0  0  0
   48.3090   33.9840   41.3920 C   0  0  0  0  0  0  0  0  0  0  0  0
   48.7720   32.7420   40.9940 C   0  0  0  0  0  0  0  0  0  0  0  0
   50.0490   32.3170   41.3630 C   0  0  0  0  0  0  0  0  0  0  0  0
   50.7990   33.1770   42.1220 N   0  0  0  0  0  0  0  0  0  0  0  0
   50.3040   34.3930   42.4920 C   0  0  0  0  0  0  0  0  0  0  0  0
   49.0860   34.7660   42.1240 N   0  0  0  0  0  0  0  0  0  0  0  0
   50.4550   31.3530   41.0740 H   0  0  0  0  0  0  0  0  0  0  0  0
   50.9010   35.0670   43.0930 H   0  0  0  0  0  0  0  0  0  0  0  0
   47.7540   31.6520   40.0000 S   0  0  0  0  0  0  0  0  0  0  0  0
   48.0020   32.0840   38.2920 C   0  0  0  0  0  0  0  0  0  0  0  0
   48.5900   33.2630   37.9450 C   0  0  0  0  0  0  0  0  0  0  0  0
   48.9200   33.9660   38.7200 H   0  0  0  0  0  0  0  0  0  0  0  0
   48.7980   33.6320   36.6480 C   0  0  0  0  0  3  0  0  0  0  0  0
   48.4120   32.8060   35.6020 C   0  0  0  0  0  0  0  0  0  0  0  0
   48.5650   33.0730   34.5660 H   0  0  0  0  0  0  0  0  0  0  0  0
   47.8120   31.6040   35.9240 C   0  0  0  0  0  0  0  0  0  0  0  0
   47.5090   30.9550   35.1190 H   0  0  0  0  0  0  0  0  0  0  0  0
   47.6220   31.2730   37.2470 C   0  0  0  0  0  3  0  0  0  0  0  0
   46.1250   34.9800   42.0270 C   0  0  0  0  0  0  0  0  0  0  0  0
   46.2620   34.3650   42.9640 H   0  0  0  0  0  0  0  0  0  0  0  0
   46.4650   35.9970   42.3150 H   0  0  0  0  0  0  0  0  0  0  0  0
   44.6600   34.9590   41.7570 C   0  0  0  0  0  0  0  0  0  0  0  0
   43.7580   35.4560   42.7410 C   0  0  0  0  0  0  0  0  0  0  0  0
   42.1160   35.2210   41.9580 S   0  0  0  0  0  0  0  0  0  0  0  0
   42.9400   34.4770   40.4070 C   0  0  0  0  0  0  0  0  0  0  0  0
   44.0430   34.5290   40.6920 N   0  0  0  0  0  0  0  0  0  0  0  0
   44.0130   35.8720   43.7160 H   0  0  0  0  0  0  0  0  0  0  0  0
   42.2120   34.0350   39.2990 O   0  0  0  0  0  0  0  0  0  0  0  0
   40.3230   34.5780   37.5230 O   0  0  0  0  0  0  0  0  0  0  0  0
   41.4220   35.2190   38.3690 P   0  0  0  0  0  0  0  0  0  0  0  0
   40.7360   36.3430   39.4230 O   0  0  0  0  0  0  0  0  0  0  0  0
   39.8930   35.9710   39.8230 H   0  0  0  0  0  0  0  0  0  0  0  0
   42.5490   36.0020   37.3780 O   0  0  0  0  0  0  0  0  0  0  0  0
   43.0000   36.6880   37.9570 H   0  0  0  0  0  0  0  0  0  0  0  0
  1  4  1  0  0  0  0
  1 22  1  0  0  0  0
  2  1  1  0  0  0  0
  3  1  1  0  0  0  0
  4  9  1  0  0  0  0
  5  6  1  0  0  0  0
  5  4  2  0  0  0  0
  6  7  2  0  0  0  0
  7  8  1  0  0  0  0
  8 11  1  0  0  0  0
  9  8  2  0  0  0  0
 10  6  1  0  0  0  0
 12  5  1  0  0  0  0
 13 12  1  0  0  0  0
 14 13  1  0  0  0  0
 14 15  1  0  0  0  0
 16 14  2  0  0  0  0
 17 19  2  0  0  0  0
 17 16  1  0  0  0  0
 18 17  1  0  0  0  0
 19 21  1  0  0  0  0
 20 19  1  0  0  0  0
 21 13  2  0  0  0  0
 22 24  1  0  0  0  0
 22 23  1  0  0  0  0
 25 22  1  0  0  0  0
 25 26  2  0  0  0  0
 26 30  1  0  0  0  0
 27 26  1  0  0  0  0
 28 29  2  0  0  0  0
 28 27  1  0  0  0  0
 29 25  1  0  0  0  0
 31 28  1  0  0  0  0
 32 33  2  0  0  0  0
 33 31  1  0  0  0  0
 33 34  1  0  0  0  0
 34 35  1  0  0  0  0
 36 37  1  0  0  0  0
 36 33  1  0  0  0  0
M  END
>  <minimizedAffinity>
-4.90887403

>  <minimizedRMSD>
0.341537446

$$$$
