
 OpenBabel03252509123D

 32 35  0  0  0  0  0  0  0  0999 V2000
   47.3820   32.3560   44.4650 C   0  0  0  0  0  0  0  0  0  0  0  0
   47.7910   33.0370   43.3200 C   0  0  0  0  0  0  0  0  0  0  0  0
   47.2200   34.2070   42.9090 C   0  0  0  0  0  0  0  0  0  0  0  0
   46.1770   34.7850   43.6350 C   0  0  0  0  0  0  0  0  0  0  0  0
   45.4040   35.8900   43.5330 N   0  0  0  0  0  0  0  0  0  0  0  0
   44.5330   35.9110   44.5770 C   0  0  0  0  0  0  0  0  0  0  0  0
   44.7850   34.8130   45.3100 N   0  0  0  0  0  0  0  0  0  0  0  0
   45.7870   34.1060   44.7550 C   0  0  0  0  0  0  0  0  0  0  0  0
   46.3370   32.9180   45.2090 C   0  0  0  0  0  0  0  0  0  0  0  0
   47.8450   31.4340   44.7730 H   0  0  0  0  0  0  0  0  0  0  0  0
   45.5710   36.5240   42.7260 H   0  0  0  0  0  0  0  0  0  0  0  0
   43.8650   36.7610   44.5870 H   0  0  0  0  0  0  0  0  0  0  0  0
   45.9850   32.4250   46.1070 H   0  0  0  0  0  0  0  0  0  0  0  0
   49.6670   30.8960   41.0010 C   0  0  0  0  0  0  0  0  0  0  0  0
   50.9450   31.4330   41.0310 C   0  0  0  0  0  0  0  0  0  0  0  0
   51.1560   32.5350   41.8530 C   0  0  0  0  0  0  0  0  0  0  0  0
   50.1170   33.0460   42.5940 N   0  0  0  0  0  0  0  0  0  0  0  0
   48.8800   32.4750   42.5240 C   0  0  0  0  0  0  0  0  0  0  0  0
   48.6520   31.4120   41.7380 N   0  0  0  0  0  0  0  0  0  0  0  0
   49.5450   30.0410   40.3490 H   0  0  0  0  0  0  0  0  0  0  0  0
   51.7750   31.0460   40.4560 H   0  0  0  0  0  0  0  0  0  0  0  0
   52.1080   33.0400   41.9600 H   0  0  0  0  0  0  0  0  0  0  0  0
   47.7580   35.0710   41.4360 S   0  0  0  0  0  0  0  0  0  0  0  0
   47.2710   34.1980   39.9580 C   0  0  0  0  0  0  0  0  0  0  0  0
   46.0780   33.4810   39.8930 C   0  0  0  0  0  0  0  0  0  0  0  0
   45.4160   33.4410   40.7560 H   0  0  0  0  0  0  0  0  0  0  0  0
   45.7220   32.8160   38.7440 C   0  0  0  0  0  3  0  0  0  0  0  0
   46.5550   32.8640   37.6530 C   0  0  0  0  0  0  0  0  0  0  0  0
   46.2790   32.3420   36.7460 H   0  0  0  0  0  0  0  0  0  0  0  0
   47.7490   33.5900   37.7380 C   0  0  0  0  0  0  0  0  0  0  0  0
   48.3540   33.5750   36.8220 H   0  0  0  0  0  0  0  0  0  0  0  0
   48.1240   34.2650   38.8820 C   0  0  0  0  0  3  0  0  0  0  0  0
  1 10  1  0  0  0  0
  1  9  1  0  0  0  0
  2  1  2  0  0  0  0
  3  2  1  0  0  0  0
  3  4  2  0  0  0  0
  4  8  1  0  0  0  0
  5  4  1  0  0  0  0
  5  6  1  0  0  0  0
  6 12  1  0  0  0  0
  6  7  2  0  0  0  0
  8  9  2  0  0  0  0
  8  7  1  0  0  0  0
  9 13  1  0  0  0  0
 11  5  1  0  0  0  0
 14 15  2  0  0  0  0
 14 19  1  0  0  0  0
 15 16  1  0  0  0  0
 16 22  1  0  0  0  0
 16 17  2  0  0  0  0
 18 17  1  0  0  0  0
 18  2  1  0  0  0  0
 19 18  2  0  0  0  0
 20 14  1  0  0  0  0
 21 15  1  0  0  0  0
 23  3  1  0  0  0  0
 24 23  1  0  0  0  0
 25 24  1  0  0  0  0
 25 26  1  0  0  0  0
 27 25  2  0  0  0  0
 28 30  2  0  0  0  0
 28 27  1  0  0  0  0
 29 28  1  0  0  0  0
 30 32  1  0  0  0  0
 31 30  1  0  0  0  0
 32 24  2  0  0  0  0
M  END
>  <minimizedAffinity>
-5.15180969

>  <minimizedRMSD>
4.8049078

$$$$
