
 OpenBabel03252507463D

 37 39  0  0  0  0  0  0  0  0999 V2000
   47.1750   34.4390   40.9190 C   0  0  0  0  0  0  0  0  0  0  0  0
   47.3840   35.3090   40.2310 H   0  0  0  0  0  0  0  0  0  0  0  0
   46.5940   33.6780   40.4020 H   0  0  0  0  0  0  0  0  0  0  0  0
   48.4980   33.9590   41.3590 C   0  0  0  0  0  0  0  0  0  0  0  0
   48.8560   32.6870   40.9470 C   0  0  0  0  0  0  0  0  0  0  0  0
   50.0900   32.1510   41.3150 C   0  0  0  0  0  0  0  0  0  0  0  0
   50.9070   32.9340   42.0880 N   0  0  0  0  0  0  0  0  0  0  0  0
   50.5150   34.1830   42.4720 C   0  0  0  0  0  0  0  0  0  0  0  0
   49.3350   34.6630   42.1040 N   0  0  0  0  0  0  0  0  0  0  0  0
   50.4140   31.1590   41.0160 H   0  0  0  0  0  0  0  0  0  0  0  0
   51.1650   34.7970   43.0830 H   0  0  0  0  0  0  0  0  0  0  0  0
   47.7530   31.7000   39.9350 S   0  0  0  0  0  0  0  0  0  0  0  0
   48.2030   31.9560   38.2330 C   0  0  0  0  0  0  0  0  0  0  0  0
   47.7560   33.0430   37.5460 C   0  0  0  0  0  0  0  0  0  0  0  0
   47.1090   33.7810   38.0360 H   0  0  0  0  0  0  0  0  0  0  0  0
   48.0760   33.2770   36.2410 C   0  0  0  0  0  3  0  0  0  0  0  0
   48.8900   32.3980   35.5390 C   0  0  0  0  0  0  0  0  0  0  0  0
   49.1600   32.5580   34.5060 H   0  0  0  0  0  0  0  0  0  0  0  0
   49.3580   31.2860   36.2110 C   0  0  0  0  0  0  0  0  0  0  0  0
   49.9900   30.5960   35.6750 H   0  0  0  0  0  0  0  0  0  0  0  0
   49.0070   31.0910   37.5290 C   0  0  0  0  0  3  0  0  0  0  0  0
   46.3440   34.9930   42.0320 C   0  0  0  0  0  0  0  0  0  0  0  0
   46.5030   34.3320   42.9330 H   0  0  0  0  0  0  0  0  0  0  0  0
   46.6580   36.0010   42.3730 H   0  0  0  0  0  0  0  0  0  0  0  0
   44.8770   34.9480   41.7700 C   0  0  0  0  0  0  0  0  0  0  0  0
   43.9740   35.4640   42.7430 C   0  0  0  0  0  0  0  0  0  0  0  0
   42.3320   35.1880   41.9760 S   0  0  0  0  0  0  0  0  0  0  0  0
   43.1570   34.4070   40.4430 C   0  0  0  0  0  0  0  0  0  0  0  0
   44.2610   34.4800   40.7210 N   0  0  0  0  0  0  0  0  0  0  0  0
   44.2300   35.9120   43.7040 H   0  0  0  0  0  0  0  0  0  0  0  0
   42.4280   33.9250   39.3520 O   0  0  0  0  0  0  0  0  0  0  0  0
   40.4650   34.3500   37.6260 O   0  0  0  0  0  0  0  0  0  0  0  0
   41.5350   35.0590   38.4540 P   0  0  0  0  0  0  0  0  0  0  0  0
   40.7960   36.1210   39.5370 O   0  0  0  0  0  0  0  0  0  0  0  0
   39.9920   35.6860   39.9520 H   0  0  0  0  0  0  0  0  0  0  0  0
   42.5800   35.9300   37.4470 O   0  0  0  0  0  0  0  0  0  0  0  0
   42.9950   36.6400   38.0250 H   0  0  0  0  0  0  0  0  0  0  0  0
  1  4  1  0  0  0  0
  1 22  1  0  0  0  0
  2  1  1  0  0  0  0
  3  1  1  0  0  0  0
  4  9  1  0  0  0  0
  5  6  1  0  0  0  0
  5  4  2  0  0  0  0
  6  7  2  0  0  0  0
  7  8  1  0  0  0  0
  8 11  1  0  0  0  0
  9  8  2  0  0  0  0
 10  6  1  0  0  0  0
 12  5  1  0  0  0  0
 13 12  1  0  0  0  0
 14 15  1  0  0  0  0
 14 13  1  0  0  0  0
 16 14  2  0  0  0  0
 17 19  2  0  0  0  0
 17 16  1  0  0  0  0
 18 17  1  0  0  0  0
 19 21  1  0  0  0  0
 20 19  1  0  0  0  0
 21 13  2  0  0  0  0
 22 24  1  0  0  0  0
 22 23  1  0  0  0  0
 25 22  1  0  0  0  0
 25 26  2  0  0  0  0
 26 30  1  0  0  0  0
 27 26  1  0  0  0  0
 28 29  2  0  0  0  0
 28 27  1  0  0  0  0
 29 25  1  0  0  0  0
 31 28  1  0  0  0  0
 32 33  2  0  0  0  0
 33 31  1  0  0  0  0
 33 34  1  0  0  0  0
 34 35  1  0  0  0  0
 36 37  1  0  0  0  0
 36 33  1  0  0  0  0
M  END
>  <minimizedAffinity>
-4.8694787

>  <minimizedRMSD>
0.305523664

$$$$
