REMARK  Name = 
REMARK  3 active torsions:
REMARK  status: ('A' for Active; 'I' for Inactive)
REMARK    1  A    between atoms: C_2  and  C_14
REMARK    2  A    between atoms: C_3  and  S_16
REMARK    3  A    between atoms: S_16  and  C_24
REMARK                            x       y       z     vdW  Elec       q    Type
REMARK                         _______ _______ _______ _____ _____    ______ ____
ROOT
ATOM      1  C   UNL     1      47.462  31.669  44.816  0.00  0.00    +0.000 A 
ATOM      2  C   UNL     1      46.781  32.852  44.539  0.00  0.00    +0.000 A 
ATOM      3  C   UNL     1      45.920  33.437  45.423  0.00  0.00    +0.000 A 
ATOM      4  C   UNL     1      45.680  32.861  46.672  0.00  0.00    +0.000 A 
ATOM      5  N   UNL     1      44.925  33.147  47.757  0.00  0.00    +0.000 N 
ATOM      6  C   UNL     1      45.120  32.179  48.692  0.00  0.00    +0.000 A 
ATOM      7  N   UNL     1      45.997  31.307  48.165  0.00  0.00    +0.000 NA
ATOM      8  C   UNL     1      46.356  31.701  46.929  0.00  0.00    +0.000 A 
ATOM      9  C   UNL     1      47.237  31.073  46.064  0.00  0.00    +0.000 A 
ATOM     10  H   UNL     1      48.137  31.223  44.106  0.00  0.00    +0.000 HD
ATOM     11  H   UNL     1      44.341  34.007  47.726  0.00  0.00    +0.000 HD
ATOM     12  H   UNL     1      44.556  32.317  49.604  0.00  0.00    +0.000 HD
ATOM     13  H   UNL     1      47.745  30.153  46.324  0.00  0.00    +0.000 HD
ENDROOT
BRANCH   2  18
ATOM     14  C   UNL     1      46.388  33.818  41.019  0.00  0.00    +0.000 A 
ATOM     15  C   UNL     1      47.419  34.724  40.818  0.00  0.00    +0.000 A 
ATOM     16  C   UNL     1      48.248  34.999  41.900  0.00  0.00    +0.000 A 
ATOM     17  N   UNL     1      48.027  34.380  43.107  0.00  0.00    +0.000 NA
ATOM     18  C   UNL     1      46.996  33.497  43.246  0.00  0.00    +0.000 A 
ATOM     19  N   UNL     1      46.183  33.216  42.217  0.00  0.00    +0.000 NA
ATOM     20  H   UNL     1      45.767  33.633  40.153  0.00  0.00    +0.000 HD
ATOM     21  H   UNL     1      47.609  35.221  39.877  0.00  0.00    +0.000 HD
ATOM     22  H   UNL     1      49.084  35.687  41.866  0.00  0.00    +0.000 HD
ENDBRANCH   2  18
BRANCH   3  23
ATOM     23  S   UNL     1      45.053  34.959  45.053  0.00  0.00    +0.000 S 
BRANCH  23  24
ATOM     24  C   UNL     1      43.486  34.637  44.262  0.00  0.00    +0.000 A 
ATOM     25  C   UNL     1      42.400  35.494  44.417  0.00  0.00    +0.000 A 
ATOM     26  H   UNL     1      42.491  36.387  45.033  0.00  0.00    +0.000 HD
ATOM     27  C   UNL     1      41.202  35.227  43.800  0.00  0.00    +0.000 A 
ATOM     28  C   UNL     1      41.082  34.101  43.022  0.00  0.00    +0.000 A 
ATOM     29  H   UNL     1      40.141  33.887  42.534  0.00  0.00    +0.000 HD
ATOM     30  C   UNL     1      42.185  33.252  42.878  0.00  0.00    +0.000 A 
ATOM     31  H   UNL     1      42.002  32.377  42.240  0.00  0.00    +0.000 HD
ATOM     32  C   UNL     1      43.396  33.503  43.490  0.00  0.00    +0.000 A 
ENDBRANCH  23  24
ENDBRANCH   3  23
TORSDOF 3
