
 OpenBabel03252509123D

 32 35  0  0  0  0  0  0  0  0999 V2000
   47.3760   32.3880   44.4080 C   0  0  0  0  0  0  0  0  0  0  0  0
   47.8230   33.0450   43.2640 C   0  0  0  0  0  0  0  0  0  0  0  0
   47.2770   34.2160   42.8200 C   0  0  0  0  0  0  0  0  0  0  0  0
   46.2230   34.8180   43.5090 C   0  0  0  0  0  0  0  0  0  0  0  0
   45.4660   35.9300   43.3700 N   0  0  0  0  0  0  0  0  0  0  0  0
   44.5690   35.9780   44.3910 C   0  0  0  0  0  0  0  0  0  0  0  0
   44.7890   34.8880   45.1470 N   0  0  0  0  0  0  0  0  0  0  0  0
   45.7960   34.1610   44.6300 C   0  0  0  0  0  0  0  0  0  0  0  0
   46.3190   32.9740   45.1170 C   0  0  0  0  0  0  0  0  0  0  0  0
   47.8200   31.4660   44.7430 H   0  0  0  0  0  0  0  0  0  0  0  0
   45.6620   36.5490   42.5580 H   0  0  0  0  0  0  0  0  0  0  0  0
   43.9120   36.8360   44.3700 H   0  0  0  0  0  0  0  0  0  0  0  0
   45.9390   32.5000   46.0120 H   0  0  0  0  0  0  0  0  0  0  0  0
   49.7340   30.8370   41.0390 C   0  0  0  0  0  0  0  0  0  0  0  0
   51.0140   31.3690   41.0820 C   0  0  0  0  0  0  0  0  0  0  0  0
   51.2150   32.4890   41.8810 C   0  0  0  0  0  0  0  0  0  0  0  0
   50.1640   33.0240   42.5860 N   0  0  0  0  0  0  0  0  0  0  0  0
   48.9240   32.4590   42.5050 C   0  0  0  0  0  0  0  0  0  0  0  0
   48.7070   31.3780   41.7410 N   0  0  0  0  0  0  0  0  0  0  0  0
   49.6210   29.9670   40.4060 H   0  0  0  0  0  0  0  0  0  0  0  0
   51.8540   30.9630   40.5350 H   0  0  0  0  0  0  0  0  0  0  0  0
   52.1670   32.9920   41.9950 H   0  0  0  0  0  0  0  0  0  0  0  0
   47.8630   35.0500   41.3480 S   0  0  0  0  0  0  0  0  0  0  0  0
   47.3360   34.2030   39.8690 C   0  0  0  0  0  0  0  0  0  0  0  0
   48.1070   34.2080   38.7100 C   0  0  0  0  0  0  0  0  0  0  0  0
   49.0590   34.7350   38.6890 H   0  0  0  0  0  0  0  0  0  0  0  0
   47.6820   33.5490   37.5810 C   0  0  0  0  0  3  0  0  0  0  0  0
   46.4820   32.8810   37.6040 C   0  0  0  0  0  0  0  0  0  0  0  0
   46.1430   32.3620   36.7180 H   0  0  0  0  0  0  0  0  0  0  0  0
   45.7210   32.8870   38.7780 C   0  0  0  0  0  0  0  0  0  0  0  0
   44.7770   32.3310   38.7090 H   0  0  0  0  0  0  0  0  0  0  0  0
   46.1310   33.5440   39.9220 C   0  0  0  0  0  3  0  0  0  0  0  0
  1 10  1  0  0  0  0
  1  9  1  0  0  0  0
  2  1  2  0  0  0  0
  3  2  1  0  0  0  0
  3  4  2  0  0  0  0
  4  8  1  0  0  0  0
  5  4  1  0  0  0  0
  5  6  1  0  0  0  0
  6  7  2  0  0  0  0
  8  9  2  0  0  0  0
  8  7  1  0  0  0  0
  9 13  1  0  0  0  0
 11  5  1  0  0  0  0
 12  6  1  0  0  0  0
 14 15  2  0  0  0  0
 14 19  1  0  0  0  0
 15 16  1  0  0  0  0
 16 22  1  0  0  0  0
 16 17  2  0  0  0  0
 18 17  1  0  0  0  0
 18  2  1  0  0  0  0
 19 18  2  0  0  0  0
 20 14  1  0  0  0  0
 21 15  1  0  0  0  0
 23  3  1  0  0  0  0
 24 32  1  0  0  0  0
 24 23  1  0  0  0  0
 25 24  2  0  0  0  0
 26 25  1  0  0  0  0
 27 28  2  0  0  0  0
 27 25  1  0  0  0  0
 28 30  1  0  0  0  0
 29 28  1  0  0  0  0
 30 32  2  0  0  0  0
 31 30  1  0  0  0  0
M  END
>  <minimizedAffinity>
-5.15494871

>  <minimizedRMSD>
4.87565327

$$$$
