
 OpenBabel03252507463D

 37 39  0  0  0  0  0  0  0  0999 V2000
   46.9520   34.3320   40.9540 C   0  0  0  0  0  0  0  0  0  0  0  0
   47.0870   35.1170   40.1550 H   0  0  0  0  0  0  0  0  0  0  0  0
   46.3950   33.4830   40.5600 H   0  0  0  0  0  0  0  0  0  0  0  0
   48.3140   33.9780   41.3930 C   0  0  0  0  0  0  0  0  0  0  0  0
   48.7830   32.7380   40.9950 C   0  0  0  0  0  0  0  0  0  0  0  0
   50.0620   32.3200   41.3640 C   0  0  0  0  0  0  0  0  0  0  0  0
   50.8080   33.1830   42.1230 N   0  0  0  0  0  0  0  0  0  0  0  0
   50.3070   34.3970   42.4930 C   0  0  0  0  0  0  0  0  0  0  0  0
   49.0870   34.7640   42.1250 N   0  0  0  0  0  0  0  0  0  0  0  0
   50.4720   31.3570   41.0760 H   0  0  0  0  0  0  0  0  0  0  0  0
   50.9010   35.0750   43.0930 H   0  0  0  0  0  0  0  0  0  0  0  0
   47.7690   31.6430   40.0020 S   0  0  0  0  0  0  0  0  0  0  0  0
   48.0280   32.0640   38.2930 C   0  0  0  0  0  0  0  0  0  0  0  0
   47.7620   31.1690   37.3020 C   0  0  0  0  0  0  0  0  0  0  0  0
   47.3820   30.1690   37.5460 H   0  0  0  0  0  0  0  0  0  0  0  0
   47.9460   31.4520   35.9810 C   0  0  0  0  0  3  0  0  0  0  0  0
   48.4230   32.6920   35.5770 C   0  0  0  0  0  0  0  0  0  0  0  0
   48.5780   32.9440   34.5390 H   0  0  0  0  0  0  0  0  0  0  0  0
   48.6990   33.6200   36.5620 C   0  0  0  0  0  0  0  0  0  0  0  0
   49.0710   34.5860   36.2600 H   0  0  0  0  0  0  0  0  0  0  0  0
   48.4990   33.2900   37.8840 C   0  0  0  0  0  3  0  0  0  0  0  0
   46.1310   34.9790   42.0230 C   0  0  0  0  0  0  0  0  0  0  0  0
   46.2680   34.3740   42.9660 H   0  0  0  0  0  0  0  0  0  0  0  0
   46.4730   35.9990   42.3010 H   0  0  0  0  0  0  0  0  0  0  0  0
   44.6650   34.9590   41.7550 C   0  0  0  0  0  0  0  0  0  0  0  0
   43.7650   35.4590   42.7400 C   0  0  0  0  0  0  0  0  0  0  0  0
   42.1220   35.2220   41.9600 S   0  0  0  0  0  0  0  0  0  0  0  0
   42.9430   34.4750   40.4090 C   0  0  0  0  0  0  0  0  0  0  0  0
   44.0470   34.5280   40.6930 N   0  0  0  0  0  0  0  0  0  0  0  0
   44.0220   35.8760   43.7140 H   0  0  0  0  0  0  0  0  0  0  0  0
   42.2130   34.0320   39.3030 O   0  0  0  0  0  0  0  0  0  0  0  0
   40.3270   34.5740   37.5230 O   0  0  0  0  0  0  0  0  0  0  0  0
   41.4250   35.2160   38.3690 P   0  0  0  0  0  0  0  0  0  0  0  0
   40.7400   36.3420   39.4210 O   0  0  0  0  0  0  0  0  0  0  0  0
   39.8960   35.9720   39.8210 H   0  0  0  0  0  0  0  0  0  0  0  0
   42.5550   35.9960   37.3790 O   0  0  0  0  0  0  0  0  0  0  0  0
   43.0060   36.6820   37.9580 H   0  0  0  0  0  0  0  0  0  0  0  0
  1  4  1  0  0  0  0
  1 22  1  0  0  0  0
  2  1  1  0  0  0  0
  3  1  1  0  0  0  0
  4  9  1  0  0  0  0
  5  6  1  0  0  0  0
  5  4  2  0  0  0  0
  6  7  2  0  0  0  0
  7  8  1  0  0  0  0
  8 11  1  0  0  0  0
  9  8  2  0  0  0  0
 10  6  1  0  0  0  0
 12  5  1  0  0  0  0
 13 12  1  0  0  0  0
 14 15  1  0  0  0  0
 14 13  2  0  0  0  0
 16 14  1  0  0  0  0
 17 16  2  0  0  0  0
 17 19  1  0  0  0  0
 18 17  1  0  0  0  0
 19 21  2  0  0  0  0
 20 19  1  0  0  0  0
 21 13  1  0  0  0  0
 22 24  1  0  0  0  0
 22 23  1  0  0  0  0
 25 22  1  0  0  0  0
 25 26  2  0  0  0  0
 26 30  1  0  0  0  0
 27 26  1  0  0  0  0
 28 29  2  0  0  0  0
 28 27  1  0  0  0  0
 29 25  1  0  0  0  0
 31 28  1  0  0  0  0
 32 33  2  0  0  0  0
 33 31  1  0  0  0  0
 33 34  1  0  0  0  0
 34 35  1  0  0  0  0
 36 37  1  0  0  0  0
 36 33  1  0  0  0  0
M  END
>  <minimizedAffinity>
-4.90563202

>  <minimizedRMSD>
0.388404071

$$$$
