
 OpenBabel03252507103D

 36 38  0  0  1  0  0  0  0  0999 V2000
   39.3230   33.4720   39.7550 C   0  0  0  0  0  0  0  0  0  0  0  0
   38.0620   32.8970   39.5100 C   0  0  0  0  0  0  0  0  0  0  0  0
   37.9830   31.9760   38.4690 C   0  0  0  0  0  0  0  0  0  0  0  0
   39.0860   31.6840   37.7630 N   0  0  0  0  0  0  0  0  0  0  0  0
   40.2750   32.2390   38.0100 C   0  0  0  0  0  0  0  0  0  0  0  0
   40.3940   33.1420   39.0170 N   0  0  0  0  0  0  0  0  0  0  0  0
   39.3470   34.1870   40.5760 H   0  0  0  0  0  0  0  0  0  0  0  0
   37.1940   33.1430   40.0850 H   0  0  0  0  0  0  0  0  0  0  0  0
   42.6040   32.9790   37.4290 C   0  0  1  0  0  0  0  0  0  0  0  0
   41.5090   31.9680   37.2680 C   0  0  1  0  0  0  0  0  0  0  0  0
   42.2300   30.7450   37.8780 C   0  0  0  0  0  0  0  0  0  0  0  0
   43.5640   30.9070   37.6470 O   0  0  0  0  0  0  0  0  0  0  0  0
   43.7820   32.1130   36.9790 C   0  0  0  0  0  0  0  0  0  0  0  0
   42.7800   33.1680   38.5170 H   0  0  0  0  0  0  0  0  0  0  0  0
   41.3480   31.7840   36.1780 H   0  0  0  0  0  0  0  0  0  0  0  0
   41.8770   29.8800   37.2690 H   0  0  0  0  0  0  0  0  0  0  0  0
   41.9290   30.5730   38.9210 H   0  0  0  0  0  0  0  0  0  0  0  0
   44.7550   32.5210   37.3260 H   0  0  0  0  0  0  0  0  0  0  0  0
   43.7820   31.9430   35.8940 H   0  0  0  0  0  0  0  0  0  0  0  0
   42.4390   34.1210   36.6990 O   0  0  0  0  0  0  0  0  0  0  0  0
   42.5370   34.8900   37.3290 H   0  0  0  0  0  0  0  0  0  0  0  0
   36.7360   31.4150   38.2370 O   0  0  0  0  0  0  0  0  0  0  0  0
   35.1700   29.2720   38.0590 O   0  0  0  0  0  0  0  0  0  0  0  0
   36.4030   29.8190   38.7870 P   0  0  1  0  0  0  0  0  0  0  0  0
   37.7390   28.8750   38.5010 O   0  0  0  0  0  0  0  0  0  0  0  0
   37.4870   28.0790   37.9370 H   0  0  0  0  0  0  0  0  0  0  0  0
   36.0530   29.9440   40.4290 O   0  0  0  0  0  0  0  0  0  0  0  0
   36.7250   29.3300   41.4520 C   0  0  0  0  0  0  0  0  0  0  0  0
   37.8230   29.8310   42.1190 C   0  0  0  0  0  0  0  0  0  0  0  0
   38.1930   30.7990   41.8140 H   0  0  0  0  0  0  0  0  0  0  0  0
   38.4680   29.1710   43.1470 C   0  0  0  0  0  3  0  0  0  0  0  0
   37.9930   27.9300   43.5360 C   0  0  0  0  0  0  0  0  0  0  0  0
   38.5190   27.4470   44.3380 H   0  0  0  0  0  0  0  0  0  0  0  0
   36.8950   27.3790   42.9000 C   0  0  0  0  0  0  0  0  0  0  0  0
   36.5910   26.4200   43.2600 H   0  0  0  0  0  0  0  0  0  0  0  0
   36.2800   28.0860   41.8710 C   0  0  0  0  0  3  0  0  0  0  0  0
  1  7  1  0  0  0  0
  2  1  1  0  0  0  0
  2  8  1  0  0  0  0
  3  2  2  0  0  0  0
  4  5  2  0  0  0  0
  4  3  1  0  0  0  0
  5  6  1  0  0  0  0
  6  1  2  0  0  0  0
  9 14  1  1  0  0  0
 10 15  1  6  0  0  0
 10  9  1  0  0  0  0
 10 11  1  0  0  0  0
 10  5  1  0  0  0  0
 11 17  1  0  0  0  0
 12 11  1  0  0  0  0
 13 18  1  0  0  0  0
 13  9  1  0  0  0  0
 13 12  1  0  0  0  0
 16 11  1  0  0  0  0
 19 13  1  0  0  0  0
 20 21  1  0  0  0  0
 20  9  1  0  0  0  0
 22  3  1  0  0  0  0
 22 24  1  0  0  0  0
 24 23  2  6  0  0  0
 24 27  1  0  0  0  0
 25 24  1  0  0  0  0
 26 25  1  0  0  0  0
 27 28  1  0  0  0  0
 28 36  2  0  0  0  0
 28 29  1  0  0  0  0
 29 31  2  0  0  0  0
 30 29  1  0  0  0  0
 31 32  1  0  0  0  0
 32 33  1  0  0  0  0
 34 35  1  0  0  0  0
 34 32  2  0  0  0  0
 36 34  1  0  0  0  0
M  END
>  <minimizedAffinity>
-5.83915377

$$$$

 OpenBabel03252507103D

 36 38  0  0  1  0  0  0  0  0999 V2000
   40.4480   28.8340   37.8510 C   0  0  0  0  0  0  0  0  0  0  0  0
   39.1640   28.8570   38.4270 C   0  0  0  0  0  0  0  0  0  0  0  0
   38.5910   30.1080   38.6380 C   0  0  0  0  0  0  0  0  0  0  0  0
   39.2730   31.2110   38.2900 N   0  0  0  0  0  0  0  0  0  0  0  0
   40.4910   31.1700   37.7440 C   0  0  0  0  0  0  0  0  0  0  0  0
   41.0830   29.9690   37.5220 N   0  0  0  0  0  0  0  0  0  0  0  0
   40.8640   27.8390   37.7010 H   0  0  0  0  0  0  0  0  0  0  0  0
   38.6370   27.9660   38.6970 H   0  0  0  0  0  0  0  0  0  0  0  0
   41.6060   33.3060   38.4540 C   0  0  1  0  0  0  0  0  0  0  0  0
   41.2850   32.3380   37.3550 C   0  0  1  0  0  0  0  0  0  0  0  0
   42.7240   31.9000   37.0030 C   0  0  0  0  0  0  0  0  0  0  0  0
   43.5460   32.9530   37.2810 O   0  0  0  0  0  0  0  0  0  0  0  0
   42.7950   34.0100   37.7980 C   0  0  0  0  0  0  0  0  0  0  0  0
   42.0390   32.7520   39.3240 H   0  0  0  0  0  0  0  0  0  0  0  0
   40.8600   32.9050   36.4910 H   0  0  0  0  0  0  0  0  0  0  0  0
   42.7100   31.7560   35.8970 H   0  0  0  0  0  0  0  0  0  0  0  0
   42.9830   30.9390   37.4680 H   0  0  0  0  0  0  0  0  0  0  0  0
   43.4270   34.5410   38.5420 H   0  0  0  0  0  0  0  0  0  0  0  0
   42.4850   34.6790   36.9840 H   0  0  0  0  0  0  0  0  0  0  0  0
   40.5820   34.1410   38.7970 O   0  0  0  0  0  0  0  0  0  0  0  0
   40.4670   34.0750   39.7870 H   0  0  0  0  0  0  0  0  0  0  0  0
   37.3260   30.1180   39.2040 O   0  0  0  0  0  0  0  0  0  0  0  0
   37.1400   32.5890   40.1730 O   0  0  0  0  0  0  0  0  0  0  0  0
   37.0120   31.1160   40.5720 P   0  0  1  0  0  0  0  0  0  0  0  0
   35.4870   30.7730   41.1310 O   0  0  0  0  0  0  0  0  0  0  0  0
   34.9290   31.6120   41.1550 H   0  0  0  0  0  0  0  0  0  0  0  0
   38.2010   30.7540   41.7080 O   0  0  0  0  0  0  0  0  0  0  0  0
   38.3620   29.5630   42.3640 C   0  0  0  0  0  0  0  0  0  0  0  0
   37.3790   28.8630   43.0300 C   0  0  0  0  0  0  0  0  0  0  0  0
   36.3850   29.2870   43.0400 H   0  0  0  0  0  0  0  0  0  0  0  0
   37.5920   27.6630   43.6800 C   0  0  0  0  0  3  0  0  0  0  0  0
   38.8670   27.1220   43.6670 C   0  0  0  0  0  0  0  0  0  0  0  0
   38.9940   26.1880   44.1810 H   0  0  0  0  0  0  0  0  0  0  0  0
   39.8920   27.7820   43.0140 C   0  0  0  0  0  0  0  0  0  0  0  0
   40.8440   27.2990   43.0500 H   0  0  0  0  0  0  0  0  0  0  0  0
   39.6240   28.9890   42.3740 C   0  0  0  0  0  3  0  0  0  0  0  0
  1  2  1  0  0  0  0
  2  3  2  0  0  0  0
  2  8  1  0  0  0  0
  3 22  1  0  0  0  0
  4  3  1  0  0  0  0
  5  4  2  0  0  0  0
  6  5  1  0  0  0  0
  6  1  2  0  0  0  0
  7  1  1  0  0  0  0
  9 20  1  0  0  0  0
  9 14  1  1  0  0  0
 10 15  1  6  0  0  0
 10  5  1  0  0  0  0
 10  9  1  0  0  0  0
 11 12  1  0  0  0  0
 11 10  1  0  0  0  0
 11 17  1  0  0  0  0
 12 13  1  0  0  0  0
 13  9  1  0  0  0  0
 13 18  1  0  0  0  0
 16 11  1  0  0  0  0
 19 13  1  0  0  0  0
 20 21  1  0  0  0  0
 22 24  1  0  0  0  0
 24 23  2  6  0  0  0
 24 25  1  0  0  0  0
 24 27  1  0  0  0  0
 25 26  1  0  0  0  0
 27 28  1  0  0  0  0
 28 36  2  0  0  0  0
 28 29  1  0  0  0  0
 29 30  1  0  0  0  0
 29 31  2  0  0  0  0
 32 31  1  0  0  0  0
 32 33  1  0  0  0  0
 34 35  1  0  0  0  0
 34 32  2  0  0  0  0
 36 34  1  0  0  0  0
M  END
>  <minimizedAffinity>
-5.78546095

$$$$

 OpenBabel03252507103D

 36 38  0  0  1  0  0  0  0  0999 V2000
   37.5200   28.2310   43.6300 C   0  0  0  0  0  0  0  0  0  0  0  0
   38.7430   27.5350   43.6780 C   0  0  0  0  0  0  0  0  0  0  0  0
   39.5920   27.6810   42.5850 C   0  0  0  0  0  0  0  0  0  0  0  0
   39.2160   28.4590   41.5580 N   0  0  0  0  0  0  0  0  0  0  0  0
   38.0520   29.1120   41.5300 C   0  0  0  0  0  0  0  0  0  0  0  0
   37.1950   28.9960   42.5770 N   0  0  0  0  0  0  0  0  0  0  0  0
   36.8820   28.0940   44.5020 H   0  0  0  0  0  0  0  0  0  0  0  0
   39.0240   26.9200   44.5070 H   0  0  0  0  0  0  0  0  0  0  0  0
   36.8480   31.2070   40.8410 C   0  0  1  0  0  0  0  0  0  0  0  0
   37.5840   29.9650   40.4340 C   0  0  1  0  0  0  0  0  0  0  0  0
   38.7900   30.6290   39.7340 C   0  0  0  0  0  0  0  0  0  0  0  0
   38.3570   31.8190   39.2260 O   0  0  0  0  0  0  0  0  0  0  0  0
   37.0120   32.0040   39.5460 C   0  0  0  0  0  0  0  0  0  0  0  0
   37.4480   31.7620   41.6040 H   0  0  0  0  0  0  0  0  0  0  0  0
   36.9770   29.4240   39.6680 H   0  0  0  0  0  0  0  0  0  0  0  0
   39.0240   29.9530   38.8790 H   0  0  0  0  0  0  0  0  0  0  0  0
   39.6720   30.6660   40.3890 H   0  0  0  0  0  0  0  0  0  0  0  0
   36.8480   33.0920   39.7030 H   0  0  0  0  0  0  0  0  0  0  0  0
   36.3800   31.6150   38.7360 H   0  0  0  0  0  0  0  0  0  0  0  0
   35.5500   31.0050   41.2130 O   0  0  0  0  0  0  0  0  0  0  0  0
   35.4290   31.4350   42.1070 H   0  0  0  0  0  0  0  0  0  0  0  0
   40.7940   26.9930   42.6430 O   0  0  0  0  0  0  0  0  0  0  0  0
   41.1070   25.3780   40.5530 O   0  0  0  0  0  0  0  0  0  0  0  0
   40.8790   25.3730   42.0670 P   0  0  1  0  0  0  0  0  0  0  0  0
   42.1150   24.5980   42.8600 O   0  0  0  0  0  0  0  0  0  0  0  0
   42.7730   24.2240   42.1960 H   0  0  0  0  0  0  0  0  0  0  0  0
   39.3810   24.6740   42.3890 O   0  0  0  0  0  0  0  0  0  0  0  0
   38.4600   24.2660   41.4630 C   0  0  0  0  0  0  0  0  0  0  0  0
   38.3820   23.0130   40.8910 C   0  0  0  0  0  0  0  0  0  0  0  0
   39.1120   22.2790   41.1990 H   0  0  0  0  0  0  0  0  0  0  0  0
   37.4310   22.6490   39.9570 C   0  0  0  0  0  3  0  0  0  0  0  0
   36.4960   23.5920   39.5640 C   0  0  0  0  0  0  0  0  0  0  0  0
   35.7730   23.2720   38.8380 H   0  0  0  0  0  0  0  0  0  0  0  0
   36.5280   24.8640   40.1040 C   0  0  0  0  0  0  0  0  0  0  0  0
   35.7730   25.5310   39.7500 H   0  0  0  0  0  0  0  0  0  0  0  0
   37.5070   25.1800   41.0430 C   0  0  0  0  0  3  0  0  0  0  0  0
  1  2  1  0  0  0  0
  1  7  1  0  0  0  0
  2  8  1  0  0  0  0
  3 22  1  0  0  0  0
  3  2  2  0  0  0  0
  4  3  1  0  0  0  0
  5  4  2  0  0  0  0
  5  6  1  0  0  0  0
  6  1  2  0  0  0  0
  9 20  1  0  0  0  0
  9 14  1  1  0  0  0
 10 15  1  6  0  0  0
 10  9  1  0  0  0  0
 10  5  1  0  0  0  0
 11 17  1  0  0  0  0
 11 10  1  0  0  0  0
 12 13  1  0  0  0  0
 12 11  1  0  0  0  0
 13 18  1  0  0  0  0
 13  9  1  0  0  0  0
 16 11  1  0  0  0  0
 19 13  1  0  0  0  0
 20 21  1  0  0  0  0
 24 23  2  6  0  0  0
 24 27  1  0  0  0  0
 24 22  1  0  0  0  0
 24 25  1  0  0  0  0
 26 25  1  0  0  0  0
 28 27  1  0  0  0  0
 29 30  1  0  0  0  0
 29 28  2  0  0  0  0
 31 29  1  0  0  0  0
 32 31  2  0  0  0  0
 32 34  1  0  0  0  0
 33 32  1  0  0  0  0
 34 36  2  0  0  0  0
 35 34  1  0  0  0  0
 36 28  1  0  0  0  0
M  END
>  <minimizedAffinity>
-5.74791956

$$$$

 OpenBabel03252507103D

 36 38  0  0  1  0  0  0  0  0999 V2000
   37.6360   30.9700   37.2900 C   0  0  0  0  0  0  0  0  0  0  0  0
   37.3880   29.9290   38.2050 C   0  0  0  0  0  0  0  0  0  0  0  0
   38.1490   29.9210   39.3700 C   0  0  0  0  0  0  0  0  0  0  0  0
   39.0640   30.8840   39.5650 N   0  0  0  0  0  0  0  0  0  0  0  0
   39.2860   31.8640   38.6860 C   0  0  0  0  0  0  0  0  0  0  0  0
   38.5630   31.9070   37.5370 N   0  0  0  0  0  0  0  0  0  0  0  0
   37.0220   30.9440   36.3910 H   0  0  0  0  0  0  0  0  0  0  0  0
   36.6530   29.1710   38.0310 H   0  0  0  0  0  0  0  0  0  0  0  0
   41.2430   32.7720   39.9740 C   0  0  1  0  0  0  0  0  0  0  0  0
   40.2760   32.9330   38.8390 C   0  0  1  0  0  0  0  0  0  0  0  0
   41.2830   32.8890   37.6680 C   0  0  0  0  0  0  0  0  0  0  0  0
   42.4640   33.3870   38.1330 O   0  0  0  0  0  0  0  0  0  0  0  0
   42.3340   33.7230   39.4810 C   0  0  0  0  0  0  0  0  0  0  0  0
   41.7010   31.7530   39.9300 H   0  0  0  0  0  0  0  0  0  0  0  0
   39.8300   33.9570   38.8910 H   0  0  0  0  0  0  0  0  0  0  0  0
   40.8750   33.6080   36.9210 H   0  0  0  0  0  0  0  0  0  0  0  0
   41.3190   31.8950   37.2000 H   0  0  0  0  0  0  0  0  0  0  0  0
   43.3110   33.5270   39.9740 H   0  0  0  0  0  0  0  0  0  0  0  0
   42.0410   34.7770   39.5750 H   0  0  0  0  0  0  0  0  0  0  0  0
   40.7390   33.0880   41.2030 O   0  0  0  0  0  0  0  0  0  0  0  0
   40.9220   32.3130   41.8050 H   0  0  0  0  0  0  0  0  0  0  0  0
   37.8960   28.8930   40.2640 O   0  0  0  0  0  0  0  0  0  0  0  0
   38.2390   29.9540   42.6790 O   0  0  0  0  0  0  0  0  0  0  0  0
   37.2030   29.2470   41.7990 P   0  0  1  0  0  0  0  0  0  0  0  0
   35.8640   30.1990   41.5640 O   0  0  0  0  0  0  0  0  0  0  0  0
   35.9510   31.0570   42.0850 H   0  0  0  0  0  0  0  0  0  0  0  0
   36.8150   27.7660   42.5000 O   0  0  0  0  0  0  0  0  0  0  0  0
   37.6500   26.6910   42.6420 C   0  0  0  0  0  0  0  0  0  0  0  0
   38.8900   26.7000   43.2460 C   0  0  0  0  0  0  0  0  0  0  0  0
   39.2420   27.6390   43.6470 H   0  0  0  0  0  0  0  0  0  0  0  0
   39.6980   25.5860   43.3650 C   0  0  0  0  0  3  0  0  0  0  0  0
   39.2450   24.3830   42.8500 C   0  0  0  0  0  0  0  0  0  0  0  0
   39.9000   23.5400   42.9610 H   0  0  0  0  0  0  0  0  0  0  0  0
   38.0100   24.3170   42.2330 C   0  0  0  0  0  0  0  0  0  0  0  0
   37.7340   23.3530   41.8620 H   0  0  0  0  0  0  0  0  0  0  0  0
   37.2340   25.4690   42.1390 C   0  0  0  0  0  3  0  0  0  0  0  0
  1  6  2  0  0  0  0
  1  2  1  0  0  0  0
  2  3  2  0  0  0  0
  3  4  1  0  0  0  0
  3 22  1  0  0  0  0
  5 10  1  0  0  0  0
  5  4  2  0  0  0  0
  6  5  1  0  0  0  0
  7  1  1  0  0  0  0
  8  2  1  0  0  0  0
  9 14  1  1  0  0  0
  9 20  1  0  0  0  0
 10 15  1  1  0  0  0
 10  9  1  0  0  0  0
 11 12  1  0  0  0  0
 11 10  1  0  0  0  0
 12 13  1  0  0  0  0
 13 19  1  0  0  0  0
 13 18  1  0  0  0  0
 13  9  1  0  0  0  0
 16 11  1  0  0  0  0
 17 11  1  0  0  0  0
 20 21  1  0  0  0  0
 22 24  1  0  0  0  0
 24 27  1  0  0  0  0
 24 23  2  1  0  0  0
 25 24  1  0  0  0  0
 25 26  1  0  0  0  0
 27 28  1  0  0  0  0
 28 29  1  0  0  0  0
 29 31  2  0  0  0  0
 29 30  1  0  0  0  0
 32 33  1  0  0  0  0
 32 31  1  0  0  0  0
 34 32  2  0  0  0  0
 35 34  1  0  0  0  0
 36 34  1  0  0  0  0
 36 28  2  0  0  0  0
M  END
>  <minimizedAffinity>
-5.68331766

$$$$

 OpenBabel03252507103D

 36 38  0  0  1  0  0  0  0  0999 V2000
   36.9360   30.4430   37.8610 C   0  0  0  0  0  0  0  0  0  0  0  0
   36.3960   29.7810   38.9800 C   0  0  0  0  0  0  0  0  0  0  0  0
   36.7830   30.2470   40.2330 C   0  0  0  0  0  0  0  0  0  0  0  0
   37.6340   31.2810   40.3170 N   0  0  0  0  0  0  0  0  0  0  0  0
   38.1370   31.8970   39.2440 C   0  0  0  0  0  0  0  0  0  0  0  0
   37.7830   31.4730   38.0040 N   0  0  0  0  0  0  0  0  0  0  0  0
   36.6100   30.0520   36.8980 H   0  0  0  0  0  0  0  0  0  0  0  0
   35.7180   28.9580   38.8920 H   0  0  0  0  0  0  0  0  0  0  0  0
   39.6230   33.3810   40.6220 C   0  0  1  0  0  0  0  0  0  0  0  0
   39.0750   33.0220   39.2740 C   0  0  1  0  0  0  0  0  0  0  0  0
   40.3980   32.6200   38.5840 C   0  0  0  0  0  0  0  0  0  0  0  0
   41.3930   33.3520   39.1630 O   0  0  0  0  0  0  0  0  0  0  0  0
   40.8580   34.1610   40.1660 C   0  0  0  0  0  0  0  0  0  0  0  0
   40.0250   32.4620   41.1180 H   0  0  0  0  0  0  0  0  0  0  0  0
   38.6830   33.9490   38.7880 H   0  0  0  0  0  0  0  0  0  0  0  0
   40.2810   32.9680   37.5310 H   0  0  0  0  0  0  0  0  0  0  0  0
   40.5350   31.5300   38.5690 H   0  0  0  0  0  0  0  0  0  0  0  0
   41.6170   34.2470   40.9730 H   0  0  0  0  0  0  0  0  0  0  0  0
   40.5980   35.1450   39.7530 H   0  0  0  0  0  0  0  0  0  0  0  0
   38.7710   34.0960   41.4140 O   0  0  0  0  0  0  0  0  0  0  0  0
   38.7180   33.6240   42.2920 H   0  0  0  0  0  0  0  0  0  0  0  0
   36.2450   29.5890   41.3280 O   0  0  0  0  0  0  0  0  0  0  0  0
   38.3660   29.6700   42.9310 O   0  0  0  0  0  0  0  0  0  0  0  0
   37.2800   28.7290   42.4010 P   0  0  1  0  0  0  0  0  0  0  0  0
   36.3590   28.1140   43.6390 O   0  0  0  0  0  0  0  0  0  0  0  0
   36.7130   28.4340   44.5260 H   0  0  0  0  0  0  0  0  0  0  0  0
   38.0080   27.5150   41.4890 O   0  0  0  0  0  0  0  0  0  0  0  0
   37.3920   26.4080   40.9700 C   0  0  0  0  0  0  0  0  0  0  0  0
   36.8250   26.3060   39.7170 C   0  0  0  0  0  0  0  0  0  0  0  0
   36.8680   27.1760   39.0790 H   0  0  0  0  0  0  0  0  0  0  0  0
   36.2120   25.1640   39.2380 C   0  0  0  0  0  3  0  0  0  0  0  0
   36.1580   24.0500   40.0590 C   0  0  0  0  0  0  0  0  0  0  0  0
   35.6750   23.1820   39.6530 H   0  0  0  0  0  0  0  0  0  0  0  0
   36.7090   24.0970   41.3260 C   0  0  0  0  0  0  0  0  0  0  0  0
   36.6260   23.1970   41.8960 H   0  0  0  0  0  0  0  0  0  0  0  0
   37.3160   25.2720   41.7600 C   0  0  0  0  0  3  0  0  0  0  0  0
  1  6  2  0  0  0  0
  1  2  1  0  0  0  0
  2  3  2  0  0  0  0
  3  4  1  0  0  0  0
  3 22  1  0  0  0  0
  5 10  1  0  0  0  0
  5  4  2  0  0  0  0
  6  5  1  0  0  0  0
  7  1  1  0  0  0  0
  8  2  1  0  0  0  0
  9 14  1  1  0  0  0
  9 20  1  0  0  0  0
 10 15  1  6  0  0  0
 10  9  1  0  0  0  0
 11 12  1  0  0  0  0
 11 10  1  0  0  0  0
 12 13  1  0  0  0  0
 13  9  1  0  0  0  0
 13 18  1  0  0  0  0
 16 11  1  0  0  0  0
 17 11  1  0  0  0  0
 19 13  1  0  0  0  0
 20 21  1  0  0  0  0
 22 24  1  0  0  0  0
 24 23  2  1  0  0  0
 24 25  1  0  0  0  0
 25 26  1  0  0  0  0
 27 24  1  0  0  0  0
 28 27  1  0  0  0  0
 28 36  1  0  0  0  0
 29 28  2  0  0  0  0
 30 29  1  0  0  0  0
 31 29  1  0  0  0  0
 31 32  2  0  0  0  0
 32 34  1  0  0  0  0
 33 32  1  0  0  0  0
 34 36  2  0  0  0  0
 34 35  1  0  0  0  0
M  END
>  <minimizedAffinity>
-5.64053583

$$$$

 OpenBabel03252507103D

 36 38  0  0  1  0  0  0  0  0999 V2000
   39.2030   33.7180   39.9580 C   0  0  0  0  0  0  0  0  0  0  0  0
   38.1660   32.7670   40.0120 C   0  0  0  0  0  0  0  0  0  0  0  0
   38.4110   31.5370   39.4090 C   0  0  0  0  0  0  0  0  0  0  0  0
   39.5950   31.3170   38.8160 N   0  0  0  0  0  0  0  0  0  0  0  0
   40.5670   32.2310   38.7750 C   0  0  0  0  0  0  0  0  0  0  0  0
   40.3680   33.4440   39.3530 N   0  0  0  0  0  0  0  0  0  0  0  0
   38.9760   34.6680   40.4400 H   0  0  0  0  0  0  0  0  0  0  0  0
   37.2290   32.9610   40.4890 H   0  0  0  0  0  0  0  0  0  0  0  0
   42.6400   33.3100   37.8540 C   0  0  1  0  0  0  0  0  0  0  0  0
   41.8730   32.0530   38.1360 C   0  0  1  0  0  0  0  0  0  0  0  0
   42.8590   31.3970   39.1290 C   0  0  0  0  0  0  0  0  0  0  0  0
   44.1110   31.8220   38.7950 O   0  0  0  0  0  0  0  0  0  0  0  0
   44.0360   32.6990   37.7120 C   0  0  0  0  0  0  0  0  0  0  0  0
   42.6880   33.9340   38.7810 H   0  0  0  0  0  0  0  0  0  0  0  0
   41.8400   31.4370   37.2040 H   0  0  0  0  0  0  0  0  0  0  0  0
   42.7940   30.3070   38.9090 H   0  0  0  0  0  0  0  0  0  0  0  0
   42.5490   31.5530   40.1730 H   0  0  0  0  0  0  0  0  0  0  0  0
   44.8370   33.4590   37.8350 H   0  0  0  0  0  0  0  0  0  0  0  0
   44.1520   32.1410   36.7730 H   0  0  0  0  0  0  0  0  0  0  0  0
   42.2190   34.0020   36.7550 O   0  0  0  0  0  0  0  0  0  0  0  0
   42.0640   34.9460   37.0430 H   0  0  0  0  0  0  0  0  0  0  0  0
   37.3840   30.6070   39.4680 O   0  0  0  0  0  0  0  0  0  0  0  0
   37.9530   30.0750   42.0120 O   0  0  0  0  0  0  0  0  0  0  0  0
   36.8050   30.0710   40.9980 P   0  0  1  0  0  0  0  0  0  0  0  0
   35.5750   31.0780   41.4760 O   0  0  0  0  0  0  0  0  0  0  0  0
   35.7840   31.4770   42.3770 H   0  0  0  0  0  0  0  0  0  0  0  0
   36.2790   28.4860   40.7790 O   0  0  0  0  0  0  0  0  0  0  0  0
   37.0380   27.3540   40.9060 C   0  0  0  0  0  0  0  0  0  0  0  0
   37.0430   26.4970   41.9870 C   0  0  0  0  0  0  0  0  0  0  0  0
   36.3900   26.7340   42.8140 H   0  0  0  0  0  0  0  0  0  0  0  0
   37.8300   25.3640   42.0690 C   0  0  0  0  0  3  0  0  0  0  0  0
   38.6670   25.0630   41.0080 C   0  0  0  0  0  0  0  0  0  0  0  0
   39.2620   24.1750   41.1070 H   0  0  0  0  0  0  0  0  0  0  0  0
   38.7030   25.8880   39.8990 C   0  0  0  0  0  0  0  0  0  0  0  0
   39.3730   25.5860   39.1240 H   0  0  0  0  0  0  0  0  0  0  0  0
   37.8890   27.0180   39.8660 C   0  0  0  0  0  3  0  0  0  0  0  0
  1  2  1  0  0  0  0
  1  7  1  0  0  0  0
  2  8  1  0  0  0  0
  3 22  1  0  0  0  0
  3  2  2  0  0  0  0
  4  3  1  0  0  0  0
  5  4  2  0  0  0  0
  5  6  1  0  0  0  0
  6  1  2  0  0  0  0
  9 10  1  0  0  0  0
  9 14  1  1  0  0  0
 10 15  1  6  0  0  0
 10  5  1  0  0  0  0
 10 11  1  0  0  0  0
 11 17  1  0  0  0  0
 12 11  1  0  0  0  0
 13 18  1  0  0  0  0
 13  9  1  0  0  0  0
 13 12  1  0  0  0  0
 16 11  1  0  0  0  0
 19 13  1  0  0  0  0
 20 21  1  0  0  0  0
 20  9  1  0  0  0  0
 22 24  1  0  0  0  0
 24 25  1  0  0  0  0
 24 23  2  1  0  0  0
 25 26  1  0  0  0  0
 27 28  1  0  0  0  0
 27 24  1  0  0  0  0
 28 29  1  0  0  0  0
 29 31  2  0  0  0  0
 29 30  1  0  0  0  0
 32 33  1  0  0  0  0
 32 31  1  0  0  0  0
 34 32  2  0  0  0  0
 35 34  1  0  0  0  0
 36 34  1  0  0  0  0
 36 28  2  0  0  0  0
M  END
>  <minimizedAffinity>
-5.59894037

$$$$

 OpenBabel03252507103D

 36 38  0  0  1  0  0  0  0  0999 V2000
   37.5580   31.5560   38.0020 C   0  0  0  0  0  0  0  0  0  0  0  0
   37.3340   31.4030   39.3840 C   0  0  0  0  0  0  0  0  0  0  0  0
   36.5810   30.3020   39.7800 C   0  0  0  0  0  0  0  0  0  0  0  0
   36.1130   29.4550   38.8500 N   0  0  0  0  0  0  0  0  0  0  0  0
   36.3350   29.6150   37.5430 C   0  0  0  0  0  0  0  0  0  0  0  0
   37.0660   30.6770   37.1160 N   0  0  0  0  0  0  0  0  0  0  0  0
   38.1510   32.4280   37.7290 H   0  0  0  0  0  0  0  0  0  0  0  0
   37.7160   32.0900   40.1090 H   0  0  0  0  0  0  0  0  0  0  0  0
   36.8930   27.9960   35.7050 C   0  0  1  0  0  0  0  0  0  0  0  0
   35.8430   28.7320   36.4830 C   0  0  1  0  0  0  0  0  0  0  0  0
   35.1210   27.5160   37.1070 C   0  0  0  0  0  0  0  0  0  0  0  0
   35.2600   26.4750   36.2360 O   0  0  0  0  0  0  0  0  0  0  0  0
   36.0140   26.8810   35.1340 C   0  0  0  0  0  0  0  0  0  0  0  0
   37.5910   27.4850   36.4130 H   0  0  0  0  0  0  0  0  0  0  0  0
   35.1480   29.2320   35.7650 H   0  0  0  0  0  0  0  0  0  0  0  0
   34.0460   27.8090   37.1260 H   0  0  0  0  0  0  0  0  0  0  0  0
   35.4440   27.3380   38.1420 H   0  0  0  0  0  0  0  0  0  0  0  0
   36.6150   26.0100   34.7960 H   0  0  0  0  0  0  0  0  0  0  0  0
   35.3470   27.2420   34.3400 H   0  0  0  0  0  0  0  0  0  0  0  0
   37.5300   28.7450   34.7580 O   0  0  0  0  0  0  0  0  0  0  0  0
   38.5120   28.6410   34.9120 H   0  0  0  0  0  0  0  0  0  0  0  0
   36.3660   30.1600   41.1420 O   0  0  0  0  0  0  0  0  0  0  0  0
   38.7180   30.4210   42.3580 O   0  0  0  0  0  0  0  0  0  0  0  0
   37.5750   29.4280   42.1250 P   0  0  1  0  0  0  0  0  0  0  0  0
   36.8770   28.9660   43.5590 O   0  0  0  0  0  0  0  0  0  0  0  0
   37.3650   29.3860   44.3340 H   0  0  0  0  0  0  0  0  0  0  0  0
   38.1650   28.1140   41.2530 O   0  0  0  0  0  0  0  0  0  0  0  0
   37.6300   26.8540   41.2220 C   0  0  0  0  0  0  0  0  0  0  0  0
   37.5420   25.9820   42.2860 C   0  0  0  0  0  0  0  0  0  0  0  0
   37.9280   26.3170   43.2380 H   0  0  0  0  0  0  0  0  0  0  0  0
   36.9920   24.7170   42.2050 C   0  0  0  0  0  3  0  0  0  0  0  0
   36.4990   24.2900   40.9830 C   0  0  0  0  0  0  0  0  0  0  0  0
   36.0790   23.3020   40.9570 H   0  0  0  0  0  0  0  0  0  0  0  0
   36.5630   25.1230   39.8810 C   0  0  0  0  0  0  0  0  0  0  0  0
   36.1600   24.7190   38.9780 H   0  0  0  0  0  0  0  0  0  0  0  0
   37.1260   26.3890   40.0180 C   0  0  0  0  0  3  0  0  0  0  0  0
  1  2  1  0  0  0  0
  2  3  2  0  0  0  0
  2  8  1  0  0  0  0
  3 22  1  0  0  0  0
  4  3  1  0  0  0  0
  5  4  2  0  0  0  0
  6  5  1  0  0  0  0
  6  1  2  0  0  0  0
  7  1  1  0  0  0  0
  9 14  1  1  0  0  0
  9 10  1  0  0  0  0
 10 15  1  6  0  0  0
 10 11  1  0  0  0  0
 10  5  1  0  0  0  0
 11 16  1  0  0  0  0
 11 17  1  0  0  0  0
 12 11  1  0  0  0  0
 13  9  1  0  0  0  0
 13 12  1  0  0  0  0
 18 13  1  0  0  0  0
 19 13  1  0  0  0  0
 20 21  1  0  0  0  0
 20  9  1  0  0  0  0
 22 24  1  0  0  0  0
 24 23  2  1  0  0  0
 24 25  1  0  0  0  0
 25 26  1  0  0  0  0
 27 24  1  0  0  0  0
 28 27  1  0  0  0  0
 28 29  1  0  0  0  0
 29 30  1  0  0  0  0
 31 29  2  0  0  0  0
 32 31  1  0  0  0  0
 33 32  1  0  0  0  0
 34 36  1  0  0  0  0
 34 32  2  0  0  0  0
 35 34  1  0  0  0  0
 36 28  2  0  0  0  0
M  END
>  <minimizedAffinity>
-5.57427883

$$$$

 OpenBabel03252507103D

 36 38  0  0  1  0  0  0  0  0999 V2000
   38.3350   27.6540   43.6400 C   0  0  0  0  0  0  0  0  0  0  0  0
   37.7920   28.9090   43.3030 C   0  0  0  0  0  0  0  0  0  0  0  0
   37.1610   29.0090   42.0670 C   0  0  0  0  0  0  0  0  0  0  0  0
   37.1010   27.9300   41.2690 N   0  0  0  0  0  0  0  0  0  0  0  0
   37.6220   26.7480   41.6050 C   0  0  0  0  0  0  0  0  0  0  0  0
   38.2450   26.6100   42.8040 N   0  0  0  0  0  0  0  0  0  0  0  0
   38.8200   27.6130   44.6140 H   0  0  0  0  0  0  0  0  0  0  0  0
   37.8500   29.7560   43.9530 H   0  0  0  0  0  0  0  0  0  0  0  0
   37.0910   24.2980   41.4420 C   0  0  1  0  0  0  0  0  0  0  0  0
   37.5960   25.5420   40.7740 C   0  0  1  0  0  0  0  0  0  0  0  0
   36.5090   25.6790   39.6850 C   0  0  0  0  0  0  0  0  0  0  0  0
   36.0720   24.4200   39.3900 O   0  0  0  0  0  0  0  0  0  0  0  0
   36.7420   23.4920   40.1890 C   0  0  0  0  0  0  0  0  0  0  0  0
   36.1100   24.5120   41.9350 H   0  0  0  0  0  0  0  0  0  0  0  0
   38.5720   25.3130   40.2800 H   0  0  0  0  0  0  0  0  0  0  0  0
   37.0520   26.0730   38.7950 H   0  0  0  0  0  0  0  0  0  0  0  0
   35.7400   26.4120   39.9660 H   0  0  0  0  0  0  0  0  0  0  0  0
   36.0340   22.6640   40.4110 H   0  0  0  0  0  0  0  0  0  0  0  0
   37.6360   23.1280   39.6670 H   0  0  0  0  0  0  0  0  0  0  0  0
   37.9920   23.6870   42.2660 O   0  0  0  0  0  0  0  0  0  0  0  0
   37.5400   23.5500   43.1460 H   0  0  0  0  0  0  0  0  0  0  0  0
   36.6290   30.2470   41.7450 O   0  0  0  0  0  0  0  0  0  0  0  0
   36.4220   30.3680   39.0960 O   0  0  0  0  0  0  0  0  0  0  0  0
   37.1110   31.0330   40.2920 P   0  0  1  0  0  0  0  0  0  0  0  0
   36.7060   32.6390   40.4040 O   0  0  0  0  0  0  0  0  0  0  0  0
   36.1140   32.9030   39.6320 H   0  0  0  0  0  0  0  0  0  0  0  0
   38.7740   30.8060   40.1570 O   0  0  0  0  0  0  0  0  0  0  0  0
   39.6530   31.6160   39.4890 C   0  0  0  0  0  0  0  0  0  0  0  0
   40.4530   32.5860   40.0540 C   0  0  0  0  0  0  0  0  0  0  0  0
   40.3880   32.7260   41.1230 H   0  0  0  0  0  0  0  0  0  0  0  0
   41.3260   33.3810   39.3350 C   0  0  0  0  0  3  0  0  0  0  0  0
   41.4080   33.2000   37.9650 C   0  0  0  0  0  0  0  0  0  0  0  0
   42.0960   33.8340   37.4400 H   0  0  0  0  0  0  0  0  0  0  0  0
   40.6270   32.2410   37.3460 C   0  0  0  0  0  0  0  0  0  0  0  0
   40.7490   32.1640   36.2870 H   0  0  0  0  0  0  0  0  0  0  0  0
   39.7640   31.4660   38.1160 C   0  0  0  0  0  3  0  0  0  0  0  0
  1  7  1  0  0  0  0
  2  1  1  0  0  0  0
  2  8  1  0  0  0  0
  3  2  2  0  0  0  0
  4  5  2  0  0  0  0
  4  3  1  0  0  0  0
  5  6  1  0  0  0  0
  6  1  2  0  0  0  0
  9 14  1  1  0  0  0
  9 20  1  0  0  0  0
 10 15  1  6  0  0  0
 10  9  1  0  0  0  0
 10  5  1  0  0  0  0
 11 17  1  0  0  0  0
 11 10  1  0  0  0  0
 12 11  1  0  0  0  0
 12 13  1  0  0  0  0
 13 18  1  0  0  0  0
 13  9  1  0  0  0  0
 16 11  1  0  0  0  0
 19 13  1  0  0  0  0
 20 21  1  0  0  0  0
 22  3  1  0  0  0  0
 24 23  2  6  0  0  0
 24 25  1  0  0  0  0
 24 22  1  0  0  0  0
 26 25  1  0  0  0  0
 27 24  1  0  0  0  0
 28 29  1  0  0  0  0
 28 27  1  0  0  0  0
 29 30  1  0  0  0  0
 31 29  2  0  0  0  0
 32 31  1  0  0  0  0
 33 32  1  0  0  0  0
 34 32  2  0  0  0  0
 34 36  1  0  0  0  0
 35 34  1  0  0  0  0
 36 28  2  0  0  0  0
M  END
>  <minimizedAffinity>
-5.55311966

$$$$

 OpenBabel03252507103D

 36 38  0  0  1  0  0  0  0  0999 V2000
   41.2050   28.2660   39.9240 C   0  0  0  0  0  0  0  0  0  0  0  0
   40.9650   29.5210   39.3320 C   0  0  0  0  0  0  0  0  0  0  0  0
   39.8680   30.2370   39.8010 C   0  0  0  0  0  0  0  0  0  0  0  0
   39.1060   29.7130   40.7740 N   0  0  0  0  0  0  0  0  0  0  0  0
   39.3480   28.5210   41.3240 C   0  0  0  0  0  0  0  0  0  0  0  0
   40.4100   27.7910   40.8940 N   0  0  0  0  0  0  0  0  0  0  0  0
   42.0710   27.7340   39.5320 H   0  0  0  0  0  0  0  0  0  0  0  0
   41.5850   29.9210   38.5580 H   0  0  0  0  0  0  0  0  0  0  0  0
   37.1180   28.3370   42.4640 C   0  0  1  0  0  0  0  0  0  0  0  0
   38.5470   27.8940   42.3780 C   0  0  1  0  0  0  0  0  0  0  0  0
   38.3090   26.4050   42.0420 C   0  0  0  0  0  0  0  0  0  0  0  0
   37.1220   26.0480   42.6100 O   0  0  0  0  0  0  0  0  0  0  0  0
   36.5580   27.1510   43.2520 C   0  0  0  0  0  0  0  0  0  0  0  0
   36.6440   28.2660   41.4530 H   0  0  0  0  0  0  0  0  0  0  0  0
   39.0060   27.9630   43.3950 H   0  0  0  0  0  0  0  0  0  0  0  0
   39.1240   25.8630   42.5760 H   0  0  0  0  0  0  0  0  0  0  0  0
   38.4190   26.2080   40.9660 H   0  0  0  0  0  0  0  0  0  0  0  0
   35.4540   27.0710   43.1550 H   0  0  0  0  0  0  0  0  0  0  0  0
   36.8690   27.1680   44.3050 H   0  0  0  0  0  0  0  0  0  0  0  0
   36.9300   29.5480   43.0680 O   0  0  0  0  0  0  0  0  0  0  0  0
   36.3750   30.1020   42.4500 H   0  0  0  0  0  0  0  0  0  0  0  0
   39.6420   31.4720   39.2130 O   0  0  0  0  0  0  0  0  0  0  0  0
   37.3210   32.5150   38.4370 O   0  0  0  0  0  0  0  0  0  0  0  0
   38.4690   31.6190   37.9620 P   0  0  1  0  0  0  0  0  0  0  0  0
   39.2110   32.2520   36.6180 O   0  0  0  0  0  0  0  0  0  0  0  0
   38.7390   33.0920   36.3250 H   0  0  0  0  0  0  0  0  0  0  0  0
   37.8700   30.0690   37.6860 O   0  0  0  0  0  0  0  0  0  0  0  0
   36.5860   29.6450   37.8990 C   0  0  0  0  0  0  0  0  0  0  0  0
   35.9870   29.4510   39.1250 C   0  0  0  0  0  0  0  0  0  0  0  0
   36.5790   29.6510   40.0060 H   0  0  0  0  0  0  0  0  0  0  0  0
   34.6850   29.0200   39.2890 C   0  0  0  0  0  3  0  0  0  0  0  0
   33.9270   28.7630   38.1580 C   0  0  0  0  0  0  0  0  0  0  0  0
   32.9200   28.4310   38.3240 H   0  0  0  0  0  0  0  0  0  0  0  0
   34.4780   28.9400   36.9020 C   0  0  0  0  0  0  0  0  0  0  0  0
   33.8290   28.7210   36.0820 H   0  0  0  0  0  0  0  0  0  0  0  0
   35.7950   29.3770   36.7930 C   0  0  0  0  0  3  0  0  0  0  0  0
  1  6  1  0  0  0  0
  2  3  1  0  0  0  0
  2  1  2  0  0  0  0
  3  4  2  0  0  0  0
  4  5  1  0  0  0  0
  5 10  1  0  0  0  0
  6  5  2  0  0  0  0
  7  1  1  0  0  0  0
  8  2  1  0  0  0  0
  9 14  1  6  0  0  0
  9 20  1  0  0  0  0
  9 13  1  0  0  0  0
 10  9  1  0  0  0  0
 10 15  1  1  0  0  0
 11 10  1  0  0  0  0
 11 16  1  0  0  0  0
 11 12  1  0  0  0  0
 12 13  1  0  0  0  0
 13 19  1  0  0  0  0
 17 11  1  0  0  0  0
 18 13  1  0  0  0  0
 21 20  1  0  0  0  0
 22  3  1  0  0  0  0
 24 23  2  1  0  0  0
 24 22  1  0  0  0  0
 25 24  1  0  0  0  0
 26 25  1  0  0  0  0
 27 28  1  0  0  0  0
 27 24  1  0  0  0  0
 28 29  1  0  0  0  0
 29 31  2  0  0  0  0
 29 30  1  0  0  0  0
 32 33  1  0  0  0  0
 32 31  1  0  0  0  0
 34 32  2  0  0  0  0
 35 34  1  0  0  0  0
 36 34  1  0  0  0  0
 36 28  2  0  0  0  0
M  END
>  <minimizedAffinity>
-5.52840042

$$$$
