
 OpenBabel03242521423D

 34 36  0  0  1  0  0  0  0  0999 V2000
   45.1800   34.9120   43.3960 C   0  0  0  0  0  0  0  0  0  0  0  0
   46.3290   34.2310   42.9850 C   0  0  0  0  0  0  0  0  0  0  0  0
   47.0550   33.5010   43.9200 C   0  0  0  0  0  0  0  0  0  0  0  0
   46.6150   33.4820   45.1880 N   0  0  0  0  0  0  0  0  0  0  0  0
   45.4940   34.1520   45.5660 C   0  0  0  0  0  0  0  0  0  0  0  0
   44.7850   34.8590   44.6780 N   0  0  0  0  0  0  0  0  0  0  0  0
   46.5880   34.3150   41.9470 H   0  0  0  0  0  0  0  0  0  0  0  0
   45.2000   34.0890   46.6080 H   0  0  0  0  0  0  0  0  0  0  0  0
   49.1470   33.6390   42.5810 C   0  0  2  0  0  0  0  0  0  0  0  0
   48.2550   32.8000   43.4510 C   0  0  2  0  0  0  0  0  0  0  0  0
   47.9810   31.7300   42.5740 O   0  0  0  0  0  0  0  0  0  0  0  0
   49.2310   31.3530   42.1250 C   0  0  0  0  0  0  0  0  0  0  0  0
   50.1490   32.5410   42.1740 C   0  0  1  0  0  0  0  0  0  0  0  0
   48.6810   33.9200   41.6200 H   0  0  0  0  0  0  0  0  0  0  0  0
   48.8670   32.3520   44.2700 H   0  0  0  0  0  0  0  0  0  0  0  0
   49.1920   30.8680   41.1240 H   0  0  0  0  0  0  0  0  0  0  0  0
   49.6190   30.6020   42.8460 H   0  0  0  0  0  0  0  0  0  0  0  0
   50.9180   32.5170   42.9420 H   0  0  0  0  0  0  0  0  0  0  0  0
   49.7300   34.6910   43.2430 O   0  0  0  0  0  0  0  0  0  0  0  0
   49.6150   34.5270   44.2190 H   0  0  0  0  0  0  0  0  0  0  0  0
   50.7150   32.8590   40.9590 O   0  0  0  0  0  0  0  0  0  0  0  0
   50.2290   33.5530   40.4580 H   0  0  0  0  0  0  0  0  0  0  0  0
   44.4010   35.7090   42.3810 C   0  0  0  0  0  0  0  0  0  0  0  0
   45.1780   36.1690   41.7230 H   0  0  0  0  0  0  0  0  0  0  0  0
   43.8090   36.5030   42.8530 H   0  0  0  0  0  0  0  0  0  0  0  0
   43.5430   34.8450   41.5350 C   0  0  0  0  0  0  0  0  0  0  0  0
   43.0430   35.4870   40.3970 C   0  0  0  0  0  0  0  0  0  0  0  0
   43.2630   36.5300   40.1550 H   0  0  0  0  0  0  0  0  0  0  0  0
   42.2320   34.8580   39.4900 C   0  0  0  0  0  0  0  0  0  0  0  0
   41.8910   33.5420   39.6960 C   0  0  0  0  0  0  0  0  0  0  0  0
   41.2480   32.9530   39.0310 H   0  0  0  0  0  0  0  0  0  0  0  0
   42.3770   32.9040   40.8120 C   0  0  0  0  0  0  0  0  0  0  0  0
   42.1620   31.8600   41.0610 H   0  0  0  0  0  0  0  0  0  0  0  0
   43.1920   33.5250   41.7280 C   0  0  0  0  0  0  0  0  0  0  0  0
  1  6  1  0  0  0  0
  2  1  2  0  0  0  0
  2  3  1  0  0  0  0
  3  4  2  0  0  0  0
  4  5  1  0  0  0  0
  5  8  1  0  0  0  0
  6  5  2  0  0  0  0
  7  2  1  0  0  0  0
  9 14  1  6  0  0  0
  9 19  1  0  0  0  0
  9 10  1  0  0  0  0
 10  3  1  0  0  0  0
 10 15  1  1  0  0  0
 11 10  1  0  0  0  0
 12 13  1  0  0  0  0
 12 11  1  0  0  0  0
 12 17  1  0  0  0  0
 13  9  1  0  0  0  0
 13 18  1  1  0  0  0
 16 12  1  0  0  0  0
 19 20  1  0  0  0  0
 21 13  1  0  0  0  0
 22 21  1  0  0  0  0
 23 25  1  0  0  0  0
 23  1  1  0  0  0  0
 24 23  1  0  0  0  0
 26 34  1  0  0  0  0
 26 23  1  0  0  0  0
 27 26  2  0  0  0  0
 28 27  1  0  0  0  0
 29 30  2  0  0  0  0
 29 27  1  0  0  0  0
 30 32  1  0  0  0  0
 31 30  1  0  0  0  0
 32 33  1  0  0  0  0
 32 34  2  0  0  0  0
M  END
>  <minimizedAffinity>
-5.2810235

>  <minimizedRMSD>
3.57843089

$$$$
