
 OpenBabel03252507053D

 47 50  0  0  0  0  0  0  0  0999 V2000
   39.5640   30.0330   42.9450 C   0  0  0  0  0  0  0  0  0  0  0  0
   39.5500   30.3560   44.0080 H   0  0  0  0  0  0  0  0  0  0  0  0
   38.4600   30.0640   42.6480 H   0  0  0  0  0  0  0  0  0  0  0  0
   40.1280   28.8320   42.7630 N   0  0  0  0  0  0  0  0  0  0  0  0
   41.4530   28.5630   42.2940 C   0  0  0  0  0  0  0  0  0  0  0  0
   42.0920   28.1460   43.6180 C   0  0  0  0  0  0  0  0  0  0  0  0
   41.4620   26.9960   44.2440 C   0  0  0  0  0  0  0  0  0  0  0  0
   40.0840   26.6960   43.9210 C   0  0  0  0  0  0  0  0  0  0  0  0
   39.2720   27.6820   43.1200 C   0  0  0  0  0  0  0  0  0  0  0  0
   41.5980   27.8450   41.5090 H   0  0  0  0  0  0  0  0  0  0  0  0
   41.9520   29.5070   41.9960 H   0  0  0  0  0  0  0  0  0  0  0  0
   42.2020   29.0650   44.2640 H   0  0  0  0  0  0  0  0  0  0  0  0
   43.1630   27.9200   43.3370 H   0  0  0  0  0  0  0  0  0  0  0  0
   41.5440   27.0900   45.3610 H   0  0  0  0  0  0  0  0  0  0  0  0
   42.0570   26.0660   44.0050 H   0  0  0  0  0  0  0  0  0  0  0  0
   39.5840   25.8350   44.2270 H   0  0  0  0  0  0  0  0  0  0  0  0
   37.6200   27.4700   42.7020 S   0  0  0  0  0  0  0  0  0  0  0  0
   37.1540   26.4680   41.3860 C   0  0  0  0  0  0  0  0  0  0  0  0
   36.9860   25.1820   41.9500 C   0  0  0  0  0  0  0  0  0  0  0  0
   37.0770   24.7630   42.9660 H   0  0  0  0  0  0  0  0  0  0  0  0
   36.6190   24.0780   41.1610 C   0  0  0  0  0  3  0  0  0  0  0  0
   36.4240   24.2870   39.8020 C   0  0  0  0  0  0  0  0  0  0  0  0
   36.1400   23.5050   39.1080 H   0  0  0  0  0  0  0  0  0  0  0  0
   36.5760   25.5190   39.2140 C   0  0  0  0  0  0  0  0  0  0  0  0
   36.4430   25.7600   38.1700 H   0  0  0  0  0  0  0  0  0  0  0  0
   36.9340   26.5360   40.0480 C   0  0  0  0  0  3  0  0  0  0  0  0
   40.1820   31.1150   42.1330 C   0  0  0  0  0  0  0  0  0  0  0  0
   41.0990   30.7930   41.5930 H   0  0  0  0  0  0  0  0  0  0  0  0
   40.4990   31.9710   42.7920 H   0  0  0  0  0  0  0  0  0  0  0  0
   39.1500   31.6580   41.2320 C   0  0  0  0  0  0  0  0  0  0  0  0
   39.1400   32.9940   40.9070 C   0  0  0  0  0  0  0  0  0  0  0  0
   38.1400   33.4570   40.0590 C   0  0  0  0  0  0  0  0  0  0  0  0
   37.2210   32.5590   39.5920 N   0  0  0  0  0  0  0  0  0  0  0  0
   37.2660   31.2730   39.9290 C   0  0  0  0  0  0  0  0  0  0  0  0
   38.2330   30.8560   40.7450 N   0  0  0  0  0  0  0  0  0  0  0  0
   39.7690   33.8330   41.1510 H   0  0  0  0  0  0  0  0  0  0  0  0
   37.9750   34.4640   39.6990 H   0  0  0  0  0  0  0  0  0  0  0  0
   36.2610   30.3800   39.3490 C   0  0  0  0  0  0  0  0  0  0  0  0
   35.2680   29.8270   40.1510 C   0  0  0  0  0  0  0  0  0  0  0  0
   34.3330   28.9780   39.5980 C   0  0  0  0  0  0  0  0  0  0  0  0
   34.4880   28.7590   38.2610 C   0  0  0  0  0  0  0  0  0  0  0  0
   35.4620   29.2830   37.4050 C   0  0  0  0  0  0  0  0  0  0  0  0
   36.3450   30.1130   38.0330 N   0  0  0  0  0  0  0  0  0  0  0  0
   35.2220   30.0600   41.2120 H   0  0  0  0  0  0  0  0  0  0  0  0
   33.5430   28.5150   40.1420 H   0  0  0  0  0  0  0  0  0  0  0  0
   33.7670   28.0870   37.7690 H   0  0  0  0  0  0  0  0  0  0  0  0
   35.4950   29.0480   36.3700 H   0  0  0  0  0  0  0  0  0  0  0  0
  1  2  1  0  0  0  0
  3  1  1  0  0  0  0
  4  1  1  0  0  0  0
  4  9  1  0  0  0  0
  5  4  1  0  0  0  0
  5  6  1  0  0  0  0
  6  7  1  0  0  0  0
  6 12  1  0  0  0  0
  7 14  1  0  0  0  0
  8 16  1  0  0  0  0
  8  7  1  0  0  0  0
  9  8  2  0  0  0  0
 10  5  1  0  0  0  0
 11  5  1  0  0  0  0
 13  6  1  0  0  0  0
 15  7  1  0  0  0  0
 17  9  1  0  0  0  0
 18 19  1  0  0  0  0
 18 17  1  0  0  0  0
 19 20  1  0  0  0  0
 21 19  2  0  0  0  0
 22 21  1  0  0  0  0
 23 22  1  0  0  0  0
 24 22  2  0  0  0  0
 24 26  1  0  0  0  0
 25 24  1  0  0  0  0
 26 18  2  0  0  0  0
 27 29  1  0  0  0  0
 27  1  1  0  0  0  0
 28 27  1  0  0  0  0
 30 27  1  0  0  0  0
 31 36  1  0  0  0  0
 31 30  1  0  0  0  0
 32 31  2  0  0  0  0
 33 34  2  0  0  0  0
 33 32  1  0  0  0  0
 34 35  1  0  0  0  0
 35 30  2  0  0  0  0
 37 32  1  0  0  0  0
 38 34  1  0  0  0  0
 38 39  1  0  0  0  0
 39 44  1  0  0  0  0
 40 45  1  0  0  0  0
 40 39  2  0  0  0  0
 41 40  1  0  0  0  0
 42 43  1  0  0  0  0
 42 41  2  0  0  0  0
 43 38  2  0  0  0  0
 46 41  1  0  0  0  0
 47 42  1  0  0  0  0
M  END
>  <minimizedAffinity>
-6.19497395

$$$$

 OpenBabel03252507053D

 47 50  0  0  0  0  0  0  0  0999 V2000
   36.8330   27.4060   42.6460 C   0  0  0  0  0  0  0  0  0  0  0  0
   35.9190   27.0820   43.1890 H   0  0  0  0  0  0  0  0  0  0  0  0
   36.4880   28.3480   42.0960 H   0  0  0  0  0  0  0  0  0  0  0  0
   37.3260   26.4660   41.8300 N   0  0  0  0  0  0  0  0  0  0  0  0
   38.1540   25.3570   42.1930 C   0  0  0  0  0  0  0  0  0  0  0  0
   37.1150   24.2410   42.0890 C   0  0  0  0  0  0  0  0  0  0  0  0
   36.5220   24.1060   40.7690 C   0  0  0  0  0  0  0  0  0  0  0  0
   36.5190   25.2520   39.8870 C   0  0  0  0  0  0  0  0  0  0  0  0
   36.9320   26.6020   40.4130 C   0  0  0  0  0  0  0  0  0  0  0  0
   39.0460   25.1590   41.6290 H   0  0  0  0  0  0  0  0  0  0  0  0
   38.4300   25.4210   43.2650 H   0  0  0  0  0  0  0  0  0  0  0  0
   36.3920   24.3490   42.9490 H   0  0  0  0  0  0  0  0  0  0  0  0
   37.6920   23.3130   42.3730 H   0  0  0  0  0  0  0  0  0  0  0  0
   35.4620   23.7460   40.8740 H   0  0  0  0  0  0  0  0  0  0  0  0
   37.0390   23.2710   40.2110 H   0  0  0  0  0  0  0  0  0  0  0  0
   36.2230   25.2220   38.8880 H   0  0  0  0  0  0  0  0  0  0  0  0
   36.9360   28.0490   39.4860 S   0  0  0  0  0  0  0  0  0  0  0  0
   35.6500   28.4240   38.4110 C   0  0  0  0  0  0  0  0  0  0  0  0
   36.2800   28.7410   37.1850 C   0  0  0  0  0  0  0  0  0  0  0  0
   37.3250   28.7720   36.8370 H   0  0  0  0  0  0  0  0  0  0  0  0
   35.5360   29.1230   36.0560 C   0  0  0  0  0  3  0  0  0  0  0  0
   34.1530   29.1800   36.1780 C   0  0  0  0  0  0  0  0  0  0  0  0
   33.4890   29.4630   35.3690 H   0  0  0  0  0  0  0  0  0  0  0  0
   33.5010   28.8810   37.3500 C   0  0  0  0  0  0  0  0  0  0  0  0
   32.4360   28.9030   37.5220 H   0  0  0  0  0  0  0  0  0  0  0  0
   34.2960   28.5210   38.3960 C   0  0  0  0  0  3  0  0  0  0  0  0
   37.8150   27.9140   43.6410 C   0  0  0  0  0  0  0  0  0  0  0  0
   38.3320   27.1060   44.2030 H   0  0  0  0  0  0  0  0  0  0  0  0
   37.3000   28.5460   44.4160 H   0  0  0  0  0  0  0  0  0  0  0  0
   38.7520   28.8110   42.9420 C   0  0  0  0  0  0  0  0  0  0  0  0
   40.1030   28.5550   42.9500 C   0  0  0  0  0  0  0  0  0  0  0  0
   40.9440   29.4380   42.2820 C   0  0  0  0  0  0  0  0  0  0  0  0
   40.3830   30.5140   41.6510 N   0  0  0  0  0  0  0  0  0  0  0  0
   39.0700   30.7260   41.6650 C   0  0  0  0  0  0  0  0  0  0  0  0
   38.2870   29.8660   42.3150 N   0  0  0  0  0  0  0  0  0  0  0  0
   40.7180   27.7740   43.3630 H   0  0  0  0  0  0  0  0  0  0  0  0
   42.0210   29.3980   42.1840 H   0  0  0  0  0  0  0  0  0  0  0  0
   38.5590   31.8840   40.9300 C   0  0  0  0  0  0  0  0  0  0  0  0
   37.5170   31.7330   40.0200 C   0  0  0  0  0  0  0  0  0  0  0  0
   37.0500   32.8270   39.3240 C   0  0  0  0  0  0  0  0  0  0  0  0
   37.6890   33.9970   39.6120 C   0  0  0  0  0  0  0  0  0  0  0  0
   38.7400   34.2110   40.5120 C   0  0  0  0  0  0  0  0  0  0  0  0
   39.1380   33.0770   41.1580 N   0  0  0  0  0  0  0  0  0  0  0  0
   37.0660   30.7570   39.8550 H   0  0  0  0  0  0  0  0  0  0  0  0
   36.2580   32.7960   38.6120 H   0  0  0  0  0  0  0  0  0  0  0  0
   37.3550   34.9030   39.0820 H   0  0  0  0  0  0  0  0  0  0  0  0
   39.1700   35.1690   40.6640 H   0  0  0  0  0  0  0  0  0  0  0  0
  1  2  1  0  0  0  0
  1 27  1  0  0  0  0
  3  1  1  0  0  0  0
  4  5  1  0  0  0  0
  4  1  1  0  0  0  0
  5 11  1  0  0  0  0
  6  5  1  0  0  0  0
  6 13  1  0  0  0  0
  6 12  1  0  0  0  0
  7 14  1  0  0  0  0
  7  6  1  0  0  0  0
  8  9  2  0  0  0  0
  8  7  1  0  0  0  0
  9  4  1  0  0  0  0
 10  5  1  0  0  0  0
 15  7  1  0  0  0  0
 16  8  1  0  0  0  0
 17  9  1  0  0  0  0
 18 17  1  0  0  0  0
 19 18  2  0  0  0  0
 20 19  1  0  0  0  0
 21 22  2  0  0  0  0
 21 19  1  0  0  0  0
 22 24  1  0  0  0  0
 23 22  1  0  0  0  0
 24 25  1  0  0  0  0
 24 26  2  0  0  0  0
 26 18  1  0  0  0  0
 27 28  1  0  0  0  0
 27 29  1  0  0  0  0
 30 31  1  0  0  0  0
 30 27  1  0  0  0  0
 31 36  1  0  0  0  0
 32 31  2  0  0  0  0
 33 34  2  0  0  0  0
 33 32  1  0  0  0  0
 34 35  1  0  0  0  0
 35 30  2  0  0  0  0
 37 32  1  0  0  0  0
 38 43  1  0  0  0  0
 38 34  1  0  0  0  0
 39 38  2  0  0  0  0
 40 41  2  0  0  0  0
 40 39  1  0  0  0  0
 41 42  1  0  0  0  0
 42 47  1  0  0  0  0
 42 43  2  0  0  0  0
 44 39  1  0  0  0  0
 45 40  1  0  0  0  0
 46 41  1  0  0  0  0
M  END
>  <minimizedAffinity>
-6.18576431

$$$$

 OpenBabel03252507053D

 47 50  0  0  0  0  0  0  0  0999 V2000
   37.8030   27.7120   42.7320 C   0  0  0  0  0  0  0  0  0  0  0  0
   37.2260   27.3560   43.6130 H   0  0  0  0  0  0  0  0  0  0  0  0
   36.9850   27.9700   41.9740 H   0  0  0  0  0  0  0  0  0  0  0  0
   38.6830   26.8120   42.2760 N   0  0  0  0  0  0  0  0  0  0  0  0
   40.0800   26.7430   42.5760 C   0  0  0  0  0  0  0  0  0  0  0  0
   40.0590   25.5490   43.5300 C   0  0  0  0  0  0  0  0  0  0  0  0
   39.5400   24.3280   42.9380 C   0  0  0  0  0  0  0  0  0  0  0  0
   38.6480   24.4290   41.8030 C   0  0  0  0  0  0  0  0  0  0  0  0
   38.1130   25.7750   41.3910 C   0  0  0  0  0  0  0  0  0  0  0  0
   40.7860   26.6330   41.7750 H   0  0  0  0  0  0  0  0  0  0  0  0
   40.3830   27.6180   43.1870 H   0  0  0  0  0  0  0  0  0  0  0  0
   39.5770   25.8760   44.4970 H   0  0  0  0  0  0  0  0  0  0  0  0
   41.1420   25.4280   43.8290 H   0  0  0  0  0  0  0  0  0  0  0  0
   39.0240   23.7210   43.7310 H   0  0  0  0  0  0  0  0  0  0  0  0
   40.4010   23.6740   42.6130 H   0  0  0  0  0  0  0  0  0  0  0  0
   38.3180   23.6140   41.2430 H   0  0  0  0  0  0  0  0  0  0  0  0
   37.0190   26.0320   40.0910 S   0  0  0  0  0  0  0  0  0  0  0  0
   37.1380   27.4200   39.0860 C   0  0  0  0  0  0  0  0  0  0  0  0
   35.8160   27.6640   38.6440 C   0  0  0  0  0  0  0  0  0  0  0  0
   34.8390   27.1860   38.8230 H   0  0  0  0  0  0  0  0  0  0  0  0
   35.5190   28.7270   37.7730 C   0  0  0  0  0  3  0  0  0  0  0  0
   36.5670   29.5360   37.3560 C   0  0  0  0  0  0  0  0  0  0  0  0
   36.4450   30.3800   36.6860 H   0  0  0  0  0  0  0  0  0  0  0  0
   37.8650   29.3350   37.7600 C   0  0  0  0  0  0  0  0  0  0  0  0
   38.7290   29.9170   37.4800 H   0  0  0  0  0  0  0  0  0  0  0  0
   38.0670   28.2830   38.6030 C   0  0  0  0  0  3  0  0  0  0  0  0
   38.4080   29.0280   43.0670 C   0  0  0  0  0  0  0  0  0  0  0  0
   39.5180   29.0020   43.1240 H   0  0  0  0  0  0  0  0  0  0  0  0
   38.0570   29.3780   44.0780 H   0  0  0  0  0  0  0  0  0  0  0  0
   37.9100   30.0210   42.0990 C   0  0  0  0  0  0  0  0  0  0  0  0
   36.6110   29.9700   41.6520 C   0  0  0  0  0  0  0  0  0  0  0  0
   36.1940   30.9260   40.7330 C   0  0  0  0  0  0  0  0  0  0  0  0
   37.0970   31.8680   40.3240 N   0  0  0  0  0  0  0  0  0  0  0  0
   38.3460   31.8850   40.7810 C   0  0  0  0  0  0  0  0  0  0  0  0
   38.7200   30.9560   41.6590 N   0  0  0  0  0  0  0  0  0  0  0  0
   35.7670   29.3360   41.8620 H   0  0  0  0  0  0  0  0  0  0  0  0
   35.2190   31.0400   40.2750 H   0  0  0  0  0  0  0  0  0  0  0  0
   39.2290   32.9540   40.3140 C   0  0  0  0  0  0  0  0  0  0  0  0
   38.9170   34.2850   40.5730 C   0  0  0  0  0  0  0  0  0  0  0  0
   39.7490   35.2850   40.1180 C   0  0  0  0  0  0  0  0  0  0  0  0
   40.8410   34.8450   39.4290 C   0  0  0  0  0  0  0  0  0  0  0  0
   41.2060   33.5260   39.1370 C   0  0  0  0  0  0  0  0  0  0  0  0
   40.3290   32.6010   39.6250 N   0  0  0  0  0  0  0  0  0  0  0  0
   38.0220   34.5430   41.1330 H   0  0  0  0  0  0  0  0  0  0  0  0
   39.5820   36.3260   40.2740 H   0  0  0  0  0  0  0  0  0  0  0  0
   41.5390   35.6050   39.0430 H   0  0  0  0  0  0  0  0  0  0  0  0
   42.0840   33.2890   38.5900 H   0  0  0  0  0  0  0  0  0  0  0  0
  1 27  1  0  0  0  0
  1  2  1  0  0  0  0
  3  1  1  0  0  0  0
  4  5  1  0  0  0  0
  4  1  1  0  0  0  0
  5 11  1  0  0  0  0
  5  6  1  0  0  0  0
  6 13  1  0  0  0  0
  6 12  1  0  0  0  0
  7  6  1  0  0  0  0
  7 14  1  0  0  0  0
  8  7  1  0  0  0  0
  9  8  2  0  0  0  0
  9  4  1  0  0  0  0
 10  5  1  0  0  0  0
 15  7  1  0  0  0  0
 16  8  1  0  0  0  0
 17  9  1  0  0  0  0
 18 17  1  0  0  0  0
 19 20  1  0  0  0  0
 19 18  1  0  0  0  0
 21 19  2  0  0  0  0
 22 24  2  0  0  0  0
 22 21  1  0  0  0  0
 23 22  1  0  0  0  0
 24 26  1  0  0  0  0
 25 24  1  0  0  0  0
 26 18  2  0  0  0  0
 27 28  1  0  0  0  0
 27 29  1  0  0  0  0
 30 27  1  0  0  0  0
 31 36  1  0  0  0  0
 31 30  2  0  0  0  0
 32 31  1  0  0  0  0
 33 32  2  0  0  0  0
 33 34  1  0  0  0  0
 34 35  2  0  0  0  0
 35 30  1  0  0  0  0
 37 32  1  0  0  0  0
 38 39  1  0  0  0  0
 38 34  1  0  0  0  0
 39 44  1  0  0  0  0
 40 45  1  0  0  0  0
 40 39  2  0  0  0  0
 41 40  1  0  0  0  0
 42 41  2  0  0  0  0
 42 43  1  0  0  0  0
 43 38  2  0  0  0  0
 46 41  1  0  0  0  0
 47 42  1  0  0  0  0
M  END
>  <minimizedAffinity>
-6.04354763

$$$$

 OpenBabel03252507053D

 47 50  0  0  0  0  0  0  0  0999 V2000
   38.6810   32.2460   40.8560 C   0  0  0  0  0  0  0  0  0  0  0  0
   38.9340   32.4230   41.9230 H   0  0  0  0  0  0  0  0  0  0  0  0
   39.2200   31.2650   40.6200 H   0  0  0  0  0  0  0  0  0  0  0  0
   39.0400   33.2550   40.0520 N   0  0  0  0  0  0  0  0  0  0  0  0
   38.5440   34.5970   40.0770 C   0  0  0  0  0  0  0  0  0  0  0  0
   39.7520   35.2860   40.7100 C   0  0  0  0  0  0  0  0  0  0  0  0
   40.9810   35.1450   39.9490 C   0  0  0  0  0  0  0  0  0  0  0  0
   41.1140   34.0230   39.0450 C   0  0  0  0  0  0  0  0  0  0  0  0
   40.0860   32.9220   39.0630 C   0  0  0  0  0  0  0  0  0  0  0  0
   38.2250   35.0570   39.1600 H   0  0  0  0  0  0  0  0  0  0  0  0
   37.7190   34.6850   40.8130 H   0  0  0  0  0  0  0  0  0  0  0  0
   39.8030   34.9830   41.7960 H   0  0  0  0  0  0  0  0  0  0  0  0
   39.4360   36.3690   40.7770 H   0  0  0  0  0  0  0  0  0  0  0  0
   41.8550   35.1280   40.6540 H   0  0  0  0  0  0  0  0  0  0  0  0
   41.1480   36.0760   39.3310 H   0  0  0  0  0  0  0  0  0  0  0  0
   41.9040   33.9000   38.3760 H   0  0  0  0  0  0  0  0  0  0  0  0
   40.1450   31.5180   38.0740 S   0  0  0  0  0  0  0  0  0  0  0  0
   38.7340   30.5910   37.7570 C   0  0  0  0  0  0  0  0  0  0  0  0
   39.0420   29.2890   38.2150 C   0  0  0  0  0  0  0  0  0  0  0  0
   39.9190   28.8240   38.6950 H   0  0  0  0  0  0  0  0  0  0  0  0
   38.1200   28.2340   38.1010 C   0  0  0  0  0  3  0  0  0  0  0  0
   36.8880   28.5080   37.5230 C   0  0  0  0  0  0  0  0  0  0  0  0
   36.1080   27.7670   37.3890 H   0  0  0  0  0  0  0  0  0  0  0  0
   36.5470   29.7580   37.0650 C   0  0  0  0  0  0  0  0  0  0  0  0
   35.6140   30.0470   36.6060 H   0  0  0  0  0  0  0  0  0  0  0  0
   37.4970   30.7240   37.2110 C   0  0  0  0  0  3  0  0  0  0  0  0
   37.2400   31.8920   40.7660 C   0  0  0  0  0  0  0  0  0  0  0  0
   36.7830   32.1480   39.7860 H   0  0  0  0  0  0  0  0  0  0  0  0
   36.6460   32.4560   41.5380 H   0  0  0  0  0  0  0  0  0  0  0  0
   37.0960   30.4660   41.1070 C   0  0  0  0  0  0  0  0  0  0  0  0
   35.9450   29.7840   40.7910 C   0  0  0  0  0  0  0  0  0  0  0  0
   35.8580   28.4410   41.1430 C   0  0  0  0  0  0  0  0  0  0  0  0
   36.9220   27.8700   41.7830 N   0  0  0  0  0  0  0  0  0  0  0  0
   38.0200   28.5640   42.0700 C   0  0  0  0  0  0  0  0  0  0  0  0
   38.0770   29.8490   41.7240 N   0  0  0  0  0  0  0  0  0  0  0  0
   35.0300   30.0450   40.2870 H   0  0  0  0  0  0  0  0  0  0  0  0
   35.0380   27.7540   40.9770 H   0  0  0  0  0  0  0  0  0  0  0  0
   39.1220   27.8560   42.7230 C   0  0  0  0  0  0  0  0  0  0  0  0
   38.9240   26.5830   43.2500 C   0  0  0  0  0  0  0  0  0  0  0  0
   39.9650   25.9300   43.8740 C   0  0  0  0  0  0  0  0  0  0  0  0
   41.1340   26.6330   43.9120 C   0  0  0  0  0  0  0  0  0  0  0  0
   41.3930   27.9100   43.4040 C   0  0  0  0  0  0  0  0  0  0  0  0
   40.3100   28.4830   42.8030 N   0  0  0  0  0  0  0  0  0  0  0  0
   37.9540   26.0990   43.1720 H   0  0  0  0  0  0  0  0  0  0  0  0
   39.8970   24.9570   44.3020 H   0  0  0  0  0  0  0  0  0  0  0  0
   41.9980   26.1560   44.4010 H   0  0  0  0  0  0  0  0  0  0  0  0
   42.3450   28.3710   43.4860 H   0  0  0  0  0  0  0  0  0  0  0  0
  1  2  1  0  0  0  0
  3  1  1  0  0  0  0
  4  5  1  0  0  0  0
  4  1  1  0  0  0  0
  5  6  1  0  0  0  0
  5 11  1  0  0  0  0
  6 13  1  0  0  0  0
  6 12  1  0  0  0  0
  7 14  1  0  0  0  0
  7  6  1  0  0  0  0
  8  9  2  0  0  0  0
  8  7  1  0  0  0  0
  9  4  1  0  0  0  0
 10  5  1  0  0  0  0
 15  7  1  0  0  0  0
 16  8  1  0  0  0  0
 17  9  1  0  0  0  0
 18 17  1  0  0  0  0
 18 19  1  0  0  0  0
 19 20  1  0  0  0  0
 21 19  2  0  0  0  0
 22 21  1  0  0  0  0
 23 22  1  0  0  0  0
 24 26  1  0  0  0  0
 24 22  2  0  0  0  0
 25 24  1  0  0  0  0
 26 18  2  0  0  0  0
 27  1  1  0  0  0  0
 27 30  1  0  0  0  0
 27 29  1  0  0  0  0
 28 27  1  0  0  0  0
 30 35  1  0  0  0  0
 31 30  2  0  0  0  0
 31 32  1  0  0  0  0
 32 33  2  0  0  0  0
 33 34  1  0  0  0  0
 34 38  1  0  0  0  0
 35 34  2  0  0  0  0
 36 31  1  0  0  0  0
 37 32  1  0  0  0  0
 38 43  2  0  0  0  0
 38 39  1  0  0  0  0
 39 40  2  0  0  0  0
 40 41  1  0  0  0  0
 40 45  1  0  0  0  0
 41 46  1  0  0  0  0
 42 47  1  0  0  0  0
 42 41  2  0  0  0  0
 43 42  1  0  0  0  0
 44 39  1  0  0  0  0
M  END
>  <minimizedAffinity>
-6.00193357

$$$$

 OpenBabel03252507053D

 47 50  0  0  0  0  0  0  0  0999 V2000
   35.2150   29.1180   38.6050 C   0  0  0  0  0  0  0  0  0  0  0  0
   34.4030   29.7610   38.2030 H   0  0  0  0  0  0  0  0  0  0  0  0
   34.9310   28.9990   39.7070 H   0  0  0  0  0  0  0  0  0  0  0  0
   36.4380   29.6330   38.4250 N   0  0  0  0  0  0  0  0  0  0  0  0
   37.3670   29.3090   37.3870 C   0  0  0  0  0  0  0  0  0  0  0  0
   37.2180   30.5670   36.5330 C   0  0  0  0  0  0  0  0  0  0  0  0
   37.5470   31.7980   37.2310 C   0  0  0  0  0  0  0  0  0  0  0  0
   37.4550   31.8260   38.6750 C   0  0  0  0  0  0  0  0  0  0  0  0
   36.8290   30.6670   39.4060 C   0  0  0  0  0  0  0  0  0  0  0  0
   38.3860   29.0870   37.6420 H   0  0  0  0  0  0  0  0  0  0  0  0
   36.9750   28.4730   36.7720 H   0  0  0  0  0  0  0  0  0  0  0  0
   36.2080   30.5370   36.0300 H   0  0  0  0  0  0  0  0  0  0  0  0
   37.9240   30.3880   35.6690 H   0  0  0  0  0  0  0  0  0  0  0  0
   36.9150   32.6350   36.8270 H   0  0  0  0  0  0  0  0  0  0  0  0
   38.6030   32.1060   36.9700 H   0  0  0  0  0  0  0  0  0  0  0  0
   37.7780   32.6200   39.2670 H   0  0  0  0  0  0  0  0  0  0  0  0
   36.6200   30.5880   41.1090 S   0  0  0  0  0  0  0  0  0  0  0  0
   37.3780   29.3620   42.0450 C   0  0  0  0  0  0  0  0  0  0  0  0
   36.5530   28.2230   41.8880 C   0  0  0  0  0  0  0  0  0  0  0  0
   35.6290   28.0070   41.3270 H   0  0  0  0  0  0  0  0  0  0  0  0
   36.8490   27.0100   42.5330 C   0  0  0  0  0  3  0  0  0  0  0  0
   37.9820   26.9610   43.3350 C   0  0  0  0  0  0  0  0  0  0  0  0
   38.2980   26.0750   43.8750 H   0  0  0  0  0  0  0  0  0  0  0  0
   38.8090   28.0420   43.5150 C   0  0  0  0  0  0  0  0  0  0  0  0
   39.7030   28.0810   44.1190 H   0  0  0  0  0  0  0  0  0  0  0  0
   38.4520   29.1800   42.8550 C   0  0  0  0  0  3  0  0  0  0  0  0
   35.0530   27.7500   38.0460 C   0  0  0  0  0  0  0  0  0  0  0  0
   34.9740   26.9610   38.8250 H   0  0  0  0  0  0  0  0  0  0  0  0
   35.9450   27.4720   37.4180 H   0  0  0  0  0  0  0  0  0  0  0  0
   33.9000   27.7630   37.1280 C   0  0  0  0  0  0  0  0  0  0  0  0
   33.4570   26.5990   36.5450 C   0  0  0  0  0  0  0  0  0  0  0  0
   32.3700   26.6680   35.6810 C   0  0  0  0  0  0  0  0  0  0  0  0
   31.7990   27.8900   35.4570 N   0  0  0  0  0  0  0  0  0  0  0  0
   32.2550   28.9940   36.0420 C   0  0  0  0  0  0  0  0  0  0  0  0
   33.2990   28.9000   36.8640 N   0  0  0  0  0  0  0  0  0  0  0  0
   33.7540   25.5660   36.6070 H   0  0  0  0  0  0  0  0  0  0  0  0
   31.8900   25.8650   35.1370 H   0  0  0  0  0  0  0  0  0  0  0  0
   31.5540   30.2490   35.7700 C   0  0  0  0  0  0  0  0  0  0  0  0
   31.6070   30.8220   34.5030 C   0  0  0  0  0  0  0  0  0  0  0  0
   30.9530   32.0120   34.2610 C   0  0  0  0  0  0  0  0  0  0  0  0
   30.2940   32.5260   35.3380 C   0  0  0  0  0  0  0  0  0  0  0  0
   30.2050   31.9990   36.6320 C   0  0  0  0  0  0  0  0  0  0  0  0
   30.8790   30.8220   36.7840 N   0  0  0  0  0  0  0  0  0  0  0  0
   32.1600   30.3390   33.7020 H   0  0  0  0  0  0  0  0  0  0  0  0
   30.9440   32.5140   33.3220 H   0  0  0  0  0  0  0  0  0  0  0  0
   29.7550   33.4760   35.1980 H   0  0  0  0  0  0  0  0  0  0  0  0
   29.6620   32.4820   37.4050 H   0  0  0  0  0  0  0  0  0  0  0  0
  1  3  1  0  0  0  0
  2  1  1  0  0  0  0
  4  1  1  0  0  0  0
  4  9  1  0  0  0  0
  5 10  1  0  0  0  0
  5  4  1  0  0  0  0
  6  7  1  0  0  0  0
  6  5  1  0  0  0  0
  7  8  1  0  0  0  0
  8 16  1  0  0  0  0
  8  9  2  0  0  0  0
  9 17  1  0  0  0  0
 11  5  1  0  0  0  0
 12  6  1  0  0  0  0
 13  6  1  0  0  0  0
 14  7  1  0  0  0  0
 15  7  1  0  0  0  0
 17 18  1  0  0  0  0
 18 26  1  0  0  0  0
 19 18  2  0  0  0  0
 19 21  1  0  0  0  0
 20 19  1  0  0  0  0
 21 22  2  0  0  0  0
 22 24  1  0  0  0  0
 22 23  1  0  0  0  0
 24 25  1  0  0  0  0
 26 24  2  0  0  0  0
 27  1  1  0  0  0  0
 27 28  1  0  0  0  0
 29 27  1  0  0  0  0
 30 27  1  0  0  0  0
 31 36  1  0  0  0  0
 31 30  2  0  0  0  0
 32 31  1  0  0  0  0
 33 32  2  0  0  0  0
 33 34  1  0  0  0  0
 34 35  2  0  0  0  0
 35 30  1  0  0  0  0
 37 32  1  0  0  0  0
 38 34  1  0  0  0  0
 38 43  1  0  0  0  0
 39 38  2  0  0  0  0
 40 39  1  0  0  0  0
 40 41  2  0  0  0  0
 41 42  1  0  0  0  0
 42 43  2  0  0  0  0
 42 47  1  0  0  0  0
 44 39  1  0  0  0  0
 45 40  1  0  0  0  0
 46 41  1  0  0  0  0
M  END
>  <minimizedAffinity>
-5.99948406

$$$$

 OpenBabel03252507053D

 47 50  0  0  0  0  0  0  0  0999 V2000
   39.4390   27.5890   40.9530 C   0  0  0  0  0  0  0  0  0  0  0  0
   40.2230   26.9080   40.5580 H   0  0  0  0  0  0  0  0  0  0  0  0
   39.9700   28.6010   40.9970 H   0  0  0  0  0  0  0  0  0  0  0  0
   38.9450   27.1980   42.1360 N   0  0  0  0  0  0  0  0  0  0  0  0
   39.1220   27.8440   43.4000 C   0  0  0  0  0  0  0  0  0  0  0  0
   37.7320   28.4610   43.5480 C   0  0  0  0  0  0  0  0  0  0  0  0
   36.6510   27.4900   43.5480 C   0  0  0  0  0  0  0  0  0  0  0  0
   36.8660   26.2090   42.9120 C   0  0  0  0  0  0  0  0  0  0  0  0
   38.1090   25.9810   42.0900 C   0  0  0  0  0  0  0  0  0  0  0  0
   39.4210   27.2620   44.2520 H   0  0  0  0  0  0  0  0  0  0  0  0
   39.8260   28.6950   43.2990 H   0  0  0  0  0  0  0  0  0  0  0  0
   37.6390   29.3080   42.8080 H   0  0  0  0  0  0  0  0  0  0  0  0
   37.7870   29.0080   44.5350 H   0  0  0  0  0  0  0  0  0  0  0  0
   35.7350   27.9550   43.0910 H   0  0  0  0  0  0  0  0  0  0  0  0
   36.3420   27.2730   44.6120 H   0  0  0  0  0  0  0  0  0  0  0  0
   36.1970   25.4110   42.9590 H   0  0  0  0  0  0  0  0  0  0  0  0
   38.4690   24.5260   41.2520 S   0  0  0  0  0  0  0  0  0  0  0  0
   37.2510   23.6610   40.4030 C   0  0  0  0  0  0  0  0  0  0  0  0
   37.8600   22.4380   40.0380 C   0  0  0  0  0  0  0  0  0  0  0  0
   38.8550   21.9900   40.1960 H   0  0  0  0  0  0  0  0  0  0  0  0
   37.1650   21.4630   39.3010 C   0  0  0  0  0  3  0  0  0  0  0  0
   35.8520   21.7370   38.9390 C   0  0  0  0  0  0  0  0  0  0  0  0
   35.2300   21.0540   38.3720 H   0  0  0  0  0  0  0  0  0  0  0  0
   35.2220   22.9120   39.2720 C   0  0  0  0  0  0  0  0  0  0  0  0
   34.2110   23.1960   39.0280 H   0  0  0  0  0  0  0  0  0  0  0  0
   35.9670   23.8030   39.9860 C   0  0  0  0  0  3  0  0  0  0  0  0
   38.4030   27.7750   39.9030 C   0  0  0  0  0  0  0  0  0  0  0  0
   37.6700   26.9410   39.8530 H   0  0  0  0  0  0  0  0  0  0  0  0
   38.8800   27.8240   38.8840 H   0  0  0  0  0  0  0  0  0  0  0  0
   37.7640   29.0850   40.1160 C   0  0  0  0  0  0  0  0  0  0  0  0
   36.4070   29.1770   40.3120 C   0  0  0  0  0  0  0  0  0  0  0  0
   35.8530   30.4390   40.5010 C   0  0  0  0  0  0  0  0  0  0  0  0
   36.6890   31.5210   40.4830 N   0  0  0  0  0  0  0  0  0  0  0  0
   37.9990   31.3900   40.2930 C   0  0  0  0  0  0  0  0  0  0  0  0
   38.5020   30.1710   40.1120 N   0  0  0  0  0  0  0  0  0  0  0  0
   35.6050   28.4610   40.3750 H   0  0  0  0  0  0  0  0  0  0  0  0
   34.8160   30.7010   40.6660 H   0  0  0  0  0  0  0  0  0  0  0  0
   38.8170   32.6030   40.3280 C   0  0  0  0  0  0  0  0  0  0  0  0
   40.1980   32.5130   40.4700 C   0  0  0  0  0  0  0  0  0  0  0  0
   40.9600   33.6610   40.5150 C   0  0  0  0  0  0  0  0  0  0  0  0
   40.2450   34.8190   40.4100 C   0  0  0  0  0  0  0  0  0  0  0  0
   38.8620   34.9730   40.2670 C   0  0  0  0  0  0  0  0  0  0  0  0
   38.1870   33.7870   40.2310 N   0  0  0  0  0  0  0  0  0  0  0  0
   40.6830   31.5430   40.5460 H   0  0  0  0  0  0  0  0  0  0  0  0
   42.0190   33.6790   40.6210 H   0  0  0  0  0  0  0  0  0  0  0  0
   40.8060   35.7660   40.4410 H   0  0  0  0  0  0  0  0  0  0  0  0
   38.4020   35.9260   40.1940 H   0  0  0  0  0  0  0  0  0  0  0  0
  1  3  1  0  0  0  0
  1  4  1  0  0  0  0
  2  1  1  0  0  0  0
  4  5  1  0  0  0  0
  5  6  1  0  0  0  0
  5 10  1  0  0  0  0
  6  7  1  0  0  0  0
  6 13  1  0  0  0  0
  7 15  1  0  0  0  0
  8 16  1  0  0  0  0
  8  7  1  0  0  0  0
  9  4  1  0  0  0  0
  9  8  2  0  0  0  0
 11  5  1  0  0  0  0
 12  6  1  0  0  0  0
 14  7  1  0  0  0  0
 17  9  1  0  0  0  0
 18 17  1  0  0  0  0
 19 20  1  0  0  0  0
 19 18  1  0  0  0  0
 21 19  2  0  0  0  0
 22 24  2  0  0  0  0
 22 21  1  0  0  0  0
 23 22  1  0  0  0  0
 24 26  1  0  0  0  0
 25 24  1  0  0  0  0
 26 18  2  0  0  0  0
 27 30  1  0  0  0  0
 27  1  1  0  0  0  0
 28 27  1  0  0  0  0
 29 27  1  0  0  0  0
 30 31  1  0  0  0  0
 31 36  1  0  0  0  0
 31 32  2  0  0  0  0
 32 37  1  0  0  0  0
 33 32  1  0  0  0  0
 34 38  1  0  0  0  0
 34 33  2  0  0  0  0
 35 30  2  0  0  0  0
 35 34  1  0  0  0  0
 38 39  1  0  0  0  0
 39 40  2  0  0  0  0
 39 44  1  0  0  0  0
 40 45  1  0  0  0  0
 41 46  1  0  0  0  0
 41 40  1  0  0  0  0
 42 41  2  0  0  0  0
 43 42  1  0  0  0  0
 43 38  2  0  0  0  0
 47 42  1  0  0  0  0
M  END
>  <minimizedAffinity>
-5.89981794

$$$$

 OpenBabel03252507053D

 47 50  0  0  0  0  0  0  0  0999 V2000
   39.2670   29.7610   40.8960 C   0  0  0  0  0  0  0  0  0  0  0  0
   38.7500   30.2530   40.0440 H   0  0  0  0  0  0  0  0  0  0  0  0
   40.3120   29.5500   40.4790 H   0  0  0  0  0  0  0  0  0  0  0  0
   38.6390   28.6620   41.3330 N   0  0  0  0  0  0  0  0  0  0  0  0
   39.1810   27.3410   41.4330 C   0  0  0  0  0  0  0  0  0  0  0  0
   39.3660   27.2750   42.9490 C   0  0  0  0  0  0  0  0  0  0  0  0
   38.1360   27.4480   43.7030 C   0  0  0  0  0  0  0  0  0  0  0  0
   37.0360   28.1570   43.0870 C   0  0  0  0  0  0  0  0  0  0  0  0
   37.2470   28.8750   41.7800 C   0  0  0  0  0  0  0  0  0  0  0  0
   38.6250   26.5130   41.0380 H   0  0  0  0  0  0  0  0  0  0  0  0
   40.2010   27.3130   40.9980 H   0  0  0  0  0  0  0  0  0  0  0  0
   40.2220   27.9540   43.2320 H   0  0  0  0  0  0  0  0  0  0  0  0
   39.8060   26.2480   43.1190 H   0  0  0  0  0  0  0  0  0  0  0  0
   38.3690   27.9500   44.6820 H   0  0  0  0  0  0  0  0  0  0  0  0
   37.7370   26.4350   44.0060 H   0  0  0  0  0  0  0  0  0  0  0  0
   36.0820   28.2310   43.5010 H   0  0  0  0  0  0  0  0  0  0  0  0
   36.0410   29.7850   40.9630 S   0  0  0  0  0  0  0  0  0  0  0  0
   35.7390   29.5620   39.2860 C   0  0  0  0  0  0  0  0  0  0  0  0
   34.4090   29.0840   39.2170 C   0  0  0  0  0  0  0  0  0  0  0  0
   33.6240   28.8690   39.9590 H   0  0  0  0  0  0  0  0  0  0  0  0
   33.8090   28.7650   37.9860 C   0  0  0  0  0  3  0  0  0  0  0  0
   34.5630   28.9340   36.8330 C   0  0  0  0  0  0  0  0  0  0  0  0
   34.1940   28.7180   35.8360 H   0  0  0  0  0  0  0  0  0  0  0  0
   35.8570   29.3950   36.8550 C   0  0  0  0  0  0  0  0  0  0  0  0
   36.5030   29.5510   36.0050 H   0  0  0  0  0  0  0  0  0  0  0  0
   36.3640   29.6800   38.0870 C   0  0  0  0  0  3  0  0  0  0  0  0
   39.5040   30.7780   41.9540 C   0  0  0  0  0  0  0  0  0  0  0  0
   40.2540   30.4610   42.7100 H   0  0  0  0  0  0  0  0  0  0  0  0
   38.5560   30.9780   42.5280 H   0  0  0  0  0  0  0  0  0  0  0  0
   39.8570   32.0490   41.2980 C   0  0  0  0  0  0  0  0  0  0  0  0
   38.8740   32.9090   40.8680 C   0  0  0  0  0  0  0  0  0  0  0  0
   39.2600   34.0920   40.2480 C   0  0  0  0  0  0  0  0  0  0  0  0
   40.5970   34.3380   40.1000 N   0  0  0  0  0  0  0  0  0  0  0  0
   41.5180   33.4810   40.5300 C   0  0  0  0  0  0  0  0  0  0  0  0
   41.1210   32.3540   41.1190 N   0  0  0  0  0  0  0  0  0  0  0  0
   37.7980   32.9030   40.9080 H   0  0  0  0  0  0  0  0  0  0  0  0
   38.6330   34.8800   39.8490 H   0  0  0  0  0  0  0  0  0  0  0  0
   42.9240   33.8480   40.3600 C   0  0  0  0  0  0  0  0  0  0  0  0
   43.5350   33.7280   39.1160 C   0  0  0  0  0  0  0  0  0  0  0  0
   44.8640   34.0650   38.9690 C   0  0  0  0  0  0  0  0  0  0  0  0
   45.4680   34.5010   40.1120 C   0  0  0  0  0  0  0  0  0  0  0  0
   44.9090   34.6420   41.3870 C   0  0  0  0  0  0  0  0  0  0  0  0
   43.5920   34.2870   41.4430 N   0  0  0  0  0  0  0  0  0  0  0  0
   42.9730   33.3710   38.2570 H   0  0  0  0  0  0  0  0  0  0  0  0
   45.4040   34.0030   38.0530 H   0  0  0  0  0  0  0  0  0  0  0  0
   46.5310   34.7830   40.0490 H   0  0  0  0  0  0  0  0  0  0  0  0
   45.4700   34.9920   42.2170 H   0  0  0  0  0  0  0  0  0  0  0  0
  1  4  1  0  0  0  0
  1 27  1  0  0  0  0
  2  1  1  0  0  0  0
  3  1  1  0  0  0  0
  4  5  1  0  0  0  0
  4  9  1  0  0  0  0
  5  6  1  0  0  0  0
  6 13  1  0  0  0  0
  6 12  1  0  0  0  0
  6  7  1  0  0  0  0
  7 15  1  0  0  0  0
  7 14  1  0  0  0  0
  8 16  1  0  0  0  0
  8  7  1  0  0  0  0
  9  8  2  0  0  0  0
 10  5  1  0  0  0  0
 11  5  1  0  0  0  0
 17  9  1  0  0  0  0
 18 17  1  0  0  0  0
 19 18  1  0  0  0  0
 19 20  1  0  0  0  0
 21 19  2  0  0  0  0
 22 24  2  0  0  0  0
 22 21  1  0  0  0  0
 23 22  1  0  0  0  0
 24 26  1  0  0  0  0
 25 24  1  0  0  0  0
 26 18  2  0  0  0  0
 27 29  1  0  0  0  0
 27 28  1  0  0  0  0
 30 27  1  0  0  0  0
 31 36  1  0  0  0  0
 31 30  2  0  0  0  0
 32 31  1  0  0  0  0
 33 32  2  0  0  0  0
 33 34  1  0  0  0  0
 34 35  2  0  0  0  0
 35 30  1  0  0  0  0
 37 32  1  0  0  0  0
 38 34  1  0  0  0  0
 38 43  1  0  0  0  0
 39 38  2  0  0  0  0
 40 39  1  0  0  0  0
 40 41  2  0  0  0  0
 41 42  1  0  0  0  0
 42 43  2  0  0  0  0
 42 47  1  0  0  0  0
 44 39  1  0  0  0  0
 45 40  1  0  0  0  0
 46 41  1  0  0  0  0
M  END
>  <minimizedAffinity>
-5.8766017

$$$$

 OpenBabel03252507053D

 47 50  0  0  0  0  0  0  0  0999 V2000
   38.3080   27.1800   39.7330 C   0  0  0  0  0  0  0  0  0  0  0  0
   39.1810   26.6650   39.2780 H   0  0  0  0  0  0  0  0  0  0  0  0
   38.7890   27.8830   40.4970 H   0  0  0  0  0  0  0  0  0  0  0  0
   37.4190   26.3380   40.2750 N   0  0  0  0  0  0  0  0  0  0  0  0
   36.4530   25.5410   39.5830 C   0  0  0  0  0  0  0  0  0  0  0  0
   37.1290   24.1770   39.7180 C   0  0  0  0  0  0  0  0  0  0  0  0
   37.3410   23.7550   41.0920 C   0  0  0  0  0  0  0  0  0  0  0  0
   37.4170   24.7640   42.1260 C   0  0  0  0  0  0  0  0  0  0  0  0
   37.4870   26.2210   41.7460 C   0  0  0  0  0  0  0  0  0  0  0  0
   35.4320   25.5430   39.9160 H   0  0  0  0  0  0  0  0  0  0  0  0
   36.4640   25.7830   38.5010 H   0  0  0  0  0  0  0  0  0  0  0  0
   38.0390   24.1650   39.0500 H   0  0  0  0  0  0  0  0  0  0  0  0
   36.4250   23.4760   39.1810 H   0  0  0  0  0  0  0  0  0  0  0  0
   38.2720   23.1290   41.1490 H   0  0  0  0  0  0  0  0  0  0  0  0
   36.5170   23.0450   41.3970 H   0  0  0  0  0  0  0  0  0  0  0  0
   37.4510   24.5560   43.1470 H   0  0  0  0  0  0  0  0  0  0  0  0
   37.6210   27.5150   42.8680 S   0  0  0  0  0  0  0  0  0  0  0  0
   38.9280   28.6270   42.7960 C   0  0  0  0  0  0  0  0  0  0  0  0
   40.0910   27.8280   42.9010 C   0  0  0  0  0  0  0  0  0  0  0  0
   40.2820   26.7470   42.9950 H   0  0  0  0  0  0  0  0  0  0  0  0
   41.3760   28.4000   42.8990 C   0  0  0  0  0  3  0  0  0  0  0  0
   41.4710   29.7810   42.7900 C   0  0  0  0  0  0  0  0  0  0  0  0
   42.4120   30.3190   42.7780 H   0  0  0  0  0  0  0  0  0  0  0  0
   40.3680   30.5930   42.6860 C   0  0  0  0  0  0  0  0  0  0  0  0
   40.3620   31.6690   42.5980 H   0  0  0  0  0  0  0  0  0  0  0  0
   39.1620   29.9600   42.6960 C   0  0  0  0  0  3  0  0  0  0  0  0
   37.7240   28.1000   38.7220 C   0  0  0  0  0  0  0  0  0  0  0  0
   36.8540   27.6680   38.1820 H   0  0  0  0  0  0  0  0  0  0  0  0
   38.4840   28.3470   37.9290 H   0  0  0  0  0  0  0  0  0  0  0  0
   37.4060   29.3740   39.3900 C   0  0  0  0  0  0  0  0  0  0  0  0
   36.2560   29.5060   40.1320 C   0  0  0  0  0  0  0  0  0  0  0  0
   35.9990   30.7320   40.7350 C   0  0  0  0  0  0  0  0  0  0  0  0
   36.9050   31.7410   40.5610 N   0  0  0  0  0  0  0  0  0  0  0  0
   38.0080   31.5730   39.8370 C   0  0  0  0  0  0  0  0  0  0  0  0
   38.2290   30.3900   39.2670 N   0  0  0  0  0  0  0  0  0  0  0  0
   35.4490   28.8430   40.3940 H   0  0  0  0  0  0  0  0  0  0  0  0
   35.1540   31.0170   41.3480 H   0  0  0  0  0  0  0  0  0  0  0  0
   38.9380   32.7000   39.7380 C   0  0  0  0  0  0  0  0  0  0  0  0
   40.1660   32.5420   39.1030 C   0  0  0  0  0  0  0  0  0  0  0  0
   41.0390   33.6070   39.0270 C   0  0  0  0  0  0  0  0  0  0  0  0
   40.5870   34.7540   39.6080 C   0  0  0  0  0  0  0  0  0  0  0  0
   39.3680   34.9720   40.2600 C   0  0  0  0  0  0  0  0  0  0  0  0
   38.5650   33.8690   40.2890 N   0  0  0  0  0  0  0  0  0  0  0  0
   40.4420   31.5870   38.6660 H   0  0  0  0  0  0  0  0  0  0  0  0
   41.9950   33.5690   38.5590 H   0  0  0  0  0  0  0  0  0  0  0  0
   41.2470   35.6350   39.5760 H   0  0  0  0  0  0  0  0  0  0  0  0
   39.1100   35.9120   40.6820 H   0  0  0  0  0  0  0  0  0  0  0  0
  1  4  1  0  0  0  0
  1  3  1  0  0  0  0
  2  1  1  0  0  0  0
  4  9  1  0  0  0  0
  5  6  1  0  0  0  0
  5 10  1  0  0  0  0
  5  4  1  0  0  0  0
  6  7  1  0  0  0  0
  7 14  1  0  0  0  0
  7 15  1  0  0  0  0
  7  8  1  0  0  0  0
  8 16  1  0  0  0  0
  9  8  2  0  0  0  0
  9 17  1  0  0  0  0
 11  5  1  0  0  0  0
 12  6  1  0  0  0  0
 13  6  1  0  0  0  0
 18 17  1  0  0  0  0
 18 19  1  0  0  0  0
 19 20  1  0  0  0  0
 21 19  2  0  0  0  0
 22 21  1  0  0  0  0
 23 22  1  0  0  0  0
 24 26  1  0  0  0  0
 24 22  2  0  0  0  0
 25 24  1  0  0  0  0
 26 18  2  0  0  0  0
 27 30  1  0  0  0  0
 27  1  1  0  0  0  0
 28 27  1  0  0  0  0
 29 27  1  0  0  0  0
 30 31  1  0  0  0  0
 31 36  1  0  0  0  0
 31 32  2  0  0  0  0
 32 37  1  0  0  0  0
 33 32  1  0  0  0  0
 34 33  2  0  0  0  0
 35 30  2  0  0  0  0
 35 34  1  0  0  0  0
 38 34  1  0  0  0  0
 38 43  1  0  0  0  0
 39 38  2  0  0  0  0
 40 39  1  0  0  0  0
 40 41  2  0  0  0  0
 41 42  1  0  0  0  0
 42 43  2  0  0  0  0
 42 47  1  0  0  0  0
 44 39  1  0  0  0  0
 45 40  1  0  0  0  0
 46 41  1  0  0  0  0
M  END
>  <minimizedAffinity>
-5.83694267

$$$$

 OpenBabel03252507053D

 47 50  0  0  0  0  0  0  0  0999 V2000
   37.0990   28.2770   37.2620 C   0  0  0  0  0  0  0  0  0  0  0  0
   37.3270   28.1110   36.1870 H   0  0  0  0  0  0  0  0  0  0  0  0
   38.0620   28.7500   37.6610 H   0  0  0  0  0  0  0  0  0  0  0  0
   36.7510   27.1570   37.9090 N   0  0  0  0  0  0  0  0  0  0  0  0
   35.4680   26.5240   37.9080 C   0  0  0  0  0  0  0  0  0  0  0  0
   35.7870   25.3420   36.9930 C   0  0  0  0  0  0  0  0  0  0  0  0
   36.8490   24.4820   37.4860 C   0  0  0  0  0  0  0  0  0  0  0  0
   37.8190   25.0330   38.4080 C   0  0  0  0  0  0  0  0  0  0  0  0
   37.8400   26.5160   38.6740 C   0  0  0  0  0  0  0  0  0  0  0  0
   35.0250   26.2310   38.8410 H   0  0  0  0  0  0  0  0  0  0  0  0
   34.7350   27.1490   37.3590 H   0  0  0  0  0  0  0  0  0  0  0  0
   35.9110   25.7320   35.9410 H   0  0  0  0  0  0  0  0  0  0  0  0
   34.8080   24.7830   36.9300 H   0  0  0  0  0  0  0  0  0  0  0  0
   37.4080   24.0450   36.6140 H   0  0  0  0  0  0  0  0  0  0  0  0
   36.3960   23.5820   37.9970 H   0  0  0  0  0  0  0  0  0  0  0  0
   38.5440   24.4690   38.9010 H   0  0  0  0  0  0  0  0  0  0  0  0
   38.9600   27.3030   39.7110 S   0  0  0  0  0  0  0  0  0  0  0  0
   38.5020   27.8370   41.2780 C   0  0  0  0  0  0  0  0  0  0  0  0
   37.3930   27.0310   41.6280 C   0  0  0  0  0  0  0  0  0  0  0  0
   36.8470   26.2090   41.1360 H   0  0  0  0  0  0  0  0  0  0  0  0
   36.7260   27.1940   42.8550 C   0  0  0  0  0  3  0  0  0  0  0  0
   37.1890   28.1760   43.7200 C   0  0  0  0  0  0  0  0  0  0  0  0
   36.7470   28.3820   44.6880 H   0  0  0  0  0  0  0  0  0  0  0  0
   38.2610   28.9810   43.4200 C   0  0  0  0  0  0  0  0  0  0  0  0
   38.6780   29.7620   44.0380 H   0  0  0  0  0  0  0  0  0  0  0  0
   38.8510   28.7590   42.2120 C   0  0  0  0  0  3  0  0  0  0  0  0
   36.0950   29.3680   37.3680 C   0  0  0  0  0  0  0  0  0  0  0  0
   35.0460   29.0110   37.2920 H   0  0  0  0  0  0  0  0  0  0  0  0
   36.2290   30.1100   36.5310 H   0  0  0  0  0  0  0  0  0  0  0  0
   36.3560   30.1120   38.6130 C   0  0  0  0  0  0  0  0  0  0  0  0
   35.6790   29.7990   39.7680 C   0  0  0  0  0  0  0  0  0  0  0  0
   35.9570   30.5370   40.9140 C   0  0  0  0  0  0  0  0  0  0  0  0
   36.8910   31.5320   40.8310 N   0  0  0  0  0  0  0  0  0  0  0  0
   37.5270   31.8020   39.6950 C   0  0  0  0  0  0  0  0  0  0  0  0
   37.2390   31.0830   38.6120 N   0  0  0  0  0  0  0  0  0  0  0  0
   34.9410   29.0610   40.0320 H   0  0  0  0  0  0  0  0  0  0  0  0
   35.5260   30.4350   41.9020 H   0  0  0  0  0  0  0  0  0  0  0  0
   38.5370   32.8610   39.7130 C   0  0  0  0  0  0  0  0  0  0  0  0
   38.2030   34.1420   40.1440 C   0  0  0  0  0  0  0  0  0  0  0  0
   39.1590   35.1350   40.1460 C   0  0  0  0  0  0  0  0  0  0  0  0
   40.3880   34.7400   39.7060 C   0  0  0  0  0  0  0  0  0  0  0  0
   40.7830   33.4740   39.2610 C   0  0  0  0  0  0  0  0  0  0  0  0
   39.7770   32.5520   39.2920 N   0  0  0  0  0  0  0  0  0  0  0  0
   37.1940   34.3650   40.4800 H   0  0  0  0  0  0  0  0  0  0  0  0
   38.9850   36.1380   40.4600 H   0  0  0  0  0  0  0  0  0  0  0  0
   41.1880   35.4970   39.6870 H   0  0  0  0  0  0  0  0  0  0  0  0
   41.7720   33.2690   38.9370 H   0  0  0  0  0  0  0  0  0  0  0  0
  1 27  1  0  0  0  0
  1  3  1  0  0  0  0
  1  4  1  0  0  0  0
  2  1  1  0  0  0  0
  4  9  1  0  0  0  0
  5  4  1  0  0  0  0
  5 10  1  0  0  0  0
  6  7  1  0  0  0  0
  6  5  1  0  0  0  0
  7 15  1  0  0  0  0
  7  8  1  0  0  0  0
  8  9  2  0  0  0  0
  8 16  1  0  0  0  0
  9 17  1  0  0  0  0
 11  5  1  0  0  0  0
 12  6  1  0  0  0  0
 13  6  1  0  0  0  0
 14  7  1  0  0  0  0
 17 18  1  0  0  0  0
 18 19  2  0  0  0  0
 18 26  1  0  0  0  0
 19 21  1  0  0  0  0
 20 19  1  0  0  0  0
 21 22  2  0  0  0  0
 22 23  1  0  0  0  0
 24 22  1  0  0  0  0
 24 25  1  0  0  0  0
 26 24  2  0  0  0  0
 27 30  1  0  0  0  0
 28 27  1  0  0  0  0
 29 27  1  0  0  0  0
 30 31  1  0  0  0  0
 31 36  1  0  0  0  0
 31 32  2  0  0  0  0
 32 37  1  0  0  0  0
 33 32  1  0  0  0  0
 34 38  1  0  0  0  0
 34 33  2  0  0  0  0
 35 30  2  0  0  0  0
 35 34  1  0  0  0  0
 38 39  1  0  0  0  0
 39 40  2  0  0  0  0
 39 44  1  0  0  0  0
 40 45  1  0  0  0  0
 41 40  1  0  0  0  0
 42 43  1  0  0  0  0
 42 41  2  0  0  0  0
 43 38  2  0  0  0  0
 46 41  1  0  0  0  0
 47 42  1  0  0  0  0
M  END
>  <minimizedAffinity>
-5.83062553

$$$$
