
     RDKit          3D

 44 47  0  0  0  0  0  0  0  0999 V2000
   49.3452   33.2259   41.4953 N   0  0  0  0  0  0  0  0  0  0  0  0
   50.6673   33.1281   42.0551 C   0  0  0  0  0  0  0  0  0  0  0  0
   51.3320   31.8087   41.7822 C   0  0  0  0  0  0  0  0  0  0  0  0
   50.5891   30.7276   42.5372 C   0  0  0  0  0  0  0  0  0  0  0  0
   49.1058   30.9997   42.5305 C   0  0  0  0  0  0  0  0  0  0  0  0
   48.7628   31.9115   41.3623 C   0  0  2  0  0  0  0  0  0  0  0  0
   47.1860   34.5467   42.0145 C   0  0  1  0  0  0  0  0  0  0  0  0
   48.2818   35.4511   41.6869 C   0  0  0  0  0  0  0  0  0  0  0  0
   48.6100   34.1323   42.3105 C   0  0  2  0  0  0  0  0  0  0  0  0
   45.5198   36.0303   43.1694 C   0  0  0  0  0  0  0  0  0  0  0  0
   46.2793   34.8335   43.1540 C   0  0  0  0  0  0  0  0  0  0  0  0
   46.1504   33.9557   44.2274 C   0  0  0  0  0  0  0  0  0  0  0  0
   45.3046   34.3043   45.2197 N   0  0  0  0  0  0  0  0  0  0  0  0
   44.5917   35.4421   45.2201 C   0  0  0  0  0  0  0  0  0  0  0  0
   44.6894   36.3197   44.1959 N   0  0  0  0  0  0  0  0  0  0  0  0
   49.0644   31.2399   40.1420 N   0  0  0  0  0  0  0  0  0  0  0  0
   50.6582   33.2693   43.1676 H   0  0  0  0  0  0  0  0  0  0  0  0
   51.2920   33.9090   41.5685 H   0  0  0  0  0  0  0  0  0  0  0  0
   51.4817   31.6021   40.7211 H   0  0  0  0  0  0  0  0  0  0  0  0
   52.3444   31.8866   42.2598 H   0  0  0  0  0  0  0  0  0  0  0  0
   51.0066   30.5323   43.5380 H   0  0  0  0  0  0  0  0  0  0  0  0
   50.7325   29.7965   41.9298 H   0  0  0  0  0  0  0  0  0  0  0  0
   48.5177   30.0762   42.3820 H   0  0  0  0  0  0  0  0  0  0  0  0
   48.8223   31.4588   43.4774 H   0  0  0  0  0  0  0  0  0  0  0  0
   47.6566   32.0514   41.4139 H   0  0  0  0  0  0  0  0  0  0  0  0
   46.7121   33.8559   41.2779 H   0  0  0  0  0  0  0  0  0  0  0  0
   48.3561   36.3827   42.3101 H   0  0  0  0  0  0  0  0  0  0  0  0
   48.4898   35.6302   40.6187 H   0  0  0  0  0  0  0  0  0  0  0  0
   48.8607   34.1326   43.3914 H   0  0  0  0  0  0  0  0  0  0  0  0
   45.6405   36.6928   42.3223 H   0  0  0  0  0  0  0  0  0  0  0  0
   46.7113   33.0431   44.2442 H   0  0  0  0  0  0  0  0  0  0  0  0
   43.9356   35.6398   46.0620 H   0  0  0  0  0  0  0  0  0  0  0  0
   49.5418   30.2878   40.1955 H   0  0  0  0  0  0  0  0  0  0  0  0
   48.8043   31.6887   38.8207 C   0  0  0  0  0  0  0  0  0  0  0  0
   49.1005   31.0002   37.6795 C   0  0  0  0  0  0  0  0  0  0  0  0
   49.5637   30.0315   37.7519 H   0  0  0  0  0  0  0  0  0  0  0  0
   48.8558   31.4303   36.4049 C   0  0  0  0  0  0  0  0  0  0  0  0
   48.2656   32.6475   36.2155 C   0  0  0  0  0  0  0  0  0  0  0  0
   48.0472   33.0419   35.2456 H   0  0  0  0  0  0  0  0  0  0  0  0
   47.9427   33.3887   37.3120 C   0  0  0  0  0  0  0  0  0  0  0  0
   47.4732   34.3577   37.1714 H   0  0  0  0  0  0  0  0  0  0  0  0
   48.2104   32.9099   38.5692 C   0  0  0  0  0  0  0  0  0  0  0  0
   49.1124   30.8416   35.5369 H   0  0  0  0  0  0  0  0  0  0  0  0
   47.9168   33.5728   39.3969 H   0  0  0  0  0  0  0  0  0  0  0  0
  1  2  1  0
  1  9  1  0
  3  2  1  0
  3  4  1  0
  5  4  1  0
  6  1  1  0
  6  5  1  0
  7  9  1  0
  7 11  1  0
  8  7  1  0
  8  9  1  0
 10 15  2  0
 11 10  1  0
 11 12  2  0
 12 13  1  0
 14 13  2  0
 15 14  1  0
 16  6  1  0
  2 17  1  0
  2 18  1  0
  3 19  1  0
  3 20  1  0
  4 21  1  0
  4 22  1  0
  5 23  1  0
  5 24  1  0
  6 25  1  6
  7 26  1  6
  8 27  1  0
  8 28  1  0
  9 29  1  1
 10 30  1  0
 12 31  1  0
 14 32  1  0
 16 33  1  0
 34 35  2  0
 35 36  1  0
 35 37  1  0
 37 38  2  0
 38 39  1  0
 38 40  1  0
 40 41  1  0
 40 42  2  0
 42 34  1  0
 37 43  1  0
 42 44  1  0
 16 34  1  0
M  ISO  8  17  13  18  13  19  13  20  13  21  13  22  13  23  13  24  13
M  ISO  8  25  13  26  13  27  13  28  13  29  13  30  14  31  14  32  14
M  ISO  4  33   5  36  16  39  16  41  16
M  END
>  <DihAtoms>  (1) 
5,15,33,34

>  <DihDeg>  (1) 
0.735832035253022

$$$$
