REMARK  Name = 
REMARK  4 active torsions:
REMARK  status: ('A' for Active; 'I' for Inactive)
REMARK    1  A    between atoms: N_1  and  C_9
REMARK    2  A    between atoms: C_6  and  N_16
REMARK    3  A    between atoms: C_7  and  C_11
REMARK    4  A    between atoms: N_16  and  C_34
REMARK                            x       y       z     vdW  Elec       q    Type
REMARK                         _______ _______ _______ _____ _____    ______ ____
ROOT
ATOM      1  N   UNL     1      49.345  33.226  41.495  0.00  0.00    +0.000 NA
ATOM      2  C   UNL     1      50.667  33.128  42.055  0.00  0.00    +0.000 C 
ATOM      3  C   UNL     1      51.332  31.809  41.782  0.00  0.00    +0.000 C 
ATOM      4  C   UNL     1      50.589  30.728  42.537  0.00  0.00    +0.000 C 
ATOM      5  C   UNL     1      49.106  31.000  42.531  0.00  0.00    +0.000 C 
ATOM      6  C   UNL     1      48.763  31.912  41.362  0.00  0.00    +0.000 C 
ATOM      7  H   UNL     1      50.658  33.269  43.168  0.00  0.00    +0.000 HD
ATOM      8  H   UNL     1      51.292  33.909  41.569  0.00  0.00    +0.000 HD
ATOM      9  H   UNL     1      51.482  31.602  40.721  0.00  0.00    +0.000 HD
ATOM     10  H   UNL     1      52.344  31.887  42.260  0.00  0.00    +0.000 HD
ATOM     11  H   UNL     1      51.007  30.532  43.538  0.00  0.00    +0.000 HD
ATOM     12  H   UNL     1      50.733  29.797  41.930  0.00  0.00    +0.000 HD
ATOM     13  H   UNL     1      48.518  30.076  42.382  0.00  0.00    +0.000 HD
ATOM     14  H   UNL     1      48.822  31.459  43.477  0.00  0.00    +0.000 HD
ATOM     15  H   UNL     1      47.657  32.051  41.414  0.00  0.00    +0.000 HD
ENDROOT
BRANCH   1  18
ATOM     16  C   UNL     1      47.186  34.547  42.014  0.00  0.00    +0.000 C 
ATOM     17  C   UNL     1      48.282  35.451  41.687  0.00  0.00    +0.000 C 
ATOM     18  C   UNL     1      48.610  34.132  42.310  0.00  0.00    +0.000 C 
ATOM     19  H   UNL     1      46.712  33.856  41.278  0.00  0.00    +0.000 HD
ATOM     20  H   UNL     1      48.356  36.383  42.310  0.00  0.00    +0.000 HD
ATOM     21  H   UNL     1      48.490  35.630  40.619  0.00  0.00    +0.000 HD
ATOM     22  H   UNL     1      48.861  34.133  43.391  0.00  0.00    +0.000 HD
BRANCH  16  24
ATOM     23  C   UNL     1      45.520  36.030  43.169  0.00  0.00    +0.000 A 
ATOM     24  C   UNL     1      46.279  34.834  43.154  0.00  0.00    +0.000 A 
ATOM     25  C   UNL     1      46.150  33.956  44.227  0.00  0.00    +0.000 A 
ATOM     26  N   UNL     1      45.305  34.304  45.220  0.00  0.00    +0.000 NA
ATOM     27  C   UNL     1      44.592  35.442  45.220  0.00  0.00    +0.000 A 
ATOM     28  N   UNL     1      44.689  36.320  44.196  0.00  0.00    +0.000 NA
ATOM     29  H   UNL     1      45.641  36.693  42.322  0.00  0.00    +0.000 HD
ATOM     30  H   UNL     1      46.711  33.043  44.244  0.00  0.00    +0.000 HD
ATOM     31  H   UNL     1      43.936  35.640  46.062  0.00  0.00    +0.000 HD
ENDBRANCH  16  24
ENDBRANCH   1  18
BRANCH   6  32
ATOM     32  N   UNL     1      49.064  31.240  40.142  0.00  0.00    +0.000 N 
ATOM     33  H   UNL     1      49.542  30.288  40.196  0.00  0.00    +0.000 HD
BRANCH  32  34
ATOM     34  C   UNL     1      48.804  31.689  38.821  0.00  0.00    +0.000 A 
ATOM     35  C   UNL     1      47.572  31.988  38.316  0.00  0.00    +0.000 A 
ATOM     36  H   UNL     1      46.705  31.893  38.947  0.00  0.00    +0.000 HD
ATOM     37  C   UNL     1      47.316  32.416  37.043  0.00  0.00    +0.000 A 
ATOM     38  C   UNL     1      48.356  32.571  36.172  0.00  0.00    +0.000 A 
ATOM     39  H   UNL     1      48.224  32.902  35.163  0.00  0.00    +0.000 HD
ATOM     40  C   UNL     1      49.615  32.290  36.609  0.00  0.00    +0.000 A 
ATOM     41  H   UNL     1      50.449  32.410  35.924  0.00  0.00    +0.000 HD
ATOM     42  C   UNL     1      49.816  31.863  37.897  0.00  0.00    +0.000 A 
ENDBRANCH  32  34
ENDBRANCH   6  32
TORSDOF 4
