
 OpenBabel03242520133D

 34 36  0  0  0  0  0  0  0  0999 V2000
   39.8130   30.3500   41.9380 C   0  0  0  0  0  0  0  0  0  0  0  0
   41.0040   29.7020   41.9930 C   0  0  0  0  0  0  0  0  0  0  0  0
   41.0730   28.4880   42.6480 C   0  0  0  0  0  0  0  0  0  0  0  0
   39.9470   27.9450   43.2350 C   0  0  0  0  0  0  0  0  0  0  0  0
   38.7470   28.6390   43.1560 C   0  0  0  0  0  0  0  0  0  0  0  0
   38.7230   29.7920   42.5240 N   0  0  0  0  0  0  0  0  0  0  0  0
   41.8330   30.2020   41.5060 H   0  0  0  0  0  0  0  0  0  0  0  0
   42.0450   28.0030   42.6690 H   0  0  0  0  0  0  0  0  0  0  0  0
   40.0020   27.0100   43.7370 H   0  0  0  0  0  0  0  0  0  0  0  0
   38.2180   33.1860   40.2640 C   0  0  0  0  0  0  0  0  0  0  0  0
   39.3270   34.0330   40.0430 C   0  0  0  0  0  0  0  0  0  0  0  0
   40.6180   33.6280   40.4680 C   0  0  0  0  0  0  0  0  0  0  0  0
   40.6700   32.4290   41.0660 N   0  0  0  0  0  0  0  0  0  0  0  0
   39.6310   31.6390   41.2720 C   0  0  0  0  0  0  0  0  0  0  0  0
   38.4190   32.0330   40.8660 N   0  0  0  0  0  0  0  0  0  0  0  0
   36.9490   33.6190   39.8280 N   0  0  0  0  0  0  0  0  0  0  0  0
   39.2610   35.0020   39.5550 H   0  0  0  0  0  0  0  0  0  0  0  0
   41.4430   34.2780   40.2940 H   0  0  0  0  0  0  0  0  0  0  0  0
   36.7720   33.5000   38.8110 H   0  0  0  0  0  0  0  0  0  0  0  0
   36.3550   34.0090   40.6150 H   0  0  0  0  0  0  0  0  0  0  0  0
   37.5140   28.1250   43.7550 C   0  0  0  0  0  3  0  0  0  0  0  0
   36.5540   27.5490   43.0530 C   0  0  0  0  0  3  0  0  0  0  0  0
   36.6430   27.3730   41.5920 C   0  0  0  0  0  0  0  0  0  0  0  0
   37.2180   28.1880   41.0980 H   0  0  0  0  0  0  0  0  0  0  0  0
   35.6550   27.3740   41.0900 H   0  0  0  0  0  0  0  0  0  0  0  0
   37.3000   26.0540   41.3520 C   0  0  0  0  0  0  0  0  0  0  0  0
   36.9780   24.8370   41.9280 C   0  0  0  0  0  0  0  0  0  0  0  0
   36.1600   24.8750   42.6230 H   0  0  0  0  0  0  0  0  0  0  0  0
   37.7020   23.7140   41.5840 C   0  0  0  0  0  3  0  0  0  0  0  0
   38.7460   23.7370   40.6810 C   0  0  0  0  0  0  0  0  0  0  0  0
   39.3060   22.8500   40.4180 H   0  0  0  0  0  0  0  0  0  0  0  0
   39.0880   24.9380   40.0900 C   0  0  0  0  0  0  0  0  0  0  0  0
   39.8970   24.9960   39.3800 H   0  0  0  0  0  0  0  0  0  0  0  0
   38.3560   26.0530   40.4450 C   0  0  0  0  0  3  0  0  0  0  0  0
  1  2  2  0  0  0  0
  1  6  1  0  0  0  0
  2  3  1  0  0  0  0
  3  8  1  0  0  0  0
  3  4  2  0  0  0  0
  4  9  1  0  0  0  0
  5  4  1  0  0  0  0
  5 21  1  0  0  0  0
  6  5  2  0  0  0  0
  7  2  1  0  0  0  0
 10 15  1  0  0  0  0
 11 10  2  0  0  0  0
 11 12  1  0  0  0  0
 12 13  2  0  0  0  0
 13 14  1  0  0  0  0
 14  1  1  0  0  0  0
 15 14  2  0  0  0  0
 16 10  1  0  0  0  0
 16 20  1  0  0  0  0
 17 11  1  0  0  0  0
 18 12  1  0  0  0  0
 19 16  1  0  0  0  0
 22 21  2  0  0  0  0
 23 22  1  0  0  0  0
 24 23  1  0  0  0  0
 25 23  1  0  0  0  0
 26 23  1  0  0  0  0
 26 27  1  0  0  0  0
 27 28  1  0  0  0  0
 29 27  2  0  0  0  0
 30 29  1  0  0  0  0
 31 30  1  0  0  0  0
 32 34  1  0  0  0  0
 32 30  2  0  0  0  0
 33 32  1  0  0  0  0
 34 26  2  0  0  0  0
M  END
>  <minimizedAffinity>
-6.32746601

$$$$

 OpenBabel03242520133D

 34 36  0  0  0  0  0  0  0  0999 V2000
   39.7710   30.4410   41.9040 C   0  0  0  0  0  0  0  0  0  0  0  0
   40.9610   29.7900   41.9630 C   0  0  0  0  0  0  0  0  0  0  0  0
   41.0260   28.5760   42.6190 C   0  0  0  0  0  0  0  0  0  0  0  0
   39.8980   28.0360   43.2040 C   0  0  0  0  0  0  0  0  0  0  0  0
   38.6990   28.7330   43.1220 C   0  0  0  0  0  0  0  0  0  0  0  0
   38.6790   29.8860   42.4880 N   0  0  0  0  0  0  0  0  0  0  0  0
   41.7920   30.2880   41.4770 H   0  0  0  0  0  0  0  0  0  0  0  0
   41.9970   28.0890   42.6430 H   0  0  0  0  0  0  0  0  0  0  0  0
   39.9500   27.1010   43.7070 H   0  0  0  0  0  0  0  0  0  0  0  0
   38.1910   33.2680   40.2020 C   0  0  0  0  0  0  0  0  0  0  0  0
   39.2980   34.1230   40.0070 C   0  0  0  0  0  0  0  0  0  0  0  0
   40.5830   33.7280   40.4580 C   0  0  0  0  0  0  0  0  0  0  0  0
   40.6310   32.5280   41.0550 N   0  0  0  0  0  0  0  0  0  0  0  0
   39.5940   31.7290   41.2370 C   0  0  0  0  0  0  0  0  0  0  0  0
   38.3880   32.1150   40.8070 N   0  0  0  0  0  0  0  0  0  0  0  0
   36.9280   33.6920   39.7400 N   0  0  0  0  0  0  0  0  0  0  0  0
   39.2340   35.0930   39.5190 H   0  0  0  0  0  0  0  0  0  0  0  0
   41.4060   34.3840   40.3030 H   0  0  0  0  0  0  0  0  0  0  0  0
   36.7740   33.5730   38.7190 H   0  0  0  0  0  0  0  0  0  0  0  0
   36.3140   34.0750   40.5150 H   0  0  0  0  0  0  0  0  0  0  0  0
   37.4630   28.2210   43.7170 C   0  0  0  0  0  3  0  0  0  0  0  0
   36.6630   27.3670   43.1050 C   0  0  0  0  0  3  0  0  0  0  0  0
   36.9490   26.8490   41.7550 C   0  0  0  0  0  0  0  0  0  0  0  0
   36.3890   25.9150   41.5280 H   0  0  0  0  0  0  0  0  0  0  0  0
   38.0150   26.5880   41.6030 H   0  0  0  0  0  0  0  0  0  0  0  0
   36.5780   27.9260   40.7890 C   0  0  0  0  0  0  0  0  0  0  0  0
   35.4650   28.7480   40.8340 C   0  0  0  0  0  0  0  0  0  0  0  0
   34.8120   28.5700   41.6670 H   0  0  0  0  0  0  0  0  0  0  0  0
   35.2840   29.6940   39.8460 C   0  0  0  0  0  3  0  0  0  0  0  0
   36.1660   29.8700   38.7990 C   0  0  0  0  0  0  0  0  0  0  0  0
   36.0140   30.6160   38.0300 H   0  0  0  0  0  0  0  0  0  0  0  0
   37.2850   29.0630   38.7300 C   0  0  0  0  0  0  0  0  0  0  0  0
   37.9970   29.1700   37.9270 H   0  0  0  0  0  0  0  0  0  0  0  0
   37.4530   28.1210   39.7230 C   0  0  0  0  0  3  0  0  0  0  0  0
  1  2  2  0  0  0  0
  1  6  1  0  0  0  0
  2  3  1  0  0  0  0
  3  8  1  0  0  0  0
  3  4  2  0  0  0  0
  4  9  1  0  0  0  0
  5  4  1  0  0  0  0
  5 21  1  0  0  0  0
  6  5  2  0  0  0  0
  7  2  1  0  0  0  0
 10 15  1  0  0  0  0
 11 10  2  0  0  0  0
 11 12  1  0  0  0  0
 12 13  2  0  0  0  0
 13 14  1  0  0  0  0
 14  1  1  0  0  0  0
 15 14  2  0  0  0  0
 16 10  1  0  0  0  0
 16 20  1  0  0  0  0
 17 11  1  0  0  0  0
 18 12  1  0  0  0  0
 19 16  1  0  0  0  0
 22 21  2  0  0  0  0
 23 22  1  0  0  0  0
 24 23  1  0  0  0  0
 25 23  1  0  0  0  0
 26 27  1  0  0  0  0
 26 23  1  0  0  0  0
 27 28  1  0  0  0  0
 29 27  2  0  0  0  0
 30 29  1  0  0  0  0
 31 30  1  0  0  0  0
 32 30  2  0  0  0  0
 32 34  1  0  0  0  0
 33 32  1  0  0  0  0
 34 26  2  0  0  0  0
M  END
>  <minimizedAffinity>
-6.32444143

$$$$

 OpenBabel03242520133D

 34 36  0  0  0  0  0  0  0  0999 V2000
   38.9460   31.5120   38.9740 C   0  0  0  0  0  0  0  0  0  0  0  0
   38.2610   32.6270   39.3370 C   0  0  0  0  0  0  0  0  0  0  0  0
   37.0720   32.4850   40.0250 C   0  0  0  0  0  0  0  0  0  0  0  0
   36.5900   31.2290   40.3360 C   0  0  0  0  0  0  0  0  0  0  0  0
   37.3200   30.1130   39.9480 C   0  0  0  0  0  0  0  0  0  0  0  0
   38.4480   30.2920   39.2940 N   0  0  0  0  0  0  0  0  0  0  0  0
   38.7130   33.5690   39.0490 H   0  0  0  0  0  0  0  0  0  0  0  0
   36.5550   33.4020   40.2950 H   0  0  0  0  0  0  0  0  0  0  0  0
   35.6750   31.1220   40.8660 H   0  0  0  0  0  0  0  0  0  0  0  0
   41.8880   32.7900   37.2130 C   0  0  0  0  0  0  0  0  0  0  0  0
   42.5590   31.5880   36.8930 C   0  0  0  0  0  0  0  0  0  0  0  0
   42.0000   30.3440   37.2820 C   0  0  0  0  0  0  0  0  0  0  0  0
   40.8370   30.4250   37.9460 N   0  0  0  0  0  0  0  0  0  0  0  0
   40.2120   31.5510   38.2430 C   0  0  0  0  0  0  0  0  0  0  0  0
   40.7490   32.7170   37.8710 N   0  0  0  0  0  0  0  0  0  0  0  0
   42.4710   34.0080   36.8100 N   0  0  0  0  0  0  0  0  0  0  0  0
   43.5020   31.5470   36.3540 H   0  0  0  0  0  0  0  0  0  0  0  0
   42.5190   29.4490   37.0340 H   0  0  0  0  0  0  0  0  0  0  0  0
   42.3260   34.2540   35.8110 H   0  0  0  0  0  0  0  0  0  0  0  0
   42.9790   34.5020   37.5990 H   0  0  0  0  0  0  0  0  0  0  0  0
   36.8710   28.7520   40.2440 C   0  0  0  0  0  3  0  0  0  0  0  0
   36.9090   28.2240   41.4540 C   0  0  0  0  0  3  0  0  0  0  0  0
   37.4120   28.9690   42.6230 C   0  0  0  0  0  0  0  0  0  0  0  0
   36.7390   28.8830   43.5060 H   0  0  0  0  0  0  0  0  0  0  0  0
   37.5070   30.0570   42.4400 H   0  0  0  0  0  0  0  0  0  0  0  0
   38.7620   28.4170   42.9420 C   0  0  0  0  0  0  0  0  0  0  0  0
   39.9910   28.9780   42.6430 C   0  0  0  0  0  0  0  0  0  0  0  0
   39.9400   29.9160   42.1220 H   0  0  0  0  0  0  0  0  0  0  0  0
   41.1440   28.3190   43.0190 C   0  0  0  0  0  3  0  0  0  0  0  0
   41.1390   27.1120   43.6880 C   0  0  0  0  0  0  0  0  0  0  0  0
   42.0490   26.6050   43.9790 H   0  0  0  0  0  0  0  0  0  0  0  0
   39.9260   26.5300   44.0000 C   0  0  0  0  0  0  0  0  0  0  0  0
   39.8800   25.5870   44.5220 H   0  0  0  0  0  0  0  0  0  0  0  0
   38.7820   27.1990   43.6170 C   0  0  0  0  0  3  0  0  0  0  0  0
  1  6  2  0  0  0  0
  1  2  1  0  0  0  0
  2  3  2  0  0  0  0
  3  8  1  0  0  0  0
  3  4  1  0  0  0  0
  4  9  1  0  0  0  0
  5 21  1  0  0  0  0
  5  4  2  0  0  0  0
  6  5  1  0  0  0  0
  7  2  1  0  0  0  0
 10 15  1  0  0  0  0
 11 10  2  0  0  0  0
 11 12  1  0  0  0  0
 12 13  2  0  0  0  0
 13 14  1  0  0  0  0
 14  1  1  0  0  0  0
 15 14  2  0  0  0  0
 16 10  1  0  0  0  0
 16 20  1  0  0  0  0
 17 11  1  0  0  0  0
 18 12  1  0  0  0  0
 19 16  1  0  0  0  0
 21 22  2  0  0  0  0
 22 23  1  0  0  0  0
 23 26  1  0  0  0  0
 23 24  1  0  0  0  0
 25 23  1  0  0  0  0
 26 34  1  0  0  0  0
 27 26  2  0  0  0  0
 27 29  1  0  0  0  0
 28 27  1  0  0  0  0
 29 30  2  0  0  0  0
 30 31  1  0  0  0  0
 30 32  1  0  0  0  0
 32 33  1  0  0  0  0
 34 32  2  0  0  0  0
M  END
>  <minimizedAffinity>
-6.21666479

$$$$

 OpenBabel03242520133D

 34 36  0  0  0  0  0  0  0  0999 V2000
   40.1880   33.3320   39.4650 C   0  0  0  0  0  0  0  0  0  0  0  0
   39.6810   34.4850   39.9730 C   0  0  0  0  0  0  0  0  0  0  0  0
   38.3110   34.6220   40.0800 C   0  0  0  0  0  0  0  0  0  0  0  0
   37.4730   33.6020   39.6760 C   0  0  0  0  0  0  0  0  0  0  0  0
   38.0300   32.4370   39.1620 C   0  0  0  0  0  0  0  0  0  0  0  0
   39.3400   32.3470   39.0770 N   0  0  0  0  0  0  0  0  0  0  0  0
   40.4130   35.2310   40.2630 H   0  0  0  0  0  0  0  0  0  0  0  0
   37.9480   35.5600   40.4900 H   0  0  0  0  0  0  0  0  0  0  0  0
   36.4190   33.7080   39.7600 H   0  0  0  0  0  0  0  0  0  0  0  0
   43.5830   33.4030   38.1030 C   0  0  0  0  0  0  0  0  0  0  0  0
   44.2730   32.6120   39.0480 C   0  0  0  0  0  0  0  0  0  0  0  0
   43.5730   32.0570   40.1490 C   0  0  0  0  0  0  0  0  0  0  0  0
   42.2640   32.3460   40.1950 N   0  0  0  0  0  0  0  0  0  0  0  0
   41.6200   33.0860   39.3090 C   0  0  0  0  0  0  0  0  0  0  0  0
   42.2930   33.6030   38.2760 N   0  0  0  0  0  0  0  0  0  0  0  0
   44.3100   33.9380   37.0210 N   0  0  0  0  0  0  0  0  0  0  0  0
   45.3370   32.3910   38.9910 H   0  0  0  0  0  0  0  0  0  0  0  0
   44.1090   31.4640   40.8520 H   0  0  0  0  0  0  0  0  0  0  0  0
   44.4980   33.2700   36.2470 H   0  0  0  0  0  0  0  0  0  0  0  0
   44.5600   34.9590   37.1580 H   0  0  0  0  0  0  0  0  0  0  0  0
   37.2030   31.3150   38.7150 C   0  0  0  0  0  3  0  0  0  0  0  0
   36.4640   30.5890   39.5340 C   0  0  0  0  0  3  0  0  0  0  0  0
   36.4070   30.8490   40.9840 C   0  0  0  0  0  0  0  0  0  0  0  0
   35.3790   31.0930   41.3340 H   0  0  0  0  0  0  0  0  0  0  0  0
   37.0280   31.7100   41.2980 H   0  0  0  0  0  0  0  0  0  0  0  0
   36.9110   29.6200   41.6660 C   0  0  0  0  0  0  0  0  0  0  0  0
   36.3110   28.3730   41.7030 C   0  0  0  0  0  0  0  0  0  0  0  0
   35.3790   28.3100   41.1730 H   0  0  0  0  0  0  0  0  0  0  0  0
   36.9280   27.3470   42.3900 C   0  0  0  0  0  3  0  0  0  0  0  0
   38.1290   27.4980   43.0520 C   0  0  0  0  0  0  0  0  0  0  0  0
   38.6030   26.6860   43.5860 H   0  0  0  0  0  0  0  0  0  0  0  0
   38.7500   28.7320   43.0310 C   0  0  0  0  0  0  0  0  0  0  0  0
   39.6890   28.8890   43.5370 H   0  0  0  0  0  0  0  0  0  0  0  0
   38.1210   29.7480   42.3420 C   0  0  0  0  0  3  0  0  0  0  0  0
  1  2  1  0  0  0  0
  2  3  2  0  0  0  0
  2  7  1  0  0  0  0
  3  8  1  0  0  0  0
  4  9  1  0  0  0  0
  4  3  1  0  0  0  0
  5  4  2  0  0  0  0
  6  5  1  0  0  0  0
  6  1  2  0  0  0  0
 10 15  2  0  0  0  0
 10 11  1  0  0  0  0
 11 12  2  0  0  0  0
 12 13  1  0  0  0  0
 12 18  1  0  0  0  0
 14  1  1  0  0  0  0
 14 13  2  0  0  0  0
 15 14  1  0  0  0  0
 16 20  1  0  0  0  0
 16 10  1  0  0  0  0
 17 11  1  0  0  0  0
 19 16  1  0  0  0  0
 21  5  1  0  0  0  0
 21 22  2  0  0  0  0
 22 23  1  0  0  0  0
 23 25  1  0  0  0  0
 23 24  1  0  0  0  0
 23 26  1  0  0  0  0
 26 27  2  0  0  0  0
 26 34  1  0  0  0  0
 27 29  1  0  0  0  0
 28 27  1  0  0  0  0
 29 30  2  0  0  0  0
 30 31  1  0  0  0  0
 32 30  1  0  0  0  0
 32 33  1  0  0  0  0
 34 32  2  0  0  0  0
M  END
>  <minimizedAffinity>
-6.2038517

$$$$

 OpenBabel03242520133D

 34 36  0  0  0  0  0  0  0  0999 V2000
   39.5730   25.7520   42.8460 C   0  0  0  0  0  0  0  0  0  0  0  0
   39.2350   24.4980   42.4530 C   0  0  0  0  0  0  0  0  0  0  0  0
   37.9270   24.2410   42.0920 C   0  0  0  0  0  0  0  0  0  0  0  0
   36.9810   25.2470   42.1300 C   0  0  0  0  0  0  0  0  0  0  0  0
   37.3670   26.5180   42.5370 C   0  0  0  0  0  0  0  0  0  0  0  0
   38.6230   26.7200   42.8730 N   0  0  0  0  0  0  0  0  0  0  0  0
   40.0410   23.7730   42.4550 H   0  0  0  0  0  0  0  0  0  0  0  0
   37.6980   23.2250   41.7850 H   0  0  0  0  0  0  0  0  0  0  0  0
   35.9750   25.0480   41.8510 H   0  0  0  0  0  0  0  0  0  0  0  0
   43.1400   25.5260   43.6300 C   0  0  0  0  0  0  0  0  0  0  0  0
   43.4250   26.8590   43.9980 C   0  0  0  0  0  0  0  0  0  0  0  0
   42.3930   27.8320   43.9770 C   0  0  0  0  0  0  0  0  0  0  0  0
   41.1910   27.3780   43.5920 N   0  0  0  0  0  0  0  0  0  0  0  0
   40.9270   26.1290   43.2490 C   0  0  0  0  0  0  0  0  0  0  0  0
   41.9090   25.2220   43.2730 N   0  0  0  0  0  0  0  0  0  0  0  0
   44.1890   24.5840   43.6640 N   0  0  0  0  0  0  0  0  0  0  0  0
   44.4080   27.2050   44.3070 H   0  0  0  0  0  0  0  0  0  0  0  0
   42.6250   28.8320   44.2570 H   0  0  0  0  0  0  0  0  0  0  0  0
   44.4190   24.2200   44.6090 H   0  0  0  0  0  0  0  0  0  0  0  0
   44.5930   24.3850   42.7050 H   0  0  0  0  0  0  0  0  0  0  0  0
   36.4200   27.6320   42.6020 C   0  0  0  0  0  3  0  0  0  0  0  0
   36.1520   28.4150   41.5720 C   0  0  0  0  0  3  0  0  0  0  0  0
   36.7920   28.2340   40.2570 C   0  0  0  0  0  0  0  0  0  0  0  0
   36.1910   27.5910   39.5750 H   0  0  0  0  0  0  0  0  0  0  0  0
   37.7820   27.7410   40.3160 H   0  0  0  0  0  0  0  0  0  0  0  0
   36.9680   29.5950   39.6680 C   0  0  0  0  0  0  0  0  0  0  0  0
   37.2140   29.9110   38.3420 C   0  0  0  0  0  0  0  0  0  0  0  0
   37.2790   29.0640   37.6860 H   0  0  0  0  0  0  0  0  0  0  0  0
   37.3510   31.2350   37.9780 C   0  0  0  0  0  3  0  0  0  0  0  0
   37.2550   32.2780   38.8770 C   0  0  0  0  0  0  0  0  0  0  0  0
   37.3630   33.3120   38.5800 H   0  0  0  0  0  0  0  0  0  0  0  0
   37.0100   31.9910   40.2060 C   0  0  0  0  0  0  0  0  0  0  0  0
   36.9280   32.7790   40.9380 H   0  0  0  0  0  0  0  0  0  0  0  0
   36.8770   30.6630   40.5550 C   0  0  0  0  0  3  0  0  0  0  0  0
  1  6  1  0  0  0  0
  1 14  1  0  0  0  0
  2  7  1  0  0  0  0
  2  1  2  0  0  0  0
  3  4  2  0  0  0  0
  3  2  1  0  0  0  0
  4  5  1  0  0  0  0
  5 21  1  0  0  0  0
  5  6  2  0  0  0  0
  8  3  1  0  0  0  0
  9  4  1  0  0  0  0
 10 16  1  0  0  0  0
 10 11  1  0  0  0  0
 11 17  1  0  0  0  0
 12 11  2  0  0  0  0
 12 18  1  0  0  0  0
 13 12  1  0  0  0  0
 14 15  1  0  0  0  0
 14 13  2  0  0  0  0
 15 10  2  0  0  0  0
 16 19  1  0  0  0  0
 20 16  1  0  0  0  0
 22 21  2  0  0  0  0
 23 25  1  0  0  0  0
 23 22  1  0  0  0  0
 24 23  1  0  0  0  0
 26 23  1  0  0  0  0
 26 34  1  0  0  0  0
 27 26  2  0  0  0  0
 28 27  1  0  0  0  0
 29 27  1  0  0  0  0
 29 30  2  0  0  0  0
 30 32  1  0  0  0  0
 31 30  1  0  0  0  0
 32 34  2  0  0  0  0
 32 33  1  0  0  0  0
M  END
>  <minimizedAffinity>
-6.14629555

$$$$

 OpenBabel03242520133D

 34 36  0  0  0  0  0  0  0  0999 V2000
   38.8260   31.7940   38.7930 C   0  0  0  0  0  0  0  0  0  0  0  0
   38.2960   31.4300   37.5970 C   0  0  0  0  0  0  0  0  0  0  0  0
   37.1670   30.6350   37.5820 C   0  0  0  0  0  0  0  0  0  0  0  0
   36.5890   30.2190   38.7650 C   0  0  0  0  0  0  0  0  0  0  0  0
   37.1620   30.6120   39.9680 C   0  0  0  0  0  0  0  0  0  0  0  0
   38.2370   31.3700   39.9390 N   0  0  0  0  0  0  0  0  0  0  0  0
   38.8150   31.8030   36.7210 H   0  0  0  0  0  0  0  0  0  0  0  0
   36.7750   30.3670   36.6050 H   0  0  0  0  0  0  0  0  0  0  0  0
   35.7200   29.6080   38.7520 H   0  0  0  0  0  0  0  0  0  0  0  0
   41.8070   33.7280   37.9190 C   0  0  0  0  0  0  0  0  0  0  0  0
   42.2190   34.1850   39.1900 C   0  0  0  0  0  0  0  0  0  0  0  0
   41.4750   33.8290   40.3430 C   0  0  0  0  0  0  0  0  0  0  0  0
   40.4010   33.0580   40.1110 N   0  0  0  0  0  0  0  0  0  0  0  0
   40.0180   32.6320   38.9200 C   0  0  0  0  0  0  0  0  0  0  0  0
   40.7290   32.9750   37.8420 N   0  0  0  0  0  0  0  0  0  0  0  0
   42.5710   34.1000   36.7940 N   0  0  0  0  0  0  0  0  0  0  0  0
   43.0940   34.8100   39.3540 H   0  0  0  0  0  0  0  0  0  0  0  0
   41.7990   34.1820   41.2930 H   0  0  0  0  0  0  0  0  0  0  0  0
   43.4410   33.5480   36.6540 H   0  0  0  0  0  0  0  0  0  0  0  0
   42.1390   34.9010   36.2500 H   0  0  0  0  0  0  0  0  0  0  0  0
   36.6040   30.2100   41.2600 C   0  0  0  0  0  3  0  0  0  0  0  0
   37.0400   29.1660   41.9440 C   0  0  0  0  0  3  0  0  0  0  0  0
   38.1370   28.3090   41.4580 C   0  0  0  0  0  0  0  0  0  0  0  0
   39.0240   28.3280   42.1310 H   0  0  0  0  0  0  0  0  0  0  0  0
   38.5230   28.6130   40.4660 H   0  0  0  0  0  0  0  0  0  0  0  0
   37.5920   26.9220   41.3550 C   0  0  0  0  0  0  0  0  0  0  0  0
   37.5070   25.9760   42.3630 C   0  0  0  0  0  0  0  0  0  0  0  0
   37.8820   26.3020   43.3140 H   0  0  0  0  0  0  0  0  0  0  0  0
   36.9710   24.7370   42.0810 C   0  0  0  0  0  3  0  0  0  0  0  0
   36.5060   24.3820   40.8300 C   0  0  0  0  0  0  0  0  0  0  0  0
   36.0860   23.4080   40.6210 H   0  0  0  0  0  0  0  0  0  0  0  0
   36.5780   25.3080   39.8070 C   0  0  0  0  0  0  0  0  0  0  0  0
   36.2250   25.0680   38.8170 H   0  0  0  0  0  0  0  0  0  0  0  0
   37.1180   26.5420   40.1030 C   0  0  0  0  0  3  0  0  0  0  0  0
  1 14  1  0  0  0  0
  1  6  1  0  0  0  0
  2  1  2  0  0  0  0
  3  2  1  0  0  0  0
  3  4  2  0  0  0  0
  4  5  1  0  0  0  0
  5 21  1  0  0  0  0
  6  5  2  0  0  0  0
  7  2  1  0  0  0  0
  8  3  1  0  0  0  0
  9  4  1  0  0  0  0
 10 11  1  0  0  0  0
 11 17  1  0  0  0  0
 11 12  2  0  0  0  0
 12 18  1  0  0  0  0
 13 12  1  0  0  0  0
 14 13  2  0  0  0  0
 15 10  2  0  0  0  0
 15 14  1  0  0  0  0
 16 10  1  0  0  0  0
 19 16  1  0  0  0  0
 20 16  1  0  0  0  0
 21 22  2  0  0  0  0
 23 22  1  0  0  0  0
 23 24  1  0  0  0  0
 25 23  1  0  0  0  0
 26 23  1  0  0  0  0
 26 27  1  0  0  0  0
 27 28  1  0  0  0  0
 29 27  2  0  0  0  0
 30 29  1  0  0  0  0
 31 30  1  0  0  0  0
 32 34  1  0  0  0  0
 32 30  2  0  0  0  0
 33 32  1  0  0  0  0
 34 26  2  0  0  0  0
M  END
>  <minimizedAffinity>
-6.12780619

$$$$

 OpenBabel03242520133D

 34 36  0  0  0  0  0  0  0  0999 V2000
   39.0930   32.0480   38.9500 C   0  0  0  0  0  0  0  0  0  0  0  0
   38.4680   31.7800   37.7760 C   0  0  0  0  0  0  0  0  0  0  0  0
   37.3040   31.0380   37.7930 C   0  0  0  0  0  0  0  0  0  0  0  0
   36.7870   30.5770   38.9870 C   0  0  0  0  0  0  0  0  0  0  0  0
   37.4560   30.8720   40.1690 C   0  0  0  0  0  0  0  0  0  0  0  0
   38.5620   31.5820   40.1080 N   0  0  0  0  0  0  0  0  0  0  0  0
   38.9460   32.1810   36.8890 H   0  0  0  0  0  0  0  0  0  0  0  0
   36.8370   30.8450   36.8310 H   0  0  0  0  0  0  0  0  0  0  0  0
   35.8900   30.0060   38.9990 H   0  0  0  0  0  0  0  0  0  0  0  0
   42.0780   33.9310   37.9850 C   0  0  0  0  0  0  0  0  0  0  0  0
   42.6160   34.2590   39.2490 C   0  0  0  0  0  0  0  0  0  0  0  0
   41.9540   33.8330   40.4290 C   0  0  0  0  0  0  0  0  0  0  0  0
   40.8300   33.1290   40.2270 N   0  0  0  0  0  0  0  0  0  0  0  0
   40.3290   32.8240   39.0430 C   0  0  0  0  0  0  0  0  0  0  0  0
   40.9630   33.2310   37.9390 N   0  0  0  0  0  0  0  0  0  0  0  0
   42.7620   34.3700   36.8330 N   0  0  0  0  0  0  0  0  0  0  0  0
   43.5290   34.8330   39.3880 H   0  0  0  0  0  0  0  0  0  0  0  0
   42.3730   34.0900   41.3730 H   0  0  0  0  0  0  0  0  0  0  0  0
   43.5900   33.7980   36.5710 H   0  0  0  0  0  0  0  0  0  0  0  0
   42.3240   35.2310   36.3970 H   0  0  0  0  0  0  0  0  0  0  0  0
   36.9660   30.4180   41.4710 C   0  0  0  0  0  3  0  0  0  0  0  0
   37.2580   29.2350   41.9820 C   0  0  0  0  0  3  0  0  0  0  0  0
   38.1110   28.2610   41.2770 C   0  0  0  0  0  0  0  0  0  0  0  0
   38.6400   28.7090   40.4060 H   0  0  0  0  0  0  0  0  0  0  0  0
   37.5450   27.4060   40.8590 H   0  0  0  0  0  0  0  0  0  0  0  0
   39.0950   27.7430   42.2730 C   0  0  0  0  0  0  0  0  0  0  0  0
   38.9240   26.6880   43.1530 C   0  0  0  0  0  0  0  0  0  0  0  0
   37.9670   26.2060   43.0920 H   0  0  0  0  0  0  0  0  0  0  0  0
   39.9520   26.3500   44.0100 C   0  0  0  0  0  3  0  0  0  0  0  0
   41.1610   27.0140   44.0370 C   0  0  0  0  0  0  0  0  0  0  0  0
   41.9600   26.7390   44.7120 H   0  0  0  0  0  0  0  0  0  0  0  0
   41.3590   28.0700   43.1690 C   0  0  0  0  0  0  0  0  0  0  0  0
   42.2900   28.6150   43.1610 H   0  0  0  0  0  0  0  0  0  0  0  0
   40.3220   28.3990   42.3200 C   0  0  0  0  0  3  0  0  0  0  0  0
  1 14  1  0  0  0  0
  1  6  1  0  0  0  0
  2  3  1  0  0  0  0
  2  1  2  0  0  0  0
  3  4  2  0  0  0  0
  4  9  1  0  0  0  0
  4  5  1  0  0  0  0
  5 21  1  0  0  0  0
  6  5  2  0  0  0  0
  7  2  1  0  0  0  0
  8  3  1  0  0  0  0
 10 11  1  0  0  0  0
 11 17  1  0  0  0  0
 11 12  2  0  0  0  0
 12 18  1  0  0  0  0
 13 12  1  0  0  0  0
 14 13  2  0  0  0  0
 15 10  2  0  0  0  0
 15 14  1  0  0  0  0
 16 10  1  0  0  0  0
 19 16  1  0  0  0  0
 20 16  1  0  0  0  0
 21 22  2  0  0  0  0
 23 22  1  0  0  0  0
 23 26  1  0  0  0  0
 24 23  1  0  0  0  0
 25 23  1  0  0  0  0
 26 34  2  0  0  0  0
 26 27  1  0  0  0  0
 27 29  2  0  0  0  0
 28 27  1  0  0  0  0
 29 30  1  0  0  0  0
 30 31  1  0  0  0  0
 32 30  2  0  0  0  0
 33 32  1  0  0  0  0
 34 32  1  0  0  0  0
M  END
>  <minimizedAffinity>
-6.04440212

$$$$

 OpenBabel03242520133D

 34 36  0  0  0  0  0  0  0  0999 V2000
   37.6220   30.5740   40.3320 C   0  0  0  0  0  0  0  0  0  0  0  0
   36.4860   30.3490   39.6230 C   0  0  0  0  0  0  0  0  0  0  0  0
   35.5630   29.4440   40.1100 C   0  0  0  0  0  0  0  0  0  0  0  0
   35.7950   28.7810   41.2990 C   0  0  0  0  0  0  0  0  0  0  0  0
   36.9690   29.0390   41.9960 C   0  0  0  0  0  0  0  0  0  0  0  0
   37.8220   29.9070   41.4970 N   0  0  0  0  0  0  0  0  0  0  0  0
   36.3890   30.9130   38.7030 H   0  0  0  0  0  0  0  0  0  0  0  0
   34.6690   29.2930   39.5130 H   0  0  0  0  0  0  0  0  0  0  0  0
   35.0840   28.0860   41.6730 H   0  0  0  0  0  0  0  0  0  0  0  0
   39.9750   32.3980   38.2060 C   0  0  0  0  0  0  0  0  0  0  0  0
   40.5900   33.2530   39.1480 C   0  0  0  0  0  0  0  0  0  0  0  0
   40.1970   33.2000   40.5100 C   0  0  0  0  0  0  0  0  0  0  0  0
   39.2360   32.3070   40.7890 N   0  0  0  0  0  0  0  0  0  0  0  0
   38.6620   31.5090   39.9060 C   0  0  0  0  0  0  0  0  0  0  0  0
   39.0420   31.5690   38.6260 N   0  0  0  0  0  0  0  0  0  0  0  0
   40.3910   32.4770   36.8610 N   0  0  0  0  0  0  0  0  0  0  0  0
   41.3680   33.9700   38.8970 H   0  0  0  0  0  0  0  0  0  0  0  0
   40.6700   33.8500   41.2060 H   0  0  0  0  0  0  0  0  0  0  0  0
   41.2810   31.9840   36.6490 H   0  0  0  0  0  0  0  0  0  0  0  0
   39.7230   33.0350   36.2560 H   0  0  0  0  0  0  0  0  0  0  0  0
   37.2810   28.3740   43.2620 C   0  0  0  0  0  3  0  0  0  0  0  0
   38.1600   27.3920   43.3670 C   0  0  0  0  0  3  0  0  0  0  0  0
   38.9090   26.8770   42.2060 C   0  0  0  0  0  0  0  0  0  0  0  0
   39.8590   26.3780   42.4990 H   0  0  0  0  0  0  0  0  0  0  0  0
   39.2090   27.6700   41.4930 H   0  0  0  0  0  0  0  0  0  0  0  0
   38.0110   25.9140   41.5020 C   0  0  0  0  0  0  0  0  0  0  0  0
   37.2520   24.9050   42.0690 C   0  0  0  0  0  0  0  0  0  0  0  0
   37.3370   24.8280   43.1360 H   0  0  0  0  0  0  0  0  0  0  0  0
   36.4760   24.1050   41.2550 C   0  0  0  0  0  3  0  0  0  0  0  0
   36.4130   24.2590   39.8850 C   0  0  0  0  0  0  0  0  0  0  0  0
   35.8000   23.6270   39.2560 H   0  0  0  0  0  0  0  0  0  0  0  0
   37.1600   25.2600   39.2930 C   0  0  0  0  0  0  0  0  0  0  0  0
   37.1370   25.4110   38.2250 H   0  0  0  0  0  0  0  0  0  0  0  0
   37.9320   26.0500   40.1190 C   0  0  0  0  0  3  0  0  0  0  0  0
  1  6  1  0  0  0  0
  2  3  1  0  0  0  0
  2  1  2  0  0  0  0
  3  4  2  0  0  0  0
  4  9  1  0  0  0  0
  4  5  1  0  0  0  0
  5 21  1  0  0  0  0
  6  5  2  0  0  0  0
  7  2  1  0  0  0  0
  8  3  1  0  0  0  0
 10 15  2  0  0  0  0
 10 11  1  0  0  0  0
 11 12  2  0  0  0  0
 12 13  1  0  0  0  0
 12 18  1  0  0  0  0
 14  1  1  0  0  0  0
 14 13  2  0  0  0  0
 15 14  1  0  0  0  0
 16 10  1  0  0  0  0
 17 11  1  0  0  0  0
 19 16  1  0  0  0  0
 20 16  1  0  0  0  0
 21 22  2  0  0  0  0
 23 24  1  0  0  0  0
 23 22  1  0  0  0  0
 25 23  1  0  0  0  0
 26 27  1  0  0  0  0
 26 23  1  0  0  0  0
 27 28  1  0  0  0  0
 29 27  2  0  0  0  0
 30 29  1  0  0  0  0
 31 30  1  0  0  0  0
 32 30  2  0  0  0  0
 32 34  1  0  0  0  0
 33 32  1  0  0  0  0
 34 26  2  0  0  0  0
M  END
>  <minimizedAffinity>
-6.04413366

$$$$

 OpenBabel03242520133D

 34 36  0  0  0  0  0  0  0  0999 V2000
   40.4930   30.4900   41.8530 C   0  0  0  0  0  0  0  0  0  0  0  0
   41.3510   31.1630   42.6630 C   0  0  0  0  0  0  0  0  0  0  0  0
   42.4140   30.4810   43.2230 C   0  0  0  0  0  0  0  0  0  0  0  0
   42.5980   29.1380   42.9610 C   0  0  0  0  0  0  0  0  0  0  0  0
   41.6980   28.4850   42.1280 C   0  0  0  0  0  0  0  0  0  0  0  0
   40.7000   29.1710   41.6150 N   0  0  0  0  0  0  0  0  0  0  0  0
   41.1280   32.2130   42.8120 H   0  0  0  0  0  0  0  0  0  0  0  0
   43.0750   31.0560   43.8640 H   0  0  0  0  0  0  0  0  0  0  0  0
   43.4170   28.6150   43.3920 H   0  0  0  0  0  0  0  0  0  0  0  0
   37.0320   31.2650   40.9550 C   0  0  0  0  0  0  0  0  0  0  0  0
   37.2190   32.2970   40.0090 C   0  0  0  0  0  0  0  0  0  0  0  0
   38.5310   32.7240   39.6810 C   0  0  0  0  0  0  0  0  0  0  0  0
   39.5160   32.0820   40.3270 N   0  0  0  0  0  0  0  0  0  0  0  0
   39.3380   31.1160   41.2120 C   0  0  0  0  0  0  0  0  0  0  0  0
   38.0960   30.7240   41.5110 N   0  0  0  0  0  0  0  0  0  0  0  0
   35.7140   30.8640   41.2550 N   0  0  0  0  0  0  0  0  0  0  0  0
   36.4040   32.8030   39.4970 H   0  0  0  0  0  0  0  0  0  0  0  0
   38.6540   33.5030   38.9670 H   0  0  0  0  0  0  0  0  0  0  0  0
   35.2790   30.2310   40.5560 H   0  0  0  0  0  0  0  0  0  0  0  0
   35.3570   31.2750   42.1650 H   0  0  0  0  0  0  0  0  0  0  0  0
   41.8310   27.0630   41.8060 C   0  0  0  0  0  3  0  0  0  0  0  0
   41.3290   26.1000   42.5590 C   0  0  0  0  0  3  0  0  0  0  0  0
   40.5850   26.3780   43.8000 C   0  0  0  0  0  0  0  0  0  0  0  0
   40.9650   27.2790   44.3340 H   0  0  0  0  0  0  0  0  0  0  0  0
   40.6480   25.5580   44.5420 H   0  0  0  0  0  0  0  0  0  0  0  0
   39.1540   26.5670   43.4170 C   0  0  0  0  0  0  0  0  0  0  0  0
   38.4020   25.7790   42.5620 C   0  0  0  0  0  0  0  0  0  0  0  0
   38.9320   24.9450   42.1410 H   0  0  0  0  0  0  0  0  0  0  0  0
   37.0840   26.1100   42.3230 C   0  0  0  0  0  3  0  0  0  0  0  0
   36.4630   27.2000   42.8980 C   0  0  0  0  0  0  0  0  0  0  0  0
   35.4290   27.4490   42.7040 H   0  0  0  0  0  0  0  0  0  0  0  0
   37.1900   28.0030   43.7560 C   0  0  0  0  0  0  0  0  0  0  0  0
   36.7400   28.8640   44.2250 H   0  0  0  0  0  0  0  0  0  0  0  0
   38.5070   27.6610   43.9850 C   0  0  0  0  0  3  0  0  0  0  0  0
  1  2  1  0  0  0  0
  2  7  1  0  0  0  0
  2  3  2  0  0  0  0
  3  8  1  0  0  0  0
  4  3  1  0  0  0  0
  4  9  1  0  0  0  0
  5  4  2  0  0  0  0
  6  1  2  0  0  0  0
  6  5  1  0  0  0  0
 10 16  1  0  0  0  0
 10 15  1  0  0  0  0
 11 10  2  0  0  0  0
 12 11  1  0  0  0  0
 12 13  2  0  0  0  0
 13 14  1  0  0  0  0
 14 15  2  0  0  0  0
 14  1  1  0  0  0  0
 16 20  1  0  0  0  0
 17 11  1  0  0  0  0
 18 12  1  0  0  0  0
 19 16  1  0  0  0  0
 21  5  1  0  0  0  0
 21 22  2  0  0  0  0
 22 23  1  0  0  0  0
 23 24  1  0  0  0  0
 23 25  1  0  0  0  0
 26 23  1  0  0  0  0
 26 34  1  0  0  0  0
 27 26  2  0  0  0  0
 28 27  1  0  0  0  0
 29 27  1  0  0  0  0
 29 30  2  0  0  0  0
 30 32  1  0  0  0  0
 31 30  1  0  0  0  0
 32 34  2  0  0  0  0
 32 33  1  0  0  0  0
M  END
>  <minimizedAffinity>
-5.98195219

$$$$
