
 OpenBabel03252503353D

 22 23  0  0  0  0  0  0  0  0999 V2000
   46.3060   33.9350   40.9050 C   0  0  0  0  0  0  0  0  0  0  0  0
   45.3510   33.1770   41.2160 O   0  0  0  0  0  0  0  0  0  0  0  0
   46.7220   34.8170   41.9360 N   0  0  0  0  0  0  0  0  0  0  0  0
   47.4970   35.4910   41.7430 H   0  0  0  0  0  0  0  0  0  0  0  0
   44.5490   35.6750   44.8320 C   0  0  0  0  0  0  0  0  0  0  0  0
   45.1290   35.7300   43.5510 C   0  0  0  0  0  0  0  0  0  0  0  0
   46.1060   34.8010   43.2220 C   0  0  0  0  0  0  0  0  0  0  0  0
   46.4680   33.8740   44.1420 N   0  0  0  0  0  0  0  0  0  0  0  0
   45.8920   33.8440   45.3700 C   0  0  0  0  0  0  0  0  0  0  0  0
   44.9510   34.7310   45.7010 N   0  0  0  0  0  0  0  0  0  0  0  0
   43.7900   36.3640   45.1500 H   0  0  0  0  0  0  0  0  0  0  0  0
   44.8070   36.4900   42.8480 H   0  0  0  0  0  0  0  0  0  0  0  0
   46.3090   33.0360   45.9650 H   0  0  0  0  0  0  0  0  0  0  0  0
   46.8970   33.8720   39.5950 C   0  0  0  0  0  0  0  0  0  0  0  0
   46.2380   33.1430   38.6250 C   0  0  0  0  0  0  0  0  0  0  0  0
   45.2990   32.6050   38.7700 H   0  0  0  0  0  0  0  0  0  0  0  0
   46.7750   33.0540   37.3370 C   0  0  0  0  0  0  0  0  0  0  0  0
   47.9750   33.7020   37.0250 C   0  0  0  0  0  0  0  0  0  0  0  0
   48.4100   33.6470   36.0350 H   0  0  0  0  0  0  0  0  0  0  0  0
   48.6020   34.4230   38.0300 C   0  0  0  0  0  0  0  0  0  0  0  0
   49.5410   34.9360   37.8070 H   0  0  0  0  0  0  0  0  0  0  0  0
   48.0800   34.5160   39.3090 C   0  0  0  0  0  0  0  0  0  0  0  0
  1  2  2  0  0  0  0
  1  3  1  0  0  0  0
  3  7  1  0  0  0  0
  4  3  1  0  0  0  0
  5 11  1  0  0  0  0
  5 10  1  0  0  0  0
  6  5  2  0  0  0  0
  7  6  1  0  0  0  0
  7  8  2  0  0  0  0
  8  9  1  0  0  0  0
  9 10  2  0  0  0  0
  9 13  1  0  0  0  0
 12  6  1  0  0  0  0
 14  1  1  0  0  0  0
 15 16  1  0  0  0  0
 15 14  2  0  0  0  0
 17 15  1  0  0  0  0
 18 17  2  0  0  0  0
 18 20  1  0  0  0  0
 19 18  1  0  0  0  0
 20 22  2  0  0  0  0
 21 20  1  0  0  0  0
 22 14  1  0  0  0  0
M  END
>  <minimizedAffinity>
-4.51448393

>  <minimizedRMSD>
0.644332349

$$$$
