
     RDKit          3D

 49 52  0  0  0  0  0  0  0  0999 V2000
   43.2031   33.2291   41.1511 C   0  0  0  0  0  0  0  0  0  0  0  0
   44.2302   34.0804   41.7767 C   0  0  0  0  0  0  0  0  0  0  0  0
   43.8792   35.2544   42.4014 C   0  0  0  0  0  0  0  0  0  0  0  0
   44.8881   36.0240   42.9695 C   0  0  0  0  0  0  0  0  0  0  0  0
   46.1748   35.5725   42.8793 N   0  0  0  0  0  0  0  0  0  0  0  0
   46.4739   34.4294   42.2681 C   0  0  0  0  0  0  0  0  0  0  0  0
   45.4885   33.7116   41.7299 N   0  0  0  0  0  0  0  0  0  0  0  0
   47.8759   34.0093   42.2553 C   0  0  0  0  0  0  0  0  0  0  0  0
   48.2084   32.6810   42.0048 C   0  0  0  0  0  0  0  0  0  0  0  0
   49.5307   32.2927   42.0069 C   0  0  0  0  0  0  0  0  0  0  0  0
   50.4155   33.2980   42.2664 C   0  0  0  0  0  0  0  0  0  0  0  0
   50.1442   34.6463   42.5248 C   0  0  0  0  0  0  0  0  0  0  0  0
   48.8122   34.9429   42.5032 N   0  0  0  0  0  0  0  0  0  0  0  0
   41.9053   33.9515   41.2087 C   0  0  0  0  0  0  0  0  0  0  0  0
   41.0013   33.5108   40.3247 N   0  0  0  0  0  0  0  0  0  0  0  0
   40.3269   32.2495   40.3366 C   0  0  0  0  0  0  0  0  0  0  0  0
   38.9512   32.7192   40.8084 C   0  0  0  0  0  0  0  0  0  0  0  0
   38.3262   33.6934   39.9300 C   0  0  0  0  0  0  0  0  0  0  0  0
   39.1684   34.4983   39.0722 C   0  0  0  0  0  0  0  0  0  0  0  0
   40.6641   34.4661   39.2488 C   0  0  0  0  0  0  0  0  0  0  0  0
   41.7739   35.3987   38.3283 S   0  0  0  0  0  0  0  0  0  0  0  0
   43.4812   32.9021   40.1259 H   0  0  0  0  0  0  0  0  0  0  0  0
   43.1592   32.2901   41.7709 H   0  0  0  0  0  0  0  0  0  0  0  0
   42.9464   35.7577   42.5872 H   0  0  0  0  0  0  0  0  0  0  0  0
   44.8012   36.9670   43.4944 H   0  0  0  0  0  0  0  0  0  0  0  0
   47.4316   31.9463   41.8071 H   0  0  0  0  0  0  0  0  0  0  0  0
   49.8683   31.2995   41.8250 H   0  0  0  0  0  0  0  0  0  0  0  0
   51.4867   33.0415   42.2799 H   0  0  0  0  0  0  0  0  0  0  0  0
   50.9119   35.3534   42.7164 H   0  0  0  0  0  0  0  0  0  0  0  0
   41.5391   33.9347   42.2578 H   0  0  0  0  0  0  0  0  0  0  0  0
   42.1944   35.0476   41.0521 H   0  0  0  0  0  0  0  0  0  0  0  0
   40.2898   31.6625   39.4378 H   0  0  0  0  0  0  0  0  0  0  0  0
   40.7278   31.6102   41.1502 H   0  0  0  0  0  0  0  0  0  0  0  0
   39.0295   33.0091   41.8959 H   0  0  0  0  0  0  0  0  0  0  0  0
   38.3460   31.7662   40.8545 H   0  0  0  0  0  0  0  0  0  0  0  0
   37.6883   34.3876   40.5406 H   0  0  0  0  0  0  0  0  0  0  0  0
   37.5867   33.1695   39.2554 H   0  0  0  0  0  0  0  0  0  0  0  0
   38.8093   35.1373   38.3315 H   0  0  0  0  0  0  0  0  0  0  0  0
   41.2475   36.7331   37.3817 C   0  0  0  0  0  0  0  0  0  0  0  0
   41.8084   37.8684   38.0097 C   0  0  0  0  0  0  0  0  0  0  0  0
   42.4574   38.0273   38.8862 H   0  0  0  0  0  0  0  0  0  0  0  0
   41.5766   39.1666   37.5208 C   0  0  0  0  0  0  0  0  0  0  0  0
   40.7752   39.3014   36.3953 C   0  0  0  0  0  0  0  0  0  0  0  0
   40.5348   40.2561   35.9388 H   0  0  0  0  0  0  0  0  0  0  0  0
   40.2102   38.2266   35.7544 C   0  0  0  0  0  0  0  0  0  0  0  0
   39.5798   38.2516   34.8797 H   0  0  0  0  0  0  0  0  0  0  0  0
   40.4839   37.0040   36.2923 C   0  0  0  0  0  0  0  0  0  0  0  0
   41.9216   40.1281   37.8727 H   0  0  0  0  0  0  0  0  0  0  0  0
   40.0691   36.1323   35.8708 H   0  0  0  0  0  0  0  0  0  0  0  0
  1 14  1  0
  1  2  1  0
  2  3  2  0
  3  4  1  0
  5  4  2  0
  6  5  1  0
  7  2  1  0
  7  6  2  0
  8  6  1  0
  8 13  1  0
  9  8  2  0
 10  9  1  0
 10 11  2  0
 11 12  1  0
 13 12  2  0
 15 14  1  0
 16 15  1  0
 16 17  1  0
 18 17  1  0
 19 20  2  0
 19 18  1  0
 20 15  1  0
 21 20  1  0
  1 22  1  0
  1 23  1  0
  3 24  1  0
  4 25  1  0
  9 26  1  0
 10 27  1  0
 11 28  1  0
 12 29  1  0
 14 30  1  0
 14 31  1  0
 16 32  1  0
 16 33  1  0
 17 34  1  0
 17 35  1  0
 18 36  1  0
 18 37  1  0
 19 38  1  0
 39 40  2  0
 40 41  1  0
 40 42  1  0
 42 43  2  0
 43 44  1  0
 43 45  1  0
 45 46  1  0
 45 47  2  0
 47 39  1  0
 42 48  1  0
 47 49  1  0
 21 39  1  0
M  ISO  8  22   8  23   8  24  14  25  14  26  14  27  14  28  14  29  14
M  ISO  8  30   8  31   8  32  13  33  13  34  13  35  13  36  13  37  13
M  ISO  4  38  13  41  16  44  16  46  16
M  END
>  <DihAtoms>  (1) 
19,20,38,39

>  <DihDeg>  (1) 
-172.13693570766293

$$$$
