
 OpenBabel03252507043D

 47 50  0  0  0  0  0  0  0  0999 V2000
   42.5680   31.9040   41.8980 C   0  0  0  0  0  0  0  0  0  0  0  0
   43.2260   31.4580   42.6750 H   0  0  0  0  0  0  0  0  0  0  0  0
   42.1190   32.8130   42.4280 H   0  0  0  0  0  0  0  0  0  0  0  0
   41.6460   31.0520   41.4330 N   0  0  0  0  0  0  0  0  0  0  0  0
   41.8780   29.7930   40.7950 C   0  0  0  0  0  0  0  0  0  0  0  0
   41.4800   28.8670   41.9450 C   0  0  0  0  0  0  0  0  0  0  0  0
   40.1090   29.0370   42.3940 C   0  0  0  0  0  0  0  0  0  0  0  0
   39.4500   30.3030   42.1540 C   0  0  0  0  0  0  0  0  0  0  0  0
   40.2450   31.4750   41.6420 C   0  0  0  0  0  0  0  0  0  0  0  0
   41.3720   29.5670   39.8750 H   0  0  0  0  0  0  0  0  0  0  0  0
   42.9650   29.6390   40.6390 H   0  0  0  0  0  0  0  0  0  0  0  0
   42.2750   28.9320   42.7430 H   0  0  0  0  0  0  0  0  0  0  0  0
   41.6450   27.8330   41.5230 H   0  0  0  0  0  0  0  0  0  0  0  0
   40.0490   28.8180   43.4950 H   0  0  0  0  0  0  0  0  0  0  0  0
   39.4590   28.2420   41.9230 H   0  0  0  0  0  0  0  0  0  0  0  0
   38.4390   30.4800   42.3340 H   0  0  0  0  0  0  0  0  0  0  0  0
   39.5980   33.0400   41.3530 S   0  0  0  0  0  0  0  0  0  0  0  0
   39.7390   33.7930   39.8150 C   0  0  0  0  0  0  0  0  0  0  0  0
   40.7750   34.7420   39.9680 C   0  0  0  0  0  0  0  0  0  0  0  0
   41.4380   35.0380   40.7970 H   0  0  0  0  0  0  0  0  0  0  0  0
   41.1670   35.5780   38.9070 C   0  0  0  0  0  3  0  0  0  0  0  0
   40.5020   35.4410   37.6960 C   0  0  0  0  0  0  0  0  0  0  0  0
   40.7280   36.0360   36.8160 H   0  0  0  0  0  0  0  0  0  0  0  0
   39.4910   34.5340   37.5030 C   0  0  0  0  0  0  0  0  0  0  0  0
   38.9300   34.3710   36.5970 H   0  0  0  0  0  0  0  0  0  0  0  0
   39.1720   33.7640   38.5810 C   0  0  0  0  0  3  0  0  0  0  0  0
   43.4260   32.4970   40.8380 C   0  0  0  0  0  0  0  0  0  0  0  0
   42.8490   32.8950   39.9750 H   0  0  0  0  0  0  0  0  0  0  0  0
   44.1200   31.7200   40.4110 H   0  0  0  0  0  0  0  0  0  0  0  0
   44.2900   33.5130   41.4630 C   0  0  0  0  0  0  0  0  0  0  0  0
   43.7510   34.6660   41.9840 C   0  0  0  0  0  0  0  0  0  0  0  0
   44.6120   35.5960   42.5560 C   0  0  0  0  0  0  0  0  0  0  0  0
   45.9490   35.3140   42.5720 N   0  0  0  0  0  0  0  0  0  0  0  0
   46.4330   34.1860   42.0600 C   0  0  0  0  0  0  0  0  0  0  0  0
   45.5870   33.3130   41.5150 N   0  0  0  0  0  0  0  0  0  0  0  0
   42.7500   35.0520   42.0800 H   0  0  0  0  0  0  0  0  0  0  0  0
   44.3700   36.5490   43.0090 H   0  0  0  0  0  0  0  0  0  0  0  0
   47.8750   33.9550   42.1580 C   0  0  0  0  0  0  0  0  0  0  0  0
   48.3880   32.6650   42.0550 C   0  0  0  0  0  0  0  0  0  0  0  0
   49.7460   32.4570   42.1610 C   0  0  0  0  0  0  0  0  0  0  0  0
   50.4790   33.5900   42.3650 C   0  0  0  0  0  0  0  0  0  0  0  0
   50.0230   34.9080   42.4770 C   0  0  0  0  0  0  0  0  0  0  0  0
   48.6680   35.0230   42.3600 N   0  0  0  0  0  0  0  0  0  0  0  0
   47.7250   31.8190   41.8920 H   0  0  0  0  0  0  0  0  0  0  0  0
   50.2170   31.5040   42.0940 H   0  0  0  0  0  0  0  0  0  0  0  0
   51.5710   33.4790   42.4570 H   0  0  0  0  0  0  0  0  0  0  0  0
   50.6820   35.7240   42.6360 H   0  0  0  0  0  0  0  0  0  0  0  0
  1  3  1  0  0  0  0
  1  2  1  0  0  0  0
  4  9  1  0  0  0  0
  4  1  1  0  0  0  0
  5  4  1  0  0  0  0
  5  6  1  0  0  0  0
  6  7  1  0  0  0  0
  6 12  1  0  0  0  0
  7 14  1  0  0  0  0
  8 16  1  0  0  0  0
  8  7  1  0  0  0  0
  9  8  2  0  0  0  0
 10  5  1  0  0  0  0
 11  5  1  0  0  0  0
 13  6  1  0  0  0  0
 15  7  1  0  0  0  0
 17  9  1  0  0  0  0
 18 19  1  0  0  0  0
 18 17  1  0  0  0  0
 19 20  1  0  0  0  0
 21 19  2  0  0  0  0
 22 21  1  0  0  0  0
 23 22  1  0  0  0  0
 24 22  2  0  0  0  0
 24 26  1  0  0  0  0
 25 24  1  0  0  0  0
 26 18  2  0  0  0  0
 27 30  1  0  0  0  0
 27  1  1  0  0  0  0
 28 27  1  0  0  0  0
 29 27  1  0  0  0  0
 30 35  2  0  0  0  0
 30 31  1  0  0  0  0
 31 36  1  0  0  0  0
 31 32  2  0  0  0  0
 32 33  1  0  0  0  0
 32 37  1  0  0  0  0
 34 38  1  0  0  0  0
 34 33  2  0  0  0  0
 35 34  1  0  0  0  0
 38 43  1  0  0  0  0
 39 38  2  0  0  0  0
 39 40  1  0  0  0  0
 40 41  2  0  0  0  0
 41 46  1  0  0  0  0
 41 42  1  0  0  0  0
 42 47  1  0  0  0  0
 43 42  2  0  0  0  0
 44 39  1  0  0  0  0
 45 40  1  0  0  0  0
M  END
>  <minimizedAffinity>
-5.61780596

>  <minimizedRMSD>
3.02305102

$$$$
