
 OpenBabel03252507043D

 47 50  0  0  0  0  0  0  0  0999 V2000
   41.8000   33.7750   41.3320 C   0  0  0  0  0  0  0  0  0  0  0  0
   41.4410   33.6690   42.3780 H   0  0  0  0  0  0  0  0  0  0  0  0
   42.0470   34.8890   41.2530 H   0  0  0  0  0  0  0  0  0  0  0  0
   40.9070   33.3650   40.4220 N   0  0  0  0  0  0  0  0  0  0  0  0
   40.2100   32.1150   40.3990 C   0  0  0  0  0  0  0  0  0  0  0  0
   38.8330   32.6030   40.8490 C   0  0  0  0  0  0  0  0  0  0  0  0
   38.2450   33.6020   39.9740 C   0  0  0  0  0  0  0  0  0  0  0  0
   39.1190   34.4060   39.1480 C   0  0  0  0  0  0  0  0  0  0  0  0
   40.6100   34.3440   39.3550 C   0  0  0  0  0  0  0  0  0  0  0  0
   40.1820   31.5450   39.4890 H   0  0  0  0  0  0  0  0  0  0  0  0
   40.5830   31.4560   41.2090 H   0  0  0  0  0  0  0  0  0  0  0  0
   38.8930   32.8730   41.9430 H   0  0  0  0  0  0  0  0  0  0  0  0
   38.2110   31.6600   40.8670 H   0  0  0  0  0  0  0  0  0  0  0  0
   37.6060   34.2990   40.5830 H   0  0  0  0  0  0  0  0  0  0  0  0
   37.5110   33.1030   39.2750 H   0  0  0  0  0  0  0  0  0  0  0  0
   38.7870   35.0630   38.4100 H   0  0  0  0  0  0  0  0  0  0  0  0
   41.7560   35.2710   38.4740 S   0  0  0  0  0  0  0  0  0  0  0  0
   41.2580   36.5040   37.3860 C   0  0  0  0  0  0  0  0  0  0  0  0
   40.7890   37.5510   38.2120 C   0  0  0  0  0  0  0  0  0  0  0  0
   40.7090   37.7010   39.3010 H   0  0  0  0  0  0  0  0  0  0  0  0
   40.2730   38.7410   37.6680 C   0  0  0  0  0  3  0  0  0  0  0  0
   40.2380   38.8590   36.2840 C   0  0  0  0  0  0  0  0  0  0  0  0
   39.8610   39.7330   35.7650 H   0  0  0  0  0  0  0  0  0  0  0  0
   40.6830   37.8670   35.4450 C   0  0  0  0  0  0  0  0  0  0  0  0
   40.6870   37.8850   34.3670 H   0  0  0  0  0  0  0  0  0  0  0  0
   41.1660   36.7470   36.0530 C   0  0  0  0  0  3  0  0  0  0  0  0
   43.1230   33.1070   41.2170 C   0  0  0  0  0  0  0  0  0  0  0  0
   43.3660   32.7820   40.1820 H   0  0  0  0  0  0  0  0  0  0  0  0
   43.1490   32.1730   41.8460 H   0  0  0  0  0  0  0  0  0  0  0  0
   44.1420   34.0070   41.7860 C   0  0  0  0  0  0  0  0  0  0  0  0
   43.7770   35.2060   42.3500 C   0  0  0  0  0  0  0  0  0  0  0  0
   44.7780   36.0220   42.8660 C   0  0  0  0  0  0  0  0  0  0  0  0
   46.0720   35.5870   42.7860 N   0  0  0  0  0  0  0  0  0  0  0  0
   46.3840   34.4180   42.2340 C   0  0  0  0  0  0  0  0  0  0  0  0
   45.4060   33.6570   41.7450 N   0  0  0  0  0  0  0  0  0  0  0  0
   42.8370   35.7040   42.5190 H   0  0  0  0  0  0  0  0  0  0  0  0
   44.6800   36.9900   43.3410 H   0  0  0  0  0  0  0  0  0  0  0  0
   47.7930   34.0210   42.2280 C   0  0  0  0  0  0  0  0  0  0  0  0
   48.1450   32.6890   42.0330 C   0  0  0  0  0  0  0  0  0  0  0  0
   49.4750   32.3230   42.0420 C   0  0  0  0  0  0  0  0  0  0  0  0
   50.3440   33.3530   42.2510 C   0  0  0  0  0  0  0  0  0  0  0  0
   50.0520   34.7060   42.4530 C   0  0  0  0  0  0  0  0  0  0  0  0
   48.7150   34.9800   42.4290 N   0  0  0  0  0  0  0  0  0  0  0  0
   47.3800   31.9340   41.8730 H   0  0  0  0  0  0  0  0  0  0  0  0
   49.8270   31.3280   41.9010 H   0  0  0  0  0  0  0  0  0  0  0  0
   51.4200   33.1150   42.2680 H   0  0  0  0  0  0  0  0  0  0  0  0
   50.8090   35.4340   42.6080 H   0  0  0  0  0  0  0  0  0  0  0  0
  1  2  1  0  0  0  0
  3  1  1  0  0  0  0
  4  1  1  0  0  0  0
  5  4  1  0  0  0  0
  5  6  1  0  0  0  0
  5 11  1  0  0  0  0
  6 13  1  0  0  0  0
  6 12  1  0  0  0  0
  7 14  1  0  0  0  0
  7  6  1  0  0  0  0
  8  9  2  0  0  0  0
  8  7  1  0  0  0  0
  9  4  1  0  0  0  0
 10  5  1  0  0  0  0
 15  7  1  0  0  0  0
 16  8  1  0  0  0  0
 17  9  1  0  0  0  0
 18 19  1  0  0  0  0
 18 17  1  0  0  0  0
 19 20  1  0  0  0  0
 21 19  2  0  0  0  0
 22 21  1  0  0  0  0
 23 22  1  0  0  0  0
 24 26  1  0  0  0  0
 24 22  2  0  0  0  0
 25 24  1  0  0  0  0
 26 18  2  0  0  0  0
 27  1  1  0  0  0  0
 27 30  1  0  0  0  0
 27 29  1  0  0  0  0
 28 27  1  0  0  0  0
 30 31  1  0  0  0  0
 31 36  1  0  0  0  0
 31 32  2  0  0  0  0
 32 37  1  0  0  0  0
 33 32  1  0  0  0  0
 34 33  2  0  0  0  0
 35 30  2  0  0  0  0
 35 34  1  0  0  0  0
 38 34  1  0  0  0  0
 38 43  1  0  0  0  0
 39 40  1  0  0  0  0
 39 38  2  0  0  0  0
 40 41  2  0  0  0  0
 41 46  1  0  0  0  0
 41 42  1  0  0  0  0
 42 47  1  0  0  0  0
 43 42  2  0  0  0  0
 44 39  1  0  0  0  0
 45 40  1  0  0  0  0
M  END
>  <minimizedAffinity>
-2.85887003

>  <minimizedRMSD>
0.204866916

$$$$
