
 OpenBabel03252507553D

 44 47  0  0  1  0  0  0  0  0999 V2000
   47.1140   33.3430   39.9680 C   0  0  2  0  0  0  0  0  0  0  0  0
   46.5170   33.9640   38.7030 C   0  0  0  0  0  0  0  0  0  0  0  0
   47.2890   33.1030   37.6800 C   0  0  0  0  0  0  0  0  0  0  0  0
   47.3660   31.7430   38.3010 C   0  0  1  0  0  0  0  0  0  0  0  0
   46.8280   31.8930   39.6920 C   0  0  0  0  0  0  0  0  0  0  0  0
   48.1700   33.5930   39.9510 H   0  0  0  0  0  0  0  0  0  0  0  0
   46.7940   35.0190   38.6080 H   0  0  0  0  0  0  0  0  0  0  0  0
   45.4470   33.7370   38.6430 H   0  0  0  0  0  0  0  0  0  0  0  0
   46.6720   33.1280   36.7590 H   0  0  0  0  0  0  0  0  0  0  0  0
   48.2670   33.5790   37.4960 H   0  0  0  0  0  0  0  0  0  0  0  0
   48.4290   31.4210   38.2900 H   0  0  0  0  0  0  0  0  0  0  0  0
   45.7760   31.6520   39.8140 H   0  0  0  0  0  0  0  0  0  0  0  0
   47.4990   31.3080   40.3640 H   0  0  0  0  0  0  0  0  0  0  0  0
   45.9830   35.4090   42.9080 C   0  0  0  0  0  0  0  0  0  0  0  0
   46.6780   35.0760   41.7520 C   0  0  0  0  0  0  0  0  0  0  0  0
   46.4170   33.8310   41.1940 C   0  0  0  0  0  0  0  0  0  0  0  0
   45.4880   32.9660   41.7910 N   0  0  0  0  0  0  0  0  0  0  0  0
   44.8410   33.3480   42.9210 C   0  0  0  0  0  0  0  0  0  0  0  0
   45.0890   34.5630   43.4730 N   0  0  0  0  0  0  0  0  0  0  0  0
   46.1520   36.3740   43.3830 H   0  0  0  0  0  0  0  0  0  0  0  0
   47.3920   35.7310   41.2860 H   0  0  0  0  0  0  0  0  0  0  0  0
   44.1470   32.6090   43.3000 H   0  0  0  0  0  0  0  0  0  0  0  0
   46.5320   30.6910   37.6060 C   0  0  2  0  0  0  0  0  0  0  0  0
   46.1480   30.9810   36.2310 C   0  0  0  0  0  0  0  0  0  0  0  0
   45.1150   30.9030   37.3090 C   0  0  1  0  0  0  0  0  0  0  0  0
   46.8420   29.6590   37.8510 H   0  0  0  0  0  0  0  0  0  0  0  0
   46.1420   30.2300   35.4370 H   0  0  0  0  0  0  0  0  0  0  0  0
   46.3090   32.0190   35.8350 H   0  0  0  0  0  0  0  0  0  0  0  0
   44.6550   31.7600   37.8030 H   0  0  0  0  0  0  0  0  0  0  0  0
   44.2710   29.7660   37.3160 O   0  0  0  0  0  0  0  0  0  0  0  0
   41.8300   29.4520   36.4510 O   0  0  0  0  0  0  0  0  0  0  0  0
   43.2050   29.8990   36.0210 P   0  0  1  0  0  0  0  0  0  0  0  0
   43.0780   31.5360   35.5290 O   0  0  0  0  0  0  0  0  0  0  0  0
   42.7940   32.1060   36.2860 H   0  0  0  0  0  0  0  0  0  0  0  0
   43.6500   29.0240   34.6880 O   0  0  0  0  0  0  0  0  0  0  0  0
   44.8850   28.5840   34.2940 C   0  0  0  0  0  0  0  0  0  0  0  0
   45.8560   29.2110   33.5330 C   0  0  0  0  0  0  0  0  0  0  0  0
   45.5520   30.2110   33.2160 H   0  0  0  0  0  0  0  0  0  0  0  0
   47.0430   28.5950   33.2450 C   0  0  0  0  0  3  0  0  0  0  0  0
   47.3140   27.3260   33.7040 C   0  0  0  0  0  0  0  0  0  0  0  0
   48.2800   26.9070   33.4320 H   0  0  0  0  0  0  0  0  0  0  0  0
   46.3810   26.6670   34.4630 C   0  0  0  0  0  0  0  0  0  0  0  0
   46.6300   25.6860   34.7980 H   0  0  0  0  0  0  0  0  0  0  0  0
   45.1980   27.2960   34.7430 C   0  0  0  0  0  3  0  0  0  0  0  0
  1  6  1  1  0  0  0
  1 16  1  0  0  0  0
  2  1  1  0  0  0  0
  3  4  1  0  0  0  0
  3  2  1  0  0  0  0
  4 11  1  1  0  0  0
  4  5  1  0  0  0  0
  5 12  1  0  0  0  0
  5  1  1  0  0  0  0
  5 13  1  0  0  0  0
  7  2  1  0  0  0  0
  8  2  1  0  0  0  0
  9  3  1  0  0  0  0
 10  3  1  0  0  0  0
 14 20  1  0  0  0  0
 14 19  1  0  0  0  0
 15 14  2  0  0  0  0
 16 15  1  0  0  0  0
 16 17  2  0  0  0  0
 17 18  1  0  0  0  0
 18 22  1  0  0  0  0
 18 19  2  0  0  0  0
 21 15  1  0  0  0  0
 23 26  1  1  0  0  0
 23  4  1  0  0  0  0
 24 25  1  0  0  0  0
 24 23  1  0  0  0  0
 25 30  1  0  0  0  0
 25 23  1  0  0  0  0
 25 29  1  1  0  0  0
 27 24  1  0  0  0  0
 28 24  1  0  0  0  0
 32 31  2  1  0  0  0
 32 30  1  0  0  0  0
 33 32  1  0  0  0  0
 33 34  1  0  0  0  0
 35 32  1  0  0  0  0
 36 35  1  0  0  0  0
 36 44  1  0  0  0  0
 37 36  2  0  0  0  0
 38 37  1  0  0  0  0
 39 37  1  0  0  0  0
 39 40  2  0  0  0  0
 40 42  1  0  0  0  0
 41 40  1  0  0  0  0
 42 44  2  0  0  0  0
 42 43  1  0  0  0  0
M  END
>  <minimizedAffinity>
-2.45876479

>  <minimizedRMSD>
7.60153103

$$$$
