
 OpenBabel03252503163D

 36 39  0  0  0  0  0  0  0  0999 V2000
   45.5890   34.5080   41.4170 C   0  0  0  0  0  0  0  0  0  0  0  0
   46.7950   34.6540   41.0670 O   0  0  0  0  0  0  0  0  0  0  0  0
   44.4580   34.1320   40.4930 C   0  0  0  0  0  0  0  0  0  0  0  0
   43.1340   34.4790   40.6160 C   0  0  0  0  0  0  0  0  0  0  0  0
   42.5270   33.9150   39.5660 N   0  0  0  0  0  0  0  0  0  0  0  0
   43.4260   33.2480   38.8220 C   0  0  0  0  0  0  0  0  0  0  0  0
   44.6410   33.3760   39.3920 N   0  0  0  0  0  0  0  0  0  0  0  0
   43.2840   32.4960   37.6260 N   0  0  0  0  0  0  0  0  0  0  0  0
   42.6940   35.0670   41.3830 H   0  0  0  0  0  0  0  0  0  0  0  0
   43.2560   33.2100   36.8430 H   0  0  0  0  0  0  0  0  0  0  0  0
   43.2210   31.4580   37.5450 H   0  0  0  0  0  0  0  0  0  0  0  0
   41.1520   33.9560   39.2050 C   0  0  0  0  0  0  0  0  0  0  0  0
   40.3140   33.3670   40.1590 C   0  0  0  0  0  0  0  0  0  0  0  0
   40.6740   32.9220   41.0790 H   0  0  0  0  0  0  0  0  0  0  0  0
   38.9550   33.3280   39.9540 C   0  0  0  0  0  0  0  0  0  0  0  0
   38.3850   33.8590   38.8250 C   0  0  0  0  0  0  0  0  0  0  0  0
   37.3140   33.8050   38.7070 H   0  0  0  0  0  0  0  0  0  0  0  0
   39.2180   34.4370   37.8920 C   0  0  0  0  0  0  0  0  0  0  0  0
   38.8000   34.8610   36.9980 H   0  0  0  0  0  0  0  0  0  0  0  0
   40.5770   34.4930   38.0640 C   0  0  0  0  0  0  0  0  0  0  0  0
   44.8950   35.9890   43.2520 C   0  0  0  0  0  0  0  0  0  0  0  0
   45.3160   34.7230   42.8070 C   0  0  0  0  0  0  0  0  0  0  0  0
   45.4310   33.7670   43.7970 C   0  0  0  0  0  0  0  0  0  0  0  0
   45.1650   34.0200   45.0820 N   0  0  0  0  0  0  0  0  0  0  0  0
   44.7600   35.2600   45.4620 C   0  0  0  0  0  0  0  0  0  0  0  0
   44.6290   36.2350   44.5400 N   0  0  0  0  0  0  0  0  0  0  0  0
   44.7890   36.7730   42.5130 H   0  0  0  0  0  0  0  0  0  0  0  0
   44.5360   35.5000   46.4910 H   0  0  0  0  0  0  0  0  0  0  0  0
   45.8540   32.4650   43.4310 C   0  0  0  0  0  0  0  0  0  0  0  0
   47.0480   31.8190   43.3440 C   0  0  0  0  0  0  0  0  0  0  0  0
   47.1650   30.5660   42.9640 C   0  0  0  0  0  0  0  0  0  0  0  0
   46.0160   29.9280   42.6530 C   0  0  0  0  0  0  0  0  0  0  0  0
   44.7200   31.1880   42.9210 S   0  0  0  0  0  0  0  0  0  0  0  0
   47.9110   32.4570   43.6280 H   0  0  0  0  0  0  0  0  0  0  0  0
   48.0860   30.0050   42.8780 H   0  0  0  0  0  0  0  0  0  0  0  0
   45.8570   28.8410   42.2970 H   0  0  0  0  0  0  0  0  0  0  0  0
  1 22  1  0  0  0  0
  2  1  2  0  0  0  0
  3  4  2  0  0  0  0
  3  1  1  0  0  0  0
  4  9  1  0  0  0  0
  5  4  1  0  0  0  0
  6  7  2  0  0  0  0
  6  5  1  0  0  0  0
  7  3  1  0  0  0  0
  8  6  1  0  0  0  0
 10  8  1  0  0  0  0
 11  8  1  0  0  0  0
 12  5  1  0  0  0  0
 12 13  1  0  0  0  0
 13 14  1  0  0  0  0
 15 13  2  0  0  0  0
 16 15  1  0  0  0  0
 17 16  1  0  0  0  0
 18 20  1  0  0  0  0
 18 16  2  0  0  0  0
 19 18  1  0  0  0  0
 20 12  2  0  0  0  0
 21 26  1  0  0  0  0
 22 21  2  0  0  0  0
 22 23  1  0  0  0  0
 23 24  2  0  0  0  0
 24 25  1  0  0  0  0
 25 28  1  0  0  0  0
 26 25  2  0  0  0  0
 27 21  1  0  0  0  0
 29 23  1  0  0  0  0
 30 29  2  0  0  0  0
 30 34  1  0  0  0  0
 31 30  1  0  0  0  0
 32 33  1  0  0  0  0
 32 31  2  0  0  0  0
 33 29  1  0  0  0  0
 35 31  1  0  0  0  0
 36 32  1  0  0  0  0
M  END
>  <minimizedAffinity>
-6.01396513

>  <minimizedRMSD>
1.59346831

$$$$
