
 OpenBabel03252507223D

 47 50  0  0  1  0  0  0  0  0999 V2000
   47.1000   33.1430   43.1850 C   0  0  0  0  0  0  0  0  0  0  0  0
   48.3170   33.1660   43.5610 O   0  0  0  0  0  0  0  0  0  0  0  0
   46.6080   32.2200   42.2270 N   0  0  0  0  0  0  0  0  0  0  0  0
   45.3730   31.4170   42.2400 C   0  0  0  0  0  0  0  0  0  0  0  0
   44.6180   31.6260   40.9360 C   0  0  0  0  0  0  0  0  0  0  0  0
   45.4210   31.1110   39.7860 C   0  0  0  0  0  0  0  0  0  0  0  0
   46.8660   30.8760   40.2180 C   0  0  0  0  0  0  0  0  0  0  0  0
   47.4000   31.9890   41.0450 C   0  0  2  0  0  0  0  0  0  0  0  0
   44.6940   31.8100   43.0410 H   0  0  0  0  0  0  0  0  0  0  0  0
   45.5590   30.3510   42.3910 H   0  0  0  0  0  0  0  0  0  0  0  0
   44.3780   32.7100   40.8860 H   0  0  0  0  0  0  0  0  0  0  0  0
   43.6580   31.0750   41.0440 H   0  0  0  0  0  0  0  0  0  0  0  0
   45.0200   30.1630   39.3840 H   0  0  0  0  0  0  0  0  0  0  0  0
   45.4550   31.8880   38.9880 H   0  0  0  0  0  0  0  0  0  0  0  0
   47.4910   30.7820   39.2920 H   0  0  0  0  0  0  0  0  0  0  0  0
   46.8860   29.8820   40.7070 H   0  0  0  0  0  0  0  0  0  0  0  0
   47.2890   32.9220   40.4280 H   0  0  0  0  0  0  0  0  0  0  0  0
   45.8040   35.2020   42.9680 C   0  0  0  0  0  0  0  0  0  0  0  0
   46.1960   34.1020   43.7620 C   0  0  0  0  0  0  0  0  0  0  0  0
   45.7110   33.9700   45.0550 C   0  0  0  0  0  0  0  0  0  0  0  0
   44.8670   34.9220   45.5070 N   0  0  0  0  0  0  0  0  0  0  0  0
   44.4790   35.9870   44.7580 C   0  0  0  0  0  0  0  0  0  0  0  0
   44.9580   36.1060   43.4970 N   0  0  0  0  0  0  0  0  0  0  0  0
   46.1640   35.3240   41.9710 H   0  0  0  0  0  0  0  0  0  0  0  0
   43.7980   36.6790   45.2370 H   0  0  0  0  0  0  0  0  0  0  0  0
   46.1350   32.8300   45.8430 C   0  0  0  0  0  0  0  0  0  0  0  0
   45.6400   31.5930   45.5910 C   0  0  0  0  0  0  0  0  0  0  0  0
   46.0660   30.5290   46.3560 C   0  0  0  0  0  0  0  0  0  0  0  0
   46.9890   30.6630   47.3870 C   0  0  0  0  0  0  0  0  0  0  0  0
   47.4640   31.9560   47.6030 C   0  0  0  0  0  0  0  0  0  0  0  0
   47.0320   32.9700   46.8410 N   0  0  0  0  0  0  0  0  0  0  0  0
   44.9320   31.3570   44.8350 H   0  0  0  0  0  0  0  0  0  0  0  0
   45.7150   29.5130   46.2140 H   0  0  0  0  0  0  0  0  0  0  0  0
   47.3480   29.8680   48.0080 H   0  0  0  0  0  0  0  0  0  0  0  0
   48.1900   32.1870   48.3820 H   0  0  0  0  0  0  0  0  0  0  0  0
   48.8550   31.8180   41.3040 C   0  0  0  0  0  0  0  0  0  0  0  0
   49.1090   30.8790   41.8360 H   0  0  0  0  0  0  0  0  0  0  0  0
   49.3320   32.7070   41.8260 H   0  0  0  0  0  0  0  0  0  0  0  0
   49.5660   31.8350   39.9890 C   0  0  0  0  0  0  0  0  0  0  0  0
   50.8100   31.2150   39.8300 C   0  0  0  0  0  0  0  0  0  0  0  0
   51.2760   30.7240   40.6980 H   0  0  0  0  0  0  0  0  0  0  0  0
   51.5260   31.1620   38.6560 C   0  0  0  0  0  0  0  0  0  0  0  0
   50.9800   31.7650   37.5440 C   0  0  0  0  0  0  0  0  0  0  0  0
   51.4850   31.7630   36.5900 H   0  0  0  0  0  0  0  0  0  0  0  0
   49.7660   32.3890   37.6350 C   0  0  0  0  0  0  0  0  0  0  0  0
   49.2910   32.8820   36.7790 H   0  0  0  0  0  0  0  0  0  0  0  0
   49.0820   32.4180   38.8300 C   0  0  0  0  0  0  0  0  0  0  0  0
  1  2  2  0  0  0  0
  1 19  1  0  0  0  0
  3  4  1  0  0  0  0
  3  1  1  0  0  0  0
  4 10  1  0  0  0  0
  4  9  1  0  0  0  0
  5 12  1  0  0  0  0
  5  4  1  0  0  0  0
  6  7  1  0  0  0  0
  6  5  1  0  0  0  0
  7 16  1  0  0  0  0
  7  8  1  0  0  0  0
  8 17  1  6  0  0  0
  8 36  1  0  0  0  0
  8  3  1  0  0  0  0
 11  5  1  0  0  0  0
 13  6  1  0  0  0  0
 14  6  1  0  0  0  0
 15  7  1  0  0  0  0
 18 23  2  0  0  0  0
 18 19  1  0  0  0  0
 19 20  2  0  0  0  0
 20 21  1  0  0  0  0
 20 26  1  0  0  0  0
 22 25  1  0  0  0  0
 22 21  2  0  0  0  0
 23 22  1  0  0  0  0
 24 18  1  0  0  0  0
 26 31  1  0  0  0  0
 27 26  2  0  0  0  0
 27 28  1  0  0  0  0
 28 29  2  0  0  0  0
 29 30  1  0  0  0  0
 29 34  1  0  0  0  0
 30 35  1  0  0  0  0
 31 30  2  0  0  0  0
 32 27  1  0  0  0  0
 33 28  1  0  0  0  0
 36 38  1  0  0  0  0
 36 37  1  0  0  0  0
 39 36  1  0  0  0  0
 40 39  1  0  0  0  0
 40 41  1  0  0  0  0
 42 40  2  0  0  0  0
 43 45  2  0  0  0  0
 43 42  1  0  0  0  0
 44 43  1  0  0  0  0
 45 47  1  0  0  0  0
 46 45  1  0  0  0  0
 47 39  2  0  0  0  0
M  END
>  <minimizedAffinity>
-5.05854893

>  <minimizedRMSD>
1.26008642

$$$$
