
 OpenBabel03252507233D

 47 50  0  0  1  0  0  0  0  0999 V2000
   38.8190   30.6580   41.7130 C   0  0  0  0  0  0  0  0  0  0  0  0
   39.2390   30.4130   42.8900 O   0  0  0  0  0  0  0  0  0  0  0  0
   37.5430   30.2460   41.2490 N   0  0  0  0  0  0  0  0  0  0  0  0
   36.5350   30.9910   40.4770 C   0  0  0  0  0  0  0  0  0  0  0  0
   36.1200   30.1750   39.2620 C   0  0  0  0  0  0  0  0  0  0  0  0
   35.4460   28.9140   39.6920 C   0  0  0  0  0  0  0  0  0  0  0  0
   35.7010   28.6620   41.1750 C   0  0  0  0  0  0  0  0  0  0  0  0
   37.1160   28.9040   41.5590 C   0  0  2  0  0  0  0  0  0  0  0  0
   37.0080   31.9190   40.0630 H   0  0  0  0  0  0  0  0  0  0  0  0
   35.6510   31.2480   41.0670 H   0  0  0  0  0  0  0  0  0  0  0  0
   37.0420   30.0260   38.6580 H   0  0  0  0  0  0  0  0  0  0  0  0
   35.4370   30.8250   38.6730 H   0  0  0  0  0  0  0  0  0  0  0  0
   34.3540   28.9420   39.5270 H   0  0  0  0  0  0  0  0  0  0  0  0
   35.8990   28.0530   39.1470 H   0  0  0  0  0  0  0  0  0  0  0  0
   35.4460   27.5910   41.3910 H   0  0  0  0  0  0  0  0  0  0  0  0
   34.9580   29.2720   41.7260 H   0  0  0  0  0  0  0  0  0  0  0  0
   37.7390   28.2370   40.9030 H   0  0  0  0  0  0  0  0  0  0  0  0
   39.7770   32.7830   40.9850 C   0  0  0  0  0  0  0  0  0  0  0  0
   39.6860   31.3840   40.8230 C   0  0  0  0  0  0  0  0  0  0  0  0
   40.4180   30.7490   39.8300 C   0  0  0  0  0  0  0  0  0  0  0  0
   41.2040   31.5160   39.0440 N   0  0  0  0  0  0  0  0  0  0  0  0
   41.3050   32.8640   39.1850 C   0  0  0  0  0  0  0  0  0  0  0  0
   40.5850   33.4730   40.1580 N   0  0  0  0  0  0  0  0  0  0  0  0
   39.2240   33.2930   41.7410 H   0  0  0  0  0  0  0  0  0  0  0  0
   41.9690   33.3630   38.4920 H   0  0  0  0  0  0  0  0  0  0  0  0
   40.3000   29.3110   39.6900 C   0  0  0  0  0  0  0  0  0  0  0  0
   41.0380   28.4780   40.4650 C   0  0  0  0  0  0  0  0  0  0  0  0
   40.9000   27.1160   40.3090 C   0  0  0  0  0  0  0  0  0  0  0  0
   40.0300   26.5460   39.3860 C   0  0  0  0  0  0  0  0  0  0  0  0
   39.2960   27.4490   38.6160 C   0  0  0  0  0  0  0  0  0  0  0  0
   39.4520   28.7680   38.7920 N   0  0  0  0  0  0  0  0  0  0  0  0
   41.7360   28.7840   41.2040 H   0  0  0  0  0  0  0  0  0  0  0  0
   41.4560   26.3890   40.8910 H   0  0  0  0  0  0  0  0  0  0  0  0
   39.8890   25.4970   39.2290 H   0  0  0  0  0  0  0  0  0  0  0  0
   38.5820   27.1230   37.8600 H   0  0  0  0  0  0  0  0  0  0  0  0
   37.3730   28.4850   42.9630 C   0  0  0  0  0  0  0  0  0  0  0  0
   36.4550   28.3790   43.5750 H   0  0  0  0  0  0  0  0  0  0  0  0
   38.1320   29.1390   43.5010 H   0  0  0  0  0  0  0  0  0  0  0  0
   38.0880   27.1730   42.9330 C   0  0  0  0  0  0  0  0  0  0  0  0
   39.2940   26.9890   43.6190 C   0  0  0  0  0  0  0  0  0  0  0  0
   39.7270   27.8360   44.1730 H   0  0  0  0  0  0  0  0  0  0  0  0
   40.0090   25.8140   43.6660 C   0  0  0  0  0  3  0  0  0  0  0  0
   39.5030   24.7270   42.9850 C   0  0  0  0  0  0  0  0  0  0  0  0
   40.0100   23.7750   42.9780 H   0  0  0  0  0  0  0  0  0  0  0  0
   38.3280   24.8440   42.2950 C   0  0  0  0  0  0  0  0  0  0  0  0
   37.8850   24.0090   41.7390 H   0  0  0  0  0  0  0  0  0  0  0  0
   37.6430   26.0390   42.2740 C   0  0  0  0  0  3  0  0  0  0  0  0
  1  2  2  0  0  0  0
  3  8  1  0  0  0  0
  3  1  1  0  0  0  0
  4 10  1  0  0  0  0
  4  3  1  0  0  0  0
  5  6  1  0  0  0  0
  5  4  1  0  0  0  0
  6  7  1  0  0  0  0
  7 15  1  0  0  0  0
  7  8  1  0  0  0  0
  7 16  1  0  0  0  0
  8 17  1  6  0  0  0
  8 36  1  0  0  0  0
  9  4  1  0  0  0  0
 11  5  1  0  0  0  0
 12  5  1  0  0  0  0
 13  6  1  0  0  0  0
 14  6  1  0  0  0  0
 18 24  1  0  0  0  0
 19 18  1  0  0  0  0
 19  1  1  0  0  0  0
 20 19  2  0  0  0  0
 21 22  2  0  0  0  0
 21 20  1  0  0  0  0
 22 23  1  0  0  0  0
 23 18  2  0  0  0  0
 25 22  1  0  0  0  0
 26 20  1  0  0  0  0
 26 27  1  0  0  0  0
 27 32  1  0  0  0  0
 28 27  2  0  0  0  0
 28 33  1  0  0  0  0
 29 28  1  0  0  0  0
 30 31  1  0  0  0  0
 30 29  2  0  0  0  0
 31 26  2  0  0  0  0
 34 29  1  0  0  0  0
 35 30  1  0  0  0  0
 36 38  1  0  0  0  0
 36 37  1  0  0  0  0
 39 36  1  0  0  0  0
 39 40  1  0  0  0  0
 40 42  2  0  0  0  0
 40 41  1  0  0  0  0
 43 42  1  0  0  0  0
 44 43  1  0  0  0  0
 45 43  2  0  0  0  0
 46 45  1  0  0  0  0
 47 45  1  0  0  0  0
 47 39  2  0  0  0  0
M  END
>  <minimizedAffinity>
-6.04097939

$$$$

 OpenBabel03252507233D

 47 50  0  0  1  0  0  0  0  0999 V2000
   37.7460   26.8890   39.7060 C   0  0  0  0  0  0  0  0  0  0  0  0
   38.3770   27.3460   38.6990 O   0  0  0  0  0  0  0  0  0  0  0  0
   37.5170   27.6480   40.8820 N   0  0  0  0  0  0  0  0  0  0  0  0
   36.2920   27.7970   41.6860 C   0  0  0  0  0  0  0  0  0  0  0  0
   36.6060   27.5090   43.1470 C   0  0  0  0  0  0  0  0  0  0  0  0
   37.5620   28.5250   43.6800 C   0  0  0  0  0  0  0  0  0  0  0  0
   38.1990   29.3000   42.5300 C   0  0  0  0  0  0  0  0  0  0  0  0
   38.6170   28.4160   41.4110 C   0  0  2  0  0  0  0  0  0  0  0  0
   35.5600   27.0060   41.3790 H   0  0  0  0  0  0  0  0  0  0  0  0
   35.8400   28.7870   41.5940 H   0  0  0  0  0  0  0  0  0  0  0  0
   36.9730   26.4600   43.1850 H   0  0  0  0  0  0  0  0  0  0  0  0
   35.6320   27.5420   43.6830 H   0  0  0  0  0  0  0  0  0  0  0  0
   37.0740   29.2480   44.3570 H   0  0  0  0  0  0  0  0  0  0  0  0
   38.3950   28.0020   44.2040 H   0  0  0  0  0  0  0  0  0  0  0  0
   39.1040   29.8280   42.9310 H   0  0  0  0  0  0  0  0  0  0  0  0
   37.4770   30.0930   42.2520 H   0  0  0  0  0  0  0  0  0  0  0  0
   39.3210   27.6600   41.8530 H   0  0  0  0  0  0  0  0  0  0  0  0
   36.1150   25.2950   38.8300 C   0  0  0  0  0  0  0  0  0  0  0  0
   37.2480   25.5410   39.6360 C   0  0  0  0  0  0  0  0  0  0  0  0
   37.8460   24.4990   40.3300 C   0  0  0  0  0  0  0  0  0  0  0  0
   37.3060   23.2690   40.2020 N   0  0  0  0  0  0  0  0  0  0  0  0
   36.2170   23.0130   39.4310 C   0  0  0  0  0  0  0  0  0  0  0  0
   35.6400   24.0380   38.7570 N   0  0  0  0  0  0  0  0  0  0  0  0
   35.6390   26.0800   38.2870 H   0  0  0  0  0  0  0  0  0  0  0  0
   35.8810   21.9840   39.4110 H   0  0  0  0  0  0  0  0  0  0  0  0
   39.0060   24.7860   41.1510 C   0  0  0  0  0  0  0  0  0  0  0  0
   38.9170   24.7690   42.5040 C   0  0  0  0  0  0  0  0  0  0  0  0
   40.0390   25.0440   43.2550 C   0  0  0  0  0  0  0  0  0  0  0  0
   41.2730   25.3410   42.6880 C   0  0  0  0  0  0  0  0  0  0  0  0
   41.3080   25.3440   41.2930 C   0  0  0  0  0  0  0  0  0  0  0  0
   40.2000   25.0730   40.5900 N   0  0  0  0  0  0  0  0  0  0  0  0
   38.0370   24.5590   43.0590 H   0  0  0  0  0  0  0  0  0  0  0  0
   40.0440   25.0500   44.3400 H   0  0  0  0  0  0  0  0  0  0  0  0
   42.1700   25.5610   43.2290 H   0  0  0  0  0  0  0  0  0  0  0  0
   42.2170   25.5630   40.7340 H   0  0  0  0  0  0  0  0  0  0  0  0
   39.3880   29.1710   40.3870 C   0  0  0  0  0  0  0  0  0  0  0  0
   39.4430   28.6650   39.4030 H   0  0  0  0  0  0  0  0  0  0  0  0
   40.4280   29.4740   40.7320 H   0  0  0  0  0  0  0  0  0  0  0  0
   38.7400   30.5060   40.2080 C   0  0  0  0  0  0  0  0  0  0  0  0
   39.3050   31.6650   40.7520 C   0  0  0  0  0  0  0  0  0  0  0  0
   40.2330   31.5810   41.3370 H   0  0  0  0  0  0  0  0  0  0  0  0
   38.7920   32.9350   40.6200 C   0  0  0  0  0  3  0  0  0  0  0  0
   37.6290   33.0860   39.8950 C   0  0  0  0  0  0  0  0  0  0  0  0
   37.1710   34.0520   39.7510 H   0  0  0  0  0  0  0  0  0  0  0  0
   37.0280   31.9910   39.3380 C   0  0  0  0  0  0  0  0  0  0  0  0
   36.1040   32.0590   38.7540 H   0  0  0  0  0  0  0  0  0  0  0  0
   37.5750   30.7360   39.4940 C   0  0  0  0  0  3  0  0  0  0  0  0
  1  3  1  0  0  0  0
  2  1  2  0  0  0  0
  3  8  1  0  0  0  0
  3  4  1  0  0  0  0
  4  5  1  0  0  0  0
  5 11  1  0  0  0  0
  5  6  1  0  0  0  0
  5 12  1  0  0  0  0
  6 14  1  0  0  0  0
  6 13  1  0  0  0  0
  7 15  1  0  0  0  0
  7  6  1  0  0  0  0
  8 17  1  1  0  0  0
  8  7  1  0  0  0  0
  9  4  1  0  0  0  0
 10  4  1  0  0  0  0
 16  7  1  0  0  0  0
 18 19  1  0  0  0  0
 19  1  1  0  0  0  0
 19 20  2  0  0  0  0
 20 26  1  0  0  0  0
 21 20  1  0  0  0  0
 22 21  2  0  0  0  0
 23 18  2  0  0  0  0
 23 22  1  0  0  0  0
 24 18  1  0  0  0  0
 25 22  1  0  0  0  0
 26 27  1  0  0  0  0
 27 32  1  0  0  0  0
 27 28  2  0  0  0  0
 28 33  1  0  0  0  0
 29 34  1  0  0  0  0
 29 28  1  0  0  0  0
 30 29  2  0  0  0  0
 31 26  2  0  0  0  0
 31 30  1  0  0  0  0
 35 30  1  0  0  0  0
 36 38  1  0  0  0  0
 36  8  1  0  0  0  0
 37 36  1  0  0  0  0
 39 36  1  0  0  0  0
 39 40  1  0  0  0  0
 40 41  1  0  0  0  0
 42 40  2  0  0  0  0
 43 42  1  0  0  0  0
 44 43  1  0  0  0  0
 45 47  1  0  0  0  0
 45 43  2  0  0  0  0
 46 45  1  0  0  0  0
 47 39  2  0  0  0  0
M  END
>  <minimizedAffinity>
-6.00866556

$$$$

 OpenBabel03252507233D

 47 50  0  0  1  0  0  0  0  0999 V2000
   39.4050   29.2410   39.9940 C   0  0  0  0  0  0  0  0  0  0  0  0
   39.2730   28.1770   39.3060 O   0  0  0  0  0  0  0  0  0  0  0  0
   38.5470   30.3610   39.8510 N   0  0  0  0  0  0  0  0  0  0  0  0
   37.9100   31.1980   40.8820 C   0  0  0  0  0  0  0  0  0  0  0  0
   38.2060   32.6640   40.6000 C   0  0  0  0  0  0  0  0  0  0  0  0
   37.5860   33.0770   39.3060 C   0  0  0  0  0  0  0  0  0  0  0  0
   37.1710   31.8460   38.5060 C   0  0  0  0  0  0  0  0  0  0  0  0
   38.2100   30.7850   38.5150 C   0  0  2  0  0  0  0  0  0  0  0  0
   38.3910   30.9840   41.8710 H   0  0  0  0  0  0  0  0  0  0  0  0
   36.8300   31.0470   40.9450 H   0  0  0  0  0  0  0  0  0  0  0  0
   39.3120   32.7700   40.6400 H   0  0  0  0  0  0  0  0  0  0  0  0
   37.7850   33.2330   41.4570 H   0  0  0  0  0  0  0  0  0  0  0  0
   36.6960   33.7150   39.4500 H   0  0  0  0  0  0  0  0  0  0  0  0
   38.3480   33.6080   38.6890 H   0  0  0  0  0  0  0  0  0  0  0  0
   36.9920   32.1680   37.4470 H   0  0  0  0  0  0  0  0  0  0  0  0
   36.1840   31.5350   38.9040 H   0  0  0  0  0  0  0  0  0  0  0  0
   39.1460   31.2560   38.1090 H   0  0  0  0  0  0  0  0  0  0  0  0
   41.6670   29.9530   40.5770 C   0  0  0  0  0  0  0  0  0  0  0  0
   40.4750   29.2970   40.9540 C   0  0  0  0  0  0  0  0  0  0  0  0
   40.3620   28.7320   42.2160 C   0  0  0  0  0  0  0  0  0  0  0  0
   41.4210   28.8360   43.0460 N   0  0  0  0  0  0  0  0  0  0  0  0
   42.5750   29.4640   42.7020 C   0  0  0  0  0  0  0  0  0  0  0  0
   42.6750   30.0120   41.4670 N   0  0  0  0  0  0  0  0  0  0  0  0
   41.7770   30.3960   39.6130 H   0  0  0  0  0  0  0  0  0  0  0  0
   43.3490   29.4790   43.4580 H   0  0  0  0  0  0  0  0  0  0  0  0
   39.1250   28.0640   42.5690 C   0  0  0  0  0  0  0  0  0  0  0  0
   38.1830   28.6990   43.3090 C   0  0  0  0  0  0  0  0  0  0  0  0
   37.0170   28.0380   43.6260 C   0  0  0  0  0  0  0  0  0  0  0  0
   36.7540   26.7340   43.2200 C   0  0  0  0  0  0  0  0  0  0  0  0
   37.7560   26.1280   42.4620 C   0  0  0  0  0  0  0  0  0  0  0  0
   38.8800   26.7980   42.1690 N   0  0  0  0  0  0  0  0  0  0  0  0
   38.2600   29.6910   43.6810 H   0  0  0  0  0  0  0  0  0  0  0  0
   36.2190   28.4810   44.2130 H   0  0  0  0  0  0  0  0  0  0  0  0
   35.8660   26.1800   43.4410 H   0  0  0  0  0  0  0  0  0  0  0  0
   37.6670   25.1090   42.0860 H   0  0  0  0  0  0  0  0  0  0  0  0
   37.8550   29.6750   37.5900 C   0  0  0  0  0  0  0  0  0  0  0  0
   38.4220   28.7400   37.7710 H   0  0  0  0  0  0  0  0  0  0  0  0
   37.9120   29.9620   36.4910 H   0  0  0  0  0  0  0  0  0  0  0  0
   36.3950   29.3920   37.7420 C   0  0  0  0  0  0  0  0  0  0  0  0
   35.5470   29.3410   36.6300 C   0  0  0  0  0  0  0  0  0  0  0  0
   35.9660   29.5320   35.6310 H   0  0  0  0  0  0  0  0  0  0  0  0
   34.1990   29.0670   36.6720 C   0  0  0  0  0  3  0  0  0  0  0  0
   33.6320   28.8210   37.9050 C   0  0  0  0  0  0  0  0  0  0  0  0
   32.5820   28.5990   38.0130 H   0  0  0  0  0  0  0  0  0  0  0  0
   34.4090   28.8570   39.0300 C   0  0  0  0  0  0  0  0  0  0  0  0
   34.0050   28.6690   40.0320 H   0  0  0  0  0  0  0  0  0  0  0  0
   35.7550   29.1350   38.9440 C   0  0  0  0  0  3  0  0  0  0  0  0
  1 19  1  0  0  0  0
  2  1  2  0  0  0  0
  3  1  1  0  0  0  0
  3  4  1  0  0  0  0
  4 10  1  0  0  0  0
  4  9  1  0  0  0  0
  5 11  1  0  0  0  0
  5  4  1  0  0  0  0
  5 12  1  0  0  0  0
  6 13  1  0  0  0  0
  6  5  1  0  0  0  0
  7  8  1  0  0  0  0
  7 16  1  0  0  0  0
  7  6  1  0  0  0  0
  8 17  1  6  0  0  0
  8  3  1  0  0  0  0
 14  6  1  0  0  0  0
 15  7  1  0  0  0  0
 18 19  2  0  0  0  0
 18 23  1  0  0  0  0
 19 20  1  0  0  0  0
 20 26  1  0  0  0  0
 20 21  2  0  0  0  0
 22 21  1  0  0  0  0
 22 25  1  0  0  0  0
 23 22  2  0  0  0  0
 24 18  1  0  0  0  0
 26 27  1  0  0  0  0
 27 28  2  0  0  0  0
 27 32  1  0  0  0  0
 28 33  1  0  0  0  0
 29 34  1  0  0  0  0
 29 28  1  0  0  0  0
 30 29  2  0  0  0  0
 31 30  1  0  0  0  0
 31 26  2  0  0  0  0
 35 30  1  0  0  0  0
 36 39  1  0  0  0  0
 36 37  1  0  0  0  0
 36  8  1  0  0  0  0
 38 36  1  0  0  0  0
 39 47  1  0  0  0  0
 40 42  1  0  0  0  0
 40 39  2  0  0  0  0
 41 40  1  0  0  0  0
 42 43  2  0  0  0  0
 43 44  1  0  0  0  0
 43 45  1  0  0  0  0
 45 46  1  0  0  0  0
 47 45  2  0  0  0  0
M  END
>  <minimizedAffinity>
-5.99217606

$$$$

 OpenBabel03252507233D

 47 50  0  0  1  0  0  0  0  0999 V2000
   36.9920   30.5920   39.6720 C   0  0  0  0  0  0  0  0  0  0  0  0
   35.8910   30.3320   40.2570 O   0  0  0  0  0  0  0  0  0  0  0  0
   37.5600   29.7440   38.6870 N   0  0  0  0  0  0  0  0  0  0  0  0
   38.1670   30.0820   37.3880 C   0  0  0  0  0  0  0  0  0  0  0  0
   39.5400   29.4360   37.2860 C   0  0  0  0  0  0  0  0  0  0  0  0
   39.4130   27.9480   37.2950 C   0  0  0  0  0  0  0  0  0  0  0  0
   38.0180   27.5430   37.7620 C   0  0  0  0  0  0  0  0  0  0  0  0
   37.5640   28.3240   38.9410 C   0  0  2  0  0  0  0  0  0  0  0  0
   38.3560   31.1870   37.3540 H   0  0  0  0  0  0  0  0  0  0  0  0
   37.5520   29.7770   36.5380 H   0  0  0  0  0  0  0  0  0  0  0  0
   40.1440   29.8560   38.1200 H   0  0  0  0  0  0  0  0  0  0  0  0
   39.9840   29.8030   36.3350 H   0  0  0  0  0  0  0  0  0  0  0  0
   39.5880   27.5040   36.2990 H   0  0  0  0  0  0  0  0  0  0  0  0
   40.1270   27.5250   38.0390 H   0  0  0  0  0  0  0  0  0  0  0  0
   38.0490   26.4560   38.0390 H   0  0  0  0  0  0  0  0  0  0  0  0
   37.3600   27.6160   36.8740 H   0  0  0  0  0  0  0  0  0  0  0  0
   38.3380   28.1690   39.7400 H   0  0  0  0  0  0  0  0  0  0  0  0
   37.2030   33.0190   39.5120 C   0  0  0  0  0  0  0  0  0  0  0  0
   37.6830   31.8000   40.0370 C   0  0  0  0  0  0  0  0  0  0  0  0
   38.7860   31.7910   40.8780 C   0  0  0  0  0  0  0  0  0  0  0  0
   39.3660   32.9760   41.1620 N   0  0  0  0  0  0  0  0  0  0  0  0
   38.9200   34.1590   40.6660 C   0  0  0  0  0  0  0  0  0  0  0  0
   37.8410   34.1570   39.8460 N   0  0  0  0  0  0  0  0  0  0  0  0
   36.3570   33.0510   38.8640 H   0  0  0  0  0  0  0  0  0  0  0  0
   39.4720   35.0390   40.9700 H   0  0  0  0  0  0  0  0  0  0  0  0
   39.2530   30.5210   41.3990 C   0  0  0  0  0  0  0  0  0  0  0  0
   38.7230   30.0020   42.5340 C   0  0  0  0  0  0  0  0  0  0  0  0
   39.1860   28.7920   43.0010 C   0  0  0  0  0  0  0  0  0  0  0  0
   40.1840   28.0670   42.3580 C   0  0  0  0  0  0  0  0  0  0  0  0
   40.6930   28.6460   41.1960 C   0  0  0  0  0  0  0  0  0  0  0  0
   40.2210   29.8250   40.7670 N   0  0  0  0  0  0  0  0  0  0  0  0
   37.9600   30.4550   43.1180 H   0  0  0  0  0  0  0  0  0  0  0  0
   38.8110   28.3160   43.9010 H   0  0  0  0  0  0  0  0  0  0  0  0
   40.5760   27.1250   42.6830 H   0  0  0  0  0  0  0  0  0  0  0  0
   41.4770   28.1740   40.6050 H   0  0  0  0  0  0  0  0  0  0  0  0
   36.2820   27.7930   39.4790 C   0  0  0  0  0  0  0  0  0  0  0  0
   35.5580   27.4890   38.6960 H   0  0  0  0  0  0  0  0  0  0  0  0
   35.7820   28.4840   40.2300 H   0  0  0  0  0  0  0  0  0  0  0  0
   36.5940   26.6080   40.3350 C   0  0  0  0  0  0  0  0  0  0  0  0
   36.8540   26.7510   41.7020 C   0  0  0  0  0  0  0  0  0  0  0  0
   36.8470   27.7590   42.1440 H   0  0  0  0  0  0  0  0  0  0  0  0
   37.1280   25.7190   42.5700 C   0  0  0  0  0  3  0  0  0  0  0  0
   37.1490   24.4390   42.0580 C   0  0  0  0  0  0  0  0  0  0  0  0
   37.3560   23.5820   42.6800 H   0  0  0  0  0  0  0  0  0  0  0  0
   36.9020   24.2330   40.7290 C   0  0  0  0  0  0  0  0  0  0  0  0
   36.9070   23.2360   40.2750 H   0  0  0  0  0  0  0  0  0  0  0  0
   36.6320   25.2950   39.8950 C   0  0  0  0  0  3  0  0  0  0  0  0
  1 19  1  0  0  0  0
  1  2  2  0  0  0  0
  3  8  1  0  0  0  0
  3  1  1  0  0  0  0
  4  3  1  0  0  0  0
  5  6  1  0  0  0  0
  5  4  1  0  0  0  0
  5 11  1  0  0  0  0
  6  7  1  0  0  0  0
  6 14  1  0  0  0  0
  7 15  1  0  0  0  0
  7  8  1  0  0  0  0
  8 36  1  0  0  0  0
  8 17  1  1  0  0  0
  9  4  1  0  0  0  0
 10  4  1  0  0  0  0
 12  5  1  0  0  0  0
 13  6  1  0  0  0  0
 16  7  1  0  0  0  0
 18 23  2  0  0  0  0
 18 19  1  0  0  0  0
 19 20  2  0  0  0  0
 20 21  1  0  0  0  0
 20 26  1  0  0  0  0
 22 25  1  0  0  0  0
 22 21  2  0  0  0  0
 23 22  1  0  0  0  0
 24 18  1  0  0  0  0
 26 27  1  0  0  0  0
 27 28  2  0  0  0  0
 27 32  1  0  0  0  0
 28 33  1  0  0  0  0
 29 34  1  0  0  0  0
 29 28  1  0  0  0  0
 30 29  2  0  0  0  0
 31 30  1  0  0  0  0
 31 26  2  0  0  0  0
 35 30  1  0  0  0  0
 36 38  1  0  0  0  0
 36 39  1  0  0  0  0
 37 36  1  0  0  0  0
 39 40  1  0  0  0  0
 40 41  1  0  0  0  0
 40 42  2  0  0  0  0
 43 42  1  0  0  0  0
 43 44  1  0  0  0  0
 45 43  2  0  0  0  0
 46 45  1  0  0  0  0
 47 39  2  0  0  0  0
 47 45  1  0  0  0  0
M  END
>  <minimizedAffinity>
-5.96750021

$$$$

 OpenBabel03252507233D

 47 50  0  0  1  0  0  0  0  0999 V2000
   39.1110   29.3760   40.3610 C   0  0  0  0  0  0  0  0  0  0  0  0
   39.7430   28.9070   39.3590 O   0  0  0  0  0  0  0  0  0  0  0  0
   38.6070   28.5590   41.4050 N   0  0  0  0  0  0  0  0  0  0  0  0
   38.6640   28.7510   42.8640 C   0  0  0  0  0  0  0  0  0  0  0  0
   37.2660   28.6130   43.4480 C   0  0  0  0  0  0  0  0  0  0  0  0
   36.7560   27.2250   43.2460 C   0  0  0  0  0  0  0  0  0  0  0  0
   37.6160   26.4940   42.2190 C   0  0  0  0  0  0  0  0  0  0  0  0
   37.9330   27.3380   41.0380 C   0  0  2  0  0  0  0  0  0  0  0  0
   38.9710   29.8080   43.0780 H   0  0  0  0  0  0  0  0  0  0  0  0
   39.3410   28.0520   43.3600 H   0  0  0  0  0  0  0  0  0  0  0  0
   36.6500   29.4080   42.9740 H   0  0  0  0  0  0  0  0  0  0  0  0
   37.3580   28.8620   44.5280 H   0  0  0  0  0  0  0  0  0  0  0  0
   36.7550   26.6350   44.1800 H   0  0  0  0  0  0  0  0  0  0  0  0
   35.7280   27.2720   42.8150 H   0  0  0  0  0  0  0  0  0  0  0  0
   37.0480   25.5900   41.8750 H   0  0  0  0  0  0  0  0  0  0  0  0
   38.4990   26.1120   42.7680 H   0  0  0  0  0  0  0  0  0  0  0  0
   36.9460   27.6630   40.6090 H   0  0  0  0  0  0  0  0  0  0  0  0
   39.9720   31.6020   40.8770 C   0  0  0  0  0  0  0  0  0  0  0  0
   38.9040   30.7980   40.4240 C   0  0  0  0  0  0  0  0  0  0  0  0
   37.7010   31.3840   40.0550 C   0  0  0  0  0  0  0  0  0  0  0  0
   37.6030   32.7260   40.1490 N   0  0  0  0  0  0  0  0  0  0  0  0
   38.6200   33.5160   40.5830 C   0  0  0  0  0  0  0  0  0  0  0  0
   39.7900   32.9350   40.9400 N   0  0  0  0  0  0  0  0  0  0  0  0
   40.9060   31.1750   41.1660 H   0  0  0  0  0  0  0  0  0  0  0  0
   38.4140   34.5790   40.6120 H   0  0  0  0  0  0  0  0  0  0  0  0
   36.6240   30.5290   39.5950 C   0  0  0  0  0  0  0  0  0  0  0  0
   36.5120   30.2030   38.2830 C   0  0  0  0  0  0  0  0  0  0  0  0
   35.4790   29.3860   37.8790 C   0  0  0  0  0  0  0  0  0  0  0  0
   34.5340   28.8720   38.7600 C   0  0  0  0  0  0  0  0  0  0  0  0
   34.6970   29.2380   40.0960 C   0  0  0  0  0  0  0  0  0  0  0  0
   35.7130   30.0340   40.4590 N   0  0  0  0  0  0  0  0  0  0  0  0
   37.1640   30.5290   37.5120 H   0  0  0  0  0  0  0  0  0  0  0  0
   35.3250   29.0840   36.8490 H   0  0  0  0  0  0  0  0  0  0  0  0
   33.7160   28.2360   38.4940 H   0  0  0  0  0  0  0  0  0  0  0  0
   34.0210   28.8990   40.8800 H   0  0  0  0  0  0  0  0  0  0  0  0
   38.6200   26.5500   39.9800 C   0  0  0  0  0  0  0  0  0  0  0  0
   39.0460   25.5910   40.3400 H   0  0  0  0  0  0  0  0  0  0  0  0
   39.4070   27.1410   39.4120 H   0  0  0  0  0  0  0  0  0  0  0  0
   37.6310   26.2630   38.8970 C   0  0  0  0  0  0  0  0  0  0  0  0
   37.9030   26.5880   37.5640 C   0  0  0  0  0  0  0  0  0  0  0  0
   38.8560   27.0800   37.3180 H   0  0  0  0  0  0  0  0  0  0  0  0
   37.0640   26.3430   36.5000 C   0  0  0  0  0  3  0  0  0  0  0  0
   35.8590   25.7270   36.7630 C   0  0  0  0  0  0  0  0  0  0  0  0
   35.1520   25.5050   35.9780 H   0  0  0  0  0  0  0  0  0  0  0  0
   35.5350   25.3850   38.0470 C   0  0  0  0  0  0  0  0  0  0  0  0
   34.5890   24.8950   38.3060 H   0  0  0  0  0  0  0  0  0  0  0  0
   36.4040   25.6480   39.0820 C   0  0  0  0  0  3  0  0  0  0  0  0
  1 19  1  0  0  0  0
  1  3  1  0  0  0  0
  2  1  2  0  0  0  0
  3  4  1  0  0  0  0
  4  9  1  0  0  0  0
  4 10  1  0  0  0  0
  4  5  1  0  0  0  0
  5 12  1  0  0  0  0
  6  5  1  0  0  0  0
  6 13  1  0  0  0  0
  7 16  1  0  0  0  0
  7  6  1  0  0  0  0
  8 17  1  6  0  0  0
  8  3  1  0  0  0  0
  8  7  1  0  0  0  0
 11  5  1  0  0  0  0
 14  6  1  0  0  0  0
 15  7  1  0  0  0  0
 18 23  1  0  0  0  0
 18 24  1  0  0  0  0
 19 18  2  0  0  0  0
 20 21  2  0  0  0  0
 20 19  1  0  0  0  0
 21 22  1  0  0  0  0
 22 25  1  0  0  0  0
 22 23  2  0  0  0  0
 26 20  1  0  0  0  0
 26 31  1  0  0  0  0
 27 26  2  0  0  0  0
 28 27  1  0  0  0  0
 28 29  2  0  0  0  0
 29 30  1  0  0  0  0
 30 31  2  0  0  0  0
 30 35  1  0  0  0  0
 32 27  1  0  0  0  0
 33 28  1  0  0  0  0
 34 29  1  0  0  0  0
 36 37  1  0  0  0  0
 36  8  1  0  0  0  0
 38 36  1  0  0  0  0
 39 47  1  0  0  0  0
 39 36  1  0  0  0  0
 40 39  2  0  0  0  0
 41 40  1  0  0  0  0
 42 43  2  0  0  0  0
 42 40  1  0  0  0  0
 43 45  1  0  0  0  0
 44 43  1  0  0  0  0
 45 46  1  0  0  0  0
 45 47  2  0  0  0  0
M  END
>  <minimizedAffinity>
-5.93678951

$$$$

 OpenBabel03252507233D

 47 50  0  0  1  0  0  0  0  0999 V2000
   39.7560   29.0620   39.7690 C   0  0  0  0  0  0  0  0  0  0  0  0
   39.4030   28.3460   38.7770 O   0  0  0  0  0  0  0  0  0  0  0  0
   40.6500   28.6020   40.7710 N   0  0  0  0  0  0  0  0  0  0  0  0
   41.7940   29.2850   41.3980 C   0  0  0  0  0  0  0  0  0  0  0  0
   41.6590   29.2140   42.9120 C   0  0  0  0  0  0  0  0  0  0  0  0
   41.7350   27.7950   43.3720 C   0  0  0  0  0  0  0  0  0  0  0  0
   41.5590   26.8490   42.1870 C   0  0  0  0  0  0  0  0  0  0  0  0
   40.4580   27.2680   41.2840 C   0  0  2  0  0  0  0  0  0  0  0  0
   41.7470   30.3760   41.1480 H   0  0  0  0  0  0  0  0  0  0  0  0
   42.7570   28.8680   41.0950 H   0  0  0  0  0  0  0  0  0  0  0  0
   40.7090   29.7330   43.1640 H   0  0  0  0  0  0  0  0  0  0  0  0
   42.4930   29.8230   43.3250 H   0  0  0  0  0  0  0  0  0  0  0  0
   42.6970   27.5620   43.8620 H   0  0  0  0  0  0  0  0  0  0  0  0
   40.8860   27.5890   44.0650 H   0  0  0  0  0  0  0  0  0  0  0  0
   41.3260   25.8290   42.5930 H   0  0  0  0  0  0  0  0  0  0  0  0
   42.5530   26.7690   41.7040 H   0  0  0  0  0  0  0  0  0  0  0  0
   39.5330   27.3260   41.9190 H   0  0  0  0  0  0  0  0  0  0  0  0
   39.7660   31.3920   39.0370 C   0  0  0  0  0  0  0  0  0  0  0  0
   39.2170   30.3920   39.8690 C   0  0  0  0  0  0  0  0  0  0  0  0
   38.1910   30.7060   40.7480 C   0  0  0  0  0  0  0  0  0  0  0  0
   37.7530   31.9820   40.7700 N   0  0  0  0  0  0  0  0  0  0  0  0
   38.2680   32.9570   39.9770 C   0  0  0  0  0  0  0  0  0  0  0  0
   39.2700   32.6400   39.1220 N   0  0  0  0  0  0  0  0  0  0  0  0
   40.5550   31.1740   38.3530 H   0  0  0  0  0  0  0  0  0  0  0  0
   37.8290   33.9400   40.0890 H   0  0  0  0  0  0  0  0  0  0  0  0
   37.6520   29.6560   41.5900 C   0  0  0  0  0  0  0  0  0  0  0  0
   36.6880   28.8230   41.1250 C   0  0  0  0  0  0  0  0  0  0  0  0
   36.1990   27.8330   41.9490 C   0  0  0  0  0  0  0  0  0  0  0  0
   36.6500   27.6430   43.2510 C   0  0  0  0  0  0  0  0  0  0  0  0
   37.6410   28.5270   43.6780 C   0  0  0  0  0  0  0  0  0  0  0  0
   38.0970   29.4790   42.8520 N   0  0  0  0  0  0  0  0  0  0  0  0
   36.2590   28.8620   40.1550 H   0  0  0  0  0  0  0  0  0  0  0  0
   35.4280   27.1320   41.6480 H   0  0  0  0  0  0  0  0  0  0  0  0
   36.3000   26.8910   43.9270 H   0  0  0  0  0  0  0  0  0  0  0  0
   38.0740   28.4780   44.6760 H   0  0  0  0  0  0  0  0  0  0  0  0
   40.1960   26.2410   40.2400 C   0  0  0  0  0  0  0  0  0  0  0  0
   41.0120   25.4990   40.1250 H   0  0  0  0  0  0  0  0  0  0  0  0
   39.9180   26.6790   39.2290 H   0  0  0  0  0  0  0  0  0  0  0  0
   38.9370   25.5210   40.6030 C   0  0  0  0  0  0  0  0  0  0  0  0
   37.8810   25.4040   39.6910 C   0  0  0  0  0  0  0  0  0  0  0  0
   37.9800   25.8700   38.6990 H   0  0  0  0  0  0  0  0  0  0  0  0
   36.6970   24.7440   39.9290 C   0  0  0  0  0  3  0  0  0  0  0  0
   36.5320   24.1470   41.1600 C   0  0  0  0  0  0  0  0  0  0  0  0
   35.6300   23.6120   41.4150 H   0  0  0  0  0  0  0  0  0  0  0  0
   37.5270   24.2260   42.0940 C   0  0  0  0  0  0  0  0  0  0  0  0
   37.4430   23.7680   43.0860 H   0  0  0  0  0  0  0  0  0  0  0  0
   38.6970   24.8970   41.8160 C   0  0  0  0  0  3  0  0  0  0  0  0
  1 19  1  0  0  0  0
  1  3  1  0  0  0  0
  2  1  2  0  0  0  0
  3  8  1  0  0  0  0
  3  4  1  0  0  0  0
  4  5  1  0  0  0  0
  5 11  1  0  0  0  0
  5 12  1  0  0  0  0
  5  6  1  0  0  0  0
  6 13  1  0  0  0  0
  6 14  1  0  0  0  0
  7 15  1  0  0  0  0
  7  6  1  0  0  0  0
  8 17  1  1  0  0  0
  8  7  1  0  0  0  0
  9  4  1  0  0  0  0
 10  4  1  0  0  0  0
 16  7  1  0  0  0  0
 18 23  2  0  0  0  0
 18 19  1  0  0  0  0
 19 20  2  0  0  0  0
 20 21  1  0  0  0  0
 20 26  1  0  0  0  0
 22 25  1  0  0  0  0
 22 21  2  0  0  0  0
 23 22  1  0  0  0  0
 24 18  1  0  0  0  0
 26 31  1  0  0  0  0
 27 26  2  0  0  0  0
 27 28  1  0  0  0  0
 28 29  2  0  0  0  0
 29 30  1  0  0  0  0
 29 34  1  0  0  0  0
 30 35  1  0  0  0  0
 31 30  2  0  0  0  0
 32 27  1  0  0  0  0
 33 28  1  0  0  0  0
 36 39  1  0  0  0  0
 36  8  1  0  0  0  0
 37 36  1  0  0  0  0
 38 36  1  0  0  0  0
 39 47  1  0  0  0  0
 40 42  1  0  0  0  0
 40 39  2  0  0  0  0
 41 40  1  0  0  0  0
 42 43  2  0  0  0  0
 43 44  1  0  0  0  0
 43 45  1  0  0  0  0
 45 46  1  0  0  0  0
 47 45  2  0  0  0  0
M  END
>  <minimizedAffinity>
-5.78703928

$$$$

 OpenBabel03252507233D

 47 50  0  0  1  0  0  0  0  0999 V2000
   37.9720   29.4320   39.7700 C   0  0  0  0  0  0  0  0  0  0  0  0
   37.7430   28.8890   38.6400 O   0  0  0  0  0  0  0  0  0  0  0  0
   37.9050   28.7180   40.9940 N   0  0  0  0  0  0  0  0  0  0  0  0
   38.8260   28.7310   42.1430 C   0  0  0  0  0  0  0  0  0  0  0  0
   38.0400   28.9930   43.4200 C   0  0  0  0  0  0  0  0  0  0  0  0
   37.0880   27.8730   43.6800 C   0  0  0  0  0  0  0  0  0  0  0  0
   36.9350   27.0130   42.4280 C   0  0  0  0  0  0  0  0  0  0  0  0
   36.7900   27.8260   41.1940 C   0  0  2  0  0  0  0  0  0  0  0  0
   39.5220   29.6030   42.0400 H   0  0  0  0  0  0  0  0  0  0  0  0
   39.3940   27.8030   42.2450 H   0  0  0  0  0  0  0  0  0  0  0  0
   37.5630   29.9890   43.2920 H   0  0  0  0  0  0  0  0  0  0  0  0
   38.7950   29.0860   44.2320 H   0  0  0  0  0  0  0  0  0  0  0  0
   37.4180   27.2220   44.5090 H   0  0  0  0  0  0  0  0  0  0  0  0
   36.0790   28.2940   43.8950 H   0  0  0  0  0  0  0  0  0  0  0  0
   36.0160   26.3810   42.5550 H   0  0  0  0  0  0  0  0  0  0  0  0
   37.7930   26.3120   42.4260 H   0  0  0  0  0  0  0  0  0  0  0  0
   35.9030   28.4950   41.3580 H   0  0  0  0  0  0  0  0  0  0  0  0
   37.3270   31.7400   40.2380 C   0  0  0  0  0  0  0  0  0  0  0  0
   38.3090   30.8300   39.7920 C   0  0  0  0  0  0  0  0  0  0  0  0
   39.5550   31.2920   39.3930 C   0  0  0  0  0  0  0  0  0  0  0  0
   39.7770   32.6220   39.4500 N   0  0  0  0  0  0  0  0  0  0  0  0
   38.8440   33.5130   39.8760 C   0  0  0  0  0  0  0  0  0  0  0  0
   37.6310   33.0510   40.2630 N   0  0  0  0  0  0  0  0  0  0  0  0
   36.3620   31.4090   40.5500 H   0  0  0  0  0  0  0  0  0  0  0  0
   39.1470   34.5530   39.8750 H   0  0  0  0  0  0  0  0  0  0  0  0
   40.5400   30.3310   38.9390 C   0  0  0  0  0  0  0  0  0  0  0  0
   40.7200   30.0980   37.6150 C   0  0  0  0  0  0  0  0  0  0  0  0
   41.6660   29.1800   37.2160 C   0  0  0  0  0  0  0  0  0  0  0  0
   42.4570   28.4720   38.1140 C   0  0  0  0  0  0  0  0  0  0  0  0
   42.2310   28.7500   39.4620 C   0  0  0  0  0  0  0  0  0  0  0  0
   41.3040   29.6490   39.8190 N   0  0  0  0  0  0  0  0  0  0  0  0
   40.1820   30.5700   36.8300 H   0  0  0  0  0  0  0  0  0  0  0  0
   41.8650   28.9410   36.1760 H   0  0  0  0  0  0  0  0  0  0  0  0
   43.2030   27.7500   37.8520 H   0  0  0  0  0  0  0  0  0  0  0  0
   42.7880   28.2600   40.2590 H   0  0  0  0  0  0  0  0  0  0  0  0
   36.4700   26.9710   40.0190 C   0  0  0  0  0  0  0  0  0  0  0  0
   36.6970   27.4450   39.0430 H   0  0  0  0  0  0  0  0  0  0  0  0
   35.4060   26.5710   40.0240 H   0  0  0  0  0  0  0  0  0  0  0  0
   37.2580   25.7060   40.1360 C   0  0  0  0  0  0  0  0  0  0  0  0
   36.6430   24.5000   40.4920 C   0  0  0  0  0  0  0  0  0  0  0  0
   35.5640   24.4950   40.7070 H   0  0  0  0  0  0  0  0  0  0  0  0
   37.2820   23.2860   40.6040 C   0  0  0  0  0  3  0  0  0  0  0  0
   38.6360   23.2480   40.3440 C   0  0  0  0  0  0  0  0  0  0  0  0
   39.2010   22.3310   40.4110 H   0  0  0  0  0  0  0  0  0  0  0  0
   39.2940   24.3940   39.9910 C   0  0  0  0  0  0  0  0  0  0  0  0
   40.3680   24.4140   39.7750 H   0  0  0  0  0  0  0  0  0  0  0  0
   38.6160   25.5890   39.8910 C   0  0  0  0  0  3  0  0  0  0  0  0
  1 19  1  0  0  0  0
  1  3  1  0  0  0  0
  2  1  2  0  0  0  0
  3  8  1  0  0  0  0
  3  4  1  0  0  0  0
  4 10  1  0  0  0  0
  4  5  1  0  0  0  0
  5  6  1  0  0  0  0
  5 12  1  0  0  0  0
  6 14  1  0  0  0  0
  6 13  1  0  0  0  0
  7 15  1  0  0  0  0
  7  6  1  0  0  0  0
  8 17  1  1  0  0  0
  8  7  1  0  0  0  0
  9  4  1  0  0  0  0
 11  5  1  0  0  0  0
 16  7  1  0  0  0  0
 18 23  1  0  0  0  0
 18 24  1  0  0  0  0
 19 18  2  0  0  0  0
 20 21  2  0  0  0  0
 20 19  1  0  0  0  0
 21 22  1  0  0  0  0
 22 23  2  0  0  0  0
 25 22  1  0  0  0  0
 26 20  1  0  0  0  0
 26 31  1  0  0  0  0
 27 26  2  0  0  0  0
 28 27  1  0  0  0  0
 28 29  2  0  0  0  0
 29 30  1  0  0  0  0
 30 31  2  0  0  0  0
 30 35  1  0  0  0  0
 32 27  1  0  0  0  0
 33 28  1  0  0  0  0
 34 29  1  0  0  0  0
 36 38  1  0  0  0  0
 36 39  1  0  0  0  0
 36  8  1  0  0  0  0
 37 36  1  0  0  0  0
 39 40  1  0  0  0  0
 40 42  2  0  0  0  0
 40 41  1  0  0  0  0
 43 44  1  0  0  0  0
 43 42  1  0  0  0  0
 45 43  2  0  0  0  0
 46 45  1  0  0  0  0
 47 45  1  0  0  0  0
 47 39  2  0  0  0  0
M  END
>  <minimizedAffinity>
-5.75355768

$$$$

 OpenBabel03252507233D

 47 50  0  0  1  0  0  0  0  0999 V2000
   40.3230   26.3680   40.3780 C   0  0  0  0  0  0  0  0  0  0  0  0
   40.5220   27.2070   39.4400 O   0  0  0  0  0  0  0  0  0  0  0  0
   39.1810   25.5290   40.4300 N   0  0  0  0  0  0  0  0  0  0  0  0
   39.0800   24.0930   40.7400 C   0  0  0  0  0  0  0  0  0  0  0  0
   38.0360   23.8800   41.8270 C   0  0  0  0  0  0  0  0  0  0  0  0
   36.6860   24.2810   41.3320 C   0  0  0  0  0  0  0  0  0  0  0  0
   36.8180   25.1030   40.0530 C   0  0  0  0  0  0  0  0  0  0  0  0
   37.8980   26.1190   40.1390 C   0  0  2  0  0  0  0  0  0  0  0  0
   40.0480   23.7500   41.1890 H   0  0  0  0  0  0  0  0  0  0  0  0
   38.8310   23.4850   39.8670 H   0  0  0  0  0  0  0  0  0  0  0  0
   38.3930   24.4470   42.7150 H   0  0  0  0  0  0  0  0  0  0  0  0
   38.0740   22.7990   42.0830 H   0  0  0  0  0  0  0  0  0  0  0  0
   36.0390   23.4110   41.1200 H   0  0  0  0  0  0  0  0  0  0  0  0
   36.2040   24.9480   42.0840 H   0  0  0  0  0  0  0  0  0  0  0  0
   35.8410   25.6280   39.8790 H   0  0  0  0  0  0  0  0  0  0  0  0
   36.9290   24.3750   39.2260 H   0  0  0  0  0  0  0  0  0  0  0  0
   37.6580   26.7600   41.0310 H   0  0  0  0  0  0  0  0  0  0  0  0
   42.4880   25.5520   41.1590 C   0  0  0  0  0  0  0  0  0  0  0  0
   41.3070   26.2780   41.4230 C   0  0  0  0  0  0  0  0  0  0  0  0
   41.1220   26.8790   42.6610 C   0  0  0  0  0  0  0  0  0  0  0  0
   42.1020   26.7370   43.5780 N   0  0  0  0  0  0  0  0  0  0  0  0
   43.2450   26.0430   43.3420 C   0  0  0  0  0  0  0  0  0  0  0  0
   43.4160   25.4610   42.1310 N   0  0  0  0  0  0  0  0  0  0  0  0
   42.6530   25.0820   40.2160 H   0  0  0  0  0  0  0  0  0  0  0  0
   43.9530   26.0050   44.1600 H   0  0  0  0  0  0  0  0  0  0  0  0
   39.8960   27.6150   42.8990 C   0  0  0  0  0  0  0  0  0  0  0  0
   39.8090   28.9310   42.5840 C   0  0  0  0  0  0  0  0  0  0  0  0
   38.6290   29.6020   42.8210 C   0  0  0  0  0  0  0  0  0  0  0  0
   37.5100   28.9900   43.3730 C   0  0  0  0  0  0  0  0  0  0  0  0
   37.6550   27.6360   43.6780 C   0  0  0  0  0  0  0  0  0  0  0  0
   38.8150   27.0110   43.4350 N   0  0  0  0  0  0  0  0  0  0  0  0
   40.5880   29.5150   42.1600 H   0  0  0  0  0  0  0  0  0  0  0  0
   38.4850   30.6540   42.5960 H   0  0  0  0  0  0  0  0  0  0  0  0
   36.5740   29.4690   43.5760 H   0  0  0  0  0  0  0  0  0  0  0  0
   36.8490   27.0480   44.1150 H   0  0  0  0  0  0  0  0  0  0  0  0
   37.8890   27.0170   38.9530 C   0  0  0  0  0  0  0  0  0  0  0  0
   37.3250   26.6130   38.0880 H   0  0  0  0  0  0  0  0  0  0  0  0
   38.9260   27.3490   38.6260 H   0  0  0  0  0  0  0  0  0  0  0  0
   37.2810   28.3200   39.3610 C   0  0  0  0  0  0  0  0  0  0  0  0
   36.0230   28.3720   39.9730 C   0  0  0  0  0  0  0  0  0  0  0  0
   35.4710   27.4340   40.1370 H   0  0  0  0  0  0  0  0  0  0  0  0
   35.3950   29.5190   40.4000 C   0  0  0  0  0  3  0  0  0  0  0  0
   36.0520   30.7170   40.2140 C   0  0  0  0  0  0  0  0  0  0  0  0
   35.6200   31.6560   40.5240 H   0  0  0  0  0  0  0  0  0  0  0  0
   37.2840   30.7330   39.6210 C   0  0  0  0  0  0  0  0  0  0  0  0
   37.8450   31.6590   39.4510 H   0  0  0  0  0  0  0  0  0  0  0  0
   37.8780   29.5600   39.2080 C   0  0  0  0  0  3  0  0  0  0  0  0
  1  3  1  0  0  0  0
  1 19  1  0  0  0  0
  2  1  2  0  0  0  0
  3  4  1  0  0  0  0
  4  9  1  0  0  0  0
  4  5  1  0  0  0  0
  5 12  1  0  0  0  0
  5 11  1  0  0  0  0
  6  5  1  0  0  0  0
  6 14  1  0  0  0  0
  7  8  1  0  0  0  0
  7  6  1  0  0  0  0
  8  3  1  0  0  0  0
  8 17  1  1  0  0  0
 10  4  1  0  0  0  0
 13  6  1  0  0  0  0
 15  7  1  0  0  0  0
 16  7  1  0  0  0  0
 18 19  2  0  0  0  0
 18 23  1  0  0  0  0
 19 20  1  0  0  0  0
 20 26  1  0  0  0  0
 20 21  2  0  0  0  0
 22 21  1  0  0  0  0
 22 25  1  0  0  0  0
 23 22  2  0  0  0  0
 24 18  1  0  0  0  0
 26 31  1  0  0  0  0
 27 28  1  0  0  0  0
 27 26  2  0  0  0  0
 28 29  2  0  0  0  0
 29 34  1  0  0  0  0
 29 30  1  0  0  0  0
 30 35  1  0  0  0  0
 31 30  2  0  0  0  0
 32 27  1  0  0  0  0
 33 28  1  0  0  0  0
 36 39  1  0  0  0  0
 36  8  1  0  0  0  0
 37 36  1  0  0  0  0
 38 36  1  0  0  0  0
 39 40  1  0  0  0  0
 40 41  1  0  0  0  0
 40 42  2  0  0  0  0
 43 42  1  0  0  0  0
 43 44  1  0  0  0  0
 45 43  2  0  0  0  0
 46 45  1  0  0  0  0
 47 39  2  0  0  0  0
 47 45  1  0  0  0  0
M  END
>  <minimizedAffinity>
-5.68826246

$$$$

 OpenBabel03252507233D

 47 50  0  0  1  0  0  0  0  0999 V2000
   39.4220   30.1520   40.2720 C   0  0  0  0  0  0  0  0  0  0  0  0
   40.1770   29.7420   39.3320 O   0  0  0  0  0  0  0  0  0  0  0  0
   39.0480   29.3370   41.3710 N   0  0  0  0  0  0  0  0  0  0  0  0
   39.0030   29.6550   42.8090 C   0  0  0  0  0  0  0  0  0  0  0  0
   37.6370   29.2830   43.3680 C   0  0  0  0  0  0  0  0  0  0  0  0
   37.4240   27.8080   43.2750 C   0  0  0  0  0  0  0  0  0  0  0  0
   38.4570   27.1870   42.3390 C   0  0  0  0  0  0  0  0  0  0  0  0
   38.6470   27.9790   41.0970 C   0  0  2  0  0  0  0  0  0  0  0  0
   39.0830   30.7650   42.9370 H   0  0  0  0  0  0  0  0  0  0  0  0
   39.7840   29.1500   43.3810 H   0  0  0  0  0  0  0  0  0  0  0  0
   36.8960   29.8960   42.8100 H   0  0  0  0  0  0  0  0  0  0  0  0
   37.6320   29.6330   44.4240 H   0  0  0  0  0  0  0  0  0  0  0  0
   37.5020   27.3090   44.2580 H   0  0  0  0  0  0  0  0  0  0  0  0
   36.4280   27.6110   42.8170 H   0  0  0  0  0  0  0  0  0  0  0  0
   38.0960   26.1610   42.0610 H   0  0  0  0  0  0  0  0  0  0  0  0
   39.3740   27.0390   42.9420 H   0  0  0  0  0  0  0  0  0  0  0  0
   37.6350   28.0610   40.6160 H   0  0  0  0  0  0  0  0  0  0  0  0
   39.8180   32.5460   40.5490 C   0  0  0  0  0  0  0  0  0  0  0  0
   38.9320   31.5030   40.2050 C   0  0  0  0  0  0  0  0  0  0  0  0
   37.6330   31.7960   39.8150 C   0  0  0  0  0  0  0  0  0  0  0  0
   37.2650   33.0940   39.7830 N   0  0  0  0  0  0  0  0  0  0  0  0
   38.1050   34.1110   40.1110 C   0  0  0  0  0  0  0  0  0  0  0  0
   39.3710   33.8140   40.4900 N   0  0  0  0  0  0  0  0  0  0  0  0
   40.8210   32.3460   40.8520 H   0  0  0  0  0  0  0  0  0  0  0  0
   37.6890   35.1080   40.0440 H   0  0  0  0  0  0  0  0  0  0  0  0
   36.7470   30.7010   39.4690 C   0  0  0  0  0  0  0  0  0  0  0  0
   35.8410   30.2350   40.3650 C   0  0  0  0  0  0  0  0  0  0  0  0
   35.0130   29.1960   40.0040 C   0  0  0  0  0  0  0  0  0  0  0  0
   35.0590   28.5920   38.7530 C   0  0  0  0  0  0  0  0  0  0  0  0
   36.0090   29.1090   37.8720 C   0  0  0  0  0  0  0  0  0  0  0  0
   36.8000   30.1220   38.2510 N   0  0  0  0  0  0  0  0  0  0  0  0
   35.7050   30.6070   41.3500 H   0  0  0  0  0  0  0  0  0  0  0  0
   34.2650   28.7710   40.6660 H   0  0  0  0  0  0  0  0  0  0  0  0
   34.4380   27.7830   38.4280 H   0  0  0  0  0  0  0  0  0  0  0  0
   36.1410   28.7200   36.8630 H   0  0  0  0  0  0  0  0  0  0  0  0
   39.5240   27.2640   40.1300 C   0  0  0  0  0  0  0  0  0  0  0  0
   39.9140   27.9080   39.3170 H   0  0  0  0  0  0  0  0  0  0  0  0
   39.0520   26.3250   39.6960 H   0  0  0  0  0  0  0  0  0  0  0  0
   40.6770   26.6880   40.8870 C   0  0  0  0  0  0  0  0  0  0  0  0
   41.8900   27.3770   40.9920 C   0  0  0  0  0  0  0  0  0  0  0  0
   41.9960   28.3510   40.4900 H   0  0  0  0  0  0  0  0  0  0  0  0
   42.9960   26.9360   41.6830 C   0  0  0  0  0  3  0  0  0  0  0  0
   42.9070   25.7200   42.3270 C   0  0  0  0  0  0  0  0  0  0  0  0
   43.7340   25.3120   42.8870 H   0  0  0  0  0  0  0  0  0  0  0  0
   41.7470   24.9980   42.2610 C   0  0  0  0  0  0  0  0  0  0  0  0
   41.6280   24.0270   42.7550 H   0  0  0  0  0  0  0  0  0  0  0  0
   40.6640   25.4760   41.5580 C   0  0  0  0  0  3  0  0  0  0  0  0
  1  3  1  0  0  0  0
  2  1  2  0  0  0  0
  3  4  1  0  0  0  0
  4  9  1  0  0  0  0
  4  5  1  0  0  0  0
  4 10  1  0  0  0  0
  5 12  1  0  0  0  0
  6  5  1  0  0  0  0
  6 13  1  0  0  0  0
  7 16  1  0  0  0  0
  7  6  1  0  0  0  0
  8 17  1  6  0  0  0
  8  3  1  0  0  0  0
  8  7  1  0  0  0  0
 11  5  1  0  0  0  0
 14  6  1  0  0  0  0
 15  7  1  0  0  0  0
 18 24  1  0  0  0  0
 19  1  1  0  0  0  0
 19 18  2  0  0  0  0
 20 19  1  0  0  0  0
 21 20  2  0  0  0  0
 21 22  1  0  0  0  0
 22 23  2  0  0  0  0
 23 18  1  0  0  0  0
 25 22  1  0  0  0  0
 26 20  1  0  0  0  0
 26 27  1  0  0  0  0
 27 32  1  0  0  0  0
 28 27  2  0  0  0  0
 28 33  1  0  0  0  0
 29 28  1  0  0  0  0
 30 31  1  0  0  0  0
 30 29  2  0  0  0  0
 31 26  2  0  0  0  0
 34 29  1  0  0  0  0
 35 30  1  0  0  0  0
 36 39  1  0  0  0  0
 36  8  1  0  0  0  0
 37 36  1  0  0  0  0
 38 36  1  0  0  0  0
 39 40  2  0  0  0  0
 39 47  1  0  0  0  0
 40 42  1  0  0  0  0
 41 40  1  0  0  0  0
 42 43  2  0  0  0  0
 43 44  1  0  0  0  0
 45 43  1  0  0  0  0
 45 46  1  0  0  0  0
 47 45  2  0  0  0  0
M  END
>  <minimizedAffinity>
-5.63666677

$$$$
