
 OpenBabel03252508473D

 45 47  0  0  0  0  0  0  0  0999 V2000
   42.3360   31.7220   42.5160 N   0  0  0  0  0  0  0  0  0  0  0  0
   42.7760   30.7980   42.7160 H   0  0  0  0  0  0  0  0  0  0  0  0
   43.0220   32.5360   41.5600 C   0  0  0  0  0  0  0  0  0  0  0  0
   43.6340   31.9350   40.8410 H   0  0  0  0  0  0  0  0  0  0  0  0
   42.2580   33.0620   40.9450 H   0  0  0  0  0  0  0  0  0  0  0  0
   43.6860   34.9230   41.8900 C   0  0  0  0  0  0  0  0  0  0  0  0
   43.9050   33.5850   42.1590 C   0  0  0  0  0  0  0  0  0  0  0  0
   44.9470   33.2460   42.9840 C   0  0  0  0  0  0  0  0  0  0  0  0
   45.7440   34.2150   43.5230 C   0  0  0  0  0  0  0  0  0  0  0  0
   45.5520   35.5510   43.2760 C   0  0  0  0  0  0  0  0  0  0  0  0
   44.4890   35.8540   42.4370 C   0  0  0  0  0  0  0  0  0  0  0  0
   45.1740   32.2220   43.2350 H   0  0  0  0  0  0  0  0  0  0  0  0
   46.5660   33.9520   44.1750 H   0  0  0  0  0  0  0  0  0  0  0  0
   46.1370   36.3810   43.6620 H   0  0  0  0  0  0  0  0  0  0  0  0
   44.2430   36.8810   42.1710 H   0  0  0  0  0  0  0  0  0  0  0  0
   40.3190   35.9600   40.5100 C   0  0  0  0  0  0  0  0  0  0  0  0
   41.3340   35.6890   41.4360 C   0  0  0  0  0  0  0  0  0  0  0  0
   42.5610   35.2350   41.0030 C   0  0  0  0  0  0  0  0  0  0  0  0
   42.7110   35.0760   39.6710 N   0  0  0  0  0  0  0  0  0  0  0  0
   41.7400   35.3350   38.7720 C   0  0  0  0  0  0  0  0  0  0  0  0
   40.5420   35.7780   39.2020 N   0  0  0  0  0  0  0  0  0  0  0  0
   39.3530   36.3170   40.8480 H   0  0  0  0  0  0  0  0  0  0  0  0
   41.1840   35.8240   42.4840 H   0  0  0  0  0  0  0  0  0  0  0  0
   42.0390   35.1490   37.7410 H   0  0  0  0  0  0  0  0  0  0  0  0
   40.6710   31.5780   42.1690 S   0  0  0  0  0  0  0  0  0  0  0  0
   39.9200   32.8180   42.5820 O   0  0  0  0  0  0  0  0  0  0  0  0
   39.2290   32.8860   43.3030 H   0  0  0  0  0  0  0  0  0  0  0  0
   40.0870   30.3810   42.8430 O   0  0  0  0  0  0  0  0  0  0  0  0
   40.4540   29.4860   42.9970 H   0  0  0  0  0  0  0  0  0  0  0  0
   40.5080   31.3870   40.4990 O   0  0  0  0  0  0  0  0  0  0  0  0
   39.6830   32.3940   40.0430 C   0  0  0  0  0  0  0  0  0  0  0  0
   39.9650   32.6980   38.9920 H   0  0  0  0  0  0  0  0  0  0  0  0
   39.6260   33.2890   40.6600 H   0  0  0  0  0  0  0  0  0  0  0  0
   38.2660   31.8500   39.8970 C   0  0  0  0  0  0  0  0  0  0  0  0
   38.0440   31.3490   40.8850 H   0  0  0  0  0  0  0  0  0  0  0  0
   37.5150   32.6200   39.7410 H   0  0  0  0  0  0  0  0  0  0  0  0
   38.2620   30.8040   38.8340 C   0  0  0  0  0  0  0  0  0  0  0  0
   38.6680   31.2950   37.5890 C   0  0  0  0  0  0  0  0  0  0  0  0
   38.9590   32.3400   37.4110 H   0  0  0  0  0  0  0  0  0  0  0  0
   38.7340   30.4980   36.4850 C   0  0  0  0  0  0  0  0  0  0  0  0
   38.3820   29.1720   36.6310 C   0  0  0  0  0  0  0  0  0  0  0  0
   38.4320   28.5340   35.7620 H   0  0  0  0  0  0  0  0  0  0  0  0
   37.9870   28.6960   37.8500 C   0  0  0  0  0  0  0  0  0  0  0  0
   37.7040   27.6450   37.9820 H   0  0  0  0  0  0  0  0  0  0  0  0
   37.9110   29.4790   38.9810 C   0  0  0  0  0  0  0  0  0  0  0  0
  1  2  1  0  0  0  0
  3  7  1  0  0  0  0
  3  1  1  0  0  0  0
  4  3  1  0  0  0  0
  5  3  1  0  0  0  0
  6  7  2  0  0  0  0
  6 11  1  0  0  0  0
  7  8  1  0  0  0  0
  8 12  1  0  0  0  0
  8  9  2  0  0  0  0
  9 13  1  0  0  0  0
 10  9  1  0  0  0  0
 10 14  1  0  0  0  0
 11 10  2  0  0  0  0
 15 11  1  0  0  0  0
 16 22  1  0  0  0  0
 16 17  1  0  0  0  0
 17 23  1  0  0  0  0
 18 17  2  0  0  0  0
 18  6  1  0  0  0  0
 19 18  1  0  0  0  0
 20 21  1  0  0  0  0
 20 19  2  0  0  0  0
 21 16  2  0  0  0  0
 24 20  1  0  0  0  0
 25  1  1  0  0  0  0
 25 26  1  0  0  0  0
 25 28  1  0  0  0  0
 26 27  1  0  0  0  0
 28 29  1  0  0  0  0
 30 25  1  0  0  0  0
 31 30  1  0  0  0  0
 31 33  1  0  0  0  0
 32 31  1  0  0  0  0
 34 31  1  0  0  0  0
 34 35  1  0  0  0  0
 36 34  1  0  0  0  0
 37 45  1  0  0  0  0
 37 34  1  0  0  0  0
 38 37  2  0  0  0  0
 39 38  1  0  0  0  0
 40 41  2  0  0  0  0
 40 38  1  0  0  0  0
 41 43  1  0  0  0  0
 42 41  1  0  0  0  0
 43 44  1  0  0  0  0
 43 45  2  0  0  0  0
M  END
>  <minimizedAffinity>
-5.70676374

>  <minimizedRMSD>
2.29089451

$$$$
