
     RDKit          3D

 32 34  0  0  0  0  0  0  0  0999 V2000
   44.6759   35.3750   45.1523 C   0  0  0  0  0  0  0  0  0  0  0  0
   45.1290   35.7016   43.8294 C   0  0  0  0  0  0  0  0  0  0  0  0
   46.0696   34.8598   43.3366 C   0  0  0  0  0  0  0  0  0  0  0  0
   46.5501   33.7830   44.0503 N   0  0  0  0  0  0  0  0  0  0  0  0
   46.0943   33.5144   45.2936 C   0  0  0  0  0  0  0  0  0  0  0  0
   45.1497   34.3173   45.8469 N   0  0  0  0  0  0  0  0  0  0  0  0
   46.5736   35.0656   41.9287 C   0  0  1  0  0  0  0  0  0  0  0  0
   48.1127   35.2921   41.9362 C   0  0  0  0  0  0  0  0  0  0  0  0
   47.3564   34.0795   41.3085 C   0  0  2  0  0  0  0  0  0  0  0  0
   47.3893   33.9043   39.8097 C   0  0  0  0  0  0  0  0  0  0  0  0
   44.6575   36.8145   43.1168 N   0  0  0  0  0  0  0  0  0  0  0  0
   43.9129   36.0330   45.5862 H   0  0  0  0  0  0  0  0  0  0  0  0
   46.4175   32.7031   45.9027 H   0  0  0  0  0  0  0  0  0  0  0  0
   46.0192   35.8458   41.3692 H   0  0  0  0  0  0  0  0  0  0  0  0
   48.6688   35.1149   42.8590 H   0  0  0  0  0  0  0  0  0  0  0  0
   48.4578   36.0548   41.2245 H   0  0  0  0  0  0  0  0  0  0  0  0
   47.6315   33.1110   41.8284 H   0  0  0  0  0  0  0  0  0  0  0  0
   46.3590   33.6624   39.4349 H   0  0  0  0  0  0  0  0  0  0  0  0
   47.6794   34.8688   39.3619 H   0  0  0  0  0  0  0  0  0  0  0  0
   44.8728   37.6597   43.7252 H   0  0  0  0  0  0  0  0  0  0  0  0
   44.1989   36.8361   42.2019 H   0  0  0  0  0  0  0  0  0  0  0  0
   48.2886   32.7974   39.3831 C   0  0  0  0  0  0  0  0  0  0  0  0
   48.1741   32.3210   38.0792 C   0  0  0  0  0  0  0  0  0  0  0  0
   47.4655   32.7130   37.3592 H   0  0  0  0  0  0  0  0  0  0  0  0
   49.0255   31.2942   37.7221 C   0  0  0  0  0  0  0  0  0  0  0  0
   49.9599   30.7443   38.5992 C   0  0  0  0  0  0  0  0  0  0  0  0
   50.6275   29.9389   38.3183 H   0  0  0  0  0  0  0  0  0  0  0  0
   50.0238   31.2563   39.8679 C   0  0  0  0  0  0  0  0  0  0  0  0
   50.7450   30.8382   40.5588 H   0  0  0  0  0  0  0  0  0  0  0  0
   49.1919   32.2789   40.2595 C   0  0  0  0  0  0  0  0  0  0  0  0
   49.0247   30.8435   36.7289 H   0  0  0  0  0  0  0  0  0  0  0  0
   49.3107   32.6250   41.2865 H   0  0  0  0  0  0  0  0  0  0  0  0
  1  6  2  0
  2  1  1  0
  3  2  2  0
  3  4  1  0
  4  5  2  0
  5  6  1  0
  7  3  1  0
  8  7  1  0
  9  8  1  0
  9  7  1  0
 10  9  1  0
 11  2  1  0
  1 12  1  0
  5 13  1  0
  7 14  1  6
  8 15  1  0
  8 16  1  0
  9 17  1  1
 10 18  1  0
 10 19  1  0
 11 20  1  0
 11 21  1  0
 22 23  2  0
 23 24  1  0
 23 25  1  0
 25 26  2  0
 26 27  1  0
 26 28  1  0
 28 29  1  0
 28 30  2  0
 30 22  1  0
 25 31  1  0
 30 32  1  0
 10 22  1  0
M  ISO  8  12  14  13  14  14  13  15  13  16  13  17  13  18   8  19   8
M  ISO  3  24  16  27  16  29  16
M  END
>  <DihAtoms>  (1) 
8,9,21,22

>  <DihDeg>  (1) 
89.99967450162833

$$$$
