
 OpenBabel03252509103D

 41 44  0  0  0  0  0  0  0  0999 V2000
   36.1230   27.6370   39.0980 C   0  0  0  0  0  0  0  0  0  0  0  0
   35.7820   28.4310   40.1530 C   0  0  0  0  0  0  0  0  0  0  0  0
   34.6310   29.1980   40.0950 C   0  0  0  0  0  0  0  0  0  0  0  0
   33.8280   29.1650   38.9810 C   0  0  0  0  0  0  0  0  0  0  0  0
   34.1380   28.3690   37.8820 C   0  0  0  0  0  0  0  0  0  0  0  0
   35.3070   27.6030   37.9650 C   0  0  0  0  0  0  0  0  0  0  0  0
   34.3330   29.8380   40.9150 H   0  0  0  0  0  0  0  0  0  0  0  0
   32.9170   29.7170   38.8320 H   0  0  0  0  0  0  0  0  0  0  0  0
   33.5720   28.2820   36.9780 H   0  0  0  0  0  0  0  0  0  0  0  0
   35.5770   26.9650   37.1120 H   0  0  0  0  0  0  0  0  0  0  0  0
   39.5080   30.7340   42.8900 Cl  0  0  0  0  0  0  0  0  0  0  0  0
   38.2520   29.5460   42.6460 C   0  0  0  0  0  0  0  0  0  0  0  0
   37.5410   29.4990   41.4910 C   0  0  0  0  0  0  0  0  0  0  0  0
   36.5570   28.5310   41.3850 C   0  0  0  0  0  0  0  0  0  0  0  0
   36.3000   27.6480   42.4020 C   0  0  0  0  0  0  0  0  0  0  0  0
   37.0180   27.7020   43.5540 C   0  0  0  0  0  0  0  0  0  0  0  0
   38.0010   28.6630   43.6670 C   0  0  0  0  0  0  0  0  0  0  0  0
   35.5220   26.9100   42.2780 H   0  0  0  0  0  0  0  0  0  0  0  0
   36.7870   26.9920   44.3270 H   0  0  0  0  0  0  0  0  0  0  0  0
   38.5490   28.6650   44.6090 H   0  0  0  0  0  0  0  0  0  0  0  0
   37.4120   32.5530   39.2570 C   0  0  0  0  0  0  0  0  0  0  0  0
   37.1200   31.6350   40.2710 C   0  0  0  0  0  0  0  0  0  0  0  0
   37.8330   30.4610   40.4360 C   0  0  0  0  0  0  0  0  0  0  0  0
   38.8110   30.3030   39.5410 N   0  0  0  0  0  0  0  0  0  0  0  0
   39.1090   31.1600   38.5690 C   0  0  0  0  0  0  0  0  0  0  0  0
   38.4090   32.2830   38.4300 N   0  0  0  0  0  0  0  0  0  0  0  0
   36.8300   33.4670   39.1560 H   0  0  0  0  0  0  0  0  0  0  0  0
   36.2960   31.8540   40.9570 H   0  0  0  0  0  0  0  0  0  0  0  0
   39.9550   30.7880   37.9770 H   0  0  0  0  0  0  0  0  0  0  0  0
   37.5250   26.7010   39.1050 S   0  0  0  0  0  0  0  0  0  0  0  0
   37.3810   25.5490   38.0810 O   0  0  0  0  0  0  0  0  0  0  0  0
   38.6210   27.5810   38.4890 O   0  0  0  0  0  0  0  0  0  0  0  0
   38.1320   25.8300   40.4450 C   0  0  0  0  0  0  0  0  0  0  0  0
   37.5730   24.7700   41.1460 C   0  0  0  0  0  0  0  0  0  0  0  0
   36.6130   24.4270   40.7980 H   0  0  0  0  0  0  0  0  0  0  0  0
   38.0630   24.1170   42.2490 C   0  0  0  0  0  3  0  0  0  0  0  0
   39.2690   24.5740   42.7250 C   0  0  0  0  0  0  0  0  0  0  0  0
   39.6950   24.0900   43.5920 H   0  0  0  0  0  0  0  0  0  0  0  0
   39.9800   25.6120   42.1740 C   0  0  0  0  0  0  0  0  0  0  0  0
   40.9220   26.0100   42.5030 H   0  0  0  0  0  0  0  0  0  0  0  0
   39.3630   26.1680   41.0730 C   0  0  0  0  0  3  0  0  0  0  0  0
  1 30  1  0  0  0  0
  1  2  1  0  0  0  0
  2 14  1  0  0  0  0
  3  2  2  0  0  0  0
  3  7  1  0  0  0  0
  4  3  1  0  0  0  0
  5  6  1  0  0  0  0
  5  4  2  0  0  0  0
  6  1  2  0  0  0  0
  8  4  1  0  0  0  0
  9  5  1  0  0  0  0
 10  6  1  0  0  0  0
 12 11  1  0  0  0  0
 12 17  1  0  0  0  0
 13 12  2  0  0  0  0
 14 13  1  0  0  0  0
 14 15  2  0  0  0  0
 15 16  1  0  0  0  0
 16 17  2  0  0  0  0
 16 19  1  0  0  0  0
 17 20  1  0  0  0  0
 18 15  1  0  0  0  0
 21 22  1  0  0  0  0
 22 23  2  0  0  0  0
 22 28  1  0  0  0  0
 23 13  1  0  0  0  0
 24 23  1  0  0  0  0
 25 24  2  0  0  0  0
 26 25  1  0  0  0  0
 26 21  2  0  0  0  0
 27 21  1  0  0  0  0
 29 25  1  0  0  0  0
 30 33  1  0  0  0  0
 31 30  2  0  0  0  0
 32 30  2  0  0  0  0
 33 41  2  0  0  0  0
 33 34  1  0  0  0  0
 34 36  2  0  0  0  0
 35 34  1  0  0  0  0
 36 37  1  0  0  0  0
 37 38  1  0  0  0  0
 39 40  1  0  0  0  0
 39 37  2  0  0  0  0
 41 39  1  0  0  0  0
M  END
>  <minimizedAffinity>
-6.79085398

$$$$

 OpenBabel03252509103D

 41 44  0  0  0  0  0  0  0  0999 V2000
   36.1990   27.0390   39.2610 C   0  0  0  0  0  0  0  0  0  0  0  0
   35.9660   28.1160   40.0650 C   0  0  0  0  0  0  0  0  0  0  0  0
   35.0170   29.0560   39.6990 C   0  0  0  0  0  0  0  0  0  0  0  0
   34.3100   28.9120   38.5300 C   0  0  0  0  0  0  0  0  0  0  0  0
   34.5170   27.8290   37.6810 C   0  0  0  0  0  0  0  0  0  0  0  0
   35.4810   26.8930   38.0730 C   0  0  0  0  0  0  0  0  0  0  0  0
   34.8080   29.9210   40.3130 H   0  0  0  0  0  0  0  0  0  0  0  0
   33.5560   29.5790   38.1520 H   0  0  0  0  0  0  0  0  0  0  0  0
   34.0140   27.6380   36.7560 H   0  0  0  0  0  0  0  0  0  0  0  0
   35.6650   26.0260   37.4220 H   0  0  0  0  0  0  0  0  0  0  0  0
   39.5120   30.7130   42.7770 Cl  0  0  0  0  0  0  0  0  0  0  0  0
   38.2640   29.5080   42.5820 C   0  0  0  0  0  0  0  0  0  0  0  0
   37.6360   29.3290   41.3930 C   0  0  0  0  0  0  0  0  0  0  0  0
   36.6520   28.3570   41.3290 C   0  0  0  0  0  0  0  0  0  0  0  0
   36.3140   27.6000   42.4210 C   0  0  0  0  0  0  0  0  0  0  0  0
   36.9480   27.7860   43.6080 C   0  0  0  0  0  0  0  0  0  0  0  0
   37.9300   28.7510   43.6790 C   0  0  0  0  0  0  0  0  0  0  0  0
   35.5380   26.8540   42.3280 H   0  0  0  0  0  0  0  0  0  0  0  0
   36.6550   27.1720   44.4400 H   0  0  0  0  0  0  0  0  0  0  0  0
   38.4100   28.8620   44.6500 H   0  0  0  0  0  0  0  0  0  0  0  0
   37.8690   32.2170   38.9550 C   0  0  0  0  0  0  0  0  0  0  0  0
   37.4960   31.4260   40.0480 C   0  0  0  0  0  0  0  0  0  0  0  0
   38.0130   30.1590   40.2570 C   0  0  0  0  0  0  0  0  0  0  0  0
   38.8890   29.7820   39.3220 N   0  0  0  0  0  0  0  0  0  0  0  0
   39.2600   30.5140   38.2760 C   0  0  0  0  0  0  0  0  0  0  0  0
   38.7490   31.7300   38.0960 N   0  0  0  0  0  0  0  0  0  0  0  0
   37.4410   33.2080   38.8220 H   0  0  0  0  0  0  0  0  0  0  0  0
   36.7680   31.8250   40.7620 H   0  0  0  0  0  0  0  0  0  0  0  0
   39.9900   29.9680   37.6660 H   0  0  0  0  0  0  0  0  0  0  0  0
   37.3580   25.8760   39.6470 S   0  0  0  0  0  0  0  0  0  0  0  0
   36.7040   24.7550   40.4890 O   0  0  0  0  0  0  0  0  0  0  0  0
   37.6990   25.1690   38.3280 O   0  0  0  0  0  0  0  0  0  0  0  0
   38.7720   26.1500   40.5680 C   0  0  0  0  0  0  0  0  0  0  0  0
   39.8910   26.9190   40.2770 C   0  0  0  0  0  0  0  0  0  0  0  0
   39.8770   27.4350   39.3320 H   0  0  0  0  0  0  0  0  0  0  0  0
   41.0340   27.0860   41.0190 C   0  0  0  0  0  3  0  0  0  0  0  0
   41.0780   26.3980   42.2080 C   0  0  0  0  0  0  0  0  0  0  0  0
   41.9590   26.4990   42.8260 H   0  0  0  0  0  0  0  0  0  0  0  0
   40.0750   25.5840   42.6740 C   0  0  0  0  0  0  0  0  0  0  0  0
   40.0570   25.0250   43.5910 H   0  0  0  0  0  0  0  0  0  0  0  0
   38.9920   25.5160   41.8230 C   0  0  0  0  0  3  0  0  0  0  0  0
  1 30  1  0  0  0  0
  1  2  1  0  0  0  0
  2 14  1  0  0  0  0
  3  2  2  0  0  0  0
  3  7  1  0  0  0  0
  4  3  1  0  0  0  0
  5  6  1  0  0  0  0
  5  4  2  0  0  0  0
  6  1  2  0  0  0  0
  8  4  1  0  0  0  0
  9  5  1  0  0  0  0
 10  6  1  0  0  0  0
 12 11  1  0  0  0  0
 12 17  1  0  0  0  0
 13 12  2  0  0  0  0
 14 13  1  0  0  0  0
 14 15  2  0  0  0  0
 15 16  1  0  0  0  0
 16 17  2  0  0  0  0
 16 19  1  0  0  0  0
 17 20  1  0  0  0  0
 18 15  1  0  0  0  0
 21 22  1  0  0  0  0
 22 23  2  0  0  0  0
 22 28  1  0  0  0  0
 23 13  1  0  0  0  0
 24 23  1  0  0  0  0
 25 24  2  0  0  0  0
 26 25  1  0  0  0  0
 26 21  2  0  0  0  0
 27 21  1  0  0  0  0
 29 25  1  0  0  0  0
 30 31  2  0  0  0  0
 30 33  1  0  0  0  0
 32 30  2  0  0  0  0
 33 41  1  0  0  0  0
 34 33  2  0  0  0  0
 34 36  1  0  0  0  0
 35 34  1  0  0  0  0
 36 37  2  0  0  0  0
 37 39  1  0  0  0  0
 37 38  1  0  0  0  0
 39 40  1  0  0  0  0
 41 39  2  0  0  0  0
M  END
>  <minimizedAffinity>
-6.28392982

$$$$

 OpenBabel03252509103D

 41 44  0  0  0  0  0  0  0  0999 V2000
   36.1300   29.7620   38.6330 C   0  0  0  0  0  0  0  0  0  0  0  0
   37.1780   30.5230   38.2050 C   0  0  0  0  0  0  0  0  0  0  0  0
   37.4250   30.6540   36.8490 C   0  0  0  0  0  0  0  0  0  0  0  0
   36.6220   30.0230   35.9300 C   0  0  0  0  0  0  0  0  0  0  0  0
   35.5420   29.2370   36.3240 C   0  0  0  0  0  0  0  0  0  0  0  0
   35.3130   29.1200   37.7000 C   0  0  0  0  0  0  0  0  0  0  0  0
   38.2480   31.2490   36.4770 H   0  0  0  0  0  0  0  0  0  0  0  0
   36.7240   30.0570   34.8610 H   0  0  0  0  0  0  0  0  0  0  0  0
   34.8680   28.7130   35.6800 H   0  0  0  0  0  0  0  0  0  0  0  0
   34.4670   28.5070   38.0400 H   0  0  0  0  0  0  0  0  0  0  0  0
   41.7290   30.8210   40.6280 Cl  0  0  0  0  0  0  0  0  0  0  0  0
   40.1330   31.3990   40.2180 C   0  0  0  0  0  0  0  0  0  0  0  0
   39.3290   30.7080   39.3710 C   0  0  0  0  0  0  0  0  0  0  0  0
   38.0830   31.2420   39.0940 C   0  0  0  0  0  0  0  0  0  0  0  0
   37.6660   32.4260   39.6460 C   0  0  0  0  0  0  0  0  0  0  0  0
   38.4770   33.1110   40.4940 C   0  0  0  0  0  0  0  0  0  0  0  0
   39.7200   32.5840   40.7760 C   0  0  0  0  0  0  0  0  0  0  0  0
   36.6860   32.8090   39.4010 H   0  0  0  0  0  0  0  0  0  0  0  0
   38.1140   34.0340   40.9070 H   0  0  0  0  0  0  0  0  0  0  0  0
   40.3330   33.1680   41.4620 H   0  0  0  0  0  0  0  0  0  0  0  0
   40.0570   27.0330   38.8180 C   0  0  0  0  0  0  0  0  0  0  0  0
   39.5940   28.2270   39.3840 C   0  0  0  0  0  0  0  0  0  0  0  0
   39.8100   29.4600   38.7940 C   0  0  0  0  0  0  0  0  0  0  0  0
   40.4940   29.3880   37.6490 N   0  0  0  0  0  0  0  0  0  0  0  0
   40.9430   28.2690   37.0910 C   0  0  0  0  0  0  0  0  0  0  0  0
   40.7230   27.0940   37.6770 N   0  0  0  0  0  0  0  0  0  0  0  0
   39.8690   26.0810   39.3100 H   0  0  0  0  0  0  0  0  0  0  0  0
   39.0420   28.1810   40.3280 H   0  0  0  0  0  0  0  0  0  0  0  0
   41.4710   28.4920   36.1560 H   0  0  0  0  0  0  0  0  0  0  0  0
   35.7960   29.5490   40.2720 S   0  0  0  0  0  0  0  0  0  0  0  0
   35.7000   30.9310   40.9640 O   0  0  0  0  0  0  0  0  0  0  0  0
   34.3570   29.0220   40.3440 O   0  0  0  0  0  0  0  0  0  0  0  0
   36.7960   28.7300   41.3910 C   0  0  0  0  0  0  0  0  0  0  0  0
   36.9040   27.3720   41.6620 C   0  0  0  0  0  0  0  0  0  0  0  0
   36.2730   26.7220   41.0790 H   0  0  0  0  0  0  0  0  0  0  0  0
   37.6850   26.7440   42.5990 C   0  0  0  0  0  3  0  0  0  0  0  0
   38.4640   27.5680   43.3750 C   0  0  0  0  0  0  0  0  0  0  0  0
   39.0970   27.1180   44.1270 H   0  0  0  0  0  0  0  0  0  0  0  0
   38.4980   28.9370   43.2640 C   0  0  0  0  0  0  0  0  0  0  0  0
   39.0850   29.6270   43.8420 H   0  0  0  0  0  0  0  0  0  0  0  0
   37.6630   29.4230   42.2810 C   0  0  0  0  0  3  0  0  0  0  0  0
  1 30  1  0  0  0  0
  2  1  1  0  0  0  0
  2 14  1  0  0  0  0
  3  2  2  0  0  0  0
  4  5  2  0  0  0  0
  4  3  1  0  0  0  0
  5  6  1  0  0  0  0
  6 10  1  0  0  0  0
  6  1  2  0  0  0  0
  7  3  1  0  0  0  0
  8  4  1  0  0  0  0
  9  5  1  0  0  0  0
 12 11  1  0  0  0  0
 12 17  1  0  0  0  0
 13 12  2  0  0  0  0
 14 13  1  0  0  0  0
 14 15  2  0  0  0  0
 15 16  1  0  0  0  0
 16 17  2  0  0  0  0
 16 19  1  0  0  0  0
 17 20  1  0  0  0  0
 18 15  1  0  0  0  0
 21 27  1  0  0  0  0
 21 22  1  0  0  0  0
 22 28  1  0  0  0  0
 23 13  1  0  0  0  0
 23 22  2  0  0  0  0
 24 23  1  0  0  0  0
 25 24  2  0  0  0  0
 25 26  1  0  0  0  0
 26 21  2  0  0  0  0
 29 25  1  0  0  0  0
 30 32  2  0  0  0  0
 30 31  2  0  0  0  0
 30 33  1  0  0  0  0
 33 34  2  0  0  0  0
 33 41  1  0  0  0  0
 34 36  1  0  0  0  0
 35 34  1  0  0  0  0
 36 37  2  0  0  0  0
 37 38  1  0  0  0  0
 39 37  1  0  0  0  0
 39 40  1  0  0  0  0
 41 39  2  0  0  0  0
M  END
>  <minimizedAffinity>
-6.12791348

$$$$

 OpenBabel03252509103D

 41 44  0  0  0  0  0  0  0  0999 V2000
   41.0140   29.0330   41.2740 C   0  0  0  0  0  0  0  0  0  0  0  0
   40.0170   29.6050   42.0070 C   0  0  0  0  0  0  0  0  0  0  0  0
   40.2000   30.8630   42.5550 C   0  0  0  0  0  0  0  0  0  0  0  0
   41.3810   31.5400   42.3650 C   0  0  0  0  0  0  0  0  0  0  0  0
   42.4230   30.9930   41.6230 C   0  0  0  0  0  0  0  0  0  0  0  0
   42.2140   29.7200   41.0800 C   0  0  0  0  0  0  0  0  0  0  0  0
   39.4300   31.3450   43.1420 H   0  0  0  0  0  0  0  0  0  0  0  0
   41.6260   32.5160   42.7430 H   0  0  0  0  0  0  0  0  0  0  0  0
   43.3710   31.4470   41.4250 H   0  0  0  0  0  0  0  0  0  0  0  0
   43.0200   29.2630   40.4890 H   0  0  0  0  0  0  0  0  0  0  0  0
   35.0750   28.9110   40.6780 Cl  0  0  0  0  0  0  0  0  0  0  0  0
   36.4740   28.6550   41.6900 C   0  0  0  0  0  0  0  0  0  0  0  0
   37.6640   29.2420   41.4090 C   0  0  0  0  0  0  0  0  0  0  0  0
   38.7240   28.9780   42.2600 C   0  0  0  0  0  0  0  0  0  0  0  0
   38.5890   28.1540   43.3470 C   0  0  0  0  0  0  0  0  0  0  0  0
   37.3930   27.5710   43.6210 C   0  0  0  0  0  0  0  0  0  0  0  0
   36.3320   27.8300   42.7790 C   0  0  0  0  0  0  0  0  0  0  0  0
   39.4430   27.9730   43.9830 H   0  0  0  0  0  0  0  0  0  0  0  0
   37.3270   26.9320   44.4830 H   0  0  0  0  0  0  0  0  0  0  0  0
   35.3940   27.3410   43.0410 H   0  0  0  0  0  0  0  0  0  0  0  0
   37.6410   32.2820   39.1520 C   0  0  0  0  0  0  0  0  0  0  0  0
   37.5290   31.4640   40.2820 C   0  0  0  0  0  0  0  0  0  0  0  0
   37.7740   30.1030   40.2390 C   0  0  0  0  0  0  0  0  0  0  0  0
   38.1230   29.6640   39.0270 N   0  0  0  0  0  0  0  0  0  0  0  0
   38.2380   30.4200   37.9390 C   0  0  0  0  0  0  0  0  0  0  0  0
   37.9970   31.7270   38.0050 N   0  0  0  0  0  0  0  0  0  0  0  0
   37.4400   33.3490   39.2220 H   0  0  0  0  0  0  0  0  0  0  0  0
   37.2350   31.9190   41.2330 H   0  0  0  0  0  0  0  0  0  0  0  0
   38.5380   29.8090   37.0790 H   0  0  0  0  0  0  0  0  0  0  0  0
   40.8540   27.4930   40.6030 S   0  0  0  0  0  0  0  0  0  0  0  0
   40.1720   27.6030   39.2180 O   0  0  0  0  0  0  0  0  0  0  0  0
   42.2760   27.0350   40.2580 O   0  0  0  0  0  0  0  0  0  0  0  0
   39.9510   26.2070   41.2750 C   0  0  0  0  0  0  0  0  0  0  0  0
   40.2190   25.4110   42.3810 C   0  0  0  0  0  0  0  0  0  0  0  0
   41.1290   25.6340   42.9130 H   0  0  0  0  0  0  0  0  0  0  0  0
   39.4970   24.3530   42.8730 C   0  0  0  0  0  3  0  0  0  0  0  0
   38.3550   24.0360   42.1760 C   0  0  0  0  0  0  0  0  0  0  0  0
   37.7530   23.2100   42.5270 H   0  0  0  0  0  0  0  0  0  0  0  0
   37.9180   24.7000   41.0560 C   0  0  0  0  0  0  0  0  0  0  0  0
   37.0380   24.4960   40.4740 H   0  0  0  0  0  0  0  0  0  0  0  0
   38.7440   25.7380   40.6830 C   0  0  0  0  0  3  0  0  0  0  0  0
  1  2  1  0  0  0  0
  2 14  1  0  0  0  0
  2  3  2  0  0  0  0
  3  7  1  0  0  0  0
  4  3  1  0  0  0  0
  4  8  1  0  0  0  0
  5  4  2  0  0  0  0
  6  1  2  0  0  0  0
  6  5  1  0  0  0  0
  9  5  1  0  0  0  0
 10  6  1  0  0  0  0
 11 12  1  0  0  0  0
 12 17  1  0  0  0  0
 13 12  2  0  0  0  0
 13 14  1  0  0  0  0
 14 15  2  0  0  0  0
 15 16  1  0  0  0  0
 15 18  1  0  0  0  0
 16 19  1  0  0  0  0
 17 20  1  0  0  0  0
 17 16  2  0  0  0  0
 21 27  1  0  0  0  0
 21 22  1  0  0  0  0
 22 28  1  0  0  0  0
 23 22  2  0  0  0  0
 23 13  1  0  0  0  0
 24 23  1  0  0  0  0
 25 26  1  0  0  0  0
 25 24  2  0  0  0  0
 26 21  2  0  0  0  0
 29 25  1  0  0  0  0
 30  1  1  0  0  0  0
 30 33  1  0  0  0  0
 31 30  2  0  0  0  0
 32 30  2  0  0  0  0
 33 34  1  0  0  0  0
 34 36  2  0  0  0  0
 34 35  1  0  0  0  0
 37 38  1  0  0  0  0
 37 36  1  0  0  0  0
 39 37  2  0  0  0  0
 40 39  1  0  0  0  0
 41 39  1  0  0  0  0
 41 33  2  0  0  0  0
M  END
>  <minimizedAffinity>
-5.87666798

$$$$

 OpenBabel03252509103D

 41 44  0  0  0  0  0  0  0  0999 V2000
   37.0890   25.9950   39.8070 C   0  0  0  0  0  0  0  0  0  0  0  0
   36.9790   26.7050   40.9650 C   0  0  0  0  0  0  0  0  0  0  0  0
   36.9330   26.0400   42.1790 C   0  0  0  0  0  0  0  0  0  0  0  0
   36.9980   24.6690   42.2250 C   0  0  0  0  0  0  0  0  0  0  0  0
   37.1110   23.9060   41.0660 C   0  0  0  0  0  0  0  0  0  0  0  0
   37.1550   24.6000   39.8520 C   0  0  0  0  0  0  0  0  0  0  0  0
   36.8450   26.5740   43.1160 H   0  0  0  0  0  0  0  0  0  0  0  0
   36.9710   24.0560   43.1080 H   0  0  0  0  0  0  0  0  0  0  0  0
   37.1680   22.8390   41.0090 H   0  0  0  0  0  0  0  0  0  0  0  0
   37.2450   24.0240   38.9210 H   0  0  0  0  0  0  0  0  0  0  0  0
   39.2700   31.2200   41.9860 Cl  0  0  0  0  0  0  0  0  0  0  0  0
   37.9220   30.2240   41.4990 C   0  0  0  0  0  0  0  0  0  0  0  0
   38.0300   28.8730   41.4340 C   0  0  0  0  0  0  0  0  0  0  0  0
   36.9140   28.1610   41.0290 C   0  0  0  0  0  0  0  0  0  0  0  0
   35.7390   28.7860   40.7000 C   0  0  0  0  0  0  0  0  0  0  0  0
   35.6390   30.1390   40.7680 C   0  0  0  0  0  0  0  0  0  0  0  0
   36.7470   30.8550   41.1730 C   0  0  0  0  0  0  0  0  0  0  0  0
   34.8930   28.1920   40.3870 H   0  0  0  0  0  0  0  0  0  0  0  0
   34.7010   30.5920   40.5040 H   0  0  0  0  0  0  0  0  0  0  0  0
   36.6170   31.9370   41.2120 H   0  0  0  0  0  0  0  0  0  0  0  0
   40.8950   27.3740   43.4050 C   0  0  0  0  0  0  0  0  0  0  0  0
   39.6760   27.9830   43.0850 C   0  0  0  0  0  0  0  0  0  0  0  0
   39.2970   28.2430   41.7790 C   0  0  0  0  0  0  0  0  0  0  0  0
   40.2030   27.8580   40.8770 N   0  0  0  0  0  0  0  0  0  0  0  0
   41.3660   27.2770   41.1540 C   0  0  0  0  0  0  0  0  0  0  0  0
   41.7090   27.0370   42.4180 N   0  0  0  0  0  0  0  0  0  0  0  0
   41.1600   27.1850   44.4420 H   0  0  0  0  0  0  0  0  0  0  0  0
   38.9990   28.2640   43.8980 H   0  0  0  0  0  0  0  0  0  0  0  0
   41.9180   27.0640   40.2310 H   0  0  0  0  0  0  0  0  0  0  0  0
   37.1260   26.7510   38.3000 S   0  0  0  0  0  0  0  0  0  0  0  0
   37.9470   25.8890   37.3100 O   0  0  0  0  0  0  0  0  0  0  0  0
   35.6990   26.6550   37.7460 O   0  0  0  0  0  0  0  0  0  0  0  0
   37.7980   28.2890   37.9760 C   0  0  0  0  0  0  0  0  0  0  0  0
   39.1120   28.7260   38.0720 C   0  0  0  0  0  0  0  0  0  0  0  0
   39.8320   27.9910   38.3890 H   0  0  0  0  0  0  0  0  0  0  0  0
   39.6170   29.9830   37.8470 C   0  0  0  0  0  3  0  0  0  0  0  0
   38.6990   30.9370   37.4810 C   0  0  0  0  0  0  0  0  0  0  0  0
   39.0500   31.9420   37.2930 H   0  0  0  0  0  0  0  0  0  0  0  0
   37.3530   30.7060   37.3340 C   0  0  0  0  0  0  0  0  0  0  0  0
   36.5930   31.4110   37.0520 H   0  0  0  0  0  0  0  0  0  0  0  0
   36.9950   29.4000   37.5910 C   0  0  0  0  0  3  0  0  0  0  0  0
  1  6  2  0  0  0  0
  1  2  1  0  0  0  0
  2 14  1  0  0  0  0
  2  3  2  0  0  0  0
  3  4  1  0  0  0  0
  3  7  1  0  0  0  0
  4  8  1  0  0  0  0
  5  4  2  0  0  0  0
  6  5  1  0  0  0  0
  9  5  1  0  0  0  0
 10  6  1  0  0  0  0
 12 11  1  0  0  0  0
 13 12  1  0  0  0  0
 13 23  1  0  0  0  0
 14 13  2  0  0  0  0
 15 16  2  0  0  0  0
 15 14  1  0  0  0  0
 16 17  1  0  0  0  0
 17 20  1  0  0  0  0
 17 12  2  0  0  0  0
 18 15  1  0  0  0  0
 19 16  1  0  0  0  0
 21 27  1  0  0  0  0
 22 21  1  0  0  0  0
 22 28  1  0  0  0  0
 23 22  2  0  0  0  0
 24 25  2  0  0  0  0
 24 23  1  0  0  0  0
 25 26  1  0  0  0  0
 26 21  2  0  0  0  0
 29 25  1  0  0  0  0
 30  1  1  0  0  0  0
 31 30  2  0  0  0  0
 32 30  2  0  0  0  0
 33 34  1  0  0  0  0
 33 30  1  0  0  0  0
 34 35  1  0  0  0  0
 36 34  2  0  0  0  0
 37 36  1  0  0  0  0
 38 37  1  0  0  0  0
 39 37  2  0  0  0  0
 39 41  1  0  0  0  0
 40 39  1  0  0  0  0
 41 33  2  0  0  0  0
M  END
>  <minimizedAffinity>
-5.85739851

$$$$

 OpenBabel03252509103D

 41 44  0  0  0  0  0  0  0  0999 V2000
   37.5610   26.6810   41.4910 C   0  0  0  0  0  0  0  0  0  0  0  0
   37.0270   27.3480   40.4280 C   0  0  0  0  0  0  0  0  0  0  0  0
   36.4390   26.6390   39.3940 C   0  0  0  0  0  0  0  0  0  0  0  0
   36.3910   25.2660   39.4310 C   0  0  0  0  0  0  0  0  0  0  0  0
   36.9250   24.5460   40.4960 C   0  0  0  0  0  0  0  0  0  0  0  0
   37.5130   25.2860   41.5280 C   0  0  0  0  0  0  0  0  0  0  0  0
   36.0070   27.1380   38.5370 H   0  0  0  0  0  0  0  0  0  0  0  0
   35.9620   24.6210   38.6850 H   0  0  0  0  0  0  0  0  0  0  0  0
   36.9310   23.4820   40.6060 H   0  0  0  0  0  0  0  0  0  0  0  0
   37.9420   24.7440   42.3830 H   0  0  0  0  0  0  0  0  0  0  0  0
   38.9300   31.6340   38.2630 Cl  0  0  0  0  0  0  0  0  0  0  0  0
   37.8680   30.7640   39.3420 C   0  0  0  0  0  0  0  0  0  0  0  0
   37.8980   29.4100   39.4210 C   0  0  0  0  0  0  0  0  0  0  0  0
   37.0150   28.8010   40.2970 C   0  0  0  0  0  0  0  0  0  0  0  0
   36.1380   29.5280   41.0590 C   0  0  0  0  0  0  0  0  0  0  0  0
   36.1160   30.8830   40.9750 C   0  0  0  0  0  0  0  0  0  0  0  0
   36.9930   31.4980   40.1050 C   0  0  0  0  0  0  0  0  0  0  0  0
   35.4650   29.0120   41.7280 H   0  0  0  0  0  0  0  0  0  0  0  0
   35.4150   31.4170   41.5900 H   0  0  0  0  0  0  0  0  0  0  0  0
   36.9380   32.5850   40.0740 H   0  0  0  0  0  0  0  0  0  0  0  0
   40.9800   27.5700   38.2170 C   0  0  0  0  0  0  0  0  0  0  0  0
   40.0890   28.2850   39.0250 C   0  0  0  0  0  0  0  0  0  0  0  0
   38.8350   28.6690   38.5860 C   0  0  0  0  0  0  0  0  0  0  0  0
   38.5720   28.2920   37.3330 N   0  0  0  0  0  0  0  0  0  0  0  0
   39.3990   27.6120   36.5450 C   0  0  0  0  0  0  0  0  0  0  0  0
   40.6010   27.2530   36.9890 N   0  0  0  0  0  0  0  0  0  0  0  0
   41.9590   27.2840   38.5950 H   0  0  0  0  0  0  0  0  0  0  0  0
   40.3980   28.5480   40.0420 H   0  0  0  0  0  0  0  0  0  0  0  0
   38.9360   27.4330   35.5670 H   0  0  0  0  0  0  0  0  0  0  0  0
   38.3090   27.4930   42.7660 S   0  0  0  0  0  0  0  0  0  0  0  0
   37.2320   28.1580   43.6570 O   0  0  0  0  0  0  0  0  0  0  0  0
   38.8900   26.4020   43.6760 O   0  0  0  0  0  0  0  0  0  0  0  0
   39.4050   28.7950   42.6080 C   0  0  0  0  0  0  0  0  0  0  0  0
   39.1920   30.1610   42.7400 C   0  0  0  0  0  0  0  0  0  0  0  0
   38.1880   30.4600   42.9870 H   0  0  0  0  0  0  0  0  0  0  0  0
   40.0840   31.1890   42.5640 C   0  0  0  0  0  3  0  0  0  0  0  0
   41.3580   30.8180   42.2080 C   0  0  0  0  0  0  0  0  0  0  0  0
   42.0960   31.5940   42.0590 H   0  0  0  0  0  0  0  0  0  0  0  0
   41.7690   29.5200   42.0260 C   0  0  0  0  0  0  0  0  0  0  0  0
   42.7480   29.1740   41.7490 H   0  0  0  0  0  0  0  0  0  0  0  0
   40.7660   28.5990   42.2390 C   0  0  0  0  0  3  0  0  0  0  0  0
  1  6  1  0  0  0  0
  1 30  1  0  0  0  0
  2  1  2  0  0  0  0
  3  4  2  0  0  0  0
  3  2  1  0  0  0  0
  4  5  1  0  0  0  0
  5  9  1  0  0  0  0
  5  6  2  0  0  0  0
  6 10  1  0  0  0  0
  7  3  1  0  0  0  0
  8  4  1  0  0  0  0
 11 12  1  0  0  0  0
 12 13  2  0  0  0  0
 12 17  1  0  0  0  0
 13 14  1  0  0  0  0
 14  2  1  0  0  0  0
 14 15  2  0  0  0  0
 15 18  1  0  0  0  0
 16 15  1  0  0  0  0
 16 19  1  0  0  0  0
 17 16  2  0  0  0  0
 20 17  1  0  0  0  0
 21 27  1  0  0  0  0
 21 22  1  0  0  0  0
 22 28  1  0  0  0  0
 23 22  2  0  0  0  0
 23 13  1  0  0  0  0
 24 23  1  0  0  0  0
 25 26  1  0  0  0  0
 25 24  2  0  0  0  0
 26 21  2  0  0  0  0
 29 25  1  0  0  0  0
 30 31  2  0  0  0  0
 30 32  2  0  0  0  0
 33 34  1  0  0  0  0
 33 30  1  0  0  0  0
 34 35  1  0  0  0  0
 36 34  2  0  0  0  0
 37 36  1  0  0  0  0
 38 37  1  0  0  0  0
 39 37  2  0  0  0  0
 39 41  1  0  0  0  0
 40 39  1  0  0  0  0
 41 33  2  0  0  0  0
M  END
>  <minimizedAffinity>
-5.85448027

$$$$

 OpenBabel03252509103D

 41 44  0  0  0  0  0  0  0  0999 V2000
   38.9930   26.9250   38.2550 C   0  0  0  0  0  0  0  0  0  0  0  0
   37.7140   26.8400   38.7200 C   0  0  0  0  0  0  0  0  0  0  0  0
   36.6700   27.3430   37.9620 C   0  0  0  0  0  0  0  0  0  0  0  0
   36.9140   27.9270   36.7420 C   0  0  0  0  0  0  0  0  0  0  0  0
   38.2040   28.0340   36.2300 C   0  0  0  0  0  0  0  0  0  0  0  0
   39.2420   27.5190   37.0160 C   0  0  0  0  0  0  0  0  0  0  0  0
   35.6450   27.2920   38.3020 H   0  0  0  0  0  0  0  0  0  0  0  0
   36.1820   28.3470   36.0760 H   0  0  0  0  0  0  0  0  0  0  0  0
   38.4840   28.4710   35.2950 H   0  0  0  0  0  0  0  0  0  0  0  0
   40.2710   27.5890   36.6360 H   0  0  0  0  0  0  0  0  0  0  0  0
   36.3670   27.3660   43.6790 Cl  0  0  0  0  0  0  0  0  0  0  0  0
   36.7470   26.4370   42.2500 C   0  0  0  0  0  0  0  0  0  0  0  0
   37.0670   27.0440   41.0790 C   0  0  0  0  0  0  0  0  0  0  0  0
   37.3460   26.2310   39.9930 C   0  0  0  0  0  0  0  0  0  0  0  0
   37.3010   24.8640   40.0840 C   0  0  0  0  0  0  0  0  0  0  0  0
   36.9800   24.2650   41.2610 C   0  0  0  0  0  0  0  0  0  0  0  0
   36.7030   25.0680   42.3480 C   0  0  0  0  0  0  0  0  0  0  0  0
   37.5230   24.2680   39.2120 H   0  0  0  0  0  0  0  0  0  0  0  0
   36.9570   23.1910   41.2920 H   0  0  0  0  0  0  0  0  0  0  0  0
   36.4530   24.5420   43.2680 H   0  0  0  0  0  0  0  0  0  0  0  0
   35.9960   30.6590   40.7390 C   0  0  0  0  0  0  0  0  0  0  0  0
   35.9600   29.2620   40.7940 C   0  0  0  0  0  0  0  0  0  0  0  0
   37.0930   28.4990   41.0160 C   0  0  0  0  0  0  0  0  0  0  0  0
   38.2020   29.2270   41.1690 N   0  0  0  0  0  0  0  0  0  0  0  0
   38.2620   30.5540   41.1220 C   0  0  0  0  0  0  0  0  0  0  0  0
   37.1590   31.2670   40.9070 N   0  0  0  0  0  0  0  0  0  0  0  0
   35.0850   31.2280   40.5630 H   0  0  0  0  0  0  0  0  0  0  0  0
   34.9990   28.7550   40.6560 H   0  0  0  0  0  0  0  0  0  0  0  0
   39.2930   30.8960   41.2790 H   0  0  0  0  0  0  0  0  0  0  0  0
   40.3040   26.3510   39.1470 S   0  0  0  0  0  0  0  0  0  0  0  0
   40.5180   24.8480   38.8410 O   0  0  0  0  0  0  0  0  0  0  0  0
   41.5480   27.0120   38.5390 O   0  0  0  0  0  0  0  0  0  0  0  0
   40.4080   26.3210   40.8530 C   0  0  0  0  0  0  0  0  0  0  0  0
   40.5900   27.3620   41.7540 C   0  0  0  0  0  0  0  0  0  0  0  0
   40.6710   28.3470   41.3260 H   0  0  0  0  0  0  0  0  0  0  0  0
   40.7140   27.3040   43.1190 C   0  0  0  0  0  3  0  0  0  0  0  0
   40.6530   26.0460   43.6700 C   0  0  0  0  0  0  0  0  0  0  0  0
   40.7450   25.9510   44.7420 H   0  0  0  0  0  0  0  0  0  0  0  0
   40.4800   24.8890   42.9500 C   0  0  0  0  0  0  0  0  0  0  0  0
   40.4250   23.8840   43.3260 H   0  0  0  0  0  0  0  0  0  0  0  0
   40.3690   25.1060   41.5930 C   0  0  0  0  0  3  0  0  0  0  0  0
  1  2  1  0  0  0  0
  1 30  1  0  0  0  0
  2 14  1  0  0  0  0
  3  7  1  0  0  0  0
  3  2  2  0  0  0  0
  4  3  1  0  0  0  0
  5  4  2  0  0  0  0
  5  6  1  0  0  0  0
  6  1  2  0  0  0  0
  8  4  1  0  0  0  0
  9  5  1  0  0  0  0
 10  6  1  0  0  0  0
 12 17  1  0  0  0  0
 12 11  1  0  0  0  0
 13 12  2  0  0  0  0
 14 15  2  0  0  0  0
 14 13  1  0  0  0  0
 15 16  1  0  0  0  0
 16 19  1  0  0  0  0
 16 17  2  0  0  0  0
 17 20  1  0  0  0  0
 18 15  1  0  0  0  0
 21 22  2  0  0  0  0
 21 26  1  0  0  0  0
 22 23  1  0  0  0  0
 23 13  1  0  0  0  0
 23 24  2  0  0  0  0
 25 24  1  0  0  0  0
 25 29  1  0  0  0  0
 26 25  2  0  0  0  0
 27 21  1  0  0  0  0
 28 22  1  0  0  0  0
 30 33  1  0  0  0  0
 31 30  2  0  0  0  0
 32 30  2  0  0  0  0
 33 41  2  0  0  0  0
 33 34  1  0  0  0  0
 34 36  2  0  0  0  0
 35 34  1  0  0  0  0
 36 37  1  0  0  0  0
 37 38  1  0  0  0  0
 39 40  1  0  0  0  0
 39 37  2  0  0  0  0
 41 39  1  0  0  0  0
M  END
>  <minimizedAffinity>
-5.83497143

$$$$

 OpenBabel03252509103D

 41 44  0  0  0  0  0  0  0  0999 V2000
   36.7970   30.2320   39.0840 C   0  0  0  0  0  0  0  0  0  0  0  0
   36.9980   29.3000   38.1100 C   0  0  0  0  0  0  0  0  0  0  0  0
   37.4190   29.6970   36.8520 C   0  0  0  0  0  0  0  0  0  0  0  0
   37.6350   31.0260   36.5780 C   0  0  0  0  0  0  0  0  0  0  0  0
   37.4410   32.0100   37.5430 C   0  0  0  0  0  0  0  0  0  0  0  0
   37.0160   31.5830   38.8070 C   0  0  0  0  0  0  0  0  0  0  0  0
   37.5880   28.9830   36.0580 H   0  0  0  0  0  0  0  0  0  0  0  0
   37.9600   31.4420   35.6410 H   0  0  0  0  0  0  0  0  0  0  0  0
   37.5850   33.0630   37.4180 H   0  0  0  0  0  0  0  0  0  0  0  0
   36.8550   32.3380   39.5890 H   0  0  0  0  0  0  0  0  0  0  0  0
   34.1130   25.0670   37.4440 Cl  0  0  0  0  0  0  0  0  0  0  0  0
   35.5150   25.9310   38.0250 C   0  0  0  0  0  0  0  0  0  0  0  0
   35.6620   27.2630   37.8110 C   0  0  0  0  0  0  0  0  0  0  0  0
   36.8090   27.8660   38.2990 C   0  0  0  0  0  0  0  0  0  0  0  0
   37.7690   27.1540   38.9710 C   0  0  0  0  0  0  0  0  0  0  0  0
   37.6130   25.8210   39.1810 C   0  0  0  0  0  0  0  0  0  0  0  0
   36.4730   25.2130   38.6990 C   0  0  0  0  0  0  0  0  0  0  0  0
   38.6500   27.6640   39.3320 H   0  0  0  0  0  0  0  0  0  0  0  0
   38.3880   25.2990   39.7130 H   0  0  0  0  0  0  0  0  0  0  0  0
   36.3930   24.1440   38.8930 H   0  0  0  0  0  0  0  0  0  0  0  0
   33.6270   28.8030   35.0150 C   0  0  0  0  0  0  0  0  0  0  0  0
   34.6290   28.1110   35.7040 C   0  0  0  0  0  0  0  0  0  0  0  0
   34.6270   27.9840   37.0830 C   0  0  0  0  0  0  0  0  0  0  0  0
   33.5880   28.5820   37.6700 N   0  0  0  0  0  0  0  0  0  0  0  0
   32.6240   29.2440   37.0380 C   0  0  0  0  0  0  0  0  0  0  0  0
   32.6460   29.3530   35.7120 N   0  0  0  0  0  0  0  0  0  0  0  0
   33.6600   28.8830   33.9300 H   0  0  0  0  0  0  0  0  0  0  0  0
   35.4420   27.6540   35.1320 H   0  0  0  0  0  0  0  0  0  0  0  0
   31.8940   29.6350   37.7570 H   0  0  0  0  0  0  0  0  0  0  0  0
   36.2620   29.8070   40.6260 S   0  0  0  0  0  0  0  0  0  0  0  0
   36.0100   31.0880   41.4570 O   0  0  0  0  0  0  0  0  0  0  0  0
   34.8540   29.2280   40.4390 O   0  0  0  0  0  0  0  0  0  0  0  0
   37.1450   28.8880   41.7650 C   0  0  0  0  0  0  0  0  0  0  0  0
   38.4550   29.0330   42.2060 C   0  0  0  0  0  0  0  0  0  0  0  0
   39.0080   29.8530   41.7790 H   0  0  0  0  0  0  0  0  0  0  0  0
   39.1540   28.2520   43.0910 C   0  0  0  0  0  3  0  0  0  0  0  0
   38.4680   27.1790   43.6100 C   0  0  0  0  0  0  0  0  0  0  0  0
   38.9780   26.5360   44.3120 H   0  0  0  0  0  0  0  0  0  0  0  0
   37.1680   26.8630   43.2990 C   0  0  0  0  0  0  0  0  0  0  0  0
   36.5860   26.0410   43.6730 H   0  0  0  0  0  0  0  0  0  0  0  0
   36.5970   27.7380   42.4000 C   0  0  0  0  0  3  0  0  0  0  0  0
  1 30  1  0  0  0  0
  2 14  1  0  0  0  0
  2  1  2  0  0  0  0
  3  2  1  0  0  0  0
  4  3  2  0  0  0  0
  4  5  1  0  0  0  0
  5  6  2  0  0  0  0
  6  1  1  0  0  0  0
  6 10  1  0  0  0  0
  7  3  1  0  0  0  0
  8  4  1  0  0  0  0
  9  5  1  0  0  0  0
 11 12  1  0  0  0  0
 12 17  1  0  0  0  0
 13 12  2  0  0  0  0
 13 14  1  0  0  0  0
 14 15  2  0  0  0  0
 15 16  1  0  0  0  0
 15 18  1  0  0  0  0
 16 19  1  0  0  0  0
 17 20  1  0  0  0  0
 17 16  2  0  0  0  0
 21 22  2  0  0  0  0
 21 26  1  0  0  0  0
 22 23  1  0  0  0  0
 23 24  2  0  0  0  0
 23 13  1  0  0  0  0
 25 24  1  0  0  0  0
 25 29  1  0  0  0  0
 26 25  2  0  0  0  0
 27 21  1  0  0  0  0
 28 22  1  0  0  0  0
 30 31  2  0  0  0  0
 30 33  1  0  0  0  0
 32 30  2  0  0  0  0
 33 34  2  0  0  0  0
 33 41  1  0  0  0  0
 34 36  1  0  0  0  0
 35 34  1  0  0  0  0
 36 37  2  0  0  0  0
 37 38  1  0  0  0  0
 39 37  1  0  0  0  0
 39 40  1  0  0  0  0
 41 39  2  0  0  0  0
M  END
>  <minimizedAffinity>
-5.82614565

$$$$

 OpenBabel03252509103D

 41 44  0  0  0  0  0  0  0  0999 V2000
   36.5680   29.3990   39.3940 C   0  0  0  0  0  0  0  0  0  0  0  0
   36.6940   28.1400   39.9020 C   0  0  0  0  0  0  0  0  0  0  0  0
   36.2280   27.0550   39.1800 C   0  0  0  0  0  0  0  0  0  0  0  0
   35.6380   27.2380   37.9520 C   0  0  0  0  0  0  0  0  0  0  0  0
   35.4890   28.5050   37.3970 C   0  0  0  0  0  0  0  0  0  0  0  0
   35.9670   29.5850   38.1470 C   0  0  0  0  0  0  0  0  0  0  0  0
   36.3130   26.0440   39.5550 H   0  0  0  0  0  0  0  0  0  0  0  0
   35.2440   26.4690   37.3120 H   0  0  0  0  0  0  0  0  0  0  0  0
   35.0440   28.7380   36.4520 H   0  0  0  0  0  0  0  0  0  0  0  0
   35.8640   30.5980   37.7330 H   0  0  0  0  0  0  0  0  0  0  0  0
   40.7710   26.4520   42.5860 Cl  0  0  0  0  0  0  0  0  0  0  0  0
   39.1420   27.0600   42.4320 C   0  0  0  0  0  0  0  0  0  0  0  0
   38.6100   27.3490   41.2180 C   0  0  0  0  0  0  0  0  0  0  0  0
   37.3140   27.8360   41.1870 C   0  0  0  0  0  0  0  0  0  0  0  0
   36.5870   28.0250   42.3340 C   0  0  0  0  0  0  0  0  0  0  0  0
   37.1280   27.7320   43.5450 C   0  0  0  0  0  0  0  0  0  0  0  0
   38.4180   27.2460   43.5840 C   0  0  0  0  0  0  0  0  0  0  0  0
   35.5800   28.4090   42.2650 H   0  0  0  0  0  0  0  0  0  0  0  0
   36.5260   27.8940   44.4210 H   0  0  0  0  0  0  0  0  0  0  0  0
   38.8070   27.0250   44.5770 H   0  0  0  0  0  0  0  0  0  0  0  0
   40.9630   27.9390   38.3110 C   0  0  0  0  0  0  0  0  0  0  0  0
   40.1890   28.1460   39.4580 C   0  0  0  0  0  0  0  0  0  0  0  0
   39.4160   27.1470   40.0210 C   0  0  0  0  0  0  0  0  0  0  0  0
   39.4860   25.9870   39.3630 N   0  0  0  0  0  0  0  0  0  0  0  0
   40.2130   25.7640   38.2730 C   0  0  0  0  0  0  0  0  0  0  0  0
   40.9500   26.7410   37.7500 N   0  0  0  0  0  0  0  0  0  0  0  0
   41.5600   28.7480   37.8950 H   0  0  0  0  0  0  0  0  0  0  0  0
   40.1980   29.1360   39.9260 H   0  0  0  0  0  0  0  0  0  0  0  0
   40.0910   24.7280   37.9360 H   0  0  0  0  0  0  0  0  0  0  0  0
   37.0960   30.7580   40.2410 S   0  0  0  0  0  0  0  0  0  0  0  0
   36.9880   32.0070   39.3320 O   0  0  0  0  0  0  0  0  0  0  0  0
   36.0380   31.0180   41.3210 O   0  0  0  0  0  0  0  0  0  0  0  0
   38.6690   30.9870   40.8690 C   0  0  0  0  0  0  0  0  0  0  0  0
   39.1690   30.7280   42.1390 C   0  0  0  0  0  0  0  0  0  0  0  0
   38.4710   30.3110   42.8450 H   0  0  0  0  0  0  0  0  0  0  0  0
   40.4280   30.9640   42.6300 C   0  0  0  0  0  3  0  0  0  0  0  0
   41.3150   31.5340   41.7480 C   0  0  0  0  0  0  0  0  0  0  0  0
   42.3200   31.7380   42.0900 H   0  0  0  0  0  0  0  0  0  0  0  0
   41.0150   31.8670   40.4500 C   0  0  0  0  0  0  0  0  0  0  0  0
   41.6650   32.3130   39.7200 H   0  0  0  0  0  0  0  0  0  0  0  0
   39.7150   31.5710   40.1000 C   0  0  0  0  0  3  0  0  0  0  0  0
  1  2  1  0  0  0  0
  1 30  1  0  0  0  0
  2 14  1  0  0  0  0
  3  7  1  0  0  0  0
  3  2  2  0  0  0  0
  4  3  1  0  0  0  0
  5  4  2  0  0  0  0
  5  6  1  0  0  0  0
  6  1  2  0  0  0  0
  8  4  1  0  0  0  0
  9  5  1  0  0  0  0
 10  6  1  0  0  0  0
 12 11  1  0  0  0  0
 12 17  1  0  0  0  0
 13 12  2  0  0  0  0
 14 13  1  0  0  0  0
 14 15  2  0  0  0  0
 15 16  1  0  0  0  0
 16 17  2  0  0  0  0
 16 19  1  0  0  0  0
 17 20  1  0  0  0  0
 18 15  1  0  0  0  0
 21 22  1  0  0  0  0
 22 28  1  0  0  0  0
 22 23  2  0  0  0  0
 23 13  1  0  0  0  0
 24 23  1  0  0  0  0
 25 24  2  0  0  0  0
 26 25  1  0  0  0  0
 26 21  2  0  0  0  0
 27 21  1  0  0  0  0
 29 25  1  0  0  0  0
 30 33  1  0  0  0  0
 30 32  2  0  0  0  0
 31 30  2  0  0  0  0
 33 34  1  0  0  0  0
 34 36  2  0  0  0  0
 34 35  1  0  0  0  0
 37 38  1  0  0  0  0
 37 36  1  0  0  0  0
 39 37  2  0  0  0  0
 40 39  1  0  0  0  0
 41 39  1  0  0  0  0
 41 33  2  0  0  0  0
M  END
>  <minimizedAffinity>
-5.77332401

$$$$
