
 OpenBabel03242519503D

 50 53  0  0  1  0  0  0  0  0999 V2000
   38.4350   33.8610   40.1430 C   0  0  0  0  0  0  0  0  0  0  0  0
   38.5570   33.8030   41.1890 H   0  0  0  0  0  0  0  0  0  0  0  0
   38.2950   35.1030   40.1300 H   0  0  0  0  0  0  0  0  0  0  0  0
   37.1430   33.4720   39.4380 C   0  0  0  0  0  0  0  0  0  0  0  0
   37.1300   34.0260   38.4680 H   0  0  0  0  0  0  0  0  0  0  0  0
   36.2580   33.7710   39.9780 H   0  0  0  0  0  0  0  0  0  0  0  0
   36.5610   31.1990   40.0670 C   0  0  0  0  0  0  0  0  0  0  0  0
   37.1670   32.0420   39.1210 C   0  0  0  0  0  0  0  0  0  0  0  0
   37.7040   31.3850   38.0470 C   0  0  0  0  0  0  0  0  0  0  0  0
   37.6850   30.0350   37.8570 C   0  0  0  0  0  0  0  0  0  0  0  0
   37.0850   29.2190   38.8010 C   0  0  0  0  0  0  0  0  0  0  0  0
   36.5110   29.8240   39.9300 C   0  0  0  0  0  0  0  0  0  0  0  0
   38.1660   32.0830   37.3310 H   0  0  0  0  0  0  0  0  0  0  0  0
   38.1400   29.6090   36.9690 H   0  0  0  0  0  0  0  0  0  0  0  0
   37.0860   28.1550   38.6220 H   0  0  0  0  0  0  0  0  0  0  0  0
   35.9420   31.5790   41.2400 O   0  0  0  0  0  0  0  0  0  0  0  0
   35.1740   32.2330   41.3200 H   0  0  0  0  0  0  0  0  0  0  0  0
   35.9500   28.9410   40.7880 O   0  0  0  0  0  0  0  0  0  0  0  0
   36.7250   28.0620   41.5130 C   0  0  0  0  0  0  0  0  0  0  0  0
   37.3620   28.7920   42.5270 C   0  0  0  0  0  0  0  0  0  0  0  0
   37.2990   29.8620   42.7560 H   0  0  0  0  0  0  0  0  0  0  0  0
   38.2260   28.1860   43.4460 C   0  0  0  0  0  3  0  0  0  0  0  0
   38.4680   26.8130   43.3570 C   0  0  0  0  0  0  0  0  0  0  0  0
   39.1290   26.3030   44.0450 H   0  0  0  0  0  0  0  0  0  0  0  0
   37.8290   26.1180   42.3510 C   0  0  0  0  0  0  0  0  0  0  0  0
   37.9820   25.0680   42.2410 H   0  0  0  0  0  0  0  0  0  0  0  0
   36.9770   26.7090   41.4440 C   0  0  0  0  0  3  0  0  0  0  0  0
   39.5160   33.7820   39.3580 O   0  0  0  0  0  0  0  0  0  0  0  0
   41.7930   33.3860   38.7940 C   0  0  2  0  0  0  0  0  0  0  0  0
   42.0940   31.9770   39.0450 C   0  0  1  0  0  0  0  0  0  0  0  0
   40.8500   31.4780   39.6880 O   0  0  0  0  0  0  0  0  0  0  0  0
   40.8110   32.4130   40.7170 C   0  0  0  0  0  0  0  0  0  0  0  0
   40.7730   33.7650   39.8140 C   0  0  2  0  0  0  0  0  0  0  0  0
   42.6590   34.0690   38.8200 H   0  0  0  0  0  0  0  0  0  0  0  0
   42.8610   31.8200   39.8440 H   0  0  0  0  0  0  0  0  0  0  0  0
   41.7520   32.4340   41.2680 H   0  0  0  0  0  0  0  0  0  0  0  0
   39.8900   32.3850   41.2940 H   0  0  0  0  0  0  0  0  0  0  0  0
   41.0510   34.4280   40.6510 H   0  0  0  0  0  0  0  0  0  0  0  0
   43.8500   30.7770   36.0840 C   0  0  0  0  0  0  0  0  0  0  0  0
   43.1230   29.6560   35.6970 C   0  0  0  0  0  0  0  0  0  0  0  0
   41.9940   29.2960   36.4530 C   0  0  0  0  0  0  0  0  0  0  0  0
   41.6570   30.0480   37.5230 N   0  0  0  0  0  0  0  0  0  0  0  0
   42.3750   31.1340   37.8860 C   0  0  0  0  0  0  0  0  0  0  0  0
   43.4760   31.5070   37.1710 N   0  0  0  0  0  0  0  0  0  0  0  0
   43.4490   29.1030   34.8310 H   0  0  0  0  0  0  0  0  0  0  0  0
   41.4290   28.4410   36.1660 H   0  0  0  0  0  0  0  0  0  0  0  0
   44.9800   31.1810   35.3700 O   0  0  0  0  0  0  0  0  0  0  0  0
   45.1950   30.8690   34.4510 H   0  0  0  0  0  0  0  0  0  0  0  0
   41.1480   33.4890   37.4920 O   0  0  0  0  0  0  0  0  0  0  0  0
   40.1980   33.2980   37.5960 H   0  0  0  0  0  0  0  0  0  0  0  0
  1  2  1  0  0  0  0
  3  1  1  0  0  0  0
  4  6  1  0  0  0  0
  4  1  1  0  0  0  0
  5  4  1  0  0  0  0
  7 16  1  0  0  0  0
  8  4  1  0  0  0  0
  8  7  2  0  0  0  0
  9  8  1  0  0  0  0
 10  9  2  0  0  0  0
 10 11  1  0  0  0  0
 11 12  2  0  0  0  0
 12  7  1  0  0  0  0
 12 18  1  0  0  0  0
 13  9  1  0  0  0  0
 14 10  1  0  0  0  0
 15 11  1  0  0  0  0
 16 17  1  0  0  0  0
 18 19  1  0  0  0  0
 19 20  1  0  0  0  0
 20 21  1  0  0  0  0
 20 22  2  0  0  0  0
 23 22  1  0  0  0  0
 23 24  1  0  0  0  0
 25 23  2  0  0  0  0
 26 25  1  0  0  0  0
 27 19  2  0  0  0  0
 27 25  1  0  0  0  0
 28 33  1  0  0  0  0
 28  1  1  0  0  0  0
 29 34  1  1  0  0  0
 29 30  1  0  0  0  0
 29 33  1  0  0  0  0
 30 31  1  0  0  0  0
 30 35  1  1  0  0  0
 31 32  1  0  0  0  0
 32 36  1  0  0  0  0
 32 37  1  0  0  0  0
 33 38  1  1  0  0  0
 33 32  1  0  0  0  0
 39 44  1  0  0  0  0
 40 39  2  0  0  0  0
 40 41  1  0  0  0  0
 41 42  2  0  0  0  0
 42 43  1  0  0  0  0
 43 30  1  0  0  0  0
 44 43  2  0  0  0  0
 45 40  1  0  0  0  0
 46 41  1  0  0  0  0
 47 39  1  0  0  0  0
 48 47  1  0  0  0  0
 49 50  1  0  0  0  0
 49 29  1  0  0  0  0
M  END
>  <minimizedAffinity>
-6.8991909

$$$$

 OpenBabel03242519503D

 50 53  0  0  1  0  0  0  0  0999 V2000
   39.0340   33.5790   40.2820 C   0  0  0  0  0  0  0  0  0  0  0  0
   39.5200   34.0740   41.0760 H   0  0  0  0  0  0  0  0  0  0  0  0
   38.4200   34.5960   39.8940 H   0  0  0  0  0  0  0  0  0  0  0  0
   37.8450   32.6510   40.4890 C   0  0  0  0  0  0  0  0  0  0  0  0
   37.5380   32.2950   39.4760 H   0  0  0  0  0  0  0  0  0  0  0  0
   36.9880   33.1490   40.9150 H   0  0  0  0  0  0  0  0  0  0  0  0
   37.2910   30.4770   41.4190 C   0  0  0  0  0  0  0  0  0  0  0  0
   38.2650   31.4750   41.2550 C   0  0  0  0  0  0  0  0  0  0  0  0
   39.4630   31.1950   41.8550 C   0  0  0  0  0  0  0  0  0  0  0  0
   39.7440   30.0660   42.5660 C   0  0  0  0  0  0  0  0  0  0  0  0
   38.7720   29.0930   42.7190 C   0  0  0  0  0  0  0  0  0  0  0  0
   37.5180   29.3110   42.1290 C   0  0  0  0  0  0  0  0  0  0  0  0
   40.1960   32.0020   41.7000 H   0  0  0  0  0  0  0  0  0  0  0  0
   40.7280   29.9370   43.0050 H   0  0  0  0  0  0  0  0  0  0  0  0
   39.0250   28.2110   43.2870 H   0  0  0  0  0  0  0  0  0  0  0  0
   36.0010   30.4870   40.9280 O   0  0  0  0  0  0  0  0  0  0  0  0
   35.7390   30.5930   39.9570 H   0  0  0  0  0  0  0  0  0  0  0  0
   36.6410   28.3020   42.3360 O   0  0  0  0  0  0  0  0  0  0  0  0
   36.7170   27.1320   41.6110 C   0  0  0  0  0  0  0  0  0  0  0  0
   36.8730   26.0770   42.5210 C   0  0  0  0  0  0  0  0  0  0  0  0
   36.9300   26.1060   43.6150 H   0  0  0  0  0  0  0  0  0  0  0  0
   36.9810   24.7460   42.1010 C   0  0  0  0  0  3  0  0  0  0  0  0
   36.9340   24.4510   40.7360 C   0  0  0  0  0  0  0  0  0  0  0  0
   37.0140   23.4380   40.3670 H   0  0  0  0  0  0  0  0  0  0  0  0
   36.7800   25.5080   39.8620 C   0  0  0  0  0  0  0  0  0  0  0  0
   36.7390   25.3350   38.8110 H   0  0  0  0  0  0  0  0  0  0  0  0
   36.6730   26.8200   40.2690 C   0  0  0  0  0  3  0  0  0  0  0  0
   39.7180   33.3270   39.1590 O   0  0  0  0  0  0  0  0  0  0  0  0
   41.5480   33.3060   37.6390 C   0  0  2  0  0  0  0  0  0  0  0  0
   42.5020   32.2870   38.0770 C   0  0  1  0  0  0  0  0  0  0  0  0
   41.9370   31.8360   39.3760 O   0  0  0  0  0  0  0  0  0  0  0  0
   41.8800   33.0910   39.9740 C   0  0  0  0  0  0  0  0  0  0  0  0
   40.9250   33.8340   38.8880 C   0  0  2  0  0  0  0  0  0  0  0  0
   41.9710   34.1200   37.0270 H   0  0  0  0  0  0  0  0  0  0  0  0
   43.4950   32.7050   38.3750 H   0  0  0  0  0  0  0  0  0  0  0  0
   42.8470   33.5930   39.9320 H   0  0  0  0  0  0  0  0  0  0  0  0
   41.3510   33.0950   40.9240 H   0  0  0  0  0  0  0  0  0  0  0  0
   41.1750   34.8490   39.2410 H   0  0  0  0  0  0  0  0  0  0  0  0
   43.9840   30.1480   35.5240 C   0  0  0  0  0  0  0  0  0  0  0  0
   43.2040   28.9970   35.5600 C   0  0  0  0  0  0  0  0  0  0  0  0
   42.1330   28.9420   36.4690 C   0  0  0  0  0  0  0  0  0  0  0  0
   41.9010   30.0030   37.2710 N   0  0  0  0  0  0  0  0  0  0  0  0
   42.6690   31.1140   37.2240 C   0  0  0  0  0  0  0  0  0  0  0  0
   43.7150   31.1960   36.3510 N   0  0  0  0  0  0  0  0  0  0  0  0
   43.4460   28.1880   34.8900 H   0  0  0  0  0  0  0  0  0  0  0  0
   41.5280   28.0660   36.5050 H   0  0  0  0  0  0  0  0  0  0  0  0
   45.0600   30.2580   34.6400 O   0  0  0  0  0  0  0  0  0  0  0  0
   45.1920   29.6670   33.8530 H   0  0  0  0  0  0  0  0  0  0  0  0
   40.4910   32.6470   36.8850 O   0  0  0  0  0  0  0  0  0  0  0  0
   39.8330   32.2910   37.5100 H   0  0  0  0  0  0  0  0  0  0  0  0
  1  4  1  0  0  0  0
  1  2  1  0  0  0  0
  3  1  1  0  0  0  0
  4  6  1  0  0  0  0
  4  8  1  0  0  0  0
  5  4  1  0  0  0  0
  7 12  1  0  0  0  0
  8  7  2  0  0  0  0
  8  9  1  0  0  0  0
  9 10  2  0  0  0  0
 10 11  1  0  0  0  0
 10 14  1  0  0  0  0
 11 15  1  0  0  0  0
 12 18  1  0  0  0  0
 12 11  2  0  0  0  0
 13  9  1  0  0  0  0
 16  7  1  0  0  0  0
 17 16  1  0  0  0  0
 19 18  1  0  0  0  0
 19 20  1  0  0  0  0
 20 21  1  0  0  0  0
 22 20  2  0  0  0  0
 23 22  1  0  0  0  0
 24 23  1  0  0  0  0
 25 27  1  0  0  0  0
 25 23  2  0  0  0  0
 26 25  1  0  0  0  0
 27 19  2  0  0  0  0
 28  1  1  0  0  0  0
 29 34  1  6  0  0  0
 29 30  1  0  0  0  0
 29 33  1  0  0  0  0
 30 35  1  1  0  0  0
 30 31  1  0  0  0  0
 31 32  1  0  0  0  0
 32 37  1  0  0  0  0
 33 28  1  0  0  0  0
 33 38  1  1  0  0  0
 33 32  1  0  0  0  0
 36 32  1  0  0  0  0
 39 40  2  0  0  0  0
 39 44  1  0  0  0  0
 40 41  1  0  0  0  0
 41 46  1  0  0  0  0
 41 42  2  0  0  0  0
 43 42  1  0  0  0  0
 43 30  1  0  0  0  0
 44 43  2  0  0  0  0
 45 40  1  0  0  0  0
 47 39  1  0  0  0  0
 48 47  1  0  0  0  0
 49 50  1  0  0  0  0
 49 29  1  0  0  0  0
M  END
>  <minimizedAffinity>
-6.69206476

$$$$

 OpenBabel03242519503D

 50 53  0  0  1  0  0  0  0  0999 V2000
   37.7890   32.2480   38.6940 C   0  0  0  0  0  0  0  0  0  0  0  0
   37.4240   32.8930   37.9450 H   0  0  0  0  0  0  0  0  0  0  0  0
   37.6480   31.2130   38.0080 H   0  0  0  0  0  0  0  0  0  0  0  0
   36.9650   31.8390   39.9070 C   0  0  0  0  0  0  0  0  0  0  0  0
   35.9930   32.3830   39.8310 H   0  0  0  0  0  0  0  0  0  0  0  0
   37.4130   32.1330   40.8430 H   0  0  0  0  0  0  0  0  0  0  0  0
   36.7030   29.7190   41.0640 C   0  0  0  0  0  0  0  0  0  0  0  0
   36.6670   30.4060   39.8400 C   0  0  0  0  0  0  0  0  0  0  0  0
   36.3700   29.6160   38.7610 C   0  0  0  0  0  0  0  0  0  0  0  0
   36.1250   28.2760   38.8080 C   0  0  0  0  0  0  0  0  0  0  0  0
   36.1660   27.6150   40.0240 C   0  0  0  0  0  0  0  0  0  0  0  0
   36.4630   28.3610   41.1740 C   0  0  0  0  0  0  0  0  0  0  0  0
   36.3520   30.1950   37.8250 H   0  0  0  0  0  0  0  0  0  0  0  0
   35.8980   27.7370   37.8940 H   0  0  0  0  0  0  0  0  0  0  0  0
   35.9660   26.5540   40.0280 H   0  0  0  0  0  0  0  0  0  0  0  0
   36.9730   30.2530   42.3080 O   0  0  0  0  0  0  0  0  0  0  0  0
   36.4760   31.0180   42.7430 H   0  0  0  0  0  0  0  0  0  0  0  0
   36.4760   27.6230   42.3080 O   0  0  0  0  0  0  0  0  0  0  0  0
   37.4270   26.6450   42.5100 C   0  0  0  0  0  0  0  0  0  0  0  0
   38.4640   27.2100   43.2680 C   0  0  0  0  0  0  0  0  0  0  0  0
   38.5620   28.2290   43.6580 H   0  0  0  0  0  0  0  0  0  0  0  0
   39.5900   26.4720   43.6470 C   0  0  0  0  0  3  0  0  0  0  0  0
   39.6950   25.1330   43.2640 C   0  0  0  0  0  0  0  0  0  0  0  0
   40.5480   24.5260   43.5350 H   0  0  0  0  0  0  0  0  0  0  0  0
   38.6620   24.6020   42.5190 C   0  0  0  0  0  0  0  0  0  0  0  0
   38.6950   23.5840   42.2020 H   0  0  0  0  0  0  0  0  0  0  0  0
   37.5500   25.3230   42.1430 C   0  0  0  0  0  3  0  0  0  0  0  0
   39.1100   32.1670   38.8950 O   0  0  0  0  0  0  0  0  0  0  0  0
   40.9980   33.6140   38.9310 C   0  0  2  0  0  0  0  0  0  0  0  0
   42.1490   32.8620   39.4310 C   0  0  1  0  0  0  0  0  0  0  0  0
   41.5510   31.5600   39.8290 O   0  0  0  0  0  0  0  0  0  0  0  0
   40.5860   32.0790   40.6860 C   0  0  0  0  0  0  0  0  0  0  0  0
   39.8110   33.0380   39.6270 C   0  0  2  0  0  0  0  0  0  0  0  0
   41.0500   34.7070   39.0660 H   0  0  0  0  0  0  0  0  0  0  0  0
   42.5500   33.2510   40.4000 H   0  0  0  0  0  0  0  0  0  0  0  0
   41.0330   32.7360   41.4320 H   0  0  0  0  0  0  0  0  0  0  0  0
   39.8700   31.3370   41.0320 H   0  0  0  0  0  0  0  0  0  0  0  0
   39.2950   33.6210   40.4100 H   0  0  0  0  0  0  0  0  0  0  0  0
   43.9450   31.2110   36.7220 C   0  0  0  0  0  0  0  0  0  0  0  0
   45.1220   31.9440   36.6080 C   0  0  0  0  0  0  0  0  0  0  0  0
   45.3240   33.0270   37.4810 C   0  0  0  0  0  0  0  0  0  0  0  0
   44.3730   33.3160   38.3950 N   0  0  0  0  0  0  0  0  0  0  0  0
   43.2340   32.5940   38.4920 C   0  0  0  0  0  0  0  0  0  0  0  0
   43.0110   31.5370   37.6580 N   0  0  0  0  0  0  0  0  0  0  0  0
   45.8380   31.6570   35.8560 H   0  0  0  0  0  0  0  0  0  0  0  0
   46.2210   33.5960   37.4040 H   0  0  0  0  0  0  0  0  0  0  0  0
   43.6920   30.1250   35.8820 O   0  0  0  0  0  0  0  0  0  0  0  0
   44.3900   29.6700   35.3410 H   0  0  0  0  0  0  0  0  0  0  0  0
   40.8420   33.3190   37.5130 O   0  0  0  0  0  0  0  0  0  0  0  0
   40.3450   32.4860   37.4190 H   0  0  0  0  0  0  0  0  0  0  0  0
  1 28  1  0  0  0  0
  1  4  1  0  0  0  0
  2  1  1  0  0  0  0
  3  1  1  0  0  0  0
  4  6  1  0  0  0  0
  5  4  1  0  0  0  0
  7 12  1  0  0  0  0
  7 16  1  0  0  0  0
  8  4  1  0  0  0  0
  8  7  2  0  0  0  0
  9 10  2  0  0  0  0
  9  8  1  0  0  0  0
 10 11  1  0  0  0  0
 11 15  1  0  0  0  0
 11 12  2  0  0  0  0
 12 18  1  0  0  0  0
 13  9  1  0  0  0  0
 14 10  1  0  0  0  0
 16 17  1  0  0  0  0
 18 19  1  0  0  0  0
 19 20  1  0  0  0  0
 20 22  2  0  0  0  0
 20 21  1  0  0  0  0
 23 24  1  0  0  0  0
 23 22  1  0  0  0  0
 25 23  2  0  0  0  0
 26 25  1  0  0  0  0
 27 19  2  0  0  0  0
 27 25  1  0  0  0  0
 28 33  1  0  0  0  0
 29 34  1  1  0  0  0
 29 30  1  0  0  0  0
 29 33  1  0  0  0  0
 30 31  1  0  0  0  0
 30 35  1  1  0  0  0
 31 32  1  0  0  0  0
 32 37  1  0  0  0  0
 32 36  1  0  0  0  0
 33 38  1  1  0  0  0
 33 32  1  0  0  0  0
 39 44  1  0  0  0  0
 40 39  2  0  0  0  0
 40 41  1  0  0  0  0
 41 42  2  0  0  0  0
 42 43  1  0  0  0  0
 43 30  1  0  0  0  0
 44 43  2  0  0  0  0
 45 40  1  0  0  0  0
 46 41  1  0  0  0  0
 47 39  1  0  0  0  0
 48 47  1  0  0  0  0
 49 29  1  0  0  0  0
 50 49  1  0  0  0  0
M  END
>  <minimizedAffinity>
-6.41885996

$$$$

 OpenBabel03242519503D

 50 53  0  0  1  0  0  0  0  0999 V2000
   41.3060   32.9220   38.9960 C   0  0  0  0  0  0  0  0  0  0  0  0
   42.1370   32.4330   38.5710 H   0  0  0  0  0  0  0  0  0  0  0  0
   41.5800   34.0340   38.4970 H   0  0  0  0  0  0  0  0  0  0  0  0
   41.2470   33.3320   40.4620 C   0  0  0  0  0  0  0  0  0  0  0  0
   40.2830   33.8780   40.6020 H   0  0  0  0  0  0  0  0  0  0  0  0
   42.0340   34.0140   40.7430 H   0  0  0  0  0  0  0  0  0  0  0  0
   39.9120   31.6350   41.5740 C   0  0  0  0  0  0  0  0  0  0  0  0
   41.1960   32.1360   41.3060 C   0  0  0  0  0  0  0  0  0  0  0  0
   42.2090   31.4280   41.8950 C   0  0  0  0  0  0  0  0  0  0  0  0
   42.0470   30.3280   42.6840 C   0  0  0  0  0  0  0  0  0  0  0  0
   40.7740   29.8490   42.9390 C   0  0  0  0  0  0  0  0  0  0  0  0
   39.6860   30.5240   42.3660 C   0  0  0  0  0  0  0  0  0  0  0  0
   43.1960   31.8540   41.6580 H   0  0  0  0  0  0  0  0  0  0  0  0
   42.9170   29.8350   43.1070 H   0  0  0  0  0  0  0  0  0  0  0  0
   40.6790   28.9760   43.5670 H   0  0  0  0  0  0  0  0  0  0  0  0
   38.7120   32.1410   41.1160 O   0  0  0  0  0  0  0  0  0  0  0  0
   38.4620   32.2850   40.1470 H   0  0  0  0  0  0  0  0  0  0  0  0
   38.4880   29.9760   42.6740 O   0  0  0  0  0  0  0  0  0  0  0  0
   38.1880   28.6760   42.3260 C   0  0  0  0  0  0  0  0  0  0  0  0
   37.2430   28.1960   43.2460 C   0  0  0  0  0  0  0  0  0  0  0  0
   36.7870   28.7060   44.1020 H   0  0  0  0  0  0  0  0  0  0  0  0
   36.7280   26.8980   43.1680 C   0  0  0  0  0  3  0  0  0  0  0  0
   37.1610   26.0470   42.1490 C   0  0  0  0  0  0  0  0  0  0  0  0
   36.7900   25.0360   42.0520 H   0  0  0  0  0  0  0  0  0  0  0  0
   38.0910   26.5440   41.2590 C   0  0  0  0  0  0  0  0  0  0  0  0
   38.4540   25.9320   40.4630 H   0  0  0  0  0  0  0  0  0  0  0  0
   38.6020   27.8200   41.3290 C   0  0  0  0  0  3  0  0  0  0  0  0
   40.0990   32.7550   38.4410 O   0  0  0  0  0  0  0  0  0  0  0  0
   38.4380   31.5530   37.2350 C   0  0  2  0  0  0  0  0  0  0  0  0
   38.3640   30.1960   37.7750 C   0  0  1  0  0  0  0  0  0  0  0  0
   39.4890   30.1610   38.7460 O   0  0  0  0  0  0  0  0  0  0  0  0
   40.4870   30.5410   37.8540 C   0  0  0  0  0  0  0  0  0  0  0  0
   39.8620   31.9680   37.3870 C   0  0  2  0  0  0  0  0  0  0  0  0
   38.0960   31.6690   36.1930 H   0  0  0  0  0  0  0  0  0  0  0  0
   38.6540   29.4060   37.0380 H   0  0  0  0  0  0  0  0  0  0  0  0
   40.4940   29.9010   36.9720 H   0  0  0  0  0  0  0  0  0  0  0  0
   41.4410   30.7490   38.3340 H   0  0  0  0  0  0  0  0  0  0  0  0
   40.5100   32.0510   36.4970 H   0  0  0  0  0  0  0  0  0  0  0  0
   35.8140   30.2470   40.3790 C   0  0  0  0  0  0  0  0  0  0  0  0
   34.8790   29.3120   39.9490 C   0  0  0  0  0  0  0  0  0  0  0  0
   35.1200   28.6300   38.7430 C   0  0  0  0  0  0  0  0  0  0  0  0
   36.2450   28.9070   38.0490 N   0  0  0  0  0  0  0  0  0  0  0  0
   37.1430   29.8200   38.4820 C   0  0  0  0  0  0  0  0  0  0  0  0
   36.9360   30.4970   39.6480 N   0  0  0  0  0  0  0  0  0  0  0  0
   34.0040   29.1410   40.5530 H   0  0  0  0  0  0  0  0  0  0  0  0
   34.4120   27.9110   38.4030 H   0  0  0  0  0  0  0  0  0  0  0  0
   35.6260   30.9540   41.5690 O   0  0  0  0  0  0  0  0  0  0  0  0
   34.9810   30.6850   42.2760 H   0  0  0  0  0  0  0  0  0  0  0  0
   37.6490   32.4280   38.0910 O   0  0  0  0  0  0  0  0  0  0  0  0
   38.1930   32.6960   38.8540 H   0  0  0  0  0  0  0  0  0  0  0  0
  1  4  1  0  0  0  0
  2  1  1  0  0  0  0
  3  1  1  0  0  0  0
  4  5  1  0  0  0  0
  4  6  1  0  0  0  0
  4  8  1  0  0  0  0
  7 12  1  0  0  0  0
  8  7  2  0  0  0  0
  8  9  1  0  0  0  0
  9 10  2  0  0  0  0
 10 11  1  0  0  0  0
 10 14  1  0  0  0  0
 11 15  1  0  0  0  0
 12 18  1  0  0  0  0
 12 11  2  0  0  0  0
 13  9  1  0  0  0  0
 16  7  1  0  0  0  0
 17 16  1  0  0  0  0
 19 18  1  0  0  0  0
 19 20  1  0  0  0  0
 20 21  1  0  0  0  0
 22 20  2  0  0  0  0
 23 22  1  0  0  0  0
 24 23  1  0  0  0  0
 25 27  1  0  0  0  0
 25 23  2  0  0  0  0
 26 25  1  0  0  0  0
 27 19  2  0  0  0  0
 28  1  1  0  0  0  0
 29 34  1  6  0  0  0
 29 33  1  0  0  0  0
 29 30  1  0  0  0  0
 29 49  1  0  0  0  0
 30 35  1  6  0  0  0
 30 43  1  0  0  0  0
 30 31  1  0  0  0  0
 32 37  1  0  0  0  0
 32 31  1  0  0  0  0
 33 38  1  6  0  0  0
 33 32  1  0  0  0  0
 33 28  1  0  0  0  0
 36 32  1  0  0  0  0
 39 47  1  0  0  0  0
 40 39  1  0  0  0  0
 40 45  1  0  0  0  0
 41 40  2  0  0  0  0
 42 43  2  0  0  0  0
 42 41  1  0  0  0  0
 43 44  1  0  0  0  0
 44 39  2  0  0  0  0
 46 41  1  0  0  0  0
 47 48  1  0  0  0  0
 49 50  1  0  0  0  0
M  END
>  <minimizedAffinity>
-6.27157354

$$$$

 OpenBabel03242519503D

 50 53  0  0  1  0  0  0  0  0999 V2000
   35.7180   28.5380   41.0300 C   0  0  0  0  0  0  0  0  0  0  0  0
   35.4550   27.5340   40.8440 H   0  0  0  0  0  0  0  0  0  0  0  0
   35.0500   28.6210   42.0830 H   0  0  0  0  0  0  0  0  0  0  0  0
   35.1060   29.7080   40.2720 C   0  0  0  0  0  0  0  0  0  0  0  0
   34.9270   30.5150   41.0220 H   0  0  0  0  0  0  0  0  0  0  0  0
   34.1490   29.4750   39.8320 H   0  0  0  0  0  0  0  0  0  0  0  0
   36.7750   31.3750   39.6930 C   0  0  0  0  0  0  0  0  0  0  0  0
   36.0730   30.2250   39.3000 C   0  0  0  0  0  0  0  0  0  0  0  0
   36.3960   29.7700   38.0490 C   0  0  0  0  0  0  0  0  0  0  0  0
   37.3070   30.3420   37.2130 C   0  0  0  0  0  0  0  0  0  0  0  0
   37.9890   31.4770   37.6160 C   0  0  0  0  0  0  0  0  0  0  0  0
   37.7110   32.0000   38.8880 C   0  0  0  0  0  0  0  0  0  0  0  0
   35.8240   28.8670   37.7830 H   0  0  0  0  0  0  0  0  0  0  0  0
   37.4930   29.9050   36.2370 H   0  0  0  0  0  0  0  0  0  0  0  0
   38.7040   31.9070   36.9320 H   0  0  0  0  0  0  0  0  0  0  0  0
   36.6570   32.0500   40.8910 O   0  0  0  0  0  0  0  0  0  0  0  0
   36.7840   31.6490   41.8110 H   0  0  0  0  0  0  0  0  0  0  0  0
   38.4300   33.1070   39.1860 O   0  0  0  0  0  0  0  0  0  0  0  0
   39.7580   33.0180   39.5420 C   0  0  0  0  0  0  0  0  0  0  0  0
   40.5160   33.0150   38.3620 C   0  0  0  0  0  0  0  0  0  0  0  0
   40.1790   33.0710   37.3200 H   0  0  0  0  0  0  0  0  0  0  0  0
   41.9130   32.9360   38.3780 C   0  0  0  0  0  3  0  0  0  0  0  0
   42.5820   32.8550   39.6020 C   0  0  0  0  0  0  0  0  0  0  0  0
   43.6590   32.7920   39.6620 H   0  0  0  0  0  0  0  0  0  0  0  0
   41.8120   32.8600   40.7480 C   0  0  0  0  0  0  0  0  0  0  0  0
   42.2760   32.8000   41.7070 H   0  0  0  0  0  0  0  0  0  0  0  0
   40.4380   32.9380   40.7390 C   0  0  0  0  0  3  0  0  0  0  0  0
   36.9230   28.8090   41.5460 O   0  0  0  0  0  0  0  0  0  0  0  0
   38.7700   28.3040   42.9580 C   0  0  2  0  0  0  0  0  0  0  0  0
   39.0000   26.8600   42.9220 C   0  0  1  0  0  0  0  0  0  0  0  0
   37.8540   26.3580   42.1190 O   0  0  0  0  0  0  0  0  0  0  0  0
   36.8480   26.9210   42.8980 C   0  0  0  0  0  0  0  0  0  0  0  0
   37.2990   28.4800   42.7860 C   0  0  2  0  0  0  0  0  0  0  0  0
   39.1310   28.8200   43.8630 H   0  0  0  0  0  0  0  0  0  0  0  0
   38.8420   26.3580   43.9100 H   0  0  0  0  0  0  0  0  0  0  0  0
   36.9570   26.6400   43.9450 H   0  0  0  0  0  0  0  0  0  0  0  0
   35.8590   26.8390   42.4540 H   0  0  0  0  0  0  0  0  0  0  0  0
   36.6790   28.8030   43.6400 H   0  0  0  0  0  0  0  0  0  0  0  0
   42.2810   25.2900   42.6750 C   0  0  0  0  0  0  0  0  0  0  0  0
   42.5950   25.3860   41.3240 C   0  0  0  0  0  0  0  0  0  0  0  0
   41.6740   26.0120   40.4650 C   0  0  0  0  0  0  0  0  0  0  0  0
   40.5230   26.4950   40.9800 N   0  0  0  0  0  0  0  0  0  0  0  0
   40.2330   26.3920   42.2960 C   0  0  0  0  0  0  0  0  0  0  0  0
   41.1070   25.7900   43.1540 N   0  0  0  0  0  0  0  0  0  0  0  0
   43.5320   24.9790   40.9810 H   0  0  0  0  0  0  0  0  0  0  0  0
   41.9040   26.0930   39.4280 H   0  0  0  0  0  0  0  0  0  0  0  0
   43.1570   24.6790   43.5740 O   0  0  0  0  0  0  0  0  0  0  0  0
   44.1150   24.4990   43.3770 H   0  0  0  0  0  0  0  0  0  0  0  0
   39.4070   28.8960   41.7900 O   0  0  0  0  0  0  0  0  0  0  0  0
   38.8040   28.8130   41.0280 H   0  0  0  0  0  0  0  0  0  0  0  0
  1 28  1  0  0  0  0
  1  3  1  0  0  0  0
  2  1  1  0  0  0  0
  4  5  1  0  0  0  0
  4  1  1  0  0  0  0
  6  4  1  0  0  0  0
  7 16  1  0  0  0  0
  8  7  1  0  0  0  0
  8  4  1  0  0  0  0
  9  8  2  0  0  0  0
 10 11  2  0  0  0  0
 10  9  1  0  0  0  0
 11 12  1  0  0  0  0
 12 18  1  0  0  0  0
 12  7  2  0  0  0  0
 13  9  1  0  0  0  0
 14 10  1  0  0  0  0
 15 11  1  0  0  0  0
 16 17  1  0  0  0  0
 18 19  1  0  0  0  0
 19 27  1  0  0  0  0
 20 22  1  0  0  0  0
 20 19  2  0  0  0  0
 21 20  1  0  0  0  0
 22 23  2  0  0  0  0
 23 24  1  0  0  0  0
 23 25  1  0  0  0  0
 25 26  1  0  0  0  0
 27 25  2  0  0  0  0
 28 33  1  0  0  0  0
 29 34  1  1  0  0  0
 30 29  1  0  0  0  0
 30 35  1  1  0  0  0
 31 32  1  0  0  0  0
 31 30  1  0  0  0  0
 32 36  1  0  0  0  0
 33 32  1  0  0  0  0
 33 29  1  0  0  0  0
 33 38  1  1  0  0  0
 37 32  1  0  0  0  0
 39 44  1  0  0  0  0
 39 47  1  0  0  0  0
 40 39  2  0  0  0  0
 41 42  2  0  0  0  0
 41 40  1  0  0  0  0
 42 43  1  0  0  0  0
 43 30  1  0  0  0  0
 43 44  2  0  0  0  0
 45 40  1  0  0  0  0
 46 41  1  0  0  0  0
 48 47  1  0  0  0  0
 49 29  1  0  0  0  0
 50 49  1  0  0  0  0
M  END
>  <minimizedAffinity>
-6.22358704

$$$$

 OpenBabel03242519503D

 50 53  0  0  1  0  0  0  0  0999 V2000
   40.3700   27.4490   43.2970 C   0  0  0  0  0  0  0  0  0  0  0  0
   41.0130   26.7700   42.8110 H   0  0  0  0  0  0  0  0  0  0  0  0
   40.9060   27.3080   44.4170 H   0  0  0  0  0  0  0  0  0  0  0  0
   38.9370   27.1040   43.6790 C   0  0  0  0  0  0  0  0  0  0  0  0
   38.5350   27.9830   44.2370 H   0  0  0  0  0  0  0  0  0  0  0  0
   38.8670   26.2570   44.3440 H   0  0  0  0  0  0  0  0  0  0  0  0
   37.6110   28.1390   41.9270 C   0  0  0  0  0  0  0  0  0  0  0  0
   38.1270   26.9510   42.4680 C   0  0  0  0  0  0  0  0  0  0  0  0
   37.7760   25.8210   41.7780 C   0  0  0  0  0  0  0  0  0  0  0  0
   36.9950   25.7900   40.6610 C   0  0  0  0  0  0  0  0  0  0  0  0
   36.4940   26.9710   40.1430 C   0  0  0  0  0  0  0  0  0  0  0  0
   36.8140   28.1700   40.7970 C   0  0  0  0  0  0  0  0  0  0  0  0
   38.2020   24.9150   42.2360 H   0  0  0  0  0  0  0  0  0  0  0  0
   36.7730   24.8400   40.1850 H   0  0  0  0  0  0  0  0  0  0  0  0
   35.8790   26.9130   39.2570 H   0  0  0  0  0  0  0  0  0  0  0  0
   37.7990   29.4200   42.4070 O   0  0  0  0  0  0  0  0  0  0  0  0
   38.6920   29.8690   42.5610 H   0  0  0  0  0  0  0  0  0  0  0  0
   36.2770   29.2650   40.2110 O   0  0  0  0  0  0  0  0  0  0  0  0
   35.8080   29.2220   38.9150 C   0  0  0  0  0  0  0  0  0  0  0  0
   36.8490   29.6390   38.0720 C   0  0  0  0  0  0  0  0  0  0  0  0
   37.8670   29.9540   38.3300 H   0  0  0  0  0  0  0  0  0  0  0  0
   36.6950   29.7070   36.6830 C   0  0  0  0  0  3  0  0  0  0  0  0
   35.4720   29.3520   36.1100 C   0  0  0  0  0  0  0  0  0  0  0  0
   35.3080   29.3900   35.0420 H   0  0  0  0  0  0  0  0  0  0  0  0
   34.4650   28.9460   36.9620 C   0  0  0  0  0  0  0  0  0  0  0  0
   33.5120   28.6640   36.5720 H   0  0  0  0  0  0  0  0  0  0  0  0
   34.6100   28.8760   38.3290 C   0  0  0  0  0  3  0  0  0  0  0  0
   40.5800   28.7630   43.1480 O   0  0  0  0  0  0  0  0  0  0  0  0
   41.4770   30.7470   42.1890 C   0  0  2  0  0  0  0  0  0  0  0  0
   40.9950   30.8550   40.8130 C   0  0  1  0  0  0  0  0  0  0  0  0
   40.2760   29.5710   40.6080 O   0  0  0  0  0  0  0  0  0  0  0  0
   41.3330   28.7340   40.9500 C   0  0  0  0  0  0  0  0  0  0  0  0
   41.5980   29.2850   42.4570 C   0  0  2  0  0  0  0  0  0  0  0  0
   42.4220   31.2730   42.4050 H   0  0  0  0  0  0  0  0  0  0  0  0
   41.8110   30.8010   40.0490 H   0  0  0  0  0  0  0  0  0  0  0  0
   42.2260   28.9690   40.3710 H   0  0  0  0  0  0  0  0  0  0  0  0
   41.0480   27.6880   41.0350 H   0  0  0  0  0  0  0  0  0  0  0  0
   42.5970   28.8200   42.5370 H   0  0  0  0  0  0  0  0  0  0  0  0
   37.8050   32.5760   40.4240 C   0  0  0  0  0  0  0  0  0  0  0  0
   38.1650   33.8630   40.0400 C   0  0  0  0  0  0  0  0  0  0  0  0
   39.5320   34.1610   39.8960 C   0  0  0  0  0  0  0  0  0  0  0  0
   40.4410   33.1920   40.1350 N   0  0  0  0  0  0  0  0  0  0  0  0
   40.0740   31.9460   40.5080 C   0  0  0  0  0  0  0  0  0  0  0  0
   38.7550   31.6270   40.6550 N   0  0  0  0  0  0  0  0  0  0  0  0
   37.3860   34.5860   39.8650 H   0  0  0  0  0  0  0  0  0  0  0  0
   39.8200   35.1430   39.6020 H   0  0  0  0  0  0  0  0  0  0  0  0
   36.4630   32.2230   40.5810 O   0  0  0  0  0  0  0  0  0  0  0  0
   35.7060   32.7540   40.2180 H   0  0  0  0  0  0  0  0  0  0  0  0
   40.4390   31.2550   43.0770 O   0  0  0  0  0  0  0  0  0  0  0  0
   39.7920   30.5450   43.2410 H   0  0  0  0  0  0  0  0  0  0  0  0
  1  4  1  0  0  0  0
  1  3  1  0  0  0  0
  2  1  1  0  0  0  0
  4  5  1  0  0  0  0
  4  6  1  0  0  0  0
  7 16  1  0  0  0  0
  7  8  1  0  0  0  0
  8  4  1  0  0  0  0
  9 13  1  0  0  0  0
  9  8  2  0  0  0  0
 10  9  1  0  0  0  0
 11 10  2  0  0  0  0
 11 12  1  0  0  0  0
 12  7  2  0  0  0  0
 14 10  1  0  0  0  0
 15 11  1  0  0  0  0
 16 17  1  0  0  0  0
 18 12  1  0  0  0  0
 19 18  1  0  0  0  0
 20 21  1  0  0  0  0
 20 19  2  0  0  0  0
 22 20  1  0  0  0  0
 23 22  2  0  0  0  0
 23 25  1  0  0  0  0
 24 23  1  0  0  0  0
 25 27  2  0  0  0  0
 26 25  1  0  0  0  0
 27 19  1  0  0  0  0
 28  1  1  0  0  0  0
 29 34  1  1  0  0  0
 29 33  1  0  0  0  0
 29 49  1  0  0  0  0
 30 35  1  6  0  0  0
 30 29  1  0  0  0  0
 31 30  1  0  0  0  0
 31 32  1  0  0  0  0
 32 37  1  0  0  0  0
 32 33  1  0  0  0  0
 33 38  1  1  0  0  0
 33 28  1  0  0  0  0
 36 32  1  0  0  0  0
 39 47  1  0  0  0  0
 39 44  1  0  0  0  0
 40 39  2  0  0  0  0
 41 40  1  0  0  0  0
 41 42  2  0  0  0  0
 42 43  1  0  0  0  0
 43 44  2  0  0  0  0
 43 30  1  0  0  0  0
 45 40  1  0  0  0  0
 46 41  1  0  0  0  0
 48 47  1  0  0  0  0
 49 50  1  0  0  0  0
M  END
>  <minimizedAffinity>
-6.16657495

$$$$

 OpenBabel03242519503D

 50 53  0  0  1  0  0  0  0  0999 V2000
   36.8020   30.9070   39.4470 C   0  0  0  0  0  0  0  0  0  0  0  0
   36.0200   31.0740   38.7600 H   0  0  0  0  0  0  0  0  0  0  0  0
   36.7320   29.6620   39.3750 H   0  0  0  0  0  0  0  0  0  0  0  0
   36.6290   31.0650   40.9510 C   0  0  0  0  0  0  0  0  0  0  0  0
   35.6000   30.7080   41.1930 H   0  0  0  0  0  0  0  0  0  0  0  0
   36.6860   32.0920   41.2790 H   0  0  0  0  0  0  0  0  0  0  0  0
   37.0770   28.9170   41.9930 C   0  0  0  0  0  0  0  0  0  0  0  0
   37.5700   30.1860   41.6500 C   0  0  0  0  0  0  0  0  0  0  0  0
   38.8630   30.4110   42.0410 C   0  0  0  0  0  0  0  0  0  0  0  0
   39.6510   29.5210   42.7080 C   0  0  0  0  0  0  0  0  0  0  0  0
   39.1480   28.2750   43.0400 C   0  0  0  0  0  0  0  0  0  0  0  0
   37.8290   27.9730   42.6700 C   0  0  0  0  0  0  0  0  0  0  0  0
   39.2090   31.4150   41.7510 H   0  0  0  0  0  0  0  0  0  0  0  0
   40.6670   29.7940   42.9750 H   0  0  0  0  0  0  0  0  0  0  0  0
   39.7960   27.5920   43.5680 H   0  0  0  0  0  0  0  0  0  0  0  0
   35.8180   28.4170   41.7290 O   0  0  0  0  0  0  0  0  0  0  0  0
   35.3890   28.3460   40.8160 H   0  0  0  0  0  0  0  0  0  0  0  0
   37.4340   26.7330   43.0380 O   0  0  0  0  0  0  0  0  0  0  0  0
   37.8140   25.6210   42.3160 C   0  0  0  0  0  0  0  0  0  0  0  0
   36.6540   25.0480   41.7740 C   0  0  0  0  0  0  0  0  0  0  0  0
   35.6110   25.3730   41.8680 H   0  0  0  0  0  0  0  0  0  0  0  0
   36.6970   23.8970   40.9810 C   0  0  0  0  0  3  0  0  0  0  0  0
   37.9280   23.2910   40.7160 C   0  0  0  0  0  0  0  0  0  0  0  0
   38.0080   22.4010   40.1090 H   0  0  0  0  0  0  0  0  0  0  0  0
   39.0530   23.8750   41.2620 C   0  0  0  0  0  0  0  0  0  0  0  0
   40.0160   23.4500   41.0890 H   0  0  0  0  0  0  0  0  0  0  0  0
   39.0180   25.0080   42.0430 C   0  0  0  0  0  3  0  0  0  0  0  0
   38.0680   31.0520   39.0370 O   0  0  0  0  0  0  0  0  0  0  0  0
   39.7030   31.7820   37.4710 C   0  0  2  0  0  0  0  0  0  0  0  0
   40.8460   32.3180   38.2100 C   0  0  1  0  0  0  0  0  0  0  0  0
   40.3770   32.2890   39.6200 O   0  0  0  0  0  0  0  0  0  0  0  0
   39.2180   33.0340   39.4220 C   0  0  0  0  0  0  0  0  0  0  0  0
   38.5070   32.0840   38.3100 C   0  0  2  0  0  0  0  0  0  0  0  0
   39.5790   32.1650   36.4440 H   0  0  0  0  0  0  0  0  0  0  0  0
   41.0200   33.4090   38.0340 H   0  0  0  0  0  0  0  0  0  0  0  0
   39.4370   33.9810   38.9280 H   0  0  0  0  0  0  0  0  0  0  0  0
   38.5640   33.0570   40.2900 H   0  0  0  0  0  0  0  0  0  0  0  0
   37.7910   32.8590   37.9880 H   0  0  0  0  0  0  0  0  0  0  0  0
   43.9720   31.0990   36.7840 C   0  0  0  0  0  0  0  0  0  0  0  0
   44.5150   30.3130   37.7950 C   0  0  0  0  0  0  0  0  0  0  0  0
   43.7990   30.1790   38.9970 C   0  0  0  0  0  0  0  0  0  0  0  0
   42.6150   30.8160   39.1270 N   0  0  0  0  0  0  0  0  0  0  0  0
   42.1010   31.5760   38.1350 C   0  0  0  0  0  0  0  0  0  0  0  0
   42.7740   31.7240   36.9570 N   0  0  0  0  0  0  0  0  0  0  0  0
   45.4650   29.8340   37.6220 H   0  0  0  0  0  0  0  0  0  0  0  0
   44.2040   29.5800   39.7780 H   0  0  0  0  0  0  0  0  0  0  0  0
   44.6390   31.2670   35.5690 O   0  0  0  0  0  0  0  0  0  0  0  0
   45.3810   30.6820   35.2600 H   0  0  0  0  0  0  0  0  0  0  0  0
   39.8310   30.3320   37.4220 O   0  0  0  0  0  0  0  0  0  0  0  0
   39.4790   29.9580   38.2510 H   0  0  0  0  0  0  0  0  0  0  0  0
  1  4  1  0  0  0  0
  2  1  1  0  0  0  0
  3  1  1  0  0  0  0
  4  5  1  0  0  0  0
  4  6  1  0  0  0  0
  4  8  1  0  0  0  0
  7 12  1  0  0  0  0
  8  7  2  0  0  0  0
  8  9  1  0  0  0  0
  9 10  2  0  0  0  0
 10 14  1  0  0  0  0
 10 11  1  0  0  0  0
 11 15  1  0  0  0  0
 12 18  1  0  0  0  0
 12 11  2  0  0  0  0
 13  9  1  0  0  0  0
 16  7  1  0  0  0  0
 17 16  1  0  0  0  0
 19 18  1  0  0  0  0
 20 21  1  0  0  0  0
 20 19  2  0  0  0  0
 22 20  1  0  0  0  0
 23 22  2  0  0  0  0
 23 25  1  0  0  0  0
 24 23  1  0  0  0  0
 25 27  2  0  0  0  0
 26 25  1  0  0  0  0
 27 19  1  0  0  0  0
 28  1  1  0  0  0  0
 29 34  1  6  0  0  0
 29 30  1  0  0  0  0
 29 33  1  0  0  0  0
 30 35  1  6  0  0  0
 30 31  1  0  0  0  0
 32 31  1  0  0  0  0
 32 37  1  0  0  0  0
 33 38  1  6  0  0  0
 33 28  1  0  0  0  0
 33 32  1  0  0  0  0
 36 32  1  0  0  0  0
 39 44  2  0  0  0  0
 39 40  1  0  0  0  0
 40 41  2  0  0  0  0
 41 42  1  0  0  0  0
 41 46  1  0  0  0  0
 43 30  1  0  0  0  0
 43 42  2  0  0  0  0
 44 43  1  0  0  0  0
 45 40  1  0  0  0  0
 47 39  1  0  0  0  0
 48 47  1  0  0  0  0
 49 29  1  0  0  0  0
 49 50  1  0  0  0  0
M  END
>  <minimizedAffinity>
-6.04253864

$$$$

 OpenBabel03242519503D

 50 53  0  0  1  0  0  0  0  0999 V2000
   37.9530   25.6790   42.5100 C   0  0  0  0  0  0  0  0  0  0  0  0
   38.9170   25.3220   42.2760 H   0  0  0  0  0  0  0  0  0  0  0  0
   37.8940   25.0880   43.6090 H   0  0  0  0  0  0  0  0  0  0  0  0
   36.6870   25.1200   41.8750 C   0  0  0  0  0  0  0  0  0  0  0  0
   35.8500   25.7870   42.1910 H   0  0  0  0  0  0  0  0  0  0  0  0
   36.4410   24.1280   42.2210 H   0  0  0  0  0  0  0  0  0  0  0  0
   36.6060   26.4920   39.8720 C   0  0  0  0  0  0  0  0  0  0  0  0
   36.7870   25.2100   40.4160 C   0  0  0  0  0  0  0  0  0  0  0  0
   37.0150   24.2320   39.4850 C   0  0  0  0  0  0  0  0  0  0  0  0
   37.0700   24.4240   38.1370 C   0  0  0  0  0  0  0  0  0  0  0  0
   36.8890   25.6940   37.6180 C   0  0  0  0  0  0  0  0  0  0  0  0
   36.6510   26.7480   38.5130 C   0  0  0  0  0  0  0  0  0  0  0  0
   37.1520   23.2450   39.9550 H   0  0  0  0  0  0  0  0  0  0  0  0
   37.2580   23.5810   37.4790 H   0  0  0  0  0  0  0  0  0  0  0  0
   36.9390   25.8140   36.5460 H   0  0  0  0  0  0  0  0  0  0  0  0
   36.3620   27.6600   40.5650 O   0  0  0  0  0  0  0  0  0  0  0  0
   36.9410   28.0450   41.2990 H   0  0  0  0  0  0  0  0  0  0  0  0
   36.4890   27.9460   37.9070 O   0  0  0  0  0  0  0  0  0  0  0  0
   35.2590   28.3400   37.4250 C   0  0  0  0  0  0  0  0  0  0  0  0
   35.4130   28.6520   36.0660 C   0  0  0  0  0  0  0  0  0  0  0  0
   36.3140   28.6110   35.4430 H   0  0  0  0  0  0  0  0  0  0  0  0
   34.3420   29.0870   35.2790 C   0  0  0  0  0  3  0  0  0  0  0  0
   33.0760   29.2200   35.8550 C   0  0  0  0  0  0  0  0  0  0  0  0
   32.2200   29.5530   35.2850 H   0  0  0  0  0  0  0  0  0  0  0  0
   32.9520   28.9070   37.1940 C   0  0  0  0  0  0  0  0  0  0  0  0
   32.0060   28.9930   37.6800 H   0  0  0  0  0  0  0  0  0  0  0  0
   34.0020   28.4780   37.9740 C   0  0  0  0  0  3  0  0  0  0  0  0
   37.8160   26.9330   42.9580 O   0  0  0  0  0  0  0  0  0  0  0  0
   38.5510   29.1930   43.0630 C   0  0  2  0  0  0  0  0  0  0  0  0
   39.1370   29.5510   41.7720 C   0  0  1  0  0  0  0  0  0  0  0  0
   39.1310   28.2610   41.0330 O   0  0  0  0  0  0  0  0  0  0  0  0
   39.8380   27.5260   41.9800 C   0  0  0  0  0  0  0  0  0  0  0  0
   38.8410   27.7410   43.2460 C   0  0  2  0  0  0  0  0  0  0  0  0
   38.9040   29.7830   43.9250 H   0  0  0  0  0  0  0  0  0  0  0  0
   40.2270   29.7940   41.8280 H   0  0  0  0  0  0  0  0  0  0  0  0
   40.7780   28.0150   42.2370 H   0  0  0  0  0  0  0  0  0  0  0  0
   39.8660   26.4600   41.7690 H   0  0  0  0  0  0  0  0  0  0  0  0
   39.5880   27.4180   43.9920 H   0  0  0  0  0  0  0  0  0  0  0  0
   38.1380   32.8440   40.5690 C   0  0  0  0  0  0  0  0  0  0  0  0
   37.2500   32.5650   39.5350 C   0  0  0  0  0  0  0  0  0  0  0  0
   36.9690   31.2200   39.2370 C   0  0  0  0  0  0  0  0  0  0  0  0
   37.5680   30.2510   39.9630 N   0  0  0  0  0  0  0  0  0  0  0  0
   38.4280   30.5390   40.9650 C   0  0  0  0  0  0  0  0  0  0  0  0
   38.7200   31.8360   41.2760 N   0  0  0  0  0  0  0  0  0  0  0  0
   36.8090   33.3890   38.9980 H   0  0  0  0  0  0  0  0  0  0  0  0
   36.2910   30.9950   38.4480 H   0  0  0  0  0  0  0  0  0  0  0  0
   38.4530   34.1610   40.9090 O   0  0  0  0  0  0  0  0  0  0  0  0
   37.9190   34.9490   40.6230 H   0  0  0  0  0  0  0  0  0  0  0  0
   37.1040   29.3260   42.9600 O   0  0  0  0  0  0  0  0  0  0  0  0
   36.7420   28.5130   42.5640 H   0  0  0  0  0  0  0  0  0  0  0  0
  1 28  1  0  0  0  0
  1  3  1  0  0  0  0
  2  1  1  0  0  0  0
  4  5  1  0  0  0  0
  4  6  1  0  0  0  0
  4  1  1  0  0  0  0
  7  8  1  0  0  0  0
  7 16  1  0  0  0  0
  8  4  1  0  0  0  0
  9 13  1  0  0  0  0
  9  8  2  0  0  0  0
 10  9  1  0  0  0  0
 11 10  2  0  0  0  0
 11 12  1  0  0  0  0
 12  7  2  0  0  0  0
 14 10  1  0  0  0  0
 15 11  1  0  0  0  0
 16 17  1  0  0  0  0
 18 12  1  0  0  0  0
 19 18  1  0  0  0  0
 19 27  1  0  0  0  0
 20 19  2  0  0  0  0
 21 20  1  0  0  0  0
 22 23  2  0  0  0  0
 22 20  1  0  0  0  0
 23 25  1  0  0  0  0
 24 23  1  0  0  0  0
 25 26  1  0  0  0  0
 25 27  2  0  0  0  0
 28 33  1  0  0  0  0
 29 33  1  0  0  0  0
 29 34  1  1  0  0  0
 30 35  1  1  0  0  0
 30 29  1  0  0  0  0
 31 30  1  0  0  0  0
 31 32  1  0  0  0  0
 32 36  1  0  0  0  0
 32 33  1  0  0  0  0
 33 38  1  1  0  0  0
 37 32  1  0  0  0  0
 39 47  1  0  0  0  0
 39 44  1  0  0  0  0
 40 39  2  0  0  0  0
 41 40  1  0  0  0  0
 41 42  2  0  0  0  0
 42 43  1  0  0  0  0
 43 44  2  0  0  0  0
 43 30  1  0  0  0  0
 45 40  1  0  0  0  0
 46 41  1  0  0  0  0
 48 47  1  0  0  0  0
 49 29  1  0  0  0  0
 50 49  1  0  0  0  0
M  END
>  <minimizedAffinity>
-6.02772141

$$$$

 OpenBabel03242519503D

 50 53  0  0  1  0  0  0  0  0999 V2000
   41.5590   27.0600   41.9170 C   0  0  0  0  0  0  0  0  0  0  0  0
   41.2720   26.1980   41.3830 H   0  0  0  0  0  0  0  0  0  0  0  0
   42.5810   26.5350   42.4080 H   0  0  0  0  0  0  0  0  0  0  0  0
   40.8780   27.4990   43.2070 C   0  0  0  0  0  0  0  0  0  0  0  0
   41.2770   28.5130   43.4480 H   0  0  0  0  0  0  0  0  0  0  0  0
   41.1130   26.8650   44.0470 H   0  0  0  0  0  0  0  0  0  0  0  0
   39.0160   28.8970   42.5170 C   0  0  0  0  0  0  0  0  0  0  0  0
   39.4370   27.6410   42.9800 C   0  0  0  0  0  0  0  0  0  0  0  0
   38.4230   26.7400   43.1630 C   0  0  0  0  0  0  0  0  0  0  0  0
   37.1010   26.9840   42.9360 C   0  0  0  0  0  0  0  0  0  0  0  0
   36.7030   28.2290   42.4810 C   0  0  0  0  0  0  0  0  0  0  0  0
   37.6890   29.2030   42.2690 C   0  0  0  0  0  0  0  0  0  0  0  0
   38.7990   25.7700   43.5250 H   0  0  0  0  0  0  0  0  0  0  0  0
   36.3700   26.2010   43.1120 H   0  0  0  0  0  0  0  0  0  0  0  0
   35.6500   28.3910   42.3100 H   0  0  0  0  0  0  0  0  0  0  0  0
   39.8120   29.9910   42.2440 O   0  0  0  0  0  0  0  0  0  0  0  0
   40.5930   30.0090   41.6030 H   0  0  0  0  0  0  0  0  0  0  0  0
   37.1970   30.3820   41.8230 O   0  0  0  0  0  0  0  0  0  0  0  0
   37.2310   30.7080   40.4840 C   0  0  0  0  0  0  0  0  0  0  0  0
   37.2820   32.1060   40.3870 C   0  0  0  0  0  0  0  0  0  0  0  0
   37.2960   32.8570   41.1860 H   0  0  0  0  0  0  0  0  0  0  0  0
   37.3270   32.7620   39.1520 C   0  0  0  0  0  3  0  0  0  0  0  0
   37.3210   32.0100   37.9750 C   0  0  0  0  0  0  0  0  0  0  0  0
   37.3540   32.4750   37.0000 H   0  0  0  0  0  0  0  0  0  0  0  0
   37.2700   30.6370   38.0990 C   0  0  0  0  0  0  0  0  0  0  0  0
   37.2630   30.0180   37.2290 H   0  0  0  0  0  0  0  0  0  0  0  0
   37.2260   29.9850   39.3110 C   0  0  0  0  0  3  0  0  0  0  0  0
   42.1540   28.0630   41.2610 O   0  0  0  0  0  0  0  0  0  0  0  0
   42.8230   29.3800   39.3960 C   0  0  2  0  0  0  0  0  0  0  0  0
   41.6290   29.9750   38.7970 C   0  0  1  0  0  0  0  0  0  0  0  0
   40.5210   29.3450   39.5610 O   0  0  0  0  0  0  0  0  0  0  0  0
   40.8830   28.0240   39.3160 C   0  0  0  0  0  0  0  0  0  0  0  0
   42.3830   28.0650   39.9440 C   0  0  2  0  0  0  0  0  0  0  0  0
   43.6860   29.2640   38.7190 H   0  0  0  0  0  0  0  0  0  0  0  0
   41.4320   29.6260   37.7520 H   0  0  0  0  0  0  0  0  0  0  0  0
   40.9970   27.8380   38.2480 H   0  0  0  0  0  0  0  0  0  0  0  0
   40.3110   27.3030   39.8950 H   0  0  0  0  0  0  0  0  0  0  0  0
   42.7010   27.1290   39.4510 H   0  0  0  0  0  0  0  0  0  0  0  0
   41.8670   33.4730   37.7950 C   0  0  0  0  0  0  0  0  0  0  0  0
   41.2570   34.1600   38.8400 C   0  0  0  0  0  0  0  0  0  0  0  0
   40.7570   33.4210   39.9260 C   0  0  0  0  0  0  0  0  0  0  0  0
   40.8850   32.0770   39.9170 N   0  0  0  0  0  0  0  0  0  0  0  0
   41.4800   31.4240   38.8940 C   0  0  0  0  0  0  0  0  0  0  0  0
   41.9750   32.1150   37.8260 N   0  0  0  0  0  0  0  0  0  0  0  0
   41.1900   35.2340   38.7810 H   0  0  0  0  0  0  0  0  0  0  0  0
   40.2890   33.9370   40.7320 H   0  0  0  0  0  0  0  0  0  0  0  0
   42.3820   34.1550   36.6910 O   0  0  0  0  0  0  0  0  0  0  0  0
   42.5630   35.1320   36.6800 H   0  0  0  0  0  0  0  0  0  0  0  0
   43.2190   30.2010   40.5320 O   0  0  0  0  0  0  0  0  0  0  0  0
   42.6920   29.9380   41.3080 H   0  0  0  0  0  0  0  0  0  0  0  0
  1  3  1  0  0  0  0
  1  4  1  0  0  0  0
  2  1  1  0  0  0  0
  4  5  1  0  0  0  0
  4  6  1  0  0  0  0
  7  8  1  0  0  0  0
  8  9  2  0  0  0  0
  8  4  1  0  0  0  0
  9 13  1  0  0  0  0
 10 14  1  0  0  0  0
 10  9  1  0  0  0  0
 11 10  2  0  0  0  0
 12 11  1  0  0  0  0
 12  7  2  0  0  0  0
 15 11  1  0  0  0  0
 16  7  1  0  0  0  0
 17 16  1  0  0  0  0
 18 12  1  0  0  0  0
 19 18  1  0  0  0  0
 20 19  1  0  0  0  0
 20 21  1  0  0  0  0
 22 20  2  0  0  0  0
 23 25  2  0  0  0  0
 23 22  1  0  0  0  0
 24 23  1  0  0  0  0
 25 27  1  0  0  0  0
 26 25  1  0  0  0  0
 27 19  2  0  0  0  0
 28  1  1  0  0  0  0
 29 34  1  6  0  0  0
 29 33  1  0  0  0  0
 29 49  1  0  0  0  0
 30 35  1  6  0  0  0
 30 43  1  0  0  0  0
 30 29  1  0  0  0  0
 30 31  1  0  0  0  0
 32 31  1  0  0  0  0
 32 37  1  0  0  0  0
 32 33  1  0  0  0  0
 33 38  1  6  0  0  0
 33 28  1  0  0  0  0
 36 32  1  0  0  0  0
 39 44  2  0  0  0  0
 39 40  1  0  0  0  0
 40 41  2  0  0  0  0
 41 46  1  0  0  0  0
 42 41  1  0  0  0  0
 43 42  2  0  0  0  0
 44 43  1  0  0  0  0
 45 40  1  0  0  0  0
 47 39  1  0  0  0  0
 48 47  1  0  0  0  0
 49 50  1  0  0  0  0
M  END
>  <minimizedAffinity>
-5.99664354

$$$$
