
 OpenBabel03242513593D

 41 45  0  0  0  0  0  0  0  0999 V2000
   44.5010   35.5630   44.7520 C   0  0  0  0  0  0  0  0  0  0  0  0
   44.5300   35.1700   43.4140 C   0  0  0  0  0  0  0  0  0  0  0  0
   45.1230   33.9220   43.1070 C   0  0  0  0  0  0  0  0  0  0  0  0
   45.6240   33.1830   44.1090 N   0  0  0  0  0  0  0  0  0  0  0  0
   45.5860   33.5810   45.3930 C   0  0  0  0  0  0  0  0  0  0  0  0
   45.0110   34.7940   45.7010 N   0  0  0  0  0  0  0  0  0  0  0  0
   44.0420   36.5210   44.9530 H   0  0  0  0  0  0  0  0  0  0  0  0
   45.1630   33.5840   42.0780 H   0  0  0  0  0  0  0  0  0  0  0  0
   46.1110   32.8280   46.5250 C   0  0  0  0  0  0  0  0  0  0  0  0
   45.4220   32.7560   47.7380 C   0  0  0  0  0  0  0  0  0  0  0  0
   46.1990   31.9640   48.5910 C   0  0  0  0  0  0  0  0  0  0  0  0
   47.2910   31.5990   47.8870 N   0  0  0  0  0  0  0  0  0  0  0  0
   47.2260   32.1200   46.6580 N   0  0  0  0  0  0  0  0  0  0  0  0
   44.4640   33.2280   47.9680 H   0  0  0  0  0  0  0  0  0  0  0  0
   45.8690   31.7610   49.6000 H   0  0  0  0  0  0  0  0  0  0  0  0
   48.2460   30.7860   48.5250 C   0  0  0  0  0  0  0  0  0  0  0  0
   48.5140   29.5240   48.0060 C   0  0  0  0  0  0  0  0  0  0  0  0
   47.9920   29.1660   47.1140 H   0  0  0  0  0  0  0  0  0  0  0  0
   49.4550   28.6770   48.6000 C   0  0  0  0  0  0  0  0  0  0  0  0
   50.1120   29.1510   49.7380 C   0  0  0  0  0  0  0  0  0  0  0  0
   50.8430   28.5250   50.2240 H   0  0  0  0  0  0  0  0  0  0  0  0
   49.8580   30.4040   50.2720 C   0  0  0  0  0  0  0  0  0  0  0  0
   50.3800   30.7510   51.1540 H   0  0  0  0  0  0  0  0  0  0  0  0
   48.9150   31.2200   49.6500 C   0  0  0  0  0  0  0  0  0  0  0  0
   44.0220   35.9110   42.3640 O   0  0  0  0  0  0  0  0  0  0  0  0
   43.2990   35.3930   41.3050 C   0  0  0  0  0  0  0  0  0  0  0  0
   43.8180   34.7850   40.1780 C   0  0  0  0  0  0  0  0  0  0  0  0
   42.9760   34.3170   39.2040 C   0  0  0  0  0  0  0  0  0  0  0  0
   41.5910   34.4270   39.3020 C   0  0  0  0  0  0  0  0  0  0  0  0
   40.8400   33.9460   38.3110 N   0  0  0  0  0  0  0  0  0  0  0  0
   39.4930   34.0330   38.3670 C   0  0  0  0  0  0  0  0  0  0  0  0
   38.9350   34.6350   39.4810 C   0  0  0  0  0  0  0  0  0  0  0  0
   39.7290   35.1410   40.5230 C   0  0  0  0  0  0  0  0  0  0  0  0
   41.1000   35.0300   40.4220 C   0  0  0  0  0  0  0  0  0  0  0  0
   41.9280   35.5200   41.4350 C   0  0  0  0  0  0  0  0  0  0  0  0
   44.9020   34.7150   40.1330 H   0  0  0  0  0  0  0  0  0  0  0  0
   43.3800   33.8420   38.3240 H   0  0  0  0  0  0  0  0  0  0  0  0
   38.8370   33.6670   37.6090 H   0  0  0  0  0  0  0  0  0  0  0  0
   37.8620   34.7560   39.6220 H   0  0  0  0  0  0  0  0  0  0  0  0
   39.2760   35.6040   41.3760 H   0  0  0  0  0  0  0  0  0  0  0  0
   41.4260   35.9750   42.2720 H   0  0  0  0  0  0  0  0  0  0  0  0
  1  7  1  0  0  0  0
  1  6  1  0  0  0  0
  2  1  2  0  0  0  0
  3  2  1  0  0  0  0
  3  4  2  0  0  0  0
  4  5  1  0  0  0  0
  5  6  2  0  0  0  0
  5  9  1  0  0  0  0
  8  3  1  0  0  0  0
  9 13  2  0  0  0  0
  9 10  1  0  0  0  0
 10 14  1  0  0  0  0
 10 11  2  0  0  0  0
 11 15  1  0  0  0  0
 12 16  1  0  0  0  0
 12 11  1  0  0  0  0
 13 12  1  0  0  0  0
 16 24  1  0  0  0  0
 17 16  2  0  0  0  0
 17 19  1  0  0  0  0
 18 17  1  0  0  0  0
 19 20  2  0  0  0  0
 20 21  1  0  0  0  0
 20 22  1  0  0  0  0
 22 23  1  0  0  0  0
 24 22  2  0  0  0  0
 25  2  1  0  0  0  0
 26 35  1  0  0  0  0
 26 25  1  0  0  0  0
 27 26  2  0  0  0  0
 28 29  2  0  0  0  0
 28 27  1  0  0  0  0
 29 34  1  0  0  0  0
 30 31  2  0  0  0  0
 30 29  1  0  0  0  0
 31 32  1  0  0  0  0
 32 39  1  0  0  0  0
 32 33  2  0  0  0  0
 33 40  1  0  0  0  0
 34 33  1  0  0  0  0
 34 35  2  0  0  0  0
 35 41  1  0  0  0  0
 36 27  1  0  0  0  0
 37 28  1  0  0  0  0
 38 31  1  0  0  0  0
M  END
>  <minimizedAffinity>
-7.46006012

>  <minimizedRMSD>
1.69193995

$$$$
