
 OpenBabel03252500233D

 25 26  0  0  0  0  0  0  0  0999 V2000
   35.9590   28.4790   40.9960 O   0  0  0  0  0  0  0  0  0  0  0  0
   36.7440   29.7250   41.3540 P   0  0  2  0  0  0  0  0  0  0  0  0
   35.6640   31.0250   41.3930 O   0  0  0  0  0  0  0  0  0  0  0  0
   36.1720   31.8550   41.6520 H   0  0  0  0  0  0  0  0  0  0  0  0
   37.9410   29.9360   40.1730 O   0  0  0  0  0  0  0  0  0  0  0  0
   38.9640   33.3190   40.7160 C   0  0  0  0  0  0  0  0  0  0  0  0
   39.8570   33.5770   39.6640 C   0  0  0  0  0  0  0  0  0  0  0  0
   40.0970   32.5250   38.7440 C   0  0  0  0  0  0  0  0  0  0  0  0
   39.4630   31.3590   38.9340 N   0  0  0  0  0  0  0  0  0  0  0  0
   38.6010   31.1480   39.9740 C   0  0  0  0  0  0  0  0  0  0  0  0
   38.3640   32.1380   40.8520 N   0  0  0  0  0  0  0  0  0  0  0  0
   40.3740   34.5130   39.4990 H   0  0  0  0  0  0  0  0  0  0  0  0
   40.7660   32.6240   37.9010 H   0  0  0  0  0  0  0  0  0  0  0  0
   38.7440   34.3430   41.5900 O   0  0  0  0  0  0  0  0  0  0  0  0
   39.4140   35.0960   41.7360 H   0  0  0  0  0  0  0  0  0  0  0  0
   37.3880   29.4950   42.8870 O   0  0  0  0  0  0  0  0  0  0  0  0
   38.5260   28.6790   42.9820 C   0  0  0  0  0  0  0  0  0  0  0  0
   38.2680   27.3430   43.2880 C   0  0  0  0  0  0  0  0  0  0  0  0
   37.2470   26.9900   43.4360 H   0  0  0  0  0  0  0  0  0  0  0  0
   39.3460   26.4960   43.3930 C   0  0  0  0  0  3  0  0  0  0  0  0
   40.6280   26.9940   43.1960 C   0  0  0  0  0  0  0  0  0  0  0  0
   41.4820   26.3380   43.2760 H   0  0  0  0  0  0  0  0  0  0  0  0
   40.8340   28.3230   42.8950 C   0  0  0  0  0  0  0  0  0  0  0  0
   41.8330   28.7470   42.7340 H   0  0  0  0  0  0  0  0  0  0  0  0
   39.7920   29.1930   42.7820 C   0  0  0  0  0  3  0  0  0  0  0  0
  2  1  2  6  0  0  0
  2  3  1  0  0  0  0
  2 16  1  0  0  0  0
  3  4  1  0  0  0  0
  5  2  1  0  0  0  0
  6 11  1  0  0  0  0
  6 14  1  0  0  0  0
  7  6  2  0  0  0  0
  8  9  2  0  0  0  0
  8  7  1  0  0  0  0
  9 10  1  0  0  0  0
 10  5  1  0  0  0  0
 10 11  2  0  0  0  0
 12  7  1  0  0  0  0
 13  8  1  0  0  0  0
 14 15  1  0  0  0  0
 16 17  1  0  0  0  0
 17 18  1  0  0  0  0
 18 20  2  0  0  0  0
 18 19  1  0  0  0  0
 21 22  1  0  0  0  0
 21 20  1  0  0  0  0
 23 21  2  0  0  0  0
 24 23  1  0  0  0  0
 25 23  1  0  0  0  0
 25 17  2  0  0  0  0
M  END
>  <minimizedAffinity>
-5.60161543

$$$$

 OpenBabel03252500233D

 25 26  0  0  0  0  0  0  0  0999 V2000
   34.7650   29.3440   39.5750 O   0  0  0  0  0  0  0  0  0  0  0  0
   35.8970   29.5300   40.5650 P   0  0  2  0  0  0  0  0  0  0  0  0
   35.6870   31.0290   41.3180 O   0  0  0  0  0  0  0  0  0  0  0  0
   36.4230   31.1530   41.9950 H   0  0  0  0  0  0  0  0  0  0  0  0
   37.3530   29.4580   39.7010 O   0  0  0  0  0  0  0  0  0  0  0  0
   39.3340   31.9380   38.0550 C   0  0  0  0  0  0  0  0  0  0  0  0
   39.8340   32.7260   39.1030 C   0  0  0  0  0  0  0  0  0  0  0  0
   39.4570   32.3650   40.4210 C   0  0  0  0  0  0  0  0  0  0  0  0
   38.6540   31.3040   40.5840 N   0  0  0  0  0  0  0  0  0  0  0  0
   38.1890   30.5620   39.5340 C   0  0  0  0  0  0  0  0  0  0  0  0
   38.5390   30.8940   38.2800 N   0  0  0  0  0  0  0  0  0  0  0  0
   40.4820   33.5840   38.9860 H   0  0  0  0  0  0  0  0  0  0  0  0
   39.7890   32.9070   41.2950 H   0  0  0  0  0  0  0  0  0  0  0  0
   39.7070   32.2990   36.7930 O   0  0  0  0  0  0  0  0  0  0  0  0
   39.9950   33.2470   36.5540 H   0  0  0  0  0  0  0  0  0  0  0  0
   35.7720   28.3120   41.7140 O   0  0  0  0  0  0  0  0  0  0  0  0
   36.9720   27.7770   42.2060 C   0  0  0  0  0  0  0  0  0  0  0  0
   37.2100   26.4480   41.8550 C   0  0  0  0  0  0  0  0  0  0  0  0
   36.4970   25.8940   41.2430 H   0  0  0  0  0  0  0  0  0  0  0  0
   38.3720   25.8690   42.3100 C   0  0  0  0  0  3  0  0  0  0  0  0
   39.2480   26.6170   43.0870 C   0  0  0  0  0  0  0  0  0  0  0  0
   40.1630   26.1730   43.4500 H   0  0  0  0  0  0  0  0  0  0  0  0
   38.9700   27.9280   43.4080 C   0  0  0  0  0  0  0  0  0  0  0  0
   39.6410   28.5440   44.0200 H   0  0  0  0  0  0  0  0  0  0  0  0
   37.8300   28.5350   42.9770 C   0  0  0  0  0  3  0  0  0  0  0  0
  2  1  2  6  0  0  0
  2  3  1  0  0  0  0
  2 16  1  0  0  0  0
  3  4  1  0  0  0  0
  5  2  1  0  0  0  0
  6 11  2  0  0  0  0
  6  7  1  0  0  0  0
  7  8  2  0  0  0  0
  8  9  1  0  0  0  0
  8 13  1  0  0  0  0
 10  5  1  0  0  0  0
 10  9  2  0  0  0  0
 11 10  1  0  0  0  0
 12  7  1  0  0  0  0
 14  6  1  0  0  0  0
 15 14  1  0  0  0  0
 16 17  1  0  0  0  0
 17 25  1  0  0  0  0
 18 17  2  0  0  0  0
 18 20  1  0  0  0  0
 19 18  1  0  0  0  0
 20 21  2  0  0  0  0
 21 23  1  0  0  0  0
 21 22  1  0  0  0  0
 23 24  1  0  0  0  0
 25 23  2  0  0  0  0
M  END
>  <minimizedAffinity>
-5.52042294

$$$$

 OpenBabel03252500233D

 25 26  0  0  0  0  0  0  0  0999 V2000
   37.3910   28.5800   40.1590 O   0  0  0  0  0  0  0  0  0  0  0  0
   36.9110   29.2370   41.4380 P   0  0  2  0  0  0  0  0  0  0  0  0
   35.4880   30.0790   41.0860 O   0  0  0  0  0  0  0  0  0  0  0  0
   35.1480   30.5020   41.9350 H   0  0  0  0  0  0  0  0  0  0  0  0
   38.1390   30.2720   41.9770 O   0  0  0  0  0  0  0  0  0  0  0  0
   37.8940   33.2170   39.9620 C   0  0  0  0  0  0  0  0  0  0  0  0
   39.2200   33.6630   39.8500 C   0  0  0  0  0  0  0  0  0  0  0  0
   40.2190   32.9000   40.5040 C   0  0  0  0  0  0  0  0  0  0  0  0
   39.8400   31.8080   41.1850 N   0  0  0  0  0  0  0  0  0  0  0  0
   38.5350   31.4070   41.2700 C   0  0  0  0  0  0  0  0  0  0  0  0
   37.5790   32.1220   40.6530 N   0  0  0  0  0  0  0  0  0  0  0  0
   39.5390   34.5410   39.3050 H   0  0  0  0  0  0  0  0  0  0  0  0
   41.2670   33.1600   40.4780 H   0  0  0  0  0  0  0  0  0  0  0  0
   36.9460   33.9630   39.3250 O   0  0  0  0  0  0  0  0  0  0  0  0
   37.0770   34.9490   39.1050 H   0  0  0  0  0  0  0  0  0  0  0  0
   36.5720   28.0160   42.5390 O   0  0  0  0  0  0  0  0  0  0  0  0
   37.5540   27.0290   42.7170 C   0  0  0  0  0  0  0  0  0  0  0  0
   37.2590   25.7960   42.1370 C   0  0  0  0  0  0  0  0  0  0  0  0
   36.3260   25.6410   41.5930 H   0  0  0  0  0  0  0  0  0  0  0  0
   38.1860   24.7890   42.2780 C   0  0  0  0  0  3  0  0  0  0  0  0
   39.3600   25.0360   42.9800 C   0  0  0  0  0  0  0  0  0  0  0  0
   40.0950   24.2540   43.0970 H   0  0  0  0  0  0  0  0  0  0  0  0
   39.6080   26.2720   43.5350 C   0  0  0  0  0  0  0  0  0  0  0  0
   40.5240   26.4990   44.0950 H   0  0  0  0  0  0  0  0  0  0  0  0
   38.7140   27.2940   43.4170 C   0  0  0  0  0  3  0  0  0  0  0  0
  2  1  2  6  0  0  0
  2  5  1  0  0  0  0
  2 16  1  0  0  0  0
  3  2  1  0  0  0  0
  3  4  1  0  0  0  0
  6 11  1  0  0  0  0
  7  6  2  0  0  0  0
  7  8  1  0  0  0  0
  8  9  2  0  0  0  0
  9 10  1  0  0  0  0
 10  5  1  0  0  0  0
 11 10  2  0  0  0  0
 12  7  1  0  0  0  0
 13  8  1  0  0  0  0
 14  6  1  0  0  0  0
 15 14  1  0  0  0  0
 16 17  1  0  0  0  0
 17 25  1  0  0  0  0
 18 20  1  0  0  0  0
 18 17  2  0  0  0  0
 19 18  1  0  0  0  0
 20 21  2  0  0  0  0
 21 22  1  0  0  0  0
 21 23  1  0  0  0  0
 23 24  1  0  0  0  0
 25 23  2  0  0  0  0
M  END
>  <minimizedAffinity>
-5.48453665

$$$$

 OpenBabel03252500233D

 25 26  0  0  0  0  0  0  0  0999 V2000
   35.3720   29.2050   39.4680 O   0  0  0  0  0  0  0  0  0  0  0  0
   36.1890   29.5410   40.7000 P   0  0  2  0  0  0  0  0  0  0  0  0
   35.6290   31.0160   41.3080 O   0  0  0  0  0  0  0  0  0  0  0  0
   36.1520   31.2380   42.1400 H   0  0  0  0  0  0  0  0  0  0  0  0
   37.8140   29.6300   40.2290 O   0  0  0  0  0  0  0  0  0  0  0  0
   38.8700   33.0230   40.6330 C   0  0  0  0  0  0  0  0  0  0  0  0
   39.6900   33.2590   39.5190 C   0  0  0  0  0  0  0  0  0  0  0  0
   39.8700   32.1880   38.6080 C   0  0  0  0  0  0  0  0  0  0  0  0
   39.2510   31.0270   38.8630 N   0  0  0  0  0  0  0  0  0  0  0  0
   38.4590   30.8380   39.9620 C   0  0  0  0  0  0  0  0  0  0  0  0
   38.2810   31.8460   40.8330 N   0  0  0  0  0  0  0  0  0  0  0  0
   40.1950   34.1910   39.3020 H   0  0  0  0  0  0  0  0  0  0  0  0
   40.4810   32.2700   37.7210 H   0  0  0  0  0  0  0  0  0  0  0  0
   38.7070   34.0650   41.4990 O   0  0  0  0  0  0  0  0  0  0  0  0
   39.3850   34.8210   41.5850 H   0  0  0  0  0  0  0  0  0  0  0  0
   35.9150   28.3350   41.8350 O   0  0  0  0  0  0  0  0  0  0  0  0
   37.0120   27.5360   42.1910 C   0  0  0  0  0  0  0  0  0  0  0  0
   37.7460   27.9980   43.2840 C   0  0  0  0  0  0  0  0  0  0  0  0
   37.4620   28.9150   43.8010 H   0  0  0  0  0  0  0  0  0  0  0  0
   38.8330   27.2540   43.6800 C   0  0  0  0  0  3  0  0  0  0  0  0
   39.1530   26.0920   42.9880 C   0  0  0  0  0  0  0  0  0  0  0  0
   40.0050   25.5000   43.2900 H   0  0  0  0  0  0  0  0  0  0  0  0
   38.3980   25.6750   41.9140 C   0  0  0  0  0  0  0  0  0  0  0  0
   38.6250   24.7630   41.3470 H   0  0  0  0  0  0  0  0  0  0  0  0
   37.3140   26.3840   41.4920 C   0  0  0  0  0  3  0  0  0  0  0  0
  2  1  2  6  0  0  0
  2  3  1  0  0  0  0
  2 16  1  0  0  0  0
  3  4  1  0  0  0  0
  5  2  1  0  0  0  0
  6 11  1  0  0  0  0
  6 14  1  0  0  0  0
  7  6  2  0  0  0  0
  8  9  2  0  0  0  0
  8  7  1  0  0  0  0
  9 10  1  0  0  0  0
 10  5  1  0  0  0  0
 10 11  2  0  0  0  0
 12  7  1  0  0  0  0
 13  8  1  0  0  0  0
 14 15  1  0  0  0  0
 16 17  1  0  0  0  0
 17 18  1  0  0  0  0
 18 20  2  0  0  0  0
 18 19  1  0  0  0  0
 21 22  1  0  0  0  0
 21 20  1  0  0  0  0
 23 21  2  0  0  0  0
 24 23  1  0  0  0  0
 25 23  1  0  0  0  0
 25 17  2  0  0  0  0
M  END
>  <minimizedAffinity>
-5.42899227

$$$$

 OpenBabel03252500233D

 25 26  0  0  0  0  0  0  0  0999 V2000
   36.3660   30.5840   39.0580 O   0  0  0  0  0  0  0  0  0  0  0  0
   37.0970   31.2780   40.1900 P   0  0  2  0  0  0  0  0  0  0  0  0
   36.6910   32.9190   40.1420 O   0  0  0  0  0  0  0  0  0  0  0  0
   37.1550   33.3850   40.9040 H   0  0  0  0  0  0  0  0  0  0  0  0
   38.7570   31.0320   39.9580 O   0  0  0  0  0  0  0  0  0  0  0  0
   41.0780   33.1080   38.2000 C   0  0  0  0  0  0  0  0  0  0  0  0
   41.4210   34.1000   39.1320 C   0  0  0  0  0  0  0  0  0  0  0  0
   40.8130   34.0260   40.4110 C   0  0  0  0  0  0  0  0  0  0  0  0
   39.9560   33.0240   40.6490 N   0  0  0  0  0  0  0  0  0  0  0  0
   39.6490   32.0760   39.7120 C   0  0  0  0  0  0  0  0  0  0  0  0
   40.2190   32.1350   38.4960 N   0  0  0  0  0  0  0  0  0  0  0  0
   42.1100   34.9140   38.9530 H   0  0  0  0  0  0  0  0  0  0  0  0
   41.0110   34.7410   41.1960 H   0  0  0  0  0  0  0  0  0  0  0  0
   41.6740   33.1940   36.9760 O   0  0  0  0  0  0  0  0  0  0  0  0
   42.0320   34.0700   36.5980 H   0  0  0  0  0  0  0  0  0  0  0  0
   36.5450   30.6150   41.6310 O   0  0  0  0  0  0  0  0  0  0  0  0
   37.1510   29.4220   42.0540 C   0  0  0  0  0  0  0  0  0  0  0  0
   36.5270   28.2560   41.6110 C   0  0  0  0  0  0  0  0  0  0  0  0
   35.6360   28.3020   40.9830 H   0  0  0  0  0  0  0  0  0  0  0  0
   37.0770   27.0550   41.9940 C   0  0  0  0  0  3  0  0  0  0  0  0
   38.2130   27.0500   42.7950 C   0  0  0  0  0  0  0  0  0  0  0  0
   38.6530   26.1130   43.1020 H   0  0  0  0  0  0  0  0  0  0  0  0
   38.7950   28.2280   43.2080 C   0  0  0  0  0  0  0  0  0  0  0  0
   39.6920   28.2570   43.8400 H   0  0  0  0  0  0  0  0  0  0  0  0
   38.2800   29.4360   42.8490 C   0  0  0  0  0  3  0  0  0  0  0  0
  2  1  2  6  0  0  0
  2 16  1  0  0  0  0
  3  2  1  0  0  0  0
  3  4  1  0  0  0  0
  5  2  1  0  0  0  0
  6 11  2  0  0  0  0
  6  7  1  0  0  0  0
  7  8  2  0  0  0  0
  8  9  1  0  0  0  0
  8 13  1  0  0  0  0
 10  5  1  0  0  0  0
 10  9  2  0  0  0  0
 11 10  1  0  0  0  0
 12  7  1  0  0  0  0
 14  6  1  0  0  0  0
 15 14  1  0  0  0  0
 16 17  1  0  0  0  0
 17 25  1  0  0  0  0
 18 20  1  0  0  0  0
 18 17  2  0  0  0  0
 19 18  1  0  0  0  0
 20 21  2  0  0  0  0
 21 22  1  0  0  0  0
 21 23  1  0  0  0  0
 23 24  1  0  0  0  0
 25 23  2  0  0  0  0
M  END
>  <minimizedAffinity>
-5.33175087

$$$$

 OpenBabel03252500233D

 25 26  0  0  0  0  0  0  0  0999 V2000
   39.6550   30.4220   39.5280 O   0  0  0  0  0  0  0  0  0  0  0  0
   39.0270   31.7800   39.7720 P   0  0  2  0  0  0  0  0  0  0  0  0
   38.5580   32.4120   38.2760 O   0  0  0  0  0  0  0  0  0  0  0  0
   38.1190   33.3050   38.4300 H   0  0  0  0  0  0  0  0  0  0  0  0
   40.1880   32.7540   40.5310 O   0  0  0  0  0  0  0  0  0  0  0  0
   42.4240   33.8770   37.9770 C   0  0  0  0  0  0  0  0  0  0  0  0
   43.6790   33.8940   38.6060 C   0  0  0  0  0  0  0  0  0  0  0  0
   43.7270   33.4960   39.9650 C   0  0  0  0  0  0  0  0  0  0  0  0
   42.5830   33.1330   40.5620 N   0  0  0  0  0  0  0  0  0  0  0  0
   41.3800   33.1310   39.9120 C   0  0  0  0  0  0  0  0  0  0  0  0
   41.3210   33.5050   38.6230 N   0  0  0  0  0  0  0  0  0  0  0  0
   44.6090   34.1840   38.1360 H   0  0  0  0  0  0  0  0  0  0  0  0
   44.6440   33.4740   40.5380 H   0  0  0  0  0  0  0  0  0  0  0  0
   42.3960   34.2620   36.6680 O   0  0  0  0  0  0  0  0  0  0  0  0
   43.1040   34.8690   36.2570 H   0  0  0  0  0  0  0  0  0  0  0  0
   37.6650   31.5450   40.7250 O   0  0  0  0  0  0  0  0  0  0  0  0
   37.5890   30.3380   41.4370 C   0  0  0  0  0  0  0  0  0  0  0  0
   36.5430   29.4970   41.0580 C   0  0  0  0  0  0  0  0  0  0  0  0
   35.8530   29.7850   40.2630 H   0  0  0  0  0  0  0  0  0  0  0  0
   36.4180   28.2980   41.7210 C   0  0  0  0  0  3  0  0  0  0  0  0
   37.3230   27.9780   42.7260 C   0  0  0  0  0  0  0  0  0  0  0  0
   37.2340   27.0400   43.2540 H   0  0  0  0  0  0  0  0  0  0  0  0
   38.3410   28.8410   43.0660 C   0  0  0  0  0  0  0  0  0  0  0  0
   39.0710   28.6170   43.8550 H   0  0  0  0  0  0  0  0  0  0  0  0
   38.4970   30.0360   42.4320 C   0  0  0  0  0  3  0  0  0  0  0  0
  2  1  2  6  0  0  0
  2  5  1  0  0  0  0
  2 16  1  0  0  0  0
  3  4  1  0  0  0  0
  3  2  1  0  0  0  0
  6  7  2  0  0  0  0
  6 11  1  0  0  0  0
  7  8  1  0  0  0  0
  8 13  1  0  0  0  0
  8  9  2  0  0  0  0
 10  5  1  0  0  0  0
 10  9  1  0  0  0  0
 11 10  2  0  0  0  0
 12  7  1  0  0  0  0
 14  6  1  0  0  0  0
 15 14  1  0  0  0  0
 16 17  1  0  0  0  0
 17 25  1  0  0  0  0
 18 17  2  0  0  0  0
 18 20  1  0  0  0  0
 19 18  1  0  0  0  0
 20 21  2  0  0  0  0
 21 23  1  0  0  0  0
 21 22  1  0  0  0  0
 23 24  1  0  0  0  0
 25 23  2  0  0  0  0
M  END
>  <minimizedAffinity>
-4.9246006

$$$$

 OpenBabel03252500233D

 25 26  0  0  0  0  0  0  0  0999 V2000
   40.6020   28.8570   38.8150 O   0  0  0  0  0  0  0  0  0  0  0  0
   39.7230   29.1440   40.0170 P   0  0  2  0  0  0  0  0  0  0  0  0
   38.1620   29.4650   39.4530 O   0  0  0  0  0  0  0  0  0  0  0  0
   37.5650   29.6360   40.2460 H   0  0  0  0  0  0  0  0  0  0  0  0
   40.3850   30.4740   40.8320 O   0  0  0  0  0  0  0  0  0  0  0  0
   38.2330   33.2600   40.2050 C   0  0  0  0  0  0  0  0  0  0  0  0
   39.1110   34.3480   40.0860 C   0  0  0  0  0  0  0  0  0  0  0  0
   40.4960   34.0830   40.2320 C   0  0  0  0  0  0  0  0  0  0  0  0
   40.8780   32.8210   40.4720 N   0  0  0  0  0  0  0  0  0  0  0  0
   39.9890   31.7880   40.5820 C   0  0  0  0  0  0  0  0  0  0  0  0
   38.6730   32.0260   40.4450 N   0  0  0  0  0  0  0  0  0  0  0  0
   38.8160   35.3710   39.8930 H   0  0  0  0  0  0  0  0  0  0  0  0
   41.2510   34.8520   40.1570 H   0  0  0  0  0  0  0  0  0  0  0  0
   36.9040   33.5340   40.0620 O   0  0  0  0  0  0  0  0  0  0  0  0
   36.5100   34.4580   40.2330 H   0  0  0  0  0  0  0  0  0  0  0  0
   39.6940   27.7590   40.9660 O   0  0  0  0  0  0  0  0  0  0  0  0
   38.6280   27.6300   41.8690 C   0  0  0  0  0  0  0  0  0  0  0  0
   37.8980   26.4480   41.7510 C   0  0  0  0  0  0  0  0  0  0  0  0
   38.1600   25.7000   41.0010 H   0  0  0  0  0  0  0  0  0  0  0  0
   36.8410   26.2650   42.6120 C   0  0  0  0  0  3  0  0  0  0  0  0
   36.5460   27.2470   43.5490 C   0  0  0  0  0  0  0  0  0  0  0  0
   35.7190   27.1150   44.2300 H   0  0  0  0  0  0  0  0  0  0  0  0
   37.2970   28.3990   43.6290 C   0  0  0  0  0  0  0  0  0  0  0  0
   37.0910   29.1940   44.3580 H   0  0  0  0  0  0  0  0  0  0  0  0
   38.3520   28.6170   42.7940 C   0  0  0  0  0  3  0  0  0  0  0  0
  2  1  2  6  0  0  0
  2  5  1  0  0  0  0
  2 16  1  0  0  0  0
  3  2  1  0  0  0  0
  3  4  1  0  0  0  0
  6 11  1  0  0  0  0
  7  6  2  0  0  0  0
  7  8  1  0  0  0  0
  8  9  2  0  0  0  0
  9 10  1  0  0  0  0
 10  5  1  0  0  0  0
 11 10  2  0  0  0  0
 12  7  1  0  0  0  0
 13  8  1  0  0  0  0
 14  6  1  0  0  0  0
 14 15  1  0  0  0  0
 16 17  1  0  0  0  0
 17 25  1  0  0  0  0
 18 17  2  0  0  0  0
 18 20  1  0  0  0  0
 19 18  1  0  0  0  0
 20 21  2  0  0  0  0
 21 23  1  0  0  0  0
 21 22  1  0  0  0  0
 23 24  1  0  0  0  0
 25 23  2  0  0  0  0
M  END
>  <minimizedAffinity>
-4.82246828

$$$$

 OpenBabel03252500233D

 25 26  0  0  0  0  0  0  0  0999 V2000
   35.2180   28.7310   40.6870 O   0  0  0  0  0  0  0  0  0  0  0  0
   36.6060   28.6660   41.2910 P   0  0  2  0  0  0  0  0  0  0  0  0
   37.6930   28.2770   40.0560 O   0  0  0  0  0  0  0  0  0  0  0  0
   38.6220   28.2530   40.4440 H   0  0  0  0  0  0  0  0  0  0  0  0
   36.5830   27.4850   42.5060 O   0  0  0  0  0  0  0  0  0  0  0  0
   38.4080   24.4170   42.2840 C   0  0  0  0  0  0  0  0  0  0  0  0
   39.5980   24.6780   42.9820 C   0  0  0  0  0  0  0  0  0  0  0  0
   39.7510   25.9710   43.5420 C   0  0  0  0  0  0  0  0  0  0  0  0
   38.7600   26.8580   43.3720 N   0  0  0  0  0  0  0  0  0  0  0  0
   37.6160   26.5640   42.6840 C   0  0  0  0  0  0  0  0  0  0  0  0
   37.4580   25.3410   42.1490 N   0  0  0  0  0  0  0  0  0  0  0  0
   40.4040   23.9720   43.1260 H   0  0  0  0  0  0  0  0  0  0  0  0
   40.6280   26.2690   44.0970 H   0  0  0  0  0  0  0  0  0  0  0  0
   38.2770   23.1680   41.7520 O   0  0  0  0  0  0  0  0  0  0  0  0
   39.0780   22.5800   41.5240 H   0  0  0  0  0  0  0  0  0  0  0  0
   36.9710   30.1920   41.8880 O   0  0  0  0  0  0  0  0  0  0  0  0
   37.6880   31.0520   41.0400 C   0  0  0  0  0  0  0  0  0  0  0  0
   36.9170   31.7050   40.0780 C   0  0  0  0  0  0  0  0  0  0  0  0
   35.8410   31.5390   40.0160 H   0  0  0  0  0  0  0  0  0  0  0  0
   37.5660   32.5610   39.2190 C   0  0  0  0  0  3  0  0  0  0  0  0
   38.9390   32.7390   39.3400 C   0  0  0  0  0  0  0  0  0  0  0  0
   39.4580   33.4090   38.6710 H   0  0  0  0  0  0  0  0  0  0  0  0
   39.6580   32.0720   40.3070 C   0  0  0  0  0  0  0  0  0  0  0  0
   40.7430   32.1900   40.4270 H   0  0  0  0  0  0  0  0  0  0  0  0
   39.0520   31.2160   41.1760 C   0  0  0  0  0  3  0  0  0  0  0  0
  2  1  2  6  0  0  0
  2 16  1  0  0  0  0
  2  5  1  0  0  0  0
  3  4  1  0  0  0  0
  3  2  1  0  0  0  0
  5 10  1  0  0  0  0
  6  7  1  0  0  0  0
  7 12  1  0  0  0  0
  7  8  2  0  0  0  0
  8 13  1  0  0  0  0
  9  8  1  0  0  0  0
 10  9  2  0  0  0  0
 11  6  2  0  0  0  0
 11 10  1  0  0  0  0
 14  6  1  0  0  0  0
 15 14  1  0  0  0  0
 17 25  1  0  0  0  0
 17 16  1  0  0  0  0
 18 17  2  0  0  0  0
 19 18  1  0  0  0  0
 20 21  2  0  0  0  0
 20 18  1  0  0  0  0
 21 23  1  0  0  0  0
 22 21  1  0  0  0  0
 23 24  1  0  0  0  0
 23 25  2  0  0  0  0
M  END
>  <minimizedAffinity>
-4.79305172

$$$$

 OpenBabel03252500233D

 25 26  0  0  0  0  0  0  0  0999 V2000
   37.6330   29.9650   36.8180 O   0  0  0  0  0  0  0  0  0  0  0  0
   38.4020   31.0740   37.5100 P   0  0  2  0  0  0  0  0  0  0  0  0
   38.6530   32.3120   36.3860 O   0  0  0  0  0  0  0  0  0  0  0  0
   39.1440   33.0630   36.8430 H   0  0  0  0  0  0  0  0  0  0  0  0
   39.8630   30.4180   38.0630 O   0  0  0  0  0  0  0  0  0  0  0  0
   42.2860   32.8820   37.1410 C   0  0  0  0  0  0  0  0  0  0  0  0
   43.5060   32.1880   37.1730 C   0  0  0  0  0  0  0  0  0  0  0  0
   43.4620   30.8170   37.5290 C   0  0  0  0  0  0  0  0  0  0  0  0
   42.2710   30.2710   37.8120 N   0  0  0  0  0  0  0  0  0  0  0  0
   41.1040   30.9840   37.7690 C   0  0  0  0  0  0  0  0  0  0  0  0
   41.1320   32.2840   37.4320 N   0  0  0  0  0  0  0  0  0  0  0  0
   44.4730   32.6160   36.9480 H   0  0  0  0  0  0  0  0  0  0  0  0
   44.3450   30.1960   37.5830 H   0  0  0  0  0  0  0  0  0  0  0  0
   42.3470   34.2000   36.7950 O   0  0  0  0  0  0  0  0  0  0  0  0
   43.1880   34.7630   36.9140 H   0  0  0  0  0  0  0  0  0  0  0  0
   37.4430   31.6500   38.7610 O   0  0  0  0  0  0  0  0  0  0  0  0
   37.1200   30.7440   39.7840 C   0  0  0  0  0  0  0  0  0  0  0  0
   35.9190   30.0590   39.6040 C   0  0  0  0  0  0  0  0  0  0  0  0
   35.2990   30.2360   38.7240 H   0  0  0  0  0  0  0  0  0  0  0  0
   35.5510   29.1560   40.5750 C   0  0  0  0  0  3  0  0  0  0  0  0
   36.3750   28.9660   41.6770 C   0  0  0  0  0  0  0  0  0  0  0  0
   36.0960   28.2600   42.4460 H   0  0  0  0  0  0  0  0  0  0  0  0
   37.5540   29.6660   41.8110 C   0  0  0  0  0  0  0  0  0  0  0  0
   38.2260   29.5390   42.6700 H   0  0  0  0  0  0  0  0  0  0  0  0
   37.9520   30.5680   40.8720 C   0  0  0  0  0  3  0  0  0  0  0  0
  2  1  2  6  0  0  0
  2  5  1  0  0  0  0
  2 16  1  0  0  0  0
  3  4  1  0  0  0  0
  3  2  1  0  0  0  0
  6  7  2  0  0  0  0
  6 11  1  0  0  0  0
  7  8  1  0  0  0  0
  8 13  1  0  0  0  0
  8  9  2  0  0  0  0
 10  9  1  0  0  0  0
 10  5  1  0  0  0  0
 11 10  2  0  0  0  0
 12  7  1  0  0  0  0
 14 15  1  0  0  0  0
 14  6  1  0  0  0  0
 16 17  1  0  0  0  0
 17 25  1  0  0  0  0
 18 17  2  0  0  0  0
 18 20  1  0  0  0  0
 19 18  1  0  0  0  0
 20 21  2  0  0  0  0
 21 23  1  0  0  0  0
 21 22  1  0  0  0  0
 23 24  1  0  0  0  0
 25 23  2  0  0  0  0
M  END
>  <minimizedAffinity>
-4.75552368

$$$$
