REMARK  Name = 
REMARK  4 active torsions:
REMARK  status: ('A' for Active; 'I' for Inactive)
REMARK    1  A    between atoms: C_2  and  N_11
REMARK    2  A    between atoms: C_3  and  C_7
REMARK    3  A    between atoms: C_9  and  C_10
REMARK    4  A    between atoms: C_10  and  C_22
REMARK                            x       y       z     vdW  Elec       q    Type
REMARK                         _______ _______ _______ _____ _____    ______ ____
ROOT
ATOM      1  C   UNL     1      46.574  35.066  41.929  0.00  0.00    +0.000 C 
ATOM      2  C   UNL     1      48.113  35.292  41.936  0.00  0.00    +0.000 C 
ATOM      3  C   UNL     1      47.356  34.080  41.309  0.00  0.00    +0.000 C 
ATOM      4  H   UNL     1      46.019  35.846  41.369  0.00  0.00    +0.000 HD
ATOM      5  H   UNL     1      48.669  35.115  42.859  0.00  0.00    +0.000 HD
ATOM      6  H   UNL     1      48.458  36.055  41.224  0.00  0.00    +0.000 HD
ATOM      7  H   UNL     1      47.632  33.111  41.828  0.00  0.00    +0.000 HD
ENDROOT
BRANCH   1  10
ATOM      8  C   UNL     1      44.676  35.375  45.152  0.00  0.00    +0.000 A 
ATOM      9  C   UNL     1      45.129  35.702  43.829  0.00  0.00    +0.000 A 
ATOM     10  C   UNL     1      46.070  34.860  43.337  0.00  0.00    +0.000 A 
ATOM     11  N   UNL     1      46.550  33.783  44.050  0.00  0.00    +0.000 NA
ATOM     12  C   UNL     1      46.094  33.514  45.294  0.00  0.00    +0.000 A 
ATOM     13  N   UNL     1      45.150  34.317  45.847  0.00  0.00    +0.000 NA
ATOM     14  H   UNL     1      43.913  36.033  45.586  0.00  0.00    +0.000 HD
ATOM     15  H   UNL     1      46.417  32.703  45.903  0.00  0.00    +0.000 HD
BRANCH   9  16
ATOM     16  N   UNL     1      44.657  36.815  43.117  0.00  0.00    +0.000 N 
ATOM     17  H   UNL     1      44.873  37.660  43.725  0.00  0.00    +0.000 HD
ATOM     18  H   UNL     1      44.199  36.836  42.202  0.00  0.00    +0.000 HD
ENDBRANCH   9  16
ENDBRANCH   1  10
BRANCH   3  19
ATOM     19  C   UNL     1      47.389  33.904  39.810  0.00  0.00    +0.000 C 
ATOM     20  H   UNL     1      46.359  33.662  39.435  0.00  0.00    +0.000 HD
ATOM     21  H   UNL     1      47.679  34.869  39.362  0.00  0.00    +0.000 HD
BRANCH  19  22
ATOM     22  C   UNL     1      48.289  32.797  39.383  0.00  0.00    +0.000 A 
ATOM     23  C   UNL     1      47.854  31.487  39.567  0.00  0.00    +0.000 A 
ATOM     24  H   UNL     1      46.896  31.231  40.004  0.00  0.00    +0.000 HD
ATOM     25  C   UNL     1      48.716  30.489  39.159  0.00  0.00    +0.000 A 
ATOM     26  C   UNL     1      49.962  30.750  38.589  0.00  0.00    +0.000 A 
ATOM     27  H   UNL     1      50.638  29.966  38.269  0.00  0.00    +0.000 HD
ATOM     28  C   UNL     1      50.332  32.059  38.435  0.00  0.00    +0.000 A 
ATOM     29  H   UNL     1      51.297  32.275  37.994  0.00  0.00    +0.000 HD
ATOM     30  C   UNL     1      49.500  33.080  38.830  0.00  0.00    +0.000 A 
ENDBRANCH  19  22
ENDBRANCH   3  19
TORSDOF 4
