
 OpenBabel03252509273D

 30 32  0  0  1  0  0  0  0  0999 V2000
   46.5210   35.0230   42.0080 C   0  0  1  0  0  0  0  0  0  0  0  0
   48.0410   35.3460   41.9400 C   0  0  0  0  0  0  0  0  0  0  0  0
   47.3230   34.1200   41.2930 C   0  0  2  0  0  0  0  0  0  0  0  0
   45.8870   35.7930   41.5220 H   0  0  0  0  0  0  0  0  0  0  0  0
   48.6610   35.1590   42.8190 H   0  0  0  0  0  0  0  0  0  0  0  0
   48.2960   36.1630   41.2500 H   0  0  0  0  0  0  0  0  0  0  0  0
   47.6870   33.1470   41.7440 H   0  0  0  0  0  0  0  0  0  0  0  0
   44.7970   35.0450   45.3420 C   0  0  0  0  0  0  0  0  0  0  0  0
   45.1480   35.4650   44.0140 C   0  0  0  0  0  0  0  0  0  0  0  0
   46.1150   34.7170   43.4290 C   0  0  0  0  0  0  0  0  0  0  0  0
   46.7100   33.6460   44.0600 N   0  0  0  0  0  0  0  0  0  0  0  0
   46.3470   33.2870   45.3120 C   0  0  0  0  0  0  0  0  0  0  0  0
   45.3830   33.9940   45.9560 N   0  0  0  0  0  0  0  0  0  0  0  0
   44.0170   35.6260   45.8490 H   0  0  0  0  0  0  0  0  0  0  0  0
   46.7610   32.4750   45.8610 H   0  0  0  0  0  0  0  0  0  0  0  0
   44.5590   36.5720   43.3850 N   0  0  0  0  0  0  0  0  0  0  0  0
   44.7510   37.4020   44.0220 H   0  0  0  0  0  0  0  0  0  0  0  0
   44.0480   36.6020   42.4990 H   0  0  0  0  0  0  0  0  0  0  0  0
   47.2760   34.0210   39.7880 C   0  0  0  0  0  0  0  0  0  0  0  0
   46.3050   33.5570   39.4690 H   0  0  0  0  0  0  0  0  0  0  0  0
   47.2970   35.0450   39.3800 H   0  0  0  0  0  0  0  0  0  0  0  0
   48.3730   33.1780   39.2360 C   0  0  0  0  0  0  0  0  0  0  0  0
   48.6190   33.2310   37.8660 C   0  0  0  0  0  0  0  0  0  0  0  0
   48.0560   33.8540   37.1810 H   0  0  0  0  0  0  0  0  0  0  0  0
   49.6440   32.4360   37.3940 C   0  0  0  0  0  3  0  0  0  0  0  0
   50.4070   31.6120   38.2210 C   0  0  0  0  0  0  0  0  0  0  0  0
   51.2100   30.9870   37.8490 H   0  0  0  0  0  0  0  0  0  0  0  0
   50.1150   31.6030   39.5580 C   0  0  0  0  0  0  0  0  0  0  0  0
   50.7000   30.9680   40.2110 H   0  0  0  0  0  0  0  0  0  0  0  0
   49.1020   32.3830   40.0660 C   0  0  0  0  0  3  0  0  0  0  0  0
  1  4  1  6  0  0  0
  1 10  1  0  0  0  0
  2  1  1  0  0  0  0
  2  5  1  0  0  0  0
  3  7  1  1  0  0  0
  3  2  1  0  0  0  0
  3  1  1  0  0  0  0
  6  2  1  0  0  0  0
  8 14  1  0  0  0  0
  8 13  1  0  0  0  0
  9  8  2  0  0  0  0
 10  9  1  0  0  0  0
 10 11  2  0  0  0  0
 11 12  1  0  0  0  0
 12 15  1  0  0  0  0
 12 13  2  0  0  0  0
 16  9  1  0  0  0  0
 16 17  1  0  0  0  0
 18 16  1  0  0  0  0
 19  3  1  0  0  0  0
 20 19  1  0  0  0  0
 21 19  1  0  0  0  0
 22 19  1  0  0  0  0
 22 30  1  0  0  0  0
 23 22  2  0  0  0  0
 24 23  1  0  0  0  0
 25 23  1  0  0  0  0
 25 26  2  0  0  0  0
 26 28  1  0  0  0  0
 27 26  1  0  0  0  0
 28 30  2  0  0  0  0
 28 29  1  0  0  0  0
M  END
>  <minimizedAffinity>
-4.89353132

>  <minimizedRMSD>
0.553682983

$$$$
