
 OpenBabel03242517363D

 23 24  0  0  0  0  0  0  0  0999 V2000
   35.4370   28.9940   40.6030 C   0  0  0  0  0  0  0  0  0  0  0  0
   34.9950   29.3010   41.5850 H   0  0  0  0  0  0  0  0  0  0  0  0
   34.6030   28.6260   39.9880 H   0  0  0  0  0  0  0  0  0  0  0  0
   36.1530   30.1370   39.9700 C   0  0  0  0  0  0  0  0  0  0  0  0
   36.5360   31.2040   40.7820 C   0  0  0  0  0  0  0  0  0  0  0  0
   36.3170   31.2040   41.8550 H   0  0  0  0  0  0  0  0  0  0  0  0
   37.2050   32.2730   40.1970 C   0  0  0  0  0  3  0  0  0  0  0  0
   37.5020   32.3110   38.8350 C   0  0  0  0  0  0  0  0  0  0  0  0
   38.0240   33.1520   38.3910 H   0  0  0  0  0  0  0  0  0  0  0  0
   37.1150   31.2420   38.0400 C   0  0  0  0  0  0  0  0  0  0  0  0
   37.3210   31.2170   36.9690 H   0  0  0  0  0  0  0  0  0  0  0  0
   36.4490   30.1740   38.6100 C   0  0  0  0  0  3  0  0  0  0  0  0
   36.8890   27.6600   42.1000 C   0  0  0  0  0  3  0  0  0  0  0  0
   36.3790   27.8800   40.9130 C   0  0  0  0  0  3  0  0  0  0  0  0
   37.6870   25.2970   41.9920 C   0  0  0  0  0  0  0  0  0  0  0  0
   37.8060   26.6000   42.4640 C   0  0  0  0  0  0  0  0  0  0  0  0
   38.8530   26.8860   43.3240 C   0  0  0  0  0  0  0  0  0  0  0  0
   39.7270   25.8930   43.6790 N   0  0  0  0  0  0  0  0  0  0  0  0
   39.5790   24.6300   43.1950 C   0  0  0  0  0  0  0  0  0  0  0  0
   38.5650   24.3470   42.3610 N   0  0  0  0  0  0  0  0  0  0  0  0
   36.8750   25.0520   41.3170 H   0  0  0  0  0  0  0  0  0  0  0  0
   39.0130   27.8730   43.7340 H   0  0  0  0  0  0  0  0  0  0  0  0
   40.3440   23.9620   43.5650 H   0  0  0  0  0  0  0  0  0  0  0  0
  1 14  1  0  0  0  0
  1  2  1  0  0  0  0
  3  1  1  0  0  0  0
  4  1  1  0  0  0  0
  4  5  1  0  0  0  0
  5  6  1  0  0  0  0
  7  5  2  0  0  0  0
  8  7  1  0  0  0  0
  9  8  1  0  0  0  0
 10 12  1  0  0  0  0
 10  8  2  0  0  0  0
 11 10  1  0  0  0  0
 12  4  2  0  0  0  0
 13 16  1  0  0  0  0
 14 13  2  0  0  0  0
 15 20  2  0  0  0  0
 15 16  1  0  0  0  0
 16 17  2  0  0  0  0
 17 18  1  0  0  0  0
 17 22  1  0  0  0  0
 19 23  1  0  0  0  0
 19 18  2  0  0  0  0
 20 19  1  0  0  0  0
 21 15  1  0  0  0  0
M  END
>  <minimizedAffinity>
-4.88851118

$$$$

 OpenBabel03242517363D

 23 24  0  0  0  0  0  0  0  0999 V2000
   35.3950   28.9870   40.6300 C   0  0  0  0  0  0  0  0  0  0  0  0
   34.9480   29.2900   41.6110 H   0  0  0  0  0  0  0  0  0  0  0  0
   34.5630   28.6310   40.0060 H   0  0  0  0  0  0  0  0  0  0  0  0
   36.1260   30.1300   40.0130 C   0  0  0  0  0  0  0  0  0  0  0  0
   36.3780   30.0860   38.6430 C   0  0  0  0  0  0  0  0  0  0  0  0
   36.0490   29.2360   38.0350 H   0  0  0  0  0  0  0  0  0  0  0  0
   37.0580   31.1500   38.0610 C   0  0  0  0  0  3  0  0  0  0  0  0
   37.4930   32.2490   38.8010 C   0  0  0  0  0  0  0  0  0  0  0  0
   38.0240   33.0730   38.3340 H   0  0  0  0  0  0  0  0  0  0  0  0
   37.2340   32.2790   40.1630 C   0  0  0  0  0  0  0  0  0  0  0  0
   37.5500   33.1140   40.7900 H   0  0  0  0  0  0  0  0  0  0  0  0
   36.5590   31.2280   40.7520 C   0  0  0  0  0  3  0  0  0  0  0  0
   36.9250   27.7030   42.0930 C   0  0  0  0  0  3  0  0  0  0  0  0
   36.3250   27.8630   40.9390 C   0  0  0  0  0  3  0  0  0  0  0  0
   37.7100   25.3360   41.9770 C   0  0  0  0  0  0  0  0  0  0  0  0
   37.8360   26.6370   42.4540 C   0  0  0  0  0  0  0  0  0  0  0  0
   38.8850   26.9140   43.3140 C   0  0  0  0  0  0  0  0  0  0  0  0
   39.7540   25.9160   43.6660 N   0  0  0  0  0  0  0  0  0  0  0  0
   39.5990   24.6560   43.1780 C   0  0  0  0  0  0  0  0  0  0  0  0
   38.5830   24.3800   42.3430 N   0  0  0  0  0  0  0  0  0  0  0  0
   36.8970   25.0980   41.3020 H   0  0  0  0  0  0  0  0  0  0  0  0
   39.0500   27.8990   43.7270 H   0  0  0  0  0  0  0  0  0  0  0  0
   40.3600   23.9810   43.5460 H   0  0  0  0  0  0  0  0  0  0  0  0
  1 14  1  0  0  0  0
  1  2  1  0  0  0  0
  3  1  1  0  0  0  0
  4  1  1  0  0  0  0
  4 12  1  0  0  0  0
  5  4  2  0  0  0  0
  6  5  1  0  0  0  0
  7  5  1  0  0  0  0
  7  8  2  0  0  0  0
  8 10  1  0  0  0  0
  9  8  1  0  0  0  0
 10 12  2  0  0  0  0
 10 11  1  0  0  0  0
 13 16  1  0  0  0  0
 14 13  2  0  0  0  0
 15 20  2  0  0  0  0
 15 16  1  0  0  0  0
 16 17  2  0  0  0  0
 17 18  1  0  0  0  0
 17 22  1  0  0  0  0
 19 23  1  0  0  0  0
 19 18  2  0  0  0  0
 20 19  1  0  0  0  0
 21 15  1  0  0  0  0
M  END
>  <minimizedAffinity>
-4.87721968

$$$$

 OpenBabel03242517363D

 23 24  0  0  0  0  0  0  0  0999 V2000
   36.7710   27.7840   42.9290 C   0  0  0  0  0  0  0  0  0  0  0  0
   36.0000   27.5520   42.1520 H   0  0  0  0  0  0  0  0  0  0  0  0
   36.2340   27.8720   43.8840 H   0  0  0  0  0  0  0  0  0  0  0  0
   37.8210   26.7270   42.9580 C   0  0  0  0  0  0  0  0  0  0  0  0
   37.5880   25.5500   42.2480 C   0  0  0  0  0  0  0  0  0  0  0  0
   36.6600   25.4040   41.6840 H   0  0  0  0  0  0  0  0  0  0  0  0
   38.5640   24.5600   42.2710 C   0  0  0  0  0  3  0  0  0  0  0  0
   39.7580   24.7070   42.9760 C   0  0  0  0  0  0  0  0  0  0  0  0
   40.5110   23.9270   42.9860 H   0  0  0  0  0  0  0  0  0  0  0  0
   39.9750   25.8840   43.6780 C   0  0  0  0  0  0  0  0  0  0  0  0
   40.8900   26.0540   44.2460 H   0  0  0  0  0  0  0  0  0  0  0  0
   39.0120   26.8750   43.6620 C   0  0  0  0  0  3  0  0  0  0  0  0
   37.1500   29.6820   41.3840 C   0  0  0  0  0  3  0  0  0  0  0  0
   37.3520   29.1030   42.5430 C   0  0  0  0  0  3  0  0  0  0  0  0
   38.9470   31.4120   41.3100 C   0  0  0  0  0  0  0  0  0  0  0  0
   37.6840   30.9550   40.9490 C   0  0  0  0  0  0  0  0  0  0  0  0
   36.9080   31.7660   40.1380 C   0  0  0  0  0  0  0  0  0  0  0  0
   37.3980   32.9740   39.7200 N   0  0  0  0  0  0  0  0  0  0  0  0
   38.6410   33.3860   40.0920 C   0  0  0  0  0  0  0  0  0  0  0  0
   39.3990   32.6050   40.8800 N   0  0  0  0  0  0  0  0  0  0  0  0
   39.5720   30.7930   41.9430 H   0  0  0  0  0  0  0  0  0  0  0  0
   35.9160   31.4820   39.8150 H   0  0  0  0  0  0  0  0  0  0  0  0
   38.8850   34.3580   39.6850 H   0  0  0  0  0  0  0  0  0  0  0  0
  1  4  1  0  0  0  0
  1  3  1  0  0  0  0
  2  1  1  0  0  0  0
  4 12  1  0  0  0  0
  5  7  1  0  0  0  0
  5  4  2  0  0  0  0
  6  5  1  0  0  0  0
  7  8  2  0  0  0  0
  8  9  1  0  0  0  0
  8 10  1  0  0  0  0
 10 11  1  0  0  0  0
 12 10  2  0  0  0  0
 13 14  2  0  0  0  0
 14  1  1  0  0  0  0
 15 21  1  0  0  0  0
 16 15  1  0  0  0  0
 16 13  1  0  0  0  0
 17 16  2  0  0  0  0
 18 19  2  0  0  0  0
 18 17  1  0  0  0  0
 19 20  1  0  0  0  0
 20 15  2  0  0  0  0
 22 17  1  0  0  0  0
 23 19  1  0  0  0  0
M  END
>  <minimizedAffinity>
-4.79800653

$$$$

 OpenBabel03242517363D

 23 24  0  0  0  0  0  0  0  0999 V2000
   36.5540   27.5670   42.9740 C   0  0  0  0  0  0  0  0  0  0  0  0
   35.5900   26.9990   42.9360 H   0  0  0  0  0  0  0  0  0  0  0  0
   36.5070   28.2010   43.8700 H   0  0  0  0  0  0  0  0  0  0  0  0
   37.7120   26.6300   42.9960 C   0  0  0  0  0  0  0  0  0  0  0  0
   37.5910   25.4180   42.3180 C   0  0  0  0  0  0  0  0  0  0  0  0
   36.6710   25.1590   41.7830 H   0  0  0  0  0  0  0  0  0  0  0  0
   38.6700   24.5400   42.3350 C   0  0  0  0  0  3  0  0  0  0  0  0
   39.8580   24.8330   43.0040 C   0  0  0  0  0  0  0  0  0  0  0  0
   40.6910   24.1390   43.0090 H   0  0  0  0  0  0  0  0  0  0  0  0
   39.9640   26.0430   43.6730 C   0  0  0  0  0  0  0  0  0  0  0  0
   40.8690   26.3250   44.2120 H   0  0  0  0  0  0  0  0  0  0  0  0
   38.8990   26.9230   43.6640 C   0  0  0  0  0  3  0  0  0  0  0  0
   37.3150   29.4850   41.6050 C   0  0  0  0  0  3  0  0  0  0  0  0
   36.5740   28.4120   41.7450 C   0  0  0  0  0  3  0  0  0  0  0  0
   37.7930   29.9010   39.1910 C   0  0  0  0  0  0  0  0  0  0  0  0
   37.3800   30.3450   40.4430 C   0  0  0  0  0  0  0  0  0  0  0  0
   37.0190   31.6750   40.5720 C   0  0  0  0  0  0  0  0  0  0  0  0
   37.0760   32.5020   39.4820 N   0  0  0  0  0  0  0  0  0  0  0  0
   37.4840   32.0300   38.2730 C   0  0  0  0  0  0  0  0  0  0  0  0
   37.8370   30.7400   38.1400 N   0  0  0  0  0  0  0  0  0  0  0  0
   38.0800   28.8630   39.0670 H   0  0  0  0  0  0  0  0  0  0  0  0
   36.6880   32.0970   41.5110 H   0  0  0  0  0  0  0  0  0  0  0  0
   37.4770   32.8000   37.5130 H   0  0  0  0  0  0  0  0  0  0  0  0
  1  4  1  0  0  0  0
  1  3  1  0  0  0  0
  2  1  1  0  0  0  0
  4 12  1  0  0  0  0
  5  7  1  0  0  0  0
  5  4  2  0  0  0  0
  6  5  1  0  0  0  0
  7  8  2  0  0  0  0
  8  9  1  0  0  0  0
  8 10  1  0  0  0  0
 10 11  1  0  0  0  0
 12 10  2  0  0  0  0
 13 14  2  0  0  0  0
 14  1  1  0  0  0  0
 15 16  1  0  0  0  0
 16 17  2  0  0  0  0
 16 13  1  0  0  0  0
 17 22  1  0  0  0  0
 18 17  1  0  0  0  0
 19 18  2  0  0  0  0
 20 19  1  0  0  0  0
 20 15  2  0  0  0  0
 21 15  1  0  0  0  0
 23 19  1  0  0  0  0
M  END
>  <minimizedAffinity>
-4.66804218

$$$$

 OpenBabel03242517363D

 23 24  0  0  0  0  0  0  0  0999 V2000
   36.6930   27.1860   43.2620 C   0  0  0  0  0  0  0  0  0  0  0  0
   35.6490   27.1790   42.8580 H   0  0  0  0  0  0  0  0  0  0  0  0
   36.6050   27.1050   44.3550 H   0  0  0  0  0  0  0  0  0  0  0  0
   37.4920   26.0770   42.6680 C   0  0  0  0  0  0  0  0  0  0  0  0
   36.8070   25.0130   42.0840 C   0  0  0  0  0  0  0  0  0  0  0  0
   35.7120   24.9900   42.0620 H   0  0  0  0  0  0  0  0  0  0  0  0
   37.5470   23.9760   41.5270 C   0  0  0  0  0  3  0  0  0  0  0  0
   38.9410   23.9680   41.5360 C   0  0  0  0  0  0  0  0  0  0  0  0
   39.5070   23.1520   41.0980 H   0  0  0  0  0  0  0  0  0  0  0  0
   39.6090   25.0340   42.1200 C   0  0  0  0  0  0  0  0  0  0  0  0
   40.6980   25.0820   42.1550 H   0  0  0  0  0  0  0  0  0  0  0  0
   38.8840   26.0710   42.6770 C   0  0  0  0  0  3  0  0  0  0  0  0
   37.0110   29.1290   41.7600 C   0  0  0  0  0  3  0  0  0  0  0  0
   37.2630   28.5140   42.8900 C   0  0  0  0  0  3  0  0  0  0  0  0
   36.7810   31.3370   40.6190 C   0  0  0  0  0  0  0  0  0  0  0  0
   37.5310   30.4130   41.3400 C   0  0  0  0  0  0  0  0  0  0  0  0
   38.8350   30.7460   41.6630 C   0  0  0  0  0  0  0  0  0  0  0  0
   39.3420   31.9570   41.2710 N   0  0  0  0  0  0  0  0  0  0  0  0
   38.5760   32.8360   40.5690 C   0  0  0  0  0  0  0  0  0  0  0  0
   37.3100   32.5180   40.2510 N   0  0  0  0  0  0  0  0  0  0  0  0
   35.7580   31.0960   40.3560 H   0  0  0  0  0  0  0  0  0  0  0  0
   39.4820   30.0830   42.2200 H   0  0  0  0  0  0  0  0  0  0  0  0
   39.1140   33.7440   40.3330 H   0  0  0  0  0  0  0  0  0  0  0  0
  1  3  1  0  0  0  0
  2  1  1  0  0  0  0
  4 12  1  0  0  0  0
  4  1  1  0  0  0  0
  5  4  2  0  0  0  0
  6  5  1  0  0  0  0
  7  8  2  0  0  0  0
  7  5  1  0  0  0  0
  8 10  1  0  0  0  0
  9  8  1  0  0  0  0
 10 11  1  0  0  0  0
 10 12  2  0  0  0  0
 13 14  2  0  0  0  0
 14  1  1  0  0  0  0
 15 16  1  0  0  0  0
 16 17  2  0  0  0  0
 16 13  1  0  0  0  0
 17 22  1  0  0  0  0
 18 17  1  0  0  0  0
 19 18  2  0  0  0  0
 20 19  1  0  0  0  0
 20 15  2  0  0  0  0
 21 15  1  0  0  0  0
 23 19  1  0  0  0  0
M  END
>  <minimizedAffinity>
-4.64464283

$$$$

 OpenBabel03242517363D

 23 24  0  0  0  0  0  0  0  0999 V2000
   35.3290   29.2720   40.6100 C   0  0  0  0  0  0  0  0  0  0  0  0
   34.8100   29.0460   39.6440 H   0  0  0  0  0  0  0  0  0  0  0  0
   34.5390   29.4710   41.3480 H   0  0  0  0  0  0  0  0  0  0  0  0
   36.2140   28.1410   41.0070 C   0  0  0  0  0  0  0  0  0  0  0  0
   36.4170   27.9120   42.3670 C   0  0  0  0  0  0  0  0  0  0  0  0
   35.9420   28.5450   43.1240 H   0  0  0  0  0  0  0  0  0  0  0  0
   37.2410   26.8570   42.7440 C   0  0  0  0  0  3  0  0  0  0  0  0
   37.8640   26.0290   41.8110 C   0  0  0  0  0  0  0  0  0  0  0  0
   38.5050   25.2090   42.1180 H   0  0  0  0  0  0  0  0  0  0  0  0
   37.6510   26.2690   40.4610 C   0  0  0  0  0  0  0  0  0  0  0  0
   38.1120   25.6530   39.6880 H   0  0  0  0  0  0  0  0  0  0  0  0
   36.8350   27.3140   40.0750 C   0  0  0  0  0  3  0  0  0  0  0  0
   37.3230   30.7220   40.8490 C   0  0  0  0  0  3  0  0  0  0  0  0
   36.1240   30.5100   40.3610 C   0  0  0  0  0  3  0  0  0  0  0  0
   39.4930   31.9480   40.9810 C   0  0  0  0  0  0  0  0  0  0  0  0
   38.1430   31.8970   40.6470 C   0  0  0  0  0  0  0  0  0  0  0  0
   37.5680   33.0300   40.0970 C   0  0  0  0  0  0  0  0  0  0  0  0
   38.3310   34.1500   39.9010 N   0  0  0  0  0  0  0  0  0  0  0  0
   39.6490   34.1610   40.2400 C   0  0  0  0  0  0  0  0  0  0  0  0
   40.2130   33.0650   40.7740 N   0  0  0  0  0  0  0  0  0  0  0  0
   39.9630   31.0720   41.4120 H   0  0  0  0  0  0  0  0  0  0  0  0
   36.5260   33.0700   39.8120 H   0  0  0  0  0  0  0  0  0  0  0  0
   40.1150   35.1130   40.0260 H   0  0  0  0  0  0  0  0  0  0  0  0
  1  4  1  0  0  0  0
  1  3  1  0  0  0  0
  2  1  1  0  0  0  0
  4  5  1  0  0  0  0
  5  7  2  0  0  0  0
  5  6  1  0  0  0  0
  8  9  1  0  0  0  0
  8  7  1  0  0  0  0
 10  8  2  0  0  0  0
 11 10  1  0  0  0  0
 12 10  1  0  0  0  0
 12  4  2  0  0  0  0
 14  1  1  0  0  0  0
 14 13  2  0  0  0  0
 15 21  1  0  0  0  0
 16 13  1  0  0  0  0
 16 15  2  0  0  0  0
 17 16  1  0  0  0  0
 18 17  2  0  0  0  0
 18 19  1  0  0  0  0
 19 20  2  0  0  0  0
 20 15  1  0  0  0  0
 22 17  1  0  0  0  0
 23 19  1  0  0  0  0
M  END
>  <minimizedAffinity>
-4.47745848

$$$$

 OpenBabel03242517363D

 23 24  0  0  0  0  0  0  0  0999 V2000
   36.4730   28.0110   39.2490 C   0  0  0  0  0  0  0  0  0  0  0  0
   36.8480   27.7140   38.2380 H   0  0  0  0  0  0  0  0  0  0  0  0
   35.4140   28.2790   39.1220 H   0  0  0  0  0  0  0  0  0  0  0  0
   36.6690   26.9040   40.2270 C   0  0  0  0  0  0  0  0  0  0  0  0
   36.9150   27.2390   41.5580 C   0  0  0  0  0  0  0  0  0  0  0  0
   36.9630   28.2850   41.8780 H   0  0  0  0  0  0  0  0  0  0  0  0
   37.0980   26.2090   42.4750 C   0  0  0  0  0  3  0  0  0  0  0  0
   37.0440   24.8660   42.1070 C   0  0  0  0  0  0  0  0  0  0  0  0
   37.1900   24.0730   42.8330 H   0  0  0  0  0  0  0  0  0  0  0  0
   36.7980   24.5490   40.7800 C   0  0  0  0  0  0  0  0  0  0  0  0
   36.7450   23.5150   40.4350 H   0  0  0  0  0  0  0  0  0  0  0  0
   36.6150   25.5630   39.8590 C   0  0  0  0  0  3  0  0  0  0  0  0
   36.7980   30.4390   39.6130 C   0  0  0  0  0  3  0  0  0  0  0  0
   37.2650   29.2140   39.6380 C   0  0  0  0  0  3  0  0  0  0  0  0
   38.5990   31.6500   40.8460 C   0  0  0  0  0  0  0  0  0  0  0  0
   37.5130   31.6440   39.9760 C   0  0  0  0  0  0  0  0  0  0  0  0
   37.1050   32.8530   39.4400 C   0  0  0  0  0  0  0  0  0  0  0  0
   37.7710   34.0020   39.7750 N   0  0  0  0  0  0  0  0  0  0  0  0
   38.8300   33.9680   40.6290 C   0  0  0  0  0  0  0  0  0  0  0  0
   39.2310   32.7980   41.1530 N   0  0  0  0  0  0  0  0  0  0  0  0
   38.9360   30.7150   41.2770 H   0  0  0  0  0  0  0  0  0  0  0  0
   36.2710   32.9320   38.7570 H   0  0  0  0  0  0  0  0  0  0  0  0
   39.2490   34.9510   40.7950 H   0  0  0  0  0  0  0  0  0  0  0  0
  1 14  1  0  0  0  0
  1  4  1  0  0  0  0
  2  1  1  0  0  0  0
  3  1  1  0  0  0  0
  4  5  1  0  0  0  0
  5  6  1  0  0  0  0
  5  7  2  0  0  0  0
  8  7  1  0  0  0  0
  8  9  1  0  0  0  0
 10  8  2  0  0  0  0
 11 10  1  0  0  0  0
 12  4  2  0  0  0  0
 12 10  1  0  0  0  0
 13 14  2  0  0  0  0
 13 16  1  0  0  0  0
 15 20  1  0  0  0  0
 15 21  1  0  0  0  0
 16 15  2  0  0  0  0
 17 18  2  0  0  0  0
 17 16  1  0  0  0  0
 18 19  1  0  0  0  0
 19 23  1  0  0  0  0
 19 20  2  0  0  0  0
 22 17  1  0  0  0  0
M  END
>  <minimizedAffinity>
-4.40639162

$$$$

 OpenBabel03242517363D

 23 24  0  0  0  0  0  0  0  0999 V2000
   32.3220   28.7930   36.6240 C   0  0  0  0  0  0  0  0  0  0  0  0
   31.7980   28.0830   37.3120 H   0  0  0  0  0  0  0  0  0  0  0  0
   32.4630   28.2590   35.6740 H   0  0  0  0  0  0  0  0  0  0  0  0
   31.5310   30.0470   36.4640 C   0  0  0  0  0  0  0  0  0  0  0  0
   30.7600   30.4790   37.5420 C   0  0  0  0  0  0  0  0  0  0  0  0
   30.7330   29.9140   38.4800 H   0  0  0  0  0  0  0  0  0  0  0  0
   30.0210   31.6480   37.3990 C   0  0  0  0  0  3  0  0  0  0  0  0
   30.0280   32.3940   36.2210 C   0  0  0  0  0  0  0  0  0  0  0  0
   29.4460   33.3050   36.1230 H   0  0  0  0  0  0  0  0  0  0  0  0
   30.8010   31.9520   35.1580 C   0  0  0  0  0  0  0  0  0  0  0  0
   30.8460   32.4960   34.2140 H   0  0  0  0  0  0  0  0  0  0  0  0
   31.5400   30.7920   35.2880 C   0  0  0  0  0  3  0  0  0  0  0  0
   33.8900   28.9140   38.5360 C   0  0  0  0  0  3  0  0  0  0  0  0
   33.6430   29.0720   37.2590 C   0  0  0  0  0  3  0  0  0  0  0  0
   35.3100   29.0260   40.5860 C   0  0  0  0  0  0  0  0  0  0  0  0
   35.1450   29.1660   39.2120 C   0  0  0  0  0  0  0  0  0  0  0  0
   36.2390   29.5690   38.4650 C   0  0  0  0  0  0  0  0  0  0  0  0
   37.4330   29.8130   39.0900 N   0  0  0  0  0  0  0  0  0  0  0  0
   37.5560   29.6640   40.4370 C   0  0  0  0  0  0  0  0  0  0  0  0
   36.4980   29.2740   41.1670 N   0  0  0  0  0  0  0  0  0  0  0  0
   34.4670   28.7120   41.1890 H   0  0  0  0  0  0  0  0  0  0  0  0
   36.1920   29.7010   37.3930 H   0  0  0  0  0  0  0  0  0  0  0  0
   38.5550   29.8930   40.7810 H   0  0  0  0  0  0  0  0  0  0  0  0
  1 14  1  0  0  0  0
  1  2  1  0  0  0  0
  3  1  1  0  0  0  0
  4  1  1  0  0  0  0
  4  5  1  0  0  0  0
  5  6  1  0  0  0  0
  7  5  2  0  0  0  0
  8  7  1  0  0  0  0
  9  8  1  0  0  0  0
 10 12  1  0  0  0  0
 10  8  2  0  0  0  0
 11 10  1  0  0  0  0
 12  4  2  0  0  0  0
 13 16  1  0  0  0  0
 14 13  2  0  0  0  0
 15 20  1  0  0  0  0
 15 21  1  0  0  0  0
 16 15  2  0  0  0  0
 17 18  2  0  0  0  0
 17 16  1  0  0  0  0
 18 19  1  0  0  0  0
 19 23  1  0  0  0  0
 19 20  2  0  0  0  0
 22 17  1  0  0  0  0
M  END
>  <minimizedAffinity>
-4.39528322

$$$$

 OpenBabel03242517363D

 23 24  0  0  0  0  0  0  0  0999 V2000
   39.4700   30.6160   42.3810 C   0  0  0  0  0  0  0  0  0  0  0  0
   40.5770   30.7600   42.3020 H   0  0  0  0  0  0  0  0  0  0  0  0
   39.1990   30.8440   43.4210 H   0  0  0  0  0  0  0  0  0  0  0  0
   38.7580   31.4840   41.4010 C   0  0  0  0  0  0  0  0  0  0  0  0
   37.6430   30.9620   40.7480 C   0  0  0  0  0  0  0  0  0  0  0  0
   37.2980   29.9410   40.9470 H   0  0  0  0  0  0  0  0  0  0  0  0
   36.9740   31.7680   39.8330 C   0  0  0  0  0  3  0  0  0  0  0  0
   37.3820   33.0710   39.5510 C   0  0  0  0  0  0  0  0  0  0  0  0
   36.8520   33.6890   38.8350 H   0  0  0  0  0  0  0  0  0  0  0  0
   38.4930   33.5780   40.2090 C   0  0  0  0  0  0  0  0  0  0  0  0
   38.8570   34.5900   40.0290 H   0  0  0  0  0  0  0  0  0  0  0  0
   39.1650   32.7860   41.1210 C   0  0  0  0  0  3  0  0  0  0  0  0
   38.7040   28.3300   42.9480 C   0  0  0  0  0  3  0  0  0  0  0  0
   39.2270   29.1730   42.0900 C   0  0  0  0  0  3  0  0  0  0  0  0
   37.1960   26.4290   42.3660 C   0  0  0  0  0  0  0  0  0  0  0  0
   38.4440   26.9230   42.7280 C   0  0  0  0  0  0  0  0  0  0  0  0
   39.4800   26.0180   42.8860 C   0  0  0  0  0  0  0  0  0  0  0  0
   39.2490   24.6830   42.6840 N   0  0  0  0  0  0  0  0  0  0  0  0
   38.0140   24.2380   42.3280 C   0  0  0  0  0  0  0  0  0  0  0  0
   37.0040   25.1110   42.1740 N   0  0  0  0  0  0  0  0  0  0  0  0
   36.3710   27.1200   42.2370 H   0  0  0  0  0  0  0  0  0  0  0  0
   40.4780   26.3230   43.1660 H   0  0  0  0  0  0  0  0  0  0  0  0
   37.9890   23.1630   42.2060 H   0  0  0  0  0  0  0  0  0  0  0  0
  1  3  1  0  0  0  0
  2  1  1  0  0  0  0
  4  1  1  0  0  0  0
  5  6  1  0  0  0  0
  5  4  2  0  0  0  0
  7  5  1  0  0  0  0
  8  7  2  0  0  0  0
  8 10  1  0  0  0  0
  9  8  1  0  0  0  0
 10 12  2  0  0  0  0
 11 10  1  0  0  0  0
 12  4  1  0  0  0  0
 14  1  1  0  0  0  0
 14 13  2  0  0  0  0
 15 16  1  0  0  0  0
 16 17  2  0  0  0  0
 16 13  1  0  0  0  0
 17 22  1  0  0  0  0
 18 17  1  0  0  0  0
 19 18  2  0  0  0  0
 20 19  1  0  0  0  0
 20 15  2  0  0  0  0
 21 15  1  0  0  0  0
 23 19  1  0  0  0  0
M  END
>  <minimizedAffinity>
-4.28837252

$$$$
