
 OpenBabel03252502503D

 34 36  0  0  0  0  0  0  0  0999 V2000
   44.6070   36.2360   43.9730 C   0  0  0  0  0  0  0  0  0  0  0  0
   44.7900   35.4400   45.1000 C   0  0  0  0  0  0  0  0  0  0  0  0
   45.4960   34.2500   44.9460 C   0  0  0  0  0  0  0  0  0  0  0  0
   45.9630   33.9380   43.7050 N   0  0  0  0  0  0  0  0  0  0  0  0
   45.7690   34.7340   42.6270 C   0  0  0  0  0  0  0  0  0  0  0  0
   45.0870   35.8910   42.7560 N   0  0  0  0  0  0  0  0  0  0  0  0
   44.0600   37.1530   44.1100 H   0  0  0  0  0  0  0  0  0  0  0  0
   44.3890   35.7550   46.0520 H   0  0  0  0  0  0  0  0  0  0  0  0
   48.5210   35.6950   42.0270 Cl  0  0  0  0  0  0  0  0  0  0  0  0
   47.5560   34.7150   40.9520 C   0  0  0  0  0  0  0  0  0  0  0  0
   46.3060   34.3260   41.3210 C   0  0  0  0  0  0  0  0  0  0  0  0
   45.4990   33.5370   40.4840 C   0  0  0  0  0  0  0  0  0  0  0  0
   46.0470   33.1820   39.2720 C   0  0  0  0  0  0  0  0  0  0  0  0
   47.2990   33.5710   38.9030 C   0  0  0  0  0  0  0  0  0  0  0  0
   48.0730   34.3390   39.7290 C   0  0  0  0  0  0  0  0  0  0  0  0
   44.5040   33.2630   40.8470 H   0  0  0  0  0  0  0  0  0  0  0  0
   45.4110   32.5750   38.6420 H   0  0  0  0  0  0  0  0  0  0  0  0
   47.7200   33.2830   37.9420 H   0  0  0  0  0  0  0  0  0  0  0  0
   49.0760   34.6640   39.4610 H   0  0  0  0  0  0  0  0  0  0  0  0
   45.7060   33.3830   46.1220 C   0  0  0  0  0  0  0  0  0  0  0  0
   44.7500   33.2830   46.6290 H   0  0  0  0  0  0  0  0  0  0  0  0
   46.4150   33.9260   46.7960 H   0  0  0  0  0  0  0  0  0  0  0  0
   46.3630   32.0650   45.7930 C   0  0  0  0  0  0  0  0  0  0  0  0
   45.5510   31.3330   45.5630 H   0  0  0  0  0  0  0  0  0  0  0  0
   46.9740   32.1530   44.8740 H   0  0  0  0  0  0  0  0  0  0  0  0
   47.1980   31.5390   46.8700 C   0  0  0  0  0  0  0  0  0  0  0  0
   47.6670   30.2270   46.7410 C   0  0  0  0  0  0  0  0  0  0  0  0
   47.4070   29.6350   45.8570 H   0  0  0  0  0  0  0  0  0  0  0  0
   48.4690   29.5960   47.6830 C   0  0  0  0  0  0  0  0  0  0  0  0
   48.8170   30.3030   48.8050 C   0  0  0  0  0  0  0  0  0  0  0  0
   49.4390   29.8310   49.5530 H   0  0  0  0  0  0  0  0  0  0  0  0
   48.3680   31.5860   48.9500 C   0  0  0  0  0  0  0  0  0  0  0  0
   48.6250   32.1670   49.8220 H   0  0  0  0  0  0  0  0  0  0  0  0
   47.5600   32.2190   47.9980 C   0  0  0  0  0  0  0  0  0  0  0  0
  1  7  1  0  0  0  0
  1  2  1  0  0  0  0
  2  8  1  0  0  0  0
  3  2  2  0  0  0  0
  3 20  1  0  0  0  0
  4  3  1  0  0  0  0
  5  6  1  0  0  0  0
  5  4  2  0  0  0  0
  6  1  2  0  0  0  0
 10 11  1  0  0  0  0
 10  9  1  0  0  0  0
 11  5  1  0  0  0  0
 12 16  1  0  0  0  0
 12 11  2  0  0  0  0
 13 12  1  0  0  0  0
 14 13  2  0  0  0  0
 14 15  1  0  0  0  0
 15 10  2  0  0  0  0
 17 13  1  0  0  0  0
 18 14  1  0  0  0  0
 19 15  1  0  0  0  0
 20 21  1  0  0  0  0
 20 22  1  0  0  0  0
 23 20  1  0  0  0  0
 23 26  1  0  0  0  0
 24 23  1  0  0  0  0
 25 23  1  0  0  0  0
 26 34  1  0  0  0  0
 27 26  2  0  0  0  0
 27 29  1  0  0  0  0
 28 27  1  0  0  0  0
 29 30  2  0  0  0  0
 30 32  1  0  0  0  0
 30 31  1  0  0  0  0
 32 33  1  0  0  0  0
 34 32  2  0  0  0  0
M  END
>  <minimizedAffinity>
-5.87639189

>  <minimizedRMSD>
0.705060959

$$$$
