
 OpenBabel03252500553D

 30 31  0  0  0  0  0  0  0  0999 V2000
   46.6790   34.3330   42.4510 C   0  0  0  0  0  0  0  0  0  0  0  0
   45.3720   34.6840   42.7990 C   0  0  0  0  0  0  0  0  0  0  0  0
   44.9600   34.4180   44.1200 C   0  0  0  0  0  0  0  0  0  0  0  0
   45.8610   33.8450   44.9540 N   0  0  0  0  0  0  0  0  0  0  0  0
   47.1040   33.5190   44.5920 C   0  0  0  0  0  0  0  0  0  0  0  0
   47.5080   33.7660   43.3380 N   0  0  0  0  0  0  0  0  0  0  0  0
   43.9650   34.7010   44.3380 H   0  0  0  0  0  0  0  0  0  0  0  0
   47.7090   33.0670   45.3640 H   0  0  0  0  0  0  0  0  0  0  0  0
   47.1760   34.5760   41.1070 C   0  0  0  0  0  0  0  0  0  0  0  0
   47.2220   33.6740   40.4450 H   0  0  0  0  0  0  0  0  0  0  0  0
   46.4700   35.2660   40.5590 H   0  0  0  0  0  0  0  0  0  0  0  0
   48.5000   35.2770   41.1720 C   0  0  0  0  0  0  0  0  0  0  0  0
   48.4140   36.0020   42.0310 H   0  0  0  0  0  0  0  0  0  0  0  0
   48.7350   35.8220   40.2360 H   0  0  0  0  0  0  0  0  0  0  0  0
   49.2710   34.5080   41.3710 H   0  0  0  0  0  0  0  0  0  0  0  0
   44.6000   35.2650   41.8010 O   0  0  0  0  0  0  0  0  0  0  0  0
   43.9850   33.8200   39.7120 O   0  0  0  0  0  0  0  0  0  0  0  0
   43.3750   34.4900   40.9290 P   0  0  1  0  0  0  0  0  0  0  0  0
   42.6800   33.2990   41.9060 O   0  0  0  0  0  0  0  0  0  0  0  0
   42.7540   33.5150   42.8690 H   0  0  0  0  0  0  0  0  0  0  0  0
   42.1320   35.5400   40.4450 O   0  0  0  0  0  0  0  0  0  0  0  0
   41.0230   35.1280   39.7250 C   0  0  0  0  0  0  0  0  0  0  0  0
   39.9110   34.7330   40.4410 C   0  0  0  0  0  0  0  0  0  0  0  0
   39.9140   34.7500   41.5330 H   0  0  0  0  0  0  0  0  0  0  0  0
   38.7780   34.3130   39.7760 C   0  0  0  0  0  0  0  0  0  0  0  0
   38.8390   34.3150   38.3880 C   0  0  0  0  0  0  0  0  0  0  0  0
   37.9580   33.9880   37.8520 H   0  0  0  0  0  0  0  0  0  0  0  0
   39.9390   34.7040   37.6380 C   0  0  0  0  0  0  0  0  0  0  0  0
   39.8860   34.6690   36.5570 H   0  0  0  0  0  0  0  0  0  0  0  0
   41.0700   35.1240   38.3270 C   0  0  0  0  0  0  0  0  0  0  0  0
  1  2  2  0  0  0  0
  1  6  1  0  0  0  0
  2  3  1  0  0  0  0
  3  7  1  0  0  0  0
  3  4  2  0  0  0  0
  5  4  1  0  0  0  0
  5  8  1  0  0  0  0
  6  5  2  0  0  0  0
  9 12  1  0  0  0  0
  9  1  1  0  0  0  0
 10  9  1  0  0  0  0
 11  9  1  0  0  0  0
 12 15  1  0  0  0  0
 12 13  1  0  0  0  0
 14 12  1  0  0  0  0
 16  2  1  0  0  0  0
 18 17  2  6  0  0  0
 18 16  1  0  0  0  0
 18 19  1  0  0  0  0
 19 20  1  0  0  0  0
 21 18  1  0  0  0  0
 22 23  1  0  0  0  0
 22 21  1  0  0  0  0
 23 24  1  0  0  0  0
 25 23  2  0  0  0  0
 26 25  1  0  0  0  0
 27 26  1  0  0  0  0
 28 30  1  0  0  0  0
 28 26  2  0  0  0  0
 29 28  1  0  0  0  0
 30 22  2  0  0  0  0
M  END
>  <minimizedAffinity>
-5.49364948

>  <minimizedRMSD>
3.00930691

$$$$
