
 OpenBabel03252504233D

 32 35  0  0  0  0  0  0  0  0999 V2000
   37.3510   31.1530   39.5610 C   0  0  0  0  0  0  0  0  0  0  0  0
   36.9360   30.6980   38.3220 C   0  0  0  0  0  0  0  0  0  0  0  0
   37.7330   31.0280   37.1860 C   0  0  0  0  0  0  0  0  0  0  0  0
   38.8490   31.7720   37.4280 N   0  0  0  0  0  0  0  0  0  0  0  0
   39.2130   32.1920   38.6590 C   0  0  0  0  0  0  0  0  0  0  0  0
   38.4620   31.8820   39.7310 N   0  0  0  0  0  0  0  0  0  0  0  0
   40.3980   32.9660   38.7840 N   0  0  0  0  0  0  0  0  0  0  0  0
   40.5380   34.0890   39.5270 C   0  0  0  0  0  0  0  0  0  0  0  0
   41.8190   34.5310   39.3850 N   0  0  0  0  0  0  0  0  0  0  0  0
   42.4260   33.6800   38.5700 C   0  0  0  0  0  0  0  0  0  0  0  0
   43.7080   33.5870   38.0530 C   0  0  0  0  0  0  0  0  0  0  0  0
   44.0870   32.6070   37.2280 N   0  0  0  0  0  0  0  0  0  0  0  0
   43.2340   31.6420   36.8500 C   0  0  0  0  0  0  0  0  0  0  0  0
   41.9880   31.7220   37.3460 N   0  0  0  0  0  0  0  0  0  0  0  0
   41.5590   32.6740   38.1700 C   0  0  0  0  0  0  0  0  0  0  0  0
   36.0490   30.1060   38.1300 H   0  0  0  0  0  0  0  0  0  0  0  0
   37.4440   30.6940   36.2110 H   0  0  0  0  0  0  0  0  0  0  0  0
   39.7530   34.5490   40.1280 H   0  0  0  0  0  0  0  0  0  0  0  0
   43.5480   30.8520   36.1820 H   0  0  0  0  0  0  0  0  0  0  0  0
   44.7090   34.5360   38.3670 N   0  0  0  0  0  0  0  0  0  0  0  0
   45.6660   34.3550   38.7470 H   0  0  0  0  0  0  0  0  0  0  0  0
   44.3420   35.4800   38.1570 H   0  0  0  0  0  0  0  0  0  0  0  0
   36.2710   30.6850   40.9410 S   0  0  0  0  0  0  0  0  0  0  0  0
   36.9550   29.3090   41.8490 C   0  0  0  0  0  0  0  0  0  0  0  0
   38.1920   29.5870   42.4200 C   0  0  0  0  0  0  0  0  0  0  0  0
   38.7290   30.5350   42.3460 H   0  0  0  0  0  0  0  0  0  0  0  0
   38.8310   28.5910   43.1560 C   0  0  0  0  0  3  0  0  0  0  0  0
   38.2930   27.3560   43.3400 C   0  0  0  0  0  0  0  0  0  0  0  0
   38.8020   26.5950   43.9140 H   0  0  0  0  0  0  0  0  0  0  0  0
   37.0710   27.1140   42.7640 C   0  0  0  0  0  0  0  0  0  0  0  0
   36.5730   26.1560   42.8630 H   0  0  0  0  0  0  0  0  0  0  0  0
   36.3930   28.0610   42.0250 C   0  0  0  0  0  3  0  0  0  0  0  0
  1  6  1  0  0  0  0
  1 23  1  0  0  0  0
  2  1  2  0  0  0  0
  3  4  2  0  0  0  0
  3  2  1  0  0  0  0
  4  5  1  0  0  0  0
  5  7  1  0  0  0  0
  5  6  2  0  0  0  0
  7  8  1  0  0  0  0
  8 18  1  0  0  0  0
  9  8  2  0  0  0  0
 10  9  1  0  0  0  0
 11 20  1  0  0  0  0
 11 10  2  0  0  0  0
 12 11  1  0  0  0  0
 13 12  2  0  0  0  0
 13 14  1  0  0  0  0
 14 15  2  0  0  0  0
 15 10  1  0  0  0  0
 15  7  1  0  0  0  0
 16  2  1  0  0  0  0
 17  3  1  0  0  0  0
 19 13  1  0  0  0  0
 20 21  1  0  0  0  0
 22 20  1  0  0  0  0
 23 24  1  0  0  0  0
 24 32  2  0  0  0  0
 24 25  1  0  0  0  0
 25 27  2  0  0  0  0
 26 25  1  0  0  0  0
 27 28  1  0  0  0  0
 28 29  1  0  0  0  0
 30 31  1  0  0  0  0
 30 28  2  0  0  0  0
 32 30  1  0  0  0  0
M  END
>  <minimizedAffinity>
-6.60828161

$$$$

 OpenBabel03252504233D

 32 35  0  0  0  0  0  0  0  0999 V2000
   38.8340   29.2030   41.6770 C   0  0  0  0  0  0  0  0  0  0  0  0
   39.7720   28.8190   42.6190 C   0  0  0  0  0  0  0  0  0  0  0  0
   41.1210   29.2420   42.4320 C   0  0  0  0  0  0  0  0  0  0  0  0
   41.3680   29.9990   41.3270 N   0  0  0  0  0  0  0  0  0  0  0  0
   40.4160   30.3500   40.4350 C   0  0  0  0  0  0  0  0  0  0  0  0
   39.1440   29.9510   40.6090 N   0  0  0  0  0  0  0  0  0  0  0  0
   40.7960   31.1410   39.3180 N   0  0  0  0  0  0  0  0  0  0  0  0
   40.4150   30.9390   38.0340 C   0  0  0  0  0  0  0  0  0  0  0  0
   40.9890   31.9070   37.2660 N   0  0  0  0  0  0  0  0  0  0  0  0
   41.6990   32.6700   38.0860 C   0  0  0  0  0  0  0  0  0  0  0  0
   42.4930   33.7920   37.9140 C   0  0  0  0  0  0  0  0  0  0  0  0
   43.1220   34.3960   38.9250 N   0  0  0  0  0  0  0  0  0  0  0  0
   43.0170   33.9440   40.1850 C   0  0  0  0  0  0  0  0  0  0  0  0
   42.2490   32.8560   40.3640 N   0  0  0  0  0  0  0  0  0  0  0  0
   41.6010   32.2170   39.3930 C   0  0  0  0  0  0  0  0  0  0  0  0
   39.5760   28.2170   43.4980 H   0  0  0  0  0  0  0  0  0  0  0  0
   41.8750   28.9650   43.1390 H   0  0  0  0  0  0  0  0  0  0  0  0
   39.7620   30.1370   37.6900 H   0  0  0  0  0  0  0  0  0  0  0  0
   43.5290   34.4380   40.9990 H   0  0  0  0  0  0  0  0  0  0  0  0
   42.6930   34.3760   36.6400 N   0  0  0  0  0  0  0  0  0  0  0  0
   42.5430   35.3730   36.3620 H   0  0  0  0  0  0  0  0  0  0  0  0
   43.0240   33.6410   35.9920 H   0  0  0  0  0  0  0  0  0  0  0  0
   37.1500   28.6130   42.0000 S   0  0  0  0  0  0  0  0  0  0  0  0
   36.9830   26.8890   41.5690 C   0  0  0  0  0  0  0  0  0  0  0  0
   36.7320   26.6830   40.2160 C   0  0  0  0  0  0  0  0  0  0  0  0
   36.6370   27.4640   39.4600 H   0  0  0  0  0  0  0  0  0  0  0  0
   36.5810   25.3770   39.7530 C   0  0  0  0  0  3  0  0  0  0  0  0
   36.6710   24.2950   40.5710 C   0  0  0  0  0  0  0  0  0  0  0  0
   36.5510   23.2880   40.1960 H   0  0  0  0  0  0  0  0  0  0  0  0
   36.9200   24.5320   41.9000 C   0  0  0  0  0  0  0  0  0  0  0  0
   37.0060   23.7260   42.6180 H   0  0  0  0  0  0  0  0  0  0  0  0
   37.0780   25.8030   42.4140 C   0  0  0  0  0  3  0  0  0  0  0  0
  1 23  1  0  0  0  0
  1  2  1  0  0  0  0
  2 16  1  0  0  0  0
  3  2  2  0  0  0  0
  3 17  1  0  0  0  0
  4  3  1  0  0  0  0
  5  6  1  0  0  0  0
  5  4  2  0  0  0  0
  6  1  2  0  0  0  0
  7 15  1  0  0  0  0
  7  5  1  0  0  0  0
  8  7  1  0  0  0  0
  9  8  2  0  0  0  0
  9 10  1  0  0  0  0
 10 15  1  0  0  0  0
 11 10  2  0  0  0  0
 11 12  1  0  0  0  0
 12 13  2  0  0  0  0
 13 14  1  0  0  0  0
 13 19  1  0  0  0  0
 15 14  2  0  0  0  0
 18  8  1  0  0  0  0
 20 11  1  0  0  0  0
 21 20  1  0  0  0  0
 22 20  1  0  0  0  0
 24 23  1  0  0  0  0
 24 32  1  0  0  0  0
 25 24  2  0  0  0  0
 26 25  1  0  0  0  0
 27 25  1  0  0  0  0
 27 28  2  0  0  0  0
 28 30  1  0  0  0  0
 29 28  1  0  0  0  0
 30 32  2  0  0  0  0
 30 31  1  0  0  0  0
M  END
>  <minimizedAffinity>
-6.11171961

$$$$

 OpenBabel03252504233D

 32 35  0  0  0  0  0  0  0  0999 V2000
   38.7890   26.4700   42.4040 C   0  0  0  0  0  0  0  0  0  0  0  0
   38.1820   27.0770   43.4890 C   0  0  0  0  0  0  0  0  0  0  0  0
   37.9970   28.4910   43.4470 C   0  0  0  0  0  0  0  0  0  0  0  0
   38.4390   29.1250   42.3250 N   0  0  0  0  0  0  0  0  0  0  0  0
   39.0250   28.4860   41.2900 C   0  0  0  0  0  0  0  0  0  0  0  0
   39.2020   27.1530   41.3280 N   0  0  0  0  0  0  0  0  0  0  0  0
   39.4480   29.2560   40.1740 N   0  0  0  0  0  0  0  0  0  0  0  0
   40.6340   29.1380   39.5300 C   0  0  0  0  0  0  0  0  0  0  0  0
   40.6570   30.0510   38.5180 N   0  0  0  0  0  0  0  0  0  0  0  0
   39.5020   30.6980   38.5650 C   0  0  0  0  0  0  0  0  0  0  0  0
   38.9370   31.7190   37.8170 C   0  0  0  0  0  0  0  0  0  0  0  0
   37.7220   32.2150   38.0690 N   0  0  0  0  0  0  0  0  0  0  0  0
   36.9690   31.7430   39.0740 C   0  0  0  0  0  0  0  0  0  0  0  0
   37.5060   30.7520   39.8060 N   0  0  0  0  0  0  0  0  0  0  0  0
   38.7090   30.2230   39.5990 C   0  0  0  0  0  0  0  0  0  0  0  0
   37.8310   26.5740   44.3810 H   0  0  0  0  0  0  0  0  0  0  0  0
   37.5310   28.9970   44.2680 H   0  0  0  0  0  0  0  0  0  0  0  0
   41.4220   28.4310   39.7880 H   0  0  0  0  0  0  0  0  0  0  0  0
   35.9870   32.1480   39.2720 H   0  0  0  0  0  0  0  0  0  0  0  0
   39.6200   32.3100   36.7280 N   0  0  0  0  0  0  0  0  0  0  0  0
   39.2780   32.4290   35.7470 H   0  0  0  0  0  0  0  0  0  0  0  0
   40.5490   32.6240   37.0560 H   0  0  0  0  0  0  0  0  0  0  0  0
   38.9830   24.6730   42.5530 S   0  0  0  0  0  0  0  0  0  0  0  0
   38.0240   23.8220   41.3100 C   0  0  0  0  0  0  0  0  0  0  0  0
   36.7450   24.3450   41.1490 C   0  0  0  0  0  0  0  0  0  0  0  0
   36.3270   25.1880   41.7030 H   0  0  0  0  0  0  0  0  0  0  0  0
   35.8970   23.7660   40.2070 C   0  0  0  0  0  3  0  0  0  0  0  0
   36.2700   22.7100   39.4370 C   0  0  0  0  0  0  0  0  0  0  0  0
   35.6000   22.2730   38.7100 H   0  0  0  0  0  0  0  0  0  0  0  0
   37.5380   22.2180   39.6200 C   0  0  0  0  0  0  0  0  0  0  0  0
   37.9130   21.3780   39.0470 H   0  0  0  0  0  0  0  0  0  0  0  0
   38.4200   22.7500   40.5370 C   0  0  0  0  0  3  0  0  0  0  0  0
  1 23  1  0  0  0  0
  1  2  1  0  0  0  0
  2 16  1  0  0  0  0
  3  2  2  0  0  0  0
  3 17  1  0  0  0  0
  4  3  1  0  0  0  0
  5  6  1  0  0  0  0
  5  4  2  0  0  0  0
  6  1  2  0  0  0  0
  7  5  1  0  0  0  0
  8 18  1  0  0  0  0
  8  7  1  0  0  0  0
  9 10  1  0  0  0  0
  9  8  2  0  0  0  0
 10 15  1  0  0  0  0
 11 12  1  0  0  0  0
 11 10  2  0  0  0  0
 12 13  2  0  0  0  0
 13 19  1  0  0  0  0
 13 14  1  0  0  0  0
 15 14  2  0  0  0  0
 15  7  1  0  0  0  0
 20 22  1  0  0  0  0
 20 11  1  0  0  0  0
 21 20  1  0  0  0  0
 24 23  1  0  0  0  0
 25 24  1  0  0  0  0
 25 26  1  0  0  0  0
 27 25  2  0  0  0  0
 28 30  2  0  0  0  0
 28 27  1  0  0  0  0
 29 28  1  0  0  0  0
 30 32  1  0  0  0  0
 31 30  1  0  0  0  0
 32 24  2  0  0  0  0
M  END
>  <minimizedAffinity>
-6.00256872

$$$$

 OpenBabel03252504233D

 32 35  0  0  0  0  0  0  0  0999 V2000
   37.0180   28.9190   40.9290 C   0  0  0  0  0  0  0  0  0  0  0  0
   36.3480   28.6090   39.7590 C   0  0  0  0  0  0  0  0  0  0  0  0
   36.6420   29.3790   38.5950 C   0  0  0  0  0  0  0  0  0  0  0  0
   37.5710   30.3640   38.7410 N   0  0  0  0  0  0  0  0  0  0  0  0
   38.2010   30.6280   39.9070 C   0  0  0  0  0  0  0  0  0  0  0  0
   37.9250   29.9040   41.0060 N   0  0  0  0  0  0  0  0  0  0  0  0
   39.1500   31.6840   39.9360 N   0  0  0  0  0  0  0  0  0  0  0  0
   39.2550   32.6320   40.8980 C   0  0  0  0  0  0  0  0  0  0  0  0
   40.2850   33.4590   40.5640 N   0  0  0  0  0  0  0  0  0  0  0  0
   40.7800   33.0060   39.4210 C   0  0  0  0  0  0  0  0  0  0  0  0
   41.8150   33.4080   38.5920 C   0  0  0  0  0  0  0  0  0  0  0  0
   42.1270   32.7680   37.4620 N   0  0  0  0  0  0  0  0  0  0  0  0
   41.4470   31.6820   37.0620 C   0  0  0  0  0  0  0  0  0  0  0  0
   40.4410   31.2830   37.8590 N   0  0  0  0  0  0  0  0  0  0  0  0
   40.0890   31.8830   38.9920 C   0  0  0  0  0  0  0  0  0  0  0  0
   35.6090   27.8260   39.6430 H   0  0  0  0  0  0  0  0  0  0  0  0
   36.1420   29.1680   37.6710 H   0  0  0  0  0  0  0  0  0  0  0  0
   38.6190   32.7060   41.7800 H   0  0  0  0  0  0  0  0  0  0  0  0
   41.7050   31.1690   36.1460 H   0  0  0  0  0  0  0  0  0  0  0  0
   42.6150   34.5360   38.8910 N   0  0  0  0  0  0  0  0  0  0  0  0
   43.6570   34.5830   38.9520 H   0  0  0  0  0  0  0  0  0  0  0  0
   41.9910   35.3460   39.0480 H   0  0  0  0  0  0  0  0  0  0  0  0
   36.5750   27.8890   42.3530 S   0  0  0  0  0  0  0  0  0  0  0  0
   37.8710   26.7190   42.7240 C   0  0  0  0  0  0  0  0  0  0  0  0
   38.8880   27.2550   43.5080 C   0  0  0  0  0  0  0  0  0  0  0  0
   38.9310   28.2800   43.8810 H   0  0  0  0  0  0  0  0  0  0  0  0
   39.9600   26.4400   43.8670 C   0  0  0  0  0  3  0  0  0  0  0  0
   40.0530   25.1400   43.4810 C   0  0  0  0  0  0  0  0  0  0  0  0
   40.8910   24.5210   43.7680 H   0  0  0  0  0  0  0  0  0  0  0  0
   39.0330   24.6410   42.7080 C   0  0  0  0  0  0  0  0  0  0  0  0
   39.0310   23.6160   42.3590 H   0  0  0  0  0  0  0  0  0  0  0  0
   37.9480   25.4010   42.3230 C   0  0  0  0  0  3  0  0  0  0  0  0
  1  6  1  0  0  0  0
  1 23  1  0  0  0  0
  2  1  2  0  0  0  0
  3  4  2  0  0  0  0
  3  2  1  0  0  0  0
  4  5  1  0  0  0  0
  5  7  1  0  0  0  0
  5  6  2  0  0  0  0
  7  8  1  0  0  0  0
  8 18  1  0  0  0  0
  9  8  2  0  0  0  0
 10  9  1  0  0  0  0
 11 20  1  0  0  0  0
 11 10  2  0  0  0  0
 12 11  1  0  0  0  0
 13 12  2  0  0  0  0
 13 14  1  0  0  0  0
 14 15  2  0  0  0  0
 15 10  1  0  0  0  0
 15  7  1  0  0  0  0
 16  2  1  0  0  0  0
 17  3  1  0  0  0  0
 19 13  1  0  0  0  0
 20 21  1  0  0  0  0
 20 22  1  0  0  0  0
 23 24  1  0  0  0  0
 24 25  1  0  0  0  0
 25 27  2  0  0  0  0
 25 26  1  0  0  0  0
 28 29  1  0  0  0  0
 28 27  1  0  0  0  0
 30 28  2  0  0  0  0
 31 30  1  0  0  0  0
 32 30  1  0  0  0  0
 32 24  2  0  0  0  0
M  END
>  <minimizedAffinity>
-5.95147514

$$$$

 OpenBabel03252504233D

 32 35  0  0  0  0  0  0  0  0999 V2000
   37.6390   31.3310   39.9540 C   0  0  0  0  0  0  0  0  0  0  0  0
   36.9670   32.5240   39.7580 C   0  0  0  0  0  0  0  0  0  0  0  0
   37.7350   33.7250   39.7050 C   0  0  0  0  0  0  0  0  0  0  0  0
   39.0820   33.5870   39.8520 N   0  0  0  0  0  0  0  0  0  0  0  0
   39.6930   32.3970   40.0400 C   0  0  0  0  0  0  0  0  0  0  0  0
   38.9710   31.2640   40.0920 N   0  0  0  0  0  0  0  0  0  0  0  0
   41.1070   32.3800   40.1840 N   0  0  0  0  0  0  0  0  0  0  0  0
   41.8030   31.6760   41.1080 C   0  0  0  0  0  0  0  0  0  0  0  0
   43.1290   31.9260   40.9170 N   0  0  0  0  0  0  0  0  0  0  0  0
   43.2130   32.7650   39.8950 C   0  0  0  0  0  0  0  0  0  0  0  0
   44.2660   33.3780   39.2340 C   0  0  0  0  0  0  0  0  0  0  0  0
   44.0890   34.2070   38.2020 N   0  0  0  0  0  0  0  0  0  0  0  0
   42.8620   34.4970   37.7400 C   0  0  0  0  0  0  0  0  0  0  0  0
   41.8340   33.9080   38.3730 N   0  0  0  0  0  0  0  0  0  0  0  0
   41.9540   33.0760   39.4040 C   0  0  0  0  0  0  0  0  0  0  0  0
   35.8960   32.6340   39.6410 H   0  0  0  0  0  0  0  0  0  0  0  0
   37.2500   34.6670   39.5540 H   0  0  0  0  0  0  0  0  0  0  0  0
   41.3650   31.0270   41.8660 H   0  0  0  0  0  0  0  0  0  0  0  0
   42.7270   35.1690   36.9040 H   0  0  0  0  0  0  0  0  0  0  0  0
   45.6120   33.1630   39.6150 N   0  0  0  0  0  0  0  0  0  0  0  0
   46.4070   32.8530   39.0110 H   0  0  0  0  0  0  0  0  0  0  0  0
   45.7010   33.3650   40.6260 H   0  0  0  0  0  0  0  0  0  0  0  0
   36.5780   29.8630   40.0110 S   0  0  0  0  0  0  0  0  0  0  0  0
   36.9620   28.8510   41.4300 C   0  0  0  0  0  0  0  0  0  0  0  0
   36.7680   27.4920   41.2060 C   0  0  0  0  0  0  0  0  0  0  0  0
   36.4170   27.0440   40.2740 H   0  0  0  0  0  0  0  0  0  0  0  0
   37.0350   26.5960   42.2400 C   0  0  0  0  0  3  0  0  0  0  0  0
   37.4780   26.9970   43.4610 C   0  0  0  0  0  0  0  0  0  0  0  0
   37.6800   26.2890   44.2520 H   0  0  0  0  0  0  0  0  0  0  0  0
   37.6600   28.3450   43.6490 C   0  0  0  0  0  0  0  0  0  0  0  0
   38.0110   28.7470   44.5920 H   0  0  0  0  0  0  0  0  0  0  0  0
   37.4130   29.2770   42.6630 C   0  0  0  0  0  3  0  0  0  0  0  0
  1 23  1  0  0  0  0
  1  6  1  0  0  0  0
  2  1  2  0  0  0  0
  3  2  1  0  0  0  0
  3  4  2  0  0  0  0
  4  5  1  0  0  0  0
  5  6  2  0  0  0  0
  5  7  1  0  0  0  0
  7  8  1  0  0  0  0
  8 18  1  0  0  0  0
  9  8  2  0  0  0  0
 10  9  1  0  0  0  0
 11 20  1  0  0  0  0
 11 10  2  0  0  0  0
 12 11  1  0  0  0  0
 13 12  2  0  0  0  0
 13 14  1  0  0  0  0
 14 15  2  0  0  0  0
 15 10  1  0  0  0  0
 15  7  1  0  0  0  0
 16  2  1  0  0  0  0
 17  3  1  0  0  0  0
 19 13  1  0  0  0  0
 20 22  1  0  0  0  0
 21 20  1  0  0  0  0
 23 24  1  0  0  0  0
 24 32  1  0  0  0  0
 25 24  2  0  0  0  0
 25 27  1  0  0  0  0
 26 25  1  0  0  0  0
 27 28  2  0  0  0  0
 28 30  1  0  0  0  0
 28 29  1  0  0  0  0
 30 31  1  0  0  0  0
 32 30  2  0  0  0  0
M  END
>  <minimizedAffinity>
-5.7190485

$$$$

 OpenBabel03252504233D

 32 35  0  0  0  0  0  0  0  0999 V2000
   39.4460   32.4240   39.3200 C   0  0  0  0  0  0  0  0  0  0  0  0
   39.9920   32.8030   40.5320 C   0  0  0  0  0  0  0  0  0  0  0  0
   41.3900   32.5960   40.7310 C   0  0  0  0  0  0  0  0  0  0  0  0
   42.0710   32.0370   39.6920 N   0  0  0  0  0  0  0  0  0  0  0  0
   41.4910   31.6840   38.5240 C   0  0  0  0  0  0  0  0  0  0  0  0
   40.1740   31.8770   38.3350 N   0  0  0  0  0  0  0  0  0  0  0  0
   42.3060   31.1050   37.5140 N   0  0  0  0  0  0  0  0  0  0  0  0
   41.9940   30.0200   36.7660 C   0  0  0  0  0  0  0  0  0  0  0  0
   43.0300   29.7830   35.9140 N   0  0  0  0  0  0  0  0  0  0  0  0
   43.9410   30.7160   36.1560 C   0  0  0  0  0  0  0  0  0  0  0  0
   45.1890   31.0060   35.6290 C   0  0  0  0  0  0  0  0  0  0  0  0
   45.9350   32.0290   36.0530 N   0  0  0  0  0  0  0  0  0  0  0  0
   45.5100   32.8470   37.0280 C   0  0  0  0  0  0  0  0  0  0  0  0
   44.3000   32.5760   37.5470 N   0  0  0  0  0  0  0  0  0  0  0  0
   43.5180   31.5720   37.1620 C   0  0  0  0  0  0  0  0  0  0  0  0
   39.4510   33.2480   41.3580 H   0  0  0  0  0  0  0  0  0  0  0  0
   41.8490   32.8770   41.6560 H   0  0  0  0  0  0  0  0  0  0  0  0
   41.0700   29.4460   36.8440 H   0  0  0  0  0  0  0  0  0  0  0  0
   46.1190   33.6740   37.3660 H   0  0  0  0  0  0  0  0  0  0  0  0
   45.7610   30.2250   34.5950 N   0  0  0  0  0  0  0  0  0  0  0  0
   46.1340   30.5550   33.6760 H   0  0  0  0  0  0  0  0  0  0  0  0
   45.7560   29.2350   34.8930 H   0  0  0  0  0  0  0  0  0  0  0  0
   37.6640   32.7230   39.1640 S   0  0  0  0  0  0  0  0  0  0  0  0
   36.7400   31.2150   39.4050 C   0  0  0  0  0  0  0  0  0  0  0  0
   36.5780   30.4770   38.2370 C   0  0  0  0  0  0  0  0  0  0  0  0
   36.9580   30.7520   37.2510 H   0  0  0  0  0  0  0  0  0  0  0  0
   35.8730   29.2760   38.2940 C   0  0  0  0  0  3  0  0  0  0  0  0
   35.3360   28.7950   39.4470 C   0  0  0  0  0  0  0  0  0  0  0  0
   34.7920   27.8620   39.4740 H   0  0  0  0  0  0  0  0  0  0  0  0
   35.5140   29.5470   40.5820 C   0  0  0  0  0  0  0  0  0  0  0  0
   35.1180   29.2350   41.5410 H   0  0  0  0  0  0  0  0  0  0  0  0
   36.2020   30.7420   40.5850 C   0  0  0  0  0  3  0  0  0  0  0  0
  1  2  1  0  0  0  0
  2  3  2  0  0  0  0
  2 16  1  0  0  0  0
  3 17  1  0  0  0  0
  4  3  1  0  0  0  0
  5  4  2  0  0  0  0
  6  5  1  0  0  0  0
  6  1  2  0  0  0  0
  7  5  1  0  0  0  0
  8 18  1  0  0  0  0
  8  7  1  0  0  0  0
  9 10  1  0  0  0  0
  9  8  2  0  0  0  0
 10 15  1  0  0  0  0
 11 12  1  0  0  0  0
 11 10  2  0  0  0  0
 12 13  2  0  0  0  0
 13 19  1  0  0  0  0
 13 14  1  0  0  0  0
 15  7  1  0  0  0  0
 15 14  2  0  0  0  0
 20 22  1  0  0  0  0
 20 11  1  0  0  0  0
 21 20  1  0  0  0  0
 23  1  1  0  0  0  0
 23 24  1  0  0  0  0
 24 32  1  0  0  0  0
 25 27  1  0  0  0  0
 25 24  2  0  0  0  0
 26 25  1  0  0  0  0
 27 28  2  0  0  0  0
 28 29  1  0  0  0  0
 28 30  1  0  0  0  0
 30 32  2  0  0  0  0
 30 31  1  0  0  0  0
M  END
>  <minimizedAffinity>
-5.70297194

$$$$

 OpenBabel03252504233D

 32 35  0  0  0  0  0  0  0  0999 V2000
   34.3490   28.9090   36.2150 C   0  0  0  0  0  0  0  0  0  0  0  0
   35.3340   28.7770   35.2530 C   0  0  0  0  0  0  0  0  0  0  0  0
   36.6930   28.9090   35.6640 C   0  0  0  0  0  0  0  0  0  0  0  0
   36.9020   29.1560   36.9870 N   0  0  0  0  0  0  0  0  0  0  0  0
   35.9040   29.2760   37.8900 C   0  0  0  0  0  0  0  0  0  0  0  0
   34.6220   29.1520   37.5040 N   0  0  0  0  0  0  0  0  0  0  0  0
   36.2470   29.5370   39.2440 N   0  0  0  0  0  0  0  0  0  0  0  0
   35.6490   30.4420   40.0540 C   0  0  0  0  0  0  0  0  0  0  0  0
   36.2640   30.3910   41.2690 N   0  0  0  0  0  0  0  0  0  0  0  0
   37.2110   29.4680   41.1770 C   0  0  0  0  0  0  0  0  0  0  0  0
   38.1560   28.9630   42.0560 C   0  0  0  0  0  0  0  0  0  0  0  0
   39.0250   28.0080   41.7150 N   0  0  0  0  0  0  0  0  0  0  0  0
   39.0300   27.4740   40.4840 C   0  0  0  0  0  0  0  0  0  0  0  0
   38.1180   27.9560   39.6230 N   0  0  0  0  0  0  0  0  0  0  0  0
   37.2310   28.9050   39.9090 C   0  0  0  0  0  0  0  0  0  0  0  0
   35.1680   28.5800   34.2010 H   0  0  0  0  0  0  0  0  0  0  0  0
   37.4830   28.8130   34.9480 H   0  0  0  0  0  0  0  0  0  0  0  0
   34.8220   31.0920   39.7700 H   0  0  0  0  0  0  0  0  0  0  0  0
   39.7360   26.7010   40.2150 H   0  0  0  0  0  0  0  0  0  0  0  0
   38.2630   29.4350   43.3860 N   0  0  0  0  0  0  0  0  0  0  0  0
   38.2500   28.8720   44.2670 H   0  0  0  0  0  0  0  0  0  0  0  0
   38.3590   30.4640   43.3610 H   0  0  0  0  0  0  0  0  0  0  0  0
   32.6540   28.7290   35.5940 S   0  0  0  0  0  0  0  0  0  0  0  0
   31.5780   29.9610   36.3090 C   0  0  0  0  0  0  0  0  0  0  0  0
   31.2960   31.0130   35.4440 C   0  0  0  0  0  0  0  0  0  0  0  0
   31.6730   31.1180   34.4250 H   0  0  0  0  0  0  0  0  0  0  0  0
   30.4650   32.0400   35.8860 C   0  0  0  0  0  3  0  0  0  0  0  0
   29.9160   32.0560   37.1300 C   0  0  0  0  0  0  0  0  0  0  0  0
   29.2730   32.8600   37.4570 H   0  0  0  0  0  0  0  0  0  0  0  0
   30.2130   31.0020   37.9590 C   0  0  0  0  0  0  0  0  0  0  0  0
   29.8170   30.9380   38.9650 H   0  0  0  0  0  0  0  0  0  0  0  0
   31.0290   29.9580   37.5750 C   0  0  0  0  0  3  0  0  0  0  0  0
  1  6  1  0  0  0  0
  2  3  1  0  0  0  0
  2  1  2  0  0  0  0
  3  4  2  0  0  0  0
  4  5  1  0  0  0  0
  5  7  1  0  0  0  0
  6  5  2  0  0  0  0
  7 15  1  0  0  0  0
  7  8  1  0  0  0  0
  8  9  2  0  0  0  0
 10  9  1  0  0  0  0
 10 11  1  0  0  0  0
 11 20  1  0  0  0  0
 12 11  2  0  0  0  0
 13 12  1  0  0  0  0
 14 15  1  0  0  0  0
 14 13  2  0  0  0  0
 15 10  2  0  0  0  0
 16  2  1  0  0  0  0
 17  3  1  0  0  0  0
 18  8  1  0  0  0  0
 19 13  1  0  0  0  0
 20 21  1  0  0  0  0
 22 20  1  0  0  0  0
 23  1  1  0  0  0  0
 23 24  1  0  0  0  0
 24 32  1  0  0  0  0
 25 27  1  0  0  0  0
 25 24  2  0  0  0  0
 26 25  1  0  0  0  0
 27 28  2  0  0  0  0
 28 29  1  0  0  0  0
 28 30  1  0  0  0  0
 30 31  1  0  0  0  0
 32 30  2  0  0  0  0
M  END
>  <minimizedAffinity>
-5.59601974

$$$$

 OpenBabel03252504233D

 32 35  0  0  0  0  0  0  0  0999 V2000
   33.7080   28.4340   36.4490 C   0  0  0  0  0  0  0  0  0  0  0  0
   33.6600   27.0530   36.4990 C   0  0  0  0  0  0  0  0  0  0  0  0
   34.5900   26.3810   37.3480 C   0  0  0  0  0  0  0  0  0  0  0  0
   35.4530   27.1720   38.0440 N   0  0  0  0  0  0  0  0  0  0  0  0
   35.4600   28.5210   37.9610 C   0  0  0  0  0  0  0  0  0  0  0  0
   34.5850   29.1560   37.1620 N   0  0  0  0  0  0  0  0  0  0  0  0
   36.4110   29.2390   38.7340 N   0  0  0  0  0  0  0  0  0  0  0  0
   37.1680   30.2750   38.3010 C   0  0  0  0  0  0  0  0  0  0  0  0
   37.9500   30.6880   39.3370 N   0  0  0  0  0  0  0  0  0  0  0  0
   37.6580   29.9070   40.3670 C   0  0  0  0  0  0  0  0  0  0  0  0
   38.1070   29.8290   41.6760 C   0  0  0  0  0  0  0  0  0  0  0  0
   37.6450   28.9280   42.5470 N   0  0  0  0  0  0  0  0  0  0  0  0
   36.7050   28.0360   42.1990 C   0  0  0  0  0  0  0  0  0  0  0  0
   36.2630   28.1020   40.9320 N   0  0  0  0  0  0  0  0  0  0  0  0
   36.6880   28.9770   40.0250 C   0  0  0  0  0  0  0  0  0  0  0  0
   32.9740   26.4230   35.9460 H   0  0  0  0  0  0  0  0  0  0  0  0
   34.5830   25.3120   37.4130 H   0  0  0  0  0  0  0  0  0  0  0  0
   37.1450   30.6930   37.2950 H   0  0  0  0  0  0  0  0  0  0  0  0
   36.3360   27.3100   42.9100 H   0  0  0  0  0  0  0  0  0  0  0  0
   39.0950   30.7080   42.1790 N   0  0  0  0  0  0  0  0  0  0  0  0
   39.0430   31.3100   43.0330 H   0  0  0  0  0  0  0  0  0  0  0  0
   39.9170   30.6690   41.5510 H   0  0  0  0  0  0  0  0  0  0  0  0
   32.4910   29.1950   35.3410 S   0  0  0  0  0  0  0  0  0  0  0  0
   31.4100   30.2960   36.2400 C   0  0  0  0  0  0  0  0  0  0  0  0
   31.0200   29.7950   37.4770 C   0  0  0  0  0  0  0  0  0  0  0  0
   31.3170   28.8330   37.8970 H   0  0  0  0  0  0  0  0  0  0  0  0
   30.1740   30.5630   38.2750 C   0  0  0  0  0  3  0  0  0  0  0  0
   29.7160   31.7850   37.8940 C   0  0  0  0  0  0  0  0  0  0  0  0
   29.0610   32.3680   38.5250 H   0  0  0  0  0  0  0  0  0  0  0  0
   30.1200   32.2510   36.6670 C   0  0  0  0  0  0  0  0  0  0  0  0
   29.8000   33.2140   36.2890 H   0  0  0  0  0  0  0  0  0  0  0  0
   30.9550   31.5350   35.8350 C   0  0  0  0  0  3  0  0  0  0  0  0
  1  2  2  0  0  0  0
  1  6  1  0  0  0  0
  2  3  1  0  0  0  0
  3 17  1  0  0  0  0
  3  4  2  0  0  0  0
  5  4  1  0  0  0  0
  5  7  1  0  0  0  0
  6  5  2  0  0  0  0
  7 15  1  0  0  0  0
  8  7  1  0  0  0  0
  8  9  2  0  0  0  0
  9 10  1  0  0  0  0
 10 11  1  0  0  0  0
 11 20  1  0  0  0  0
 11 12  2  0  0  0  0
 13 12  1  0  0  0  0
 13 19  1  0  0  0  0
 14 13  2  0  0  0  0
 15 10  2  0  0  0  0
 15 14  1  0  0  0  0
 16  2  1  0  0  0  0
 18  8  1  0  0  0  0
 20 21  1  0  0  0  0
 22 20  1  0  0  0  0
 23 24  1  0  0  0  0
 23  1  1  0  0  0  0
 24 25  1  0  0  0  0
 25 26  1  0  0  0  0
 25 27  2  0  0  0  0
 28 27  1  0  0  0  0
 28 29  1  0  0  0  0
 30 28  2  0  0  0  0
 31 30  1  0  0  0  0
 32 24  2  0  0  0  0
 32 30  1  0  0  0  0
M  END
>  <minimizedAffinity>
-5.59260035

$$$$

 OpenBabel03252504233D

 32 35  0  0  0  0  0  0  0  0999 V2000
   37.1790   28.3250   38.0020 C   0  0  0  0  0  0  0  0  0  0  0  0
   36.7430   28.7980   36.7780 C   0  0  0  0  0  0  0  0  0  0  0  0
   37.0210   30.1580   36.4480 C   0  0  0  0  0  0  0  0  0  0  0  0
   37.7020   30.8790   37.3820 N   0  0  0  0  0  0  0  0  0  0  0  0
   38.1080   30.3700   38.5660 C   0  0  0  0  0  0  0  0  0  0  0  0
   37.8470   29.0890   38.8790 N   0  0  0  0  0  0  0  0  0  0  0  0
   38.8090   31.2220   39.4610 N   0  0  0  0  0  0  0  0  0  0  0  0
   38.5920   31.3240   40.7940 C   0  0  0  0  0  0  0  0  0  0  0  0
   39.4640   32.2440   41.2940 N   0  0  0  0  0  0  0  0  0  0  0  0
   40.1860   32.6780   40.2690 C   0  0  0  0  0  0  0  0  0  0  0  0
   41.2140   33.5970   40.1340 C   0  0  0  0  0  0  0  0  0  0  0  0
   41.7940   33.8680   38.9620 N   0  0  0  0  0  0  0  0  0  0  0  0
   41.4080   33.2530   37.8320 C   0  0  0  0  0  0  0  0  0  0  0  0
   40.4120   32.3600   37.9520 N   0  0  0  0  0  0  0  0  0  0  0  0
   39.8000   32.0540   39.0920 C   0  0  0  0  0  0  0  0  0  0  0  0
   36.2020   28.2260   36.0350 H   0  0  0  0  0  0  0  0  0  0  0  0
   36.6990   30.5600   35.5090 H   0  0  0  0  0  0  0  0  0  0  0  0
   37.8460   30.7620   41.3550 H   0  0  0  0  0  0  0  0  0  0  0  0
   41.8830   33.4770   36.8870 H   0  0  0  0  0  0  0  0  0  0  0  0
   41.7200   34.3180   41.2420 N   0  0  0  0  0  0  0  0  0  0  0  0
   42.7140   34.3910   41.5570 H   0  0  0  0  0  0  0  0  0  0  0  0
   40.9290   34.7830   41.7180 H   0  0  0  0  0  0  0  0  0  0  0  0
   36.7770   26.5880   38.3310 S   0  0  0  0  0  0  0  0  0  0  0  0
   36.8580   26.2330   40.0780 C   0  0  0  0  0  0  0  0  0  0  0  0
   36.8860   24.8720   40.3620 C   0  0  0  0  0  0  0  0  0  0  0  0
   36.8620   24.0670   39.6260 H   0  0  0  0  0  0  0  0  0  0  0  0
   36.9490   24.4650   41.6940 C   0  0  0  0  0  3  0  0  0  0  0  0
   36.9850   25.3470   42.7280 C   0  0  0  0  0  0  0  0  0  0  0  0
   37.0350   25.0150   43.7550 H   0  0  0  0  0  0  0  0  0  0  0  0
   36.9570   26.6830   42.4140 C   0  0  0  0  0  0  0  0  0  0  0  0
   36.9820   27.4500   43.1790 H   0  0  0  0  0  0  0  0  0  0  0  0
   36.8940   27.1430   41.1150 C   0  0  0  0  0  3  0  0  0  0  0  0
  1 23  1  0  0  0  0
  1  6  1  0  0  0  0
  2  1  2  0  0  0  0
  3  2  1  0  0  0  0
  3  4  2  0  0  0  0
  4  5  1  0  0  0  0
  5  6  2  0  0  0  0
  5  7  1  0  0  0  0
  7  8  1  0  0  0  0
  8  9  2  0  0  0  0
  8 18  1  0  0  0  0
 10  9  1  0  0  0  0
 11 10  1  0  0  0  0
 11 20  1  0  0  0  0
 12 11  2  0  0  0  0
 13 14  2  0  0  0  0
 13 12  1  0  0  0  0
 14 15  1  0  0  0  0
 15  7  1  0  0  0  0
 15 10  2  0  0  0  0
 16  2  1  0  0  0  0
 17  3  1  0  0  0  0
 19 13  1  0  0  0  0
 20 21  1  0  0  0  0
 20 22  1  0  0  0  0
 23 24  1  0  0  0  0
 24 25  2  0  0  0  0
 24 32  1  0  0  0  0
 25 27  1  0  0  0  0
 26 25  1  0  0  0  0
 27 28  2  0  0  0  0
 28 29  1  0  0  0  0
 30 28  1  0  0  0  0
 30 31  1  0  0  0  0
 32 30  2  0  0  0  0
M  END
>  <minimizedAffinity>
-5.58883429

$$$$
