
     RDKit          3D

 35 37  0  0  0  0  0  0  0  0999 V2000
   44.4931   35.7492   44.9908 C   0  0  0  0  0  0  0  0  0  0  0  0
   45.1275   35.7164   43.7433 C   0  0  0  0  0  0  0  0  0  0  0  0
   46.0103   34.7150   43.4919 C   0  0  0  0  0  0  0  0  0  0  0  0
   46.2352   33.7977   44.4584 N   0  0  0  0  0  0  0  0  0  0  0  0
   45.6231   33.8397   45.6475 C   0  0  0  0  0  0  0  0  0  0  0  0
   44.7495   34.8041   45.9358 N   0  0  0  0  0  0  0  0  0  0  0  0
   45.9243   32.8359   46.6122 N   0  0  0  0  0  0  0  0  0  0  0  0
   45.1510   32.5560   47.8073 C   0  0  0  0  0  0  0  0  0  0  0  0
   46.2519   32.2491   48.8126 C   0  0  0  0  0  0  0  0  0  0  0  0
   47.5318   32.0756   48.0309 C   0  0  0  0  0  0  0  0  0  0  0  0
   47.0365   31.9074   46.6083 C   0  0  1  0  0  0  0  0  0  0  0  0
   44.7591   36.7794   42.8613 N   0  0  0  0  0  0  0  0  0  0  0  0
   46.4887   30.1985   46.4105 S   0  0  0  0  0  0  0  0  0  0  0  0
   43.7781   36.5286   45.2420 H   0  0  0  0  0  0  0  0  0  0  0  0
   46.4765   34.7096   42.5443 H   0  0  0  0  0  0  0  0  0  0  0  0
   44.4811   31.6816   47.6925 H   0  0  0  0  0  0  0  0  0  0  0  0
   44.5256   33.4300   48.1146 H   0  0  0  0  0  0  0  0  0  0  0  0
   46.0278   31.4128   49.4756 H   0  0  0  0  0  0  0  0  0  0  0  0
   46.3588   33.1702   49.4302 H   0  0  0  0  0  0  0  0  0  0  0  0
   47.9966   31.1170   48.3413 H   0  0  0  0  0  0  0  0  0  0  0  0
   48.2233   32.9165   48.1635 H   0  0  0  0  0  0  0  0  0  0  0  0
   47.7664   32.2173   45.8570 H   0  0  0  0  0  0  0  0  0  0  0  0
   44.5170   37.7260   43.2281 H   0  0  0  0  0  0  0  0  0  0  0  0
   44.7294   36.6076   41.8145 H   0  0  0  0  0  0  0  0  0  0  0  0
   45.7610   29.9117   44.8044 C   0  0  0  0  0  0  0  0  0  0  0  0
   45.1439   31.0560   44.2846 C   0  0  0  0  0  0  0  0  0  0  0  0
   45.0952   32.0295   44.7792 H   0  0  0  0  0  0  0  0  0  0  0  0
   44.5275   31.0231   43.0515 C   0  0  0  0  0  0  0  0  0  0  0  0
   44.5221   29.8497   42.3287 C   0  0  0  0  0  0  0  0  0  0  0  0
   44.0428   29.7935   41.3516 H   0  0  0  0  0  0  0  0  0  0  0  0
   45.1357   28.7106   42.8442 C   0  0  0  0  0  0  0  0  0  0  0  0
   45.1511   27.7752   42.3062 H   0  0  0  0  0  0  0  0  0  0  0  0
   45.7543   28.7369   44.0778 C   0  0  0  0  0  0  0  0  0  0  0  0
   44.0411   31.8906   42.6222 H   0  0  0  0  0  0  0  0  0  0  0  0
   46.2565   27.9182   44.5679 H   0  0  0  0  0  0  0  0  0  0  0  0
  1  6  2  0
  2  1  1  0
  3  2  2  0
  3  4  1  0
  4  5  2  0
  5  6  1  0
  5  7  1  0
  7 11  1  0
  7  8  1  0
  8  9  1  0
 10  9  1  0
 11 10  1  0
 12  2  1  0
 13 11  1  0
  1 14  1  0
  3 15  1  0
  8 16  1  0
  8 17  1  0
  9 18  1  0
  9 19  1  0
 10 20  1  0
 10 21  1  0
 11 22  1  6
 12 23  1  0
 12 24  1  0
 25 26  2  0
 26 27  1  0
 26 28  1  0
 28 29  2  0
 29 30  1  0
 29 31  1  0
 31 32  1  0
 31 33  2  0
 33 25  1  0
 28 34  1  0
 33 35  1  0
 13 25  1  0
M  ISO  8  14  14  15  14  16  13  17  13  18  13  19  13  20  13  21  13
M  ISO  4  22  13  27  16  30  16  32  16
M  END
>  <DihAtoms>  (1) 
10,12,24,25

>  <DihDeg>  (1) 
-90.01588668614357

$$$$
