
 OpenBabel03252508573D

 24 25  0  0  0  0  0  0  0  0999 V2000
   39.0500   29.1830   42.8480 C   0  0  0  0  0  0  0  0  0  0  0  0
   39.6570   28.4790   42.2320 H   0  0  0  0  0  0  0  0  0  0  0  0
   39.6570   29.7510   43.5700 H   0  0  0  0  0  0  0  0  0  0  0  0
   38.2840   32.1010   40.5800 C   0  0  0  0  0  0  0  0  0  0  0  0
   39.0150   31.2050   41.4020 C   0  0  0  0  0  0  0  0  0  0  0  0
   38.3240   30.1410   41.9830 C   0  0  0  0  0  0  0  0  0  0  0  0
   36.9800   30.0340   41.7180 N   0  0  0  0  0  0  0  0  0  0  0  0
   36.3280   30.8990   40.9380 C   0  0  0  0  0  0  0  0  0  0  0  0
   36.9740   31.9340   40.3670 N   0  0  0  0  0  0  0  0  0  0  0  0
   38.7540   32.9370   40.1050 H   0  0  0  0  0  0  0  0  0  0  0  0
   40.0740   31.3610   41.5590 H   0  0  0  0  0  0  0  0  0  0  0  0
   35.2700   30.6560   40.8440 H   0  0  0  0  0  0  0  0  0  0  0  0
   38.0270   28.2990   43.5450 C   0  0  0  0  0  0  0  0  0  0  0  0
   38.1340   28.3990   44.6490 H   0  0  0  0  0  0  0  0  0  0  0  0
   37.0280   28.6880   43.2540 H   0  0  0  0  0  0  0  0  0  0  0  0
   38.1620   26.9000   43.1140 C   0  0  0  0  0  0  0  0  0  0  0  0
   39.2960   26.1310   43.2700 C   0  0  0  0  0  0  0  0  0  0  0  0
   40.1430   26.5790   43.7390 H   0  0  0  0  0  0  0  0  0  0  0  0
   39.4230   24.8190   42.8650 C   0  0  0  0  0  3  0  0  0  0  0  0
   38.2980   24.2530   42.2540 C   0  0  0  0  0  0  0  0  0  0  0  0
   38.3520   23.2160   41.9170 H   0  0  0  0  0  0  0  0  0  0  0  0
   37.1440   25.0010   42.0820 C   0  0  0  0  0  0  0  0  0  0  0  0
   36.2940   24.5240   41.6030 H   0  0  0  0  0  0  0  0  0  0  0  0
   37.0550   26.3070   42.4980 C   0  0  0  0  0  3  0  0  0  0  0  0
  1 13  1  0  0  0  0
  1  3  1  0  0  0  0
  2  1  1  0  0  0  0
  4  5  1  0  0  0  0
  5 11  1  0  0  0  0
  5  6  2  0  0  0  0
  6  1  1  0  0  0  0
  7  6  1  0  0  0  0
  8  7  2  0  0  0  0
  9  4  2  0  0  0  0
  9  8  1  0  0  0  0
 10  4  1  0  0  0  0
 12  8  1  0  0  0  0
 13 14  1  0  0  0  0
 15 13  1  0  0  0  0
 16 17  1  0  0  0  0
 16 13  1  0  0  0  0
 17 18  1  0  0  0  0
 19 17  2  0  0  0  0
 20 19  1  0  0  0  0
 21 20  1  0  0  0  0
 22 20  2  0  0  0  0
 22 24  1  0  0  0  0
 23 22  1  0  0  0  0
 24 16  2  0  0  0  0
M  END
>  <minimizedAffinity>
-4.66448641

$$$$

 OpenBabel03252508573D

 24 25  0  0  0  0  0  0  0  0999 V2000
   38.9450   29.3710   42.8760 C   0  0  0  0  0  0  0  0  0  0  0  0
   39.6690   28.7140   42.3410 H   0  0  0  0  0  0  0  0  0  0  0  0
   39.4240   29.9950   43.6460 H   0  0  0  0  0  0  0  0  0  0  0  0
   36.2630   30.8680   40.6830 C   0  0  0  0  0  0  0  0  0  0  0  0
   36.9060   29.9980   41.6010 C   0  0  0  0  0  0  0  0  0  0  0  0
   38.2380   30.2560   41.9220 C   0  0  0  0  0  0  0  0  0  0  0  0
   38.8380   31.3390   41.3270 N   0  0  0  0  0  0  0  0  0  0  0  0
   38.1990   32.1350   40.4670 C   0  0  0  0  0  0  0  0  0  0  0  0
   36.9120   31.9060   40.1410 N   0  0  0  0  0  0  0  0  0  0  0  0
   35.2420   30.7260   40.3940 H   0  0  0  0  0  0  0  0  0  0  0  0
   36.3590   29.1650   42.0250 H   0  0  0  0  0  0  0  0  0  0  0  0
   38.8330   32.9400   40.0970 H   0  0  0  0  0  0  0  0  0  0  0  0
   37.9290   28.4130   43.4800 C   0  0  0  0  0  0  0  0  0  0  0  0
   37.8540   28.5870   44.5770 H   0  0  0  0  0  0  0  0  0  0  0  0
   36.9510   28.6640   43.0190 H   0  0  0  0  0  0  0  0  0  0  0  0
   38.2800   27.0180   43.1770 C   0  0  0  0  0  0  0  0  0  0  0  0
   39.4510   26.3970   43.5570 C   0  0  0  0  0  0  0  0  0  0  0  0
   40.1610   26.9670   44.1140 H   0  0  0  0  0  0  0  0  0  0  0  0
   39.7810   25.0890   43.2730 C   0  0  0  0  0  3  0  0  0  0  0  0
   38.8330   24.3610   42.5420 C   0  0  0  0  0  0  0  0  0  0  0  0
   39.0520   23.3210   42.2940 H   0  0  0  0  0  0  0  0  0  0  0  0
   37.6470   24.9570   42.1460 C   0  0  0  0  0  0  0  0  0  0  0  0
   36.9400   24.3590   41.5810 H   0  0  0  0  0  0  0  0  0  0  0  0
   37.3540   26.2660   42.4480 C   0  0  0  0  0  3  0  0  0  0  0  0
  1 13  1  0  0  0  0
  1  3  1  0  0  0  0
  2  1  1  0  0  0  0
  4  5  1  0  0  0  0
  5  6  2  0  0  0  0
  5 11  1  0  0  0  0
  6  1  1  0  0  0  0
  7  6  1  0  0  0  0
  8  7  2  0  0  0  0
  9  8  1  0  0  0  0
  9  4  2  0  0  0  0
 10  4  1  0  0  0  0
 12  8  1  0  0  0  0
 13 14  1  0  0  0  0
 15 13  1  0  0  0  0
 16 13  1  0  0  0  0
 16 17  1  0  0  0  0
 17 18  1  0  0  0  0
 19 17  2  0  0  0  0
 20 19  1  0  0  0  0
 21 20  1  0  0  0  0
 22 24  1  0  0  0  0
 22 20  2  0  0  0  0
 23 22  1  0  0  0  0
 24 16  2  0  0  0  0
M  END
>  <minimizedAffinity>
-4.60674953

$$$$

 OpenBabel03252508573D

 24 25  0  0  0  0  0  0  0  0999 V2000
   36.9930   30.7840   39.4330 C   0  0  0  0  0  0  0  0  0  0  0  0
   36.1920   31.0200   38.6950 H   0  0  0  0  0  0  0  0  0  0  0  0
   37.5390   29.8590   39.1900 H   0  0  0  0  0  0  0  0  0  0  0  0
   38.5280   34.1600   40.1360 C   0  0  0  0  0  0  0  0  0  0  0  0
   37.5670   33.1180   40.0670 C   0  0  0  0  0  0  0  0  0  0  0  0
   37.9660   31.8970   39.5230 C   0  0  0  0  0  0  0  0  0  0  0  0
   39.2650   31.7870   39.0910 N   0  0  0  0  0  0  0  0  0  0  0  0
   40.1410   32.7920   39.1730 C   0  0  0  0  0  0  0  0  0  0  0  0
   39.7780   33.9800   39.6940 N   0  0  0  0  0  0  0  0  0  0  0  0
   38.2870   35.1210   40.5420 H   0  0  0  0  0  0  0  0  0  0  0  0
   36.5620   33.2890   40.4310 H   0  0  0  0  0  0  0  0  0  0  0  0
   41.1200   32.5210   38.7810 H   0  0  0  0  0  0  0  0  0  0  0  0
   36.2680   30.6760   40.7660 C   0  0  0  0  0  0  0  0  0  0  0  0
   36.2950   31.6590   41.2890 H   0  0  0  0  0  0  0  0  0  0  0  0
   35.2110   30.4350   40.5280 H   0  0  0  0  0  0  0  0  0  0  0  0
   36.8490   29.6090   41.5940 C   0  0  0  0  0  0  0  0  0  0  0  0
   37.9500   29.7510   42.4110 C   0  0  0  0  0  0  0  0  0  0  0  0
   38.4210   30.7080   42.4510 H   0  0  0  0  0  0  0  0  0  0  0  0
   38.4940   28.7510   43.1860 C   0  0  0  0  0  3  0  0  0  0  0  0
   37.8580   27.5050   43.1180 C   0  0  0  0  0  0  0  0  0  0  0  0
   38.2550   26.6820   43.7150 H   0  0  0  0  0  0  0  0  0  0  0  0
   36.7490   27.3300   42.3050 C   0  0  0  0  0  0  0  0  0  0  0  0
   36.2860   26.3490   42.2800 H   0  0  0  0  0  0  0  0  0  0  0  0
   36.2350   28.3530   41.5450 C   0  0  0  0  0  3  0  0  0  0  0  0
  1  6  1  0  0  0  0
  1 13  1  0  0  0  0
  2  1  1  0  0  0  0
  3  1  1  0  0  0  0
  4 10  1  0  0  0  0
  5  4  1  0  0  0  0
  5 11  1  0  0  0  0
  6  5  2  0  0  0  0
  7  8  2  0  0  0  0
  7  6  1  0  0  0  0
  8  9  1  0  0  0  0
  9  4  2  0  0  0  0
 12  8  1  0  0  0  0
 13 14  1  0  0  0  0
 13 16  1  0  0  0  0
 15 13  1  0  0  0  0
 16 17  1  0  0  0  0
 17 18  1  0  0  0  0
 17 19  2  0  0  0  0
 20 19  1  0  0  0  0
 20 21  1  0  0  0  0
 22 20  2  0  0  0  0
 23 22  1  0  0  0  0
 24 16  2  0  0  0  0
 24 22  1  0  0  0  0
M  END
>  <minimizedAffinity>
-4.46236515

$$$$

 OpenBabel03252508573D

 24 25  0  0  0  0  0  0  0  0999 V2000
   35.4240   29.0620   40.2190 C   0  0  0  0  0  0  0  0  0  0  0  0
   35.1670   29.1210   41.3020 H   0  0  0  0  0  0  0  0  0  0  0  0
   34.5360   28.9880   39.5730 H   0  0  0  0  0  0  0  0  0  0  0  0
   37.3320   31.5410   38.1070 C   0  0  0  0  0  0  0  0  0  0  0  0
   36.5760   30.3950   38.4650 C   0  0  0  0  0  0  0  0  0  0  0  0
   36.2140   30.2440   39.8040 C   0  0  0  0  0  0  0  0  0  0  0  0
   36.6130   31.2190   40.6850 N   0  0  0  0  0  0  0  0  0  0  0  0
   37.3250   32.2840   40.3080 C   0  0  0  0  0  0  0  0  0  0  0  0
   37.6870   32.4510   39.0210 N   0  0  0  0  0  0  0  0  0  0  0  0
   37.6420   31.7160   37.0970 H   0  0  0  0  0  0  0  0  0  0  0  0
   36.3010   29.6730   37.7060 H   0  0  0  0  0  0  0  0  0  0  0  0
   37.5500   32.9480   41.1430 H   0  0  0  0  0  0  0  0  0  0  0  0
   36.3100   27.8310   40.1000 C   0  0  0  0  0  0  0  0  0  0  0  0
   35.6800   26.9300   39.9260 H   0  0  0  0  0  0  0  0  0  0  0  0
   36.9480   27.9910   39.2050 H   0  0  0  0  0  0  0  0  0  0  0  0
   37.1540   27.6770   41.2940 C   0  0  0  0  0  0  0  0  0  0  0  0
   38.5110   27.4330   41.2770 C   0  0  0  0  0  0  0  0  0  0  0  0
   38.9920   27.3500   40.3280 H   0  0  0  0  0  0  0  0  0  0  0  0
   39.3030   27.2880   42.3960 C   0  0  0  0  0  3  0  0  0  0  0  0
   38.6500   27.4020   43.6290 C   0  0  0  0  0  0  0  0  0  0  0  0
   39.2370   27.2940   44.5430 H   0  0  0  0  0  0  0  0  0  0  0  0
   37.2870   27.6460   43.6800 C   0  0  0  0  0  0  0  0  0  0  0  0
   36.8190   27.7270   44.6550 H   0  0  0  0  0  0  0  0  0  0  0  0
   36.5300   27.7840   42.5410 C   0  0  0  0  0  3  0  0  0  0  0  0
  1  2  1  0  0  0  0
  3  1  1  0  0  0  0
  4  5  2  0  0  0  0
  4  9  1  0  0  0  0
  5  6  1  0  0  0  0
  6  1  1  0  0  0  0
  6  7  2  0  0  0  0
  8  7  1  0  0  0  0
  8 12  1  0  0  0  0
  9  8  2  0  0  0  0
 10  4  1  0  0  0  0
 11  5  1  0  0  0  0
 13  1  1  0  0  0  0
 13 16  1  0  0  0  0
 14 13  1  0  0  0  0
 15 13  1  0  0  0  0
 16 24  1  0  0  0  0
 17 16  2  0  0  0  0
 17 19  1  0  0  0  0
 18 17  1  0  0  0  0
 19 20  2  0  0  0  0
 20 22  1  0  0  0  0
 20 21  1  0  0  0  0
 22 23  1  0  0  0  0
 24 22  2  0  0  0  0
M  END
>  <minimizedAffinity>
-4.40593529

$$$$

 OpenBabel03252508573D

 24 25  0  0  0  0  0  0  0  0999 V2000
   36.3650   27.7610   40.0400 C   0  0  0  0  0  0  0  0  0  0  0  0
   37.0250   27.9490   39.1620 H   0  0  0  0  0  0  0  0  0  0  0  0
   35.7430   26.8610   39.9220 H   0  0  0  0  0  0  0  0  0  0  0  0
   37.3620   27.6590   43.6790 C   0  0  0  0  0  0  0  0  0  0  0  0
   36.5600   27.8020   42.5180 C   0  0  0  0  0  0  0  0  0  0  0  0
   37.1690   27.6200   41.2770 C   0  0  0  0  0  0  0  0  0  0  0  0
   38.5080   27.3130   41.2630 N   0  0  0  0  0  0  0  0  0  0  0  0
   39.2300   27.1870   42.3790 C   0  0  0  0  0  0  0  0  0  0  0  0
   38.6630   27.3580   43.5890 N   0  0  0  0  0  0  0  0  0  0  0  0
   36.9570   27.7850   44.6620 H   0  0  0  0  0  0  0  0  0  0  0  0
   35.5100   28.0450   42.6180 H   0  0  0  0  0  0  0  0  0  0  0  0
   40.2710   26.9420   42.1730 H   0  0  0  0  0  0  0  0  0  0  0  0
   35.5180   29.0190   40.1620 C   0  0  0  0  0  0  0  0  0  0  0  0
   34.5700   28.8900   39.5930 H   0  0  0  0  0  0  0  0  0  0  0  0
   35.2690   29.1240   41.2390 H   0  0  0  0  0  0  0  0  0  0  0  0
   36.2660   30.2000   39.7060 C   0  0  0  0  0  0  0  0  0  0  0  0
   36.6580   30.4340   38.4060 C   0  0  0  0  0  0  0  0  0  0  0  0
   36.4010   29.7070   37.6680 H   0  0  0  0  0  0  0  0  0  0  0  0
   37.3590   31.5410   37.9780 C   0  0  0  0  0  3  0  0  0  0  0  0
   37.6830   32.4820   38.9630 C   0  0  0  0  0  0  0  0  0  0  0  0
   38.2380   33.3750   38.6710 H   0  0  0  0  0  0  0  0  0  0  0  0
   37.3030   32.2750   40.2800 C   0  0  0  0  0  0  0  0  0  0  0  0
   37.5750   33.0270   41.0130 H   0  0  0  0  0  0  0  0  0  0  0  0
   36.6050   31.1560   40.6690 C   0  0  0  0  0  3  0  0  0  0  0  0
  1 13  1  0  0  0  0
  1  6  1  0  0  0  0
  2  1  1  0  0  0  0
  3  1  1  0  0  0  0
  4 10  1  0  0  0  0
  5 11  1  0  0  0  0
  5  4  2  0  0  0  0
  6  5  1  0  0  0  0
  7  6  2  0  0  0  0
  7  8  1  0  0  0  0
  8  9  2  0  0  0  0
  9  4  1  0  0  0  0
 12  8  1  0  0  0  0
 13 15  1  0  0  0  0
 14 13  1  0  0  0  0
 16 13  1  0  0  0  0
 16 24  1  0  0  0  0
 17 16  2  0  0  0  0
 18 17  1  0  0  0  0
 19 17  1  0  0  0  0
 19 20  2  0  0  0  0
 20 22  1  0  0  0  0
 21 20  1  0  0  0  0
 22 24  2  0  0  0  0
 22 23  1  0  0  0  0
M  END
>  <minimizedAffinity>
-4.395648

$$$$

 OpenBabel03252508573D

 24 25  0  0  0  0  0  0  0  0999 V2000
   36.9990   30.7310   39.7320 C   0  0  0  0  0  0  0  0  0  0  0  0
   36.1320   30.9470   39.0660 H   0  0  0  0  0  0  0  0  0  0  0  0
   37.5460   29.8210   39.4400 H   0  0  0  0  0  0  0  0  0  0  0  0
   40.1460   32.7840   39.3630 C   0  0  0  0  0  0  0  0  0  0  0  0
   39.2680   31.6690   39.3400 C   0  0  0  0  0  0  0  0  0  0  0  0
   37.9470   31.8690   39.7420 C   0  0  0  0  0  0  0  0  0  0  0  0
   37.5860   33.1360   40.1320 N   0  0  0  0  0  0  0  0  0  0  0  0
   38.4420   34.1600   40.1390 C   0  0  0  0  0  0  0  0  0  0  0  0
   39.7230   33.9910   39.7560 N   0  0  0  0  0  0  0  0  0  0  0  0
   41.1710   32.6980   39.0670 H   0  0  0  0  0  0  0  0  0  0  0  0
   39.6340   30.7030   39.0170 H   0  0  0  0  0  0  0  0  0  0  0  0
   37.9780   35.0850   40.4790 H   0  0  0  0  0  0  0  0  0  0  0  0
   36.3940   30.6030   41.1220 C   0  0  0  0  0  0  0  0  0  0  0  0
   36.5620   31.5440   41.6930 H   0  0  0  0  0  0  0  0  0  0  0  0
   35.3010   30.4720   40.9760 H   0  0  0  0  0  0  0  0  0  0  0  0
   36.9460   29.4370   41.8280 C   0  0  0  0  0  0  0  0  0  0  0  0
   36.3830   28.1790   41.8380 C   0  0  0  0  0  0  0  0  0  0  0  0
   35.4780   28.0330   41.2930 H   0  0  0  0  0  0  0  0  0  0  0  0
   36.9010   27.0870   42.5000 C   0  0  0  0  0  3  0  0  0  0  0  0
   38.0900   27.3030   43.2070 C   0  0  0  0  0  0  0  0  0  0  0  0
   38.5370   26.4660   43.7480 H   0  0  0  0  0  0  0  0  0  0  0  0
   38.6800   28.5570   43.2170 C   0  0  0  0  0  0  0  0  0  0  0  0
   39.6010   28.6830   43.7770 H   0  0  0  0  0  0  0  0  0  0  0  0
   38.1330   29.6240   42.5440 C   0  0  0  0  0  3  0  0  0  0  0  0
  1  6  1  0  0  0  0
  1 13  1  0  0  0  0
  2  1  1  0  0  0  0
  3  1  1  0  0  0  0
  4  9  1  0  0  0  0
  5  4  2  0  0  0  0
  5  6  1  0  0  0  0
  6  7  2  0  0  0  0
  7  8  1  0  0  0  0
  8 12  1  0  0  0  0
  9  8  2  0  0  0  0
 10  4  1  0  0  0  0
 11  5  1  0  0  0  0
 13 14  1  0  0  0  0
 13 16  1  0  0  0  0
 15 13  1  0  0  0  0
 16 17  2  0  0  0  0
 16 24  1  0  0  0  0
 17 19  1  0  0  0  0
 18 17  1  0  0  0  0
 19 20  2  0  0  0  0
 20 22  1  0  0  0  0
 20 21  1  0  0  0  0
 22 23  1  0  0  0  0
 24 22  2  0  0  0  0
M  END
>  <minimizedAffinity>
-4.39102888

$$$$

 OpenBabel03252508573D

 24 25  0  0  0  0  0  0  0  0999 V2000
   36.5740   30.0960   39.3350 C   0  0  0  0  0  0  0  0  0  0  0  0
   35.8200   30.4310   38.5860 H   0  0  0  0  0  0  0  0  0  0  0  0
   37.2690   29.3420   38.9330 H   0  0  0  0  0  0  0  0  0  0  0  0
   37.8580   33.6050   39.8670 C   0  0  0  0  0  0  0  0  0  0  0  0
   37.0810   32.5290   39.3650 C   0  0  0  0  0  0  0  0  0  0  0  0
   37.3630   31.2470   39.8340 C   0  0  0  0  0  0  0  0  0  0  0  0
   38.3740   31.1120   40.7540 N   0  0  0  0  0  0  0  0  0  0  0  0
   39.0830   32.1510   41.2020 C   0  0  0  0  0  0  0  0  0  0  0  0
   38.8300   33.3990   40.7630 N   0  0  0  0  0  0  0  0  0  0  0  0
   37.6940   34.6140   39.5480 H   0  0  0  0  0  0  0  0  0  0  0  0
   36.3010   32.7220   38.6400 H   0  0  0  0  0  0  0  0  0  0  0  0
   39.8430   31.8530   41.9250 H   0  0  0  0  0  0  0  0  0  0  0  0
   35.7520   29.5450   40.4900 C   0  0  0  0  0  0  0  0  0  0  0  0
   35.7490   30.2750   41.3310 H   0  0  0  0  0  0  0  0  0  0  0  0
   34.7130   29.4420   40.1120 H   0  0  0  0  0  0  0  0  0  0  0  0
   36.2610   28.2330   40.9160 C   0  0  0  0  0  0  0  0  0  0  0  0
   36.5000   27.1660   40.0750 C   0  0  0  0  0  0  0  0  0  0  0  0
   36.3050   27.2970   39.0350 H   0  0  0  0  0  0  0  0  0  0  0  0
   36.9770   25.9360   40.4750 C   0  0  0  0  0  3  0  0  0  0  0  0
   37.2270   25.7890   41.8440 C   0  0  0  0  0  0  0  0  0  0  0  0
   37.6050   24.8320   42.2070 H   0  0  0  0  0  0  0  0  0  0  0  0
   36.9960   26.8420   42.7150 C   0  0  0  0  0  0  0  0  0  0  0  0
   37.2020   26.6870   43.7690 H   0  0  0  0  0  0  0  0  0  0  0  0
   36.5190   28.0550   42.2790 C   0  0  0  0  0  3  0  0  0  0  0  0
  1  6  1  0  0  0  0
  1 13  1  0  0  0  0
  2  1  1  0  0  0  0
  3  1  1  0  0  0  0
  4  9  1  0  0  0  0
  5  6  1  0  0  0  0
  5  4  2  0  0  0  0
  6  7  2  0  0  0  0
  7  8  1  0  0  0  0
  8 12  1  0  0  0  0
  9  8  2  0  0  0  0
 10  4  1  0  0  0  0
 11  5  1  0  0  0  0
 13 16  1  0  0  0  0
 13 14  1  0  0  0  0
 15 13  1  0  0  0  0
 16 24  1  0  0  0  0
 17 19  1  0  0  0  0
 17 16  2  0  0  0  0
 18 17  1  0  0  0  0
 19 20  2  0  0  0  0
 20 21  1  0  0  0  0
 20 22  1  0  0  0  0
 22 23  1  0  0  0  0
 24 22  2  0  0  0  0
M  END
>  <minimizedAffinity>
-4.38992882

$$$$

 OpenBabel03252508573D

 24 25  0  0  0  0  0  0  0  0999 V2000
   37.2230   28.1540   42.9900 C   0  0  0  0  0  0  0  0  0  0  0  0
   36.5880   28.2040   43.9040 H   0  0  0  0  0  0  0  0  0  0  0  0
   37.8900   29.0240   42.8850 H   0  0  0  0  0  0  0  0  0  0  0  0
   38.4390   24.6480   42.2990 C   0  0  0  0  0  0  0  0  0  0  0  0
   37.6210   25.8080   42.2720 C   0  0  0  0  0  0  0  0  0  0  0  0
   38.0480   26.9240   42.9920 C   0  0  0  0  0  0  0  0  0  0  0  0
   39.2330   26.8240   43.6790 N   0  0  0  0  0  0  0  0  0  0  0  0
   39.9740   25.7130   43.6800 C   0  0  0  0  0  0  0  0  0  0  0  0
   39.5830   24.6230   42.9920 N   0  0  0  0  0  0  0  0  0  0  0  0
   38.1690   23.7590   41.7670 H   0  0  0  0  0  0  0  0  0  0  0  0
   36.7000   25.8030   41.7040 H   0  0  0  0  0  0  0  0  0  0  0  0
   40.8780   25.8190   44.2790 H   0  0  0  0  0  0  0  0  0  0  0  0
   36.2330   28.0620   41.8380 C   0  0  0  0  0  0  0  0  0  0  0  0
   36.3200   27.0670   41.3470 H   0  0  0  0  0  0  0  0  0  0  0  0
   35.2220   28.1430   42.2890 H   0  0  0  0  0  0  0  0  0  0  0  0
   36.4420   29.1580   40.8800 C   0  0  0  0  0  0  0  0  0  0  0  0
   36.4410   29.0200   39.5080 C   0  0  0  0  0  0  0  0  0  0  0  0
   36.2760   28.0460   39.1050 H   0  0  0  0  0  0  0  0  0  0  0  0
   36.6360   30.0470   38.6100 C   0  0  0  0  0  3  0  0  0  0  0  0
   36.8490   31.3150   39.1630 C   0  0  0  0  0  0  0  0  0  0  0  0
   37.0090   32.1590   38.4900 H   0  0  0  0  0  0  0  0  0  0  0  0
   36.8560   31.4860   40.5380 C   0  0  0  0  0  0  0  0  0  0  0  0
   37.0250   32.4850   40.9270 H   0  0  0  0  0  0  0  0  0  0  0  0
   36.6580   30.4370   41.4030 C   0  0  0  0  0  3  0  0  0  0  0  0
  1  6  1  0  0  0  0
  1  2  1  0  0  0  0
  3  1  1  0  0  0  0
  4  9  1  0  0  0  0
  5  4  2  0  0  0  0
  5  6  1  0  0  0  0
  6  7  2  0  0  0  0
  7  8  1  0  0  0  0
  8 12  1  0  0  0  0
  9  8  2  0  0  0  0
 10  4  1  0  0  0  0
 11  5  1  0  0  0  0
 13 15  1  0  0  0  0
 13  1  1  0  0  0  0
 14 13  1  0  0  0  0
 16 24  1  0  0  0  0
 16 13  1  0  0  0  0
 17 16  2  0  0  0  0
 18 17  1  0  0  0  0
 19 20  2  0  0  0  0
 19 17  1  0  0  0  0
 20 22  1  0  0  0  0
 21 20  1  0  0  0  0
 22 23  1  0  0  0  0
 22 24  2  0  0  0  0
M  END
>  <minimizedAffinity>
-4.34278679

$$$$

 OpenBabel03252508573D

 24 25  0  0  0  0  0  0  0  0999 V2000
   36.5580   28.5830   41.6550 C   0  0  0  0  0  0  0  0  0  0  0  0
   35.5140   28.8520   41.9390 H   0  0  0  0  0  0  0  0  0  0  0  0
   36.6080   27.7010   40.9990 H   0  0  0  0  0  0  0  0  0  0  0  0
   38.9980   30.6050   39.6050 C   0  0  0  0  0  0  0  0  0  0  0  0
   38.3900   29.4930   40.2430 C   0  0  0  0  0  0  0  0  0  0  0  0
   37.2240   29.7170   40.9740 C   0  0  0  0  0  0  0  0  0  0  0  0
   36.7420   31.0030   41.0260 N   0  0  0  0  0  0  0  0  0  0  0  0
   37.3440   32.0230   40.4110 C   0  0  0  0  0  0  0  0  0  0  0  0
   38.4720   31.8310   39.6990 N   0  0  0  0  0  0  0  0  0  0  0  0
   39.8940   30.5010   39.0280 H   0  0  0  0  0  0  0  0  0  0  0  0
   38.8360   28.5100   40.1510 H   0  0  0  0  0  0  0  0  0  0  0  0
   36.8200   32.9660   40.5640 H   0  0  0  0  0  0  0  0  0  0  0  0
   37.2670   28.3390   42.9800 C   0  0  0  0  0  0  0  0  0  0  0  0
   37.9430   29.1940   43.2060 H   0  0  0  0  0  0  0  0  0  0  0  0
   36.4740   28.3040   43.7560 H   0  0  0  0  0  0  0  0  0  0  0  0
   37.9980   27.0640   42.9560 C   0  0  0  0  0  0  0  0  0  0  0  0
   37.5950   25.9340   42.2770 C   0  0  0  0  0  0  0  0  0  0  0  0
   36.6840   25.9820   41.7240 H   0  0  0  0  0  0  0  0  0  0  0  0
   38.2800   24.7380   42.2550 C   0  0  0  0  0  3  0  0  0  0  0  0
   39.4730   24.7000   42.9860 C   0  0  0  0  0  0  0  0  0  0  0  0
   40.0500   23.7730   42.9980 H   0  0  0  0  0  0  0  0  0  0  0  0
   39.9050   25.8190   43.6800 C   0  0  0  0  0  0  0  0  0  0  0  0
   40.8350   25.7480   44.2340 H   0  0  0  0  0  0  0  0  0  0  0  0
   39.1930   26.9950   43.6780 C   0  0  0  0  0  3  0  0  0  0  0  0
  1  2  1  0  0  0  0
  1 13  1  0  0  0  0
  3  1  1  0  0  0  0
  4  9  2  0  0  0  0
  4  5  1  0  0  0  0
  5  6  2  0  0  0  0
  6  7  1  0  0  0  0
  6  1  1  0  0  0  0
  8 12  1  0  0  0  0
  8  7  2  0  0  0  0
  9  8  1  0  0  0  0
 10  4  1  0  0  0  0
 11  5  1  0  0  0  0
 13 14  1  0  0  0  0
 13 15  1  0  0  0  0
 16 13  1  0  0  0  0
 16 24  1  0  0  0  0
 17 16  2  0  0  0  0
 18 17  1  0  0  0  0
 19 17  1  0  0  0  0
 19 20  2  0  0  0  0
 20 21  1  0  0  0  0
 20 22  1  0  0  0  0
 22 23  1  0  0  0  0
 24 22  2  0  0  0  0
M  END
>  <minimizedAffinity>
-4.26595926

$$$$
