
 OpenBabel03252506593D

 24 25  0  0  0  0  0  0  0  0999 V2000
   38.8180   29.3220   42.9290 C   0  0  0  0  0  0  0  0  0  0  0  0
   39.5770   28.6770   42.4970 H   0  0  0  0  0  0  0  0  0  0  0  0
   39.3430   29.9090   43.7190 H   0  0  0  0  0  0  0  0  0  0  0  0
   38.1190   30.1600   41.9580 C   0  0  0  0  0  0  0  0  0  0  0  0
   36.8010   29.9140   41.5860 C   0  0  0  0  0  0  0  0  0  0  0  0
   36.1990   30.7870   40.6370 C   0  0  0  0  0  0  0  0  0  0  0  0
   36.9570   31.8130   40.1510 N   0  0  0  0  0  0  0  0  0  0  0  0
   38.2430   32.0080   40.5500 C   0  0  0  0  0  0  0  0  0  0  0  0
   38.8120   31.1790   41.4500 N   0  0  0  0  0  0  0  0  0  0  0  0
   36.2560   29.0860   42.0070 H   0  0  0  0  0  0  0  0  0  0  0  0
   35.1840   30.6270   40.3270 H   0  0  0  0  0  0  0  0  0  0  0  0
   38.7990   32.8400   40.1310 H   0  0  0  0  0  0  0  0  0  0  0  0
   37.8170   28.4280   43.6040 C   0  0  0  0  0  0  0  0  0  0  0  0
   37.8720   28.4730   44.7160 H   0  0  0  0  0  0  0  0  0  0  0  0
   36.8110   28.6860   43.2310 H   0  0  0  0  0  0  0  0  0  0  0  0
   38.1730   27.0280   43.2390 C   0  0  0  0  0  0  0  0  0  0  0  0
   39.3920   26.5010   43.5860 C   0  0  0  0  0  0  0  0  0  0  0  0
   40.1170   27.1030   44.1360 H   0  0  0  0  0  0  0  0  0  0  0  0
   39.7230   25.1880   43.2420 C   0  0  0  0  0  3  0  0  0  0  0  0
   38.8420   24.4120   42.5570 C   0  0  0  0  0  0  0  0  0  0  0  0
   39.0460   23.3820   42.2620 H   0  0  0  0  0  0  0  0  0  0  0  0
   37.5870   24.9020   42.1790 C   0  0  0  0  0  0  0  0  0  0  0  0
   36.8590   24.3070   41.6300 H   0  0  0  0  0  0  0  0  0  0  0  0
   37.3110   26.2100   42.5460 C   0  0  0  0  0  3  0  0  0  0  0  0
  1 13  1  0  0  0  0
  1  3  1  0  0  0  0
  2  1  1  0  0  0  0
  4  1  1  0  0  0  0
  5  4  1  0  0  0  0
  5 10  1  0  0  0  0
  6  5  2  0  0  0  0
  7  8  2  0  0  0  0
  7  6  1  0  0  0  0
  8  9  1  0  0  0  0
  9  4  2  0  0  0  0
 11  6  1  0  0  0  0
 12  8  1  0  0  0  0
 13 14  1  0  0  0  0
 15 13  1  0  0  0  0
 16 17  1  0  0  0  0
 16 13  1  0  0  0  0
 17 18  1  0  0  0  0
 19 17  2  0  0  0  0
 20 19  1  0  0  0  0
 21 20  1  0  0  0  0
 22 24  1  0  0  0  0
 22 20  2  0  0  0  0
 23 22  1  0  0  0  0
 24 16  2  0  0  0  0
M  END
>  <minimizedAffinity>
-4.61250687

$$$$

 OpenBabel03252506593D

 24 25  0  0  0  0  0  0  0  0999 V2000
   36.8910   28.7970   42.0240 C   0  0  0  0  0  0  0  0  0  0  0  0
   35.8120   28.8740   42.1100 H   0  0  0  0  0  0  0  0  0  0  0  0
   37.0730   27.9630   41.3060 H   0  0  0  0  0  0  0  0  0  0  0  0
   37.5520   30.0420   41.6390 C   0  0  0  0  0  0  0  0  0  0  0  0
   38.8660   30.3210   42.0000 C   0  0  0  0  0  0  0  0  0  0  0  0
   39.4300   31.5560   41.5760 C   0  0  0  0  0  0  0  0  0  0  0  0
   38.6400   32.3920   40.8380 N   0  0  0  0  0  0  0  0  0  0  0  0
   37.3600   32.0690   40.5130 C   0  0  0  0  0  0  0  0  0  0  0  0
   36.8280   30.8960   40.9170 N   0  0  0  0  0  0  0  0  0  0  0  0
   39.4370   29.6180   42.5840 H   0  0  0  0  0  0  0  0  0  0  0  0
   40.4410   31.8050   41.8360 H   0  0  0  0  0  0  0  0  0  0  0  0
   36.7770   32.7710   39.9240 H   0  0  0  0  0  0  0  0  0  0  0  0
   37.4090   28.3720   43.3690 C   0  0  0  0  0  0  0  0  0  0  0  0
   38.1660   29.0740   43.7870 H   0  0  0  0  0  0  0  0  0  0  0  0
   36.5490   28.2420   44.0490 H   0  0  0  0  0  0  0  0  0  0  0  0
   38.1230   27.0800   43.1680 C   0  0  0  0  0  0  0  0  0  0  0  0
   37.5410   26.0620   42.4550 C   0  0  0  0  0  0  0  0  0  0  0  0
   36.5460   26.1860   42.0270 H   0  0  0  0  0  0  0  0  0  0  0  0
   38.2140   24.8510   42.2680 C   0  0  0  0  0  3  0  0  0  0  0  0
   39.4550   24.6650   42.7900 C   0  0  0  0  0  0  0  0  0  0  0  0
   40.0260   23.7420   42.6750 H   0  0  0  0  0  0  0  0  0  0  0  0
   40.0910   25.6710   43.5230 C   0  0  0  0  0  0  0  0  0  0  0  0
   41.0850   25.5540   43.9530 H   0  0  0  0  0  0  0  0  0  0  0  0
   39.3800   26.8510   43.6780 C   0  0  0  0  0  3  0  0  0  0  0  0
  1  2  1  0  0  0  0
  1 13  1  0  0  0  0
  3  1  1  0  0  0  0
  4  5  1  0  0  0  0
  4  1  1  0  0  0  0
  5 10  1  0  0  0  0
  6 11  1  0  0  0  0
  6  5  2  0  0  0  0
  7  6  1  0  0  0  0
  8  7  2  0  0  0  0
  8  9  1  0  0  0  0
  9  4  2  0  0  0  0
 12  8  1  0  0  0  0
 13 14  1  0  0  0  0
 13 15  1  0  0  0  0
 16 13  1  0  0  0  0
 16 24  1  0  0  0  0
 17 16  2  0  0  0  0
 18 17  1  0  0  0  0
 19 17  1  0  0  0  0
 19 20  2  0  0  0  0
 20 22  1  0  0  0  0
 21 20  1  0  0  0  0
 22 24  2  0  0  0  0
 22 23  1  0  0  0  0
M  END
>  <minimizedAffinity>
-4.54553795

$$$$

 OpenBabel03252506593D

 24 25  0  0  0  0  0  0  0  0999 V2000
   36.9930   30.7430   39.7280 C   0  0  0  0  0  0  0  0  0  0  0  0
   36.1930   30.8370   39.0000 H   0  0  0  0  0  0  0  0  0  0  0  0
   37.4700   29.7570   39.5200 H   0  0  0  0  0  0  0  0  0  0  0  0
   37.9430   31.8540   39.7230 C   0  0  0  0  0  0  0  0  0  0  0  0
   37.5700   33.1430   40.0880 C   0  0  0  0  0  0  0  0  0  0  0  0
   38.5630   34.1610   40.0580 C   0  0  0  0  0  0  0  0  0  0  0  0
   39.8230   33.8040   39.6710 N   0  0  0  0  0  0  0  0  0  0  0  0
   40.1330   32.5260   39.3240 C   0  0  0  0  0  0  0  0  0  0  0  0
   39.1890   31.5630   39.3540 N   0  0  0  0  0  0  0  0  0  0  0  0
   36.5570   33.3610   40.3830 H   0  0  0  0  0  0  0  0  0  0  0  0
   38.3110   35.1680   40.3320 H   0  0  0  0  0  0  0  0  0  0  0  0
   41.1520   32.2980   39.0260 H   0  0  0  0  0  0  0  0  0  0  0  0
   36.3450   30.6680   41.0820 C   0  0  0  0  0  0  0  0  0  0  0  0
   36.5670   31.5530   41.7220 H   0  0  0  0  0  0  0  0  0  0  0  0
   35.2600   30.5240   40.9420 H   0  0  0  0  0  0  0  0  0  0  0  0
   36.9470   29.5000   41.7840 C   0  0  0  0  0  0  0  0  0  0  0  0
   38.0850   29.6450   42.5370 C   0  0  0  0  0  0  0  0  0  0  0  0
   38.5640   30.6210   42.6310 H   0  0  0  0  0  0  0  0  0  0  0  0
   38.6480   28.5480   43.1950 C   0  0  0  0  0  3  0  0  0  0  0  0
   38.0750   27.3190   43.0970 C   0  0  0  0  0  0  0  0  0  0  0  0
   38.4690   26.4280   43.5870 H   0  0  0  0  0  0  0  0  0  0  0  0
   36.9150   27.1180   42.3420 C   0  0  0  0  0  0  0  0  0  0  0  0
   36.4310   26.1470   42.2440 H   0  0  0  0  0  0  0  0  0  0  0  0
   36.3990   28.2400   41.7120 C   0  0  0  0  0  3  0  0  0  0  0  0
  1 13  1  0  0  0  0
  2  1  1  0  0  0  0
  3  1  1  0  0  0  0
  4  1  1  0  0  0  0
  4  5  1  0  0  0  0
  5 10  1  0  0  0  0
  6  5  2  0  0  0  0
  6 11  1  0  0  0  0
  7  6  1  0  0  0  0
  8  9  1  0  0  0  0
  8  7  2  0  0  0  0
  9  4  2  0  0  0  0
 12  8  1  0  0  0  0
 13 14  1  0  0  0  0
 13 16  1  0  0  0  0
 15 13  1  0  0  0  0
 16 17  1  0  0  0  0
 17 18  1  0  0  0  0
 17 19  2  0  0  0  0
 20 19  1  0  0  0  0
 20 21  1  0  0  0  0
 22 20  2  0  0  0  0
 23 22  1  0  0  0  0
 24 16  2  0  0  0  0
 24 22  1  0  0  0  0
M  END
>  <minimizedAffinity>
-4.43366289

$$$$

 OpenBabel03252506593D

 24 25  0  0  0  0  0  0  0  0999 V2000
   36.2090   27.8440   40.2130 C   0  0  0  0  0  0  0  0  0  0  0  0
   36.7170   27.9530   39.2600 H   0  0  0  0  0  0  0  0  0  0  0  0
   35.5220   26.9740   40.0840 H   0  0  0  0  0  0  0  0  0  0  0  0
   37.1060   27.7030   41.3590 C   0  0  0  0  0  0  0  0  0  0  0  0
   38.4670   27.4620   41.2040 C   0  0  0  0  0  0  0  0  0  0  0  0
   39.2630   27.3450   42.3760 C   0  0  0  0  0  0  0  0  0  0  0  0
   38.6370   27.4760   43.5830 N   0  0  0  0  0  0  0  0  0  0  0  0
   37.3010   27.7100   43.6770 C   0  0  0  0  0  0  0  0  0  0  0  0
   36.5470   27.8220   42.5630 N   0  0  0  0  0  0  0  0  0  0  0  0
   38.9010   27.3690   40.2220 H   0  0  0  0  0  0  0  0  0  0  0  0
   40.3180   27.1590   42.2950 H   0  0  0  0  0  0  0  0  0  0  0  0
   36.8550   27.8070   44.6620 H   0  0  0  0  0  0  0  0  0  0  0  0
   35.3700   29.0750   40.4060 C   0  0  0  0  0  0  0  0  0  0  0  0
   34.4240   29.0540   39.8180 H   0  0  0  0  0  0  0  0  0  0  0  0
   35.1800   29.2020   41.4860 H   0  0  0  0  0  0  0  0  0  0  0  0
   36.1550   30.2210   39.8680 C   0  0  0  0  0  0  0  0  0  0  0  0
   36.5210   31.2630   40.6830 C   0  0  0  0  0  0  0  0  0  0  0  0
   36.2400   31.2650   41.7370 H   0  0  0  0  0  0  0  0  0  0  0  0
   37.2580   32.3370   40.1760 C   0  0  0  0  0  3  0  0  0  0  0  0
   37.6230   32.3650   38.8670 C   0  0  0  0  0  0  0  0  0  0  0  0
   38.1970   33.1760   38.4170 H   0  0  0  0  0  0  0  0  0  0  0  0
   37.2750   31.3280   37.9960 C   0  0  0  0  0  0  0  0  0  0  0  0
   37.5520   31.3200   36.9430 H   0  0  0  0  0  0  0  0  0  0  0  0
   36.5450   30.2880   38.5510 C   0  0  0  0  0  3  0  0  0  0  0  0
  1 13  1  0  0  0  0
  1  4  1  0  0  0  0
  2  1  1  0  0  0  0
  3  1  1  0  0  0  0
  4  9  1  0  0  0  0
  5  4  2  0  0  0  0
  5  6  1  0  0  0  0
  6  7  2  0  0  0  0
  7  8  1  0  0  0  0
  8 12  1  0  0  0  0
  9  8  2  0  0  0  0
 10  5  1  0  0  0  0
 11  6  1  0  0  0  0
 13 15  1  0  0  0  0
 14 13  1  0  0  0  0
 16 13  1  0  0  0  0
 16 17  1  0  0  0  0
 17 18  1  0  0  0  0
 19 17  2  0  0  0  0
 20 19  1  0  0  0  0
 21 20  1  0  0  0  0
 22 24  1  0  0  0  0
 22 20  2  0  0  0  0
 23 22  1  0  0  0  0
 24 16  2  0  0  0  0
M  END
>  <minimizedAffinity>
-4.38433886

$$$$

 OpenBabel03252506593D

 24 25  0  0  0  0  0  0  0  0999 V2000
   37.9240   28.2470   43.4320 C   0  0  0  0  0  0  0  0  0  0  0  0
   36.9880   28.4950   42.9410 H   0  0  0  0  0  0  0  0  0  0  0  0
   37.7560   28.4600   44.5140 H   0  0  0  0  0  0  0  0  0  0  0  0
   38.3920   26.8860   43.1790 C   0  0  0  0  0  0  0  0  0  0  0  0
   39.6030   26.4190   43.6800 C   0  0  0  0  0  0  0  0  0  0  0  0
   39.9750   25.0770   43.3870 C   0  0  0  0  0  0  0  0  0  0  0  0
   39.1160   24.3330   42.6310 N   0  0  0  0  0  0  0  0  0  0  0  0
   37.9430   24.8400   42.1660 C   0  0  0  0  0  0  0  0  0  0  0  0
   37.5920   26.1130   42.4460 N   0  0  0  0  0  0  0  0  0  0  0  0
   40.2370   27.0580   44.2710 H   0  0  0  0  0  0  0  0  0  0  0  0
   40.9030   24.6830   43.7570 H   0  0  0  0  0  0  0  0  0  0  0  0
   37.2980   24.2030   41.5700 H   0  0  0  0  0  0  0  0  0  0  0  0
   38.9550   29.2140   42.9240 C   0  0  0  0  0  0  0  0  0  0  0  0
   39.3730   29.8670   43.7230 H   0  0  0  0  0  0  0  0  0  0  0  0
   39.7450   28.6420   42.4060 H   0  0  0  0  0  0  0  0  0  0  0  0
   38.2590   30.1300   41.9770 C   0  0  0  0  0  0  0  0  0  0  0  0
   36.9330   29.9470   41.6730 C   0  0  0  0  0  0  0  0  0  0  0  0
   36.3710   29.1270   42.1220 H   0  0  0  0  0  0  0  0  0  0  0  0
   36.2820   30.8080   40.7850 C   0  0  0  0  0  3  0  0  0  0  0  0
   36.9540   31.8390   40.2080 C   0  0  0  0  0  0  0  0  0  0  0  0
   36.4990   32.5410   39.5080 H   0  0  0  0  0  0  0  0  0  0  0  0
   38.3060   32.0680   40.4840 C   0  0  0  0  0  0  0  0  0  0  0  0
   38.8720   32.8840   40.0400 H   0  0  0  0  0  0  0  0  0  0  0  0
   38.9010   31.1850   41.3720 C   0  0  0  0  0  3  0  0  0  0  0  0
  1  3  1  0  0  0  0
  2  1  1  0  0  0  0
  4  1  1  0  0  0  0
  4  5  1  0  0  0  0
  5 10  1  0  0  0  0
  6  5  2  0  0  0  0
  6 11  1  0  0  0  0
  7  6  1  0  0  0  0
  8  9  1  0  0  0  0
  8  7  2  0  0  0  0
  9  4  2  0  0  0  0
 12  8  1  0  0  0  0
 13  1  1  0  0  0  0
 13 14  1  0  0  0  0
 15 13  1  0  0  0  0
 16 13  1  0  0  0  0
 17 16  1  0  0  0  0
 17 18  1  0  0  0  0
 19 17  2  0  0  0  0
 20 22  2  0  0  0  0
 20 19  1  0  0  0  0
 21 20  1  0  0  0  0
 22 24  1  0  0  0  0
 23 22  1  0  0  0  0
 24 16  2  0  0  0  0
M  END
>  <minimizedAffinity>
-4.3535223

$$$$

 OpenBabel03252506593D

 24 25  0  0  0  0  0  0  0  0999 V2000
   36.8970   27.7620   42.7520 C   0  0  0  0  0  0  0  0  0  0  0  0
   36.4520   28.0510   41.8050 H   0  0  0  0  0  0  0  0  0  0  0  0
   36.0510   27.7260   43.4780 H   0  0  0  0  0  0  0  0  0  0  0  0
   37.6650   26.5200   42.7000 C   0  0  0  0  0  0  0  0  0  0  0  0
   37.1470   25.3570   42.1400 C   0  0  0  0  0  0  0  0  0  0  0  0
   37.9680   24.1960   42.1290 C   0  0  0  0  0  0  0  0  0  0  0  0
   39.2170   24.2990   42.6710 N   0  0  0  0  0  0  0  0  0  0  0  0
   39.6740   25.4630   43.2070 C   0  0  0  0  0  0  0  0  0  0  0  0
   38.8920   26.5630   43.2160 N   0  0  0  0  0  0  0  0  0  0  0  0
   36.1510   25.3410   41.7280 H   0  0  0  0  0  0  0  0  0  0  0  0
   37.6010   23.2800   41.7050 H   0  0  0  0  0  0  0  0  0  0  0  0
   40.6750   25.4880   43.6240 H   0  0  0  0  0  0  0  0  0  0  0  0
   37.8140   28.8790   43.1640 C   0  0  0  0  0  0  0  0  0  0  0  0
   37.4950   29.3810   44.1060 H   0  0  0  0  0  0  0  0  0  0  0  0
   38.8400   28.4790   43.2380 H   0  0  0  0  0  0  0  0  0  0  0  0
   37.7290   29.9210   42.1020 C   0  0  0  0  0  0  0  0  0  0  0  0
   36.5490   30.1530   41.4410 C   0  0  0  0  0  0  0  0  0  0  0  0
   35.6560   29.5750   41.6850 H   0  0  0  0  0  0  0  0  0  0  0  0
   36.4720   31.1310   40.4460 C   0  0  0  0  0  3  0  0  0  0  0  0
   37.5670   31.8670   40.1170 C   0  0  0  0  0  0  0  0  0  0  0  0
   37.5650   32.6430   39.3500 H   0  0  0  0  0  0  0  0  0  0  0  0
   38.7920   31.6700   40.7610 C   0  0  0  0  0  0  0  0  0  0  0  0
   39.6870   32.2430   40.5220 H   0  0  0  0  0  0  0  0  0  0  0  0
   38.8120   30.6880   41.7400 C   0  0  0  0  0  3  0  0  0  0  0  0
  1 13  1  0  0  0  0
  1  3  1  0  0  0  0
  2  1  1  0  0  0  0
  4  1  1  0  0  0  0
  4  9  1  0  0  0  0
  5  4  2  0  0  0  0
  6  5  1  0  0  0  0
  6  7  2  0  0  0  0
  7  8  1  0  0  0  0
  8  9  2  0  0  0  0
  8 12  1  0  0  0  0
 10  5  1  0  0  0  0
 11  6  1  0  0  0  0
 13 15  1  0  0  0  0
 13 14  1  0  0  0  0
 16 13  1  0  0  0  0
 17 18  1  0  0  0  0
 17 16  2  0  0  0  0
 19 17  1  0  0  0  0
 20 19  2  0  0  0  0
 20 22  1  0  0  0  0
 21 20  1  0  0  0  0
 22 24  2  0  0  0  0
 23 22  1  0  0  0  0
 24 16  1  0  0  0  0
M  END
>  <minimizedAffinity>
-4.29942703

$$$$

 OpenBabel03252506593D

 24 25  0  0  0  0  0  0  0  0999 V2000
   36.1690   30.6710   41.0990 C   0  0  0  0  0  0  0  0  0  0  0  0
   36.5480   30.2830   42.0390 H   0  0  0  0  0  0  0  0  0  0  0  0
   35.3770   31.4060   41.3800 H   0  0  0  0  0  0  0  0  0  0  0  0
   37.1950   31.2370   40.2250 C   0  0  0  0  0  0  0  0  0  0  0  0
   37.0410   31.2840   38.8440 C   0  0  0  0  0  0  0  0  0  0  0  0
   38.0900   31.8570   38.0730 C   0  0  0  0  0  0  0  0  0  0  0  0
   39.1840   32.3250   38.7420 N   0  0  0  0  0  0  0  0  0  0  0  0
   39.2830   32.2530   40.0960 C   0  0  0  0  0  0  0  0  0  0  0  0
   38.2860   31.7090   40.8260 N   0  0  0  0  0  0  0  0  0  0  0  0
   36.1510   30.8970   38.3760 H   0  0  0  0  0  0  0  0  0  0  0  0
   38.0050   31.9100   37.0030 H   0  0  0  0  0  0  0  0  0  0  0  0
   40.1760   32.6410   40.5770 H   0  0  0  0  0  0  0  0  0  0  0  0
   35.5060   29.5260   40.3880 C   0  0  0  0  0  0  0  0  0  0  0  0
   34.4220   29.4330   40.6250 H   0  0  0  0  0  0  0  0  0  0  0  0
   35.6820   29.6400   39.3040 H   0  0  0  0  0  0  0  0  0  0  0  0
   36.1400   28.2770   40.8970 C   0  0  0  0  0  0  0  0  0  0  0  0
   36.4640   27.2560   40.0390 C   0  0  0  0  0  0  0  0  0  0  0  0
   36.2610   27.3460   38.9720 H   0  0  0  0  0  0  0  0  0  0  0  0
   37.0590   26.0860   40.5200 C   0  0  0  0  0  3  0  0  0  0  0  0
   37.3240   25.9420   41.8450 C   0  0  0  0  0  0  0  0  0  0  0  0
   37.7860   25.0530   42.2760 H   0  0  0  0  0  0  0  0  0  0  0  0
   37.0130   26.9530   42.7600 C   0  0  0  0  0  0  0  0  0  0  0  0
   37.2140   26.8700   43.8270 H   0  0  0  0  0  0  0  0  0  0  0  0
   36.4260   28.0920   42.2290 C   0  0  0  0  0  3  0  0  0  0  0  0
  1  3  1  0  0  0  0
  1  2  1  0  0  0  0
  4  9  1  0  0  0  0
  4  1  1  0  0  0  0
  5  4  2  0  0  0  0
  6  7  2  0  0  0  0
  6  5  1  0  0  0  0
  7  8  1  0  0  0  0
  8 12  1  0  0  0  0
  8  9  2  0  0  0  0
 10  5  1  0  0  0  0
 11  6  1  0  0  0  0
 13 14  1  0  0  0  0
 13 16  1  0  0  0  0
 13  1  1  0  0  0  0
 15 13  1  0  0  0  0
 16 24  1  0  0  0  0
 17 19  1  0  0  0  0
 17 16  2  0  0  0  0
 18 17  1  0  0  0  0
 19 20  2  0  0  0  0
 20 21  1  0  0  0  0
 20 22  1  0  0  0  0
 22 23  1  0  0  0  0
 24 22  2  0  0  0  0
M  END
>  <minimizedAffinity>
-4.26206541

$$$$

 OpenBabel03252506593D

 24 25  0  0  0  0  0  0  0  0999 V2000
   37.3980   28.8420   41.2290 C   0  0  0  0  0  0  0  0  0  0  0  0
   36.3870   28.5950   40.9190 H   0  0  0  0  0  0  0  0  0  0  0  0
   38.0590   28.1330   40.6770 H   0  0  0  0  0  0  0  0  0  0  0  0
   37.7620   30.2430   41.0280 C   0  0  0  0  0  0  0  0  0  0  0  0
   36.8890   31.1540   40.4450 C   0  0  0  0  0  0  0  0  0  0  0  0
   37.3270   32.4990   40.2940 C   0  0  0  0  0  0  0  0  0  0  0  0
   38.5830   32.8080   40.7340 N   0  0  0  0  0  0  0  0  0  0  0  0
   39.3970   31.8760   41.2970 C   0  0  0  0  0  0  0  0  0  0  0  0
   38.9780   30.6010   41.4390 N   0  0  0  0  0  0  0  0  0  0  0  0
   35.9090   30.8470   40.1190 H   0  0  0  0  0  0  0  0  0  0  0  0
   36.6800   33.2310   39.8480 H   0  0  0  0  0  0  0  0  0  0  0  0
   40.3850   32.1770   41.6290 H   0  0  0  0  0  0  0  0  0  0  0  0
   37.4970   28.5220   42.6940 C   0  0  0  0  0  0  0  0  0  0  0  0
   38.1500   29.2310   43.2520 H   0  0  0  0  0  0  0  0  0  0  0  0
   36.4760   28.4880   43.1130 H   0  0  0  0  0  0  0  0  0  0  0  0
   38.1580   27.1920   42.8020 C   0  0  0  0  0  0  0  0  0  0  0  0
   37.6390   26.0970   42.1560 C   0  0  0  0  0  0  0  0  0  0  0  0
   36.7350   26.1890   41.5540 H   0  0  0  0  0  0  0  0  0  0  0  0
   38.2620   24.8500   42.2590 C   0  0  0  0  0  3  0  0  0  0  0  0
   39.3900   24.7030   43.0020 C   0  0  0  0  0  0  0  0  0  0  0  0
   39.9180   23.7550   43.1180 H   0  0  0  0  0  0  0  0  0  0  0  0
   39.9580   25.7870   43.6800 C   0  0  0  0  0  0  0  0  0  0  0  0
   40.8610   25.7020   44.2820 H   0  0  0  0  0  0  0  0  0  0  0  0
   39.3010   26.9990   43.5420 C   0  0  0  0  0  3  0  0  0  0  0  0
  1 13  1  0  0  0  0
  2  1  1  0  0  0  0
  3  1  1  0  0  0  0
  4  1  1  0  0  0  0
  4  9  1  0  0  0  0
  5  4  2  0  0  0  0
  6  5  1  0  0  0  0
  6  7  2  0  0  0  0
  7  8  1  0  0  0  0
  8  9  2  0  0  0  0
  8 12  1  0  0  0  0
 10  5  1  0  0  0  0
 11  6  1  0  0  0  0
 13 16  1  0  0  0  0
 13 15  1  0  0  0  0
 13 14  1  0  0  0  0
 16 24  1  0  0  0  0
 17 19  1  0  0  0  0
 17 16  2  0  0  0  0
 18 17  1  0  0  0  0
 19 20  2  0  0  0  0
 20 21  1  0  0  0  0
 20 22  1  0  0  0  0
 22 23  1  0  0  0  0
 24 22  2  0  0  0  0
M  END
>  <minimizedAffinity>
-4.2208271

$$$$

 OpenBabel03252506593D

 24 25  0  0  0  0  0  0  0  0999 V2000
   36.8900   28.2410   41.5640 C   0  0  0  0  0  0  0  0  0  0  0  0
   36.7790   28.4710   42.6190 H   0  0  0  0  0  0  0  0  0  0  0  0
   37.8350   28.7440   41.2500 H   0  0  0  0  0  0  0  0  0  0  0  0
   36.8680   26.8130   41.2550 C   0  0  0  0  0  0  0  0  0  0  0  0
   36.6680   26.3430   39.9620 C   0  0  0  0  0  0  0  0  0  0  0  0
   36.6670   24.9360   39.7530 C   0  0  0  0  0  0  0  0  0  0  0  0
   36.8640   24.1350   40.8420 N   0  0  0  0  0  0  0  0  0  0  0  0
   37.0550   24.6490   42.0860 C   0  0  0  0  0  0  0  0  0  0  0  0
   37.0560   25.9840   42.2810 N   0  0  0  0  0  0  0  0  0  0  0  0
   36.5170   27.0280   39.1440 H   0  0  0  0  0  0  0  0  0  0  0  0
   36.5150   24.5360   38.7680 H   0  0  0  0  0  0  0  0  0  0  0  0
   37.2080   23.9660   42.9160 H   0  0  0  0  0  0  0  0  0  0  0  0
   35.7500   28.9080   40.8480 C   0  0  0  0  0  0  0  0  0  0  0  0
   35.2760   28.2550   40.0800 H   0  0  0  0  0  0  0  0  0  0  0  0
   35.0200   29.2540   41.6000 H   0  0  0  0  0  0  0  0  0  0  0  0
   36.3250   30.0600   40.0990 C   0  0  0  0  0  0  0  0  0  0  0  0
   36.5580   29.9730   38.7500 C   0  0  0  0  0  0  0  0  0  0  0  0
   36.3240   29.0560   38.2070 H   0  0  0  0  0  0  0  0  0  0  0  0
   37.0980   31.0560   38.0500 C   0  0  0  0  0  3  0  0  0  0  0  0
   37.4010   32.2120   38.6970 C   0  0  0  0  0  0  0  0  0  0  0  0
   37.8240   33.0880   38.2030 H   0  0  0  0  0  0  0  0  0  0  0  0
   37.1830   32.3510   40.0720 C   0  0  0  0  0  0  0  0  0  0  0  0
   37.4140   33.2640   40.6190 H   0  0  0  0  0  0  0  0  0  0  0  0
   36.6450   31.2480   40.7150 C   0  0  0  0  0  3  0  0  0  0  0  0
  1  2  1  0  0  0  0
  3  1  1  0  0  0  0
  4  1  1  0  0  0  0
  4  9  1  0  0  0  0
  5  4  2  0  0  0  0
  6  5  1  0  0  0  0
  6  7  2  0  0  0  0
  7  8  1  0  0  0  0
  8  9  2  0  0  0  0
  8 12  1  0  0  0  0
 10  5  1  0  0  0  0
 11  6  1  0  0  0  0
 13  1  1  0  0  0  0
 13 15  1  0  0  0  0
 14 13  1  0  0  0  0
 16 24  1  0  0  0  0
 16 13  1  0  0  0  0
 17 16  2  0  0  0  0
 18 17  1  0  0  0  0
 19 20  2  0  0  0  0
 19 17  1  0  0  0  0
 20 22  1  0  0  0  0
 21 20  1  0  0  0  0
 22 23  1  0  0  0  0
 22 24  2  0  0  0  0
M  END
>  <minimizedAffinity>
-4.21062231

$$$$
