REMARK  Name = 
REMARK  9 active torsions:
REMARK  status: ('A' for Active; 'I' for Inactive)
REMARK    1  A    between atoms: N_1  and  C_7
REMARK    2  A    between atoms: C_6  and  O_15
REMARK    3  A    between atoms: C_7  and  C_8
REMARK    4  A    between atoms: C_8  and  C_11
REMARK    5  A    between atoms: O_15  and  P_17
REMARK    6  A    between atoms: P_17  and  O_18
REMARK    7  A    between atoms: P_17  and  O_19
REMARK    8  A    between atoms: O_19  and  C_20
REMARK    9  A    between atoms: C_20  and  C_40
REMARK                            x       y       z     vdW  Elec       q    Type
REMARK                         _______ _______ _______ _____ _____    ______ ____
ROOT
ATOM      1  N   UNL     1      47.151  34.159  43.072  0.00  0.00    +0.000 NA
ATOM      2  C   UNL     1      46.648  35.354  42.518  0.00  0.00    +0.000 C 
ATOM      3  C   UNL     1      45.166  35.572  42.722  0.00  0.00    +0.000 C 
ATOM      4  C   UNL     1      44.649  35.051  44.039  0.00  0.00    +0.000 C 
ATOM      5  C   UNL     1      45.761  34.483  44.898  0.00  0.00    +0.000 C 
ATOM      6  C   UNL     1      46.425  33.400  43.958  0.00  0.00    +0.000 C 
ATOM      7  H   UNL     1      47.144  36.213  43.046  0.00  0.00    +0.000 HD
ATOM      8  H   UNL     1      46.833  35.516  41.447  0.00  0.00    +0.000 HD
ATOM      9  H   UNL     1      44.968  36.666  42.646  0.00  0.00    +0.000 HD
ATOM     10  H   UNL     1      44.570  35.098  41.901  0.00  0.00    +0.000 HD
ATOM     11  H   UNL     1      44.219  35.904  44.633  0.00  0.00    +0.000 HD
ATOM     12  H   UNL     1      43.859  34.303  43.957  0.00  0.00    +0.000 HD
ATOM     13  H   UNL     1      45.307  33.928  45.732  0.00  0.00    +0.000 HD
ATOM     14  H   UNL     1      46.514  35.211  45.196  0.00  0.00    +0.000 HD
ATOM     15  H   UNL     1      45.590  32.780  43.576  0.00  0.00    +0.000 HD
ENDROOT
BRANCH   1  16
ATOM     16  C   UNL     1      48.156  33.509  42.269  0.00  0.00    +0.000 C 
ATOM     17  H   UNL     1      48.923  32.997  42.880  0.00  0.00    +0.000 HD
ATOM     18  H   UNL     1      48.704  34.329  41.750  0.00  0.00    +0.000 HD
BRANCH  16  19
ATOM     19  C   UNL     1      47.471  32.661  41.262  0.00  0.00    +0.000 C 
ATOM     20  H   UNL     1      46.367  32.837  41.214  0.00  0.00    +0.000 HD
ATOM     21  H   UNL     1      47.604  31.597  41.517  0.00  0.00    +0.000 HD
BRANCH  19  24
ATOM     22  C   UNL     1      49.337  32.277  38.029  0.00  0.00    +0.000 A 
ATOM     23  C   UNL     1      48.819  32.027  39.313  0.00  0.00    +0.000 A 
ATOM     24  C   UNL     1      48.007  32.941  39.911  0.00  0.00    +0.000 A 
ATOM     25  N   UNL     1      47.738  34.053  39.234  0.00  0.00    +0.000 NA
ATOM     26  C   UNL     1      48.224  34.310  38.007  0.00  0.00    +0.000 A 
ATOM     27  N   UNL     1      49.027  33.424  37.394  0.00  0.00    +0.000 NA
ATOM     28  H   UNL     1      49.988  31.536  37.559  0.00  0.00    +0.000 HD
ATOM     29  H   UNL     1      49.087  31.090  39.801  0.00  0.00    +0.000 HD
ATOM     30  H   UNL     1      47.982  35.226  37.488  0.00  0.00    +0.000 HD
ENDBRANCH  19  24
ENDBRANCH  16  19
ENDBRANCH   1  16
BRANCH   6  31
ATOM     31  O   UNL     1      47.209  32.716  44.867  0.00  0.00    +0.000 OA
BRANCH  31  33
ATOM     32  O   UNL     1      46.050  30.540  43.872  0.00  0.00    +0.000 OA
ATOM     33  P   UNL     1      46.666  31.137  45.131  0.00  0.00    +0.000 P 
BRANCH  33  34
ATOM     34  O   UNL     1      45.402  31.267  46.263  0.00  0.00    +0.000 OA
ATOM     35  H   UNL     1      44.627  30.706  46.009  0.00  0.00    +0.000 HD
ENDBRANCH  33  34
BRANCH  33  36
ATOM     36  O   UNL     1      47.847  30.154  45.784  0.00  0.00    +0.000 OA
BRANCH  36  37
ATOM     37  C   UNL     1      47.749  28.894  45.213  0.00  0.00    +0.000 C 
ATOM     38  H   UNL     1      47.868  28.909  44.108  0.00  0.00    +0.000 HD
ATOM     39  H   UNL     1      46.769  28.431  45.464  0.00  0.00    +0.000 HD
BRANCH  37  40
ATOM     40  C   UNL     1      48.838  28.081  45.851  0.00  0.00    +0.000 A 
ATOM     41  C   UNL     1      49.178  26.884  45.249  0.00  0.00    +0.000 A 
ATOM     42  H   UNL     1      48.672  26.545  44.344  0.00  0.00    +0.000 HD
ATOM     43  C   UNL     1      50.157  26.051  45.736  0.00  0.00    +0.000 A 
ATOM     44  C   UNL     1      50.849  26.412  46.887  0.00  0.00    +0.000 A 
ATOM     45  H   UNL     1      51.621  25.766  47.280  0.00  0.00    +0.000 HD
ATOM     46  C   UNL     1      50.499  27.618  47.484  0.00  0.00    +0.000 A 
ATOM     47  H   UNL     1      51.011  27.939  48.381  0.00  0.00    +0.000 HD
ATOM     48  C   UNL     1      49.514  28.453  46.992  0.00  0.00    +0.000 A 
ENDBRANCH  37  40
ENDBRANCH  36  37
ENDBRANCH  33  36
ENDBRANCH  31  33
ENDBRANCH   6  31
TORSDOF 9
