
 OpenBabel03252509063D

 48 50  0  0  1  0  0  0  0  0999 V2000
   37.0430   26.6670   41.7520 N   0  0  0  0  0  0  0  0  0  0  0  0
   37.1910   25.3050   42.0870 C   0  0  0  0  0  0  0  0  0  0  0  0
   36.6420   24.3380   41.0630 C   0  0  0  0  0  0  0  0  0  0  0  0
   36.7960   24.8060   39.6390 C   0  0  0  0  0  0  0  0  0  0  0  0
   37.5380   26.1250   39.5540 C   0  0  0  0  0  0  0  0  0  0  0  0
   36.6900   27.0760   40.4890 C   0  0  2  0  0  0  0  0  0  0  0  0
   38.2910   25.0820   42.1380 H   0  0  0  0  0  0  0  0  0  0  0  0
   36.7780   24.9890   43.0550 H   0  0  0  0  0  0  0  0  0  0  0  0
   37.1670   23.3640   41.1980 H   0  0  0  0  0  0  0  0  0  0  0  0
   35.5580   24.1260   41.2460 H   0  0  0  0  0  0  0  0  0  0  0  0
   37.4300   24.0700   39.0720 H   0  0  0  0  0  0  0  0  0  0  0  0
   35.8610   24.8990   39.0840 H   0  0  0  0  0  0  0  0  0  0  0  0
   37.4280   26.5210   38.5340 H   0  0  0  0  0  0  0  0  0  0  0  0
   38.5640   26.0870   39.9160 H   0  0  0  0  0  0  0  0  0  0  0  0
   35.6380   26.9610   40.1610 H   0  0  0  0  0  0  0  0  0  0  0  0
   36.7240   27.5220   42.8680 C   0  0  0  0  0  0  0  0  0  0  0  0
   35.7960   27.2170   43.3870 H   0  0  0  0  0  0  0  0  0  0  0  0
   36.4920   28.5190   42.4280 H   0  0  0  0  0  0  0  0  0  0  0  0
   37.9290   27.6330   43.7280 C   0  0  0  0  0  0  0  0  0  0  0  0
   38.4680   26.6610   43.8600 H   0  0  0  0  0  0  0  0  0  0  0  0
   37.6370   27.9640   44.7380 H   0  0  0  0  0  0  0  0  0  0  0  0
   41.0980   29.0520   42.3070 C   0  0  0  0  0  0  0  0  0  0  0  0
   40.1660   28.1650   42.8750 C   0  0  0  0  0  0  0  0  0  0  0  0
   38.8960   28.5810   43.1310 C   0  0  0  0  0  0  0  0  0  0  0  0
   38.5920   29.8380   42.8230 N   0  0  0  0  0  0  0  0  0  0  0  0
   39.4690   30.7010   42.2810 C   0  0  0  0  0  0  0  0  0  0  0  0
   40.7290   30.3150   42.0180 N   0  0  0  0  0  0  0  0  0  0  0  0
   42.1150   28.7070   42.1060 H   0  0  0  0  0  0  0  0  0  0  0  0
   40.4940   27.1490   43.0970 H   0  0  0  0  0  0  0  0  0  0  0  0
   39.1840   31.7160   42.0440 H   0  0  0  0  0  0  0  0  0  0  0  0
   37.2110   28.3080   40.1450 O   0  0  0  0  0  0  0  0  0  0  0  0
   34.6670   29.0680   40.2650 O   0  0  0  0  0  0  0  0  0  0  0  0
   36.0200   29.4000   39.6490 P   0  0  2  0  0  0  0  0  0  0  0  0
   35.8480   29.1660   37.9720 O   0  0  0  0  0  0  0  0  0  0  0  0
   34.8960   29.1400   37.7040 H   0  0  0  0  0  0  0  0  0  0  0  0
   36.4600   30.9900   39.9080 O   0  0  0  0  0  0  0  0  0  0  0  0
   37.0230   31.4950   38.7460 C   0  0  0  0  0  0  0  0  0  0  0  0
   36.2700   31.9210   38.0490 H   0  0  0  0  0  0  0  0  0  0  0  0
   37.5950   30.7010   38.2170 H   0  0  0  0  0  0  0  0  0  0  0  0
   37.9850   32.5550   39.1970 C   0  0  0  0  0  0  0  0  0  0  0  0
   39.3300   32.3430   38.9560 C   0  0  0  0  0  0  0  0  0  0  0  0
   39.6760   31.4380   38.4550 H   0  0  0  0  0  0  0  0  0  0  0  0
   40.3090   33.2380   39.3200 C   0  0  0  0  0  3  0  0  0  0  0  0
   39.9490   34.4170   39.9630 C   0  0  0  0  0  0  0  0  0  0  0  0
   40.7080   35.1280   40.2550 H   0  0  0  0  0  0  0  0  0  0  0  0
   38.5930   34.6200   40.2010 C   0  0  0  0  0  0  0  0  0  0  0  0
   38.2670   35.5230   40.6990 H   0  0  0  0  0  0  0  0  0  0  0  0
   37.6110   33.7180   39.8330 C   0  0  0  0  0  3  0  0  0  0  0  0
  1  2  1  0  0  0  0
  1 16  1  0  0  0  0
  2  7  1  0  0  0  0
  2  8  1  0  0  0  0
  3  9  1  0  0  0  0
  3 10  1  0  0  0  0
  3  2  1  0  0  0  0
  4  3  1  0  0  0  0
  5  4  1  0  0  0  0
  5 14  1  0  0  0  0
  5  6  1  0  0  0  0
  6 15  1  6  0  0  0
  6  1  1  0  0  0  0
 11  4  1  0  0  0  0
 12  4  1  0  0  0  0
 13  5  1  0  0  0  0
 16 17  1  0  0  0  0
 16 19  1  0  0  0  0
 18 16  1  0  0  0  0
 19 20  1  0  0  0  0
 19 21  1  0  0  0  0
 22 23  1  0  0  0  0
 23 29  1  0  0  0  0
 23 24  2  0  0  0  0
 24 19  1  0  0  0  0
 25 24  1  0  0  0  0
 26 25  2  0  0  0  0
 27 26  1  0  0  0  0
 27 22  2  0  0  0  0
 28 22  1  0  0  0  0
 30 26  1  0  0  0  0
 31  6  1  0  0  0  0
 33 36  1  0  0  0  0
 33 31  1  0  0  0  0
 33 32  2  1  0  0  0
 34 33  1  0  0  0  0
 35 34  1  0  0  0  0
 37 40  1  0  0  0  0
 37 36  1  0  0  0  0
 38 37  1  0  0  0  0
 39 37  1  0  0  0  0
 40 48  1  0  0  0  0
 41 40  2  0  0  0  0
 41 43  1  0  0  0  0
 42 41  1  0  0  0  0
 43 44  2  0  0  0  0
 44 46  1  0  0  0  0
 44 45  1  0  0  0  0
 46 47  1  0  0  0  0
 48 46  2  0  0  0  0
M  END
>  <minimizedAffinity>
-5.53758335

$$$$

 OpenBabel03252509063D

 48 50  0  0  1  0  0  0  0  0999 V2000
   38.5690   26.2440   42.1340 N   0  0  0  0  0  0  0  0  0  0  0  0
   38.1370   24.9380   41.8270 C   0  0  0  0  0  0  0  0  0  0  0  0
   36.8470   24.8650   41.0420 C   0  0  0  0  0  0  0  0  0  0  0  0
   36.6690   25.9910   40.0560 C   0  0  0  0  0  0  0  0  0  0  0  0
   37.8720   26.9120   40.0270 C   0  0  0  0  0  0  0  0  0  0  0  0
   38.0240   27.3550   41.5360 C   0  0  2  0  0  0  0  0  0  0  0  0
   38.9100   24.4680   41.1600 H   0  0  0  0  0  0  0  0  0  0  0  0
   38.0150   24.2480   42.6740 H   0  0  0  0  0  0  0  0  0  0  0  0
   36.8280   23.8880   40.5060 H   0  0  0  0  0  0  0  0  0  0  0  0
   35.9580   24.8540   41.7240 H   0  0  0  0  0  0  0  0  0  0  0  0
   36.5930   25.5670   39.0170 H   0  0  0  0  0  0  0  0  0  0  0  0
   35.7740   26.5960   40.2090 H   0  0  0  0  0  0  0  0  0  0  0  0
   37.6020   27.8200   39.4670 H   0  0  0  0  0  0  0  0  0  0  0  0
   38.7940   26.4360   39.6980 H   0  0  0  0  0  0  0  0  0  0  0  0
   37.0180   27.6970   41.8530 H   0  0  0  0  0  0  0  0  0  0  0  0
   39.1560   26.3840   43.4430 C   0  0  0  0  0  0  0  0  0  0  0  0
   38.4020   26.3560   44.2530 H   0  0  0  0  0  0  0  0  0  0  0  0
   39.5750   27.4160   43.4770 H   0  0  0  0  0  0  0  0  0  0  0  0
   40.2610   25.4000   43.5650 C   0  0  0  0  0  0  0  0  0  0  0  0
   40.3320   24.7050   42.6910 H   0  0  0  0  0  0  0  0  0  0  0  0
   40.1000   24.7660   44.4520 H   0  0  0  0  0  0  0  0  0  0  0  0
   42.8040   28.1400   43.8940 C   0  0  0  0  0  0  0  0  0  0  0  0
   41.5780   27.4560   43.8040 C   0  0  0  0  0  0  0  0  0  0  0  0
   41.5600   26.1030   43.6580 C   0  0  0  0  0  0  0  0  0  0  0  0
   42.7330   25.4800   43.6060 N   0  0  0  0  0  0  0  0  0  0  0  0
   43.9150   26.1160   43.6900 C   0  0  0  0  0  0  0  0  0  0  0  0
   43.9600   27.4510   43.8350 N   0  0  0  0  0  0  0  0  0  0  0  0
   42.8060   29.2260   44.0110 H   0  0  0  0  0  0  0  0  0  0  0  0
   40.6590   28.0400   43.8550 H   0  0  0  0  0  0  0  0  0  0  0  0
   44.8480   25.5740   43.6450 H   0  0  0  0  0  0  0  0  0  0  0  0
   38.9140   28.4040   41.4090 O   0  0  0  0  0  0  0  0  0  0  0  0
   39.4310   30.4810   42.9850 O   0  0  0  0  0  0  0  0  0  0  0  0
   38.3520   29.8230   42.1360 P   0  0  2  0  0  0  0  0  0  0  0  0
   37.1290   29.3360   43.2140 O   0  0  0  0  0  0  0  0  0  0  0  0
   37.2100   29.7940   44.0870 H   0  0  0  0  0  0  0  0  0  0  0  0
   37.6800   30.8830   41.0350 O   0  0  0  0  0  0  0  0  0  0  0  0
   36.2980   30.7960   41.1140 C   0  0  0  0  0  0  0  0  0  0  0  0
   35.8050   31.7900   41.1910 H   0  0  0  0  0  0  0  0  0  0  0  0
   35.9990   30.1760   41.9880 H   0  0  0  0  0  0  0  0  0  0  0  0
   35.8700   30.0900   39.8600 C   0  0  0  0  0  0  0  0  0  0  0  0
   36.6080   30.3190   38.7140 C   0  0  0  0  0  0  0  0  0  0  0  0
   37.4700   30.9870   38.7240 H   0  0  0  0  0  0  0  0  0  0  0  0
   36.3180   29.7320   37.5040 C   0  0  0  0  0  3  0  0  0  0  0  0
   35.2350   28.8650   37.4100 C   0  0  0  0  0  0  0  0  0  0  0  0
   34.9960   28.3980   36.4660 H   0  0  0  0  0  0  0  0  0  0  0  0
   34.4990   28.6430   38.5690 C   0  0  0  0  0  0  0  0  0  0  0  0
   33.6470   27.9760   38.5420 H   0  0  0  0  0  0  0  0  0  0  0  0
   34.7930   29.2340   39.7840 C   0  0  0  0  0  3  0  0  0  0  0  0
  1 16  1  0  0  0  0
  2  1  1  0  0  0  0
  2  8  1  0  0  0  0
  3 10  1  0  0  0  0
  3  2  1  0  0  0  0
  4 12  1  0  0  0  0
  4  3  1  0  0  0  0
  5  4  1  0  0  0  0
  5  6  1  0  0  0  0
  6 15  1  1  0  0  0
  6  1  1  0  0  0  0
  7  2  1  0  0  0  0
  9  3  1  0  0  0  0
 11  4  1  0  0  0  0
 13  5  1  0  0  0  0
 14  5  1  0  0  0  0
 16 18  1  0  0  0  0
 16 19  1  0  0  0  0
 16 17  1  0  0  0  0
 19 24  1  0  0  0  0
 19 21  1  0  0  0  0
 20 19  1  0  0  0  0
 22 28  1  0  0  0  0
 23 29  1  0  0  0  0
 23 22  2  0  0  0  0
 24 23  1  0  0  0  0
 25 24  2  0  0  0  0
 25 26  1  0  0  0  0
 26 27  2  0  0  0  0
 27 22  1  0  0  0  0
 30 26  1  0  0  0  0
 31  6  1  0  0  0  0
 31 33  1  0  0  0  0
 33 32  2  1  0  0  0
 33 34  1  0  0  0  0
 34 35  1  0  0  0  0
 36 37  1  0  0  0  0
 36 33  1  0  0  0  0
 37 38  1  0  0  0  0
 37 39  1  0  0  0  0
 40 37  1  0  0  0  0
 41 42  1  0  0  0  0
 41 40  2  0  0  0  0
 43 41  1  0  0  0  0
 44 43  2  0  0  0  0
 44 46  1  0  0  0  0
 45 44  1  0  0  0  0
 46 48  2  0  0  0  0
 47 46  1  0  0  0  0
 48 40  1  0  0  0  0
M  END
>  <minimizedAffinity>
-5.51876402

$$$$

 OpenBabel03252509063D

 48 50  0  0  1  0  0  0  0  0999 V2000
   39.5630   30.1510   39.2890 N   0  0  0  0  0  0  0  0  0  0  0  0
   40.8630   29.6760   39.0210 C   0  0  0  0  0  0  0  0  0  0  0  0
   41.2910   28.4940   39.8620 C   0  0  0  0  0  0  0  0  0  0  0  0
   40.1690   27.5410   40.1880 C   0  0  0  0  0  0  0  0  0  0  0  0
   38.8670   27.9540   39.5310 C   0  0  0  0  0  0  0  0  0  0  0  0
   38.6620   29.4360   40.0400 C   0  0  2  0  0  0  0  0  0  0  0  0
   40.8810   29.3010   37.9620 H   0  0  0  0  0  0  0  0  0  0  0  0
   41.6790   30.4080   39.0920 H   0  0  0  0  0  0  0  0  0  0  0  0
   42.0940   27.9550   39.3090 H   0  0  0  0  0  0  0  0  0  0  0  0
   41.7550   28.8280   40.8240 H   0  0  0  0  0  0  0  0  0  0  0  0
   40.4080   26.5260   39.7640 H   0  0  0  0  0  0  0  0  0  0  0  0
   39.9880   27.3940   41.2540 H   0  0  0  0  0  0  0  0  0  0  0  0
   38.0520   27.3630   39.9740 H   0  0  0  0  0  0  0  0  0  0  0  0
   38.8910   27.9470   38.4430 H   0  0  0  0  0  0  0  0  0  0  0  0
   38.7900   29.3980   41.1400 H   0  0  0  0  0  0  0  0  0  0  0  0
   39.4330   31.5860   39.2360 C   0  0  0  0  0  0  0  0  0  0  0  0
   38.5730   31.9130   38.6220 H   0  0  0  0  0  0  0  0  0  0  0  0
   40.3320   31.9500   38.6870 H   0  0  0  0  0  0  0  0  0  0  0  0
   39.4600   32.1070   40.6260 C   0  0  0  0  0  0  0  0  0  0  0  0
   39.3550   31.3060   41.4000 H   0  0  0  0  0  0  0  0  0  0  0  0
   38.6180   32.8000   40.7810 H   0  0  0  0  0  0  0  0  0  0  0  0
   42.1490   34.7240   40.6820 C   0  0  0  0  0  0  0  0  0  0  0  0
   40.9320   34.0610   40.4400 C   0  0  0  0  0  0  0  0  0  0  0  0
   40.7470   32.7890   40.8890 C   0  0  0  0  0  0  0  0  0  0  0  0
   41.7530   32.2230   41.5490 N   0  0  0  0  0  0  0  0  0  0  0  0
   42.9230   32.8400   41.7880 C   0  0  0  0  0  0  0  0  0  0  0  0
   43.1310   34.0960   41.3570 N   0  0  0  0  0  0  0  0  0  0  0  0
   42.2860   35.7440   40.3170 H   0  0  0  0  0  0  0  0  0  0  0  0
   40.1570   34.5950   39.8920 H   0  0  0  0  0  0  0  0  0  0  0  0
   43.7180   32.3460   42.3290 H   0  0  0  0  0  0  0  0  0  0  0  0
   37.3470   29.6540   39.6750 O   0  0  0  0  0  0  0  0  0  0  0  0
   35.0330   28.7690   40.6390 O   0  0  0  0  0  0  0  0  0  0  0  0
   36.2870   29.5600   40.9890 P   0  0  2  0  0  0  0  0  0  0  0  0
   35.7760   31.1560   41.2850 O   0  0  0  0  0  0  0  0  0  0  0  0
   34.8000   31.2020   41.4440 H   0  0  0  0  0  0  0  0  0  0  0  0
   37.0290   28.9890   42.3710 O   0  0  0  0  0  0  0  0  0  0  0  0
   36.5080   27.7400   42.6780 C   0  0  0  0  0  0  0  0  0  0  0  0
   35.8600   27.3320   41.8720 H   0  0  0  0  0  0  0  0  0  0  0  0
   35.9230   27.7870   43.6230 H   0  0  0  0  0  0  0  0  0  0  0  0
   37.7000   26.8540   42.8970 C   0  0  0  0  0  0  0  0  0  0  0  0
   37.6970   25.6160   42.2830 C   0  0  0  0  0  0  0  0  0  0  0  0
   36.8580   25.2970   41.6620 H   0  0  0  0  0  0  0  0  0  0  0  0
   38.7280   24.7140   42.4060 C   0  0  0  0  0  3  0  0  0  0  0  0
   39.8340   25.0460   43.1800 C   0  0  0  0  0  0  0  0  0  0  0  0
   40.6510   24.3460   43.2850 H   0  0  0  0  0  0  0  0  0  0  0  0
   39.8270   26.2940   43.7940 C   0  0  0  0  0  0  0  0  0  0  0  0
   40.6660   26.5940   44.4060 H   0  0  0  0  0  0  0  0  0  0  0  0
   38.7880   27.1990   43.6680 C   0  0  0  0  0  3  0  0  0  0  0  0
  1  6  1  0  0  0  0
  2  8  1  0  0  0  0
  2  1  1  0  0  0  0
  2  3  1  0  0  0  0
  3  4  1  0  0  0  0
  3 10  1  0  0  0  0
  4 12  1  0  0  0  0
  5 13  1  0  0  0  0
  5  6  1  0  0  0  0
  5  4  1  0  0  0  0
  6 15  1  1  0  0  0
  7  2  1  0  0  0  0
  9  3  1  0  0  0  0
 11  4  1  0  0  0  0
 14  5  1  0  0  0  0
 16  1  1  0  0  0  0
 16 19  1  0  0  0  0
 17 16  1  0  0  0  0
 18 16  1  0  0  0  0
 19 21  1  0  0  0  0
 19 24  1  0  0  0  0
 19 20  1  0  0  0  0
 22 27  1  0  0  0  0
 23 22  2  0  0  0  0
 23 24  1  0  0  0  0
 24 25  2  0  0  0  0
 25 26  1  0  0  0  0
 26 30  1  0  0  0  0
 27 26  2  0  0  0  0
 28 22  1  0  0  0  0
 29 23  1  0  0  0  0
 31  6  1  0  0  0  0
 31 33  1  0  0  0  0
 33 32  2  6  0  0  0
 33 34  1  0  0  0  0
 33 36  1  0  0  0  0
 34 35  1  0  0  0  0
 36 37  1  0  0  0  0
 37 40  1  0  0  0  0
 37 39  1  0  0  0  0
 38 37  1  0  0  0  0
 40 48  1  0  0  0  0
 41 43  1  0  0  0  0
 41 40  2  0  0  0  0
 42 41  1  0  0  0  0
 43 44  2  0  0  0  0
 44 45  1  0  0  0  0
 44 46  1  0  0  0  0
 46 47  1  0  0  0  0
 48 46  2  0  0  0  0
M  END
>  <minimizedAffinity>
-5.4261899

$$$$

 OpenBabel03252509063D

 48 50  0  0  1  0  0  0  0  0999 V2000
   38.6450   25.6160   41.6650 N   0  0  0  0  0  0  0  0  0  0  0  0
   38.6250   24.2610   41.2730 C   0  0  0  0  0  0  0  0  0  0  0  0
   37.2690   23.7450   40.8500 C   0  0  0  0  0  0  0  0  0  0  0  0
   36.4200   24.7700   40.1410 C   0  0  0  0  0  0  0  0  0  0  0  0
   37.1580   26.0800   39.9500 C   0  0  0  0  0  0  0  0  0  0  0  0
   37.5940   26.4650   41.4190 C   0  0  2  0  0  0  0  0  0  0  0  0
   39.2730   24.1580   40.3610 H   0  0  0  0  0  0  0  0  0  0  0  0
   39.0140   23.5330   41.9980 H   0  0  0  0  0  0  0  0  0  0  0  0
   37.4300   22.8650   40.1860 H   0  0  0  0  0  0  0  0  0  0  0  0
   36.6900   23.3600   41.7280 H   0  0  0  0  0  0  0  0  0  0  0  0
   36.1870   24.4050   39.1030 H   0  0  0  0  0  0  0  0  0  0  0  0
   35.4610   24.9790   40.6170 H   0  0  0  0  0  0  0  0  0  0  0  0
   36.4330   26.8440   39.6340 H   0  0  0  0  0  0  0  0  0  0  0  0
   38.0430   26.0090   39.3190 H   0  0  0  0  0  0  0  0  0  0  0  0
   36.6780   26.3810   42.0370 H   0  0  0  0  0  0  0  0  0  0  0  0
   39.5130   25.8980   42.7810 C   0  0  0  0  0  0  0  0  0  0  0  0
   38.9550   26.1870   43.6910 H   0  0  0  0  0  0  0  0  0  0  0  0
   40.0860   26.8100   42.4940 H   0  0  0  0  0  0  0  0  0  0  0  0
   40.4510   24.7580   42.9420 C   0  0  0  0  0  0  0  0  0  0  0  0
   40.1870   23.8770   42.3050 H   0  0  0  0  0  0  0  0  0  0  0  0
   40.4320   24.4040   43.9850 H   0  0  0  0  0  0  0  0  0  0  0  0
   44.0250   25.8760   43.1830 C   0  0  0  0  0  0  0  0  0  0  0  0
   42.7180   25.4860   43.5300 C   0  0  0  0  0  0  0  0  0  0  0  0
   41.8200   25.1680   42.5580 C   0  0  0  0  0  0  0  0  0  0  0  0
   42.2340   25.2450   41.2970 N   0  0  0  0  0  0  0  0  0  0  0  0
   43.4770   25.6170   40.9460 C   0  0  0  0  0  0  0  0  0  0  0  0
   44.3830   25.9350   41.8860 N   0  0  0  0  0  0  0  0  0  0  0  0
   44.7370   26.1290   43.9720 H   0  0  0  0  0  0  0  0  0  0  0  0
   42.4580   25.4470   44.5880 H   0  0  0  0  0  0  0  0  0  0  0  0
   43.7760   25.6680   39.9090 H   0  0  0  0  0  0  0  0  0  0  0  0
   37.9800   27.7790   41.2360 O   0  0  0  0  0  0  0  0  0  0  0  0
   38.3170   29.2640   43.4160 O   0  0  0  0  0  0  0  0  0  0  0  0
   37.2940   28.8200   42.3780 P   0  0  2  0  0  0  0  0  0  0  0  0
   36.1400   27.8910   43.2150 O   0  0  0  0  0  0  0  0  0  0  0  0
   36.1900   28.0430   44.1920 H   0  0  0  0  0  0  0  0  0  0  0  0
   36.5060   30.1130   41.6750 O   0  0  0  0  0  0  0  0  0  0  0  0
   35.7960   29.6610   40.5730 C   0  0  0  0  0  0  0  0  0  0  0  0
   34.7130   29.9060   40.6260 H   0  0  0  0  0  0  0  0  0  0  0  0
   35.9120   28.5600   40.4640 H   0  0  0  0  0  0  0  0  0  0  0  0
   36.4310   30.3280   39.3870 C   0  0  0  0  0  0  0  0  0  0  0  0
   36.4540   29.6260   38.1970 C   0  0  0  0  0  0  0  0  0  0  0  0
   36.0250   28.6260   38.1240 H   0  0  0  0  0  0  0  0  0  0  0  0
   37.0060   30.1270   37.0400 C   0  0  0  0  0  3  0  0  0  0  0  0
   37.5730   31.3970   37.0510 C   0  0  0  0  0  0  0  0  0  0  0  0
   38.0100   31.8020   36.1500 H   0  0  0  0  0  0  0  0  0  0  0  0
   37.5440   32.0940   38.2550 C   0  0  0  0  0  0  0  0  0  0  0  0
   37.9740   33.0850   38.3090 H   0  0  0  0  0  0  0  0  0  0  0  0
   36.9880   31.5870   39.4150 C   0  0  0  0  0  3  0  0  0  0  0  0
  1 16  1  0  0  0  0
  2  1  1  0  0  0  0
  2  8  1  0  0  0  0
  3  2  1  0  0  0  0
  3 10  1  0  0  0  0
  4 12  1  0  0  0  0
  4  3  1  0  0  0  0
  5  4  1  0  0  0  0
  5  6  1  0  0  0  0
  6  1  1  0  0  0  0
  6 15  1  1  0  0  0
  7  2  1  0  0  0  0
  9  3  1  0  0  0  0
 11  4  1  0  0  0  0
 13  5  1  0  0  0  0
 14  5  1  0  0  0  0
 16 19  1  0  0  0  0
 16 17  1  0  0  0  0
 18 16  1  0  0  0  0
 19 21  1  0  0  0  0
 20 19  1  0  0  0  0
 22 23  1  0  0  0  0
 22 28  1  0  0  0  0
 23 29  1  0  0  0  0
 24 19  1  0  0  0  0
 24 23  2  0  0  0  0
 25 24  1  0  0  0  0
 26 25  2  0  0  0  0
 26 27  1  0  0  0  0
 27 22  2  0  0  0  0
 30 26  1  0  0  0  0
 31  6  1  0  0  0  0
 31 33  1  0  0  0  0
 33 34  1  0  0  0  0
 33 32  2  1  0  0  0
 34 35  1  0  0  0  0
 36 33  1  0  0  0  0
 37 38  1  0  0  0  0
 37 36  1  0  0  0  0
 39 37  1  0  0  0  0
 40 48  1  0  0  0  0
 40 37  1  0  0  0  0
 41 40  2  0  0  0  0
 42 41  1  0  0  0  0
 43 44  2  0  0  0  0
 43 41  1  0  0  0  0
 44 46  1  0  0  0  0
 45 44  1  0  0  0  0
 46 47  1  0  0  0  0
 46 48  2  0  0  0  0
M  END
>  <minimizedAffinity>
-5.35700274

$$$$

 OpenBabel03252509063D

 48 50  0  0  1  0  0  0  0  0999 V2000
   37.8240   29.1330   41.6520 N   0  0  0  0  0  0  0  0  0  0  0  0
   38.3380   29.0170   42.9590 C   0  0  0  0  0  0  0  0  0  0  0  0
   37.4110   28.3470   43.9470 C   0  0  0  0  0  0  0  0  0  0  0  0
   36.5690   27.2500   43.3460 C   0  0  0  0  0  0  0  0  0  0  0  0
   36.8990   27.0210   41.8850 C   0  0  0  0  0  0  0  0  0  0  0  0
   36.7030   28.4510   41.2420 C   0  0  2  0  0  0  0  0  0  0  0  0
   39.2440   28.3540   42.9140 H   0  0  0  0  0  0  0  0  0  0  0  0
   38.6730   29.9460   43.4410 H   0  0  0  0  0  0  0  0  0  0  0  0
   38.0340   27.9330   44.7740 H   0  0  0  0  0  0  0  0  0  0  0  0
   36.7250   29.0900   44.4280 H   0  0  0  0  0  0  0  0  0  0  0  0
   36.8030   26.2780   43.8610 H   0  0  0  0  0  0  0  0  0  0  0  0
   35.4920   27.3970   43.4380 H   0  0  0  0  0  0  0  0  0  0  0  0
   36.1200   26.3790   41.4490 H   0  0  0  0  0  0  0  0  0  0  0  0
   37.9180   26.6810   41.7030 H   0  0  0  0  0  0  0  0  0  0  0  0
   35.7080   28.8000   41.5820 H   0  0  0  0  0  0  0  0  0  0  0  0
   38.1600   30.3680   40.9880 C   0  0  0  0  0  0  0  0  0  0  0  0
   37.3070   31.0700   40.9380 H   0  0  0  0  0  0  0  0  0  0  0  0
   38.3680   30.0940   39.9290 H   0  0  0  0  0  0  0  0  0  0  0  0
   39.3960   30.9080   41.6090 C   0  0  0  0  0  0  0  0  0  0  0  0
   40.2960   30.2680   41.4290 H   0  0  0  0  0  0  0  0  0  0  0  0
   39.2700   30.9660   42.7020 H   0  0  0  0  0  0  0  0  0  0  0  0
   41.2970   33.8110   40.1790 C   0  0  0  0  0  0  0  0  0  0  0  0
   40.9860   32.5460   40.7110 C   0  0  0  0  0  0  0  0  0  0  0  0
   39.7030   32.2440   41.0510 C   0  0  0  0  0  0  0  0  0  0  0  0
   38.7840   33.1850   40.8580 N   0  0  0  0  0  0  0  0  0  0  0  0
   39.0610   34.3990   40.3510 C   0  0  0  0  0  0  0  0  0  0  0  0
   40.3200   34.7220   40.0070 N   0  0  0  0  0  0  0  0  0  0  0  0
   42.3300   34.0420   39.9110 H   0  0  0  0  0  0  0  0  0  0  0  0
   41.7980   31.8290   40.8380 H   0  0  0  0  0  0  0  0  0  0  0  0
   38.2860   35.1380   40.2090 H   0  0  0  0  0  0  0  0  0  0  0  0
   36.7140   28.1330   39.8980 O   0  0  0  0  0  0  0  0  0  0  0  0
   35.9290   30.1220   38.3180 O   0  0  0  0  0  0  0  0  0  0  0  0
   35.4530   28.8720   39.0480 P   0  0  2  0  0  0  0  0  0  0  0  0
   34.3490   29.4030   40.2290 O   0  0  0  0  0  0  0  0  0  0  0  0
   34.0300   30.3210   40.0420 H   0  0  0  0  0  0  0  0  0  0  0  0
   34.6570   27.8120   38.0330 O   0  0  0  0  0  0  0  0  0  0  0  0
   34.4920   28.4140   36.7940 C   0  0  0  0  0  0  0  0  0  0  0  0
   35.0820   27.9200   35.9920 H   0  0  0  0  0  0  0  0  0  0  0  0
   34.7800   29.4870   36.8450 H   0  0  0  0  0  0  0  0  0  0  0  0
   33.0230   28.3270   36.5010 C   0  0  0  0  0  0  0  0  0  0  0  0
   32.2110   29.3250   37.0060 C   0  0  0  0  0  0  0  0  0  0  0  0
   32.6250   30.1440   37.5950 H   0  0  0  0  0  0  0  0  0  0  0  0
   30.8500   29.3590   36.8060 C   0  0  0  0  0  3  0  0  0  0  0  0
   30.2450   28.3500   36.0650 C   0  0  0  0  0  0  0  0  0  0  0  0
   29.1770   28.3650   35.9010 H   0  0  0  0  0  0  0  0  0  0  0  0
   31.0720   27.3500   35.5620 C   0  0  0  0  0  0  0  0  0  0  0  0
   30.6440   26.5460   34.9800 H   0  0  0  0  0  0  0  0  0  0  0  0
   32.4390   27.3200   35.7640 C   0  0  0  0  0  3  0  0  0  0  0  0
  1  2  1  0  0  0  0
  2  8  1  0  0  0  0
  2  3  1  0  0  0  0
  3 10  1  0  0  0  0
  3  9  1  0  0  0  0
  4 12  1  0  0  0  0
  4 11  1  0  0  0  0
  4  3  1  0  0  0  0
  5  4  1  0  0  0  0
  6 15  1  1  0  0  0
  6  1  1  0  0  0  0
  6  5  1  0  0  0  0
  7  2  1  0  0  0  0
 13  5  1  0  0  0  0
 14  5  1  0  0  0  0
 16 19  1  0  0  0  0
 16  1  1  0  0  0  0
 17 16  1  0  0  0  0
 18 16  1  0  0  0  0
 19 21  1  0  0  0  0
 20 19  1  0  0  0  0
 22 23  1  0  0  0  0
 23 29  1  0  0  0  0
 23 24  2  0  0  0  0
 24 19  1  0  0  0  0
 25 24  1  0  0  0  0
 26 25  2  0  0  0  0
 27 22  2  0  0  0  0
 27 26  1  0  0  0  0
 28 22  1  0  0  0  0
 30 26  1  0  0  0  0
 31  6  1  0  0  0  0
 33 32  2  6  0  0  0
 33 31  1  0  0  0  0
 33 34  1  0  0  0  0
 35 34  1  0  0  0  0
 36 33  1  0  0  0  0
 37 39  1  0  0  0  0
 37 36  1  0  0  0  0
 38 37  1  0  0  0  0
 40 37  1  0  0  0  0
 40 41  1  0  0  0  0
 41 42  1  0  0  0  0
 43 41  2  0  0  0  0
 44 43  1  0  0  0  0
 45 44  1  0  0  0  0
 46 48  1  0  0  0  0
 46 44  2  0  0  0  0
 47 46  1  0  0  0  0
 48 40  2  0  0  0  0
M  END
>  <minimizedAffinity>
-5.32943487

$$$$

 OpenBabel03252509063D

 48 50  0  0  1  0  0  0  0  0999 V2000
   38.7730   30.8660   41.3030 N   0  0  0  0  0  0  0  0  0  0  0  0
   37.4980   30.3130   41.0640 C   0  0  0  0  0  0  0  0  0  0  0  0
   36.4980   31.2670   40.4530 C   0  0  0  0  0  0  0  0  0  0  0  0
   37.1070   32.2540   39.4890 C   0  0  0  0  0  0  0  0  0  0  0  0
   38.5920   32.0140   39.2980 C   0  0  0  0  0  0  0  0  0  0  0  0
   39.1590   32.0730   40.7720 C   0  0  2  0  0  0  0  0  0  0  0  0
   37.6160   29.4910   40.3070 H   0  0  0  0  0  0  0  0  0  0  0  0
   36.9910   29.8540   41.9250 H   0  0  0  0  0  0  0  0  0  0  0  0
   35.7220   30.6610   39.9310 H   0  0  0  0  0  0  0  0  0  0  0  0
   35.9520   31.8430   41.2430 H   0  0  0  0  0  0  0  0  0  0  0  0
   36.6490   32.1110   38.4710 H   0  0  0  0  0  0  0  0  0  0  0  0
   36.9570   33.3020   39.7500 H   0  0  0  0  0  0  0  0  0  0  0  0
   39.0190   32.8800   38.7710 H   0  0  0  0  0  0  0  0  0  0  0  0
   38.8370   31.0490   38.8560 H   0  0  0  0  0  0  0  0  0  0  0  0
   38.7570   33.0070   41.2120 H   0  0  0  0  0  0  0  0  0  0  0  0
   39.3940   30.4190   42.5240 C   0  0  0  0  0  0  0  0  0  0  0  0
   39.5380   31.2390   43.2530 H   0  0  0  0  0  0  0  0  0  0  0  0
   40.4250   30.1050   42.2400 H   0  0  0  0  0  0  0  0  0  0  0  0
   38.6430   29.2420   43.0260 C   0  0  0  0  0  0  0  0  0  0  0  0
   37.8320   28.9070   42.3320 H   0  0  0  0  0  0  0  0  0  0  0  0
   38.1490   29.4930   43.9790 H   0  0  0  0  0  0  0  0  0  0  0  0
   41.7550   27.1470   43.0460 C   0  0  0  0  0  0  0  0  0  0  0  0
   40.8730   28.2300   42.8840 C   0  0  0  0  0  0  0  0  0  0  0  0
   39.5570   28.0920   43.2040 C   0  0  0  0  0  0  0  0  0  0  0  0
   39.1620   26.9090   43.6650 N   0  0  0  0  0  0  0  0  0  0  0  0
   39.9910   25.8620   43.8260 C   0  0  0  0  0  0  0  0  0  0  0  0
   41.2940   25.9720   43.5190 N   0  0  0  0  0  0  0  0  0  0  0  0
   42.8100   27.2690   42.7860 H   0  0  0  0  0  0  0  0  0  0  0  0
   41.2760   29.1670   42.5000 H   0  0  0  0  0  0  0  0  0  0  0  0
   39.6320   24.9160   44.2050 H   0  0  0  0  0  0  0  0  0  0  0  0
   40.5150   32.1560   40.5230 O   0  0  0  0  0  0  0  0  0  0  0  0
   42.3260   34.0080   41.1230 O   0  0  0  0  0  0  0  0  0  0  0  0
   41.0440   33.7510   40.3410 P   0  0  2  0  0  0  0  0  0  0  0  0
   39.8450   34.7200   41.0620 O   0  0  0  0  0  0  0  0  0  0  0  0
   40.2410   35.4300   41.6270 H   0  0  0  0  0  0  0  0  0  0  0  0
   41.1800   34.2020   38.7390 O   0  0  0  0  0  0  0  0  0  0  0  0
   42.5230   34.3430   38.4250 C   0  0  0  0  0  0  0  0  0  0  0  0
   43.1650   34.4820   39.3210 H   0  0  0  0  0  0  0  0  0  0  0  0
   42.6710   35.2060   37.7380 H   0  0  0  0  0  0  0  0  0  0  0  0
   42.8970   33.0840   37.6970 C   0  0  0  0  0  0  0  0  0  0  0  0
   44.2430   32.8250   37.5180 C   0  0  0  0  0  0  0  0  0  0  0  0
   45.0030   33.5110   37.8940 H   0  0  0  0  0  0  0  0  0  0  0  0
   44.7120   31.7070   36.8690 C   0  0  0  0  0  3  0  0  0  0  0  0
   43.8060   30.7840   36.3600 C   0  0  0  0  0  0  0  0  0  0  0  0
   44.1610   29.9020   35.8480 H   0  0  0  0  0  0  0  0  0  0  0  0
   42.4540   31.0550   36.5450 C   0  0  0  0  0  0  0  0  0  0  0  0
   41.7130   30.3640   36.1660 H   0  0  0  0  0  0  0  0  0  0  0  0
   41.9850   32.1800   37.1990 C   0  0  0  0  0  3  0  0  0  0  0  0
  1 16  1  0  0  0  0
  2  1  1  0  0  0  0
  2  8  1  0  0  0  0
  3  2  1  0  0  0  0
  3 10  1  0  0  0  0
  4 12  1  0  0  0  0
  4  3  1  0  0  0  0
  5  4  1  0  0  0  0
  5  6  1  0  0  0  0
  6 15  1  1  0  0  0
  6  1  1  0  0  0  0
  7  2  1  0  0  0  0
  9  3  1  0  0  0  0
 11  4  1  0  0  0  0
 13  5  1  0  0  0  0
 14  5  1  0  0  0  0
 16 19  1  0  0  0  0
 16 17  1  0  0  0  0
 18 16  1  0  0  0  0
 19 24  1  0  0  0  0
 19 21  1  0  0  0  0
 20 19  1  0  0  0  0
 22 27  1  0  0  0  0
 23 22  2  0  0  0  0
 23 24  1  0  0  0  0
 24 25  2  0  0  0  0
 25 26  1  0  0  0  0
 26 30  1  0  0  0  0
 27 26  2  0  0  0  0
 28 22  1  0  0  0  0
 29 23  1  0  0  0  0
 31  6  1  0  0  0  0
 33 31  1  0  0  0  0
 33 34  1  0  0  0  0
 33 32  2  1  0  0  0
 34 35  1  0  0  0  0
 36 33  1  0  0  0  0
 37 36  1  0  0  0  0
 37 38  1  0  0  0  0
 39 37  1  0  0  0  0
 40 37  1  0  0  0  0
 41 40  1  0  0  0  0
 41 42  1  0  0  0  0
 43 41  2  0  0  0  0
 44 46  2  0  0  0  0
 44 43  1  0  0  0  0
 45 44  1  0  0  0  0
 46 48  1  0  0  0  0
 47 46  1  0  0  0  0
 48 40  2  0  0  0  0
M  END
>  <minimizedAffinity>
-5.19539499

$$$$

 OpenBabel03252509063D

 48 50  0  0  1  0  0  0  0  0999 V2000
   36.4390   30.0720   39.7730 N   0  0  0  0  0  0  0  0  0  0  0  0
   36.5420   30.4190   38.4100 C   0  0  0  0  0  0  0  0  0  0  0  0
   37.2790   29.4130   37.5550 C   0  0  0  0  0  0  0  0  0  0  0  0
   37.0650   27.9820   37.9760 C   0  0  0  0  0  0  0  0  0  0  0  0
   36.0920   27.8720   39.1330 C   0  0  0  0  0  0  0  0  0  0  0  0
   36.7310   28.8100   40.2320 C   0  0  2  0  0  0  0  0  0  0  0  0
   35.5020   30.4550   37.9860 H   0  0  0  0  0  0  0  0  0  0  0  0
   36.9900   31.3960   38.1830 H   0  0  0  0  0  0  0  0  0  0  0  0
   36.9430   29.5500   36.5010 H   0  0  0  0  0  0  0  0  0  0  0  0
   38.3800   29.6150   37.5510 H   0  0  0  0  0  0  0  0  0  0  0  0
   36.5890   27.4130   37.1310 H   0  0  0  0  0  0  0  0  0  0  0  0
   37.9760   27.4410   38.2380 H   0  0  0  0  0  0  0  0  0  0  0  0
   36.1440   26.8500   39.5350 H   0  0  0  0  0  0  0  0  0  0  0  0
   35.0850   28.2180   38.9060 H   0  0  0  0  0  0  0  0  0  0  0  0
   37.7920   28.5000   40.3130 H   0  0  0  0  0  0  0  0  0  0  0  0
   36.5730   31.1840   40.6800 C   0  0  0  0  0  0  0  0  0  0  0  0
   37.0430   30.8960   41.6390 H   0  0  0  0  0  0  0  0  0  0  0  0
   35.5330   31.4810   40.9490 H   0  0  0  0  0  0  0  0  0  0  0  0
   37.2320   32.3000   39.9560 C   0  0  0  0  0  0  0  0  0  0  0  0
   36.7760   33.2980   40.1750 H   0  0  0  0  0  0  0  0  0  0  0  0
   37.1350   32.1470   38.8680 H   0  0  0  0  0  0  0  0  0  0  0  0
   40.5160   31.5600   41.6140 C   0  0  0  0  0  0  0  0  0  0  0  0
   39.1620   31.4920   41.2360 C   0  0  0  0  0  0  0  0  0  0  0  0
   38.6580   32.3870   40.3430 C   0  0  0  0  0  0  0  0  0  0  0  0
   39.4910   33.3040   39.8620 N   0  0  0  0  0  0  0  0  0  0  0  0
   40.7860   33.3860   40.2120 C   0  0  0  0  0  0  0  0  0  0  0  0
   41.3100   32.5140   41.0900 N   0  0  0  0  0  0  0  0  0  0  0  0
   40.9100   30.8360   42.3320 H   0  0  0  0  0  0  0  0  0  0  0  0
   38.5450   30.7090   41.6760 H   0  0  0  0  0  0  0  0  0  0  0  0
   41.4330   34.1460   39.7980 H   0  0  0  0  0  0  0  0  0  0  0  0
   35.9950   28.4450   41.3420 O   0  0  0  0  0  0  0  0  0  0  0  0
   36.3000   26.8830   43.4720 O   0  0  0  0  0  0  0  0  0  0  0  0
   36.9700   27.9670   42.6370 P   0  0  2  0  0  0  0  0  0  0  0  0
   37.1000   29.3310   43.6460 O   0  0  0  0  0  0  0  0  0  0  0  0
   36.9870   29.0900   44.6000 H   0  0  0  0  0  0  0  0  0  0  0  0
   38.5080   27.5320   42.1550 O   0  0  0  0  0  0  0  0  0  0  0  0
   38.7010   26.1860   42.4290 C   0  0  0  0  0  0  0  0  0  0  0  0
   38.3450   25.5220   41.6120 H   0  0  0  0  0  0  0  0  0  0  0  0
   38.1840   25.9060   43.3730 H   0  0  0  0  0  0  0  0  0  0  0  0
   40.1810   26.0280   42.6310 C   0  0  0  0  0  0  0  0  0  0  0  0
   40.7390   26.6180   43.7490 C   0  0  0  0  0  0  0  0  0  0  0  0
   40.1250   27.1760   44.4580 H   0  0  0  0  0  0  0  0  0  0  0  0
   42.0810   26.5450   44.0460 C   0  0  0  0  0  3  0  0  0  0  0  0
   42.9300   25.8510   43.1920 C   0  0  0  0  0  0  0  0  0  0  0  0
   43.9860   25.7860   43.4130 H   0  0  0  0  0  0  0  0  0  0  0  0
   42.3570   25.2620   42.0690 C   0  0  0  0  0  0  0  0  0  0  0  0
   42.9810   24.7120   41.3770 H   0  0  0  0  0  0  0  0  0  0  0  0
   41.0080   25.3370   41.7740 C   0  0  0  0  0  3  0  0  0  0  0  0
  1  6  1  0  0  0  0
  1 16  1  0  0  0  0
  2  1  1  0  0  0  0
  3  4  1  0  0  0  0
  3  2  1  0  0  0  0
  4 12  1  0  0  0  0
  4  5  1  0  0  0  0
  5 13  1  0  0  0  0
  5  6  1  0  0  0  0
  6 15  1  1  0  0  0
  6 31  1  0  0  0  0
  7  2  1  0  0  0  0
  8  2  1  0  0  0  0
  9  3  1  0  0  0  0
 10  3  1  0  0  0  0
 11  4  1  0  0  0  0
 14  5  1  0  0  0  0
 16 18  1  0  0  0  0
 16 17  1  0  0  0  0
 19 20  1  0  0  0  0
 19 24  1  0  0  0  0
 19 16  1  0  0  0  0
 21 19  1  0  0  0  0
 22 28  1  0  0  0  0
 23 22  1  0  0  0  0
 23 29  1  0  0  0  0
 24 23  2  0  0  0  0
 25 26  2  0  0  0  0
 25 24  1  0  0  0  0
 26 27  1  0  0  0  0
 27 22  2  0  0  0  0
 30 26  1  0  0  0  0
 31 33  1  0  0  0  0
 33 32  2  1  0  0  0
 33 34  1  0  0  0  0
 34 35  1  0  0  0  0
 36 37  1  0  0  0  0
 36 33  1  0  0  0  0
 37 40  1  0  0  0  0
 37 39  1  0  0  0  0
 38 37  1  0  0  0  0
 40 41  1  0  0  0  0
 41 43  2  0  0  0  0
 41 42  1  0  0  0  0
 44 45  1  0  0  0  0
 44 43  1  0  0  0  0
 46 44  2  0  0  0  0
 47 46  1  0  0  0  0
 48 46  1  0  0  0  0
 48 40  2  0  0  0  0
M  END
>  <minimizedAffinity>
-5.19392538

$$$$

 OpenBabel03252509063D

 48 50  0  0  1  0  0  0  0  0999 V2000
   36.4300   30.0700   39.8400 N   0  0  0  0  0  0  0  0  0  0  0  0
   36.3160   30.2290   38.4440 C   0  0  0  0  0  0  0  0  0  0  0  0
   37.0150   29.1680   37.6260 C   0  0  0  0  0  0  0  0  0  0  0  0
   36.9870   27.7970   38.2550 C   0  0  0  0  0  0  0  0  0  0  0  0
   36.1930   27.7840   39.5460 C   0  0  0  0  0  0  0  0  0  0  0  0
   36.8910   28.9080   40.4100 C   0  0  2  0  0  0  0  0  0  0  0  0
   35.2290   30.1350   38.1750 H   0  0  0  0  0  0  0  0  0  0  0  0
   36.6420   31.1940   38.0300 H   0  0  0  0  0  0  0  0  0  0  0  0
   36.5280   29.1320   36.6240 H   0  0  0  0  0  0  0  0  0  0  0  0
   38.0840   29.4420   37.4350 H   0  0  0  0  0  0  0  0  0  0  0  0
   36.4520   27.0850   37.5680 H   0  0  0  0  0  0  0  0  0  0  0  0
   37.9680   27.3620   38.4470 H   0  0  0  0  0  0  0  0  0  0  0  0
   36.3880   26.8330   40.0640 H   0  0  0  0  0  0  0  0  0  0  0  0
   35.1380   28.0250   39.4260 H   0  0  0  0  0  0  0  0  0  0  0  0
   37.9760   28.6850   40.3730 H   0  0  0  0  0  0  0  0  0  0  0  0
   36.5880   31.3040   40.5680 C   0  0  0  0  0  0  0  0  0  0  0  0
   37.0120   31.1510   41.5780 H   0  0  0  0  0  0  0  0  0  0  0  0
   35.5560   31.6840   40.7450 H   0  0  0  0  0  0  0  0  0  0  0  0
   37.3240   32.2630   39.7050 C   0  0  0  0  0  0  0  0  0  0  0  0
   36.8700   33.2860   39.6950 H   0  0  0  0  0  0  0  0  0  0  0  0
   37.3130   31.9090   38.6610 H   0  0  0  0  0  0  0  0  0  0  0  0
   40.7630   33.6620   40.2430 C   0  0  0  0  0  0  0  0  0  0  0  0
   39.4400   33.5000   39.7950 C   0  0  0  0  0  0  0  0  0  0  0  0
   38.7150   32.4170   40.1860 C   0  0  0  0  0  0  0  0  0  0  0  0
   39.3100   31.5440   40.9930 N   0  0  0  0  0  0  0  0  0  0  0  0
   40.5740   31.6810   41.4310 C   0  0  0  0  0  0  0  0  0  0  0  0
   41.3110   32.7420   41.0600 N   0  0  0  0  0  0  0  0  0  0  0  0
   41.3360   34.5360   39.9220 H   0  0  0  0  0  0  0  0  0  0  0  0
   39.0240   34.2620   39.1360 H   0  0  0  0  0  0  0  0  0  0  0  0
   41.0230   30.9500   42.0870 H   0  0  0  0  0  0  0  0  0  0  0  0
   36.3470   28.6520   41.6530 O   0  0  0  0  0  0  0  0  0  0  0  0
   36.9060   27.6560   44.0550 O   0  0  0  0  0  0  0  0  0  0  0  0
   37.5230   28.2820   42.8100 P   0  0  2  0  0  0  0  0  0  0  0  0
   38.1730   29.7760   43.3020 O   0  0  0  0  0  0  0  0  0  0  0  0
   38.2740   29.8220   44.2850 H   0  0  0  0  0  0  0  0  0  0  0  0
   38.7660   27.3560   42.1880 O   0  0  0  0  0  0  0  0  0  0  0  0
   38.6690   26.0710   42.7000 C   0  0  0  0  0  0  0  0  0  0  0  0
   38.0680   26.0220   43.6340 H   0  0  0  0  0  0  0  0  0  0  0  0
   39.6820   25.6580   42.9010 H   0  0  0  0  0  0  0  0  0  0  0  0
   38.0270   25.2560   41.6150 C   0  0  0  0  0  0  0  0  0  0  0  0
   38.6870   25.1730   40.4040 C   0  0  0  0  0  0  0  0  0  0  0  0
   39.6390   25.6810   40.2450 H   0  0  0  0  0  0  0  0  0  0  0  0
   38.2030   24.4580   39.3330 C   0  0  0  0  0  3  0  0  0  0  0  0
   36.9950   23.7810   39.4550 C   0  0  0  0  0  0  0  0  0  0  0  0
   36.6040   23.2160   38.6220 H   0  0  0  0  0  0  0  0  0  0  0  0
   36.3390   23.8720   40.6790 C   0  0  0  0  0  0  0  0  0  0  0  0
   35.3960   23.3610   40.8200 H   0  0  0  0  0  0  0  0  0  0  0  0
   36.8290   24.5910   41.7540 C   0  0  0  0  0  3  0  0  0  0  0  0
  1  6  1  0  0  0  0
  1 16  1  0  0  0  0
  2  1  1  0  0  0  0
  3  4  1  0  0  0  0
  3  2  1  0  0  0  0
  4 12  1  0  0  0  0
  4  5  1  0  0  0  0
  5 13  1  0  0  0  0
  5  6  1  0  0  0  0
  6 15  1  6  0  0  0
  6 31  1  0  0  0  0
  7  2  1  0  0  0  0
  8  2  1  0  0  0  0
  9  3  1  0  0  0  0
 10  3  1  0  0  0  0
 11  4  1  0  0  0  0
 14  5  1  0  0  0  0
 16 18  1  0  0  0  0
 16 17  1  0  0  0  0
 19 24  1  0  0  0  0
 19 16  1  0  0  0  0
 20 19  1  0  0  0  0
 21 19  1  0  0  0  0
 22 27  1  0  0  0  0
 23 24  1  0  0  0  0
 23 22  2  0  0  0  0
 24 25  2  0  0  0  0
 25 26  1  0  0  0  0
 26 30  1  0  0  0  0
 27 26  2  0  0  0  0
 28 22  1  0  0  0  0
 29 23  1  0  0  0  0
 31 33  1  0  0  0  0
 33 34  1  0  0  0  0
 33 32  2  1  0  0  0
 34 35  1  0  0  0  0
 36 37  1  0  0  0  0
 36 33  1  0  0  0  0
 37 39  1  0  0  0  0
 37 38  1  0  0  0  0
 40 48  1  0  0  0  0
 40 37  1  0  0  0  0
 41 40  2  0  0  0  0
 42 41  1  0  0  0  0
 43 44  2  0  0  0  0
 43 41  1  0  0  0  0
 44 46  1  0  0  0  0
 45 44  1  0  0  0  0
 46 47  1  0  0  0  0
 46 48  2  0  0  0  0
M  END
>  <minimizedAffinity>
-5.15601063

$$$$

 OpenBabel03252509063D

 48 50  0  0  1  0  0  0  0  0999 V2000
   39.1910   28.9640   38.4400 N   0  0  0  0  0  0  0  0  0  0  0  0
   40.1500   28.0770   37.9090 C   0  0  0  0  0  0  0  0  0  0  0  0
   40.6060   26.9940   38.8600 C   0  0  0  0  0  0  0  0  0  0  0  0
   39.5240   26.5000   39.7860 C   0  0  0  0  0  0  0  0  0  0  0  0
   38.1910   27.1620   39.5010 C   0  0  0  0  0  0  0  0  0  0  0  0
   38.5220   28.7030   39.6120 C   0  0  2  0  0  0  0  0  0  0  0  0
   39.6740   27.5290   37.0510 H   0  0  0  0  0  0  0  0  0  0  0  0
   41.0650   28.5290   37.5020 H   0  0  0  0  0  0  0  0  0  0  0  0
   40.9960   26.1460   38.2500 H   0  0  0  0  0  0  0  0  0  0  0  0
   41.4690   27.3410   39.4840 H   0  0  0  0  0  0  0  0  0  0  0  0
   39.3560   25.4020   39.6090 H   0  0  0  0  0  0  0  0  0  0  0  0
   39.7450   26.6110   40.8480 H   0  0  0  0  0  0  0  0  0  0  0  0
   37.5060   26.9350   40.3310 H   0  0  0  0  0  0  0  0  0  0  0  0
   37.7880   26.9510   38.5110 H   0  0  0  0  0  0  0  0  0  0  0  0
   39.0570   28.8280   40.5750 H   0  0  0  0  0  0  0  0  0  0  0  0
   39.3610   30.3360   38.0340 C   0  0  0  0  0  0  0  0  0  0  0  0
   38.4030   30.8250   37.7770 H   0  0  0  0  0  0  0  0  0  0  0  0
   39.9290   30.2980   37.0760 H   0  0  0  0  0  0  0  0  0  0  0  0
   40.1760   31.0290   39.0620 C   0  0  0  0  0  0  0  0  0  0  0  0
   41.2120   31.2700   38.7150 H   0  0  0  0  0  0  0  0  0  0  0  0
   40.2890   30.3820   39.9470 H   0  0  0  0  0  0  0  0  0  0  0  0
   39.7400   34.6060   40.1090 C   0  0  0  0  0  0  0  0  0  0  0  0
   40.3270   33.3780   39.7520 C   0  0  0  0  0  0  0  0  0  0  0  0
   39.5420   32.3130   39.4350 C   0  0  0  0  0  0  0  0  0  0  0  0
   38.2250   32.4910   39.4810 N   0  0  0  0  0  0  0  0  0  0  0  0
   37.6460   33.6560   39.8200 C   0  0  0  0  0  0  0  0  0  0  0  0
   38.3990   34.7230   40.1370 N   0  0  0  0  0  0  0  0  0  0  0  0
   40.3810   35.4540   40.3620 H   0  0  0  0  0  0  0  0  0  0  0  0
   41.4150   33.3140   39.7380 H   0  0  0  0  0  0  0  0  0  0  0  0
   36.5710   33.7620   39.8460 H   0  0  0  0  0  0  0  0  0  0  0  0
   37.2490   29.2380   39.6490 O   0  0  0  0  0  0  0  0  0  0  0  0
   35.8250   28.4280   41.7430 O   0  0  0  0  0  0  0  0  0  0  0  0
   36.7220   29.5450   41.2260 P   0  0  2  0  0  0  0  0  0  0  0  0
   35.7410   30.9320   41.1230 O   0  0  0  0  0  0  0  0  0  0  0  0
   34.9100   30.8300   41.6510 H   0  0  0  0  0  0  0  0  0  0  0  0
   37.9820   29.8790   42.2690 O   0  0  0  0  0  0  0  0  0  0  0  0
   37.9050   29.0200   43.3550 C   0  0  0  0  0  0  0  0  0  0  0  0
   36.9790   28.4050   43.3570 H   0  0  0  0  0  0  0  0  0  0  0  0
   37.9590   29.5940   44.3070 H   0  0  0  0  0  0  0  0  0  0  0  0
   39.1210   28.1440   43.2580 C   0  0  0  0  0  0  0  0  0  0  0  0
   40.2810   28.7130   42.7690 C   0  0  0  0  0  0  0  0  0  0  0  0
   40.3100   29.7610   42.4670 H   0  0  0  0  0  0  0  0  0  0  0  0
   41.4600   28.0170   42.6320 C   0  0  0  0  0  3  0  0  0  0  0  0
   41.5040   26.6760   42.9960 C   0  0  0  0  0  0  0  0  0  0  0  0
   42.4230   26.1170   42.8930 H   0  0  0  0  0  0  0  0  0  0  0  0
   40.3300   26.1130   43.4860 C   0  0  0  0  0  0  0  0  0  0  0  0
   40.3190   25.0720   43.7820 H   0  0  0  0  0  0  0  0  0  0  0  0
   39.1480   26.8160   43.6230 C   0  0  0  0  0  3  0  0  0  0  0  0
  1  6  1  0  0  0  0
  2  1  1  0  0  0  0
  2  3  1  0  0  0  0
  3 10  1  0  0  0  0
  3  4  1  0  0  0  0
  4 12  1  0  0  0  0
  5  6  1  0  0  0  0
  5  4  1  0  0  0  0
  5 13  1  0  0  0  0
  6 31  1  0  0  0  0
  6 15  1  1  0  0  0
  7  2  1  0  0  0  0
  8  2  1  0  0  0  0
  9  3  1  0  0  0  0
 11  4  1  0  0  0  0
 14  5  1  0  0  0  0
 16  1  1  0  0  0  0
 16 19  1  0  0  0  0
 17 16  1  0  0  0  0
 18 16  1  0  0  0  0
 19 24  1  0  0  0  0
 19 21  1  0  0  0  0
 20 19  1  0  0  0  0
 22 27  1  0  0  0  0
 22 28  1  0  0  0  0
 23 22  2  0  0  0  0
 24 25  2  0  0  0  0
 24 23  1  0  0  0  0
 25 26  1  0  0  0  0
 26 30  1  0  0  0  0
 26 27  2  0  0  0  0
 29 23  1  0  0  0  0
 31 33  1  0  0  0  0
 33 32  2  1  0  0  0
 33 36  1  0  0  0  0
 34 33  1  0  0  0  0
 34 35  1  0  0  0  0
 36 37  1  0  0  0  0
 37 38  1  0  0  0  0
 37 39  1  0  0  0  0
 40 37  1  0  0  0  0
 40 48  1  0  0  0  0
 41 40  2  0  0  0  0
 42 41  1  0  0  0  0
 43 41  1  0  0  0  0
 43 44  2  0  0  0  0
 44 46  1  0  0  0  0
 45 44  1  0  0  0  0
 46 48  2  0  0  0  0
 46 47  1  0  0  0  0
M  END
>  <minimizedAffinity>
-5.14642

$$$$
