
 OpenBabel03252509043D

 48 50  0  0  1  0  0  0  0  0999 V2000
   47.0490   34.3600   43.2420 N   0  0  0  0  0  0  0  0  0  0  0  0
   46.7030   34.8980   41.9850 C   0  0  0  0  0  0  0  0  0  0  0  0
   45.2740   34.6450   41.5600 C   0  0  0  0  0  0  0  0  0  0  0  0
   44.2890   34.6480   42.7010 C   0  0  0  0  0  0  0  0  0  0  0  0
   44.9550   34.9770   44.0220 C   0  0  0  0  0  0  0  0  0  0  0  0
   46.1040   33.8960   44.1250 C   0  0  2  0  0  0  0  0  0  0  0  0
   46.7930   36.0160   42.0530 H   0  0  0  0  0  0  0  0  0  0  0  0
   47.3300   34.6000   41.1330 H   0  0  0  0  0  0  0  0  0  0  0  0
   44.9950   35.4290   40.8190 H   0  0  0  0  0  0  0  0  0  0  0  0
   45.1790   33.6690   41.0190 H   0  0  0  0  0  0  0  0  0  0  0  0
   43.5320   35.4640   42.5370 H   0  0  0  0  0  0  0  0  0  0  0  0
   43.7240   33.7220   42.8200 H   0  0  0  0  0  0  0  0  0  0  0  0
   44.2480   34.7500   44.8340 H   0  0  0  0  0  0  0  0  0  0  0  0
   45.3930   35.9730   44.0680 H   0  0  0  0  0  0  0  0  0  0  0  0
   45.6180   32.9200   43.9280 H   0  0  0  0  0  0  0  0  0  0  0  0
   48.3820   33.8160   43.3090 C   0  0  0  0  0  0  0  0  0  0  0  0
   48.8760   34.0210   44.2770 H   0  0  0  0  0  0  0  0  0  0  0  0
   48.9770   34.3840   42.5570 H   0  0  0  0  0  0  0  0  0  0  0  0
   48.3220   32.3870   42.9120 C   0  0  0  0  0  0  0  0  0  0  0  0
   47.3140   32.0740   42.5410 H   0  0  0  0  0  0  0  0  0  0  0  0
   48.5440   31.7480   43.7820 H   0  0  0  0  0  0  0  0  0  0  0  0
   51.5420   31.8890   41.0500 C   0  0  0  0  0  0  0  0  0  0  0  0
   50.6160   32.1390   42.0800 C   0  0  0  0  0  0  0  0  0  0  0  0
   49.2810   32.1230   41.8160 C   0  0  0  0  0  0  0  0  0  0  0  0
   48.9100   31.8660   40.5660 N   0  0  0  0  0  0  0  0  0  0  0  0
   49.7790   31.6260   39.5680 C   0  0  0  0  0  0  0  0  0  0  0  0
   51.1020   31.6350   39.8020 N   0  0  0  0  0  0  0  0  0  0  0  0
   52.6110   31.9050   41.2740 H   0  0  0  0  0  0  0  0  0  0  0  0
   51.0020   32.3410   43.0790 H   0  0  0  0  0  0  0  0  0  0  0  0
   49.4380   31.4200   38.5640 H   0  0  0  0  0  0  0  0  0  0  0  0
   46.4720   34.0380   45.4490 O   0  0  0  0  0  0  0  0  0  0  0  0
   45.8160   31.4610   45.4550 O   0  0  0  0  0  0  0  0  0  0  0  0
   46.2050   32.6320   46.3490 P   0  0  2  0  0  0  0  0  0  0  0  0
   44.8480   32.9580   47.3230 O   0  0  0  0  0  0  0  0  0  0  0  0
   44.2130   32.2000   47.3270 H   0  0  0  0  0  0  0  0  0  0  0  0
   47.4870   32.2610   47.3540 O   0  0  0  0  0  0  0  0  0  0  0  0
   47.5810   30.8830   47.4710 C   0  0  0  0  0  0  0  0  0  0  0  0
   47.7360   30.3750   46.4950 H   0  0  0  0  0  0  0  0  0  0  0  0
   46.6640   30.4720   47.9500 H   0  0  0  0  0  0  0  0  0  0  0  0
   48.7470   30.6390   48.3860 C   0  0  0  0  0  0  0  0  0  0  0  0
   49.4310   29.4460   48.2450 C   0  0  0  0  0  0  0  0  0  0  0  0
   49.1330   28.7110   47.4960 H   0  0  0  0  0  0  0  0  0  0  0  0
   50.5140   29.1070   49.0210 C   0  0  0  0  0  3  0  0  0  0  0  0
   50.9570   29.9910   49.9980 C   0  0  0  0  0  0  0  0  0  0  0  0
   51.8060   29.7360   50.6140 H   0  0  0  0  0  0  0  0  0  0  0  0
   50.2610   31.1880   50.1320 C   0  0  0  0  0  0  0  0  0  0  0  0
   50.5690   31.9060   50.8800 H   0  0  0  0  0  0  0  0  0  0  0  0
   49.1720   31.5260   49.3500 C   0  0  0  0  0  3  0  0  0  0  0  0
  1 16  1  0  0  0  0
  1  6  1  0  0  0  0
  2  7  1  0  0  0  0
  2  1  1  0  0  0  0
  3  2  1  0  0  0  0
  3  4  1  0  0  0  0
  4 12  1  0  0  0  0
  4  5  1  0  0  0  0
  5 14  1  0  0  0  0
  5  6  1  0  0  0  0
  5 13  1  0  0  0  0
  6 15  1  6  0  0  0
  6 31  1  0  0  0  0
  8  2  1  0  0  0  0
  9  3  1  0  0  0  0
 10  3  1  0  0  0  0
 11  4  1  0  0  0  0
 16 17  1  0  0  0  0
 18 16  1  0  0  0  0
 19 16  1  0  0  0  0
 19 21  1  0  0  0  0
 20 19  1  0  0  0  0
 22 28  1  0  0  0  0
 22 23  1  0  0  0  0
 23 29  1  0  0  0  0
 24 23  2  0  0  0  0
 24 19  1  0  0  0  0
 25 24  1  0  0  0  0
 26 27  1  0  0  0  0
 26 25  2  0  0  0  0
 27 22  2  0  0  0  0
 30 26  1  0  0  0  0
 31 33  1  0  0  0  0
 33 32  2  6  0  0  0
 33 34  1  0  0  0  0
 33 36  1  0  0  0  0
 34 35  1  0  0  0  0
 36 37  1  0  0  0  0
 37 39  1  0  0  0  0
 37 40  1  0  0  0  0
 38 37  1  0  0  0  0
 40 48  1  0  0  0  0
 41 40  2  0  0  0  0
 41 43  1  0  0  0  0
 42 41  1  0  0  0  0
 43 44  2  0  0  0  0
 44 46  1  0  0  0  0
 44 45  1  0  0  0  0
 46 47  1  0  0  0  0
 48 46  2  0  0  0  0
M  END
>  <minimizedAffinity>
-4.94828653

>  <minimizedRMSD>
2.86692858

$$$$
