
 OpenBabel03252508433D

 31 33  0  0  0  0  0  0  0  0999 V2000
   37.2360   30.9960   38.5380 C   0  0  0  0  0  0  0  0  0  0  0  0
   36.3590   30.2370   39.3130 C   0  0  0  0  0  0  0  0  0  0  0  0
   35.5900   29.2780   38.6600 C   0  0  0  0  0  0  0  0  0  0  0  0
   35.7040   29.1030   37.3120 C   0  0  0  0  0  0  0  0  0  0  0  0
   36.5590   29.8400   36.5350 C   0  0  0  0  0  0  0  0  0  0  0  0
   37.3200   30.7940   37.2080 C   0  0  0  0  0  0  0  0  0  0  0  0
   34.8870   28.6520   39.1990 H   0  0  0  0  0  0  0  0  0  0  0  0
   35.1120   28.3610   36.7880 H   0  0  0  0  0  0  0  0  0  0  0  0
   36.7120   29.7690   35.4690 H   0  0  0  0  0  0  0  0  0  0  0  0
   38.0240   31.4250   36.6880 H   0  0  0  0  0  0  0  0  0  0  0  0
   38.3710   34.1610   40.2560 C   0  0  0  0  0  0  0  0  0  0  0  0
   37.5530   33.2610   39.5530 C   0  0  0  0  0  0  0  0  0  0  0  0
   38.0030   31.9940   39.2570 C   0  0  0  0  0  0  0  0  0  0  0  0
   39.2370   31.7260   39.6870 N   0  0  0  0  0  0  0  0  0  0  0  0
   40.0470   32.5590   40.3600 C   0  0  0  0  0  0  0  0  0  0  0  0
   39.5970   33.7980   40.6460 N   0  0  0  0  0  0  0  0  0  0  0  0
   38.0400   35.1430   40.4930 H   0  0  0  0  0  0  0  0  0  0  0  0
   36.5610   33.5490   39.2370 H   0  0  0  0  0  0  0  0  0  0  0  0
   41.0390   32.2620   40.6750 H   0  0  0  0  0  0  0  0  0  0  0  0
   36.2370   30.4340   40.7740 C   0  0  0  0  0  0  0  0  0  0  0  0
   35.1360   30.5970   40.9700 H   0  0  0  0  0  0  0  0  0  0  0  0
   36.6790   31.4240   41.0710 H   0  0  0  0  0  0  0  0  0  0  0  0
   36.6930   29.3500   41.6320 C   0  0  0  0  0  0  0  0  0  0  0  0
   37.8680   29.7490   42.2980 C   0  0  0  0  0  0  0  0  0  0  0  0
   38.3830   30.7210   42.2320 H   0  0  0  0  0  0  0  0  0  0  0  0
   38.5740   28.9230   43.1750 C   0  0  0  0  0  3  0  0  0  0  0  0
   38.1170   27.6460   43.4180 C   0  0  0  0  0  0  0  0  0  0  0  0
   38.5640   26.9130   44.0680 H   0  0  0  0  0  0  0  0  0  0  0  0
   36.9700   27.2090   42.7890 C   0  0  0  0  0  0  0  0  0  0  0  0
   36.4790   26.2540   42.8640 H   0  0  0  0  0  0  0  0  0  0  0  0
   36.3110   28.0600   41.9350 C   0  0  0  0  0  3  0  0  0  0  0  0
  1 13  1  0  0  0  0
  1  2  1  0  0  0  0
  2 20  1  0  0  0  0
  3  7  1  0  0  0  0
  3  2  2  0  0  0  0
  4  3  1  0  0  0  0
  5  6  1  0  0  0  0
  5  4  2  0  0  0  0
  6  1  2  0  0  0  0
  8  4  1  0  0  0  0
  9  5  1  0  0  0  0
 10  6  1  0  0  0  0
 11 17  1  0  0  0  0
 11 16  1  0  0  0  0
 12 11  2  0  0  0  0
 13 12  1  0  0  0  0
 13 14  2  0  0  0  0
 14 15  1  0  0  0  0
 15 16  2  0  0  0  0
 15 19  1  0  0  0  0
 18 12  1  0  0  0  0
 20 21  1  0  0  0  0
 20 22  1  0  0  0  0
 20 23  1  0  0  0  0
 23 31  2  0  0  0  0
 23 24  1  0  0  0  0
 24 26  2  0  0  0  0
 25 24  1  0  0  0  0
 26 27  1  0  0  0  0
 27 28  1  0  0  0  0
 29 30  1  0  0  0  0
 29 27  2  0  0  0  0
 31 29  1  0  0  0  0
M  END
>  <minimizedAffinity>
-5.93509054

$$$$

 OpenBabel03252508433D

 31 33  0  0  0  0  0  0  0  0999 V2000
   36.7580   30.6230   39.0280 C   0  0  0  0  0  0  0  0  0  0  0  0
   36.2430   29.9720   40.1490 C   0  0  0  0  0  0  0  0  0  0  0  0
   35.3020   28.9700   39.9350 C   0  0  0  0  0  0  0  0  0  0  0  0
   34.9110   28.6500   38.6680 C   0  0  0  0  0  0  0  0  0  0  0  0
   35.4050   29.2790   37.5550 C   0  0  0  0  0  0  0  0  0  0  0  0
   36.3460   30.2790   37.7910 C   0  0  0  0  0  0  0  0  0  0  0  0
   34.8600   28.4220   40.7600 H   0  0  0  0  0  0  0  0  0  0  0  0
   34.1790   27.8720   38.4830 H   0  0  0  0  0  0  0  0  0  0  0  0
   35.1530   29.0910   36.5220 H   0  0  0  0  0  0  0  0  0  0  0  0
   36.7970   30.8340   36.9830 H   0  0  0  0  0  0  0  0  0  0  0  0
   39.9400   32.6050   39.4760 C   0  0  0  0  0  0  0  0  0  0  0  0
   39.0850   31.5280   39.1920 C   0  0  0  0  0  0  0  0  0  0  0  0
   37.7200   31.6720   39.2990 C   0  0  0  0  0  0  0  0  0  0  0  0
   37.3170   32.8850   39.6820 N   0  0  0  0  0  0  0  0  0  0  0  0
   38.1030   33.9370   39.9620 C   0  0  0  0  0  0  0  0  0  0  0  0
   39.4390   33.7850   39.8540 N   0  0  0  0  0  0  0  0  0  0  0  0
   40.9960   32.5100   39.3980 H   0  0  0  0  0  0  0  0  0  0  0  0
   39.4850   30.5720   38.8850 H   0  0  0  0  0  0  0  0  0  0  0  0
   37.6940   34.8910   40.2670 H   0  0  0  0  0  0  0  0  0  0  0  0
   36.6680   30.3260   41.5210 C   0  0  0  0  0  0  0  0  0  0  0  0
   35.7210   30.5990   42.0750 H   0  0  0  0  0  0  0  0  0  0  0  0
   37.2280   31.3020   41.5150 H   0  0  0  0  0  0  0  0  0  0  0  0
   37.3600   29.3010   42.2890 C   0  0  0  0  0  0  0  0  0  0  0  0
   38.7510   29.4680   42.1370 C   0  0  0  0  0  0  0  0  0  0  0  0
   39.2770   30.2470   41.5630 H   0  0  0  0  0  0  0  0  0  0  0  0
   39.6950   28.6250   42.7250 C   0  0  0  0  0  3  0  0  0  0  0  0
   39.2700   27.5660   43.4980 C   0  0  0  0  0  0  0  0  0  0  0  0
   39.8910   26.8460   44.0050 H   0  0  0  0  0  0  0  0  0  0  0  0
   37.9180   27.3600   43.6760 C   0  0  0  0  0  0  0  0  0  0  0  0
   37.4190   26.5930   44.2420 H   0  0  0  0  0  0  0  0  0  0  0  0
   37.0280   28.2190   43.0770 C   0  0  0  0  0  3  0  0  0  0  0  0
  1 13  1  0  0  0  0
  1  2  1  0  0  0  0
  2 20  1  0  0  0  0
  3  2  2  0  0  0  0
  3  7  1  0  0  0  0
  4  3  1  0  0  0  0
  5  6  1  0  0  0  0
  5  4  2  0  0  0  0
  6  1  2  0  0  0  0
  8  4  1  0  0  0  0
  9  5  1  0  0  0  0
 10  6  1  0  0  0  0
 11 16  1  0  0  0  0
 12 13  1  0  0  0  0
 12 11  2  0  0  0  0
 13 14  2  0  0  0  0
 14 15  1  0  0  0  0
 15 19  1  0  0  0  0
 16 15  2  0  0  0  0
 17 11  1  0  0  0  0
 18 12  1  0  0  0  0
 20 21  1  0  0  0  0
 20 23  1  0  0  0  0
 22 20  1  0  0  0  0
 23 31  1  0  0  0  0
 24 23  2  0  0  0  0
 24 26  1  0  0  0  0
 25 24  1  0  0  0  0
 26 27  2  0  0  0  0
 27 29  1  0  0  0  0
 27 28  1  0  0  0  0
 29 30  1  0  0  0  0
 31 29  2  0  0  0  0
M  END
>  <minimizedAffinity>
-5.60444212

$$$$

 OpenBabel03252508433D

 31 33  0  0  0  0  0  0  0  0999 V2000
   36.5690   29.7580   38.0700 C   0  0  0  0  0  0  0  0  0  0  0  0
   36.4250   30.3310   39.3340 C   0  0  0  0  0  0  0  0  0  0  0  0
   36.9400   31.6100   39.5220 C   0  0  0  0  0  0  0  0  0  0  0  0
   37.5590   32.2630   38.4960 C   0  0  0  0  0  0  0  0  0  0  0  0
   37.7100   31.7160   37.2490 C   0  0  0  0  0  0  0  0  0  0  0  0
   37.1870   30.4340   37.0810 C   0  0  0  0  0  0  0  0  0  0  0  0
   36.8630   32.1170   40.4780 H   0  0  0  0  0  0  0  0  0  0  0  0
   37.9650   33.2590   38.6260 H   0  0  0  0  0  0  0  0  0  0  0  0
   38.1830   32.1580   36.3860 H   0  0  0  0  0  0  0  0  0  0  0  0
   37.2540   29.9160   36.1380 H   0  0  0  0  0  0  0  0  0  0  0  0
   36.0990   26.0120   38.1050 C   0  0  0  0  0  0  0  0  0  0  0  0
   36.7000   27.2680   38.2840 C   0  0  0  0  0  0  0  0  0  0  0  0
   36.0350   28.4190   37.9250 C   0  0  0  0  0  0  0  0  0  0  0  0
   34.8180   28.2220   37.4140 N   0  0  0  0  0  0  0  0  0  0  0  0
   34.2110   27.0380   37.2280 C   0  0  0  0  0  0  0  0  0  0  0  0
   34.8720   25.9180   37.5830 N   0  0  0  0  0  0  0  0  0  0  0  0
   36.5990   25.1140   38.3760 H   0  0  0  0  0  0  0  0  0  0  0  0
   37.6920   27.3510   38.7060 H   0  0  0  0  0  0  0  0  0  0  0  0
   33.2180   26.9650   36.8060 H   0  0  0  0  0  0  0  0  0  0  0  0
   35.7560   29.6170   40.4430 C   0  0  0  0  0  0  0  0  0  0  0  0
   35.2640   28.7130   39.9720 H   0  0  0  0  0  0  0  0  0  0  0  0
   34.8690   30.2050   40.8060 H   0  0  0  0  0  0  0  0  0  0  0  0
   36.5950   29.1540   41.5390 C   0  0  0  0  0  0  0  0  0  0  0  0
   36.1920   27.8590   41.9160 C   0  0  0  0  0  0  0  0  0  0  0  0
   35.3960   27.2440   41.4680 H   0  0  0  0  0  0  0  0  0  0  0  0
   36.7790   27.1440   42.9620 C   0  0  0  0  0  3  0  0  0  0  0  0
   37.8080   27.7150   43.6780 C   0  0  0  0  0  0  0  0  0  0  0  0
   38.3440   27.2740   44.5020 H   0  0  0  0  0  0  0  0  0  0  0  0
   38.2380   28.9830   43.3480 C   0  0  0  0  0  0  0  0  0  0  0  0
   39.0200   29.5710   43.7960 H   0  0  0  0  0  0  0  0  0  0  0  0
   37.6280   29.6450   42.3100 C   0  0  0  0  0  3  0  0  0  0  0  0
  1  2  1  0  0  0  0
  2  3  2  0  0  0  0
  2 20  1  0  0  0  0
  3  7  1  0  0  0  0
  4  8  1  0  0  0  0
  4  3  1  0  0  0  0
  5  4  2  0  0  0  0
  6  5  1  0  0  0  0
  6  1  2  0  0  0  0
  9  5  1  0  0  0  0
 10  6  1  0  0  0  0
 11 12  1  0  0  0  0
 11 17  1  0  0  0  0
 12 18  1  0  0  0  0
 13  1  1  0  0  0  0
 13 12  2  0  0  0  0
 14 13  1  0  0  0  0
 15 14  2  0  0  0  0
 15 16  1  0  0  0  0
 16 11  2  0  0  0  0
 19 15  1  0  0  0  0
 20 22  1  0  0  0  0
 20 23  1  0  0  0  0
 21 20  1  0  0  0  0
 23 24  2  0  0  0  0
 23 31  1  0  0  0  0
 24 26  1  0  0  0  0
 25 24  1  0  0  0  0
 26 27  2  0  0  0  0
 27 28  1  0  0  0  0
 29 27  1  0  0  0  0
 29 30  1  0  0  0  0
 31 29  2  0  0  0  0
M  END
>  <minimizedAffinity>
-5.41692495

$$$$

 OpenBabel03252508433D

 31 33  0  0  0  0  0  0  0  0999 V2000
   36.3470   30.1190   38.7350 C   0  0  0  0  0  0  0  0  0  0  0  0
   36.2810   30.1650   40.1270 C   0  0  0  0  0  0  0  0  0  0  0  0
   36.7700   31.3050   40.7570 C   0  0  0  0  0  0  0  0  0  0  0  0
   37.2920   32.3290   40.0210 C   0  0  0  0  0  0  0  0  0  0  0  0
   37.3650   32.3010   38.6530 C   0  0  0  0  0  0  0  0  0  0  0  0
   36.8690   31.1500   38.0420 C   0  0  0  0  0  0  0  0  0  0  0  0
   36.7500   31.4100   41.8360 H   0  0  0  0  0  0  0  0  0  0  0  0
   37.6780   33.2240   40.4950 H   0  0  0  0  0  0  0  0  0  0  0  0
   37.7600   33.0610   37.9960 H   0  0  0  0  0  0  0  0  0  0  0  0
   36.8800   31.0300   36.9710 H   0  0  0  0  0  0  0  0  0  0  0  0
   34.1200   27.4420   37.2730 C   0  0  0  0  0  0  0  0  0  0  0  0
   34.5130   28.6500   37.8720 C   0  0  0  0  0  0  0  0  0  0  0  0
   35.8420   28.9050   38.1230 C   0  0  0  0  0  0  0  0  0  0  0  0
   36.6750   27.9300   37.7560 N   0  0  0  0  0  0  0  0  0  0  0  0
   36.3380   26.7640   37.1820 C   0  0  0  0  0  0  0  0  0  0  0  0
   35.0330   26.5240   36.9400 N   0  0  0  0  0  0  0  0  0  0  0  0
   33.0980   27.2300   37.0720 H   0  0  0  0  0  0  0  0  0  0  0  0
   33.7800   29.3970   38.1420 H   0  0  0  0  0  0  0  0  0  0  0  0
   37.0790   26.0230   36.9130 H   0  0  0  0  0  0  0  0  0  0  0  0
   35.7170   29.0500   40.9190 C   0  0  0  0  0  0  0  0  0  0  0  0
   35.2840   28.3270   40.1650 H   0  0  0  0  0  0  0  0  0  0  0  0
   34.8000   29.3900   41.4730 H   0  0  0  0  0  0  0  0  0  0  0  0
   36.6340   28.3120   41.7760 C   0  0  0  0  0  0  0  0  0  0  0  0
   36.9310   27.0720   41.1780 C   0  0  0  0  0  0  0  0  0  0  0  0
   36.5740   26.6890   40.2090 H   0  0  0  0  0  0  0  0  0  0  0  0
   37.7610   26.1150   41.7640 C   0  0  0  0  0  3  0  0  0  0  0  0
   38.3310   26.3730   42.9920 C   0  0  0  0  0  0  0  0  0  0  0  0
   38.9860   25.7230   43.5490 H   0  0  0  0  0  0  0  0  0  0  0  0
   38.0690   27.5720   43.6190 C   0  0  0  0  0  0  0  0  0  0  0  0
   38.4270   27.9330   44.5680 H   0  0  0  0  0  0  0  0  0  0  0  0
   37.2460   28.4830   43.0010 C   0  0  0  0  0  3  0  0  0  0  0  0
  1  2  1  0  0  0  0
  2  3  2  0  0  0  0
  2 20  1  0  0  0  0
  3  7  1  0  0  0  0
  4  8  1  0  0  0  0
  4  3  1  0  0  0  0
  5  4  2  0  0  0  0
  6  5  1  0  0  0  0
  6  1  2  0  0  0  0
  9  5  1  0  0  0  0
 10  6  1  0  0  0  0
 11 12  1  0  0  0  0
 12 13  2  0  0  0  0
 12 18  1  0  0  0  0
 13  1  1  0  0  0  0
 14 13  1  0  0  0  0
 15 14  2  0  0  0  0
 16 15  1  0  0  0  0
 16 11  2  0  0  0  0
 17 11  1  0  0  0  0
 19 15  1  0  0  0  0
 20 22  1  0  0  0  0
 20 23  1  0  0  0  0
 21 20  1  0  0  0  0
 23 31  1  0  0  0  0
 24 26  1  0  0  0  0
 24 23  2  0  0  0  0
 25 24  1  0  0  0  0
 26 27  2  0  0  0  0
 27 28  1  0  0  0  0
 27 29  1  0  0  0  0
 29 30  1  0  0  0  0
 31 29  2  0  0  0  0
M  END
>  <minimizedAffinity>
-5.40611029

$$$$

 OpenBabel03252508433D

 31 33  0  0  0  0  0  0  0  0999 V2000
   36.8350   26.7210   40.5900 C   0  0  0  0  0  0  0  0  0  0  0  0
   37.2480   26.2610   41.8400 C   0  0  0  0  0  0  0  0  0  0  0  0
   37.2340   24.8870   42.0560 C   0  0  0  0  0  0  0  0  0  0  0  0
   36.8280   24.0370   41.0690 C   0  0  0  0  0  0  0  0  0  0  0  0
   36.4180   24.4710   39.8350 C   0  0  0  0  0  0  0  0  0  0  0  0
   36.4390   25.8500   39.6390 C   0  0  0  0  0  0  0  0  0  0  0  0
   37.5430   24.4590   43.0030 H   0  0  0  0  0  0  0  0  0  0  0  0
   36.8100   22.9640   41.2200 H   0  0  0  0  0  0  0  0  0  0  0  0
   36.0820   23.8730   39.0020 H   0  0  0  0  0  0  0  0  0  0  0  0
   36.1370   26.2930   38.7030 H   0  0  0  0  0  0  0  0  0  0  0  0
   35.9750   30.3970   40.6670 C   0  0  0  0  0  0  0  0  0  0  0  0
   35.8750   29.0130   40.8840 C   0  0  0  0  0  0  0  0  0  0  0  0
   36.8480   28.1600   40.4150 C   0  0  0  0  0  0  0  0  0  0  0  0
   37.8460   28.7590   39.7640 N   0  0  0  0  0  0  0  0  0  0  0  0
   37.9770   30.0760   39.5370 C   0  0  0  0  0  0  0  0  0  0  0  0
   37.0180   30.9030   40.0010 N   0  0  0  0  0  0  0  0  0  0  0  0
   35.2320   31.0690   41.0220 H   0  0  0  0  0  0  0  0  0  0  0  0
   35.0350   28.5990   41.4230 H   0  0  0  0  0  0  0  0  0  0  0  0
   38.8220   30.4820   38.9980 H   0  0  0  0  0  0  0  0  0  0  0  0
   37.6840   27.1880   42.9070 C   0  0  0  0  0  0  0  0  0  0  0  0
   37.2010   26.8110   43.8570 H   0  0  0  0  0  0  0  0  0  0  0  0
   37.1950   28.1910   42.7750 H   0  0  0  0  0  0  0  0  0  0  0  0
   39.1160   27.3030   43.1450 C   0  0  0  0  0  0  0  0  0  0  0  0
   39.5410   28.5990   42.7950 C   0  0  0  0  0  0  0  0  0  0  0  0
   38.9250   29.4320   42.4220 H   0  0  0  0  0  0  0  0  0  0  0  0
   40.8690   29.0220   42.8780 C   0  0  0  0  0  3  0  0  0  0  0  0
   41.8330   28.1440   43.3230 C   0  0  0  0  0  0  0  0  0  0  0  0
   42.8860   28.3420   43.4340 H   0  0  0  0  0  0  0  0  0  0  0  0
   41.4670   26.8620   43.6770 C   0  0  0  0  0  0  0  0  0  0  0  0
   42.0820   26.0580   44.0410 H   0  0  0  0  0  0  0  0  0  0  0  0
   40.1460   26.4940   43.5780 C   0  0  0  0  0  3  0  0  0  0  0  0
  1  2  1  0  0  0  0
  2  3  2  0  0  0  0
  2 20  1  0  0  0  0
  3  7  1  0  0  0  0
  4  8  1  0  0  0  0
  4  3  1  0  0  0  0
  5  4  2  0  0  0  0
  6  5  1  0  0  0  0
  6  1  2  0  0  0  0
  9  5  1  0  0  0  0
 10  6  1  0  0  0  0
 11 12  1  0  0  0  0
 11 17  1  0  0  0  0
 12 18  1  0  0  0  0
 13  1  1  0  0  0  0
 13 12  2  0  0  0  0
 14 13  1  0  0  0  0
 15 14  2  0  0  0  0
 15 16  1  0  0  0  0
 16 11  2  0  0  0  0
 19 15  1  0  0  0  0
 20 23  1  0  0  0  0
 20 21  1  0  0  0  0
 22 20  1  0  0  0  0
 23 31  1  0  0  0  0
 24 26  1  0  0  0  0
 24 23  2  0  0  0  0
 25 24  1  0  0  0  0
 26 27  2  0  0  0  0
 27 28  1  0  0  0  0
 27 29  1  0  0  0  0
 29 30  1  0  0  0  0
 31 29  2  0  0  0  0
M  END
>  <minimizedAffinity>
-5.39836311

$$$$

 OpenBabel03252508433D

 31 33  0  0  0  0  0  0  0  0999 V2000
   38.7490   29.2170   42.1300 C   0  0  0  0  0  0  0  0  0  0  0  0
   37.3560   29.2450   42.0580 C   0  0  0  0  0  0  0  0  0  0  0  0
   36.6550   28.2800   42.7740 C   0  0  0  0  0  0  0  0  0  0  0  0
   37.3240   27.3480   43.5130 C   0  0  0  0  0  0  0  0  0  0  0  0
   38.6910   27.3040   43.5950 C   0  0  0  0  0  0  0  0  0  0  0  0
   39.3740   28.2800   42.8710 C   0  0  0  0  0  0  0  0  0  0  0  0
   35.5720   28.2430   42.7650 H   0  0  0  0  0  0  0  0  0  0  0  0
   36.7940   26.5880   44.0760 H   0  0  0  0  0  0  0  0  0  0  0  0
   39.2990   26.6060   44.1510 H   0  0  0  0  0  0  0  0  0  0  0  0
   40.4520   28.3320   42.8690 H   0  0  0  0  0  0  0  0  0  0  0  0
   40.3500   32.4290   40.9570 C   0  0  0  0  0  0  0  0  0  0  0  0
   39.6710   31.5170   41.7810 C   0  0  0  0  0  0  0  0  0  0  0  0
   39.4380   30.2290   41.3550 C   0  0  0  0  0  0  0  0  0  0  0  0
   39.9030   29.9540   40.1350 N   0  0  0  0  0  0  0  0  0  0  0  0
   40.5550   30.7980   39.3190 C   0  0  0  0  0  0  0  0  0  0  0  0
   40.7790   32.0570   39.7470 N   0  0  0  0  0  0  0  0  0  0  0  0
   40.5380   33.4270   41.2720 H   0  0  0  0  0  0  0  0  0  0  0  0
   39.3240   31.8110   42.7620 H   0  0  0  0  0  0  0  0  0  0  0  0
   40.9010   30.4940   38.3400 H   0  0  0  0  0  0  0  0  0  0  0  0
   36.6380   30.2570   41.2530 C   0  0  0  0  0  0  0  0  0  0  0  0
   37.4300   30.9730   40.8820 H   0  0  0  0  0  0  0  0  0  0  0  0
   36.0160   30.9160   41.9190 H   0  0  0  0  0  0  0  0  0  0  0  0
   35.8870   29.7790   40.1000 C   0  0  0  0  0  0  0  0  0  0  0  0
   36.6100   30.0660   38.9260 C   0  0  0  0  0  0  0  0  0  0  0  0
   37.5970   30.5480   38.8430 H   0  0  0  0  0  0  0  0  0  0  0  0
   36.1470   29.7620   37.6440 C   0  0  0  0  0  3  0  0  0  0  0  0
   34.9220   29.1500   37.4940 C   0  0  0  0  0  0  0  0  0  0  0  0
   34.4530   28.8630   36.5680 H   0  0  0  0  0  0  0  0  0  0  0  0
   34.1760   28.8490   38.6140 C   0  0  0  0  0  0  0  0  0  0  0  0
   33.2110   28.3760   38.6780 H   0  0  0  0  0  0  0  0  0  0  0  0
   34.6750   29.1670   39.8540 C   0  0  0  0  0  3  0  0  0  0  0  0
  1  6  1  0  0  0  0
  2  1  2  0  0  0  0
  2  3  1  0  0  0  0
  3  4  2  0  0  0  0
  4  5  1  0  0  0  0
  4  8  1  0  0  0  0
  5  9  1  0  0  0  0
  6  5  2  0  0  0  0
  7  3  1  0  0  0  0
 10  6  1  0  0  0  0
 11 17  1  0  0  0  0
 11 12  1  0  0  0  0
 12 18  1  0  0  0  0
 13 12  2  0  0  0  0
 13  1  1  0  0  0  0
 14 13  1  0  0  0  0
 15 16  1  0  0  0  0
 15 14  2  0  0  0  0
 16 11  2  0  0  0  0
 19 15  1  0  0  0  0
 20 22  1  0  0  0  0
 20  2  1  0  0  0  0
 21 20  1  0  0  0  0
 23 20  1  0  0  0  0
 24 23  2  0  0  0  0
 25 24  1  0  0  0  0
 26 24  1  0  0  0  0
 27 26  2  0  0  0  0
 27 29  1  0  0  0  0
 28 27  1  0  0  0  0
 29 30  1  0  0  0  0
 29 31  2  0  0  0  0
 31 23  1  0  0  0  0
M  END
>  <minimizedAffinity>
-5.39107323

$$$$

 OpenBabel03252508433D

 31 33  0  0  0  0  0  0  0  0999 V2000
   37.5250   31.6880   39.2570 C   0  0  0  0  0  0  0  0  0  0  0  0
   38.4630   31.2220   40.1780 C   0  0  0  0  0  0  0  0  0  0  0  0
   39.1050   32.1650   40.9740 C   0  0  0  0  0  0  0  0  0  0  0  0
   38.8140   33.4910   40.8440 C   0  0  0  0  0  0  0  0  0  0  0  0
   37.8960   33.9670   39.9440 C   0  0  0  0  0  0  0  0  0  0  0  0
   37.2640   33.0070   39.1560 C   0  0  0  0  0  0  0  0  0  0  0  0
   39.8450   31.8750   41.7120 H   0  0  0  0  0  0  0  0  0  0  0  0
   39.3050   34.2390   41.4560 H   0  0  0  0  0  0  0  0  0  0  0  0
   37.6060   34.9930   39.7750 H   0  0  0  0  0  0  0  0  0  0  0  0
   36.5260   33.2770   38.4190 H   0  0  0  0  0  0  0  0  0  0  0  0
   36.6630   29.2880   36.4710 C   0  0  0  0  0  0  0  0  0  0  0  0
   37.3420   30.2840   37.1930 C   0  0  0  0  0  0  0  0  0  0  0  0
   36.8950   30.6730   38.4350 C   0  0  0  0  0  0  0  0  0  0  0  0
   35.8030   30.0340   38.8590 N   0  0  0  0  0  0  0  0  0  0  0  0
   35.1290   29.0790   38.1990 C   0  0  0  0  0  0  0  0  0  0  0  0
   35.5750   28.7060   36.9820 N   0  0  0  0  0  0  0  0  0  0  0  0
   36.9950   28.9770   35.5100 H   0  0  0  0  0  0  0  0  0  0  0  0
   38.2230   30.7580   36.7850 H   0  0  0  0  0  0  0  0  0  0  0  0
   34.2480   28.6090   38.6160 H   0  0  0  0  0  0  0  0  0  0  0  0
   38.7770   29.7830   40.3120 C   0  0  0  0  0  0  0  0  0  0  0  0
   39.9030   29.7210   40.3930 H   0  0  0  0  0  0  0  0  0  0  0  0
   38.5810   29.2500   39.3410 H   0  0  0  0  0  0  0  0  0  0  0  0
   38.2030   29.0790   41.4500 C   0  0  0  0  0  0  0  0  0  0  0  0
   37.6140   27.8800   41.0040 C   0  0  0  0  0  0  0  0  0  0  0  0
   37.5880   27.4830   39.9770 H   0  0  0  0  0  0  0  0  0  0  0  0
   36.9500   26.9890   41.8490 C   0  0  0  0  0  3  0  0  0  0  0  0
   36.8520   27.2750   43.1930 C   0  0  0  0  0  0  0  0  0  0  0  0
   36.3700   26.6760   43.9480 H   0  0  0  0  0  0  0  0  0  0  0  0
   37.4130   28.4380   43.6790 C   0  0  0  0  0  0  0  0  0  0  0  0
   37.4300   28.8120   44.6870 H   0  0  0  0  0  0  0  0  0  0  0  0
   38.0560   29.2830   42.8070 C   0  0  0  0  0  3  0  0  0  0  0  0
  1  2  1  0  0  0  0
  2 20  1  0  0  0  0
  2  3  2  0  0  0  0
  3  7  1  0  0  0  0
  4  3  1  0  0  0  0
  4  8  1  0  0  0  0
  5  4  2  0  0  0  0
  6  1  2  0  0  0  0
  6  5  1  0  0  0  0
  9  5  1  0  0  0  0
 10  6  1  0  0  0  0
 11 16  2  0  0  0  0
 11 12  1  0  0  0  0
 12 13  2  0  0  0  0
 13 14  1  0  0  0  0
 13  1  1  0  0  0  0
 15 19  1  0  0  0  0
 15 14  2  0  0  0  0
 16 15  1  0  0  0  0
 17 11  1  0  0  0  0
 18 12  1  0  0  0  0
 20 21  1  0  0  0  0
 20 23  1  0  0  0  0
 22 20  1  0  0  0  0
 23 31  1  0  0  0  0
 24 23  2  0  0  0  0
 24 26  1  0  0  0  0
 25 24  1  0  0  0  0
 26 27  2  0  0  0  0
 27 29  1  0  0  0  0
 27 28  1  0  0  0  0
 29 30  1  0  0  0  0
 31 29  2  0  0  0  0
M  END
>  <minimizedAffinity>
-5.36295414

$$$$

 OpenBabel03252508433D

 31 33  0  0  0  0  0  0  0  0999 V2000
   36.6690   27.0580   40.2200 C   0  0  0  0  0  0  0  0  0  0  0  0
   36.4830   27.8450   41.3560 C   0  0  0  0  0  0  0  0  0  0  0  0
   35.8580   29.0770   41.1890 C   0  0  0  0  0  0  0  0  0  0  0  0
   35.4500   29.4820   39.9520 C   0  0  0  0  0  0  0  0  0  0  0  0
   35.6250   28.7230   38.8250 C   0  0  0  0  0  0  0  0  0  0  0  0
   36.2530   27.4930   39.0130 C   0  0  0  0  0  0  0  0  0  0  0  0
   35.6800   29.7410   42.0290 H   0  0  0  0  0  0  0  0  0  0  0  0
   34.9620   30.4390   39.8040 H   0  0  0  0  0  0  0  0  0  0  0  0
   35.3350   28.9630   37.8130 H   0  0  0  0  0  0  0  0  0  0  0  0
   36.4370   26.8200   38.1910 H   0  0  0  0  0  0  0  0  0  0  0  0
   37.4690   23.4770   41.1090 C   0  0  0  0  0  0  0  0  0  0  0  0
   36.7350   24.6610   40.9340 C   0  0  0  0  0  0  0  0  0  0  0  0
   37.3410   25.7920   40.4370 C   0  0  0  0  0  0  0  0  0  0  0  0
   38.6370   25.6500   40.1540 N   0  0  0  0  0  0  0  0  0  0  0  0
   39.3720   24.5370   40.3080 C   0  0  0  0  0  0  0  0  0  0  0  0
   38.7680   23.4340   40.7950 N   0  0  0  0  0  0  0  0  0  0  0  0
   37.0160   22.5950   41.4930 H   0  0  0  0  0  0  0  0  0  0  0  0
   35.6840   24.7010   41.1850 H   0  0  0  0  0  0  0  0  0  0  0  0
   40.4220   24.5060   40.0520 H   0  0  0  0  0  0  0  0  0  0  0  0
   36.9320   27.4020   42.6940 C   0  0  0  0  0  0  0  0  0  0  0  0
   36.6270   26.3160   42.7750 H   0  0  0  0  0  0  0  0  0  0  0  0
   36.3040   27.8830   43.4940 H   0  0  0  0  0  0  0  0  0  0  0  0
   38.3550   27.4940   42.9840 C   0  0  0  0  0  0  0  0  0  0  0  0
   38.8500   28.7190   42.4950 C   0  0  0  0  0  0  0  0  0  0  0  0
   38.2860   29.5200   41.9920 H   0  0  0  0  0  0  0  0  0  0  0  0
   40.1900   29.1000   42.5880 C   0  0  0  0  0  3  0  0  0  0  0  0
   41.0950   28.2500   43.1850 C   0  0  0  0  0  0  0  0  0  0  0  0
   42.1500   28.4230   43.3200 H   0  0  0  0  0  0  0  0  0  0  0  0
   40.6600   27.0390   43.6790 C   0  0  0  0  0  0  0  0  0  0  0  0
   41.2250   26.2650   44.1700 H   0  0  0  0  0  0  0  0  0  0  0  0
   39.3310   26.7090   43.5640 C   0  0  0  0  0  3  0  0  0  0  0  0
  1 13  1  0  0  0  0
  1  2  1  0  0  0  0
  2 20  1  0  0  0  0
  3  2  2  0  0  0  0
  3  7  1  0  0  0  0
  4  3  1  0  0  0  0
  5  6  1  0  0  0  0
  5  4  2  0  0  0  0
  6  1  2  0  0  0  0
  8  4  1  0  0  0  0
  9  5  1  0  0  0  0
 10  6  1  0  0  0  0
 11 17  1  0  0  0  0
 12 11  1  0  0  0  0
 12 18  1  0  0  0  0
 13 12  2  0  0  0  0
 14 15  2  0  0  0  0
 14 13  1  0  0  0  0
 15 16  1  0  0  0  0
 16 11  2  0  0  0  0
 19 15  1  0  0  0  0
 20 21  1  0  0  0  0
 20 23  1  0  0  0  0
 20 22  1  0  0  0  0
 23 31  1  0  0  0  0
 24 26  1  0  0  0  0
 24 23  2  0  0  0  0
 25 24  1  0  0  0  0
 26 27  2  0  0  0  0
 27 28  1  0  0  0  0
 27 29  1  0  0  0  0
 29 30  1  0  0  0  0
 31 29  2  0  0  0  0
M  END
>  <minimizedAffinity>
-5.35109472

$$$$

 OpenBabel03252508433D

 31 33  0  0  0  0  0  0  0  0999 V2000
   36.9260   30.5010   38.2390 C   0  0  0  0  0  0  0  0  0  0  0  0
   36.3550   30.2160   39.4790 C   0  0  0  0  0  0  0  0  0  0  0  0
   36.4820   31.1730   40.4800 C   0  0  0  0  0  0  0  0  0  0  0  0
   37.1450   32.3400   40.2390 C   0  0  0  0  0  0  0  0  0  0  0  0
   37.7140   32.6370   39.0280 C   0  0  0  0  0  0  0  0  0  0  0  0
   37.5750   31.6650   38.0380 C   0  0  0  0  0  0  0  0  0  0  0  0
   36.0620   31.0190   41.4680 H   0  0  0  0  0  0  0  0  0  0  0  0
   37.2540   33.0970   41.0080 H   0  0  0  0  0  0  0  0  0  0  0  0
   38.2530   33.5300   38.7510 H   0  0  0  0  0  0  0  0  0  0  0  0
   37.9850   31.8020   37.0500 H   0  0  0  0  0  0  0  0  0  0  0  0
   37.5240   27.5730   35.9300 C   0  0  0  0  0  0  0  0  0  0  0  0
   37.7530   28.5390   36.9240 C   0  0  0  0  0  0  0  0  0  0  0  0
   36.7860   29.4680   37.2310 C   0  0  0  0  0  0  0  0  0  0  0  0
   35.6630   29.3590   36.5190 N   0  0  0  0  0  0  0  0  0  0  0  0
   35.4070   28.4510   35.5630 C   0  0  0  0  0  0  0  0  0  0  0  0
   36.3620   27.5450   35.2700 N   0  0  0  0  0  0  0  0  0  0  0  0
   38.2610   26.8490   35.6800 H   0  0  0  0  0  0  0  0  0  0  0  0
   38.6900   28.5650   37.4620 H   0  0  0  0  0  0  0  0  0  0  0  0
   34.4660   28.4310   35.0310 H   0  0  0  0  0  0  0  0  0  0  0  0
   35.6400   28.9460   39.7350 C   0  0  0  0  0  0  0  0  0  0  0  0
   35.6040   28.4090   38.7410 H   0  0  0  0  0  0  0  0  0  0  0  0
   34.5510   29.1460   39.9350 H   0  0  0  0  0  0  0  0  0  0  0  0
   36.2200   28.0410   40.7160 C   0  0  0  0  0  0  0  0  0  0  0  0
   36.6150   26.8520   40.0730 C   0  0  0  0  0  0  0  0  0  0  0  0
   36.5400   26.6090   39.0020 H   0  0  0  0  0  0  0  0  0  0  0  0
   37.1820   25.7660   40.7440 C   0  0  0  0  0  3  0  0  0  0  0  0
   37.3750   25.8380   42.1060 C   0  0  0  0  0  0  0  0  0  0  0  0
   37.8000   25.0770   42.7390 H   0  0  0  0  0  0  0  0  0  0  0  0
   37.0050   26.9820   42.7820 C   0  0  0  0  0  0  0  0  0  0  0  0
   37.0850   27.2040   43.8310 H   0  0  0  0  0  0  0  0  0  0  0  0
   36.4510   28.0230   42.0760 C   0  0  0  0  0  3  0  0  0  0  0  0
  1  2  1  0  0  0  0
  2 20  1  0  0  0  0
  2  3  2  0  0  0  0
  3  7  1  0  0  0  0
  4  3  1  0  0  0  0
  4  8  1  0  0  0  0
  5  4  2  0  0  0  0
  6  1  2  0  0  0  0
  6  5  1  0  0  0  0
  9  5  1  0  0  0  0
 10  6  1  0  0  0  0
 11 12  1  0  0  0  0
 12 13  2  0  0  0  0
 12 18  1  0  0  0  0
 13  1  1  0  0  0  0
 14 13  1  0  0  0  0
 15 14  2  0  0  0  0
 16 15  1  0  0  0  0
 16 11  2  0  0  0  0
 17 11  1  0  0  0  0
 19 15  1  0  0  0  0
 20 22  1  0  0  0  0
 20 23  1  0  0  0  0
 21 20  1  0  0  0  0
 23 31  1  0  0  0  0
 24 23  2  0  0  0  0
 24 26  1  0  0  0  0
 25 24  1  0  0  0  0
 26 27  2  0  0  0  0
 27 28  1  0  0  0  0
 27 29  1  0  0  0  0
 29 30  1  0  0  0  0
 31 29  2  0  0  0  0
M  END
>  <minimizedAffinity>
-5.30043459

$$$$
