
 OpenBabel03252509053D

 48 50  0  0  1  0  0  0  0  0999 V2000
   46.7760   34.3630   43.4780 N   0  0  0  0  0  0  0  0  0  0  0  0
   46.4940   34.9590   42.2310 C   0  0  0  0  0  0  0  0  0  0  0  0
   45.0310   34.9710   41.8520 C   0  0  0  0  0  0  0  0  0  0  0  0
   44.0990   35.1490   43.0230 C   0  0  0  0  0  0  0  0  0  0  0  0
   44.8550   35.3470   44.3220 C   0  0  0  0  0  0  0  0  0  0  0  0
   45.7900   34.0750   44.3910 C   0  0  2  0  0  0  0  0  0  0  0  0
   46.7880   36.0410   42.2940 H   0  0  0  0  0  0  0  0  0  0  0  0
   47.0290   34.5540   41.3610 H   0  0  0  0  0  0  0  0  0  0  0  0
   44.8760   35.7960   41.1180 H   0  0  0  0  0  0  0  0  0  0  0  0
   44.7430   34.0310   41.3160 H   0  0  0  0  0  0  0  0  0  0  0  0
   43.4990   36.0900   42.8810 H   0  0  0  0  0  0  0  0  0  0  0  0
   43.3790   34.3420   43.1620 H   0  0  0  0  0  0  0  0  0  0  0  0
   44.1440   35.2500   45.1560 H   0  0  0  0  0  0  0  0  0  0  0  0
   45.4670   36.2460   44.3520 H   0  0  0  0  0  0  0  0  0  0  0  0
   45.1290   33.2040   44.2120 H   0  0  0  0  0  0  0  0  0  0  0  0
   47.9890   33.5850   43.5040 C   0  0  0  0  0  0  0  0  0  0  0  0
   48.3840   33.4470   44.5280 H   0  0  0  0  0  0  0  0  0  0  0  0
   48.7550   34.2040   42.9830 H   0  0  0  0  0  0  0  0  0  0  0  0
   47.7580   32.3370   42.7350 C   0  0  0  0  0  0  0  0  0  0  0  0
   46.8280   32.3660   42.1130 H   0  0  0  0  0  0  0  0  0  0  0  0
   47.6410   31.4870   43.4270 H   0  0  0  0  0  0  0  0  0  0  0  0
   51.2410   32.1070   41.3560 C   0  0  0  0  0  0  0  0  0  0  0  0
   50.1580   32.3310   42.2260 C   0  0  0  0  0  0  0  0  0  0  0  0
   48.8850   32.0960   41.8060 C   0  0  0  0  0  0  0  0  0  0  0  0
   48.7250   31.6560   40.5620 N   0  0  0  0  0  0  0  0  0  0  0  0
   49.7470   31.4360   39.7160 C   0  0  0  0  0  0  0  0  0  0  0  0
   51.0130   31.6600   40.1060 N   0  0  0  0  0  0  0  0  0  0  0  0
   52.2580   32.3000   41.7040 H   0  0  0  0  0  0  0  0  0  0  0  0
   50.3740   32.6920   43.2310 H   0  0  0  0  0  0  0  0  0  0  0  0
   49.5770   31.0770   38.7110 H   0  0  0  0  0  0  0  0  0  0  0  0
   46.2200   34.1430   45.7030 O   0  0  0  0  0  0  0  0  0  0  0  0
   45.6010   31.5600   45.5770 O   0  0  0  0  0  0  0  0  0  0  0  0
   46.0380   32.6740   46.5200 P   0  0  2  0  0  0  0  0  0  0  0  0
   44.7510   32.9070   47.6080 O   0  0  0  0  0  0  0  0  0  0  0  0
   44.1270   32.1380   47.6040 H   0  0  0  0  0  0  0  0  0  0  0  0
   47.3940   32.2600   47.4020 O   0  0  0  0  0  0  0  0  0  0  0  0
   47.6350   30.9030   47.2450 C   0  0  0  0  0  0  0  0  0  0  0  0
   48.0540   30.6510   46.2470 H   0  0  0  0  0  0  0  0  0  0  0  0
   46.6980   30.3230   47.4000 H   0  0  0  0  0  0  0  0  0  0  0  0
   48.6050   30.5410   48.3320 C   0  0  0  0  0  0  0  0  0  0  0  0
   49.0940   29.2480   48.3490 C   0  0  0  0  0  0  0  0  0  0  0  0
   48.7850   28.5200   47.5970 H   0  0  0  0  0  0  0  0  0  0  0  0
   49.9870   28.7950   49.2910 C   0  0  0  0  0  3  0  0  0  0  0  0
   50.4290   29.6640   50.2830 C   0  0  0  0  0  0  0  0  0  0  0  0
   51.1310   29.3210   51.0290 H   0  0  0  0  0  0  0  0  0  0  0  0
   49.9310   30.9620   50.2570 C   0  0  0  0  0  0  0  0  0  0  0  0
   50.2490   31.6720   51.0090 H   0  0  0  0  0  0  0  0  0  0  0  0
   49.0330   31.4140   49.3080 C   0  0  0  0  0  3  0  0  0  0  0  0
  1 16  1  0  0  0  0
  1  6  1  0  0  0  0
  2  7  1  0  0  0  0
  2  1  1  0  0  0  0
  3  2  1  0  0  0  0
  3  4  1  0  0  0  0
  4 12  1  0  0  0  0
  4  5  1  0  0  0  0
  5 14  1  0  0  0  0
  5  6  1  0  0  0  0
  5 13  1  0  0  0  0
  6 15  1  6  0  0  0
  6 31  1  0  0  0  0
  8  2  1  0  0  0  0
  9  3  1  0  0  0  0
 10  3  1  0  0  0  0
 11  4  1  0  0  0  0
 16 17  1  0  0  0  0
 18 16  1  0  0  0  0
 19 21  1  0  0  0  0
 19 16  1  0  0  0  0
 20 19  1  0  0  0  0
 22 28  1  0  0  0  0
 22 23  1  0  0  0  0
 23 29  1  0  0  0  0
 24 23  2  0  0  0  0
 24 19  1  0  0  0  0
 25 24  1  0  0  0  0
 26 27  1  0  0  0  0
 26 25  2  0  0  0  0
 27 22  2  0  0  0  0
 30 26  1  0  0  0  0
 31 33  1  0  0  0  0
 33 32  2  6  0  0  0
 33 36  1  0  0  0  0
 33 34  1  0  0  0  0
 35 34  1  0  0  0  0
 37 39  1  0  0  0  0
 37 36  1  0  0  0  0
 37 40  1  0  0  0  0
 38 37  1  0  0  0  0
 40 41  2  0  0  0  0
 40 48  1  0  0  0  0
 41 43  1  0  0  0  0
 42 41  1  0  0  0  0
 43 44  2  0  0  0  0
 44 45  1  0  0  0  0
 46 44  1  0  0  0  0
 46 47  1  0  0  0  0
 48 46  2  0  0  0  0
M  END
>  <minimizedAffinity>
-5.12403965

>  <minimizedRMSD>
2.8612349

$$$$
