REMARK  Name = 
REMARK  2 active torsions:
REMARK  status: ('A' for Active; 'I' for Inactive)
REMARK    1  A    between atoms: C_3  and  C_7
REMARK    2  A    between atoms: C_7  and  C_13
REMARK                            x       y       z     vdW  Elec       q    Type
REMARK                         _______ _______ _______ _____ _____    ______ ____
ROOT
ATOM      1  C   UNL     1      46.958  34.779  41.927  0.00  0.00    +0.000 C 
ATOM      2  H   UNL     1      47.270  33.732  41.653  0.00  0.00    +0.000 HD
ATOM      3  H   UNL     1      46.361  35.216  41.088  0.00  0.00    +0.000 HD
ENDROOT
BRANCH   1   6
ATOM      4  C   UNL     1      44.559  36.013  44.493  0.00  0.00    +0.000 A 
ATOM      5  C   UNL     1      45.309  35.912  43.305  0.00  0.00    +0.000 A 
ATOM      6  C   UNL     1      46.195  34.857  43.171  0.00  0.00    +0.000 A 
ATOM      7  N   UNL     1      46.304  33.966  44.190  0.00  0.00    +0.000 NA
ATOM      8  C   UNL     1      45.569  34.083  45.332  0.00  0.00    +0.000 A 
ATOM      9  N   UNL     1      44.708  35.105  45.466  0.00  0.00    +0.000 NA
ATOM     10  H   UNL     1      43.883  36.835  44.572  0.00  0.00    +0.000 HD
ATOM     11  H   UNL     1      45.178  36.652  42.528  0.00  0.00    +0.000 HD
ATOM     12  H   UNL     1      45.730  33.311  46.098  0.00  0.00    +0.000 HD
ENDBRANCH   1   6
BRANCH   1  13
ATOM     13  C   UNL     1      48.216  35.556  42.160  0.00  0.00    +0.000 A 
ATOM     14  C   UNL     1      48.482  36.639  41.362  0.00  0.00    +0.000 A 
ATOM     15  H   UNL     1      47.752  36.888  40.580  0.00  0.00    +0.000 HD
ATOM     16  C   UNL     1      49.576  37.473  41.418  0.00  0.00    +0.000 A 
ATOM     17  C   UNL     1      50.501  37.150  42.416  0.00  0.00    +0.000 A 
ATOM     18  H   UNL     1      51.382  37.784  42.496  0.00  0.00    +0.000 HD
ATOM     19  C   UNL     1      50.275  36.063  43.249  0.00  0.00    +0.000 A 
ATOM     20  H   UNL     1      51.020  35.840  44.018  0.00  0.00    +0.000 HD
ATOM     21  C   UNL     1      49.148  35.269  43.130  0.00  0.00    +0.000 A 
ENDBRANCH   1  13
TORSDOF 2
