
     RDKit          3D

 50 52  0  0  0  0  0  0  0  0999 V2000
   47.1506   34.1590   43.0717 N   0  0  0  0  0  0  0  0  0  0  0  0
   46.6479   35.3540   42.5184 C   0  0  0  0  0  0  0  0  0  0  0  0
   45.1661   35.5715   42.7224 C   0  0  0  0  0  0  0  0  0  0  0  0
   44.6490   35.0513   44.0394 C   0  0  0  0  0  0  0  0  0  0  0  0
   45.7613   34.4835   44.8982 C   0  0  0  0  0  0  0  0  0  0  0  0
   46.4250   33.3998   43.9575 C   0  0  2  0  0  0  0  0  0  0  0  0
   48.1561   33.5086   42.2686 C   0  0  0  0  0  0  0  0  0  0  0  0
   47.4712   32.6609   41.2616 C   0  0  0  0  0  0  0  0  0  0  0  0
   49.3373   32.2771   38.0287 C   0  0  0  0  0  0  0  0  0  0  0  0
   48.8187   32.0268   39.3132 C   0  0  0  0  0  0  0  0  0  0  0  0
   48.0070   32.9412   39.9110 C   0  0  0  0  0  0  0  0  0  0  0  0
   47.7381   34.0527   39.2344 N   0  0  0  0  0  0  0  0  0  0  0  0
   48.2239   34.3098   38.0066 C   0  0  0  0  0  0  0  0  0  0  0  0
   49.0272   33.4242   37.3942 N   0  0  0  0  0  0  0  0  0  0  0  0
   47.2092   32.7157   44.8665 O   0  0  0  0  0  0  0  0  0  0  0  0
   46.0497   30.5396   43.8717 O   0  0  0  0  0  0  0  0  0  0  0  0
   46.6665   31.1367   45.1314 P   0  0  2  0  0  0  0  0  0  0  0  0
   45.4016   31.2669   46.2633 O   0  0  0  0  0  0  0  0  0  0  0  0
   47.8473   30.1541   45.7840 O   0  0  0  0  0  0  0  0  0  0  0  0
   47.7486   28.8937   45.2132 C   0  0  0  0  0  0  0  0  0  0  0  0
   47.1436   36.2132   43.0457 H   0  0  0  0  0  0  0  0  0  0  0  0
   46.8334   35.5163   41.4473 H   0  0  0  0  0  0  0  0  0  0  0  0
   44.9678   36.6658   42.6458 H   0  0  0  0  0  0  0  0  0  0  0  0
   44.5701   35.0980   41.9015 H   0  0  0  0  0  0  0  0  0  0  0  0
   44.2193   35.9041   44.6332 H   0  0  0  0  0  0  0  0  0  0  0  0
   43.8587   34.3027   43.9571 H   0  0  0  0  0  0  0  0  0  0  0  0
   45.3072   33.9276   45.7318 H   0  0  0  0  0  0  0  0  0  0  0  0
   46.5142   35.2112   45.1962 H   0  0  0  0  0  0  0  0  0  0  0  0
   45.5899   32.7802   43.5760 H   0  0  0  0  0  0  0  0  0  0  0  0
   48.9232   32.9974   42.8805 H   0  0  0  0  0  0  0  0  0  0  0  0
   48.7041   34.3288   41.7496 H   0  0  0  0  0  0  0  0  0  0  0  0
   46.3666   32.8365   41.2137 H   0  0  0  0  0  0  0  0  0  0  0  0
   47.6038   31.5968   41.5175 H   0  0  0  0  0  0  0  0  0  0  0  0
   49.9879   31.5358   37.5587 H   0  0  0  0  0  0  0  0  0  0  0  0
   49.0870   31.0905   39.8014 H   0  0  0  0  0  0  0  0  0  0  0  0
   47.9821   35.2263   37.4881 H   0  0  0  0  0  0  0  0  0  0  0  0
   44.6267   30.7058   46.0092 H   0  0  0  0  0  0  0  0  0  0  0  0
   47.8685   28.9093   44.1078 H   0  0  0  0  0  0  0  0  0  0  0  0
   46.7693   28.4314   45.4643 H   0  0  0  0  0  0  0  0  0  0  0  0
   48.8382   28.0805   45.8513 C   0  0  0  0  0  0  0  0  0  0  0  0
   48.5174   26.8058   46.2787 C   0  0  0  0  0  0  0  0  0  0  0  0
   47.5087   26.4082   46.1554 H   0  0  0  0  0  0  0  0  0  0  0  0
   49.4252   25.9644   46.8768 C   0  0  0  0  0  0  0  0  0  0  0  0
   50.7319   26.3979   47.0696 C   0  0  0  0  0  0  0  0  0  0  0  0
   51.4552   25.7467   47.5385 H   0  0  0  0  0  0  0  0  0  0  0  0
   51.0439   27.6822   46.6358 C   0  0  0  0  0  0  0  0  0  0  0  0
   52.0486   28.0614   46.7654 H   0  0  0  0  0  0  0  0  0  0  0  0
   50.1284   28.5258   46.0346 C   0  0  0  0  0  0  0  0  0  0  0  0
   49.1699   24.9705   47.2087 H   0  0  0  0  0  0  0  0  0  0  0  0
   50.3770   29.5128   45.7037 H   0  0  0  0  0  0  0  0  0  0  0  0
  1  6  1  0
  2  3  1  0
  2  1  1  0
  3  4  1  0
  4  5  1  0
  6 15  1  0
  6  5  1  0
  7  1  1  0
  8  7  1  0
  9 10  2  0
 10 11  1  0
 11  8  1  0
 12 11  2  0
 13 12  1  0
 14 13  2  0
 14  9  1  0
 17 15  1  6
 17 16  2  0
 17 19  1  0
 17 18  1  0
 20 19  1  0
  2 21  1  0
  2 22  1  0
  3 23  1  0
  3 24  1  0
  4 25  1  0
  4 26  1  0
  5 27  1  0
  5 28  1  0
  6 29  1  6
  7 30  1  0
  7 31  1  0
  8 32  1  0
  8 33  1  0
  9 34  1  0
 10 35  1  0
 13 36  1  0
 18 37  1  0
 20 38  1  0
 20 39  1  0
 40 41  2  0
 41 42  1  0
 41 43  1  0
 43 44  2  0
 44 45  1  0
 44 46  1  0
 46 47  1  0
 46 48  2  0
 48 40  1  0
 43 49  1  0
 48 50  1  0
 20 40  1  0
M  ISO  8  21  13  22  13  23  13  24  13  25  13  26  13  27  13  28  13
M  ISO  8  29  13  30   8  31   8  32   8  33   8  34  14  35  14  36  14
M  ISO  6  37   3  38   8  39   8  42  16  45  16  47  16
M  END
>  <DihAtoms>  (1) 
18,19,39,40

>  <DihDeg>  (1) 
-89.99925744981633

$$$$
