
 OpenBabel03252503003D

 22 23  0  0  0  0  0  0  0  0999 V2000
   44.1600   34.3610   40.5750 C   0  0  0  0  0  0  0  0  0  0  0  0
   44.1570   33.2390   40.5670 H   0  0  0  0  0  0  0  0  0  0  0  0
   44.8330   34.6210   39.7070 H   0  0  0  0  0  0  0  0  0  0  0  0
   42.8180   34.9280   40.4030 C   0  0  0  0  0  0  0  0  0  0  0  0
   42.2970   35.1180   39.1180 C   0  0  0  0  0  0  0  0  0  0  0  0
   42.8460   34.8610   38.2220 H   0  0  0  0  0  0  0  0  0  0  0  0
   41.0190   35.6570   38.9630 C   0  0  0  0  0  3  0  0  0  0  0  0
   40.2650   36.0060   40.0820 C   0  0  0  0  0  0  0  0  0  0  0  0
   39.2570   36.4320   39.9800 H   0  0  0  0  0  0  0  0  0  0  0  0
   40.7460   35.8340   41.3730 C   0  0  0  0  0  0  0  0  0  0  0  0
   40.1780   36.0970   42.2550 H   0  0  0  0  0  0  0  0  0  0  0  0
   42.0130   35.2970   41.4610 C   0  0  0  0  0  3  0  0  0  0  0  0
   44.9910   34.9250   42.0610 S   0  0  0  0  0  0  0  0  0  0  0  0
   47.5000   34.3580   43.1070 C   0  0  0  0  0  0  0  0  0  0  0  0
   46.7530   34.5260   41.9460 C   0  0  0  0  0  0  0  0  0  0  0  0
   47.3390   34.3930   40.6830 C   0  0  0  0  0  0  0  0  0  0  0  0
   48.6680   34.0920   40.6700 N   0  0  0  0  0  0  0  0  0  0  0  0
   49.3520   33.9390   41.8080 C   0  0  0  0  0  0  0  0  0  0  0  0
   48.8200   34.0600   43.0240 N   0  0  0  0  0  0  0  0  0  0  0  0
   47.0610   34.4590   44.0930 H   0  0  0  0  0  0  0  0  0  0  0  0
   46.7050   34.5350   39.8200 H   0  0  0  0  0  0  0  0  0  0  0  0
   50.3970   33.7010   41.5550 H   0  0  0  0  0  0  0  0  0  0  0  0
  1 13  1  0  0  0  0
  2  1  1  0  0  0  0
  3  1  1  0  0  0  0
  4  1  1  0  0  0  0
  4 12  1  0  0  0  0
  5  4  2  0  0  0  0
  6  5  1  0  0  0  0
  7  5  1  0  0  0  0
  7  8  2  0  0  0  0
  8 10  1  0  0  0  0
  9  8  1  0  0  0  0
 10 12  2  0  0  0  0
 10 11  1  0  0  0  0
 14 20  1  0  0  0  0
 15 13  1  0  0  0  0
 15 14  2  0  0  0  0
 16 15  1  0  0  0  0
 17 16  2  0  0  0  0
 17 18  1  0  0  0  0
 18 19  2  0  0  0  0
 19 14  1  0  0  0  0
 21 16  1  0  0  0  0
 22 18  1  0  0  0  0
M  END
>  <minimizedAffinity>
-4.16100121

>  <minimizedRMSD>
3.57584643

$$$$
