
 OpenBabel03242515243D

 21 22  0  0  0  0  0  0  0  0999 V2000
   37.5710   28.4550   43.6680 C   0  0  0  0  0  0  0  0  0  0  0  0
   36.4620   28.4150   43.6110 H   0  0  0  0  0  0  0  0  0  0  0  0
   37.8430   28.7330   44.6960 H   0  0  0  0  0  0  0  0  0  0  0  0
   37.0550   29.8780   41.7640 C   0  0  0  0  0  0  0  0  0  0  0  0
   38.0060   29.4940   42.7270 C   0  0  0  0  0  0  0  0  0  0  0  0
   39.2300   30.1380   42.6720 C   0  0  0  0  0  0  0  0  0  0  0  0
   39.4530   31.0760   41.7290 N   0  0  0  0  0  0  0  0  0  0  0  0
   38.5150   31.4200   40.8190 C   0  0  0  0  0  0  0  0  0  0  0  0
   37.2870   30.8280   40.8130 N   0  0  0  0  0  0  0  0  0  0  0  0
   36.0490   29.4430   41.7030 H   0  0  0  0  0  0  0  0  0  0  0  0
   39.9250   29.8240   43.4140 H   0  0  0  0  0  0  0  0  0  0  0  0
   38.7960   32.1850   40.1060 H   0  0  0  0  0  0  0  0  0  0  0  0
   38.1140   27.1300   43.3130 C   0  0  0  0  0  0  0  0  0  0  0  0
   39.3460   26.6260   43.6790 C   0  0  0  0  0  0  0  0  0  0  0  0
   39.9660   27.2660   44.2820 H   0  0  0  0  0  0  0  0  0  0  0  0
   39.7480   25.3530   43.2800 C   0  0  0  0  0  3  0  0  0  0  0  0
   38.9380   24.5480   42.5070 C   0  0  0  0  0  0  0  0  0  0  0  0
   39.2020   23.5530   42.1700 H   0  0  0  0  0  0  0  0  0  0  0  0
   37.7050   25.0050   42.1180 C   0  0  0  0  0  0  0  0  0  0  0  0
   37.0120   24.4290   41.5100 H   0  0  0  0  0  0  0  0  0  0  0  0
   37.3400   26.2680   42.5330 C   0  0  0  0  0  3  0  0  0  0  0  0
  1  3  1  0  0  0  0
  2  1  1  0  0  0  0
  4  5  1  0  0  0  0
  5  1  1  0  0  0  0
  6  5  2  0  0  0  0
  6 11  1  0  0  0  0
  7  6  1  0  0  0  0
  8  7  2  0  0  0  0
  9  8  1  0  0  0  0
  9  4  2  0  0  0  0
 10  4  1  0  0  0  0
 12  8  1  0  0  0  0
 13  1  1  0  0  0  0
 13 14  1  0  0  0  0
 14 15  1  0  0  0  0
 16 14  2  0  0  0  0
 17 16  1  0  0  0  0
 18 17  1  0  0  0  0
 19 17  2  0  0  0  0
 19 21  1  0  0  0  0
 20 19  1  0  0  0  0
 21 13  2  0  0  0  0
M  END
>  <minimizedAffinity>
-4.47780371

$$$$

 OpenBabel03242515243D

 21 22  0  0  0  0  0  0  0  0999 V2000
   37.3100   28.2400   43.5770 C   0  0  0  0  0  0  0  0  0  0  0  0
   36.2060   28.1230   43.5690 H   0  0  0  0  0  0  0  0  0  0  0  0
   37.6070   28.5370   44.5940 H   0  0  0  0  0  0  0  0  0  0  0  0
   36.5840   29.6840   41.7610 C   0  0  0  0  0  0  0  0  0  0  0  0
   37.6300   29.3060   42.6210 C   0  0  0  0  0  0  0  0  0  0  0  0
   38.8290   29.9810   42.4640 C   0  0  0  0  0  0  0  0  0  0  0  0
   38.9400   30.9410   41.5230 N   0  0  0  0  0  0  0  0  0  0  0  0
   37.9120   31.2790   40.7130 C   0  0  0  0  0  0  0  0  0  0  0  0
   36.7020   30.6570   40.8110 N   0  0  0  0  0  0  0  0  0  0  0  0
   35.5870   29.2260   41.7860 H   0  0  0  0  0  0  0  0  0  0  0  0
   39.5980   29.6710   43.1290 H   0  0  0  0  0  0  0  0  0  0  0  0
   38.1060   32.0620   39.9920 H   0  0  0  0  0  0  0  0  0  0  0  0
   37.9280   26.9560   43.1960 C   0  0  0  0  0  0  0  0  0  0  0  0
   37.3690   25.9880   42.3850 C   0  0  0  0  0  0  0  0  0  0  0  0
   36.3880   26.1960   41.9970 H   0  0  0  0  0  0  0  0  0  0  0  0
   38.0550   24.8110   42.0970 C   0  0  0  0  0  3  0  0  0  0  0  0
   39.3130   24.5630   42.6060 C   0  0  0  0  0  0  0  0  0  0  0  0
   39.8880   23.6650   42.4130 H   0  0  0  0  0  0  0  0  0  0  0  0
   39.9080   25.4940   43.4170 C   0  0  0  0  0  0  0  0  0  0  0  0
   40.8960   25.3700   43.8540 H   0  0  0  0  0  0  0  0  0  0  0  0
   39.2010   26.6470   43.6800 C   0  0  0  0  0  3  0  0  0  0  0  0
  1  3  1  0  0  0  0
  2  1  1  0  0  0  0
  4 10  1  0  0  0  0
  4  5  1  0  0  0  0
  5  1  1  0  0  0  0
  6  5  2  0  0  0  0
  6 11  1  0  0  0  0
  7  6  1  0  0  0  0
  8  9  1  0  0  0  0
  8  7  2  0  0  0  0
  9  4  2  0  0  0  0
 12  8  1  0  0  0  0
 13  1  1  0  0  0  0
 13 21  1  0  0  0  0
 14 13  2  0  0  0  0
 15 14  1  0  0  0  0
 16 14  1  0  0  0  0
 16 17  2  0  0  0  0
 17 19  1  0  0  0  0
 18 17  1  0  0  0  0
 19 21  2  0  0  0  0
 19 20  1  0  0  0  0
M  END
>  <minimizedAffinity>
-4.34508228

$$$$

 OpenBabel03242515243D

 21 22  0  0  0  0  0  0  0  0999 V2000
   35.4510   29.0050   40.7070 C   0  0  0  0  0  0  0  0  0  0  0  0
   34.8230   29.4470   41.5100 H   0  0  0  0  0  0  0  0  0  0  0  0
   34.7860   28.4540   40.0270 H   0  0  0  0  0  0  0  0  0  0  0  0
   36.8060   26.9900   40.5830 C   0  0  0  0  0  0  0  0  0  0  0  0
   36.3870   28.0830   41.3620 C   0  0  0  0  0  0  0  0  0  0  0  0
   36.9050   28.1580   42.6440 C   0  0  0  0  0  0  0  0  0  0  0  0
   37.7620   27.2110   43.0780 N   0  0  0  0  0  0  0  0  0  0  0  0
   38.1420   26.1730   42.3010 C   0  0  0  0  0  0  0  0  0  0  0  0
   37.6730   26.0340   41.0280 N   0  0  0  0  0  0  0  0  0  0  0  0
   36.4690   26.8180   39.5520 H   0  0  0  0  0  0  0  0  0  0  0  0
   36.5680   28.9960   43.2040 H   0  0  0  0  0  0  0  0  0  0  0  0
   38.8340   25.4680   42.7450 H   0  0  0  0  0  0  0  0  0  0  0  0
   36.1550   30.0920   40.0000 C   0  0  0  0  0  0  0  0  0  0  0  0
   36.4620   30.1280   38.6550 C   0  0  0  0  0  0  0  0  0  0  0  0
   36.1570   29.2790   38.0700 H   0  0  0  0  0  0  0  0  0  0  0  0
   37.1330   31.2160   38.1010 C   0  0  0  0  0  3  0  0  0  0  0  0
   37.5160   32.2960   38.8690 C   0  0  0  0  0  0  0  0  0  0  0  0
   38.0400   33.1660   38.4890 H   0  0  0  0  0  0  0  0  0  0  0  0
   37.2330   32.3060   40.2100 C   0  0  0  0  0  0  0  0  0  0  0  0
   37.5030   33.1200   40.8780 H   0  0  0  0  0  0  0  0  0  0  0  0
   36.5680   31.2130   40.7230 C   0  0  0  0  0  3  0  0  0  0  0  0
  1  5  1  0  0  0  0
  1  2  1  0  0  0  0
  3  1  1  0  0  0  0
  4  9  2  0  0  0  0
  4  5  1  0  0  0  0
  5  6  2  0  0  0  0
  6  7  1  0  0  0  0
  6 11  1  0  0  0  0
  8 12  1  0  0  0  0
  8  7  2  0  0  0  0
  9  8  1  0  0  0  0
 10  4  1  0  0  0  0
 13  1  1  0  0  0  0
 13 21  1  0  0  0  0
 14 13  2  0  0  0  0
 15 14  1  0  0  0  0
 16 14  1  0  0  0  0
 16 17  2  0  0  0  0
 17 19  1  0  0  0  0
 18 17  1  0  0  0  0
 19 21  2  0  0  0  0
 19 20  1  0  0  0  0
M  END
>  <minimizedAffinity>
-4.27571487

$$$$

 OpenBabel03242515243D

 21 22  0  0  0  0  0  0  0  0999 V2000
   35.2980   29.1450   40.5120 C   0  0  0  0  0  0  0  0  0  0  0  0
   34.6530   28.7250   39.7120 H   0  0  0  0  0  0  0  0  0  0  0  0
   34.6400   29.5640   41.2870 H   0  0  0  0  0  0  0  0  0  0  0  0
   36.5500   31.2140   40.7690 C   0  0  0  0  0  0  0  0  0  0  0  0
   36.0990   30.2100   39.8950 C   0  0  0  0  0  0  0  0  0  0  0  0
   36.4620   30.3440   38.5650 C   0  0  0  0  0  0  0  0  0  0  0  0
   37.2080   31.3980   38.1770 N   0  0  0  0  0  0  0  0  0  0  0  0
   37.6240   32.3450   39.0460 C   0  0  0  0  0  0  0  0  0  0  0  0
   37.3050   32.2790   40.3700 N   0  0  0  0  0  0  0  0  0  0  0  0
   36.3300   31.2220   41.8450 H   0  0  0  0  0  0  0  0  0  0  0  0
   36.1040   29.5680   37.9320 H   0  0  0  0  0  0  0  0  0  0  0  0
   38.2180   33.1500   38.6310 H   0  0  0  0  0  0  0  0  0  0  0  0
   36.1450   28.0670   41.0570 C   0  0  0  0  0  0  0  0  0  0  0  0
   36.5330   27.9180   42.3740 C   0  0  0  0  0  0  0  0  0  0  0  0
   36.1800   28.6630   43.0650 H   0  0  0  0  0  0  0  0  0  0  0  0
   37.3380   26.8520   42.7680 C   0  0  0  0  0  3  0  0  0  0  0  0
   37.7790   25.9070   41.8660 C   0  0  0  0  0  0  0  0  0  0  0  0
   38.4070   25.0610   42.1200 H   0  0  0  0  0  0  0  0  0  0  0  0
   37.4210   26.0130   40.5470 C   0  0  0  0  0  0  0  0  0  0  0  0
   37.7300   25.3080   39.7790 H   0  0  0  0  0  0  0  0  0  0  0  0
   36.6230   27.0800   40.1940 C   0  0  0  0  0  3  0  0  0  0  0  0
  1 13  1  0  0  0  0
  1  3  1  0  0  0  0
  2  1  1  0  0  0  0
  4 10  1  0  0  0  0
  5  1  1  0  0  0  0
  5  4  2  0  0  0  0
  6  5  1  0  0  0  0
  7  6  2  0  0  0  0
  7  8  1  0  0  0  0
  8  9  2  0  0  0  0
  9  4  1  0  0  0  0
 11  6  1  0  0  0  0
 12  8  1  0  0  0  0
 13 14  1  0  0  0  0
 14 16  2  0  0  0  0
 14 15  1  0  0  0  0
 17 18  1  0  0  0  0
 17 16  1  0  0  0  0
 19 17  2  0  0  0  0
 20 19  1  0  0  0  0
 21 19  1  0  0  0  0
 21 13  2  0  0  0  0
M  END
>  <minimizedAffinity>
-4.27125502

$$$$

 OpenBabel03242515243D

 21 22  0  0  0  0  0  0  0  0999 V2000
   35.3080   29.1650   40.3940 C   0  0  0  0  0  0  0  0  0  0  0  0
   34.8380   28.7820   39.4640 H   0  0  0  0  0  0  0  0  0  0  0  0
   34.5010   29.4810   41.0720 H   0  0  0  0  0  0  0  0  0  0  0  0
   36.4640   30.3970   38.6450 C   0  0  0  0  0  0  0  0  0  0  0  0
   36.1290   30.3200   40.0080 C   0  0  0  0  0  0  0  0  0  0  0  0
   36.6100   31.3350   40.8180 C   0  0  0  0  0  0  0  0  0  0  0  0
   37.3560   32.3230   40.2830 N   0  0  0  0  0  0  0  0  0  0  0  0
   37.6590   32.3660   38.9670 C   0  0  0  0  0  0  0  0  0  0  0  0
   37.2190   31.4000   38.1100 N   0  0  0  0  0  0  0  0  0  0  0  0
   36.1440   29.6560   37.9020 H   0  0  0  0  0  0  0  0  0  0  0  0
   36.3380   31.2450   41.8420 H   0  0  0  0  0  0  0  0  0  0  0  0
   38.2630   33.2020   38.6400 H   0  0  0  0  0  0  0  0  0  0  0  0
   36.1190   28.0900   40.9960 C   0  0  0  0  0  0  0  0  0  0  0  0
   36.4830   27.9860   42.3240 C   0  0  0  0  0  0  0  0  0  0  0  0
   36.1370   28.7660   42.9790 H   0  0  0  0  0  0  0  0  0  0  0  0
   37.2550   26.9180   42.7740 C   0  0  0  0  0  3  0  0  0  0  0  0
   37.6880   25.9270   41.9180 C   0  0  0  0  0  0  0  0  0  0  0  0
   38.2910   25.0770   42.2160 H   0  0  0  0  0  0  0  0  0  0  0  0
   37.3540   25.9880   40.5900 C   0  0  0  0  0  0  0  0  0  0  0  0
   37.6570   25.2450   39.8560 H   0  0  0  0  0  0  0  0  0  0  0  0
   36.5870   27.0580   40.1810 C   0  0  0  0  0  3  0  0  0  0  0  0
  1 13  1  0  0  0  0
  1  3  1  0  0  0  0
  2  1  1  0  0  0  0
  4  5  1  0  0  0  0
  5  1  1  0  0  0  0
  5  6  2  0  0  0  0
  6 11  1  0  0  0  0
  7  6  1  0  0  0  0
  8  7  2  0  0  0  0
  9  4  2  0  0  0  0
  9  8  1  0  0  0  0
 10  4  1  0  0  0  0
 12  8  1  0  0  0  0
 13 14  1  0  0  0  0
 14 16  2  0  0  0  0
 14 15  1  0  0  0  0
 17 18  1  0  0  0  0
 17 16  1  0  0  0  0
 19 17  2  0  0  0  0
 20 19  1  0  0  0  0
 21 19  1  0  0  0  0
 21 13  2  0  0  0  0
M  END
>  <minimizedAffinity>
-4.25735569

$$$$

 OpenBabel03242515243D

 21 22  0  0  0  0  0  0  0  0999 V2000
   36.5100   27.6300   42.8990 C   0  0  0  0  0  0  0  0  0  0  0  0
   35.5300   27.1090   42.8630 H   0  0  0  0  0  0  0  0  0  0  0  0
   36.5430   28.2170   43.8280 H   0  0  0  0  0  0  0  0  0  0  0  0
   37.2390   29.7360   41.9250 C   0  0  0  0  0  0  0  0  0  0  0  0
   36.5610   28.5190   41.7320 C   0  0  0  0  0  0  0  0  0  0  0  0
   36.0250   28.3070   40.4730 C   0  0  0  0  0  0  0  0  0  0  0  0
   36.1720   29.2450   39.5150 N   0  0  0  0  0  0  0  0  0  0  0  0
   36.8300   30.4040   39.7360 C   0  0  0  0  0  0  0  0  0  0  0  0
   37.3840   30.6810   40.9520 N   0  0  0  0  0  0  0  0  0  0  0  0
   37.7070   30.0210   42.8760 H   0  0  0  0  0  0  0  0  0  0  0  0
   35.5200   27.3780   40.3620 H   0  0  0  0  0  0  0  0  0  0  0  0
   36.8910   31.0890   38.9010 H   0  0  0  0  0  0  0  0  0  0  0  0
   37.5870   26.6210   42.8680 C   0  0  0  0  0  0  0  0  0  0  0  0
   38.8520   26.7590   43.4050 C   0  0  0  0  0  0  0  0  0  0  0  0
   39.0670   27.6930   43.8930 H   0  0  0  0  0  0  0  0  0  0  0  0
   39.7860   25.7300   43.3120 C   0  0  0  0  0  3  0  0  0  0  0  0
   39.4900   24.5390   42.6820 C   0  0  0  0  0  0  0  0  0  0  0  0
   40.1790   23.7090   42.5810 H   0  0  0  0  0  0  0  0  0  0  0  0
   38.2470   24.3560   42.1330 C   0  0  0  0  0  0  0  0  0  0  0  0
   37.9410   23.4470   41.6220 H   0  0  0  0  0  0  0  0  0  0  0  0
   37.3480   25.3950   42.2450 C   0  0  0  0  0  3  0  0  0  0  0  0
  1  3  1  0  0  0  0
  2  1  1  0  0  0  0
  4 10  1  0  0  0  0
  5  4  1  0  0  0  0
  5  1  1  0  0  0  0
  6  5  2  0  0  0  0
  7  8  2  0  0  0  0
  7  6  1  0  0  0  0
  8  9  1  0  0  0  0
  9  4  2  0  0  0  0
 11  6  1  0  0  0  0
 12  8  1  0  0  0  0
 13  1  1  0  0  0  0
 13 14  1  0  0  0  0
 14 15  1  0  0  0  0
 16 14  2  0  0  0  0
 17 16  1  0  0  0  0
 18 17  1  0  0  0  0
 19 21  1  0  0  0  0
 19 17  2  0  0  0  0
 20 19  1  0  0  0  0
 21 13  2  0  0  0  0
M  END
>  <minimizedAffinity>
-4.25592422

$$$$

 OpenBabel03242515243D

 21 22  0  0  0  0  0  0  0  0999 V2000
   36.1620   30.6410   41.0340 C   0  0  0  0  0  0  0  0  0  0  0  0
   35.1340   30.2650   40.8460 H   0  0  0  0  0  0  0  0  0  0  0  0
   36.0780   31.5680   41.6190 H   0  0  0  0  0  0  0  0  0  0  0  0
   36.3090   30.1060   38.6660 C   0  0  0  0  0  0  0  0  0  0  0  0
   36.7570   30.9200   39.7210 C   0  0  0  0  0  0  0  0  0  0  0  0
   37.6990   31.8820   39.3970 C   0  0  0  0  0  0  0  0  0  0  0  0
   38.1330   31.9940   38.1250 N   0  0  0  0  0  0  0  0  0  0  0  0
   37.6800   31.1940   37.1360 C   0  0  0  0  0  0  0  0  0  0  0  0
   36.7520   30.2240   37.3810 N   0  0  0  0  0  0  0  0  0  0  0  0
   35.5650   29.3090   38.7930 H   0  0  0  0  0  0  0  0  0  0  0  0
   38.0160   32.4800   40.2180 H   0  0  0  0  0  0  0  0  0  0  0  0
   38.0930   31.3660   36.1500 H   0  0  0  0  0  0  0  0  0  0  0  0
   36.9180   29.6120   41.7720 C   0  0  0  0  0  0  0  0  0  0  0  0
   38.1310   29.7870   42.4090 C   0  0  0  0  0  0  0  0  0  0  0  0
   38.5610   30.7710   42.3600 H   0  0  0  0  0  0  0  0  0  0  0  0
   38.7490   28.7320   43.0770 C   0  0  0  0  0  3  0  0  0  0  0  0
   38.1810   27.4770   43.1280 C   0  0  0  0  0  0  0  0  0  0  0  0
   38.6190   26.6230   43.6320 H   0  0  0  0  0  0  0  0  0  0  0  0
   36.9780   27.2540   42.5100 C   0  0  0  0  0  0  0  0  0  0  0  0
   36.4690   26.2930   42.5080 H   0  0  0  0  0  0  0  0  0  0  0  0
   36.3950   28.3210   41.8600 C   0  0  0  0  0  3  0  0  0  0  0  0
  1  3  1  0  0  0  0
  1 13  1  0  0  0  0
  2  1  1  0  0  0  0
  4 10  1  0  0  0  0
  4  5  1  0  0  0  0
  5  1  1  0  0  0  0
  6  5  2  0  0  0  0
  6 11  1  0  0  0  0
  7  6  1  0  0  0  0
  8  9  1  0  0  0  0
  8  7  2  0  0  0  0
  9  4  2  0  0  0  0
 12  8  1  0  0  0  0
 13 21  2  0  0  0  0
 13 14  1  0  0  0  0
 14 16  2  0  0  0  0
 15 14  1  0  0  0  0
 16 17  1  0  0  0  0
 17 18  1  0  0  0  0
 19 17  2  0  0  0  0
 20 19  1  0  0  0  0
 21 19  1  0  0  0  0
M  END
>  <minimizedAffinity>
-4.19398689

$$$$

 OpenBabel03242515243D

 21 22  0  0  0  0  0  0  0  0999 V2000
   37.6960   28.8360   43.4220 C   0  0  0  0  0  0  0  0  0  0  0  0
   36.6560   28.8060   43.8110 H   0  0  0  0  0  0  0  0  0  0  0  0
   38.3260   29.3080   44.1900 H   0  0  0  0  0  0  0  0  0  0  0  0
   38.9170   30.1590   41.7870 C   0  0  0  0  0  0  0  0  0  0  0  0
   37.6710   29.6600   42.2080 C   0  0  0  0  0  0  0  0  0  0  0  0
   36.5770   30.0030   41.4310 C   0  0  0  0  0  0  0  0  0  0  0  0
   36.7470   30.7760   40.3390 N   0  0  0  0  0  0  0  0  0  0  0  0
   37.9590   31.2390   39.9640 C   0  0  0  0  0  0  0  0  0  0  0  0
   39.0810   30.9410   40.6810 N   0  0  0  0  0  0  0  0  0  0  0  0
   39.8570   29.9590   42.3160 H   0  0  0  0  0  0  0  0  0  0  0  0
   35.6520   29.6090   41.7770 H   0  0  0  0  0  0  0  0  0  0  0  0
   37.9860   31.8510   39.0720 H   0  0  0  0  0  0  0  0  0  0  0  0
   38.1410   27.4580   43.1420 C   0  0  0  0  0  0  0  0  0  0  0  0
   37.4700   26.5220   42.3800 C   0  0  0  0  0  0  0  0  0  0  0  0
   36.5350   26.8330   41.9510 H   0  0  0  0  0  0  0  0  0  0  0  0
   37.9950   25.2460   42.1870 C   0  0  0  0  0  3  0  0  0  0  0  0
   39.1970   24.8660   42.7450 C   0  0  0  0  0  0  0  0  0  0  0  0
   39.6480   23.8880   42.6280 H   0  0  0  0  0  0  0  0  0  0  0  0
   39.8990   25.7610   43.5120 C   0  0  0  0  0  0  0  0  0  0  0  0
   40.8520   25.5340   43.9840 H   0  0  0  0  0  0  0  0  0  0  0  0
   39.3500   27.0140   43.6800 C   0  0  0  0  0  3  0  0  0  0  0  0
  1  2  1  0  0  0  0
  1  3  1  0  0  0  0
  4  5  1  0  0  0  0
  4 10  1  0  0  0  0
  5  1  1  0  0  0  0
  6 11  1  0  0  0  0
  6  5  2  0  0  0  0
  7  6  1  0  0  0  0
  8  7  2  0  0  0  0
  8  9  1  0  0  0  0
  9  4  2  0  0  0  0
 12  8  1  0  0  0  0
 13  1  1  0  0  0  0
 13 21  1  0  0  0  0
 14 13  2  0  0  0  0
 15 14  1  0  0  0  0
 16 14  1  0  0  0  0
 16 17  2  0  0  0  0
 17 19  1  0  0  0  0
 18 17  1  0  0  0  0
 19 21  2  0  0  0  0
 19 20  1  0  0  0  0
M  END
>  <minimizedAffinity>
-4.17549038

$$$$

 OpenBabel03242515243D

 21 22  0  0  0  0  0  0  0  0999 V2000
   36.2420   30.5240   41.3120 C   0  0  0  0  0  0  0  0  0  0  0  0
   36.6680   31.5380   41.1570 H   0  0  0  0  0  0  0  0  0  0  0  0
   35.3910   30.6210   42.0030 H   0  0  0  0  0  0  0  0  0  0  0  0
   36.9150   28.4170   42.3220 C   0  0  0  0  0  0  0  0  0  0  0  0
   37.3000   29.7080   41.9190 C   0  0  0  0  0  0  0  0  0  0  0  0
   38.6230   30.0520   42.1420 C   0  0  0  0  0  0  0  0  0  0  0  0
   39.4590   29.1640   42.7160 N   0  0  0  0  0  0  0  0  0  0  0  0
   39.0550   27.9310   43.0910 C   0  0  0  0  0  0  0  0  0  0  0  0
   37.7670   27.5230   42.9030 N   0  0  0  0  0  0  0  0  0  0  0  0
   35.8970   28.0250   42.1990 H   0  0  0  0  0  0  0  0  0  0  0  0
   38.8790   31.0350   41.8260 H   0  0  0  0  0  0  0  0  0  0  0  0
   39.8050   27.2960   43.5430 H   0  0  0  0  0  0  0  0  0  0  0  0
   35.8110   29.9840   40.0090 C   0  0  0  0  0  0  0  0  0  0  0  0
   34.6670   29.2500   39.7650 C   0  0  0  0  0  0  0  0  0  0  0  0
   34.0320   29.0570   40.6110 H   0  0  0  0  0  0  0  0  0  0  0  0
   34.3670   28.7930   38.4840 C   0  0  0  0  0  3  0  0  0  0  0  0
   35.1950   29.0530   37.4110 C   0  0  0  0  0  0  0  0  0  0  0  0
   35.0090   28.7200   36.3970 H   0  0  0  0  0  0  0  0  0  0  0  0
   36.3430   29.7770   37.6040 C   0  0  0  0  0  0  0  0  0  0  0  0
   37.0440   30.0210   36.8090 H   0  0  0  0  0  0  0  0  0  0  0  0
   36.6060   30.2140   38.8850 C   0  0  0  0  0  3  0  0  0  0  0  0
  1  5  1  0  0  0  0
  1  3  1  0  0  0  0
  2  1  1  0  0  0  0
  4  9  1  0  0  0  0
  5  6  1  0  0  0  0
  5  4  2  0  0  0  0
  6  7  2  0  0  0  0
  7  8  1  0  0  0  0
  8 12  1  0  0  0  0
  9  8  2  0  0  0  0
 10  4  1  0  0  0  0
 11  6  1  0  0  0  0
 13  1  1  0  0  0  0
 14 13  1  0  0  0  0
 14 15  1  0  0  0  0
 16 14  2  0  0  0  0
 17 19  2  0  0  0  0
 17 16  1  0  0  0  0
 18 17  1  0  0  0  0
 19 21  1  0  0  0  0
 20 19  1  0  0  0  0
 21 13  2  0  0  0  0
M  END
>  <minimizedAffinity>
-4.11337566

$$$$
