
 OpenBabel03252504533D

 21 22  0  0  0  0  0  0  0  0999 V2000
   45.7390   35.5330   42.9560 C   0  0  0  0  0  0  0  0  0  0  0  0
   45.5400   35.4560   44.0620 H   0  0  0  0  0  0  0  0  0  0  0  0
   45.8320   36.6110   42.6730 H   0  0  0  0  0  0  0  0  0  0  0  0
   48.4200   34.2070   40.7390 C   0  0  0  0  0  0  0  0  0  0  0  0
   47.2780   34.8990   41.1860 C   0  0  0  0  0  0  0  0  0  0  0  0
   46.9280   34.8020   42.5220 C   0  0  0  0  0  0  0  0  0  0  0  0
   47.7000   34.0440   43.3430 N   0  0  0  0  0  0  0  0  0  0  0  0
   48.8010   33.3810   42.8890 C   0  0  0  0  0  0  0  0  0  0  0  0
   49.1430   33.4720   41.5930 N   0  0  0  0  0  0  0  0  0  0  0  0
   48.6680   34.2970   39.7050 H   0  0  0  0  0  0  0  0  0  0  0  0
   46.7030   35.4880   40.4850 H   0  0  0  0  0  0  0  0  0  0  0  0
   49.3590   32.7940   43.6320 H   0  0  0  0  0  0  0  0  0  0  0  0
   44.5780   34.8880   42.2650 C   0  0  0  0  0  0  0  0  0  0  0  0
   43.7220   35.6740   41.5380 C   0  0  0  0  0  0  0  0  0  0  0  0
   43.9290   36.7520   41.4970 H   0  0  0  0  0  0  0  0  0  0  0  0
   42.6070   35.2720   40.8360 C   0  0  0  0  0  3  0  0  0  0  0  0
   42.3500   33.8990   40.8940 C   0  0  0  0  0  0  0  0  0  0  0  0
   41.4770   33.5390   40.3520 H   0  0  0  0  0  0  0  0  0  0  0  0
   43.1880   33.0630   41.6160 C   0  0  0  0  0  0  0  0  0  0  0  0
   42.9570   31.9940   41.6390 H   0  0  0  0  0  0  0  0  0  0  0  0
   44.2940   33.5420   42.2980 C   0  0  0  0  0  3  0  0  0  0  0  0
  1  2  1  0  0  0  0
  3  1  1  0  0  0  0
  4  5  2  0  0  0  0
  4  9  1  0  0  0  0
  5  6  1  0  0  0  0
  6  1  1  0  0  0  0
  6  7  2  0  0  0  0
  8  7  1  0  0  0  0
  8 12  1  0  0  0  0
  9  8  2  0  0  0  0
 10  4  1  0  0  0  0
 11  5  1  0  0  0  0
 13 21  1  0  0  0  0
 13  1  1  0  0  0  0
 14 13  2  0  0  0  0
 15 14  1  0  0  0  0
 16 17  2  0  0  0  0
 16 14  1  0  0  0  0
 17 19  1  0  0  0  0
 18 17  1  0  0  0  0
 19 20  1  0  0  0  0
 19 21  2  0  0  0  0
M  END
>  <minimizedAffinity>
-3.72793198

>  <minimizedRMSD>
5.31362867

$$$$
