REMARK  Name = 
REMARK  3 active torsions:
REMARK  status: ('A' for Active; 'I' for Inactive)
REMARK    1  A    between atoms: C_2  and  S_7
REMARK    2  A    between atoms: S_7  and  C_8
REMARK    3  A    between atoms: C_8  and  C_14
REMARK                            x       y       z     vdW  Elec       q    Type
REMARK                         _______ _______ _______ _____ _____    ______ ____
ROOT
ATOM      1  C   UNL     1      43.870  34.115  40.377  0.00  0.00    +0.000 C 
ATOM      2  H   UNL     1      43.315  33.247  40.822  0.00  0.00    +0.000 HD
ATOM      3  H   UNL     1      44.938  33.751  40.353  0.00  0.00    +0.000 HD
ENDROOT
BRANCH   1   4
ATOM      4  C   UNL     1      43.390  34.460  39.034  0.00  0.00    +0.000 A 
ATOM      5  C   UNL     1      44.107  34.044  37.906  0.00  0.00    +0.000 A 
ATOM      6  H   UNL     1      45.020  33.468  37.974  0.00  0.00    +0.000 HD
ATOM      7  C   UNL     1      43.644  34.375  36.632  0.00  0.00    +0.000 A 
ATOM      8  C   UNL     1      42.473  35.116  36.483  0.00  0.00    +0.000 A 
ATOM      9  H   UNL     1      42.092  35.387  35.487  0.00  0.00    +0.000 HD
ATOM     10  C   UNL     1      41.734  35.547  37.575  0.00  0.00    +0.000 A 
ATOM     11  H   UNL     1      40.823  36.123  37.483  0.00  0.00    +0.000 HD
ATOM     12  C   UNL     1      42.241  35.189  38.806  0.00  0.00    +0.000 A 
ENDBRANCH   1   4
BRANCH   1  13
ATOM     13  S   UNL     1      43.816  35.487  41.531  0.00  0.00    +0.000 S 
BRANCH  13  15
ATOM     14  C   UNL     1      44.259  35.743  44.260  0.00  0.00    +0.000 A 
ATOM     15  C   UNL     1      44.431  34.935  43.142  0.00  0.00    +0.000 A 
ATOM     16  C   UNL     1      45.074  33.696  43.236  0.00  0.00    +0.000 A 
ATOM     17  N   UNL     1      45.511  33.343  44.477  0.00  0.00    +0.000 NA
ATOM     18  C   UNL     1      45.327  34.148  45.529  0.00  0.00    +0.000 A 
ATOM     19  N   UNL     1      44.719  35.332  45.468  0.00  0.00    +0.000 NA
ATOM     20  H   UNL     1      43.764  36.706  44.204  0.00  0.00    +0.000 HD
ATOM     21  H   UNL     1      45.176  33.115  42.331  0.00  0.00    +0.000 HD
ATOM     22  H   UNL     1      45.757  33.661  46.417  0.00  0.00    +0.000 HD
ENDBRANCH  13  15
ENDBRANCH   1  13
TORSDOF 3
