
 OpenBabel03252504543D

 21 22  0  0  0  0  0  0  0  0999 V2000
   46.2430   33.6120   40.7960 C   0  0  0  0  0  0  0  0  0  0  0  0
   45.3280   33.3500   41.3980 H   0  0  0  0  0  0  0  0  0  0  0  0
   46.3280   34.7250   40.7230 H   0  0  0  0  0  0  0  0  0  0  0  0
   49.8810   33.0590   41.3650 C   0  0  0  0  0  0  0  0  0  0  0  0
   48.6710   33.5750   40.8600 C   0  0  0  0  0  0  0  0  0  0  0  0
   47.4810   33.0550   41.3380 C   0  0  0  0  0  0  0  0  0  0  0  0
   47.5300   32.0690   42.2700 N   0  0  0  0  0  0  0  0  0  0  0  0
   48.7120   31.5830   42.7450 C   0  0  0  0  0  0  0  0  0  0  0  0
   49.8690   32.0850   42.2840 N   0  0  0  0  0  0  0  0  0  0  0  0
   50.7840   33.4770   40.9810 H   0  0  0  0  0  0  0  0  0  0  0  0
   48.6960   34.3620   40.1190 H   0  0  0  0  0  0  0  0  0  0  0  0
   48.6450   30.7850   43.4980 H   0  0  0  0  0  0  0  0  0  0  0  0
   46.0620   32.9910   39.4460 C   0  0  0  0  0  0  0  0  0  0  0  0
   45.4400   31.7730   39.3550 C   0  0  0  0  0  0  0  0  0  0  0  0
   45.0990   31.3030   40.2880 H   0  0  0  0  0  0  0  0  0  0  0  0
   45.1830   31.0460   38.2140 C   0  0  0  0  0  3  0  0  0  0  0  0
   45.6200   31.6500   37.0310 C   0  0  0  0  0  0  0  0  0  0  0  0
   45.4360   31.1090   36.1040 H   0  0  0  0  0  0  0  0  0  0  0  0
   46.2550   32.8830   37.0720 C   0  0  0  0  0  0  0  0  0  0  0  0
   46.5840   33.3250   36.1270 H   0  0  0  0  0  0  0  0  0  0  0  0
   46.4790   33.5540   38.2610 C   0  0  0  0  0  3  0  0  0  0  0  0
  1  6  1  0  0  0  0
  1  2  1  0  0  0  0
  3  1  1  0  0  0  0
  4  9  1  0  0  0  0
  5  6  1  0  0  0  0
  5  4  2  0  0  0  0
  6  7  2  0  0  0  0
  7  8  1  0  0  0  0
  8 12  1  0  0  0  0
  9  8  2  0  0  0  0
 10  4  1  0  0  0  0
 11  5  1  0  0  0  0
 13  1  1  0  0  0  0
 14 13  1  0  0  0  0
 14 15  1  0  0  0  0
 16 14  2  0  0  0  0
 17 19  2  0  0  0  0
 17 16  1  0  0  0  0
 18 17  1  0  0  0  0
 19 21  1  0  0  0  0
 20 19  1  0  0  0  0
 21 13  2  0  0  0  0
M  END
>  <minimizedAffinity>
-1.92813289

>  <minimizedRMSD>
5.90619373

$$$$
