REMARK  Name = 
REMARK  4 active torsions:
REMARK  status: ('A' for Active; 'I' for Inactive)
REMARK    1  A    between atoms: C_1  and  C_8
REMARK    2  A    between atoms: C_2  and  S_7
REMARK    3  A    between atoms: C_8  and  C_9
REMARK    4  A    between atoms: C_9  and  C_17
REMARK                            x       y       z     vdW  Elec       q    Type
REMARK                         _______ _______ _______ _____ _____    ______ ____
ROOT
ATOM      1  C   UNL     1      48.551  35.345  40.969  0.00  0.00    +0.000 C 
ATOM      2  H   UNL     1      49.622  35.333  41.173  0.00  0.00    +0.000 HD
ATOM      3  H   UNL     1      48.284  36.430  40.842  0.00  0.00    +0.000 HD
ENDROOT
BRANCH   1   4
ATOM      4  C   UNL     1      47.742  34.853  42.092  0.00  0.00    +0.000 A 
ATOM      5  C   UNL     1      48.314  33.803  42.832  0.00  0.00    +0.000 A 
ATOM      6  C   UNL     1      47.591  33.296  43.910  0.00  0.00    +0.000 A 
ATOM      7  N   UNL     1      46.368  33.818  44.218  0.00  0.00    +0.000 NA
ATOM      8  C   UNL     1      45.864  34.830  43.470  0.00  0.00    +0.000 A 
ATOM      9  N   UNL     1      46.529  35.347  42.424  0.00  0.00    +0.000 NA
ATOM     10  H   UNL     1      48.057  32.483  44.466  0.00  0.00    +0.000 HD
ATOM     11  H   UNL     1      44.891  35.166  43.802  0.00  0.00    +0.000 HD
BRANCH   5  12
ATOM     12  S   UNL     1      49.913  33.142  42.406  0.00  0.00    +0.000 S 
ATOM     13  H   UNL     1      50.926  34.098  42.556  0.00  0.00    +0.000 HD
ENDBRANCH   5  12
ENDBRANCH   1   4
BRANCH   1  14
ATOM     14  C   UNL     1      48.193  34.697  39.648  0.00  0.00    +0.000 C 
ATOM     15  H   UNL     1      48.395  33.609  39.737  0.00  0.00    +0.000 HD
ATOM     16  H   UNL     1      48.838  35.149  38.880  0.00  0.00    +0.000 HD
BRANCH  14  17
ATOM     17  C   UNL     1      46.790  34.947  39.297  0.00  0.00    +0.000 A 
ATOM     18  C   UNL     1      45.855  35.109  40.312  0.00  0.00    +0.000 A 
ATOM     19  H   UNL     1      46.201  35.044  41.342  0.00  0.00    +0.000 HD
ATOM     20  C   UNL     1      44.510  35.348  40.046  0.00  0.00    +0.000 A 
ATOM     21  C   UNL     1      44.115  35.423  38.716  0.00  0.00    +0.000 A 
ATOM     22  H   UNL     1      43.062  35.611  38.591  0.00  0.00    +0.000 HD
ATOM     23  C   UNL     1      44.995  35.271  37.665  0.00  0.00    +0.000 A 
ATOM     24  H   UNL     1      44.645  35.337  36.651  0.00  0.00    +0.000 HD
ATOM     25  C   UNL     1      46.300  35.038  38.017  0.00  0.00    +0.000 A 
ENDBRANCH  14  17
ENDBRANCH   1  14
TORSDOF 4
