
     RDKit          3D

 37 39  0  0  0  0  0  0  0  0999 V2000
   45.2168   36.1239   43.0122 C   0  0  0  0  0  0  0  0  0  0  0  0
   44.2149   35.7829   42.0811 C   0  0  0  0  0  0  0  0  0  0  0  0
   44.4703   34.6979   41.2317 C   0  0  0  0  0  0  0  0  0  0  0  0
   45.6482   34.0406   41.3452 N   0  0  0  0  0  0  0  0  0  0  0  0
   46.5890   34.4071   42.2625 C   0  0  0  0  0  0  0  0  0  0  0  0
   46.3688   35.4418   43.0868 N   0  0  0  0  0  0  0  0  0  0  0  0
   49.0582   35.9251   41.3883 Cl  0  0  0  0  0  0  0  0  0  0  0  0
   49.0024   34.2641   41.9165 C   0  0  0  0  0  0  0  0  0  0  0  0
   47.8244   33.6342   42.3041 C   0  0  0  0  0  0  0  0  0  0  0  0
   47.7733   32.3310   42.7197 C   0  0  0  0  0  0  0  0  0  0  0  0
   48.9653   31.6377   42.7435 C   0  0  0  0  0  0  0  0  0  0  0  0
   50.1774   32.1671   42.3818 C   0  0  0  0  0  0  0  0  0  0  0  0
   50.1473   33.5013   41.9696 C   0  0  0  0  0  0  0  0  0  0  0  0
   44.9608   37.2640   43.9123 C   0  0  0  0  0  0  0  0  0  0  0  0
   45.5075   38.4187   43.6214 C   0  0  0  0  0  0  0  0  0  0  0  0
   45.2794   39.5976   44.4973 C   0  0  0  0  0  0  0  0  0  0  0  0
   43.2979   36.3325   42.0279 H   0  0  0  0  0  0  0  0  0  0  0  0
   43.7380   34.3848   40.4920 H   0  0  0  0  0  0  0  0  0  0  0  0
   46.8660   31.8262   43.0244 H   0  0  0  0  0  0  0  0  0  0  0  0
   48.9374   30.6068   43.0702 H   0  0  0  0  0  0  0  0  0  0  0  0
   51.1139   31.6258   42.3994 H   0  0  0  0  0  0  0  0  0  0  0  0
   51.0782   33.9657   41.6738 H   0  0  0  0  0  0  0  0  0  0  0  0
   44.3418   37.1759   44.7957 H   0  0  0  0  0  0  0  0  0  0  0  0
   46.1478   38.6313   42.7626 H   0  0  0  0  0  0  0  0  0  0  0  0
   44.7801   40.3863   43.8928 H   0  0  0  0  0  0  0  0  0  0  0  0
   46.2236   40.0403   44.8726 H   0  0  0  0  0  0  0  0  0  0  0  0
   44.4147   39.2839   45.6448 C   0  0  0  0  0  0  0  0  0  0  0  0
   43.2143   39.9864   45.7797 C   0  0  0  0  0  0  0  0  0  0  0  0
   42.9368   40.7479   45.0433 H   0  0  0  0  0  0  0  0  0  0  0  0
   42.3641   39.7345   46.8356 C   0  0  0  0  0  0  0  0  0  0  0  0
   42.6590   38.7877   47.7943 C   0  0  0  0  0  0  0  0  0  0  0  0
   42.0149   38.5692   48.6297 H   0  0  0  0  0  0  0  0  0  0  0  0
   43.8540   38.0700   47.6835 C   0  0  0  0  0  0  0  0  0  0  0  0
   44.1731   37.3063   48.3869 H   0  0  0  0  0  0  0  0  0  0  0  0
   44.6922   38.3390   46.6160 C   0  0  0  0  0  0  0  0  0  0  0  0
   41.4159   40.2800   46.9542 H   0  0  0  0  0  0  0  0  0  0  0  0
   45.6249   37.7842   46.5228 H   0  0  0  0  0  0  0  0  0  0  0  0
  1  6  1  0
  1 14  1  0
  2  1  2  0
  3  4  2  0
  3  2  1  0
  4  5  1  0
  5  9  1  0
  5  6  2  0
  7  8  1  0
  8 13  2  0
  8  9  1  0
  9 10  2  0
 10 11  1  0
 12 11  2  0
 13 12  1  0
 15 14  2  0
 15 16  1  0
  2 17  1  0
  3 18  1  0
 10 19  1  0
 11 20  1  0
 12 21  1  0
 13 22  1  0
 14 23  1  0
 15 24  1  0
 16 25  1  0
 16 26  1  0
 27 28  2  0
 28 29  1  0
 28 30  1  0
 30 31  2  0
 31 32  1  0
 31 33  1  0
 33 34  1  0
 33 35  2  0
 35 27  1  0
 30 36  1  0
 35 37  1  0
 16 27  1  0
M  ISO  8  17  14  18  14  19  14  20  14  21  14  22  14  25   8  26   8
M  ISO  3  29  16  32  16  34  16
M  END
>  <DihAtoms>  (1) 
14,15,26,27

>  <DihDeg>  (1) 
-89.99991332278637

$$$$
