
     RDKit          3D

 24 25  0  0  0  0  0  0  0  0999 V2000
   44.2590   35.7435   44.2595 C   0  0  0  0  0  0  0  0  0  0  0  0
   44.4311   34.9351   43.1417 C   0  0  0  0  0  0  0  0  0  0  0  0
   45.0735   33.6960   43.2359 C   0  0  0  0  0  0  0  0  0  0  0  0
   45.5108   33.3433   44.4775 N   0  0  0  0  0  0  0  0  0  0  0  0
   45.3266   34.1481   45.5294 C   0  0  0  0  0  0  0  0  0  0  0  0
   44.7186   35.3323   45.4676 N   0  0  0  0  0  0  0  0  0  0  0  0
   43.8161   35.4875   41.5307 S   0  0  0  0  0  0  0  0  0  0  0  0
   43.8703   34.1152   40.3768 C   0  0  0  0  0  0  0  0  0  0  0  0
   43.7640   36.7055   44.2042 H   0  0  0  0  0  0  0  0  0  0  0  0
   45.1758   33.1154   42.3310 H   0  0  0  0  0  0  0  0  0  0  0  0
   45.7571   33.6612   46.4166 H   0  0  0  0  0  0  0  0  0  0  0  0
   43.3152   33.2467   40.8221 H   0  0  0  0  0  0  0  0  0  0  0  0
   44.9375   33.7505   40.3533 H   0  0  0  0  0  0  0  0  0  0  0  0
   43.3897   34.4596   39.0337 C   0  0  0  0  0  0  0  0  0  0  0  0
   42.1283   34.0251   38.6093 C   0  0  0  0  0  0  0  0  0  0  0  0
   41.4727   33.4341   39.2345 H   0  0  0  0  0  0  0  0  0  0  0  0
   41.6784   34.3566   37.3305 C   0  0  0  0  0  0  0  0  0  0  0  0
   42.4797   35.1161   36.4804 C   0  0  0  0  0  0  0  0  0  0  0  0
   42.1423   35.3874   35.4688 H   0  0  0  0  0  0  0  0  0  0  0  0
   43.7355   35.5657   36.8636 C   0  0  0  0  0  0  0  0  0  0  0  0
   44.3745   36.1561   36.2211 H   0  0  0  0  0  0  0  0  0  0  0  0
   44.1246   35.2067   38.1367 C   0  0  0  0  0  0  0  0  0  0  0  0
   40.6978   34.0162   37.0064 H   0  0  0  0  0  0  0  0  0  0  0  0
   45.1160   35.5600   38.4431 H   0  0  0  0  0  0  0  0  0  0  0  0
  1  6  2  0
  2  3  2  0
  2  1  1  0
  3  4  1  0
  4  5  2  0
  6  5  1  0
  7  2  1  0
  8  7  1  0
  1  9  1  0
  3 10  1  0
  5 11  1  0
  8 12  1  0
  8 13  1  0
 14 15  2  0
 15 16  1  0
 15 17  1  0
 17 18  2  0
 18 19  1  0
 18 20  1  0
 20 21  1  0
 20 22  2  0
 22 14  1  0
 17 23  1  0
 22 24  1  0
  8 14  1  0
M  ISO  8   9  14  10  14  11  14  12   8  13   8  16  16  19  16  21  16
M  END
>  <DihAtoms>  (1) 
6,7,13,14

>  <DihDeg>  (1) 
-90.01100321285926

$$$$
