
 OpenBabel03242516353D

 44 47  0  0  1  0  0  0  0  0999 V2000
   47.8440   33.8570   39.7720 O   0  0  0  0  0  0  0  0  0  0  0  0
   48.0810   34.5700   42.0200 C   0  0  2  0  0  0  0  0  0  0  0  0
   46.7270   33.8450   42.2500 C   0  0  1  0  0  0  0  0  0  0  0  0
   47.1970   32.6050   42.5640 O   0  0  0  0  0  0  0  0  0  0  0  0
   48.0960   32.3120   41.5190 C   0  0  0  0  0  0  0  0  0  0  0  0
   48.5590   33.6580   40.9160 C   0  0  1  0  0  0  0  0  0  0  0  0
   47.9210   35.6070   41.7210 H   0  0  0  0  0  0  0  0  0  0  0  0
   46.2040   33.8210   41.2630 H   0  0  0  0  0  0  0  0  0  0  0  0
   48.9650   31.7330   41.8690 H   0  0  0  0  0  0  0  0  0  0  0  0
   47.5330   31.7360   40.7710 H   0  0  0  0  0  0  0  0  0  0  0  0
   49.6500   33.7210   40.7900 H   0  0  0  0  0  0  0  0  0  0  0  0
   44.5420   36.0800   44.4130 C   0  0  0  0  0  0  0  0  0  0  0  0
   45.2080   35.6820   43.2510 C   0  0  0  0  0  0  0  0  0  0  0  0
   45.9500   34.5140   43.3020 C   0  0  0  0  0  0  0  0  0  0  0  0
   45.9770   33.8310   44.4960 N   0  0  0  0  0  0  0  0  0  0  0  0
   45.3240   34.2440   45.5940 C   0  0  0  0  0  0  0  0  0  0  0  0
   44.6040   35.3760   45.5450 N   0  0  0  0  0  0  0  0  0  0  0  0
   43.9950   37.0160   44.2370 H   0  0  0  0  0  0  0  0  0  0  0  0
   45.2370   36.1540   42.2910 H   0  0  0  0  0  0  0  0  0  0  0  0
   45.3680   33.6780   46.5150 H   0  0  0  0  0  0  0  0  0  0  0  0
   48.9180   34.3840   43.0800 O   0  0  0  0  0  0  0  0  0  0  0  0
   49.0020   35.2580   43.5530 H   0  0  0  0  0  0  0  0  0  0  0  0
   49.1610   32.8260   38.1100 C   0  0  1  0  0  0  0  0  0  0  0  0
   48.5900   34.2320   38.6550 C   0  0  1  0  0  0  0  0  0  0  0  0
   47.7580   34.5030   37.6340 O   0  0  0  0  0  0  0  0  0  0  0  0
   46.9210   33.3540   37.6870 C   0  0  0  0  0  0  0  0  0  0  0  0
   47.9300   32.2430   37.4880 C   0  0  1  0  0  0  0  0  0  0  0  0
   49.6100   32.2900   38.9270 H   0  0  0  0  0  0  0  0  0  0  0  0
   49.5290   34.7360   38.8620 H   0  0  0  0  0  0  0  0  0  0  0  0
   46.3880   33.2800   38.6530 H   0  0  0  0  0  0  0  0  0  0  0  0
   46.2470   33.4100   36.8090 H   0  0  0  0  0  0  0  0  0  0  0  0
   47.5880   31.3370   38.0440 H   0  0  0  0  0  0  0  0  0  0  0  0
   50.0270   33.1950   37.0690 O   0  0  0  0  0  0  0  0  0  0  0  0
   49.4670   33.7100   36.4310 H   0  0  0  0  0  0  0  0  0  0  0  0
   48.0850   32.0110   36.1380 O   0  0  0  0  0  0  0  0  0  0  0  0
   47.2680   31.1860   35.3840 C   0  0  0  0  0  0  0  0  0  0  0  0
   47.6860   31.2360   34.0490 C   0  0  0  0  0  0  0  0  0  0  0  0
   48.5060   31.8070   33.6150 H   0  0  0  0  0  0  0  0  0  0  0  0
   47.0320   30.4920   33.0590 C   0  0  0  0  0  0  0  0  0  0  0  0
   45.9630   29.6990   33.4050 C   0  0  0  0  0  0  0  0  0  0  0  0
   45.3890   29.0860   32.7220 H   0  0  0  0  0  0  0  0  0  0  0  0
   45.5700   29.6640   34.7250 C   0  0  0  0  0  0  0  0  0  0  0  0
   44.7430   29.0640   35.0450 H   0  0  0  0  0  0  0  0  0  0  0  0
   46.1980   30.3870   35.7080 C   0  0  0  0  0  0  0  0  0  0  0  0
  1  6  1  0  0  0  0
  2  7  1  6  0  0  0
  2  3  1  0  0  0  0
  2 21  1  0  0  0  0
  3  8  1  6  0  0  0
  3  4  1  0  0  0  0
  3 14  1  0  0  0  0
  5  9  1  0  0  0  0
  5  4  1  0  0  0  0
  6 11  1  6  0  0  0
  6  5  1  0  0  0  0
  6  2  1  0  0  0  0
 10  5  1  0  0  0  0
 12 17  1  0  0  0  0
 13 14  1  0  0  0  0
 13 12  2  0  0  0  0
 14 15  2  0  0  0  0
 15 16  1  0  0  0  0
 16 20  1  0  0  0  0
 17 16  2  0  0  0  0
 18 12  1  0  0  0  0
 19 13  1  0  0  0  0
 21 22  1  0  0  0  0
 23 24  1  0  0  0  0
 23 28  1  1  0  0  0
 24 29  1  1  0  0  0
 24  1  1  0  0  0  0
 25 26  1  0  0  0  0
 25 24  1  0  0  0  0
 26 30  1  0  0  0  0
 27 26  1  0  0  0  0
 27 32  1  1  0  0  0
 27 23  1  0  0  0  0
 31 26  1  0  0  0  0
 33 23  1  0  0  0  0
 34 33  1  0  0  0  0
 35 27  1  0  0  0  0
 36 44  1  0  0  0  0
 36 35  1  0  0  0  0
 37 36  2  0  0  0  0
 38 37  1  0  0  0  0
 39 40  2  0  0  0  0
 39 37  1  0  0  0  0
 40 42  1  0  0  0  0
 41 40  1  0  0  0  0
 42 43  1  0  0  0  0
 42 44  2  0  0  0  0
M  END
>  <minimizedAffinity>
-5.45554399

>  <minimizedRMSD>
1.01335824

$$$$
