
 OpenBabel03252504163D

 35 37  0  0  0  0  0  0  0  0999 V2000
   38.8430   27.4120   40.2550 F   0  0  0  0  0  0  0  0  0  0  0  0
   38.2190   27.5840   41.4620 C   0  0  0  0  0  0  0  0  0  0  0  0
   38.3490   28.7770   42.1380 C   0  0  0  0  0  0  0  0  0  0  0  0
   37.6820   28.8660   43.3600 C   0  0  0  0  0  0  0  0  0  0  0  0
   36.9370   27.8140   43.8530 C   0  0  0  0  0  0  0  0  0  0  0  0
   36.8430   26.6310   43.1220 C   0  0  0  0  0  0  0  0  0  0  0  0
   37.4890   26.4890   41.8960 C   0  0  0  0  0  0  0  0  0  0  0  0
   37.7750   29.8070   43.9100 H   0  0  0  0  0  0  0  0  0  0  0  0
   36.4380   27.9410   44.8110 H   0  0  0  0  0  0  0  0  0  0  0  0
   36.2570   25.8200   43.5210 H   0  0  0  0  0  0  0  0  0  0  0  0
   37.4050   25.2590   41.1140 C   0  0  0  0  0  0  0  0  0  0  0  0
   36.5750   25.1410   39.9960 C   0  0  0  0  0  0  0  0  0  0  0  0
   35.9780   25.9730   39.6960 H   0  0  0  0  0  0  0  0  0  0  0  0
   36.5240   23.9570   39.2820 C   0  0  0  0  0  3  0  0  0  0  0  0
   37.2980   22.8590   39.6620 C   0  0  0  0  0  0  0  0  0  0  0  0
   37.2610   21.9250   39.1020 H   0  0  0  0  0  0  0  0  0  0  0  0
   38.1290   22.9730   40.7790 C   0  0  0  0  0  0  0  0  0  0  0  0
   38.7530   22.1420   41.1140 H   0  0  0  0  0  0  0  0  0  0  0  0
   38.1790   24.1650   41.4960 C   0  0  0  0  0  3  0  0  0  0  0  0
   39.1570   32.0120   40.6910 C   0  0  0  0  0  0  0  0  0  0  0  0
   40.5350   32.0070   40.5900 C   0  0  0  0  0  0  0  0  0  0  0  0
   41.2080   30.8510   41.0360 C   0  0  0  0  0  0  0  0  0  0  0  0
   40.4810   29.8210   41.5320 N   0  0  0  0  0  0  0  0  0  0  0  0
   39.1370   29.8770   41.6080 C   0  0  0  0  0  0  0  0  0  0  0  0
   38.4830   30.9720   41.1870 N   0  0  0  0  0  0  0  0  0  0  0  0
   42.2870   30.8450   40.9590 H   0  0  0  0  0  0  0  0  0  0  0  0
   41.2580   33.1670   40.0380 C   0  0  0  0  0  0  0  0  0  0  0  0
   41.0910   34.2630   40.8480 F   0  0  0  0  0  0  0  0  0  0  0  0
   42.6240   32.8570   40.0780 F   0  0  0  0  0  0  0  0  0  0  0  0
   40.9360   33.5140   38.7710 F   0  0  0  0  0  0  0  0  0  0  0  0
   38.5100   33.1360   40.2560 O   0  0  0  0  0  0  0  0  0  0  0  0
   37.3870   33.1950   39.4220 C   0  0  0  0  0  0  0  0  0  0  0  0
   36.4140   32.3650   39.9740 F   0  0  0  0  0  0  0  0  0  0  0  0
   36.9540   34.5010   39.2990 F   0  0  0  0  0  0  0  0  0  0  0  0
   37.6690   32.6380   38.2050 F   0  0  0  0  0  0  0  0  0  0  0  0
  1  2  1  0  0  0  0
  2  7  2  0  0  0  0
  2  3  1  0  0  0  0
  3  4  2  0  0  0  0
  4  5  1  0  0  0  0
  4  8  1  0  0  0  0
  5  9  1  0  0  0  0
  6 10  1  0  0  0  0
  6  5  2  0  0  0  0
  7  6  1  0  0  0  0
 11 19  1  0  0  0  0
 11  7  1  0  0  0  0
 12 11  2  0  0  0  0
 13 12  1  0  0  0  0
 14 15  2  0  0  0  0
 14 12  1  0  0  0  0
 15 17  1  0  0  0  0
 16 15  1  0  0  0  0
 17 18  1  0  0  0  0
 17 19  2  0  0  0  0
 20 25  1  0  0  0  0
 21 20  2  0  0  0  0
 21 22  1  0  0  0  0
 22 23  2  0  0  0  0
 23 24  1  0  0  0  0
 24  3  1  0  0  0  0
 25 24  2  0  0  0  0
 26 22  1  0  0  0  0
 27 29  1  0  0  0  0
 27 21  1  0  0  0  0
 27 28  1  0  0  0  0
 30 27  1  0  0  0  0
 31 20  1  0  0  0  0
 32 33  1  0  0  0  0
 32 31  1  0  0  0  0
 34 32  1  0  0  0  0
 35 32  1  0  0  0  0
M  END
>  <minimizedAffinity>
-6.40518093

$$$$

 OpenBabel03252504163D

 35 37  0  0  0  0  0  0  0  0999 V2000
   32.9010   29.1630   38.8040 F   0  0  0  0  0  0  0  0  0  0  0  0
   33.2810   28.9330   37.5090 C   0  0  0  0  0  0  0  0  0  0  0  0
   34.4210   28.2050   37.2480 C   0  0  0  0  0  0  0  0  0  0  0  0
   34.7350   28.0180   35.9010 C   0  0  0  0  0  0  0  0  0  0  0  0
   33.9420   28.5370   34.8980 C   0  0  0  0  0  0  0  0  0  0  0  0
   32.8000   29.2660   35.2260 C   0  0  0  0  0  0  0  0  0  0  0  0
   32.4410   29.4810   36.5540 C   0  0  0  0  0  0  0  0  0  0  0  0
   35.6380   27.4420   35.6770 H   0  0  0  0  0  0  0  0  0  0  0  0
   34.2360   28.3590   33.8660 H   0  0  0  0  0  0  0  0  0  0  0  0
   32.1920   29.6630   34.4300 H   0  0  0  0  0  0  0  0  0  0  0  0
   31.2490   30.2420   36.9200 C   0  0  0  0  0  0  0  0  0  0  0  0
   30.4240   29.8680   37.9840 C   0  0  0  0  0  0  0  0  0  0  0  0
   30.6640   28.9990   38.5540 H   0  0  0  0  0  0  0  0  0  0  0  0
   29.3030   30.6170   38.2970 C   0  0  0  0  0  3  0  0  0  0  0  0
   28.9750   31.7560   37.5610 C   0  0  0  0  0  0  0  0  0  0  0  0
   28.0930   32.3480   37.8050 H   0  0  0  0  0  0  0  0  0  0  0  0
   29.7980   32.1320   36.4970 C   0  0  0  0  0  0  0  0  0  0  0  0
   29.5810   33.0160   35.8920 H   0  0  0  0  0  0  0  0  0  0  0  0
   30.9240   31.3780   36.1820 C   0  0  0  0  0  3  0  0  0  0  0  0
   36.1920   27.9780   40.4140 C   0  0  0  0  0  0  0  0  0  0  0  0
   36.7920   26.7340   40.3810 C   0  0  0  0  0  0  0  0  0  0  0  0
   36.5790   25.9470   39.2310 C   0  0  0  0  0  0  0  0  0  0  0  0
   35.8100   26.4430   38.2320 N   0  0  0  0  0  0  0  0  0  0  0  0
   35.2470   27.6650   38.3140 C   0  0  0  0  0  0  0  0  0  0  0  0
   35.4420   28.4250   39.4040 N   0  0  0  0  0  0  0  0  0  0  0  0
   37.0480   24.9720   39.2030 H   0  0  0  0  0  0  0  0  0  0  0  0
   37.6170   26.2610   41.5080 C   0  0  0  0  0  0  0  0  0  0  0  0
   38.7130   27.0730   41.6700 F   0  0  0  0  0  0  0  0  0  0  0  0
   36.8490   26.4070   42.6700 F   0  0  0  0  0  0  0  0  0  0  0  0
   38.0390   24.9780   41.4320 F   0  0  0  0  0  0  0  0  0  0  0  0
   36.4020   28.7360   41.5330 O   0  0  0  0  0  0  0  0  0  0  0  0
   37.1210   29.9350   41.6180 C   0  0  0  0  0  0  0  0  0  0  0  0
   38.0440   29.9420   40.5740 F   0  0  0  0  0  0  0  0  0  0  0  0
   36.2570   31.0120   41.5610 F   0  0  0  0  0  0  0  0  0  0  0  0
   37.8810   29.9540   42.7540 F   0  0  0  0  0  0  0  0  0  0  0  0
  2  1  1  0  0  0  0
  3  2  1  0  0  0  0
  3 24  1  0  0  0  0
  4  3  2  0  0  0  0
  5  6  2  0  0  0  0
  5  4  1  0  0  0  0
  6  7  1  0  0  0  0
  7 11  1  0  0  0  0
  7  2  2  0  0  0  0
  8  4  1  0  0  0  0
  9  5  1  0  0  0  0
 10  6  1  0  0  0  0
 11 12  1  0  0  0  0
 12 14  2  0  0  0  0
 12 13  1  0  0  0  0
 15 16  1  0  0  0  0
 15 14  1  0  0  0  0
 17 15  2  0  0  0  0
 18 17  1  0  0  0  0
 19 17  1  0  0  0  0
 19 11  2  0  0  0  0
 20 31  1  0  0  0  0
 21 20  1  0  0  0  0
 21 27  1  0  0  0  0
 22 21  2  0  0  0  0
 23 24  2  0  0  0  0
 23 22  1  0  0  0  0
 24 25  1  0  0  0  0
 25 20  2  0  0  0  0
 26 22  1  0  0  0  0
 27 28  1  0  0  0  0
 27 29  1  0  0  0  0
 30 27  1  0  0  0  0
 31 32  1  0  0  0  0
 32 35  1  0  0  0  0
 33 32  1  0  0  0  0
 34 32  1  0  0  0  0
M  END
>  <minimizedAffinity>
-6.37322712

$$$$

 OpenBabel03252504163D

 35 37  0  0  0  0  0  0  0  0999 V2000
   38.5660   27.4810   40.1450 F   0  0  0  0  0  0  0  0  0  0  0  0
   38.0090   27.6070   41.3900 C   0  0  0  0  0  0  0  0  0  0  0  0
   38.0420   28.8230   42.0360 C   0  0  0  0  0  0  0  0  0  0  0  0
   37.4530   28.8630   43.3000 C   0  0  0  0  0  0  0  0  0  0  0  0
   36.8740   27.7420   43.8610 C   0  0  0  0  0  0  0  0  0  0  0  0
   36.8720   26.5380   43.1570 C   0  0  0  0  0  0  0  0  0  0  0  0
   37.4460   26.4440   41.8920 C   0  0  0  0  0  0  0  0  0  0  0  0
   37.4700   29.8210   43.8270 H   0  0  0  0  0  0  0  0  0  0  0  0
   36.4290   27.8320   44.8490 H   0  0  0  0  0  0  0  0  0  0  0  0
   36.4160   25.6740   43.6090 H   0  0  0  0  0  0  0  0  0  0  0  0
   37.4570   25.1950   41.1370 C   0  0  0  0  0  0  0  0  0  0  0  0
   36.5430   24.9340   40.1120 C   0  0  0  0  0  0  0  0  0  0  0  0
   35.8090   25.6680   39.8650 H   0  0  0  0  0  0  0  0  0  0  0  0
   36.5870   23.7360   39.4210 C   0  0  0  0  0  3  0  0  0  0  0  0
   37.5400   22.7660   39.7330 C   0  0  0  0  0  0  0  0  0  0  0  0
   37.5780   21.8210   39.1910 H   0  0  0  0  0  0  0  0  0  0  0  0
   38.4550   23.0220   40.7570 C   0  0  0  0  0  0  0  0  0  0  0  0
   39.2190   22.2930   41.0360 H   0  0  0  0  0  0  0  0  0  0  0  0
   38.4100   24.2270   41.4510 C   0  0  0  0  0  3  0  0  0  0  0  0
   38.6310   31.5550   39.7130 C   0  0  0  0  0  0  0  0  0  0  0  0
   39.7400   32.2030   40.2220 C   0  0  0  0  0  0  0  0  0  0  0  0
   40.3030   31.6830   41.4050 C   0  0  0  0  0  0  0  0  0  0  0  0
   39.7370   30.5900   41.9730 N   0  0  0  0  0  0  0  0  0  0  0  0
   38.6550   29.9950   41.4350 C   0  0  0  0  0  0  0  0  0  0  0  0
   38.1090   30.4810   40.3080 N   0  0  0  0  0  0  0  0  0  0  0  0
   41.1710   32.1890   41.8060 H   0  0  0  0  0  0  0  0  0  0  0  0
   40.3010   33.3890   39.5470 C   0  0  0  0  0  0  0  0  0  0  0  0
   39.4300   34.4460   39.6380 F   0  0  0  0  0  0  0  0  0  0  0  0
   41.4470   33.7640   40.2610 F   0  0  0  0  0  0  0  0  0  0  0  0
   40.6420   33.2220   38.2490 F   0  0  0  0  0  0  0  0  0  0  0  0
   38.0900   32.0660   38.5650 O   0  0  0  0  0  0  0  0  0  0  0  0
   37.7340   31.3570   37.4110 C   0  0  0  0  0  0  0  0  0  0  0  0
   38.7710   30.4710   37.1300 F   0  0  0  0  0  0  0  0  0  0  0  0
   36.5290   30.7080   37.6060 F   0  0  0  0  0  0  0  0  0  0  0  0
   37.6900   32.1960   36.3320 F   0  0  0  0  0  0  0  0  0  0  0  0
  1  2  1  0  0  0  0
  2  7  2  0  0  0  0
  2  3  1  0  0  0  0
  3  4  2  0  0  0  0
  4  8  1  0  0  0  0
  4  5  1  0  0  0  0
  5  9  1  0  0  0  0
  6 10  1  0  0  0  0
  6  5  2  0  0  0  0
  7  6  1  0  0  0  0
 11 19  1  0  0  0  0
 11  7  1  0  0  0  0
 12 11  2  0  0  0  0
 13 12  1  0  0  0  0
 14 15  2  0  0  0  0
 14 12  1  0  0  0  0
 15 17  1  0  0  0  0
 16 15  1  0  0  0  0
 17 18  1  0  0  0  0
 17 19  2  0  0  0  0
 20 21  2  0  0  0  0
 20 25  1  0  0  0  0
 21 22  1  0  0  0  0
 22 26  1  0  0  0  0
 22 23  2  0  0  0  0
 24 23  1  0  0  0  0
 24  3  1  0  0  0  0
 25 24  2  0  0  0  0
 27 28  1  0  0  0  0
 27 21  1  0  0  0  0
 27 29  1  0  0  0  0
 30 27  1  0  0  0  0
 31 20  1  0  0  0  0
 32 34  1  0  0  0  0
 32 31  1  0  0  0  0
 33 32  1  0  0  0  0
 35 32  1  0  0  0  0
M  END
>  <minimizedAffinity>
-6.2457099

$$$$

 OpenBabel03252504163D

 35 37  0  0  0  0  0  0  0  0999 V2000
   34.0990   29.5810   38.3280 F   0  0  0  0  0  0  0  0  0  0  0  0
   34.1840   28.3690   37.6970 C   0  0  0  0  0  0  0  0  0  0  0  0
   35.0190   27.3930   38.1950 C   0  0  0  0  0  0  0  0  0  0  0  0
   35.0460   26.1890   37.4900 C   0  0  0  0  0  0  0  0  0  0  0  0
   34.2760   25.9980   36.3610 C   0  0  0  0  0  0  0  0  0  0  0  0
   33.4500   27.0250   35.9050 C   0  0  0  0  0  0  0  0  0  0  0  0
   33.3850   28.2460   36.5710 C   0  0  0  0  0  0  0  0  0  0  0  0
   35.7030   25.4040   37.8730 H   0  0  0  0  0  0  0  0  0  0  0  0
   34.3360   25.0390   35.8530 H   0  0  0  0  0  0  0  0  0  0  0  0
   32.8550   26.8590   35.0220 H   0  0  0  0  0  0  0  0  0  0  0  0
   32.5280   29.3350   36.1110 C   0  0  0  0  0  0  0  0  0  0  0  0
   32.7030   29.9480   34.8680 C   0  0  0  0  0  0  0  0  0  0  0  0
   33.4870   29.6170   34.2250 H   0  0  0  0  0  0  0  0  0  0  0  0
   31.8680   30.9780   34.4710 C   0  0  0  0  0  3  0  0  0  0  0  0
   30.8380   31.4240   35.3000 C   0  0  0  0  0  0  0  0  0  0  0  0
   30.1780   32.2340   34.9900 H   0  0  0  0  0  0  0  0  0  0  0  0
   30.6600   30.8130   36.5440 C   0  0  0  0  0  0  0  0  0  0  0  0
   29.8680   31.1280   37.2270 H   0  0  0  0  0  0  0  0  0  0  0  0
   31.5010   29.7780   36.9420 C   0  0  0  0  0  3  0  0  0  0  0  0
   37.3270   26.7250   40.9220 C   0  0  0  0  0  0  0  0  0  0  0  0
   37.3790   27.9130   41.6240 C   0  0  0  0  0  0  0  0  0  0  0  0
   36.5930   28.9800   41.1430 C   0  0  0  0  0  0  0  0  0  0  0  0
   35.8390   28.7880   40.0330 N   0  0  0  0  0  0  0  0  0  0  0  0
   35.8250   27.6080   39.3850 C   0  0  0  0  0  0  0  0  0  0  0  0
   36.5690   26.5830   39.8330 N   0  0  0  0  0  0  0  0  0  0  0  0
   36.6320   29.9120   41.6910 H   0  0  0  0  0  0  0  0  0  0  0  0
   38.2240   28.0470   42.8260 C   0  0  0  0  0  0  0  0  0  0  0  0
   39.5430   27.8380   42.5060 F   0  0  0  0  0  0  0  0  0  0  0  0
   38.1310   29.3790   43.2480 F   0  0  0  0  0  0  0  0  0  0  0  0
   37.9010   27.2440   43.8660 F   0  0  0  0  0  0  0  0  0  0  0  0
   38.0920   25.6940   41.3950 O   0  0  0  0  0  0  0  0  0  0  0  0
   37.6400   24.5240   42.0190 C   0  0  0  0  0  0  0  0  0  0  0  0
   38.6160   24.1370   42.9330 F   0  0  0  0  0  0  0  0  0  0  0  0
   36.4170   24.7500   42.6210 F   0  0  0  0  0  0  0  0  0  0  0  0
   37.5790   23.4970   41.1180 F   0  0  0  0  0  0  0  0  0  0  0  0
  2  3  1  0  0  0  0
  2  1  1  0  0  0  0
  3 24  1  0  0  0  0
  4  8  1  0  0  0  0
  4  3  2  0  0  0  0
  5  4  1  0  0  0  0
  6  5  2  0  0  0  0
  6  7  1  0  0  0  0
  7  2  2  0  0  0  0
  9  5  1  0  0  0  0
 10  6  1  0  0  0  0
 11  7  1  0  0  0  0
 11 19  1  0  0  0  0
 12 11  2  0  0  0  0
 13 12  1  0  0  0  0
 14 12  1  0  0  0  0
 14 15  2  0  0  0  0
 15 17  1  0  0  0  0
 16 15  1  0  0  0  0
 17 19  2  0  0  0  0
 17 18  1  0  0  0  0
 20 31  1  0  0  0  0
 20 21  1  0  0  0  0
 21 27  1  0  0  0  0
 22 21  2  0  0  0  0
 22 26  1  0  0  0  0
 23 22  1  0  0  0  0
 24 25  1  0  0  0  0
 24 23  2  0  0  0  0
 25 20  2  0  0  0  0
 27 29  1  0  0  0  0
 27 30  1  0  0  0  0
 28 27  1  0  0  0  0
 31 32  1  0  0  0  0
 32 34  1  0  0  0  0
 32 33  1  0  0  0  0
 35 32  1  0  0  0  0
M  END
>  <minimizedAffinity>
-6.1225214

$$$$

 OpenBabel03252504163D

 35 37  0  0  0  0  0  0  0  0999 V2000
   35.1240   29.6460   39.0470 F   0  0  0  0  0  0  0  0  0  0  0  0
   35.2420   28.3360   38.6690 C   0  0  0  0  0  0  0  0  0  0  0  0
   34.4540   27.8410   37.6520 C   0  0  0  0  0  0  0  0  0  0  0  0
   34.6390   26.4960   37.3320 C   0  0  0  0  0  0  0  0  0  0  0  0
   35.5600   25.7160   38.0000 C   0  0  0  0  0  0  0  0  0  0  0  0
   36.3290   26.2740   39.0210 C   0  0  0  0  0  0  0  0  0  0  0  0
   36.1850   27.6110   39.3810 C   0  0  0  0  0  0  0  0  0  0  0  0
   34.0210   26.0880   36.5270 H   0  0  0  0  0  0  0  0  0  0  0  0
   35.6620   24.6730   37.7070 H   0  0  0  0  0  0  0  0  0  0  0  0
   37.0440   25.6500   39.5320 H   0  0  0  0  0  0  0  0  0  0  0  0
   36.9790   28.2160   40.4460 C   0  0  0  0  0  0  0  0  0  0  0  0
   38.1560   28.9230   40.1900 C   0  0  0  0  0  0  0  0  0  0  0  0
   38.4960   29.0300   39.1840 H   0  0  0  0  0  0  0  0  0  0  0  0
   38.8800   29.4810   41.2300 C   0  0  0  0  0  3  0  0  0  0  0  0
   38.4500   29.3500   42.5500 C   0  0  0  0  0  0  0  0  0  0  0  0
   39.0170   29.7880   43.3720 H   0  0  0  0  0  0  0  0  0  0  0  0
   37.2730   28.6440   42.8110 C   0  0  0  0  0  0  0  0  0  0  0  0
   36.8980   28.5150   43.8290 H   0  0  0  0  0  0  0  0  0  0  0  0
   36.5470   28.0830   41.7650 C   0  0  0  0  0  3  0  0  0  0  0  0
   31.6100   30.0340   37.0990 C   0  0  0  0  0  0  0  0  0  0  0  0
   31.6160   30.2640   35.7370 C   0  0  0  0  0  0  0  0  0  0  0  0
   32.6340   29.6440   34.9840 C   0  0  0  0  0  0  0  0  0  0  0  0
   33.5390   28.8660   35.6250 N   0  0  0  0  0  0  0  0  0  0  0  0
   33.4880   28.6740   36.9570 C   0  0  0  0  0  0  0  0  0  0  0  0
   32.5240   29.2590   37.6860 N   0  0  0  0  0  0  0  0  0  0  0  0
   32.6410   29.8230   33.9170 H   0  0  0  0  0  0  0  0  0  0  0  0
   30.5950   31.1240   35.1090 C   0  0  0  0  0  0  0  0  0  0  0  0
   30.7440   32.4230   35.5270 F   0  0  0  0  0  0  0  0  0  0  0  0
   30.8500   31.1260   33.7310 F   0  0  0  0  0  0  0  0  0  0  0  0
   29.3090   30.7530   35.3060 F   0  0  0  0  0  0  0  0  0  0  0  0
   30.6190   30.6390   37.8230 O   0  0  0  0  0  0  0  0  0  0  0  0
   29.6650   30.0140   38.6360 C   0  0  0  0  0  0  0  0  0  0  0  0
   28.7050   30.9690   38.9610 F   0  0  0  0  0  0  0  0  0  0  0  0
   29.1220   28.9260   37.9790 F   0  0  0  0  0  0  0  0  0  0  0  0
   30.2210   29.6570   39.8330 F   0  0  0  0  0  0  0  0  0  0  0  0
  2  1  1  0  0  0  0
  2  7  1  0  0  0  0
  3  2  2  0  0  0  0
  4  3  1  0  0  0  0
  4  5  2  0  0  0  0
  5  6  1  0  0  0  0
  6  7  2  0  0  0  0
  6 10  1  0  0  0  0
  7 11  1  0  0  0  0
  8  4  1  0  0  0  0
  9  5  1  0  0  0  0
 11 19  1  0  0  0  0
 12 11  2  0  0  0  0
 12 14  1  0  0  0  0
 13 12  1  0  0  0  0
 14 15  2  0  0  0  0
 15 17  1  0  0  0  0
 15 16  1  0  0  0  0
 17 18  1  0  0  0  0
 19 17  2  0  0  0  0
 20 25  1  0  0  0  0
 20 31  1  0  0  0  0
 21 20  2  0  0  0  0
 22 23  2  0  0  0  0
 22 21  1  0  0  0  0
 23 24  1  0  0  0  0
 24  3  1  0  0  0  0
 24 25  2  0  0  0  0
 26 22  1  0  0  0  0
 27 30  1  0  0  0  0
 27 28  1  0  0  0  0
 27 21  1  0  0  0  0
 29 27  1  0  0  0  0
 31 32  1  0  0  0  0
 32 33  1  0  0  0  0
 32 35  1  0  0  0  0
 34 32  1  0  0  0  0
M  END
>  <minimizedAffinity>
-5.98238897

$$$$

 OpenBabel03252504163D

 35 37  0  0  0  0  0  0  0  0999 V2000
   38.6160   26.6880   39.4960 F   0  0  0  0  0  0  0  0  0  0  0  0
   38.1840   26.9660   40.7650 C   0  0  0  0  0  0  0  0  0  0  0  0
   38.4220   28.2070   41.3140 C   0  0  0  0  0  0  0  0  0  0  0  0
   37.9480   28.4050   42.6120 C   0  0  0  0  0  0  0  0  0  0  0  0
   37.2810   27.4090   43.2950 C   0  0  0  0  0  0  0  0  0  0  0  0
   37.0700   26.1730   42.6850 C   0  0  0  0  0  0  0  0  0  0  0  0
   37.5220   25.9230   41.3920 C   0  0  0  0  0  0  0  0  0  0  0  0
   38.1290   29.3850   43.0620 H   0  0  0  0  0  0  0  0  0  0  0  0
   36.9330   27.6210   44.3040 H   0  0  0  0  0  0  0  0  0  0  0  0
   36.5460   25.4070   43.2330 H   0  0  0  0  0  0  0  0  0  0  0  0
   37.3130   24.6360   40.7340 C   0  0  0  0  0  0  0  0  0  0  0  0
   36.2150   24.3920   39.9060 C   0  0  0  0  0  0  0  0  0  0  0  0
   35.4990   25.1660   39.7410 H   0  0  0  0  0  0  0  0  0  0  0  0
   36.0540   23.1570   39.3010 C   0  0  0  0  0  3  0  0  0  0  0  0
   36.9810   22.1340   39.5060 C   0  0  0  0  0  0  0  0  0  0  0  0
   36.8570   21.1610   39.0320 H   0  0  0  0  0  0  0  0  0  0  0  0
   38.0800   22.3750   40.3340 C   0  0  0  0  0  0  0  0  0  0  0  0
   38.8310   21.6050   40.5250 H   0  0  0  0  0  0  0  0  0  0  0  0
   38.2400   23.6160   40.9420 C   0  0  0  0  0  3  0  0  0  0  0  0
   39.0120   31.2810   39.4670 C   0  0  0  0  0  0  0  0  0  0  0  0
   40.3660   31.2610   39.1940 C   0  0  0  0  0  0  0  0  0  0  0  0
   41.1000   30.1520   39.6620 C   0  0  0  0  0  0  0  0  0  0  0  0
   40.4500   29.1780   40.3440 N   0  0  0  0  0  0  0  0  0  0  0  0
   39.1270   29.2460   40.5840 C   0  0  0  0  0  0  0  0  0  0  0  0
   38.4150   30.2970   40.1440 N   0  0  0  0  0  0  0  0  0  0  0  0
   42.1610   30.1340   39.4490 H   0  0  0  0  0  0  0  0  0  0  0  0
   41.0040   32.3590   38.4430 C   0  0  0  0  0  0  0  0  0  0  0  0
   40.9120   33.5330   39.1480 F   0  0  0  0  0  0  0  0  0  0  0  0
   42.3690   32.0590   38.3580 F   0  0  0  0  0  0  0  0  0  0  0  0
   40.5330   32.5690   37.1930 F   0  0  0  0  0  0  0  0  0  0  0  0
   38.3050   32.3600   39.0110 O   0  0  0  0  0  0  0  0  0  0  0  0
   37.5520   33.2610   39.7740 C   0  0  0  0  0  0  0  0  0  0  0  0
   36.5720   32.5260   40.4380 F   0  0  0  0  0  0  0  0  0  0  0  0
   38.3750   33.9460   40.6470 F   0  0  0  0  0  0  0  0  0  0  0  0
   36.8580   34.1110   38.9580 F   0  0  0  0  0  0  0  0  0  0  0  0
  1  2  1  0  0  0  0
  2  3  2  0  0  0  0
  2  7  1  0  0  0  0
  3  4  1  0  0  0  0
  4  8  1  0  0  0  0
  4  5  2  0  0  0  0
  5  9  1  0  0  0  0
  6 10  1  0  0  0  0
  6  5  1  0  0  0  0
  7  6  2  0  0  0  0
 11 19  1  0  0  0  0
 11  7  1  0  0  0  0
 12 11  2  0  0  0  0
 13 12  1  0  0  0  0
 14 15  2  0  0  0  0
 14 12  1  0  0  0  0
 15 17  1  0  0  0  0
 16 15  1  0  0  0  0
 17 18  1  0  0  0  0
 17 19  2  0  0  0  0
 20 25  1  0  0  0  0
 21 20  2  0  0  0  0
 21 22  1  0  0  0  0
 22 23  2  0  0  0  0
 23 24  1  0  0  0  0
 24  3  1  0  0  0  0
 25 24  2  0  0  0  0
 26 22  1  0  0  0  0
 27 28  1  0  0  0  0
 27 21  1  0  0  0  0
 29 27  1  0  0  0  0
 30 27  1  0  0  0  0
 31 20  1  0  0  0  0
 31 32  1  0  0  0  0
 32 33  1  0  0  0  0
 32 34  1  0  0  0  0
 35 32  1  0  0  0  0
M  END
>  <minimizedAffinity>
-5.88990259

$$$$

 OpenBabel03252504163D

 35 37  0  0  0  0  0  0  0  0999 V2000
   40.1040   29.6370   39.4530 F   0  0  0  0  0  0  0  0  0  0  0  0
   39.1020   30.5430   39.6760 C   0  0  0  0  0  0  0  0  0  0  0  0
   37.8690   30.1100   40.1120 C   0  0  0  0  0  0  0  0  0  0  0  0
   36.9060   31.1000   40.3130 C   0  0  0  0  0  0  0  0  0  0  0  0
   37.1850   32.4330   40.0870 C   0  0  0  0  0  0  0  0  0  0  0  0
   38.4530   32.8100   39.6460 C   0  0  0  0  0  0  0  0  0  0  0  0
   39.4500   31.8620   39.4300 C   0  0  0  0  0  0  0  0  0  0  0  0
   35.9220   30.7720   40.6590 H   0  0  0  0  0  0  0  0  0  0  0  0
   36.3960   33.1610   40.2620 H   0  0  0  0  0  0  0  0  0  0  0  0
   38.6530   33.8540   39.4750 H   0  0  0  0  0  0  0  0  0  0  0  0
   40.7850   32.2340   38.9690 C   0  0  0  0  0  0  0  0  0  0  0  0
   41.8570   32.4050   39.8480 C   0  0  0  0  0  0  0  0  0  0  0  0
   41.7060   32.2620   40.8940 H   0  0  0  0  0  0  0  0  0  0  0  0
   43.1070   32.7580   39.3680 C   0  0  0  0  0  3  0  0  0  0  0  0
   43.3210   32.9510   38.0030 C   0  0  0  0  0  0  0  0  0  0  0  0
   44.3040   33.2290   37.6220 H   0  0  0  0  0  0  0  0  0  0  0  0
   42.2510   32.7800   37.1210 C   0  0  0  0  0  0  0  0  0  0  0  0
   42.3710   32.9200   36.0440 H   0  0  0  0  0  0  0  0  0  0  0  0
   40.9950   32.4250   37.6040 C   0  0  0  0  0  3  0  0  0  0  0  0
   37.8740   26.8490   41.7160 C   0  0  0  0  0  0  0  0  0  0  0  0
   37.1180   26.0540   40.8760 C   0  0  0  0  0  0  0  0  0  0  0  0
   36.5880   26.6620   39.7200 C   0  0  0  0  0  0  0  0  0  0  0  0
   36.8440   27.9730   39.4940 N   0  0  0  0  0  0  0  0  0  0  0  0
   37.5890   28.7040   40.3460 C   0  0  0  0  0  0  0  0  0  0  0  0
   38.1000   28.1380   41.4510 N   0  0  0  0  0  0  0  0  0  0  0  0
   35.9950   26.0410   39.0610 H   0  0  0  0  0  0  0  0  0  0  0  0
   36.8820   24.6320   41.1880 C   0  0  0  0  0  0  0  0  0  0  0  0
   36.3390   24.5030   42.4420 F   0  0  0  0  0  0  0  0  0  0  0  0
   35.9100   24.1700   40.2920 F   0  0  0  0  0  0  0  0  0  0  0  0
   37.9630   23.8230   41.1020 F   0  0  0  0  0  0  0  0  0  0  0  0
   38.3850   26.2530   42.8360 O   0  0  0  0  0  0  0  0  0  0  0  0
   39.7150   25.8740   43.0590 C   0  0  0  0  0  0  0  0  0  0  0  0
   40.3280   25.7540   41.8140 F   0  0  0  0  0  0  0  0  0  0  0  0
   40.3440   26.8010   43.8670 F   0  0  0  0  0  0  0  0  0  0  0  0
   39.7670   24.6170   43.5950 F   0  0  0  0  0  0  0  0  0  0  0  0
  1  2  1  0  0  0  0
  2  3  1  0  0  0  0
  3  4  2  0  0  0  0
  3 24  1  0  0  0  0
  4  8  1  0  0  0  0
  5  9  1  0  0  0  0
  5  4  1  0  0  0  0
  6  5  2  0  0  0  0
  7  6  1  0  0  0  0
  7  2  2  0  0  0  0
 10  6  1  0  0  0  0
 11  7  1  0  0  0  0
 11 12  1  0  0  0  0
 12 13  1  0  0  0  0
 14 12  2  0  0  0  0
 15 14  1  0  0  0  0
 16 15  1  0  0  0  0
 17 19  1  0  0  0  0
 17 15  2  0  0  0  0
 18 17  1  0  0  0  0
 19 11  2  0  0  0  0
 20 31  1  0  0  0  0
 21 27  1  0  0  0  0
 21 20  2  0  0  0  0
 22 21  1  0  0  0  0
 23 22  2  0  0  0  0
 23 24  1  0  0  0  0
 24 25  2  0  0  0  0
 25 20  1  0  0  0  0
 26 22  1  0  0  0  0
 27 28  1  0  0  0  0
 29 27  1  0  0  0  0
 30 27  1  0  0  0  0
 31 32  1  0  0  0  0
 32 35  1  0  0  0  0
 32 34  1  0  0  0  0
 33 32  1  0  0  0  0
M  END
>  <minimizedAffinity>
-5.8228364

$$$$

 OpenBabel03252504163D

 35 37  0  0  0  0  0  0  0  0999 V2000
   37.6390   27.4330   39.7080 F   0  0  0  0  0  0  0  0  0  0  0  0
   37.2950   27.2630   41.0220 C   0  0  0  0  0  0  0  0  0  0  0  0
   37.1790   28.3590   41.8490 C   0  0  0  0  0  0  0  0  0  0  0  0
   36.8260   28.0950   43.1730 C   0  0  0  0  0  0  0  0  0  0  0  0
   36.6070   26.8070   43.6170 C   0  0  0  0  0  0  0  0  0  0  0  0
   36.7400   25.7380   42.7330 C   0  0  0  0  0  0  0  0  0  0  0  0
   37.0900   25.9460   41.4010 C   0  0  0  0  0  0  0  0  0  0  0  0
   36.7290   28.9550   43.8420 H   0  0  0  0  0  0  0  0  0  0  0  0
   36.3330   26.6620   44.6600 H   0  0  0  0  0  0  0  0  0  0  0  0
   36.5650   24.7390   43.0960 H   0  0  0  0  0  0  0  0  0  0  0  0
   37.2350   24.8410   40.4570 C   0  0  0  0  0  0  0  0  0  0  0  0
   36.1670   24.3710   39.6880 C   0  0  0  0  0  0  0  0  0  0  0  0
   35.2090   24.8290   39.7870 H   0  0  0  0  0  0  0  0  0  0  0  0
   36.3480   23.3210   38.8050 C   0  0  0  0  0  3  0  0  0  0  0  0
   37.5950   22.7110   38.6650 C   0  0  0  0  0  0  0  0  0  0  0  0
   37.7410   21.8830   37.9700 H   0  0  0  0  0  0  0  0  0  0  0  0
   38.6650   23.1780   39.4320 C   0  0  0  0  0  0  0  0  0  0  0  0
   39.6590   22.7310   39.3560 H   0  0  0  0  0  0  0  0  0  0  0  0
   38.4820   24.2330   40.3200 C   0  0  0  0  0  3  0  0  0  0  0  0
   38.8430   31.5380   41.2720 C   0  0  0  0  0  0  0  0  0  0  0  0
   37.9460   32.2590   40.5070 C   0  0  0  0  0  0  0  0  0  0  0  0
   36.7290   31.6290   40.1790 C   0  0  0  0  0  0  0  0  0  0  0  0
   36.5040   30.3690   40.6230 N   0  0  0  0  0  0  0  0  0  0  0  0
   37.4120   29.7100   41.3680 C   0  0  0  0  0  0  0  0  0  0  0  0
   38.5760   30.2980   41.6880 N   0  0  0  0  0  0  0  0  0  0  0  0
   36.0250   32.1920   39.5790 H   0  0  0  0  0  0  0  0  0  0  0  0
   38.2620   33.6290   40.0600 C   0  0  0  0  0  0  0  0  0  0  0  0
   39.2360   33.6020   39.0920 F   0  0  0  0  0  0  0  0  0  0  0  0
   37.1110   34.1350   39.4410 F   0  0  0  0  0  0  0  0  0  0  0  0
   38.6420   34.4930   41.0290 F   0  0  0  0  0  0  0  0  0  0  0  0
   40.0220   32.1560   41.5870 O   0  0  0  0  0  0  0  0  0  0  0  0
   41.2860   31.8910   41.0430 C   0  0  0  0  0  0  0  0  0  0  0  0
   41.8580   33.1150   40.7060 F   0  0  0  0  0  0  0  0  0  0  0  0
   42.0540   31.1840   41.9480 F   0  0  0  0  0  0  0  0  0  0  0  0
   41.1610   31.2250   39.8550 F   0  0  0  0  0  0  0  0  0  0  0  0
  1  2  1  0  0  0  0
  2  7  2  0  0  0  0
  2  3  1  0  0  0  0
  3  4  2  0  0  0  0
  4  5  1  0  0  0  0
  4  8  1  0  0  0  0
  5  9  1  0  0  0  0
  6 10  1  0  0  0  0
  6  5  2  0  0  0  0
  7  6  1  0  0  0  0
 11  7  1  0  0  0  0
 12 13  1  0  0  0  0
 12 11  2  0  0  0  0
 14 12  1  0  0  0  0
 15 14  2  0  0  0  0
 15 17  1  0  0  0  0
 16 15  1  0  0  0  0
 17 19  2  0  0  0  0
 18 17  1  0  0  0  0
 19 11  1  0  0  0  0
 20 31  1  0  0  0  0
 20 25  1  0  0  0  0
 21 20  2  0  0  0  0
 22 21  1  0  0  0  0
 22 23  2  0  0  0  0
 23 24  1  0  0  0  0
 24 25  2  0  0  0  0
 24  3  1  0  0  0  0
 26 22  1  0  0  0  0
 27 21  1  0  0  0  0
 27 30  1  0  0  0  0
 28 27  1  0  0  0  0
 29 27  1  0  0  0  0
 32 31  1  0  0  0  0
 32 34  1  0  0  0  0
 33 32  1  0  0  0  0
 35 32  1  0  0  0  0
M  END
>  <minimizedAffinity>
-5.81690073

$$$$

 OpenBabel03252504163D

 35 37  0  0  0  0  0  0  0  0999 V2000
   37.9390   27.3680   40.0640 F   0  0  0  0  0  0  0  0  0  0  0  0
   38.4470   27.1590   41.3180 C   0  0  0  0  0  0  0  0  0  0  0  0
   38.8130   28.2350   42.0990 C   0  0  0  0  0  0  0  0  0  0  0  0
   39.3220   27.9320   43.3620 C   0  0  0  0  0  0  0  0  0  0  0  0
   39.4480   26.6270   43.7940 C   0  0  0  0  0  0  0  0  0  0  0  0
   39.0610   25.5800   42.9580 C   0  0  0  0  0  0  0  0  0  0  0  0
   38.5460   25.8270   41.6880 C   0  0  0  0  0  0  0  0  0  0  0  0
   39.6170   28.7740   43.9940 H   0  0  0  0  0  0  0  0  0  0  0  0
   39.8510   26.4510   44.7890 H   0  0  0  0  0  0  0  0  0  0  0  0
   39.1650   24.5680   43.3120 H   0  0  0  0  0  0  0  0  0  0  0  0
   38.1350   24.7470   40.7960 C   0  0  0  0  0  0  0  0  0  0  0  0
   39.0200   24.1390   39.9030 C   0  0  0  0  0  0  0  0  0  0  0  0
   40.0350   24.4680   39.8640 H   0  0  0  0  0  0  0  0  0  0  0  0
   38.5890   23.1180   39.0740 C   0  0  0  0  0  3  0  0  0  0  0  0
   37.2660   22.6770   39.1120 C   0  0  0  0  0  0  0  0  0  0  0  0
   36.9230   21.8730   38.4600 H   0  0  0  0  0  0  0  0  0  0  0  0
   36.3770   23.2820   40.0040 C   0  0  0  0  0  0  0  0  0  0  0  0
   35.3320   22.9710   40.0690 H   0  0  0  0  0  0  0  0  0  0  0  0
   36.8120   24.3090   40.8360 C   0  0  0  0  0  3  0  0  0  0  0  0
   39.7030   31.6440   41.2090 C   0  0  0  0  0  0  0  0  0  0  0  0
   38.5190   32.2020   40.7660 C   0  0  0  0  0  0  0  0  0  0  0  0
   37.3760   31.3760   40.7740 C   0  0  0  0  0  0  0  0  0  0  0  0
   37.4960   30.0980   41.2080 N   0  0  0  0  0  0  0  0  0  0  0  0
   38.6760   29.6030   41.6310 C   0  0  0  0  0  0  0  0  0  0  0  0
   39.7720   30.3790   41.6280 N   0  0  0  0  0  0  0  0  0  0  0  0
   36.4480   31.8100   40.4270 H   0  0  0  0  0  0  0  0  0  0  0  0
   38.4660   33.6030   40.3070 C   0  0  0  0  0  0  0  0  0  0  0  0
   39.2510   33.7690   39.1930 F   0  0  0  0  0  0  0  0  0  0  0  0
   37.1500   33.8520   39.8990 F   0  0  0  0  0  0  0  0  0  0  0  0
   38.8140   34.5360   41.2230 F   0  0  0  0  0  0  0  0  0  0  0  0
   40.8080   32.4510   41.1980 O   0  0  0  0  0  0  0  0  0  0  0  0
   41.8920   32.3870   40.3140 C   0  0  0  0  0  0  0  0  0  0  0  0
   41.4870   31.6380   39.2120 F   0  0  0  0  0  0  0  0  0  0  0  0
   42.2940   33.6610   39.9630 F   0  0  0  0  0  0  0  0  0  0  0  0
   42.9150   31.6670   40.8670 F   0  0  0  0  0  0  0  0  0  0  0  0
  1  2  1  0  0  0  0
  2  7  2  0  0  0  0
  2  3  1  0  0  0  0
  3  4  2  0  0  0  0
  4  5  1  0  0  0  0
  4  8  1  0  0  0  0
  5  9  1  0  0  0  0
  6 10  1  0  0  0  0
  6  5  2  0  0  0  0
  7  6  1  0  0  0  0
 11 19  1  0  0  0  0
 11  7  1  0  0  0  0
 12 11  2  0  0  0  0
 13 12  1  0  0  0  0
 14 15  2  0  0  0  0
 14 12  1  0  0  0  0
 15 17  1  0  0  0  0
 16 15  1  0  0  0  0
 17 18  1  0  0  0  0
 17 19  2  0  0  0  0
 20 25  1  0  0  0  0
 21 22  1  0  0  0  0
 21 20  2  0  0  0  0
 22 23  2  0  0  0  0
 23 24  1  0  0  0  0
 24  3  1  0  0  0  0
 25 24  2  0  0  0  0
 26 22  1  0  0  0  0
 27 21  1  0  0  0  0
 27 30  1  0  0  0  0
 28 27  1  0  0  0  0
 29 27  1  0  0  0  0
 31 20  1  0  0  0  0
 32 35  1  0  0  0  0
 32 31  1  0  0  0  0
 33 32  1  0  0  0  0
 34 32  1  0  0  0  0
M  END
>  <minimizedAffinity>
-5.79538584

$$$$
