
 OpenBabel03242522243D

 28 30  0  0  0  0  0  0  0  0999 V2000
   39.2290   26.8730   43.6620 C   0  0  0  0  0  0  0  0  0  0  0  0
   39.0420   28.1560   43.1310 C   0  0  0  0  0  0  0  0  0  0  0  0
   38.4200   28.3710   41.9150 C   0  0  0  0  0  0  0  0  0  0  0  0
   37.9970   27.2600   41.2580 N   0  0  0  0  0  0  0  0  0  0  0  0
   38.1790   26.0310   41.7710 C   0  0  0  0  0  0  0  0  0  0  0  0
   38.7790   25.8460   42.9410 N   0  0  0  0  0  0  0  0  0  0  0  0
   39.7290   26.8320   44.6220 H   0  0  0  0  0  0  0  0  0  0  0  0
   39.4020   29.0240   43.7020 H   0  0  0  0  0  0  0  0  0  0  0  0
   35.6460   28.8790   41.1170 Cl  0  0  0  0  0  0  0  0  0  0  0  0
   36.9420   30.0450   40.9570 C   0  0  0  0  0  0  0  0  0  0  0  0
   38.2260   29.7100   41.3640 C   0  0  0  0  0  0  0  0  0  0  0  0
   39.2120   30.6580   41.2180 C   0  0  0  0  0  0  0  0  0  0  0  0
   38.9460   31.9040   40.6860 C   0  0  0  0  0  0  0  0  0  0  0  0
   37.6340   32.1830   40.2950 C   0  0  0  0  0  0  0  0  0  0  0  0
   37.2740   33.7610   39.6150 Cl  0  0  0  0  0  0  0  0  0  0  0  0
   36.6140   31.2730   40.4180 C   0  0  0  0  0  0  0  0  0  0  0  0
   40.2080   30.3870   41.5390 H   0  0  0  0  0  0  0  0  0  0  0  0
   39.7310   32.6500   40.5750 H   0  0  0  0  0  0  0  0  0  0  0  0
   35.6030   31.5200   40.1030 H   0  0  0  0  0  0  0  0  0  0  0  0
   37.6900   24.8680   40.9960 C   0  0  0  0  0  0  0  0  0  0  0  0
   36.6170   25.0320   40.1420 C   0  0  0  0  0  0  0  0  0  0  0  0
   36.1160   25.9800   40.0150 H   0  0  0  0  0  0  0  0  0  0  0  0
   36.2010   23.9170   39.4440 C   0  0  0  0  0  3  0  0  0  0  0  0
   36.7820   22.6690   39.5440 C   0  0  0  0  0  0  0  0  0  0  0  0
   36.4440   21.8070   38.9900 H   0  0  0  0  0  0  0  0  0  0  0  0
   37.8650   22.5670   40.4260 C   0  0  0  0  0  0  0  0  0  0  0  0
   38.3530   21.6080   40.5370 H   0  0  0  0  0  0  0  0  0  0  0  0
   38.3480   23.6470   41.1690 C   0  0  0  0  0  3  0  0  0  0  0  0
  1  7  1  0  0  0  0
  2  1  1  0  0  0  0
  2  8  1  0  0  0  0
  3  2  2  0  0  0  0
  4  5  2  0  0  0  0
  4  3  1  0  0  0  0
  5  6  1  0  0  0  0
  6  1  2  0  0  0  0
 10  9  1  0  0  0  0
 10 11  1  0  0  0  0
 11  3  1  0  0  0  0
 12 11  2  0  0  0  0
 12 17  1  0  0  0  0
 13 12  1  0  0  0  0
 14 16  1  0  0  0  0
 14 13  2  0  0  0  0
 15 14  1  0  0  0  0
 16 10  2  0  0  0  0
 18 13  1  0  0  0  0
 19 16  1  0  0  0  0
 20 28  1  0  0  0  0
 20  5  1  0  0  0  0
 21 20  2  0  0  0  0
 22 21  1  0  0  0  0
 23 24  2  0  0  0  0
 23 21  1  0  0  0  0
 24 26  1  0  0  0  0
 25 24  1  0  0  0  0
 26 27  1  0  0  0  0
 26 28  2  0  0  0  0
M  END
>  <minimizedAffinity>
-5.57062483

$$$$

 OpenBabel03242522243D

 28 30  0  0  0  0  0  0  0  0999 V2000
   37.3970   28.0480   43.6800 C   0  0  0  0  0  0  0  0  0  0  0  0
   38.0310   29.1630   43.1150 C   0  0  0  0  0  0  0  0  0  0  0  0
   38.2870   29.2630   41.7600 C   0  0  0  0  0  0  0  0  0  0  0  0
   37.8870   28.2100   41.0000 N   0  0  0  0  0  0  0  0  0  0  0  0
   37.2790   27.1430   41.5450 C   0  0  0  0  0  0  0  0  0  0  0  0
   37.0420   27.0670   42.8500 N   0  0  0  0  0  0  0  0  0  0  0  0
   37.2500   28.0860   44.7520 H   0  0  0  0  0  0  0  0  0  0  0  0
   38.3360   29.9900   43.7730 H   0  0  0  0  0  0  0  0  0  0  0  0
   36.3910   31.2820   40.8010 Cl  0  0  0  0  0  0  0  0  0  0  0  0
   38.1310   31.4390   40.6910 C   0  0  0  0  0  0  0  0  0  0  0  0
   38.9480   30.4260   41.1750 C   0  0  0  0  0  0  0  0  0  0  0  0
   40.3090   30.5940   41.0660 C   0  0  0  0  0  0  0  0  0  0  0  0
   40.8570   31.7270   40.4970 C   0  0  0  0  0  0  0  0  0  0  0  0
   39.9830   32.7110   40.0290 C   0  0  0  0  0  0  0  0  0  0  0  0
   40.6590   34.1600   39.3020 Cl  0  0  0  0  0  0  0  0  0  0  0  0
   38.6190   32.5940   40.1130 C   0  0  0  0  0  0  0  0  0  0  0  0
   40.9350   29.7990   41.4460 H   0  0  0  0  0  0  0  0  0  0  0  0
   41.9340   31.8530   40.4150 H   0  0  0  0  0  0  0  0  0  0  0  0
   37.9660   33.3780   39.7370 H   0  0  0  0  0  0  0  0  0  0  0  0
   36.8710   26.0350   40.6510 C   0  0  0  0  0  0  0  0  0  0  0  0
   36.5080   26.3200   39.3500 C   0  0  0  0  0  0  0  0  0  0  0  0
   36.5080   27.3250   38.9540 H   0  0  0  0  0  0  0  0  0  0  0  0
   36.1360   25.2520   38.5600 C   0  0  0  0  0  3  0  0  0  0  0  0
   36.1060   23.9380   38.9820 C   0  0  0  0  0  0  0  0  0  0  0  0
   35.8140   23.1150   38.3500 H   0  0  0  0  0  0  0  0  0  0  0  0
   36.4860   23.7150   40.3120 C   0  0  0  0  0  0  0  0  0  0  0  0
   36.4790   22.7000   40.6870 H   0  0  0  0  0  0  0  0  0  0  0  0
   36.8760   24.7400   41.1770 C   0  0  0  0  0  3  0  0  0  0  0  0
  1  7  1  0  0  0  0
  2  1  1  0  0  0  0
  2  8  1  0  0  0  0
  3  2  2  0  0  0  0
  4  5  2  0  0  0  0
  4  3  1  0  0  0  0
  5  6  1  0  0  0  0
  6  1  2  0  0  0  0
 10  9  1  0  0  0  0
 10 11  1  0  0  0  0
 11  3  1  0  0  0  0
 12 11  2  0  0  0  0
 12 17  1  0  0  0  0
 13 12  1  0  0  0  0
 14 16  1  0  0  0  0
 14 13  2  0  0  0  0
 15 14  1  0  0  0  0
 16 10  2  0  0  0  0
 18 13  1  0  0  0  0
 19 16  1  0  0  0  0
 20 28  1  0  0  0  0
 20  5  1  0  0  0  0
 21 20  2  0  0  0  0
 22 21  1  0  0  0  0
 23 24  2  0  0  0  0
 23 21  1  0  0  0  0
 24 26  1  0  0  0  0
 25 24  1  0  0  0  0
 26 27  1  0  0  0  0
 26 28  2  0  0  0  0
M  END
>  <minimizedAffinity>
-5.35226679

$$$$

 OpenBabel03242522243D

 28 30  0  0  0  0  0  0  0  0999 V2000
   39.6280   33.8620   40.0400 C   0  0  0  0  0  0  0  0  0  0  0  0
   38.9780   32.8690   40.7840 C   0  0  0  0  0  0  0  0  0  0  0  0
   39.2840   31.5270   40.6570 C   0  0  0  0  0  0  0  0  0  0  0  0
   40.2590   31.2210   39.7610 N   0  0  0  0  0  0  0  0  0  0  0  0
   40.8790   32.1760   39.0480 C   0  0  0  0  0  0  0  0  0  0  0  0
   40.5710   33.4610   39.1860 N   0  0  0  0  0  0  0  0  0  0  0  0
   39.3010   34.8770   40.2270 H   0  0  0  0  0  0  0  0  0  0  0  0
   38.1940   33.1670   41.4970 H   0  0  0  0  0  0  0  0  0  0  0  0
   36.8190   30.5840   39.3800 Cl  0  0  0  0  0  0  0  0  0  0  0  0
   37.4240   29.9840   40.9100 C   0  0  0  0  0  0  0  0  0  0  0  0
   38.6040   30.4940   41.4340 C   0  0  0  0  0  0  0  0  0  0  0  0
   39.0390   29.9910   42.6390 C   0  0  0  0  0  0  0  0  0  0  0  0
   38.3360   29.0130   43.3130 C   0  0  0  0  0  0  0  0  0  0  0  0
   37.1560   28.5390   42.7340 C   0  0  0  0  0  0  0  0  0  0  0  0
   36.2460   27.2950   43.5750 Cl  0  0  0  0  0  0  0  0  0  0  0  0
   36.6770   29.0060   41.5360 C   0  0  0  0  0  0  0  0  0  0  0  0
   39.9590   30.3960   43.0380 H   0  0  0  0  0  0  0  0  0  0  0  0
   38.6870   28.6200   44.2650 H   0  0  0  0  0  0  0  0  0  0  0  0
   35.7550   28.6170   41.1130 H   0  0  0  0  0  0  0  0  0  0  0  0
   41.9330   31.7650   38.0930 C   0  0  0  0  0  0  0  0  0  0  0  0
   41.6670   30.7510   37.1940 C   0  0  0  0  0  0  0  0  0  0  0  0
   40.7170   30.2400   37.1590 H   0  0  0  0  0  0  0  0  0  0  0  0
   42.6840   30.4080   36.3260 C   0  0  0  0  0  3  0  0  0  0  0  0
   43.9270   31.0050   36.3000 C   0  0  0  0  0  0  0  0  0  0  0  0
   44.7100   30.7240   35.6140 H   0  0  0  0  0  0  0  0  0  0  0  0
   44.1340   32.0270   37.2360 C   0  0  0  0  0  0  0  0  0  0  0  0
   45.0950   32.5250   37.2530 H   0  0  0  0  0  0  0  0  0  0  0  0
   43.1590   32.4350   38.1480 C   0  0  0  0  0  3  0  0  0  0  0  0
  1  7  1  0  0  0  0
  1  2  1  0  0  0  0
  2  8  1  0  0  0  0
  3  2  2  0  0  0  0
  3 11  1  0  0  0  0
  4  3  1  0  0  0  0
  5  6  1  0  0  0  0
  5  4  2  0  0  0  0
  6  1  2  0  0  0  0
  9 10  1  0  0  0  0
 10 11  2  0  0  0  0
 10 16  1  0  0  0  0
 11 12  1  0  0  0  0
 12 17  1  0  0  0  0
 12 13  2  0  0  0  0
 13 18  1  0  0  0  0
 14 13  1  0  0  0  0
 14 15  1  0  0  0  0
 16 14  2  0  0  0  0
 19 16  1  0  0  0  0
 20 28  1  0  0  0  0
 20  5  1  0  0  0  0
 21 20  2  0  0  0  0
 22 21  1  0  0  0  0
 23 21  1  0  0  0  0
 24 23  2  0  0  0  0
 24 26  1  0  0  0  0
 25 24  1  0  0  0  0
 26 27  1  0  0  0  0
 26 28  2  0  0  0  0
M  END
>  <minimizedAffinity>
-5.33204269

$$$$

 OpenBabel03242522243D

 28 30  0  0  0  0  0  0  0  0999 V2000
   36.9580   30.2660   41.7810 C   0  0  0  0  0  0  0  0  0  0  0  0
   36.1820   30.2350   40.6150 C   0  0  0  0  0  0  0  0  0  0  0  0
   35.9680   29.0740   39.8970 C   0  0  0  0  0  0  0  0  0  0  0  0
   36.5600   27.9530   40.3880 N   0  0  0  0  0  0  0  0  0  0  0  0
   37.3040   27.9870   41.5060 C   0  0  0  0  0  0  0  0  0  0  0  0
   37.4960   29.1140   42.1830 N   0  0  0  0  0  0  0  0  0  0  0  0
   37.0520   31.2340   42.2560 H   0  0  0  0  0  0  0  0  0  0  0  0
   35.7240   31.1700   40.2580 H   0  0  0  0  0  0  0  0  0  0  0  0
   37.5820   29.2290   37.4550 Cl  0  0  0  0  0  0  0  0  0  0  0  0
   35.8350   29.1140   37.4710 C   0  0  0  0  0  0  0  0  0  0  0  0
   35.1590   29.0450   38.6820 C   0  0  0  0  0  0  0  0  0  0  0  0
   33.7870   28.9570   38.6430 C   0  0  0  0  0  0  0  0  0  0  0  0
   33.0940   28.9360   37.4490 C   0  0  0  0  0  0  0  0  0  0  0  0
   33.8300   29.0080   36.2640 C   0  0  0  0  0  0  0  0  0  0  0  0
   32.9690   28.9830   34.7350 Cl  0  0  0  0  0  0  0  0  0  0  0  0
   35.1990   29.0980   36.2460 C   0  0  0  0  0  0  0  0  0  0  0  0
   33.2700   28.9040   39.5920 H   0  0  0  0  0  0  0  0  0  0  0  0
   32.0080   28.8650   37.4280 H   0  0  0  0  0  0  0  0  0  0  0  0
   35.7430   29.1530   35.3060 H   0  0  0  0  0  0  0  0  0  0  0  0
   37.9150   26.7240   41.9800 C   0  0  0  0  0  0  0  0  0  0  0  0
   37.3440   25.5220   41.6130 C   0  0  0  0  0  0  0  0  0  0  0  0
   36.4640   25.4620   40.9900 H   0  0  0  0  0  0  0  0  0  0  0  0
   37.9530   24.3760   42.0820 C   0  0  0  0  0  3  0  0  0  0  0  0
   39.0790   24.3570   42.8810 C   0  0  0  0  0  0  0  0  0  0  0  0
   39.5420   23.4510   43.2380 H   0  0  0  0  0  0  0  0  0  0  0  0
   39.6100   25.6090   43.2180 C   0  0  0  0  0  0  0  0  0  0  0  0
   40.4930   25.6440   43.8430 H   0  0  0  0  0  0  0  0  0  0  0  0
   39.0540   26.8150   42.7850 C   0  0  0  0  0  3  0  0  0  0  0  0
  1  6  1  0  0  0  0
  1  7  1  0  0  0  0
  2  1  2  0  0  0  0
  3  4  2  0  0  0  0
  3  2  1  0  0  0  0
  4  5  1  0  0  0  0
  5 20  1  0  0  0  0
  5  6  2  0  0  0  0
  8  2  1  0  0  0  0
  9 10  1  0  0  0  0
 10 11  1  0  0  0  0
 11  3  1  0  0  0  0
 12 11  2  0  0  0  0
 12 17  1  0  0  0  0
 13 12  1  0  0  0  0
 14 13  2  0  0  0  0
 15 14  1  0  0  0  0
 16 14  1  0  0  0  0
 16 10  2  0  0  0  0
 18 13  1  0  0  0  0
 19 16  1  0  0  0  0
 20 28  1  0  0  0  0
 21 20  2  0  0  0  0
 21 23  1  0  0  0  0
 22 21  1  0  0  0  0
 23 24  2  0  0  0  0
 24 26  1  0  0  0  0
 24 25  1  0  0  0  0
 26 27  1  0  0  0  0
 28 26  2  0  0  0  0
M  END
>  <minimizedAffinity>
-5.31855202

$$$$

 OpenBabel03242522243D

 28 30  0  0  0  0  0  0  0  0999 V2000
   37.2070   32.9580   39.8580 C   0  0  0  0  0  0  0  0  0  0  0  0
   38.5340   33.3540   39.6430 C   0  0  0  0  0  0  0  0  0  0  0  0
   39.6110   32.6160   40.0980 C   0  0  0  0  0  0  0  0  0  0  0  0
   39.3090   31.4760   40.7710 N   0  0  0  0  0  0  0  0  0  0  0  0
   38.0350   31.0990   40.9750 C   0  0  0  0  0  0  0  0  0  0  0  0
   37.0140   31.8230   40.5290 N   0  0  0  0  0  0  0  0  0  0  0  0
   36.4500   33.6180   39.4530 H   0  0  0  0  0  0  0  0  0  0  0  0
   38.7270   34.2870   39.0920 H   0  0  0  0  0  0  0  0  0  0  0  0
   40.6340   31.7850   37.4800 Cl  0  0  0  0  0  0  0  0  0  0  0  0
   41.5670   32.6840   38.6580 C   0  0  0  0  0  0  0  0  0  0  0  0
   40.9930   33.0320   39.8730 C   0  0  0  0  0  0  0  0  0  0  0  0
   41.7650   33.7380   40.7660 C   0  0  0  0  0  0  0  0  0  0  0  0
   43.0670   34.0930   40.4770 C   0  0  0  0  0  0  0  0  0  0  0  0
   43.5890   33.7150   39.2370 C   0  0  0  0  0  0  0  0  0  0  0  0
   45.2430   34.1560   38.8490 Cl  0  0  0  0  0  0  0  0  0  0  0  0
   42.8620   33.0100   38.3100 C   0  0  0  0  0  0  0  0  0  0  0  0
   41.3080   34.0040   41.7100 H   0  0  0  0  0  0  0  0  0  0  0  0
   43.6710   34.6520   41.1890 H   0  0  0  0  0  0  0  0  0  0  0  0
   43.2980   32.7300   37.3550 H   0  0  0  0  0  0  0  0  0  0  0  0
   37.7850   29.8420   41.7160 C   0  0  0  0  0  0  0  0  0  0  0  0
   36.6700   29.0890   41.4080 C   0  0  0  0  0  0  0  0  0  0  0  0
   35.9660   29.3810   40.6430 H   0  0  0  0  0  0  0  0  0  0  0  0
   36.4850   27.9270   42.1280 C   0  0  0  0  0  3  0  0  0  0  0  0
   37.3320   27.4780   43.1210 C   0  0  0  0  0  0  0  0  0  0  0  0
   37.1720   26.5660   43.6750 H   0  0  0  0  0  0  0  0  0  0  0  0
   38.4450   28.2860   43.3870 C   0  0  0  0  0  0  0  0  0  0  0  0
   39.1370   27.9730   44.1580 H   0  0  0  0  0  0  0  0  0  0  0  0
   38.7050   29.4760   42.7030 C   0  0  0  0  0  3  0  0  0  0  0  0
  1  6  1  0  0  0  0
  2  1  2  0  0  0  0
  2  3  1  0  0  0  0
  3  4  2  0  0  0  0
  4  5  1  0  0  0  0
  5 20  1  0  0  0  0
  6  5  2  0  0  0  0
  7  1  1  0  0  0  0
  8  2  1  0  0  0  0
  9 10  1  0  0  0  0
 10 11  1  0  0  0  0
 11  3  1  0  0  0  0
 11 12  2  0  0  0  0
 12 17  1  0  0  0  0
 13 12  1  0  0  0  0
 13 18  1  0  0  0  0
 14 13  2  0  0  0  0
 15 14  1  0  0  0  0
 16 10  2  0  0  0  0
 16 14  1  0  0  0  0
 19 16  1  0  0  0  0
 20 28  1  0  0  0  0
 21 20  2  0  0  0  0
 21 23  1  0  0  0  0
 22 21  1  0  0  0  0
 23 24  2  0  0  0  0
 24 26  1  0  0  0  0
 24 25  1  0  0  0  0
 26 27  1  0  0  0  0
 28 26  2  0  0  0  0
M  END
>  <minimizedAffinity>
-5.30517864

$$$$

 OpenBabel03242522243D

 28 30  0  0  0  0  0  0  0  0999 V2000
   37.8730   32.0930   40.5290 C   0  0  0  0  0  0  0  0  0  0  0  0
   37.1500   31.6080   39.4320 C   0  0  0  0  0  0  0  0  0  0  0  0
   37.0260   30.2570   39.1640 C   0  0  0  0  0  0  0  0  0  0  0  0
   37.6500   29.4190   40.0310 N   0  0  0  0  0  0  0  0  0  0  0  0
   38.3440   29.8880   41.0830 C   0  0  0  0  0  0  0  0  0  0  0  0
   38.4500   31.1900   41.3230 N   0  0  0  0  0  0  0  0  0  0  0  0
   37.8980   33.1700   40.6350 H   0  0  0  0  0  0  0  0  0  0  0  0
   36.6620   32.3270   38.7580 H   0  0  0  0  0  0  0  0  0  0  0  0
   34.3980   29.1960   39.9140 Cl  0  0  0  0  0  0  0  0  0  0  0  0
   35.0110   29.2310   38.2740 C   0  0  0  0  0  0  0  0  0  0  0  0
   36.2720   29.7550   38.0190 C   0  0  0  0  0  0  0  0  0  0  0  0
   36.7100   29.7600   36.7150 C   0  0  0  0  0  0  0  0  0  0  0  0
   35.9340   29.2650   35.6860 C   0  0  0  0  0  0  0  0  0  0  0  0
   34.6750   28.7510   36.0060 C   0  0  0  0  0  0  0  0  0  0  0  0
   33.6710   28.1150   34.7130 Cl  0  0  0  0  0  0  0  0  0  0  0  0
   34.1890   28.7210   37.2890 C   0  0  0  0  0  0  0  0  0  0  0  0
   37.6930   30.1710   36.5280 H   0  0  0  0  0  0  0  0  0  0  0  0
   36.2880   29.2730   34.6570 H   0  0  0  0  0  0  0  0  0  0  0  0
   33.2050   28.3140   37.5050 H   0  0  0  0  0  0  0  0  0  0  0  0
   38.9960   28.9120   41.9850 C   0  0  0  0  0  0  0  0  0  0  0  0
   38.2180   27.9790   42.6420 C   0  0  0  0  0  0  0  0  0  0  0  0
   37.1450   27.9310   42.5250 H   0  0  0  0  0  0  0  0  0  0  0  0
   38.8760   27.0930   43.4700 C   0  0  0  0  0  3  0  0  0  0  0  0
   40.2400   27.0810   43.6790 C   0  0  0  0  0  0  0  0  0  0  0  0
   40.7380   26.3800   44.3300 H   0  0  0  0  0  0  0  0  0  0  0  0
   40.9730   28.0510   42.9840 C   0  0  0  0  0  0  0  0  0  0  0  0
   42.0470   28.0800   43.1160 H   0  0  0  0  0  0  0  0  0  0  0  0
   40.3840   28.9840   42.1270 C   0  0  0  0  0  3  0  0  0  0  0  0
  1  7  1  0  0  0  0
  1  6  1  0  0  0  0
  2  1  2  0  0  0  0
  3  2  1  0  0  0  0
  3  4  2  0  0  0  0
  4  5  1  0  0  0  0
  5  6  2  0  0  0  0
  5 20  1  0  0  0  0
  8  2  1  0  0  0  0
 10  9  1  0  0  0  0
 11 10  1  0  0  0  0
 11  3  1  0  0  0  0
 12 11  2  0  0  0  0
 13 14  2  0  0  0  0
 13 12  1  0  0  0  0
 14 16  1  0  0  0  0
 15 14  1  0  0  0  0
 16 19  1  0  0  0  0
 16 10  2  0  0  0  0
 17 12  1  0  0  0  0
 18 13  1  0  0  0  0
 20 28  2  0  0  0  0
 20 21  1  0  0  0  0
 21 23  2  0  0  0  0
 22 21  1  0  0  0  0
 23 24  1  0  0  0  0
 24 25  1  0  0  0  0
 26 27  1  0  0  0  0
 26 24  2  0  0  0  0
 28 26  1  0  0  0  0
M  END
>  <minimizedAffinity>
-5.26964855

$$$$

 OpenBabel03242522243D

 28 30  0  0  0  0  0  0  0  0999 V2000
   35.5380   29.1150   37.7100 C   0  0  0  0  0  0  0  0  0  0  0  0
   36.5800   30.0510   37.6780 C   0  0  0  0  0  0  0  0  0  0  0  0
   37.6800   29.9640   38.5120 C   0  0  0  0  0  0  0  0  0  0  0  0
   37.6930   28.9130   39.3720 N   0  0  0  0  0  0  0  0  0  0  0  0
   36.6910   28.0180   39.4000 C   0  0  0  0  0  0  0  0  0  0  0  0
   35.6440   28.1180   38.5890 N   0  0  0  0  0  0  0  0  0  0  0  0
   34.7320   29.2880   37.0090 H   0  0  0  0  0  0  0  0  0  0  0  0
   36.5230   30.8850   36.9630 H   0  0  0  0  0  0  0  0  0  0  0  0
   37.2210   32.2330   40.3110 Cl  0  0  0  0  0  0  0  0  0  0  0  0
   38.6380   32.0550   39.2970 C   0  0  0  0  0  0  0  0  0  0  0  0
   38.7640   30.9420   38.4760 C   0  0  0  0  0  0  0  0  0  0  0  0
   39.8940   30.8460   37.6980 C   0  0  0  0  0  0  0  0  0  0  0  0
   40.8760   31.8170   37.7220 C   0  0  0  0  0  0  0  0  0  0  0  0
   40.6920   32.9120   38.5680 C   0  0  0  0  0  0  0  0  0  0  0  0
   41.9280   34.1580   38.6140 Cl  0  0  0  0  0  0  0  0  0  0  0  0
   39.5840   33.0570   39.3650 C   0  0  0  0  0  0  0  0  0  0  0  0
   39.9820   29.9750   37.0630 H   0  0  0  0  0  0  0  0  0  0  0  0
   41.7680   31.7330   37.1030 H   0  0  0  0  0  0  0  0  0  0  0  0
   39.4700   33.9230   40.0120 H   0  0  0  0  0  0  0  0  0  0  0  0
   36.7780   26.8980   40.3640 C   0  0  0  0  0  0  0  0  0  0  0  0
   37.0050   27.1740   41.6970 C   0  0  0  0  0  0  0  0  0  0  0  0
   37.1240   28.1810   42.0700 H   0  0  0  0  0  0  0  0  0  0  0  0
   37.0770   26.0940   42.5530 C   0  0  0  0  0  3  0  0  0  0  0  0
   36.9380   24.7770   42.1650 C   0  0  0  0  0  0  0  0  0  0  0  0
   36.9960   23.9440   42.8490 H   0  0  0  0  0  0  0  0  0  0  0  0
   36.7090   24.5620   40.8010 C   0  0  0  0  0  0  0  0  0  0  0  0
   36.5930   23.5450   40.4500 H   0  0  0  0  0  0  0  0  0  0  0  0
   36.6230   25.6000   39.8690 C   0  0  0  0  0  3  0  0  0  0  0  0
  1  6  1  0  0  0  0
  2  1  2  0  0  0  0
  2  3  1  0  0  0  0
  3  4  2  0  0  0  0
  4  5  1  0  0  0  0
  5 20  1  0  0  0  0
  6  5  2  0  0  0  0
  7  1  1  0  0  0  0
  8  2  1  0  0  0  0
 10 16  1  0  0  0  0
 10  9  1  0  0  0  0
 11  3  1  0  0  0  0
 11 10  2  0  0  0  0
 12 13  2  0  0  0  0
 12 11  1  0  0  0  0
 13 14  1  0  0  0  0
 14 15  1  0  0  0  0
 14 16  2  0  0  0  0
 16 19  1  0  0  0  0
 17 12  1  0  0  0  0
 18 13  1  0  0  0  0
 20 21  1  0  0  0  0
 21 22  1  0  0  0  0
 21 23  2  0  0  0  0
 24 23  1  0  0  0  0
 24 25  1  0  0  0  0
 26 24  2  0  0  0  0
 27 26  1  0  0  0  0
 28 20  2  0  0  0  0
 28 26  1  0  0  0  0
M  END
>  <minimizedAffinity>
-5.22362328

$$$$

 OpenBabel03242522243D

 28 30  0  0  0  0  0  0  0  0999 V2000
   37.3080   28.1230   43.6800 C   0  0  0  0  0  0  0  0  0  0  0  0
   37.8350   29.2760   43.0840 C   0  0  0  0  0  0  0  0  0  0  0  0
   38.0390   29.3790   41.7200 C   0  0  0  0  0  0  0  0  0  0  0  0
   37.6990   28.2890   40.9840 N   0  0  0  0  0  0  0  0  0  0  0  0
   37.1950   27.1850   41.5590 C   0  0  0  0  0  0  0  0  0  0  0  0
   37.0050   27.1060   42.8720 N   0  0  0  0  0  0  0  0  0  0  0  0
   37.1930   28.1620   44.7550 H   0  0  0  0  0  0  0  0  0  0  0  0
   38.0940   30.1330   43.7230 H   0  0  0  0  0  0  0  0  0  0  0  0
   40.9590   29.2980   41.4780 Cl  0  0  0  0  0  0  0  0  0  0  0  0
   39.9670   30.6380   40.9440 C   0  0  0  0  0  0  0  0  0  0  0  0
   38.5880   30.5830   41.1020 C   0  0  0  0  0  0  0  0  0  0  0  0
   37.8510   31.6600   40.6680 C   0  0  0  0  0  0  0  0  0  0  0  0
   38.4480   32.7640   40.0930 C   0  0  0  0  0  0  0  0  0  0  0  0
   39.8390   32.7610   39.9600 C   0  0  0  0  0  0  0  0  0  0  0  0
   40.6190   34.1550   39.2320 Cl  0  0  0  0  0  0  0  0  0  0  0  0
   40.6220   31.7130   40.3770 C   0  0  0  0  0  0  0  0  0  0  0  0
   36.7790   31.6060   40.7970 H   0  0  0  0  0  0  0  0  0  0  0  0
   37.8580   33.6120   39.7520 H   0  0  0  0  0  0  0  0  0  0  0  0
   41.7020   31.7420   40.2600 H   0  0  0  0  0  0  0  0  0  0  0  0
   36.8470   26.0380   40.6900 C   0  0  0  0  0  0  0  0  0  0  0  0
   36.8660   24.7630   41.2190 C   0  0  0  0  0  0  0  0  0  0  0  0
   37.1270   24.5640   42.2480 H   0  0  0  0  0  0  0  0  0  0  0  0
   36.5340   23.7300   40.3650 C   0  0  0  0  0  3  0  0  0  0  0  0
   36.1890   23.8910   39.0390 C   0  0  0  0  0  0  0  0  0  0  0  0
   35.9300   23.0720   38.3860 H   0  0  0  0  0  0  0  0  0  0  0  0
   36.1870   25.2080   38.5630 C   0  0  0  0  0  0  0  0  0  0  0  0
   35.9230   25.3830   37.5280 H   0  0  0  0  0  0  0  0  0  0  0  0
   36.5110   26.3080   39.3600 C   0  0  0  0  0  3  0  0  0  0  0  0
  1  7  1  0  0  0  0
  2  1  1  0  0  0  0
  2  8  1  0  0  0  0
  3  2  2  0  0  0  0
  4  5  2  0  0  0  0
  4  3  1  0  0  0  0
  5  6  1  0  0  0  0
  6  1  2  0  0  0  0
 10 11  1  0  0  0  0
 10  9  1  0  0  0  0
 11  3  1  0  0  0  0
 12 17  1  0  0  0  0
 12 11  2  0  0  0  0
 13 12  1  0  0  0  0
 14 13  2  0  0  0  0
 14 16  1  0  0  0  0
 15 14  1  0  0  0  0
 16 10  2  0  0  0  0
 18 13  1  0  0  0  0
 19 16  1  0  0  0  0
 20 21  1  0  0  0  0
 20  5  1  0  0  0  0
 21 22  1  0  0  0  0
 23 21  2  0  0  0  0
 24 23  1  0  0  0  0
 25 24  1  0  0  0  0
 26 24  2  0  0  0  0
 26 28  1  0  0  0  0
 27 26  1  0  0  0  0
 28 20  2  0  0  0  0
M  END
>  <minimizedAffinity>
-5.12549686

$$$$

 OpenBabel03242522243D

 28 30  0  0  0  0  0  0  0  0999 V2000
   36.7800   29.8330   37.7920 C   0  0  0  0  0  0  0  0  0  0  0  0
   37.9390   30.5810   37.5500 C   0  0  0  0  0  0  0  0  0  0  0  0
   38.9480   30.7100   38.4860 C   0  0  0  0  0  0  0  0  0  0  0  0
   38.7500   30.0660   39.6660 N   0  0  0  0  0  0  0  0  0  0  0  0
   37.6360   29.3500   39.8950 C   0  0  0  0  0  0  0  0  0  0  0  0
   36.6790   29.2380   38.9810 N   0  0  0  0  0  0  0  0  0  0  0  0
   36.0620   29.8060   36.9820 H   0  0  0  0  0  0  0  0  0  0  0  0
   38.0530   31.0850   36.5780 H   0  0  0  0  0  0  0  0  0  0  0  0
   38.9630   33.2740   39.9060 Cl  0  0  0  0  0  0  0  0  0  0  0  0
   40.2550   32.7240   38.8600 C   0  0  0  0  0  0  0  0  0  0  0  0
   40.1560   31.4900   38.2310 C   0  0  0  0  0  0  0  0  0  0  0  0
   41.1960   31.1010   37.4190 C   0  0  0  0  0  0  0  0  0  0  0  0
   42.3060   31.9000   37.2280 C   0  0  0  0  0  0  0  0  0  0  0  0
   42.3480   33.1290   37.8890 C   0  0  0  0  0  0  0  0  0  0  0  0
   43.7500   34.1610   37.6610 Cl  0  0  0  0  0  0  0  0  0  0  0  0
   41.3380   33.5660   38.7100 C   0  0  0  0  0  0  0  0  0  0  0  0
   41.1070   30.1380   36.9330 H   0  0  0  0  0  0  0  0  0  0  0  0
   43.1240   31.5840   36.5850 H   0  0  0  0  0  0  0  0  0  0  0  0
   41.4010   34.5300   39.2090 H   0  0  0  0  0  0  0  0  0  0  0  0
   37.4930   28.6750   41.2050 C   0  0  0  0  0  0  0  0  0  0  0  0
   37.0390   27.3720   41.2440 C   0  0  0  0  0  0  0  0  0  0  0  0
   36.7810   26.8190   40.3530 H   0  0  0  0  0  0  0  0  0  0  0  0
   36.9240   26.7900   42.4910 C   0  0  0  0  0  3  0  0  0  0  0  0
   37.2310   27.4190   43.6800 C   0  0  0  0  0  0  0  0  0  0  0  0
   37.1360   26.9490   44.6460 H   0  0  0  0  0  0  0  0  0  0  0  0
   37.6870   28.7390   43.5730 C   0  0  0  0  0  0  0  0  0  0  0  0
   37.9400   29.2730   44.4800 H   0  0  0  0  0  0  0  0  0  0  0  0
   37.8320   29.4000   42.3510 C   0  0  0  0  0  3  0  0  0  0  0  0
  1  6  1  0  0  0  0
  2  1  2  0  0  0  0
  2  3  1  0  0  0  0
  3  4  2  0  0  0  0
  4  5  1  0  0  0  0
  5 20  1  0  0  0  0
  6  5  2  0  0  0  0
  7  1  1  0  0  0  0
  8  2  1  0  0  0  0
 10  9  1  0  0  0  0
 11  3  1  0  0  0  0
 11 10  2  0  0  0  0
 12 11  1  0  0  0  0
 13 12  2  0  0  0  0
 13 14  1  0  0  0  0
 14 16  2  0  0  0  0
 15 14  1  0  0  0  0
 16 10  1  0  0  0  0
 16 19  1  0  0  0  0
 17 12  1  0  0  0  0
 18 13  1  0  0  0  0
 20 21  2  0  0  0  0
 20 28  1  0  0  0  0
 21 23  1  0  0  0  0
 22 21  1  0  0  0  0
 23 24  2  0  0  0  0
 24 25  1  0  0  0  0
 26 24  1  0  0  0  0
 26 27  1  0  0  0  0
 28 26  2  0  0  0  0
M  END
>  <minimizedAffinity>
-5.11139154

$$$$
