
 OpenBabel03242518523D

 39 41  0  0  1  0  0  0  0  0999 V2000
   46.5170   31.9380   47.2520 C   0  0  2  0  0  0  0  0  0  0  0  0
   47.7030   32.3450   48.1140 C   0  0  0  0  0  0  0  0  0  0  0  0
   48.3250   31.0600   48.5280 C   0  0  0  0  0  0  0  0  0  0  0  0
   47.8790   29.8020   47.8470 C   0  0  0  0  0  0  0  0  0  0  0  0
   47.9360   30.1380   46.3690 C   0  0  0  0  0  0  0  0  0  0  0  0
   46.8700   31.0960   46.1220 C   0  0  1  0  0  0  0  0  0  0  0  0
   45.9820   31.3200   48.0360 H   0  0  0  0  0  0  0  0  0  0  0  0
   47.3380   32.9730   48.9510 H   0  0  0  0  0  0  0  0  0  0  0  0
   48.4210   32.9410   47.5060 H   0  0  0  0  0  0  0  0  0  0  0  0
   48.0640   30.9210   49.6180 H   0  0  0  0  0  0  0  0  0  0  0  0
   49.4290   31.1250   48.4930 H   0  0  0  0  0  0  0  0  0  0  0  0
   46.8840   29.4380   48.1580 H   0  0  0  0  0  0  0  0  0  0  0  0
   48.6700   29.0450   48.0370 H   0  0  0  0  0  0  0  0  0  0  0  0
   47.9690   29.1700   45.8920 H   0  0  0  0  0  0  0  0  0  0  0  0
   49.0080   30.5070   46.2850 H   0  0  0  0  0  0  0  0  0  0  0  0
   47.4290   31.5320   45.2700 H   0  0  0  0  0  0  0  0  0  0  0  0
   45.7820   30.1200   45.8020 C   0  0  0  0  0  0  0  0  0  0  0  0
   45.4440   29.7500   44.5190 C   0  0  0  0  0  0  0  0  0  0  0  0
   45.9730   30.1410   43.6700 H   0  0  0  0  0  0  0  0  0  0  0  0
   44.4360   28.8680   44.1890 C   0  0  0  0  0  0  0  0  0  0  0  0
   43.6940   28.2990   45.1770 C   0  0  0  0  0  0  0  0  0  0  0  0
   42.9030   27.6100   44.9420 H   0  0  0  0  0  0  0  0  0  0  0  0
   43.9760   28.6230   46.4700 C   0  0  0  0  0  0  0  0  0  0  0  0
   43.3700   28.1540   47.2370 H   0  0  0  0  0  0  0  0  0  0  0  0
   44.9930   29.5090   46.7530 C   0  0  0  0  0  0  0  0  0  0  0  0
   45.6330   33.0470   46.8970 C   0  0  0  0  0  0  0  0  0  0  0  0
   44.7090   33.4480   47.6590 O   0  0  0  0  0  0  0  0  0  0  0  0
   45.0990   35.2590   44.0430 C   0  0  0  0  0  0  0  0  0  0  0  0
   46.1710   34.9730   43.1660 C   0  0  0  0  0  0  0  0  0  0  0  0
   47.0740   34.0010   43.6020 C   0  0  0  0  0  0  0  0  0  0  0  0
   46.8200   33.4560   44.7980 N   0  0  0  0  0  0  0  0  0  0  0  0
   45.8250   33.7270   45.6070 C   0  0  0  0  0  0  0  0  0  0  0  0
   44.9390   34.6630   45.2090 N   0  0  0  0  0  0  0  0  0  0  0  0
   44.3890   35.9980   43.7370 H   0  0  0  0  0  0  0  0  0  0  0  0
   46.3250   35.4450   42.2080 H   0  0  0  0  0  0  0  0  0  0  0  0
   48.2120   33.7120   42.7250 C   0  0  0  0  0  0  0  0  0  0  0  0
   48.8180   32.5330   43.1210 F   0  0  0  0  0  0  0  0  0  0  0  0
   49.1760   34.6640   43.0760 F   0  0  0  0  0  0  0  0  0  0  0  0
   47.9120   33.7210   41.4170 F   0  0  0  0  0  0  0  0  0  0  0  0
  1  7  1  1  0  0  0
  1  2  1  0  0  0  0
  2  3  1  0  0  0  0
  2  8  1  0  0  0  0
  3 10  1  0  0  0  0
  4 13  1  0  0  0  0
  4 12  1  0  0  0  0
  4  3  1  0  0  0  0
  5  4  1  0  0  0  0
  6 16  1  6  0  0  0
  6  5  1  0  0  0  0
  6  1  1  0  0  0  0
  9  2  1  0  0  0  0
 11  3  1  0  0  0  0
 14  5  1  0  0  0  0
 15  5  1  0  0  0  0
 17  6  1  0  0  0  0
 17 25  1  0  0  0  0
 18 17  2  0  0  0  0
 19 18  1  0  0  0  0
 20 18  1  0  0  0  0
 20 21  2  0  0  0  0
 21 23  1  0  0  0  0
 22 21  1  0  0  0  0
 23 25  2  0  0  0  0
 23 24  1  0  0  0  0
 26  1  1  0  0  0  0
 26 27  2  0  0  0  0
 28 33  1  0  0  0  0
 29 30  1  0  0  0  0
 29 28  2  0  0  0  0
 30 31  2  0  0  0  0
 31 32  1  0  0  0  0
 32 26  1  0  0  0  0
 33 32  2  0  0  0  0
 34 28  1  0  0  0  0
 35 29  1  0  0  0  0
 36 38  1  0  0  0  0
 36 37  1  0  0  0  0
 36 30  1  0  0  0  0
 39 36  1  0  0  0  0
M  END
>  <minimizedAffinity>
-5.6389246

>  <minimizedRMSD>
1.97417629

$$$$
