
 OpenBabel03252501263D

 35 38  0  0  0  0  0  0  0  0999 V2000
   46.3290   33.0230   45.1510 F   0  0  0  0  0  0  0  0  0  0  0  0
   45.9170   31.8230   44.7210 C   0  0  0  0  0  0  0  0  0  0  0  0
   45.2520   31.7300   43.5260 C   0  0  0  0  0  0  0  0  0  0  0  0
   44.8190   30.4850   43.0690 C   0  0  0  0  0  0  0  0  0  0  0  0
   45.0300   29.3300   43.7680 C   0  0  0  0  0  0  0  0  0  0  0  0
   45.7000   29.4520   44.9630 C   0  0  0  0  0  0  0  0  0  0  0  0
   46.1440   30.6640   45.4510 C   0  0  0  0  0  0  0  0  0  0  0  0
   44.2850   30.3790   42.1190 H   0  0  0  0  0  0  0  0  0  0  0  0
   44.6940   28.3520   43.4180 H   0  0  0  0  0  0  0  0  0  0  0  0
   45.9020   28.5730   45.5740 H   0  0  0  0  0  0  0  0  0  0  0  0
   46.8490   30.7180   46.7290 C   0  0  0  0  0  0  0  0  0  0  0  0
   48.1440   30.2840   46.9210 C   0  0  0  0  0  0  0  0  0  0  0  0
   48.6710   29.8800   46.0710 H   0  0  0  0  0  0  0  0  0  0  0  0
   48.6970   30.3930   48.1870 C   0  0  0  0  0  0  0  0  0  0  0  0
   47.9260   30.9330   49.2160 C   0  0  0  0  0  0  0  0  0  0  0  0
   48.3610   31.0150   50.2000 H   0  0  0  0  0  0  0  0  0  0  0  0
   46.6310   31.3650   49.0190 C   0  0  0  0  0  0  0  0  0  0  0  0
   46.0400   31.7850   49.8340 H   0  0  0  0  0  0  0  0  0  0  0  0
   46.0780   31.2590   47.7620 C   0  0  0  0  0  0  0  0  0  0  0  0
   43.6970   34.1510   41.4980 C   0  0  0  0  0  0  0  0  0  0  0  0
   45.0220   34.5740   41.4380 C   0  0  0  0  0  0  0  0  0  0  0  0
   45.7920   33.7370   42.1810 C   0  0  0  0  0  0  0  0  0  0  0  0
   44.9570   32.8100   42.6950 N   0  0  0  0  0  0  0  0  0  0  0  0
   43.6990   33.0630   42.2800 N   0  0  0  0  0  0  0  0  0  0  0  0
   45.4220   35.4230   40.9010 H   0  0  0  0  0  0  0  0  0  0  0  0
   46.8540   33.7320   42.3810 H   0  0  0  0  0  0  0  0  0  0  0  0
   40.5910   35.9950   40.9440 C   0  0  0  0  0  0  0  0  0  0  0  0
   40.4710   35.9910   39.5500 C   0  0  0  0  0  0  0  0  0  0  0  0
   41.4710   35.3460   38.7960 C   0  0  0  0  0  0  0  0  0  0  0  0
   42.4720   34.7810   39.5120 N   0  0  0  0  0  0  0  0  0  0  0  0
   42.5820   34.7880   40.8340 C   0  0  0  0  0  0  0  0  0  0  0  0
   41.6290   35.4030   41.5680 N   0  0  0  0  0  0  0  0  0  0  0  0
   39.8340   36.4860   41.5630 H   0  0  0  0  0  0  0  0  0  0  0  0
   39.6460   36.4640   39.0760 H   0  0  0  0  0  0  0  0  0  0  0  0
   41.4280   35.3130   37.7150 H   0  0  0  0  0  0  0  0  0  0  0  0
  2  1  1  0  0  0  0
  2  7  1  0  0  0  0
  3  2  2  0  0  0  0
  4  3  1  0  0  0  0
  4  5  2  0  0  0  0
  5  6  1  0  0  0  0
  6  7  2  0  0  0  0
  6 10  1  0  0  0  0
  7 11  1  0  0  0  0
  8  4  1  0  0  0  0
  9  5  1  0  0  0  0
 11 12  2  0  0  0  0
 11 19  1  0  0  0  0
 12 14  1  0  0  0  0
 13 12  1  0  0  0  0
 14 15  2  0  0  0  0
 15 16  1  0  0  0  0
 17 15  1  0  0  0  0
 17 18  1  0  0  0  0
 19 17  2  0  0  0  0
 20 24  2  0  0  0  0
 21 20  1  0  0  0  0
 21 22  2  0  0  0  0
 22 26  1  0  0  0  0
 22 23  1  0  0  0  0
 23  3  1  0  0  0  0
 24 23  1  0  0  0  0
 25 21  1  0  0  0  0
 27 33  1  0  0  0  0
 27 32  1  0  0  0  0
 28 27  2  0  0  0  0
 29 30  2  0  0  0  0
 29 28  1  0  0  0  0
 30 31  1  0  0  0  0
 31 20  1  0  0  0  0
 31 32  2  0  0  0  0
 34 28  1  0  0  0  0
 35 29  1  0  0  0  0
M  END
>  <minimizedAffinity>
-5.19944906

>  <minimizedRMSD>
8.40926933

$$$$
