
 OpenBabel03252506033D

 28 30  0  0  0  0  0  0  0  0999 V2000
   37.7240   32.1650   36.4040 Cl  0  0  0  0  0  0  0  0  0  0  0  0
   37.8010   31.1800   37.8300 C   0  0  0  0  0  0  0  0  0  0  0  0
   38.8710   31.2850   38.6910 C   0  0  0  0  0  0  0  0  0  0  0  0
   38.8290   30.4590   39.7830 C   0  0  0  0  0  0  0  0  0  0  0  0
   37.8420   29.5570   40.0930 C   0  0  0  0  0  0  0  0  0  0  0  0
   36.7840   29.4800   39.2070 C   0  0  0  0  0  0  0  0  0  0  0  0
   35.5150   28.3470   39.6020 Cl  0  0  0  0  0  0  0  0  0  0  0  0
   36.7620   30.2850   38.0820 C   0  0  0  0  0  0  0  0  0  0  0  0
   39.6820   30.5390   40.4760 H   0  0  0  0  0  0  0  0  0  0  0  0
   35.9170   30.2020   37.4020 H   0  0  0  0  0  0  0  0  0  0  0  0
   41.0850   34.1610   39.1090 C   0  0  0  0  0  0  0  0  0  0  0  0
   42.0210   33.9850   38.0740 C   0  0  0  0  0  0  0  0  0  0  0  0
   41.8870   32.8670   37.2300 C   0  0  0  0  0  0  0  0  0  0  0  0
   40.8520   32.0160   37.4640 N   0  0  0  0  0  0  0  0  0  0  0  0
   39.9680   32.2060   38.4600 C   0  0  0  0  0  0  0  0  0  0  0  0
   40.0890   33.2770   39.2780 N   0  0  0  0  0  0  0  0  0  0  0  0
   41.2460   35.0380   39.7210 H   0  0  0  0  0  0  0  0  0  0  0  0
   42.8460   34.6270   37.8560 H   0  0  0  0  0  0  0  0  0  0  0  0
   42.5630   32.6590   36.4110 H   0  0  0  0  0  0  0  0  0  0  0  0
   37.9710   28.7570   41.3100 C   0  0  0  0  0  0  0  0  0  0  0  0
   37.4600   29.1350   42.5360 C   0  0  0  0  0  0  0  0  0  0  0  0
   36.9320   30.0760   42.6130 H   0  0  0  0  0  0  0  0  0  0  0  0
   37.5900   28.3710   43.6770 C   0  0  0  0  0  3  0  0  0  0  0  0
   38.2740   27.1790   43.5200 C   0  0  0  0  0  0  0  0  0  0  0  0
   38.3860   26.5620   44.4120 H   0  0  0  0  0  0  0  0  0  0  0  0
   38.8170   26.7230   42.3360 C   0  0  0  0  0  0  0  0  0  0  0  0
   39.3390   25.7740   42.3070 H   0  0  0  0  0  0  0  0  0  0  0  0
   38.6560   27.5370   41.2170 C   0  0  0  0  0  3  0  0  0  0  0  0
  1  2  1  0  0  0  0
  2  8  2  0  0  0  0
  2  3  1  0  0  0  0
  3  4  2  0  0  0  0
  4  5  1  0  0  0  0
  4  9  1  0  0  0  0
  5 20  1  0  0  0  0
  6  7  1  0  0  0  0
  6  5  2  0  0  0  0
  8  6  1  0  0  0  0
 10  8  1  0  0  0  0
 11 16  1  0  0  0  0
 11 17  1  0  0  0  0
 12 11  2  0  0  0  0
 13 14  2  0  0  0  0
 13 12  1  0  0  0  0
 14 15  1  0  0  0  0
 15  3  1  0  0  0  0
 15 16  2  0  0  0  0
 18 12  1  0  0  0  0
 19 13  1  0  0  0  0
 20 21  1  0  0  0  0
 21 22  1  0  0  0  0
 21 23  2  0  0  0  0
 24 23  1  0  0  0  0
 24 25  1  0  0  0  0
 26 24  2  0  0  0  0
 27 26  1  0  0  0  0
 28 20  2  0  0  0  0
 28 26  1  0  0  0  0
M  END
>  <minimizedAffinity>
-5.15968513

$$$$

 OpenBabel03252506033D

 28 30  0  0  0  0  0  0  0  0999 V2000
   37.6710   32.0040   36.5550 Cl  0  0  0  0  0  0  0  0  0  0  0  0
   37.5210   30.8040   37.8000 C   0  0  0  0  0  0  0  0  0  0  0  0
   38.2390   30.9220   38.9700 C   0  0  0  0  0  0  0  0  0  0  0  0
   38.0440   29.9170   39.8810 C   0  0  0  0  0  0  0  0  0  0  0  0
   37.2200   28.8300   39.7410 C   0  0  0  0  0  0  0  0  0  0  0  0
   36.5150   28.7450   38.5550 C   0  0  0  0  0  0  0  0  0  0  0  0
   35.4490   27.3740   38.3750 Cl  0  0  0  0  0  0  0  0  0  0  0  0
   36.6630   29.7260   37.5890 C   0  0  0  0  0  0  0  0  0  0  0  0
   38.6160   30.0070   40.8190 H   0  0  0  0  0  0  0  0  0  0  0  0
   36.0970   29.6320   36.6650 H   0  0  0  0  0  0  0  0  0  0  0  0
   39.4600   34.1440   40.1820 C   0  0  0  0  0  0  0  0  0  0  0  0
   40.7920   34.1610   39.7300 C   0  0  0  0  0  0  0  0  0  0  0  0
   41.2690   33.0540   39.0040 C   0  0  0  0  0  0  0  0  0  0  0  0
   40.4090   32.0250   38.7790 N   0  0  0  0  0  0  0  0  0  0  0  0
   39.1390   32.0320   39.2220 C   0  0  0  0  0  0  0  0  0  0  0  0
   38.6700   33.0900   39.9210 N   0  0  0  0  0  0  0  0  0  0  0  0
   39.1570   35.0240   40.7350 H   0  0  0  0  0  0  0  0  0  0  0  0
   41.4980   34.9470   39.8850 H   0  0  0  0  0  0  0  0  0  0  0  0
   42.2790   32.9890   38.6210 H   0  0  0  0  0  0  0  0  0  0  0  0
   37.1430   27.8550   40.8280 C   0  0  0  0  0  0  0  0  0  0  0  0
   37.5630   26.5450   40.7160 C   0  0  0  0  0  0  0  0  0  0  0  0
   37.9750   26.2080   39.7740 H   0  0  0  0  0  0  0  0  0  0  0  0
   37.4840   25.6350   41.7500 C   0  0  0  0  0  3  0  0  0  0  0  0
   36.9490   26.1200   42.9300 C   0  0  0  0  0  0  0  0  0  0  0  0
   36.8790   25.4140   43.7570 H   0  0  0  0  0  0  0  0  0  0  0  0
   36.5050   27.4110   43.1300 C   0  0  0  0  0  0  0  0  0  0  0  0
   36.0980   27.7030   44.0910 H   0  0  0  0  0  0  0  0  0  0  0  0
   36.6080   28.2860   42.0510 C   0  0  0  0  0  3  0  0  0  0  0  0
  1  2  1  0  0  0  0
  2  3  1  0  0  0  0
  3 15  1  0  0  0  0
  3  4  2  0  0  0  0
  4  9  1  0  0  0  0
  5  4  1  0  0  0  0
  5 20  1  0  0  0  0
  6  5  2  0  0  0  0
  7  6  1  0  0  0  0
  8  2  2  0  0  0  0
  8  6  1  0  0  0  0
 10  8  1  0  0  0  0
 11 17  1  0  0  0  0
 12 18  1  0  0  0  0
 12 11  2  0  0  0  0
 13 12  1  0  0  0  0
 14 13  2  0  0  0  0
 14 15  1  0  0  0  0
 15 16  2  0  0  0  0
 16 11  1  0  0  0  0
 19 13  1  0  0  0  0
 20 28  1  0  0  0  0
 21 20  2  0  0  0  0
 21 23  1  0  0  0  0
 22 21  1  0  0  0  0
 23 24  2  0  0  0  0
 24 26  1  0  0  0  0
 24 25  1  0  0  0  0
 26 27  1  0  0  0  0
 28 26  2  0  0  0  0
M  END
>  <minimizedAffinity>
-5.13360023

$$$$

 OpenBabel03252506033D

 28 30  0  0  0  0  0  0  0  0999 V2000
   40.0540   30.9700   42.8250 Cl  0  0  0  0  0  0  0  0  0  0  0  0
   39.5580   29.3810   42.3350 C   0  0  0  0  0  0  0  0  0  0  0  0
   38.8020   29.2080   41.1970 C   0  0  0  0  0  0  0  0  0  0  0  0
   38.4670   27.9120   40.9070 C   0  0  0  0  0  0  0  0  0  0  0  0
   38.8060   26.7950   41.6280 C   0  0  0  0  0  0  0  0  0  0  0  0
   39.5660   27.0070   42.7630 C   0  0  0  0  0  0  0  0  0  0  0  0
   40.0180   25.5890   43.6770 Cl  0  0  0  0  0  0  0  0  0  0  0  0
   39.9410   28.2910   43.1160 C   0  0  0  0  0  0  0  0  0  0  0  0
   37.8620   27.7670   39.9970 H   0  0  0  0  0  0  0  0  0  0  0  0
   40.5380   28.4280   44.0150 H   0  0  0  0  0  0  0  0  0  0  0  0
   36.8480   32.0420   39.9730 C   0  0  0  0  0  0  0  0  0  0  0  0
   37.5550   32.4310   38.8210 C   0  0  0  0  0  0  0  0  0  0  0  0
   38.7110   31.7130   38.4670 C   0  0  0  0  0  0  0  0  0  0  0  0
   39.0810   30.6740   39.2640 N   0  0  0  0  0  0  0  0  0  0  0  0
   38.3890   30.3200   40.3610 C   0  0  0  0  0  0  0  0  0  0  0  0
   37.2760   31.0050   40.7110 N   0  0  0  0  0  0  0  0  0  0  0  0
   35.9700   32.6360   40.1900 H   0  0  0  0  0  0  0  0  0  0  0  0
   37.2990   33.2380   38.1700 H   0  0  0  0  0  0  0  0  0  0  0  0
   39.3100   31.9470   37.5970 H   0  0  0  0  0  0  0  0  0  0  0  0
   38.3540   25.4860   41.1600 C   0  0  0  0  0  0  0  0  0  0  0  0
   39.1570   24.5940   40.4770 C   0  0  0  0  0  0  0  0  0  0  0  0
   40.1830   24.8680   40.2710 H   0  0  0  0  0  0  0  0  0  0  0  0
   38.7170   23.3620   40.0400 C   0  0  0  0  0  3  0  0  0  0  0  0
   37.3980   23.0630   40.3310 C   0  0  0  0  0  0  0  0  0  0  0  0
   37.0340   22.0940   39.9930 H   0  0  0  0  0  0  0  0  0  0  0  0
   36.5250   23.8920   41.0070 C   0  0  0  0  0  0  0  0  0  0  0  0
   35.5060   23.5750   41.1900 H   0  0  0  0  0  0  0  0  0  0  0  0
   37.0250   25.1250   41.4230 C   0  0  0  0  0  3  0  0  0  0  0  0
  2  1  1  0  0  0  0
  2  8  1  0  0  0  0
  3  2  2  0  0  0  0
  4  3  1  0  0  0  0
  4  5  2  0  0  0  0
  5  6  1  0  0  0  0
  6  8  2  0  0  0  0
  6  7  1  0  0  0  0
  8 10  1  0  0  0  0
  9  4  1  0  0  0  0
 11 17  1  0  0  0  0
 11 16  1  0  0  0  0
 12 11  2  0  0  0  0
 13 12  1  0  0  0  0
 13 14  2  0  0  0  0
 14 15  1  0  0  0  0
 15 16  2  0  0  0  0
 15  3  1  0  0  0  0
 18 12  1  0  0  0  0
 19 13  1  0  0  0  0
 20 28  1  0  0  0  0
 20  5  1  0  0  0  0
 21 20  2  0  0  0  0
 22 21  1  0  0  0  0
 23 24  2  0  0  0  0
 23 21  1  0  0  0  0
 24 26  1  0  0  0  0
 25 24  1  0  0  0  0
 26 27  1  0  0  0  0
 26 28  2  0  0  0  0
M  END
>  <minimizedAffinity>
-5.11180449

$$$$

 OpenBabel03252506033D

 28 30  0  0  0  0  0  0  0  0999 V2000
   36.9820   32.3870   40.0370 Cl  0  0  0  0  0  0  0  0  0  0  0  0
   37.6160   30.8730   40.6030 C   0  0  0  0  0  0  0  0  0  0  0  0
   38.9000   30.4920   40.2800 C   0  0  0  0  0  0  0  0  0  0  0  0
   39.2940   29.2780   40.7780 C   0  0  0  0  0  0  0  0  0  0  0  0
   38.5470   28.4260   41.5510 C   0  0  0  0  0  0  0  0  0  0  0  0
   37.2640   28.8420   41.8560 C   0  0  0  0  0  0  0  0  0  0  0  0
   36.3120   27.7710   42.8540 Cl  0  0  0  0  0  0  0  0  0  0  0  0
   36.8000   30.0580   41.3860 C   0  0  0  0  0  0  0  0  0  0  0  0
   40.3200   28.9690   40.5230 H   0  0  0  0  0  0  0  0  0  0  0  0
   35.7860   30.3580   41.6400 H   0  0  0  0  0  0  0  0  0  0  0  0
   41.4450   32.9590   39.3960 C   0  0  0  0  0  0  0  0  0  0  0  0
   41.4550   32.9040   37.9910 C   0  0  0  0  0  0  0  0  0  0  0  0
   40.5800   32.0110   37.3470 C   0  0  0  0  0  0  0  0  0  0  0  0
   39.7670   31.2470   38.1260 N   0  0  0  0  0  0  0  0  0  0  0  0
   39.7760   31.3170   39.4690 C   0  0  0  0  0  0  0  0  0  0  0  0
   40.6140   32.1720   40.0980 N   0  0  0  0  0  0  0  0  0  0  0  0
   42.1420   33.6650   39.8280 H   0  0  0  0  0  0  0  0  0  0  0  0
   42.0760   33.4850   37.3440 H   0  0  0  0  0  0  0  0  0  0  0  0
   40.5250   31.9080   36.2710 H   0  0  0  0  0  0  0  0  0  0  0  0
   39.1410   27.1650   41.9920 C   0  0  0  0  0  0  0  0  0  0  0  0
   39.0360   25.9800   41.2910 C   0  0  0  0  0  0  0  0  0  0  0  0
   38.4840   25.9710   40.3610 H   0  0  0  0  0  0  0  0  0  0  0  0
   39.6010   24.7970   41.7180 C   0  0  0  0  0  3  0  0  0  0  0  0
   40.2950   24.8660   42.9130 C   0  0  0  0  0  0  0  0  0  0  0  0
   40.7480   23.9390   43.2650 H   0  0  0  0  0  0  0  0  0  0  0  0
   40.4510   26.0040   43.6780 C   0  0  0  0  0  0  0  0  0  0  0  0
   41.0120   25.9640   44.6040 H   0  0  0  0  0  0  0  0  0  0  0  0
   39.8570   27.1690   43.1970 C   0  0  0  0  0  3  0  0  0  0  0  0
  1  2  1  0  0  0  0
  2  8  1  0  0  0  0
  3  2  2  0  0  0  0
  3  4  1  0  0  0  0
  4  5  2  0  0  0  0
  5  6  1  0  0  0  0
  5 20  1  0  0  0  0
  6  7  1  0  0  0  0
  8 10  1  0  0  0  0
  8  6  2  0  0  0  0
  9  4  1  0  0  0  0
 11 17  1  0  0  0  0
 11 16  1  0  0  0  0
 12 11  2  0  0  0  0
 13 12  1  0  0  0  0
 13 14  2  0  0  0  0
 14 15  1  0  0  0  0
 15 16  2  0  0  0  0
 15  3  1  0  0  0  0
 18 12  1  0  0  0  0
 19 13  1  0  0  0  0
 20 28  1  0  0  0  0
 21 23  1  0  0  0  0
 21 20  2  0  0  0  0
 22 21  1  0  0  0  0
 23 24  2  0  0  0  0
 24 25  1  0  0  0  0
 24 26  1  0  0  0  0
 26 27  1  0  0  0  0
 28 26  2  0  0  0  0
M  END
>  <minimizedAffinity>
-5.09978914

$$$$

 OpenBabel03252506033D

 28 30  0  0  0  0  0  0  0  0999 V2000
   35.3190   28.5530   39.6730 Cl  0  0  0  0  0  0  0  0  0  0  0  0
   36.6540   29.5980   39.3060 C   0  0  0  0  0  0  0  0  0  0  0  0
   37.7500   29.6470   40.1400 C   0  0  0  0  0  0  0  0  0  0  0  0
   38.7430   30.5080   39.7540 C   0  0  0  0  0  0  0  0  0  0  0  0
   38.7490   31.3080   38.6390 C   0  0  0  0  0  0  0  0  0  0  0  0
   37.6340   31.2320   37.8260 C   0  0  0  0  0  0  0  0  0  0  0  0
   37.6410   32.2340   36.3950 Cl  0  0  0  0  0  0  0  0  0  0  0  0
   36.5920   30.3830   38.1550 C   0  0  0  0  0  0  0  0  0  0  0  0
   39.6220   30.5500   40.4170 H   0  0  0  0  0  0  0  0  0  0  0  0
   35.7270   30.3450   37.4970 H   0  0  0  0  0  0  0  0  0  0  0  0
   37.4750   28.6760   43.6510 C   0  0  0  0  0  0  0  0  0  0  0  0
   38.0050   27.3730   43.6550 C   0  0  0  0  0  0  0  0  0  0  0  0
   38.4580   26.8280   42.4390 C   0  0  0  0  0  0  0  0  0  0  0  0
   38.3580   27.5990   41.3230 N   0  0  0  0  0  0  0  0  0  0  0  0
   37.8470   28.8430   41.3440 C   0  0  0  0  0  0  0  0  0  0  0  0
   37.4070   29.3760   42.5070 N   0  0  0  0  0  0  0  0  0  0  0  0
   37.1440   29.0340   44.6170 H   0  0  0  0  0  0  0  0  0  0  0  0
   38.1020   26.7360   44.5070 H   0  0  0  0  0  0  0  0  0  0  0  0
   38.8790   25.8350   42.3570 H   0  0  0  0  0  0  0  0  0  0  0  0
   39.9060   32.1670   38.3910 C   0  0  0  0  0  0  0  0  0  0  0  0
   40.8380   31.9330   37.4000 C   0  0  0  0  0  0  0  0  0  0  0  0
   40.7160   31.0670   36.7630 H   0  0  0  0  0  0  0  0  0  0  0  0
   41.9250   32.7520   37.1770 C   0  0  0  0  0  3  0  0  0  0  0  0
   42.0310   33.8440   38.0190 C   0  0  0  0  0  0  0  0  0  0  0  0
   42.8850   34.5010   37.8570 H   0  0  0  0  0  0  0  0  0  0  0  0
   41.1490   34.1540   39.0340 C   0  0  0  0  0  0  0  0  0  0  0  0
   41.3120   35.0320   39.6470 H   0  0  0  0  0  0  0  0  0  0  0  0
   40.0700   33.2910   39.2130 C   0  0  0  0  0  3  0  0  0  0  0  0
  2  1  1  0  0  0  0
  2  3  1  0  0  0  0
  3 15  1  0  0  0  0
  4  3  2  0  0  0  0
  4  9  1  0  0  0  0
  5  4  1  0  0  0  0
  6  8  1  0  0  0  0
  6  5  2  0  0  0  0
  7  6  1  0  0  0  0
  8  2  2  0  0  0  0
 10  8  1  0  0  0  0
 11 12  1  0  0  0  0
 11 17  1  0  0  0  0
 12 18  1  0  0  0  0
 13 12  2  0  0  0  0
 14 15  2  0  0  0  0
 14 13  1  0  0  0  0
 15 16  1  0  0  0  0
 16 11  2  0  0  0  0
 19 13  1  0  0  0  0
 20  5  1  0  0  0  0
 20 28  1  0  0  0  0
 21 20  2  0  0  0  0
 22 21  1  0  0  0  0
 23 21  1  0  0  0  0
 23 24  2  0  0  0  0
 24 26  1  0  0  0  0
 25 24  1  0  0  0  0
 26 28  2  0  0  0  0
 26 27  1  0  0  0  0
M  END
>  <minimizedAffinity>
-4.98333931

$$$$

 OpenBabel03252506033D

 28 30  0  0  0  0  0  0  0  0999 V2000
   38.1110   33.4320   39.7080 Cl  0  0  0  0  0  0  0  0  0  0  0  0
   37.8660   31.7420   40.0170 C   0  0  0  0  0  0  0  0  0  0  0  0
   38.9380   30.9220   40.2890 C   0  0  0  0  0  0  0  0  0  0  0  0
   38.6280   29.6070   40.5150 C   0  0  0  0  0  0  0  0  0  0  0  0
   37.3770   29.0430   40.4980 C   0  0  0  0  0  0  0  0  0  0  0  0
   36.3260   29.8970   40.2220 C   0  0  0  0  0  0  0  0  0  0  0  0
   34.7280   29.1920   40.2150 Cl  0  0  0  0  0  0  0  0  0  0  0  0
   36.5660   31.2390   39.9840 C   0  0  0  0  0  0  0  0  0  0  0  0
   39.4820   28.9460   40.7340 H   0  0  0  0  0  0  0  0  0  0  0  0
   35.7200   31.8870   39.7690 H   0  0  0  0  0  0  0  0  0  0  0  0
   42.2760   31.8920   39.1630 C   0  0  0  0  0  0  0  0  0  0  0  0
   42.8880   32.3320   40.3510 C   0  0  0  0  0  0  0  0  0  0  0  0
   42.1440   32.2930   41.5450 C   0  0  0  0  0  0  0  0  0  0  0  0
   40.8670   31.8290   41.4810 N   0  0  0  0  0  0  0  0  0  0  0  0
   40.3030   31.4140   40.3330 C   0  0  0  0  0  0  0  0  0  0  0  0
   41.0090   31.4470   39.1800 N   0  0  0  0  0  0  0  0  0  0  0  0
   42.9010   31.9490   38.2820 H   0  0  0  0  0  0  0  0  0  0  0  0
   43.8850   32.7030   40.4440 H   0  0  0  0  0  0  0  0  0  0  0  0
   42.5400   32.6120   42.4990 H   0  0  0  0  0  0  0  0  0  0  0  0
   37.2420   27.6120   40.7640 C   0  0  0  0  0  0  0  0  0  0  0  0
   37.2140   26.6460   39.7780 C   0  0  0  0  0  0  0  0  0  0  0  0
   37.2960   26.9540   38.7440 H   0  0  0  0  0  0  0  0  0  0  0  0
   37.0840   25.2990   40.0430 C   0  0  0  0  0  3  0  0  0  0  0  0
   36.9840   24.9630   41.3810 C   0  0  0  0  0  0  0  0  0  0  0  0
   36.8810   23.9020   41.6080 H   0  0  0  0  0  0  0  0  0  0  0  0
   37.0020   25.8590   42.4300 C   0  0  0  0  0  0  0  0  0  0  0  0
   36.9160   25.5040   43.4500 H   0  0  0  0  0  0  0  0  0  0  0  0
   37.1340   27.2070   42.1020 C   0  0  0  0  0  3  0  0  0  0  0  0
  1  2  1  0  0  0  0
  2  3  1  0  0  0  0
  3 15  1  0  0  0  0
  3  4  2  0  0  0  0
  4  9  1  0  0  0  0
  5  4  1  0  0  0  0
  5 20  1  0  0  0  0
  6  5  2  0  0  0  0
  7  6  1  0  0  0  0
  8  2  2  0  0  0  0
  8  6  1  0  0  0  0
 10  8  1  0  0  0  0
 11 16  2  0  0  0  0
 11 12  1  0  0  0  0
 12 18  1  0  0  0  0
 12 13  2  0  0  0  0
 13 19  1  0  0  0  0
 14 13  1  0  0  0  0
 15 14  2  0  0  0  0
 16 15  1  0  0  0  0
 17 11  1  0  0  0  0
 20 28  1  0  0  0  0
 21 23  1  0  0  0  0
 21 20  2  0  0  0  0
 22 21  1  0  0  0  0
 23 24  2  0  0  0  0
 24 25  1  0  0  0  0
 24 26  1  0  0  0  0
 26 27  1  0  0  0  0
 28 26  2  0  0  0  0
M  END
>  <minimizedAffinity>
-4.95252609

$$$$

 OpenBabel03252506033D

 28 30  0  0  0  0  0  0  0  0999 V2000
   39.9410   25.6030   43.6790 Cl  0  0  0  0  0  0  0  0  0  0  0  0
   39.4910   26.9650   42.7020 C   0  0  0  0  0  0  0  0  0  0  0  0
   38.7440   26.7850   41.5590 C   0  0  0  0  0  0  0  0  0  0  0  0
   38.4490   27.9290   40.8650 C   0  0  0  0  0  0  0  0  0  0  0  0
   38.8180   29.2090   41.1960 C   0  0  0  0  0  0  0  0  0  0  0  0
   39.5650   29.3510   42.3500 C   0  0  0  0  0  0  0  0  0  0  0  0
   40.0250   30.9780   42.7880 Cl  0  0  0  0  0  0  0  0  0  0  0  0
   39.9010   28.2370   43.1000 C   0  0  0  0  0  0  0  0  0  0  0  0
   37.8510   27.7910   39.9500 H   0  0  0  0  0  0  0  0  0  0  0  0
   40.4900   28.3790   44.0030 H   0  0  0  0  0  0  0  0  0  0  0  0
   36.5500   23.9280   40.9550 C   0  0  0  0  0  0  0  0  0  0  0  0
   37.4010   23.0150   40.3070 C   0  0  0  0  0  0  0  0  0  0  0  0
   38.7380   23.3880   40.0780 C   0  0  0  0  0  0  0  0  0  0  0  0
   39.1340   24.6200   40.5000 N   0  0  0  0  0  0  0  0  0  0  0  0
   38.3010   25.4760   41.1180 C   0  0  0  0  0  0  0  0  0  0  0  0
   37.0130   25.1270   41.3420 N   0  0  0  0  0  0  0  0  0  0  0  0
   35.5360   23.5790   41.0990 H   0  0  0  0  0  0  0  0  0  0  0  0
   37.1320   22.0410   39.9610 H   0  0  0  0  0  0  0  0  0  0  0  0
   39.4570   22.7450   39.5880 H   0  0  0  0  0  0  0  0  0  0  0  0
   38.4070   30.3110   40.3270 C   0  0  0  0  0  0  0  0  0  0  0  0
   37.3010   31.1030   40.5630 C   0  0  0  0  0  0  0  0  0  0  0  0
   36.6950   30.9070   41.4370 H   0  0  0  0  0  0  0  0  0  0  0  0
   36.9240   32.1390   39.7340 C   0  0  0  0  0  3  0  0  0  0  0  0
   37.7340   32.3450   38.6320 C   0  0  0  0  0  0  0  0  0  0  0  0
   37.4500   33.1600   37.9670 H   0  0  0  0  0  0  0  0  0  0  0  0
   38.8560   31.6040   38.3200 C   0  0  0  0  0  0  0  0  0  0  0  0
   39.4310   31.8380   37.4320 H   0  0  0  0  0  0  0  0  0  0  0  0
   39.1880   30.5700   39.1920 C   0  0  0  0  0  3  0  0  0  0  0  0
  2  8  1  0  0  0  0
  2  1  1  0  0  0  0
  3  2  2  0  0  0  0
  4  5  2  0  0  0  0
  4  3  1  0  0  0  0
  5  6  1  0  0  0  0
  6  7  1  0  0  0  0
  6  8  2  0  0  0  0
  8 10  1  0  0  0  0
  9  4  1  0  0  0  0
 11 17  1  0  0  0  0
 11 16  1  0  0  0  0
 12 11  2  0  0  0  0
 13 12  1  0  0  0  0
 13 14  2  0  0  0  0
 14 15  1  0  0  0  0
 15 16  2  0  0  0  0
 15  3  1  0  0  0  0
 18 12  1  0  0  0  0
 19 13  1  0  0  0  0
 20 21  1  0  0  0  0
 20  5  1  0  0  0  0
 21 22  1  0  0  0  0
 23 21  2  0  0  0  0
 24 23  1  0  0  0  0
 25 24  1  0  0  0  0
 26 24  2  0  0  0  0
 26 28  1  0  0  0  0
 27 26  1  0  0  0  0
 28 20  2  0  0  0  0
M  END
>  <minimizedAffinity>
-4.89855099

$$$$

 OpenBabel03252506033D

 28 30  0  0  0  0  0  0  0  0999 V2000
   35.4740   28.9090   41.0490 Cl  0  0  0  0  0  0  0  0  0  0  0  0
   36.7800   29.9720   40.6300 C   0  0  0  0  0  0  0  0  0  0  0  0
   38.0840   29.5340   40.7020 C   0  0  0  0  0  0  0  0  0  0  0  0
   39.0330   30.4580   40.3500 C   0  0  0  0  0  0  0  0  0  0  0  0
   38.8110   31.7480   39.9410 C   0  0  0  0  0  0  0  0  0  0  0  0
   37.4910   32.1520   39.8800 C   0  0  0  0  0  0  0  0  0  0  0  0
   37.1980   33.7880   39.3440 Cl  0  0  0  0  0  0  0  0  0  0  0  0
   36.4800   31.2710   40.2220 C   0  0  0  0  0  0  0  0  0  0  0  0
   40.0780   30.1120   40.4050 H   0  0  0  0  0  0  0  0  0  0  0  0
   35.4500   31.6170   40.1650 H   0  0  0  0  0  0  0  0  0  0  0  0
   38.9570   26.7350   42.8810 C   0  0  0  0  0  0  0  0  0  0  0  0
   39.0910   25.6670   41.9760 C   0  0  0  0  0  0  0  0  0  0  0  0
   38.8770   25.9160   40.6070 C   0  0  0  0  0  0  0  0  0  0  0  0
   38.5530   27.1830   40.2360 N   0  0  0  0  0  0  0  0  0  0  0  0
   38.4310   28.1890   41.1210 C   0  0  0  0  0  0  0  0  0  0  0  0
   38.6330   27.9610   42.4390 N   0  0  0  0  0  0  0  0  0  0  0  0
   39.1330   26.4770   43.9170 H   0  0  0  0  0  0  0  0  0  0  0  0
   39.3430   24.6600   42.2250 H   0  0  0  0  0  0  0  0  0  0  0  0
   38.9610   25.1500   39.8470 H   0  0  0  0  0  0  0  0  0  0  0  0
   39.9570   32.5910   39.6050 C   0  0  0  0  0  0  0  0  0  0  0  0
   40.6350   33.3690   40.5230 C   0  0  0  0  0  0  0  0  0  0  0  0
   40.3070   33.3620   41.5550 H   0  0  0  0  0  0  0  0  0  0  0  0
   41.7140   34.1610   40.1930 C   0  0  0  0  0  3  0  0  0  0  0  0
   42.0890   34.1310   38.8620 C   0  0  0  0  0  0  0  0  0  0  0  0
   42.9410   34.7510   38.5830 H   0  0  0  0  0  0  0  0  0  0  0  0
   41.4720   33.3850   37.8780 C   0  0  0  0  0  0  0  0  0  0  0  0
   41.8350   33.4240   36.8580 H   0  0  0  0  0  0  0  0  0  0  0  0
   40.3860   32.6050   38.2700 C   0  0  0  0  0  3  0  0  0  0  0  0
  2  3  1  0  0  0  0
  2  1  1  0  0  0  0
  3 15  1  0  0  0  0
  4  9  1  0  0  0  0
  4  3  2  0  0  0  0
  5  4  1  0  0  0  0
  6  5  2  0  0  0  0
  6  8  1  0  0  0  0
  7  6  1  0  0  0  0
  8  2  2  0  0  0  0
 10  8  1  0  0  0  0
 11 17  1  0  0  0  0
 12 18  1  0  0  0  0
 12 11  2  0  0  0  0
 13 12  1  0  0  0  0
 14 13  2  0  0  0  0
 14 15  1  0  0  0  0
 15 16  2  0  0  0  0
 16 11  1  0  0  0  0
 19 13  1  0  0  0  0
 20  5  1  0  0  0  0
 20 21  1  0  0  0  0
 21 22  1  0  0  0  0
 23 21  2  0  0  0  0
 24 23  1  0  0  0  0
 25 24  1  0  0  0  0
 26 28  1  0  0  0  0
 26 24  2  0  0  0  0
 27 26  1  0  0  0  0
 28 20  2  0  0  0  0
M  END
>  <minimizedAffinity>
-4.88219738

$$$$

 OpenBabel03252506033D

 28 30  0  0  0  0  0  0  0  0999 V2000
   36.5590   27.7540   42.8170 Cl  0  0  0  0  0  0  0  0  0  0  0  0
   37.5130   28.8720   41.8930 C   0  0  0  0  0  0  0  0  0  0  0  0
   38.8380   28.6020   41.6270 C   0  0  0  0  0  0  0  0  0  0  0  0
   39.4940   29.5540   40.8910 C   0  0  0  0  0  0  0  0  0  0  0  0
   38.9670   30.7230   40.4050 C   0  0  0  0  0  0  0  0  0  0  0  0
   37.6350   30.9600   40.6910 C   0  0  0  0  0  0  0  0  0  0  0  0
   36.9510   32.4380   40.0610 Cl  0  0  0  0  0  0  0  0  0  0  0  0
   36.9110   30.0410   41.4290 C   0  0  0  0  0  0  0  0  0  0  0  0
   40.5530   29.3430   40.6750 H   0  0  0  0  0  0  0  0  0  0  0  0
   35.8650   30.2540   41.6400 H   0  0  0  0  0  0  0  0  0  0  0  0
   39.9500   25.1240   41.7390 C   0  0  0  0  0  0  0  0  0  0  0  0
   40.7120   25.0800   42.9200 C   0  0  0  0  0  0  0  0  0  0  0  0
   40.8420   26.2570   43.6800 C   0  0  0  0  0  0  0  0  0  0  0  0
   40.2190   27.3770   43.2260 N   0  0  0  0  0  0  0  0  0  0  0  0
   39.4940   27.3950   42.0920 C   0  0  0  0  0  0  0  0  0  0  0  0
   39.3630   26.2690   41.3540 N   0  0  0  0  0  0  0  0  0  0  0  0
   39.8900   24.1860   41.2020 H   0  0  0  0  0  0  0  0  0  0  0  0
   41.2160   24.2230   43.3110 H   0  0  0  0  0  0  0  0  0  0  0  0
   41.4100   26.3080   44.5990 H   0  0  0  0  0  0  0  0  0  0  0  0
   39.8270   31.6210   39.6360 C   0  0  0  0  0  0  0  0  0  0  0  0
   40.0240   31.5160   38.2730 C   0  0  0  0  0  0  0  0  0  0  0  0
   39.5170   30.7280   37.7320 H   0  0  0  0  0  0  0  0  0  0  0  0
   40.8390   32.3700   37.5590 C   0  0  0  0  0  3  0  0  0  0  0  0
   41.4600   33.3580   38.3010 C   0  0  0  0  0  0  0  0  0  0  0  0
   42.1080   34.0410   37.7520 H   0  0  0  0  0  0  0  0  0  0  0  0
   41.3220   33.5370   39.6630 C   0  0  0  0  0  0  0  0  0  0  0  0
   41.8500   34.3400   40.1620 H   0  0  0  0  0  0  0  0  0  0  0  0
   40.4870   32.6440   40.3310 C   0  0  0  0  0  3  0  0  0  0  0  0
  2  1  1  0  0  0  0
  3  2  1  0  0  0  0
  3 15  1  0  0  0  0
  4  3  2  0  0  0  0
  5  6  2  0  0  0  0
  5  4  1  0  0  0  0
  6  8  1  0  0  0  0
  7  6  1  0  0  0  0
  8 10  1  0  0  0  0
  8  2  2  0  0  0  0
  9  4  1  0  0  0  0
 11 12  1  0  0  0  0
 12 18  1  0  0  0  0
 12 13  2  0  0  0  0
 13 19  1  0  0  0  0
 14 13  1  0  0  0  0
 15 14  2  0  0  0  0
 16 11  2  0  0  0  0
 16 15  1  0  0  0  0
 17 11  1  0  0  0  0
 20 28  1  0  0  0  0
 20  5  1  0  0  0  0
 21 20  2  0  0  0  0
 22 21  1  0  0  0  0
 23 21  1  0  0  0  0
 23 24  2  0  0  0  0
 24 26  1  0  0  0  0
 25 24  1  0  0  0  0
 26 27  1  0  0  0  0
 26 28  2  0  0  0  0
M  END
>  <minimizedAffinity>
-4.86197615

$$$$
