
 OpenBabel03252509243D

 27 29  0  0  1  0  0  0  0  0999 V2000
   46.5020   35.0190   41.9550 C   0  0  1  0  0  0  0  0  0  0  0  0
   48.0250   35.3000   41.9060 C   0  0  0  0  0  0  0  0  0  0  0  0
   47.3160   34.0310   41.3440 C   0  0  2  0  0  0  0  0  0  0  0  0
   45.9120   35.7770   41.4040 H   0  0  0  0  0  0  0  0  0  0  0  0
   48.3980   35.9800   41.1210 H   0  0  0  0  0  0  0  0  0  0  0  0
   48.6260   35.1880   42.8000 H   0  0  0  0  0  0  0  0  0  0  0  0
   47.5880   33.1120   41.9100 H   0  0  0  0  0  0  0  0  0  0  0  0
   47.3000   33.9010   39.8480 C   0  0  0  0  0  0  0  0  0  0  0  0
   46.2710   33.2070   39.2440 C   0  0  0  0  0  0  0  0  0  0  0  0
   45.4740   32.7530   39.8070 H   0  0  0  0  0  0  0  0  0  0  0  0
   46.2500   33.0820   37.8500 C   0  0  0  0  0  3  0  0  0  0  0  0
   47.2980   33.6860   37.1810 C   0  0  0  0  0  0  0  0  0  0  0  0
   47.2850   33.5900   36.0890 H   0  0  0  0  0  0  0  0  0  0  0  0
   48.3460   34.3900   37.7520 C   0  0  0  0  0  0  0  0  0  0  0  0
   49.1000   34.8100   37.1020 H   0  0  0  0  0  0  0  0  0  0  0  0
   48.3310   34.4920   39.1460 C   0  0  0  0  0  3  0  0  0  0  0  0
   44.6690   35.3740   45.2070 C   0  0  0  0  0  0  0  0  0  0  0  0
   45.1120   35.6860   43.8730 C   0  0  0  0  0  0  0  0  0  0  0  0
   46.0470   34.8200   43.3740 C   0  0  0  0  0  0  0  0  0  0  0  0
   46.5180   33.7460   44.1020 N   0  0  0  0  0  0  0  0  0  0  0  0
   46.0720   33.4980   45.3460 C   0  0  0  0  0  0  0  0  0  0  0  0
   45.1410   34.3190   45.8990 N   0  0  0  0  0  0  0  0  0  0  0  0
   43.9290   36.0270   45.6490 H   0  0  0  0  0  0  0  0  0  0  0  0
   46.5340   32.6250   45.7820 H   0  0  0  0  0  0  0  0  0  0  0  0
   44.6350   36.8080   43.1530 N   0  0  0  0  0  0  0  0  0  0  0  0
   45.1090   37.6790   43.5030 H   0  0  0  0  0  0  0  0  0  0  0  0
   43.9470   36.9050   42.3960 H   0  0  0  0  0  0  0  0  0  0  0  0
  1  4  1  6  0  0  0
  1 19  1  0  0  0  0
  2  1  1  0  0  0  0
  2  6  1  0  0  0  0
  3  2  1  0  0  0  0
  3  7  1  1  0  0  0
  3  1  1  0  0  0  0
  5  2  1  0  0  0  0
  8  3  1  0  0  0  0
  9 10  1  0  0  0  0
  9  8  1  0  0  0  0
 11  9  2  0  0  0  0
 12 14  2  0  0  0  0
 12 11  1  0  0  0  0
 13 12  1  0  0  0  0
 14 16  1  0  0  0  0
 15 14  1  0  0  0  0
 16  8  2  0  0  0  0
 17 23  1  0  0  0  0
 17 22  1  0  0  0  0
 18 17  2  0  0  0  0
 19 18  1  0  0  0  0
 19 20  2  0  0  0  0
 20 21  1  0  0  0  0
 21 24  1  0  0  0  0
 21 22  2  0  0  0  0
 25 26  1  0  0  0  0
 25 18  1  0  0  0  0
 27 25  1  0  0  0  0
M  END
>  <minimizedAffinity>
-5.50399256

>  <minimizedRMSD>
0.249573603

$$$$
