
 OpenBabel03252503523D

 21 22  0  0  0  0  0  0  0  0999 V2000
   36.9050   27.8300   41.6370 C   0  0  0  0  0  0  0  0  0  0  0  0
   37.3070   29.1790   41.6630 C   0  0  0  0  0  0  0  0  0  0  0  0
   37.3200   29.9030   40.4710 C   0  0  0  0  0  0  0  0  0  0  0  0
   36.9450   29.2630   39.3470 N   0  0  0  0  0  0  0  0  0  0  0  0
   36.5600   27.9580   39.3310 C   0  0  0  0  0  0  0  0  0  0  0  0
   36.5410   27.2510   40.4740 N   0  0  0  0  0  0  0  0  0  0  0  0
   37.6000   29.6650   42.5710 H   0  0  0  0  0  0  0  0  0  0  0  0
   36.2630   27.4770   38.4030 H   0  0  0  0  0  0  0  0  0  0  0  0
   37.7140   31.2950   40.3800 C   0  0  0  0  0  0  0  0  0  0  0  0
   36.9600   32.1090   39.5630 C   0  0  0  0  0  0  0  0  0  0  0  0
   36.1070   31.7620   38.9990 H   0  0  0  0  0  0  0  0  0  0  0  0
   37.2570   33.4660   39.4050 C   0  0  0  0  0  3  0  0  0  0  0  0
   38.3340   33.9750   40.0960 C   0  0  0  0  0  0  0  0  0  0  0  0
   38.5760   35.0030   39.9900 H   0  0  0  0  0  0  0  0  0  0  0  0
   39.1100   33.1870   40.9230 C   0  0  0  0  0  0  0  0  0  0  0  0
   39.9520   33.5490   41.4730 H   0  0  0  0  0  0  0  0  0  0  0  0
   38.7870   31.8330   41.0590 C   0  0  0  0  0  3  0  0  0  0  0  0
   36.9130   27.1160   42.9430 C   0  0  0  0  0  0  0  0  0  0  0  0
   35.7870   27.3960   43.6790 F   0  0  0  0  0  0  0  0  0  0  0  0
   36.9990   25.7470   42.6760 F   0  0  0  0  0  0  0  0  0  0  0  0
   38.0690   27.4330   43.6560 F   0  0  0  0  0  0  0  0  0  0  0  0
  1  2  1  0  0  0  0
  1 18  1  0  0  0  0
  2  7  1  0  0  0  0
  3  2  2  0  0  0  0
  4  3  1  0  0  0  0
  5  4  2  0  0  0  0
  5  6  1  0  0  0  0
  6  1  2  0  0  0  0
  8  5  1  0  0  0  0
  9  3  1  0  0  0  0
  9 17  1  0  0  0  0
 10  9  2  0  0  0  0
 11 10  1  0  0  0  0
 12 10  1  0  0  0  0
 12 13  2  0  0  0  0
 13 15  1  0  0  0  0
 14 13  1  0  0  0  0
 15 17  2  0  0  0  0
 15 16  1  0  0  0  0
 18 21  1  0  0  0  0
 18 19  1  0  0  0  0
 20 18  1  0  0  0  0
M  END
>  <minimizedAffinity>
-5.04667091

$$$$

 OpenBabel03252503523D

 21 22  0  0  0  0  0  0  0  0999 V2000
   36.8890   28.4580   41.9540 C   0  0  0  0  0  0  0  0  0  0  0  0
   36.1950   28.2390   40.7490 C   0  0  0  0  0  0  0  0  0  0  0  0
   36.0860   29.2840   39.8330 C   0  0  0  0  0  0  0  0  0  0  0  0
   36.6560   30.4610   40.1560 N   0  0  0  0  0  0  0  0  0  0  0  0
   37.3240   30.6640   41.3240 C   0  0  0  0  0  0  0  0  0  0  0  0
   37.4370   29.6630   42.2140 N   0  0  0  0  0  0  0  0  0  0  0  0
   35.7510   27.2930   40.5150 H   0  0  0  0  0  0  0  0  0  0  0  0
   37.7710   31.6280   41.5480 H   0  0  0  0  0  0  0  0  0  0  0  0
   35.3960   29.1720   38.5620 C   0  0  0  0  0  0  0  0  0  0  0  0
   34.0360   28.9480   38.6040 C   0  0  0  0  0  0  0  0  0  0  0  0
   33.4760   28.8540   39.5210 H   0  0  0  0  0  0  0  0  0  0  0  0
   33.2790   28.8250   37.4350 C   0  0  0  0  0  3  0  0  0  0  0  0
   33.9330   28.9340   36.2280 C   0  0  0  0  0  0  0  0  0  0  0  0
   33.3760   28.8440   35.3290 H   0  0  0  0  0  0  0  0  0  0  0  0
   35.2940   29.1590   36.1520 C   0  0  0  0  0  0  0  0  0  0  0  0
   35.8320   29.2490   35.2320 H   0  0  0  0  0  0  0  0  0  0  0  0
   36.0230   29.2780   37.3400 C   0  0  0  0  0  3  0  0  0  0  0  0
   36.9690   27.3000   42.8870 C   0  0  0  0  0  0  0  0  0  0  0  0
   38.0980   27.3590   43.6680 F   0  0  0  0  0  0  0  0  0  0  0  0
   35.8190   27.3170   43.6800 F   0  0  0  0  0  0  0  0  0  0  0  0
   36.9150   26.1040   42.1720 F   0  0  0  0  0  0  0  0  0  0  0  0
  1  6  1  0  0  0  0
  1 18  1  0  0  0  0
  2  1  2  0  0  0  0
  3  4  2  0  0  0  0
  3  2  1  0  0  0  0
  4  5  1  0  0  0  0
  5  8  1  0  0  0  0
  5  6  2  0  0  0  0
  7  2  1  0  0  0  0
  9 10  1  0  0  0  0
  9  3  1  0  0  0  0
 10 11  1  0  0  0  0
 12 10  2  0  0  0  0
 13 12  1  0  0  0  0
 14 13  1  0  0  0  0
 15 13  2  0  0  0  0
 15 17  1  0  0  0  0
 16 15  1  0  0  0  0
 17  9  2  0  0  0  0
 18 19  1  0  0  0  0
 18 20  1  0  0  0  0
 21 18  1  0  0  0  0
M  END
>  <minimizedAffinity>
-4.99301577

$$$$

 OpenBabel03252503523D

 21 22  0  0  0  0  0  0  0  0999 V2000
   37.2710   26.8040   42.0140 C   0  0  0  0  0  0  0  0  0  0  0  0
   37.2400   27.7480   40.9700 C   0  0  0  0  0  0  0  0  0  0  0  0
   37.3290   29.1040   41.2820 C   0  0  0  0  0  0  0  0  0  0  0  0
   37.4380   29.4410   42.5820 N   0  0  0  0  0  0  0  0  0  0  0  0
   37.4660   28.5220   43.5850 C   0  0  0  0  0  0  0  0  0  0  0  0
   37.3820   27.2110   43.2950 N   0  0  0  0  0  0  0  0  0  0  0  0
   37.1530   27.4550   39.9440 H   0  0  0  0  0  0  0  0  0  0  0  0
   37.5550   28.8330   44.6220 H   0  0  0  0  0  0  0  0  0  0  0  0
   37.3080   30.1620   40.2900 C   0  0  0  0  0  0  0  0  0  0  0  0
   37.3470   31.4590   40.7540 C   0  0  0  0  0  0  0  0  0  0  0  0
   37.3900   31.7160   41.8010 H   0  0  0  0  0  0  0  0  0  0  0  0
   37.3310   32.5500   39.8800 C   0  0  0  0  0  3  0  0  0  0  0  0
   37.2750   32.2930   38.5280 C   0  0  0  0  0  0  0  0  0  0  0  0
   37.2630   33.1070   37.8480 H   0  0  0  0  0  0  0  0  0  0  0  0
   37.2350   31.0050   38.0310 C   0  0  0  0  0  0  0  0  0  0  0  0
   37.1920   30.7700   36.9890 H   0  0  0  0  0  0  0  0  0  0  0  0
   37.2530   29.9350   38.9320 C   0  0  0  0  0  3  0  0  0  0  0  0
   37.1730   25.3750   41.6120 C   0  0  0  0  0  0  0  0  0  0  0  0
   38.4150   24.8020   41.4790 F   0  0  0  0  0  0  0  0  0  0  0  0
   36.4250   24.7110   42.5880 F   0  0  0  0  0  0  0  0  0  0  0  0
   36.4380   25.2580   40.4320 F   0  0  0  0  0  0  0  0  0  0  0  0
  1  6  1  0  0  0  0
  2  3  1  0  0  0  0
  2  1  2  0  0  0  0
  3  4  2  0  0  0  0
  4  5  1  0  0  0  0
  5  8  1  0  0  0  0
  6  5  2  0  0  0  0
  7  2  1  0  0  0  0
  9 10  1  0  0  0  0
  9  3  1  0  0  0  0
 10 11  1  0  0  0  0
 12 10  2  0  0  0  0
 13 12  1  0  0  0  0
 14 13  1  0  0  0  0
 15 13  2  0  0  0  0
 15 17  1  0  0  0  0
 16 15  1  0  0  0  0
 17  9  2  0  0  0  0
 18  1  1  0  0  0  0
 18 20  1  0  0  0  0
 19 18  1  0  0  0  0
 21 18  1  0  0  0  0
M  END
>  <minimizedAffinity>
-4.92489958

$$$$

 OpenBabel03252503523D

 21 22  0  0  0  0  0  0  0  0999 V2000
   35.5680   29.0170   39.9260 C   0  0  0  0  0  0  0  0  0  0  0  0
   36.2230   27.8500   40.3640 C   0  0  0  0  0  0  0  0  0  0  0  0
   37.1220   27.9380   41.4270 C   0  0  0  0  0  0  0  0  0  0  0  0
   37.3170   29.1510   41.9810 N   0  0  0  0  0  0  0  0  0  0  0  0
   36.6800   30.2730   41.5500 C   0  0  0  0  0  0  0  0  0  0  0  0
   35.8100   30.1990   40.5280 N   0  0  0  0  0  0  0  0  0  0  0  0
   36.0500   26.8980   39.9070 H   0  0  0  0  0  0  0  0  0  0  0  0
   36.8640   31.2330   42.0240 H   0  0  0  0  0  0  0  0  0  0  0  0
   37.8520   26.8050   41.9610 C   0  0  0  0  0  0  0  0  0  0  0  0
   37.3800   25.5490   41.6430 C   0  0  0  0  0  0  0  0  0  0  0  0
   36.5110   25.3770   41.0280 H   0  0  0  0  0  0  0  0  0  0  0  0
   38.0110   24.3910   42.1080 C   0  0  0  0  0  3  0  0  0  0  0  0
   39.1290   24.5390   42.8990 C   0  0  0  0  0  0  0  0  0  0  0  0
   39.6230   23.6720   43.2620 H   0  0  0  0  0  0  0  0  0  0  0  0
   39.6260   25.7830   43.2360 C   0  0  0  0  0  0  0  0  0  0  0  0
   40.4900   25.9330   43.8480 H   0  0  0  0  0  0  0  0  0  0  0  0
   38.9720   26.9220   42.7550 C   0  0  0  0  0  3  0  0  0  0  0  0
   34.6220   28.8520   38.7890 C   0  0  0  0  0  0  0  0  0  0  0  0
   33.3290   29.1290   39.1640 F   0  0  0  0  0  0  0  0  0  0  0  0
   35.0350   29.7110   37.7680 F   0  0  0  0  0  0  0  0  0  0  0  0
   34.7250   27.5650   38.2620 F   0  0  0  0  0  0  0  0  0  0  0  0
  1  2  2  0  0  0  0
  1  6  1  0  0  0  0
  2  3  1  0  0  0  0
  3  9  1  0  0  0  0
  3  4  2  0  0  0  0
  5  4  1  0  0  0  0
  5  8  1  0  0  0  0
  6  5  2  0  0  0  0
  7  2  1  0  0  0  0
  9 17  1  0  0  0  0
 10  9  2  0  0  0  0
 10 12  1  0  0  0  0
 11 10  1  0  0  0  0
 12 13  2  0  0  0  0
 13 15  1  0  0  0  0
 13 14  1  0  0  0  0
 15 16  1  0  0  0  0
 17 15  2  0  0  0  0
 18 19  1  0  0  0  0
 18  1  1  0  0  0  0
 20 18  1  0  0  0  0
 21 18  1  0  0  0  0
M  END
>  <minimizedAffinity>
-4.75675869

$$$$

 OpenBabel03252503523D

 21 22  0  0  0  0  0  0  0  0999 V2000
   37.9190   28.2230   42.4150 C   0  0  0  0  0  0  0  0  0  0  0  0
   37.7770   29.4720   41.7810 C   0  0  0  0  0  0  0  0  0  0  0  0
   38.8760   30.3280   41.7220 C   0  0  0  0  0  0  0  0  0  0  0  0
   40.0270   29.9080   42.2840 N   0  0  0  0  0  0  0  0  0  0  0  0
   40.1530   28.7000   42.8960 C   0  0  0  0  0  0  0  0  0  0  0  0
   39.1010   27.8660   42.9570 N   0  0  0  0  0  0  0  0  0  0  0  0
   36.8510   29.7820   41.3410 H   0  0  0  0  0  0  0  0  0  0  0  0
   41.0990   28.3960   43.3370 H   0  0  0  0  0  0  0  0  0  0  0  0
   38.8460   31.6350   41.0950 C   0  0  0  0  0  0  0  0  0  0  0  0
   37.6510   32.0370   40.5380 C   0  0  0  0  0  0  0  0  0  0  0  0
   36.7570   31.4330   40.5480 H   0  0  0  0  0  0  0  0  0  0  0  0
   37.5170   33.2780   39.9090 C   0  0  0  0  0  3  0  0  0  0  0  0
   38.6220   34.0990   39.8600 C   0  0  0  0  0  0  0  0  0  0  0  0
   38.5410   35.0460   39.3870 H   0  0  0  0  0  0  0  0  0  0  0  0
   39.8330   33.7260   40.4080 C   0  0  0  0  0  0  0  0  0  0  0  0
   40.7100   34.3390   40.3880 H   0  0  0  0  0  0  0  0  0  0  0  0
   39.9350   32.4780   41.0300 C   0  0  0  0  0  3  0  0  0  0  0  0
   36.7070   27.3580   42.4420 C   0  0  0  0  0  0  0  0  0  0  0  0
   36.1080   27.3680   43.6790 F   0  0  0  0  0  0  0  0  0  0  0  0
   35.8290   27.8320   41.4650 F   0  0  0  0  0  0  0  0  0  0  0  0
   37.0360   26.0600   42.0550 F   0  0  0  0  0  0  0  0  0  0  0  0
  1 18  1  0  0  0  0
  1  6  1  0  0  0  0
  2  1  2  0  0  0  0
  3  2  1  0  0  0  0
  3  4  2  0  0  0  0
  4  5  1  0  0  0  0
  5  6  2  0  0  0  0
  5  8  1  0  0  0  0
  7  2  1  0  0  0  0
  9  3  1  0  0  0  0
 10 11  1  0  0  0  0
 10  9  2  0  0  0  0
 12 10  1  0  0  0  0
 13 12  2  0  0  0  0
 13 15  1  0  0  0  0
 14 13  1  0  0  0  0
 15 17  2  0  0  0  0
 16 15  1  0  0  0  0
 17  9  1  0  0  0  0
 18 19  1  0  0  0  0
 20 18  1  0  0  0  0
 21 18  1  0  0  0  0
M  END
>  <minimizedAffinity>
-4.68244362

$$$$

 OpenBabel03252503523D

 21 22  0  0  0  0  0  0  0  0999 V2000
   37.4380   31.5130   39.2950 C   0  0  0  0  0  0  0  0  0  0  0  0
   37.4520   30.5000   40.2730 C   0  0  0  0  0  0  0  0  0  0  0  0
   37.0200   29.2200   39.9270 C   0  0  0  0  0  0  0  0  0  0  0  0
   36.6070   29.0210   38.6600 N   0  0  0  0  0  0  0  0  0  0  0  0
   36.5960   30.0060   37.7210 C   0  0  0  0  0  0  0  0  0  0  0  0
   37.0110   31.2440   38.0440 N   0  0  0  0  0  0  0  0  0  0  0  0
   37.7850   30.6840   41.2740 H   0  0  0  0  0  0  0  0  0  0  0  0
   36.2560   29.8060   36.7090 H   0  0  0  0  0  0  0  0  0  0  0  0
   36.9920   28.1030   40.8500 C   0  0  0  0  0  0  0  0  0  0  0  0
   37.2690   26.8550   40.3350 C   0  0  0  0  0  0  0  0  0  0  0  0
   37.5010   26.6780   39.2960 H   0  0  0  0  0  0  0  0  0  0  0  0
   37.2670   25.7130   41.1410 C   0  0  0  0  0  3  0  0  0  0  0  0
   36.9790   25.8690   42.4790 C   0  0  0  0  0  0  0  0  0  0  0  0
   36.9730   25.0140   43.1090 H   0  0  0  0  0  0  0  0  0  0  0  0
   36.6970   27.1040   43.0260 C   0  0  0  0  0  0  0  0  0  0  0  0
   36.4690   27.2600   44.0600 H   0  0  0  0  0  0  0  0  0  0  0  0
   36.7070   28.2280   42.1930 C   0  0  0  0  0  3  0  0  0  0  0  0
   37.9110   32.8550   39.7310 C   0  0  0  0  0  0  0  0  0  0  0  0
   36.9880   33.8330   39.4470 F   0  0  0  0  0  0  0  0  0  0  0  0
   38.1560   32.7910   41.1050 F   0  0  0  0  0  0  0  0  0  0  0  0
   39.1420   33.1440   39.1420 F   0  0  0  0  0  0  0  0  0  0  0  0
  1 18  1  0  0  0  0
  1  2  1  0  0  0  0
  2  7  1  0  0  0  0
  3  2  2  0  0  0  0
  3  9  1  0  0  0  0
  4  3  1  0  0  0  0
  5  6  1  0  0  0  0
  5  4  2  0  0  0  0
  6  1  2  0  0  0  0
  8  5  1  0  0  0  0
  9 17  1  0  0  0  0
 10  9  2  0  0  0  0
 10 12  1  0  0  0  0
 11 10  1  0  0  0  0
 12 13  2  0  0  0  0
 13 15  1  0  0  0  0
 13 14  1  0  0  0  0
 15 16  1  0  0  0  0
 17 15  2  0  0  0  0
 18 20  1  0  0  0  0
 19 18  1  0  0  0  0
 21 18  1  0  0  0  0
M  END
>  <minimizedAffinity>
-4.60318518

$$$$

 OpenBabel03252503523D

 21 22  0  0  0  0  0  0  0  0999 V2000
   37.0130   30.2740   38.9570 C   0  0  0  0  0  0  0  0  0  0  0  0
   37.0990   28.8810   39.1390 C   0  0  0  0  0  0  0  0  0  0  0  0
   36.7270   28.3360   40.3680 C   0  0  0  0  0  0  0  0  0  0  0  0
   36.3020   29.1850   41.3250 N   0  0  0  0  0  0  0  0  0  0  0  0
   36.2240   30.5300   41.1400 C   0  0  0  0  0  0  0  0  0  0  0  0
   36.5790   31.0660   39.9590 N   0  0  0  0  0  0  0  0  0  0  0  0
   37.4390   28.2280   38.3620 H   0  0  0  0  0  0  0  0  0  0  0  0
   35.8760   31.1810   41.9360 H   0  0  0  0  0  0  0  0  0  0  0  0
   36.7740   26.9180   40.6670 C   0  0  0  0  0  0  0  0  0  0  0  0
   36.4980   26.0490   39.6340 C   0  0  0  0  0  0  0  0  0  0  0  0
   36.2530   26.3710   38.6340 H   0  0  0  0  0  0  0  0  0  0  0  0
   36.5160   24.6630   39.8180 C   0  0  0  0  0  3  0  0  0  0  0  0
   36.8210   24.1840   41.0730 C   0  0  0  0  0  0  0  0  0  0  0  0
   36.8400   23.1340   41.2330 H   0  0  0  0  0  0  0  0  0  0  0  0
   37.1020   25.0280   42.1290 C   0  0  0  0  0  0  0  0  0  0  0  0
   37.3420   24.6890   43.1140 H   0  0  0  0  0  0  0  0  0  0  0  0
   37.0750   26.4090   41.9120 C   0  0  0  0  0  3  0  0  0  0  0  0
   37.4250   30.7890   37.6220 C   0  0  0  0  0  0  0  0  0  0  0  0
   37.2850   32.1540   37.5430 F   0  0  0  0  0  0  0  0  0  0  0  0
   38.7560   30.4170   37.4180 F   0  0  0  0  0  0  0  0  0  0  0  0
   36.6980   30.1520   36.6170 F   0  0  0  0  0  0  0  0  0  0  0  0
  1  2  2  0  0  0  0
  1  6  1  0  0  0  0
  2  3  1  0  0  0  0
  3  9  1  0  0  0  0
  3  4  2  0  0  0  0
  5  4  1  0  0  0  0
  5  8  1  0  0  0  0
  6  5  2  0  0  0  0
  7  2  1  0  0  0  0
  9 17  1  0  0  0  0
 10 12  1  0  0  0  0
 10  9  2  0  0  0  0
 11 10  1  0  0  0  0
 12 13  2  0  0  0  0
 13 14  1  0  0  0  0
 13 15  1  0  0  0  0
 15 16  1  0  0  0  0
 17 15  2  0  0  0  0
 18  1  1  0  0  0  0
 19 18  1  0  0  0  0
 20 18  1  0  0  0  0
 21 18  1  0  0  0  0
M  END
>  <minimizedAffinity>
-4.57491446

$$$$

 OpenBabel03252503523D

 21 22  0  0  0  0  0  0  0  0999 V2000
   35.0940   29.1060   37.9230 C   0  0  0  0  0  0  0  0  0  0  0  0
   35.4100   28.7710   39.2540 C   0  0  0  0  0  0  0  0  0  0  0  0
   36.6860   29.0600   39.7380 C   0  0  0  0  0  0  0  0  0  0  0  0
   37.5560   29.6490   38.8940 N   0  0  0  0  0  0  0  0  0  0  0  0
   37.2420   29.9670   37.6100 C   0  0  0  0  0  0  0  0  0  0  0  0
   36.0140   29.6950   37.1330 N   0  0  0  0  0  0  0  0  0  0  0  0
   34.7000   28.3040   39.9040 H   0  0  0  0  0  0  0  0  0  0  0  0
   37.9710   30.4420   36.9600 H   0  0  0  0  0  0  0  0  0  0  0  0
   37.1210   28.7610   41.0880 C   0  0  0  0  0  0  0  0  0  0  0  0
   36.3510   27.8790   41.8150 C   0  0  0  0  0  0  0  0  0  0  0  0
   35.4580   27.4110   41.4310 H   0  0  0  0  0  0  0  0  0  0  0  0
   36.6830   27.5260   43.1260 C   0  0  0  0  0  3  0  0  0  0  0  0
   37.8130   28.0870   43.6790 C   0  0  0  0  0  0  0  0  0  0  0  0
   38.0830   27.8320   44.6730 H   0  0  0  0  0  0  0  0  0  0  0  0
   38.6050   28.9750   42.9780 C   0  0  0  0  0  0  0  0  0  0  0  0
   39.4880   29.4290   43.3760 H   0  0  0  0  0  0  0  0  0  0  0  0
   38.2450   29.3080   41.6680 C   0  0  0  0  0  3  0  0  0  0  0  0
   33.7160   28.7710   37.4710 C   0  0  0  0  0  0  0  0  0  0  0  0
   33.5540   27.4160   37.3060 F   0  0  0  0  0  0  0  0  0  0  0  0
   32.8260   29.2610   38.4300 F   0  0  0  0  0  0  0  0  0  0  0  0
   33.4170   29.4580   36.2940 F   0  0  0  0  0  0  0  0  0  0  0  0
  1  2  1  0  0  0  0
  2  3  2  0  0  0  0
  2  7  1  0  0  0  0
  3  9  1  0  0  0  0
  4  3  1  0  0  0  0
  5  4  2  0  0  0  0
  6  5  1  0  0  0  0
  6  1  2  0  0  0  0
  8  5  1  0  0  0  0
  9 17  2  0  0  0  0
  9 10  1  0  0  0  0
 10 12  2  0  0  0  0
 11 10  1  0  0  0  0
 12 13  1  0  0  0  0
 13 14  1  0  0  0  0
 15 16  1  0  0  0  0
 15 13  2  0  0  0  0
 17 15  1  0  0  0  0
 18  1  1  0  0  0  0
 18 20  1  0  0  0  0
 19 18  1  0  0  0  0
 21 18  1  0  0  0  0
M  END
>  <minimizedAffinity>
-4.49798441

$$$$

 OpenBabel03252503523D

 21 22  0  0  0  0  0  0  0  0999 V2000
   37.1470   30.1660   39.8960 C   0  0  0  0  0  0  0  0  0  0  0  0
   36.9980   28.7760   39.7200 C   0  0  0  0  0  0  0  0  0  0  0  0
   37.0530   27.9440   40.8370 C   0  0  0  0  0  0  0  0  0  0  0  0
   37.2500   28.5220   42.0380 N   0  0  0  0  0  0  0  0  0  0  0  0
   37.3940   29.8650   42.1980 C   0  0  0  0  0  0  0  0  0  0  0  0
   37.3410   30.6780   41.1280 N   0  0  0  0  0  0  0  0  0  0  0  0
   36.8420   28.3420   38.7540 H   0  0  0  0  0  0  0  0  0  0  0  0
   37.5510   30.2940   43.1840 H   0  0  0  0  0  0  0  0  0  0  0  0
   36.9120   26.5020   40.7750 C   0  0  0  0  0  0  0  0  0  0  0  0
   36.5130   25.9620   39.5710 C   0  0  0  0  0  0  0  0  0  0  0  0
   36.3050   26.5530   38.6920 H   0  0  0  0  0  0  0  0  0  0  0  0
   36.3470   24.5840   39.4060 C   0  0  0  0  0  3  0  0  0  0  0  0
   36.5950   23.7700   40.4900 C   0  0  0  0  0  0  0  0  0  0  0  0
   36.4750   22.7210   40.3850 H   0  0  0  0  0  0  0  0  0  0  0  0
   36.9950   24.2800   41.7090 C   0  0  0  0  0  0  0  0  0  0  0  0
   37.1960   23.6770   42.5690 H   0  0  0  0  0  0  0  0  0  0  0  0
   37.1520   25.6640   41.8410 C   0  0  0  0  0  3  0  0  0  0  0  0
   37.0770   30.9960   38.6620 C   0  0  0  0  0  0  0  0  0  0  0  0
   36.1590   30.4970   37.7690 F   0  0  0  0  0  0  0  0  0  0  0  0
   36.7360   32.2950   39.0470 F   0  0  0  0  0  0  0  0  0  0  0  0
   38.3400   31.0960   38.0800 F   0  0  0  0  0  0  0  0  0  0  0  0
  1  6  1  0  0  0  0
  2  1  2  0  0  0  0
  2  3  1  0  0  0  0
  3  4  2  0  0  0  0
  4  5  1  0  0  0  0
  5  8  1  0  0  0  0
  6  5  2  0  0  0  0
  7  2  1  0  0  0  0
  9  3  1  0  0  0  0
  9 17  1  0  0  0  0
 10  9  2  0  0  0  0
 11 10  1  0  0  0  0
 12 10  1  0  0  0  0
 12 13  2  0  0  0  0
 13 15  1  0  0  0  0
 14 13  1  0  0  0  0
 15 17  2  0  0  0  0
 15 16  1  0  0  0  0
 18 20  1  0  0  0  0
 18  1  1  0  0  0  0
 19 18  1  0  0  0  0
 21 18  1  0  0  0  0
M  END
>  <minimizedAffinity>
-4.4801755

$$$$
