
 OpenBabel03252508543D

 43 46  0  0  1  0  0  0  0  0999 V2000
   43.3030   34.4160   40.7600 C   0  0  0  0  0  0  0  0  0  0  0  0
   43.2350   35.6420   40.4010 O   0  0  0  0  0  0  0  0  0  0  0  0
   41.9510   33.9900   40.4550 N   0  0  0  0  0  0  0  0  0  0  0  0
   41.5780   34.1150   39.0610 C   0  0  0  0  0  0  0  0  0  0  0  0
   40.7530   35.4170   38.9900 C   0  0  0  0  0  0  0  0  0  0  0  0
   39.9610   35.4950   40.3070 C   0  0  0  0  0  0  0  0  0  0  0  0
   39.6380   34.1110   40.8260 C   0  0  0  0  0  0  0  0  0  0  0  0
   40.9240   33.4630   41.3310 C   0  0  1  0  0  0  0  0  0  0  0  0
   42.4400   34.1530   38.3730 H   0  0  0  0  0  0  0  0  0  0  0  0
   40.8810   33.3030   38.7360 H   0  0  0  0  0  0  0  0  0  0  0  0
   41.4160   36.3070   38.9600 H   0  0  0  0  0  0  0  0  0  0  0  0
   40.0970   35.4140   38.1100 H   0  0  0  0  0  0  0  0  0  0  0  0
   40.5420   36.0140   41.0830 H   0  0  0  0  0  0  0  0  0  0  0  0
   38.9720   35.9750   40.1020 H   0  0  0  0  0  0  0  0  0  0  0  0
   39.2020   33.5710   39.9660 H   0  0  0  0  0  0  0  0  0  0  0  0
   38.9320   34.2550   41.6650 H   0  0  0  0  0  0  0  0  0  0  0  0
   41.1100   33.9020   42.3360 H   0  0  0  0  0  0  0  0  0  0  0  0
   40.8430   32.0020   41.3740 C   0  0  0  0  0  0  0  0  0  0  0  0
   41.8290   31.3620   42.1060 C   0  0  0  0  0  0  0  0  0  0  0  0
   42.6190   31.8770   42.6230 H   0  0  0  0  0  0  0  0  0  0  0  0
   41.8900   29.9960   42.2430 C   0  0  0  0  0  3  0  0  0  0  0  0
   40.9380   29.2060   41.6320 C   0  0  0  0  0  0  0  0  0  0  0  0
   40.9730   28.1250   41.7310 H   0  0  0  0  0  0  0  0  0  0  0  0
   39.9290   29.8130   40.8850 C   0  0  0  0  0  0  0  0  0  0  0  0
   39.1640   29.2270   40.3910 H   0  0  0  0  0  0  0  0  0  0  0  0
   39.9090   31.1880   40.7760 C   0  0  0  0  0  3  0  0  0  0  0  0
   44.3880   33.7830   41.2740 O   0  0  0  0  0  0  0  0  0  0  0  0
   45.7110   34.1080   41.1080 C   0  0  0  0  0  0  0  0  0  0  0  0
   46.3510   34.7420   42.1840 C   0  0  0  0  0  0  0  0  0  0  0  0
   47.7070   35.0640   41.9910 C   0  0  0  0  0  0  0  0  0  0  0  0
   48.3000   34.7490   40.8000 N   0  0  0  0  0  0  0  0  0  0  0  0
   47.6330   34.1480   39.8230 C   0  0  0  0  0  0  0  0  0  0  0  0
   46.3390   33.8240   39.9690 N   0  0  0  0  0  0  0  0  0  0  0  0
   48.1840   35.5480   42.8190 H   0  0  0  0  0  0  0  0  0  0  0  0
   48.1730   33.9360   38.9200 H   0  0  0  0  0  0  0  0  0  0  0  0
   45.6290   35.0290   43.4010 C   0  0  0  0  0  0  0  0  0  0  0  0
   45.0000   36.2460   43.6400 C   0  0  0  0  0  0  0  0  0  0  0  0
   44.4500   36.0900   44.8850 C   0  0  0  0  0  0  0  0  0  0  0  0
   44.7230   34.8630   45.3740 N   0  0  0  0  0  0  0  0  0  0  0  0
   45.4300   34.2540   44.4600 N   0  0  0  0  0  0  0  0  0  0  0  0
   44.9770   37.0980   42.9650 H   0  0  0  0  0  0  0  0  0  0  0  0
   43.8710   36.8460   45.4150 H   0  0  0  0  0  0  0  0  0  0  0  0
   44.4660   34.4110   46.2800 H   0  0  0  0  0  0  0  0  0  0  0  0
  1 27  1  0  0  0  0
  2  1  2  0  0  0  0
  3  1  1  0  0  0  0
  3  8  1  0  0  0  0
  4  3  1  0  0  0  0
  5  4  1  0  0  0  0
  5  6  1  0  0  0  0
  6  7  1  0  0  0  0
  6 13  1  0  0  0  0
  7  8  1  0  0  0  0
  7 16  1  0  0  0  0
  8 18  1  0  0  0  0
  8 17  1  1  0  0  0
  9  4  1  0  0  0  0
 10  4  1  0  0  0  0
 11  5  1  0  0  0  0
 12  5  1  0  0  0  0
 14  6  1  0  0  0  0
 15  7  1  0  0  0  0
 18 19  1  0  0  0  0
 19 21  2  0  0  0  0
 19 20  1  0  0  0  0
 22 23  1  0  0  0  0
 22 21  1  0  0  0  0
 24 22  2  0  0  0  0
 25 24  1  0  0  0  0
 26 24  1  0  0  0  0
 26 18  2  0  0  0  0
 28 27  1  0  0  0  0
 28 29  1  0  0  0  0
 29 36  1  0  0  0  0
 30 29  2  0  0  0  0
 30 34  1  0  0  0  0
 31 30  1  0  0  0  0
 32 33  1  0  0  0  0
 32 31  2  0  0  0  0
 33 28  2  0  0  0  0
 35 32  1  0  0  0  0
 36 37  1  0  0  0  0
 36 40  2  0  0  0  0
 37 38  2  0  0  0  0
 38 39  1  0  0  0  0
 38 42  1  0  0  0  0
 39 43  1  0  0  0  0
 40 39  1  0  0  0  0
 41 37  1  0  0  0  0
M  END
>  <minimizedAffinity>
-6.63766336

>  <minimizedRMSD>
0.302130222

$$$$
