
 OpenBabel03252508333D

 32 34  0  0  1  0  0  0  0  0999 V2000
   38.3830   30.5450   40.9950 N   0  0  0  0  0  0  0  0  0  0  0  0
   37.1170   31.1180   40.7080 C   0  0  1  0  0  0  0  0  0  0  0  0
   37.1370   32.5240   40.2360 C   0  0  0  0  0  0  0  0  0  0  0  0
   38.1850   33.3500   40.6460 N   0  0  0  0  0  0  0  0  0  0  0  0
   39.4130   32.7700   40.9650 C   0  0  0  0  0  0  0  0  0  0  0  0
   39.5020   31.3200   40.5420 C   0  0  0  0  0  0  0  0  0  0  0  0
   36.5210   31.0860   41.6670 H   0  0  0  0  0  0  0  0  0  0  0  0
   36.1730   33.0160   40.5550 H   0  0  0  0  0  0  0  0  0  0  0  0
   37.1140   32.5290   39.1060 H   0  0  0  0  0  0  0  0  0  0  0  0
   38.1850   34.2280   40.1270 H   0  0  0  0  0  0  0  0  0  0  0  0
   40.2440   33.3050   40.4430 H   0  0  0  0  0  0  0  0  0  0  0  0
   39.6330   32.8780   42.0510 H   0  0  0  0  0  0  0  0  0  0  0  0
   40.4790   30.9710   40.9350 H   0  0  0  0  0  0  0  0  0  0  0  0
   39.5970   31.2860   39.4350 H   0  0  0  0  0  0  0  0  0  0  0  0
   37.8460   29.2810   42.9470 C   0  0  0  0  0  0  0  0  0  0  0  0
   38.4210   29.3040   41.6680 C   0  0  0  0  0  0  0  0  0  0  0  0
   38.9660   28.1230   41.2010 C   0  0  0  0  0  0  0  0  0  0  0  0
   38.9430   26.9930   41.9530 N   0  0  0  0  0  0  0  0  0  0  0  0
   38.3740   27.0080   43.1970 C   0  0  0  0  0  0  0  0  0  0  0  0
   37.8350   28.1500   43.6730 N   0  0  0  0  0  0  0  0  0  0  0  0
   37.3720   30.0730   43.5050 H   0  0  0  0  0  0  0  0  0  0  0  0
   39.4040   28.1390   40.2150 H   0  0  0  0  0  0  0  0  0  0  0  0
   38.4020   26.0620   43.7220 H   0  0  0  0  0  0  0  0  0  0  0  0
   36.3350   30.3410   39.7100 C   0  0  0  0  0  0  0  0  0  0  0  0
   35.2030   29.5780   40.0210 C   0  0  0  0  0  0  0  0  0  0  0  0
   34.8820   29.5590   41.0570 H   0  0  0  0  0  0  0  0  0  0  0  0
   34.4830   28.8580   39.0930 C   0  0  0  0  0  3  0  0  0  0  0  0
   34.8770   28.8710   37.7710 C   0  0  0  0  0  0  0  0  0  0  0  0
   34.2450   28.2750   37.1280 H   0  0  0  0  0  0  0  0  0  0  0  0
   35.9760   29.5970   37.4030 C   0  0  0  0  0  0  0  0  0  0  0  0
   36.2570   29.5870   36.3650 H   0  0  0  0  0  0  0  0  0  0  0  0
   36.6600   30.2990   38.3700 C   0  0  0  0  0  3  0  0  0  0  0  0
  1 16  1  0  0  0  0
  2  1  1  0  0  0  0
  2  7  1  1  0  0  0
  3  8  1  0  0  0  0
  3  4  1  0  0  0  0
  3  2  1  0  0  0  0
  4  5  1  0  0  0  0
  5 12  1  0  0  0  0
  6 13  1  0  0  0  0
  6  5  1  0  0  0  0
  6  1  1  0  0  0  0
  9  3  1  0  0  0  0
 10  4  1  0  0  0  0
 11  5  1  0  0  0  0
 14  6  1  0  0  0  0
 15 21  1  0  0  0  0
 15 20  1  0  0  0  0
 16 15  2  0  0  0  0
 17 16  1  0  0  0  0
 17 18  2  0  0  0  0
 18 19  1  0  0  0  0
 19 20  2  0  0  0  0
 19 23  1  0  0  0  0
 22 17  1  0  0  0  0
 24 25  1  0  0  0  0
 24  2  1  0  0  0  0
 25 26  1  0  0  0  0
 27 25  2  0  0  0  0
 28 27  1  0  0  0  0
 29 28  1  0  0  0  0
 30 28  2  0  0  0  0
 30 32  1  0  0  0  0
 31 30  1  0  0  0  0
 32 24  2  0  0  0  0
M  END
>  <minimizedAffinity>
-5.19213581

$$$$

 OpenBabel03252508333D

 32 34  0  0  1  0  0  0  0  0999 V2000
   38.3520   31.3660   40.9380 N   0  0  0  0  0  0  0  0  0  0  0  0
   37.2070   31.6430   40.1460 C   0  0  1  0  0  0  0  0  0  0  0  0
   37.1690   32.9830   39.5120 C   0  0  0  0  0  0  0  0  0  0  0  0
   37.8380   34.0360   40.1390 N   0  0  0  0  0  0  0  0  0  0  0  0
   38.9370   33.7480   40.9490 C   0  0  0  0  0  0  0  0  0  0  0  0
   39.4140   32.3200   40.8000 C   0  0  0  0  0  0  0  0  0  0  0  0
   36.3120   31.5600   40.8290 H   0  0  0  0  0  0  0  0  0  0  0  0
   36.0890   33.2870   39.3970 H   0  0  0  0  0  0  0  0  0  0  0  0
   37.5680   32.8980   38.4580 H   0  0  0  0  0  0  0  0  0  0  0  0
   37.8860   34.8540   39.5320 H   0  0  0  0  0  0  0  0  0  0  0  0
   39.8020   34.4030   40.6800 H   0  0  0  0  0  0  0  0  0  0  0  0
   38.7160   33.9800   42.0150 H   0  0  0  0  0  0  0  0  0  0  0  0
   40.2180   32.2110   41.5570 H   0  0  0  0  0  0  0  0  0  0  0  0
   39.9190   32.2240   39.8140 H   0  0  0  0  0  0  0  0  0  0  0  0
   39.5960   29.6770   42.0770 C   0  0  0  0  0  0  0  0  0  0  0  0
   38.3410   30.2140   41.7550 C   0  0  0  0  0  0  0  0  0  0  0  0
   37.2290   29.5680   42.2620 C   0  0  0  0  0  0  0  0  0  0  0  0
   37.3540   28.4590   43.0370 N   0  0  0  0  0  0  0  0  0  0  0  0
   38.5940   27.9630   43.3290 C   0  0  0  0  0  0  0  0  0  0  0  0
   39.6940   28.5790   42.8450 N   0  0  0  0  0  0  0  0  0  0  0  0
   40.5820   30.0100   41.7930 H   0  0  0  0  0  0  0  0  0  0  0  0
   36.2640   29.9850   42.0200 H   0  0  0  0  0  0  0  0  0  0  0  0
   38.5960   27.0780   43.9520 H   0  0  0  0  0  0  0  0  0  0  0  0
   36.9930   30.6480   39.0610 C   0  0  0  0  0  0  0  0  0  0  0  0
   35.8220   29.8980   38.9040 C   0  0  0  0  0  0  0  0  0  0  0  0
   35.0240   30.0590   39.6220 H   0  0  0  0  0  0  0  0  0  0  0  0
   35.6280   28.9760   37.8990 C   0  0  0  0  0  3  0  0  0  0  0  0
   36.6310   28.7590   36.9770 C   0  0  0  0  0  0  0  0  0  0  0  0
   36.3770   28.0180   36.2320 H   0  0  0  0  0  0  0  0  0  0  0  0
   37.8010   29.4600   37.0760 C   0  0  0  0  0  0  0  0  0  0  0  0
   38.5630   29.2680   36.3420 H   0  0  0  0  0  0  0  0  0  0  0  0
   37.9430   30.3700   38.1000 C   0  0  0  0  0  3  0  0  0  0  0  0
  1 16  1  0  0  0  0
  2  7  1  1  0  0  0
  2  1  1  0  0  0  0
  3  4  1  0  0  0  0
  3  2  1  0  0  0  0
  4  5  1  0  0  0  0
  5 12  1  0  0  0  0
  6  1  1  0  0  0  0
  6  5  1  0  0  0  0
  6 13  1  0  0  0  0
  8  3  1  0  0  0  0
  9  3  1  0  0  0  0
 10  4  1  0  0  0  0
 11  5  1  0  0  0  0
 14  6  1  0  0  0  0
 15 20  1  0  0  0  0
 16 15  2  0  0  0  0
 16 17  1  0  0  0  0
 17 18  2  0  0  0  0
 18 19  1  0  0  0  0
 19 23  1  0  0  0  0
 20 19  2  0  0  0  0
 21 15  1  0  0  0  0
 22 17  1  0  0  0  0
 24  2  1  0  0  0  0
 25 24  1  0  0  0  0
 25 26  1  0  0  0  0
 27 25  2  0  0  0  0
 28 30  2  0  0  0  0
 28 27  1  0  0  0  0
 29 28  1  0  0  0  0
 30 32  1  0  0  0  0
 31 30  1  0  0  0  0
 32 24  2  0  0  0  0
M  END
>  <minimizedAffinity>
-4.93414783

$$$$

 OpenBabel03252508333D

 32 34  0  0  1  0  0  0  0  0999 V2000
   39.0650   30.3930   39.1130 N   0  0  0  0  0  0  0  0  0  0  0  0
   37.9170   31.1190   38.7040 C   0  0  1  0  0  0  0  0  0  0  0  0
   38.0290   31.8280   37.4060 C   0  0  0  0  0  0  0  0  0  0  0  0
   39.2920   32.2500   36.9840 N   0  0  0  0  0  0  0  0  0  0  0  0
   40.4170   31.5540   37.4260 C   0  0  0  0  0  0  0  0  0  0  0  0
   40.0660   30.2420   38.0960 C   0  0  0  0  0  0  0  0  0  0  0  0
   37.7200   31.8930   39.5020 H   0  0  0  0  0  0  0  0  0  0  0  0
   37.3620   32.7370   37.4430 H   0  0  0  0  0  0  0  0  0  0  0  0
   37.5950   31.1730   36.5950 H   0  0  0  0  0  0  0  0  0  0  0  0
   39.2680   32.5660   36.0140 H   0  0  0  0  0  0  0  0  0  0  0  0
   41.0830   31.3030   36.5650 H   0  0  0  0  0  0  0  0  0  0  0  0
   41.0360   32.1870   38.1000 H   0  0  0  0  0  0  0  0  0  0  0  0
   41.0340   29.8500   38.4710 H   0  0  0  0  0  0  0  0  0  0  0  0
   39.7390   29.5280   37.3090 H   0  0  0  0  0  0  0  0  0  0  0  0
   39.2870   28.5120   40.5660 C   0  0  0  0  0  0  0  0  0  0  0  0
   39.1120   29.8980   40.4340 C   0  0  0  0  0  0  0  0  0  0  0  0
   38.9990   30.6330   41.5990 C   0  0  0  0  0  0  0  0  0  0  0  0
   39.0560   30.0320   42.8170 N   0  0  0  0  0  0  0  0  0  0  0  0
   39.2270   28.6780   42.9060 C   0  0  0  0  0  0  0  0  0  0  0  0
   39.3390   27.9410   41.7810 N   0  0  0  0  0  0  0  0  0  0  0  0
   39.3930   27.7550   39.8050 H   0  0  0  0  0  0  0  0  0  0  0  0
   38.8700   31.6980   41.4990 H   0  0  0  0  0  0  0  0  0  0  0  0
   39.2600   28.2900   43.9150 H   0  0  0  0  0  0  0  0  0  0  0  0
   36.6910   30.2810   38.6300 C   0  0  0  0  0  0  0  0  0  0  0  0
   35.8570   30.0120   39.7220 C   0  0  0  0  0  0  0  0  0  0  0  0
   36.1290   30.4470   40.6790 H   0  0  0  0  0  0  0  0  0  0  0  0
   34.7230   29.2330   39.6510 C   0  0  0  0  0  3  0  0  0  0  0  0
   34.3630   28.6720   38.4430 C   0  0  0  0  0  0  0  0  0  0  0  0
   33.4590   28.0810   38.4970 H   0  0  0  0  0  0  0  0  0  0  0  0
   35.1360   28.8960   37.3380 C   0  0  0  0  0  0  0  0  0  0  0  0
   34.8280   28.4440   36.4120 H   0  0  0  0  0  0  0  0  0  0  0  0
   36.2590   29.6820   37.4650 C   0  0  0  0  0  3  0  0  0  0  0  0
  1 16  1  0  0  0  0
  2  1  1  0  0  0  0
  2  7  1  1  0  0  0
  3  8  1  0  0  0  0
  3  2  1  0  0  0  0
  4  3  1  0  0  0  0
  4  5  1  0  0  0  0
  5  6  1  0  0  0  0
  5 12  1  0  0  0  0
  6 13  1  0  0  0  0
  6  1  1  0  0  0  0
  9  3  1  0  0  0  0
 10  4  1  0  0  0  0
 11  5  1  0  0  0  0
 14  6  1  0  0  0  0
 15 20  1  0  0  0  0
 16 15  2  0  0  0  0
 16 17  1  0  0  0  0
 17 18  2  0  0  0  0
 18 19  1  0  0  0  0
 19 23  1  0  0  0  0
 20 19  2  0  0  0  0
 21 15  1  0  0  0  0
 22 17  1  0  0  0  0
 24  2  1  0  0  0  0
 24 25  1  0  0  0  0
 25 26  1  0  0  0  0
 27 25  2  0  0  0  0
 28 29  1  0  0  0  0
 28 27  1  0  0  0  0
 30 32  1  0  0  0  0
 30 28  2  0  0  0  0
 31 30  1  0  0  0  0
 32 24  2  0  0  0  0
M  END
>  <minimizedAffinity>
-4.92167282

$$$$

 OpenBabel03252508333D

 32 34  0  0  1  0  0  0  0  0999 V2000
   36.7410   30.0120   39.1190 N   0  0  0  0  0  0  0  0  0  0  0  0
   35.9160   29.7220   40.2360 C   0  0  1  0  0  0  0  0  0  0  0  0
   34.7140   28.8980   39.9560 C   0  0  0  0  0  0  0  0  0  0  0  0
   34.1450   28.9640   38.6830 N   0  0  0  0  0  0  0  0  0  0  0  0
   34.9560   29.2920   37.5970 C   0  0  0  0  0  0  0  0  0  0  0  0
   36.4300   29.2570   37.9390 C   0  0  0  0  0  0  0  0  0  0  0  0
   35.5650   30.7130   40.6480 H   0  0  0  0  0  0  0  0  0  0  0  0
   33.9150   29.1770   40.7010 H   0  0  0  0  0  0  0  0  0  0  0  0
   34.9570   27.8160   40.1700 H   0  0  0  0  0  0  0  0  0  0  0  0
   33.4400   28.2370   38.5580 H   0  0  0  0  0  0  0  0  0  0  0  0
   34.8060   28.5640   36.7630 H   0  0  0  0  0  0  0  0  0  0  0  0
   34.6740   30.2820   37.1750 H   0  0  0  0  0  0  0  0  0  0  0  0
   36.9400   29.6220   37.0240 H   0  0  0  0  0  0  0  0  0  0  0  0
   36.7370   28.1940   38.0470 H   0  0  0  0  0  0  0  0  0  0  0  0
   37.3320   32.2780   39.5830 C   0  0  0  0  0  0  0  0  0  0  0  0
   37.7590   30.9800   39.2690 C   0  0  0  0  0  0  0  0  0  0  0  0
   39.1190   30.7780   39.1350 C   0  0  0  0  0  0  0  0  0  0  0  0
   40.0000   31.7990   39.3010 N   0  0  0  0  0  0  0  0  0  0  0  0
   39.5470   33.0530   39.6060 C   0  0  0  0  0  0  0  0  0  0  0  0
   38.2220   33.2720   39.7420 N   0  0  0  0  0  0  0  0  0  0  0  0
   36.3330   32.6590   39.7300 H   0  0  0  0  0  0  0  0  0  0  0  0
   39.4490   29.7790   38.8990 H   0  0  0  0  0  0  0  0  0  0  0  0
   40.3200   33.8010   39.7200 H   0  0  0  0  0  0  0  0  0  0  0  0
   36.6480   29.0500   41.3440 C   0  0  0  0  0  0  0  0  0  0  0  0
   37.4260   29.7240   42.2920 C   0  0  0  0  0  0  0  0  0  0  0  0
   37.4930   30.8040   42.2090 H   0  0  0  0  0  0  0  0  0  0  0  0
   38.1040   29.0980   43.3160 C   0  0  0  0  0  3  0  0  0  0  0  0
   38.0280   27.7260   43.4370 C   0  0  0  0  0  0  0  0  0  0  0  0
   38.5950   27.3370   44.2720 H   0  0  0  0  0  0  0  0  0  0  0  0
   37.2850   27.0090   42.5410 C   0  0  0  0  0  0  0  0  0  0  0  0
   37.2470   25.9410   42.6630 H   0  0  0  0  0  0  0  0  0  0  0  0
   36.6270   27.6840   41.5370 C   0  0  0  0  0  3  0  0  0  0  0  0
  1 16  1  0  0  0  0
  1  2  1  0  0  0  0
  2  7  1  1  0  0  0
  2 24  1  0  0  0  0
  3  9  1  0  0  0  0
  3  2  1  0  0  0  0
  3  8  1  0  0  0  0
  4  3  1  0  0  0  0
  5  6  1  0  0  0  0
  5  4  1  0  0  0  0
  6 14  1  0  0  0  0
  6  1  1  0  0  0  0
 10  4  1  0  0  0  0
 11  5  1  0  0  0  0
 12  5  1  0  0  0  0
 13  6  1  0  0  0  0
 15 21  1  0  0  0  0
 15 20  1  0  0  0  0
 16 15  2  0  0  0  0
 17 16  1  0  0  0  0
 17 18  2  0  0  0  0
 18 19  1  0  0  0  0
 19 23  1  0  0  0  0
 19 20  2  0  0  0  0
 22 17  1  0  0  0  0
 24 32  2  0  0  0  0
 24 25  1  0  0  0  0
 25 27  2  0  0  0  0
 26 25  1  0  0  0  0
 27 28  1  0  0  0  0
 28 29  1  0  0  0  0
 30 31  1  0  0  0  0
 30 28  2  0  0  0  0
 32 30  1  0  0  0  0
M  END
>  <minimizedAffinity>
-4.89705324

$$$$

 OpenBabel03252508333D

 32 34  0  0  1  0  0  0  0  0999 V2000
   38.0760   30.8030   40.1360 N   0  0  0  0  0  0  0  0  0  0  0  0
   38.9320   30.0750   41.0030 C   0  0  1  0  0  0  0  0  0  0  0  0
   39.5850   30.8620   42.0770 C   0  0  0  0  0  0  0  0  0  0  0  0
   39.8300   32.2180   41.8540 N   0  0  0  0  0  0  0  0  0  0  0  0
   39.0090   32.9140   40.9680 C   0  0  0  0  0  0  0  0  0  0  0  0
   37.7720   32.1320   40.5810 C   0  0  0  0  0  0  0  0  0  0  0  0
   39.7460   29.6300   40.3590 H   0  0  0  0  0  0  0  0  0  0  0  0
   40.5720   30.3730   42.3210 H   0  0  0  0  0  0  0  0  0  0  0  0
   38.9680   30.7720   43.0200 H   0  0  0  0  0  0  0  0  0  0  0  0
   40.1200   32.6850   42.7140 H   0  0  0  0  0  0  0  0  0  0  0  0
   38.6520   33.8660   41.4320 H   0  0  0  0  0  0  0  0  0  0  0  0
   39.5760   33.2260   40.0620 H   0  0  0  0  0  0  0  0  0  0  0  0
   37.2700   32.7590   39.8160 H   0  0  0  0  0  0  0  0  0  0  0  0
   37.0830   32.1190   41.4540 H   0  0  0  0  0  0  0  0  0  0  0  0
   36.2240   30.0940   38.8080 C   0  0  0  0  0  0  0  0  0  0  0  0
   37.6160   30.1710   38.9600 C   0  0  0  0  0  0  0  0  0  0  0  0
   38.3910   29.6230   37.9560 C   0  0  0  0  0  0  0  0  0  0  0  0
   37.8220   29.0360   36.8710 N   0  0  0  0  0  0  0  0  0  0  0  0
   36.4600   28.9780   36.7570 C   0  0  0  0  0  0  0  0  0  0  0  0
   35.6840   29.5080   37.7270 N   0  0  0  0  0  0  0  0  0  0  0  0
   35.4380   30.4470   39.4590 H   0  0  0  0  0  0  0  0  0  0  0  0
   39.4610   29.6870   38.0690 H   0  0  0  0  0  0  0  0  0  0  0  0
   36.0980   28.4930   35.8600 H   0  0  0  0  0  0  0  0  0  0  0  0
   38.2540   28.9260   41.6630 C   0  0  0  0  0  0  0  0  0  0  0  0
   37.5450   29.0200   42.8660 C   0  0  0  0  0  0  0  0  0  0  0  0
   37.4900   29.9940   43.3400 H   0  0  0  0  0  0  0  0  0  0  0  0
   36.9210   27.9530   43.4760 C   0  0  0  0  0  3  0  0  0  0  0  0
   36.9800   26.7080   42.8870 C   0  0  0  0  0  0  0  0  0  0  0  0
   36.4580   25.9430   43.4450 H   0  0  0  0  0  0  0  0  0  0  0  0
   37.6590   26.5500   41.7100 C   0  0  0  0  0  0  0  0  0  0  0  0
   37.6870   25.5660   41.2760 H   0  0  0  0  0  0  0  0  0  0  0  0
   38.2650   27.6490   41.1430 C   0  0  0  0  0  3  0  0  0  0  0  0
  1  6  1  0  0  0  0
  1  2  1  0  0  0  0
  2  7  1  6  0  0  0
  2 24  1  0  0  0  0
  2  3  1  0  0  0  0
  3  8  1  0  0  0  0
  3  9  1  0  0  0  0
  4  3  1  0  0  0  0
  4 10  1  0  0  0  0
  5 11  1  0  0  0  0
  5  4  1  0  0  0  0
  6  5  1  0  0  0  0
  6 14  1  0  0  0  0
 12  5  1  0  0  0  0
 13  6  1  0  0  0  0
 15 16  1  0  0  0  0
 15 21  1  0  0  0  0
 16  1  1  0  0  0  0
 17 22  1  0  0  0  0
 17 16  2  0  0  0  0
 18 17  1  0  0  0  0
 19 18  2  0  0  0  0
 19 20  1  0  0  0  0
 20 15  2  0  0  0  0
 23 19  1  0  0  0  0
 24 25  1  0  0  0  0
 25 26  1  0  0  0  0
 25 27  2  0  0  0  0
 28 29  1  0  0  0  0
 28 27  1  0  0  0  0
 30 28  2  0  0  0  0
 31 30  1  0  0  0  0
 32 24  2  0  0  0  0
 32 30  1  0  0  0  0
M  END
>  <minimizedAffinity>
-4.85780191

$$$$

 OpenBabel03252508333D

 32 34  0  0  1  0  0  0  0  0999 V2000
   38.1670   29.2830   40.9820 N   0  0  0  0  0  0  0  0  0  0  0  0
   37.0540   28.6690   41.6120 C   0  0  1  0  0  0  0  0  0  0  0  0
   35.7300   29.2670   41.3110 C   0  0  0  0  0  0  0  0  0  0  0  0
   35.6710   30.6240   40.9860 N   0  0  0  0  0  0  0  0  0  0  0  0
   36.7860   31.2270   40.4050 C   0  0  0  0  0  0  0  0  0  0  0  0
   37.8240   30.2220   39.9530 C   0  0  0  0  0  0  0  0  0  0  0  0
   37.2230   28.7520   42.7260 H   0  0  0  0  0  0  0  0  0  0  0  0
   35.0580   29.1010   42.2020 H   0  0  0  0  0  0  0  0  0  0  0  0
   35.2530   28.6880   40.4670 H   0  0  0  0  0  0  0  0  0  0  0  0
   34.7460   30.8770   40.6360 H   0  0  0  0  0  0  0  0  0  0  0  0
   36.4880   31.8060   39.4980 H   0  0  0  0  0  0  0  0  0  0  0  0
   37.2370   31.9750   41.0950 H   0  0  0  0  0  0  0  0  0  0  0  0
   38.6770   30.8370   39.6030 H   0  0  0  0  0  0  0  0  0  0  0  0
   37.4360   29.7060   39.0480 H   0  0  0  0  0  0  0  0  0  0  0  0
   40.3590   28.5430   40.3960 C   0  0  0  0  0  0  0  0  0  0  0  0
   39.4640   28.9200   41.4070 C   0  0  0  0  0  0  0  0  0  0  0  0
   39.9330   28.8950   42.7070 C   0  0  0  0  0  0  0  0  0  0  0  0
   41.2090   28.5210   42.9860 N   0  0  0  0  0  0  0  0  0  0  0  0
   42.0540   28.1580   41.9730 C   0  0  0  0  0  0  0  0  0  0  0  0
   41.6160   28.1760   40.6970 N   0  0  0  0  0  0  0  0  0  0  0  0
   40.2100   28.4860   39.3290 H   0  0  0  0  0  0  0  0  0  0  0  0
   39.2470   29.1910   43.4840 H   0  0  0  0  0  0  0  0  0  0  0  0
   43.0490   27.8760   42.2900 H   0  0  0  0  0  0  0  0  0  0  0  0
   36.9440   27.2150   41.3190 C   0  0  0  0  0  0  0  0  0  0  0  0
   36.6650   26.6890   40.0520 C   0  0  0  0  0  0  0  0  0  0  0  0
   36.5210   27.3920   39.2390 H   0  0  0  0  0  0  0  0  0  0  0  0
   36.5620   25.3410   39.7850 C   0  0  0  0  0  3  0  0  0  0  0  0
   36.7420   24.4330   40.8070 C   0  0  0  0  0  0  0  0  0  0  0  0
   36.6420   23.4040   40.4900 H   0  0  0  0  0  0  0  0  0  0  0  0
   37.0180   24.8830   42.0690 C   0  0  0  0  0  0  0  0  0  0  0  0
   37.1520   24.1500   42.8430 H   0  0  0  0  0  0  0  0  0  0  0  0
   37.1090   26.2400   42.2810 C   0  0  0  0  0  3  0  0  0  0  0  0
  1 16  1  0  0  0  0
  1  2  1  0  0  0  0
  2  7  1  1  0  0  0
  3  2  1  0  0  0  0
  3  8  1  0  0  0  0
  4  3  1  0  0  0  0
  5  4  1  0  0  0  0
  5 12  1  0  0  0  0
  6  5  1  0  0  0  0
  6  1  1  0  0  0  0
  9  3  1  0  0  0  0
 10  4  1  0  0  0  0
 11  5  1  0  0  0  0
 13  6  1  0  0  0  0
 14  6  1  0  0  0  0
 15 20  2  0  0  0  0
 15 16  1  0  0  0  0
 16 17  2  0  0  0  0
 17 18  1  0  0  0  0
 17 22  1  0  0  0  0
 19 23  1  0  0  0  0
 19 18  2  0  0  0  0
 20 19  1  0  0  0  0
 21 15  1  0  0  0  0
 24  2  1  0  0  0  0
 24 32  1  0  0  0  0
 25 24  2  0  0  0  0
 26 25  1  0  0  0  0
 27 25  1  0  0  0  0
 27 28  2  0  0  0  0
 28 30  1  0  0  0  0
 29 28  1  0  0  0  0
 30 32  2  0  0  0  0
 30 31  1  0  0  0  0
M  END
>  <minimizedAffinity>
-4.823843

$$$$

 OpenBabel03252508333D

 32 34  0  0  1  0  0  0  0  0999 V2000
   37.1580   30.1460   39.3350 N   0  0  0  0  0  0  0  0  0  0  0  0
   36.1740   29.6500   40.2280 C   0  0  1  0  0  0  0  0  0  0  0  0
   35.1070   28.8180   39.6180 C   0  0  0  0  0  0  0  0  0  0  0  0
   34.7670   29.0460   38.2830 N   0  0  0  0  0  0  0  0  0  0  0  0
   35.7310   29.5730   37.4230 C   0  0  0  0  0  0  0  0  0  0  0  0
   37.1190   29.5620   38.0250 C   0  0  0  0  0  0  0  0  0  0  0  0
   35.6800   30.5490   40.7010 H   0  0  0  0  0  0  0  0  0  0  0  0
   34.1700   28.9410   40.2330 H   0  0  0  0  0  0  0  0  0  0  0  0
   35.3910   27.7290   39.7220 H   0  0  0  0  0  0  0  0  0  0  0  0
   34.1540   28.3100   37.9300 H   0  0  0  0  0  0  0  0  0  0  0  0
   35.7860   28.9720   36.4830 H   0  0  0  0  0  0  0  0  0  0  0  0
   35.4510   30.6000   37.0970 H   0  0  0  0  0  0  0  0  0  0  0  0
   37.7530   30.0850   37.2800 H   0  0  0  0  0  0  0  0  0  0  0  0
   37.4830   28.5110   38.0400 H   0  0  0  0  0  0  0  0  0  0  0  0
   39.4190   30.8230   39.6890 C   0  0  0  0  0  0  0  0  0  0  0  0
   38.0560   31.1300   39.8040 C   0  0  0  0  0  0  0  0  0  0  0  0
   37.7290   32.3510   40.3630 C   0  0  0  0  0  0  0  0  0  0  0  0
   38.6940   33.2120   40.7810 N   0  0  0  0  0  0  0  0  0  0  0  0
   40.0130   32.8780   40.6540 C   0  0  0  0  0  0  0  0  0  0  0  0
   40.3540   31.6900   40.1100 N   0  0  0  0  0  0  0  0  0  0  0  0
   39.8960   29.9400   39.2930 H   0  0  0  0  0  0  0  0  0  0  0  0
   36.6810   32.5900   40.4460 H   0  0  0  0  0  0  0  0  0  0  0  0
   40.7090   33.6250   41.0130 H   0  0  0  0  0  0  0  0  0  0  0  0
   36.7480   28.8570   41.3480 C   0  0  0  0  0  0  0  0  0  0  0  0
   37.2710   29.4180   42.5190 C   0  0  0  0  0  0  0  0  0  0  0  0
   37.2510   30.4990   42.6090 H   0  0  0  0  0  0  0  0  0  0  0  0
   37.8040   28.6810   43.5540 C   0  0  0  0  0  3  0  0  0  0  0  0
   37.8360   27.3050   43.4580 C   0  0  0  0  0  0  0  0  0  0  0  0
   38.2730   26.8240   44.3220 H   0  0  0  0  0  0  0  0  0  0  0  0
   37.3410   26.6950   42.3380 C   0  0  0  0  0  0  0  0  0  0  0  0
   37.3820   25.6220   42.2940 H   0  0  0  0  0  0  0  0  0  0  0  0
   36.8200   27.4790   41.3340 C   0  0  0  0  0  3  0  0  0  0  0  0
  1 16  1  0  0  0  0
  1  2  1  0  0  0  0
  2  7  1  1  0  0  0
  2 24  1  0  0  0  0
  3  9  1  0  0  0  0
  3  2  1  0  0  0  0
  3  8  1  0  0  0  0
  4  3  1  0  0  0  0
  5  6  1  0  0  0  0
  5  4  1  0  0  0  0
  6 14  1  0  0  0  0
  6  1  1  0  0  0  0
 10  4  1  0  0  0  0
 11  5  1  0  0  0  0
 12  5  1  0  0  0  0
 13  6  1  0  0  0  0
 15 16  2  0  0  0  0
 15 20  1  0  0  0  0
 16 17  1  0  0  0  0
 17 22  1  0  0  0  0
 17 18  2  0  0  0  0
 19 18  1  0  0  0  0
 19 23  1  0  0  0  0
 20 19  2  0  0  0  0
 21 15  1  0  0  0  0
 24 25  1  0  0  0  0
 25 26  1  0  0  0  0
 25 27  2  0  0  0  0
 28 27  1  0  0  0  0
 28 29  1  0  0  0  0
 30 28  2  0  0  0  0
 31 30  1  0  0  0  0
 32 24  2  0  0  0  0
 32 30  1  0  0  0  0
M  END
>  <minimizedAffinity>
-4.81032276

$$$$

 OpenBabel03252508333D

 32 34  0  0  1  0  0  0  0  0999 V2000
   37.1350   30.0460   39.3560 N   0  0  0  0  0  0  0  0  0  0  0  0
   36.1740   29.6160   40.3070 C   0  0  1  0  0  0  0  0  0  0  0  0
   35.0390   28.8290   39.7660 C   0  0  0  0  0  0  0  0  0  0  0  0
   34.6440   29.0500   38.4460 N   0  0  0  0  0  0  0  0  0  0  0  0
   35.5870   29.5140   37.5290 C   0  0  0  0  0  0  0  0  0  0  0  0
   37.0020   29.4420   38.0610 C   0  0  0  0  0  0  0  0  0  0  0  0
   35.7510   30.5470   40.7850 H   0  0  0  0  0  0  0  0  0  0  0  0
   34.1410   29.0100   40.4250 H   0  0  0  0  0  0  0  0  0  0  0  0
   35.2730   27.7290   39.8780 H   0  0  0  0  0  0  0  0  0  0  0  0
   33.9780   28.3410   38.1380 H   0  0  0  0  0  0  0  0  0  0  0  0
   35.5650   28.8940   36.6000 H   0  0  0  0  0  0  0  0  0  0  0  0
   35.3430   30.5470   37.1960 H   0  0  0  0  0  0  0  0  0  0  0  0
   37.6230   29.9200   37.2760 H   0  0  0  0  0  0  0  0  0  0  0  0
   37.3130   28.3750   38.0790 H   0  0  0  0  0  0  0  0  0  0  0  0
   37.6100   32.2330   40.1880 C   0  0  0  0  0  0  0  0  0  0  0  0
   38.1040   30.9910   39.7600 C   0  0  0  0  0  0  0  0  0  0  0  0
   39.4750   30.8190   39.7730 C   0  0  0  0  0  0  0  0  0  0  0  0
   40.3040   31.8150   40.1840 N   0  0  0  0  0  0  0  0  0  0  0  0
   39.7870   33.0120   40.5930 C   0  0  0  0  0  0  0  0  0  0  0  0
   38.4500   33.2020   40.5890 N   0  0  0  0  0  0  0  0  0  0  0  0
   36.5930   32.5830   40.2580 H   0  0  0  0  0  0  0  0  0  0  0  0
   39.8540   29.8630   39.4500 H   0  0  0  0  0  0  0  0  0  0  0  0
   40.5220   33.7440   40.9020 H   0  0  0  0  0  0  0  0  0  0  0  0
   36.7640   28.8150   41.4120 C   0  0  0  0  0  0  0  0  0  0  0  0
   36.8510   27.4180   41.4090 C   0  0  0  0  0  0  0  0  0  0  0  0
   36.4620   26.8940   40.5420 H   0  0  0  0  0  0  0  0  0  0  0  0
   37.3960   26.6790   42.4370 C   0  0  0  0  0  3  0  0  0  0  0  0
   37.8950   27.3280   43.5460 C   0  0  0  0  0  0  0  0  0  0  0  0
   38.3000   26.6570   44.2910 H   0  0  0  0  0  0  0  0  0  0  0  0
   37.8400   28.6930   43.6110 C   0  0  0  0  0  0  0  0  0  0  0  0
   38.2370   29.1690   44.4890 H   0  0  0  0  0  0  0  0  0  0  0  0
   37.2840   29.3830   42.5570 C   0  0  0  0  0  3  0  0  0  0  0  0
  1 16  1  0  0  0  0
  1  2  1  0  0  0  0
  2  7  1  1  0  0  0
  2 24  1  0  0  0  0
  3  9  1  0  0  0  0
  3  2  1  0  0  0  0
  3  8  1  0  0  0  0
  4  3  1  0  0  0  0
  5  6  1  0  0  0  0
  5  4  1  0  0  0  0
  6 14  1  0  0  0  0
  6  1  1  0  0  0  0
 10  4  1  0  0  0  0
 11  5  1  0  0  0  0
 12  5  1  0  0  0  0
 13  6  1  0  0  0  0
 15 21  1  0  0  0  0
 15 20  1  0  0  0  0
 16 17  1  0  0  0  0
 16 15  2  0  0  0  0
 17 18  2  0  0  0  0
 18 19  1  0  0  0  0
 19 23  1  0  0  0  0
 20 19  2  0  0  0  0
 22 17  1  0  0  0  0
 24 32  1  0  0  0  0
 25 24  2  0  0  0  0
 25 27  1  0  0  0  0
 26 25  1  0  0  0  0
 27 28  2  0  0  0  0
 28 30  1  0  0  0  0
 28 29  1  0  0  0  0
 30 31  1  0  0  0  0
 32 30  2  0  0  0  0
M  END
>  <minimizedAffinity>
-4.81019306

$$$$

 OpenBabel03252508333D

 32 34  0  0  1  0  0  0  0  0999 V2000
   38.9700   30.7670   40.7690 N   0  0  0  0  0  0  0  0  0  0  0  0
   37.8250   30.6040   41.5900 C   0  0  1  0  0  0  0  0  0  0  0  0
   36.5660   31.1920   41.0670 C   0  0  0  0  0  0  0  0  0  0  0  0
   36.6500   32.2980   40.2200 N   0  0  0  0  0  0  0  0  0  0  0  0
   37.7990   32.4700   39.4490 C   0  0  0  0  0  0  0  0  0  0  0  0
   38.6900   31.2470   39.4470 C   0  0  0  0  0  0  0  0  0  0  0  0
   38.0560   31.1070   42.5750 H   0  0  0  0  0  0  0  0  0  0  0  0
   35.9230   31.4840   41.9470 H   0  0  0  0  0  0  0  0  0  0  0  0
   35.9860   30.3860   40.5290 H   0  0  0  0  0  0  0  0  0  0  0  0
   35.7450   32.5030   39.7940 H   0  0  0  0  0  0  0  0  0  0  0  0
   37.5270   32.6680   38.3830 H   0  0  0  0  0  0  0  0  0  0  0  0
   38.3660   33.3700   39.7770 H   0  0  0  0  0  0  0  0  0  0  0  0
   39.5910   31.5570   38.8800 H   0  0  0  0  0  0  0  0  0  0  0  0
   38.2020   30.4640   38.8270 H   0  0  0  0  0  0  0  0  0  0  0  0
   40.6280   31.1860   42.4350 C   0  0  0  0  0  0  0  0  0  0  0  0
   40.2350   30.4470   41.3100 C   0  0  0  0  0  0  0  0  0  0  0  0
   41.1170   29.4910   40.8430 C   0  0  0  0  0  0  0  0  0  0  0  0
   42.3130   29.2810   41.4540 N   0  0  0  0  0  0  0  0  0  0  0  0
   42.6630   30.0220   42.5490 C   0  0  0  0  0  0  0  0  0  0  0  0
   41.8150   30.9610   43.0220 N   0  0  0  0  0  0  0  0  0  0  0  0
   40.1080   31.9720   42.9600 H   0  0  0  0  0  0  0  0  0  0  0  0
   40.8130   28.9190   39.9810 H   0  0  0  0  0  0  0  0  0  0  0  0
   43.6320   29.7850   42.9680 H   0  0  0  0  0  0  0  0  0  0  0  0
   37.5330   29.1820   41.9120 C   0  0  0  0  0  0  0  0  0  0  0  0
   37.2710   28.1980   40.9510 C   0  0  0  0  0  0  0  0  0  0  0  0
   37.2830   28.5000   39.9090 H   0  0  0  0  0  0  0  0  0  0  0  0
   37.0000   26.8810   41.2520 C   0  0  0  0  0  3  0  0  0  0  0  0
   36.9800   26.4800   42.5720 C   0  0  0  0  0  0  0  0  0  0  0  0
   36.7580   25.4290   42.6980 H   0  0  0  0  0  0  0  0  0  0  0  0
   37.2280   27.3930   43.5590 C   0  0  0  0  0  0  0  0  0  0  0  0
   37.2050   27.0490   44.5770 H   0  0  0  0  0  0  0  0  0  0  0  0
   37.4930   28.6960   43.2020 C   0  0  0  0  0  3  0  0  0  0  0  0
  1 16  1  0  0  0  0
  1  2  1  0  0  0  0
  2 24  1  0  0  0  0
  2  7  1  1  0  0  0
  3  2  1  0  0  0  0
  3  8  1  0  0  0  0
  4  3  1  0  0  0  0
  5 12  1  0  0  0  0
  5  4  1  0  0  0  0
  6  5  1  0  0  0  0
  6  1  1  0  0  0  0
  9  3  1  0  0  0  0
 10  4  1  0  0  0  0
 11  5  1  0  0  0  0
 13  6  1  0  0  0  0
 14  6  1  0  0  0  0
 15 21  1  0  0  0  0
 15 20  1  0  0  0  0
 16 15  2  0  0  0  0
 17 16  1  0  0  0  0
 17 18  2  0  0  0  0
 18 19  1  0  0  0  0
 19 23  1  0  0  0  0
 19 20  2  0  0  0  0
 22 17  1  0  0  0  0
 24 32  1  0  0  0  0
 25 27  1  0  0  0  0
 25 24  2  0  0  0  0
 26 25  1  0  0  0  0
 27 28  2  0  0  0  0
 28 29  1  0  0  0  0
 28 30  1  0  0  0  0
 30 31  1  0  0  0  0
 32 30  2  0  0  0  0
M  END
>  <minimizedAffinity>
-4.74146175

$$$$
