
 OpenBabel03252508303D

 39 42  0  0  1  0  0  0  0  0999 V2000
   36.4470   30.3960   39.6570 N   0  0  0  0  0  0  0  0  0  0  0  0
   36.8990   31.2140   38.5290 C   0  0  2  0  0  0  0  0  0  0  0  0
   37.2690   30.4330   37.3490 C   0  0  0  0  0  0  0  0  0  0  0  0
   37.1570   28.9880   37.4840 N   0  0  0  0  0  0  0  0  0  0  0  0
   37.3950   28.4340   38.7630 C   0  0  0  0  0  0  0  0  0  0  0  0
   37.5220   29.4650   39.8640 C   0  0  2  0  0  0  0  0  0  0  0  0
   36.3220   31.0800   40.4210 H   0  0  0  0  0  0  0  0  0  0  0  0
   36.0240   31.9240   38.3820 H   0  0  0  0  0  0  0  0  0  0  0  0
   36.4170   30.6390   36.6070 H   0  0  0  0  0  0  0  0  0  0  0  0
   38.1190   30.6960   36.7400 H   0  0  0  0  0  0  0  0  0  0  0  0
   36.2590   28.5920   37.1340 H   0  0  0  0  0  0  0  0  0  0  0  0
   38.3650   27.8770   38.7080 H   0  0  0  0  0  0  0  0  0  0  0  0
   36.6210   27.7010   39.0930 H   0  0  0  0  0  0  0  0  0  0  0  0
   38.4920   29.9690   39.7710 H   0  0  0  0  0  0  0  0  0  0  0  0
   37.4860   28.8030   41.1850 C   0  0  0  0  0  0  0  0  0  0  0  0
   37.0750   27.4690   41.2940 C   0  0  0  0  0  0  0  0  0  0  0  0
   36.7720   26.8830   40.4220 H   0  0  0  0  0  0  0  0  0  0  0  0
   37.0430   26.8560   42.5300 C   0  0  0  0  0  3  0  0  0  0  0  0
   37.4190   27.5550   43.6780 C   0  0  0  0  0  0  0  0  0  0  0  0
   37.3900   27.0650   44.6440 H   0  0  0  0  0  0  0  0  0  0  0  0
   37.8160   28.8500   43.5540 C   0  0  0  0  0  0  0  0  0  0  0  0
   38.0980   29.3570   44.4640 H   0  0  0  0  0  0  0  0  0  0  0  0
   37.8530   29.4700   42.3440 C   0  0  0  0  0  3  0  0  0  0  0  0
   39.9000   33.0470   39.2610 C   0  0  0  0  0  0  0  0  0  0  0  0
   39.0000   33.5620   40.1650 C   0  0  0  0  0  0  0  0  0  0  0  0
   37.7640   32.9130   39.9620 C   0  0  0  0  0  0  0  0  0  0  0  0
   37.9690   32.0550   38.9710 N   0  0  0  0  0  0  0  0  0  0  0  0
   39.2060   32.1250   38.5550 N   0  0  0  0  0  0  0  0  0  0  0  0
   39.3090   34.3370   40.8680 H   0  0  0  0  0  0  0  0  0  0  0  0
   37.0160   33.2890   40.6510 H   0  0  0  0  0  0  0  0  0  0  0  0
   43.1930   34.1050   37.7690 C   0  0  0  0  0  0  0  0  0  0  0  0
   41.8240   33.7370   37.8410 C   0  0  0  0  0  0  0  0  0  0  0  0
   41.2990   33.4440   39.1000 C   0  0  0  0  0  0  0  0  0  0  0  0
   42.0930   33.5200   40.1790 N   0  0  0  0  0  0  0  0  0  0  0  0
   43.4010   33.8730   40.0900 C   0  0  0  0  0  0  0  0  0  0  0  0
   43.9240   34.1590   38.8930 N   0  0  0  0  0  0  0  0  0  0  0  0
   43.4880   34.3090   36.7480 H   0  0  0  0  0  0  0  0  0  0  0  0
   41.1520   33.6610   37.0210 H   0  0  0  0  0  0  0  0  0  0  0  0
   44.0410   33.9340   40.9610 H   0  0  0  0  0  0  0  0  0  0  0  0
  1  6  1  0  0  0  0
  1  7  1  0  0  0  0
  2  8  1  6  0  0  0
  2 27  1  0  0  0  0
  2  1  1  0  0  0  0
  3  4  1  0  0  0  0
  3  2  1  0  0  0  0
  4  5  1  0  0  0  0
  5 13  1  0  0  0  0
  5  6  1  0  0  0  0
  6 14  1  6  0  0  0
  6 15  1  0  0  0  0
  9  3  1  0  0  0  0
 10  3  1  0  0  0  0
 11  4  1  0  0  0  0
 12  5  1  0  0  0  0
 15 16  2  0  0  0  0
 15 23  1  0  0  0  0
 16 18  1  0  0  0  0
 17 16  1  0  0  0  0
 18 19  2  0  0  0  0
 19 20  1  0  0  0  0
 21 19  1  0  0  0  0
 21 22  1  0  0  0  0
 23 21  2  0  0  0  0
 24 25  1  0  0  0  0
 25 29  1  0  0  0  0
 26 25  2  0  0  0  0
 26 30  1  0  0  0  0
 27 26  1  0  0  0  0
 28 27  1  0  0  0  0
 28 24  2  0  0  0  0
 31 32  2  0  0  0  0
 31 36  1  0  0  0  0
 32 33  1  0  0  0  0
 33 24  1  0  0  0  0
 33 34  2  0  0  0  0
 35 34  1  0  0  0  0
 35 39  1  0  0  0  0
 36 35  2  0  0  0  0
 37 31  1  0  0  0  0
 38 32  1  0  0  0  0
M  END
>  <minimizedAffinity>
-5.8425703

$$$$

 OpenBabel03252508303D

 39 42  0  0  1  0  0  0  0  0999 V2000
   37.4130   30.1150   42.2500 N   0  0  0  0  0  0  0  0  0  0  0  0
   36.6660   30.8150   41.2030 C   0  0  2  0  0  0  0  0  0  0  0  0
   35.5830   30.0180   40.6240 C   0  0  0  0  0  0  0  0  0  0  0  0
   35.4360   28.6700   41.1510 N   0  0  0  0  0  0  0  0  0  0  0  0
   36.6090   28.0070   41.5780 C   0  0  0  0  0  0  0  0  0  0  0  0
   37.8350   28.8950   41.6210 C   0  0  2  0  0  0  0  0  0  0  0  0
   38.1830   30.7660   42.4770 H   0  0  0  0  0  0  0  0  0  0  0  0
   36.3340   31.7620   41.7360 H   0  0  0  0  0  0  0  0  0  0  0  0
   34.6310   30.5090   41.0390 H   0  0  0  0  0  0  0  0  0  0  0  0
   35.3650   30.0420   39.5680 H   0  0  0  0  0  0  0  0  0  0  0  0
   34.7320   28.5820   41.9150 H   0  0  0  0  0  0  0  0  0  0  0  0
   36.8130   27.1860   40.8430 H   0  0  0  0  0  0  0  0  0  0  0  0
   36.5220   27.5260   42.5810 H   0  0  0  0  0  0  0  0  0  0  0  0
   38.1730   29.0860   40.5960 H   0  0  0  0  0  0  0  0  0  0  0  0
   38.9330   28.2090   42.3340 C   0  0  0  0  0  0  0  0  0  0  0  0
   40.2200   28.7590   42.3420 C   0  0  0  0  0  0  0  0  0  0  0  0
   40.4520   29.6980   41.8310 H   0  0  0  0  0  0  0  0  0  0  0  0
   41.2420   28.1150   43.0090 C   0  0  0  0  0  3  0  0  0  0  0  0
   41.0040   26.9140   43.6790 C   0  0  0  0  0  0  0  0  0  0  0  0
   41.8130   26.4150   44.2000 H   0  0  0  0  0  0  0  0  0  0  0  0
   39.7480   26.3930   43.6610 C   0  0  0  0  0  0  0  0  0  0  0  0
   39.6040   25.4630   44.1900 H   0  0  0  0  0  0  0  0  0  0  0  0
   38.7290   27.0150   43.0080 C   0  0  0  0  0  3  0  0  0  0  0  0
   39.2690   32.1710   39.1330 C   0  0  0  0  0  0  0  0  0  0  0  0
   38.3910   31.6440   38.2140 C   0  0  0  0  0  0  0  0  0  0  0  0
   37.3160   31.0680   38.9230 C   0  0  0  0  0  0  0  0  0  0  0  0
   37.5860   31.2700   40.2070 N   0  0  0  0  0  0  0  0  0  0  0  0
   38.7180   31.9090   40.3400 N   0  0  0  0  0  0  0  0  0  0  0  0
   38.6010   31.7220   37.1460 H   0  0  0  0  0  0  0  0  0  0  0  0
   36.5950   30.6330   38.2390 H   0  0  0  0  0  0  0  0  0  0  0  0
   42.3340   33.4750   37.3750 C   0  0  0  0  0  0  0  0  0  0  0  0
   41.1010   32.8010   37.5700 C   0  0  0  0  0  0  0  0  0  0  0  0
   40.5340   32.8460   38.8440 C   0  0  0  0  0  0  0  0  0  0  0  0
   41.1660   33.5130   39.8220 N   0  0  0  0  0  0  0  0  0  0  0  0
   42.3460   34.1500   39.6170 C   0  0  0  0  0  0  0  0  0  0  0  0
   42.9050   34.1210   38.4030 N   0  0  0  0  0  0  0  0  0  0  0  0
   42.6760   33.3730   36.3530 H   0  0  0  0  0  0  0  0  0  0  0  0
   40.5590   32.2600   36.8330 H   0  0  0  0  0  0  0  0  0  0  0  0
   42.8550   34.6890   40.4070 H   0  0  0  0  0  0  0  0  0  0  0  0
  1  7  1  0  0  0  0
  2  8  1  1  0  0  0
  2  1  1  0  0  0  0
  3  9  1  0  0  0  0
  3  4  1  0  0  0  0
  3  2  1  0  0  0  0
  4  5  1  0  0  0  0
  4 11  1  0  0  0  0
  5  6  1  0  0  0  0
  5 13  1  0  0  0  0
  6 14  1  6  0  0  0
  6  1  1  0  0  0  0
  6 15  1  0  0  0  0
 10  3  1  0  0  0  0
 12  5  1  0  0  0  0
 15 16  2  0  0  0  0
 15 23  1  0  0  0  0
 16 18  1  0  0  0  0
 17 16  1  0  0  0  0
 18 19  2  0  0  0  0
 19 20  1  0  0  0  0
 21 19  1  0  0  0  0
 21 22  1  0  0  0  0
 23 21  2  0  0  0  0
 24 28  2  0  0  0  0
 25 26  2  0  0  0  0
 25 24  1  0  0  0  0
 26 27  1  0  0  0  0
 27 28  1  0  0  0  0
 27  2  1  0  0  0  0
 29 25  1  0  0  0  0
 30 26  1  0  0  0  0
 31 32  2  0  0  0  0
 31 36  1  0  0  0  0
 32 33  1  0  0  0  0
 33 24  1  0  0  0  0
 33 34  2  0  0  0  0
 35 34  1  0  0  0  0
 35 39  1  0  0  0  0
 36 35  2  0  0  0  0
 37 31  1  0  0  0  0
 38 32  1  0  0  0  0
M  END
>  <minimizedAffinity>
-5.84126425

$$$$

 OpenBabel03252508303D

 39 42  0  0  1  0  0  0  0  0999 V2000
   36.2910   31.2150   40.0680 N   0  0  0  0  0  0  0  0  0  0  0  0
   37.3700   31.5910   40.9840 C   0  0  2  0  0  0  0  0  0  0  0  0
   38.3440   32.5120   40.3960 C   0  0  0  0  0  0  0  0  0  0  0  0
   38.1070   32.8850   39.0100 N   0  0  0  0  0  0  0  0  0  0  0  0
   37.4950   31.9240   38.1730 C   0  0  0  0  0  0  0  0  0  0  0  0
   36.9760   30.7090   38.9120 C   0  0  2  0  0  0  0  0  0  0  0  0
   35.7600   30.5030   40.5950 H   0  0  0  0  0  0  0  0  0  0  0  0
   36.7970   32.0010   41.8760 H   0  0  0  0  0  0  0  0  0  0  0  0
   38.1260   33.5110   40.9200 H   0  0  0  0  0  0  0  0  0  0  0  0
   39.4000   32.4200   40.5930 H   0  0  0  0  0  0  0  0  0  0  0  0
   37.5870   33.7800   38.8890 H   0  0  0  0  0  0  0  0  0  0  0  0
   38.2730   31.5710   37.4490 H   0  0  0  0  0  0  0  0  0  0  0  0
   36.6460   32.3210   37.5660 H   0  0  0  0  0  0  0  0  0  0  0  0
   37.8250   30.0830   39.2100 H   0  0  0  0  0  0  0  0  0  0  0  0
   36.1170   29.9020   38.0200 C   0  0  0  0  0  0  0  0  0  0  0  0
   36.4070   29.8120   36.6530 C   0  0  0  0  0  0  0  0  0  0  0  0
   37.2640   30.3250   36.2080 H   0  0  0  0  0  0  0  0  0  0  0  0
   35.6010   29.0570   35.8250 C   0  0  0  0  0  3  0  0  0  0  0  0
   34.4950   28.3790   36.3380 C   0  0  0  0  0  0  0  0  0  0  0  0
   33.8680   27.7900   35.6800 H   0  0  0  0  0  0  0  0  0  0  0  0
   34.2260   28.4780   37.6680 C   0  0  0  0  0  0  0  0  0  0  0  0
   33.3620   27.9400   38.0270 H   0  0  0  0  0  0  0  0  0  0  0  0
   35.0100   29.2170   38.4990 C   0  0  0  0  0  3  0  0  0  0  0  0
   38.4630   28.3380   42.0440 C   0  0  0  0  0  0  0  0  0  0  0  0
   39.4860   29.1560   42.4670 C   0  0  0  0  0  0  0  0  0  0  0  0
   39.1650   30.4780   42.0920 C   0  0  0  0  0  0  0  0  0  0  0  0
   37.9910   30.4000   41.4760 N   0  0  0  0  0  0  0  0  0  0  0  0
   37.5750   29.1610   41.4420 N   0  0  0  0  0  0  0  0  0  0  0  0
   40.3440   28.7360   42.9920 H   0  0  0  0  0  0  0  0  0  0  0  0
   39.9460   31.1640   42.4000 H   0  0  0  0  0  0  0  0  0  0  0  0
   37.2220   24.7820   42.0800 C   0  0  0  0  0  0  0  0  0  0  0  0
   37.2180   26.1880   41.8910 C   0  0  0  0  0  0  0  0  0  0  0  0
   38.3860   26.8850   42.2020 C   0  0  0  0  0  0  0  0  0  0  0  0
   39.4520   26.2120   42.6600 N   0  0  0  0  0  0  0  0  0  0  0  0
   39.4370   24.8670   42.8370 C   0  0  0  0  0  0  0  0  0  0  0  0
   38.3280   24.1800   42.5440 N   0  0  0  0  0  0  0  0  0  0  0  0
   36.2680   24.3500   41.8070 H   0  0  0  0  0  0  0  0  0  0  0  0
   36.4040   26.7700   41.5310 H   0  0  0  0  0  0  0  0  0  0  0  0
   40.2980   24.3250   43.2060 H   0  0  0  0  0  0  0  0  0  0  0  0
  1  7  1  0  0  0  0
  1  2  1  0  0  0  0
  2 27  1  0  0  0  0
  2  8  1  1  0  0  0
  3 10  1  0  0  0  0
  3  9  1  0  0  0  0
  3  2  1  0  0  0  0
  4  3  1  0  0  0  0
  5  6  1  0  0  0  0
  5  4  1  0  0  0  0
  6 14  1  1  0  0  0
  6  1  1  0  0  0  0
 11  4  1  0  0  0  0
 12  5  1  0  0  0  0
 13  5  1  0  0  0  0
 15 23  1  0  0  0  0
 15  6  1  0  0  0  0
 16 15  2  0  0  0  0
 17 16  1  0  0  0  0
 18 19  2  0  0  0  0
 18 16  1  0  0  0  0
 19 21  1  0  0  0  0
 20 19  1  0  0  0  0
 21 22  1  0  0  0  0
 21 23  2  0  0  0  0
 24 33  1  0  0  0  0
 24 25  1  0  0  0  0
 25 29  1  0  0  0  0
 26 30  1  0  0  0  0
 26 25  2  0  0  0  0
 27 26  1  0  0  0  0
 28 27  1  0  0  0  0
 28 24  2  0  0  0  0
 31 36  1  0  0  0  0
 32 31  2  0  0  0  0
 32 33  1  0  0  0  0
 33 34  2  0  0  0  0
 34 35  1  0  0  0  0
 35 39  1  0  0  0  0
 36 35  2  0  0  0  0
 37 31  1  0  0  0  0
 38 32  1  0  0  0  0
M  END
>  <minimizedAffinity>
-5.83400536

$$$$

 OpenBabel03252508303D

 39 42  0  0  1  0  0  0  0  0999 V2000
   39.1010   32.1590   41.9740 N   0  0  0  0  0  0  0  0  0  0  0  0
   39.5010   33.0990   40.9260 C   0  0  2  0  0  0  0  0  0  0  0  0
   38.4440   33.3780   39.9530 C   0  0  0  0  0  0  0  0  0  0  0  0
   37.1900   32.6700   40.1590 N   0  0  0  0  0  0  0  0  0  0  0  0
   37.2580   31.3800   40.7330 C   0  0  0  0  0  0  0  0  0  0  0  0
   38.6320   31.0100   41.2500 C   0  0  2  0  0  0  0  0  0  0  0  0
   39.9720   32.0000   42.5070 H   0  0  0  0  0  0  0  0  0  0  0  0
   39.8490   33.9980   41.5290 H   0  0  0  0  0  0  0  0  0  0  0  0
   38.1200   34.4520   40.2010 H   0  0  0  0  0  0  0  0  0  0  0  0
   38.6570   33.4820   38.9010 H   0  0  0  0  0  0  0  0  0  0  0  0
   36.4740   33.2100   40.6910 H   0  0  0  0  0  0  0  0  0  0  0  0
   36.9910   30.6450   39.9300 H   0  0  0  0  0  0  0  0  0  0  0  0
   36.5400   31.2140   41.5710 H   0  0  0  0  0  0  0  0  0  0  0  0
   39.2880   30.7960   40.3990 H   0  0  0  0  0  0  0  0  0  0  0  0
   38.5510   29.7840   42.0720 C   0  0  0  0  0  0  0  0  0  0  0  0
   39.7130   29.0740   42.3950 C   0  0  0  0  0  0  0  0  0  0  0  0
   40.7020   29.3960   42.0570 H   0  0  0  0  0  0  0  0  0  0  0  0
   39.6320   27.9290   43.1620 C   0  0  0  0  0  3  0  0  0  0  0  0
   38.3970   27.4700   43.6210 C   0  0  0  0  0  0  0  0  0  0  0  0
   38.3430   26.5710   44.2230 H   0  0  0  0  0  0  0  0  0  0  0  0
   37.2770   28.1720   43.2990 C   0  0  0  0  0  0  0  0  0  0  0  0
   36.3410   27.7850   43.6720 H   0  0  0  0  0  0  0  0  0  0  0  0
   37.3390   29.3020   42.5430 C   0  0  0  0  0  3  0  0  0  0  0  0
   42.1560   31.7690   38.9050 C   0  0  0  0  0  0  0  0  0  0  0  0
   42.7830   32.0240   40.1030 C   0  0  0  0  0  0  0  0  0  0  0  0
   41.8250   32.5650   40.9860 C   0  0  0  0  0  0  0  0  0  0  0  0
   40.6900   32.6100   40.2990 N   0  0  0  0  0  0  0  0  0  0  0  0
   40.8710   32.1510   39.0880 N   0  0  0  0  0  0  0  0  0  0  0  0
   43.8430   31.8010   40.2260 H   0  0  0  0  0  0  0  0  0  0  0  0
   42.2730   32.7880   41.9480 H   0  0  0  0  0  0  0  0  0  0  0  0
   42.7920   29.7730   35.7750 C   0  0  0  0  0  0  0  0  0  0  0  0
   42.1220   30.2570   36.9280 C   0  0  0  0  0  0  0  0  0  0  0  0
   42.7730   31.2230   37.6960 C   0  0  0  0  0  0  0  0  0  0  0  0
   43.9880   31.6520   37.3220 N   0  0  0  0  0  0  0  0  0  0  0  0
   44.6140   31.1760   36.2160 C   0  0  0  0  0  0  0  0  0  0  0  0
   44.0070   30.2510   35.4660 N   0  0  0  0  0  0  0  0  0  0  0  0
   42.1940   29.0320   35.2600 H   0  0  0  0  0  0  0  0  0  0  0  0
   41.1610   29.9530   37.2690 H   0  0  0  0  0  0  0  0  0  0  0  0
   45.5940   31.5230   35.9150 H   0  0  0  0  0  0  0  0  0  0  0  0
  1  7  1  0  0  0  0
  2  8  1  1  0  0  0
  2  1  1  0  0  0  0
  3  4  1  0  0  0  0
  3  9  1  0  0  0  0
  3  2  1  0  0  0  0
  4 11  1  0  0  0  0
  4  5  1  0  0  0  0
  5  6  1  0  0  0  0
  5 13  1  0  0  0  0
  6 14  1  6  0  0  0
  6  1  1  0  0  0  0
  6 15  1  0  0  0  0
 10  3  1  0  0  0  0
 12  5  1  0  0  0  0
 15 16  2  0  0  0  0
 15 23  1  0  0  0  0
 16 18  1  0  0  0  0
 17 16  1  0  0  0  0
 18 19  2  0  0  0  0
 19 20  1  0  0  0  0
 21 19  1  0  0  0  0
 21 22  1  0  0  0  0
 23 21  2  0  0  0  0
 24 28  2  0  0  0  0
 24 25  1  0  0  0  0
 25 29  1  0  0  0  0
 25 26  2  0  0  0  0
 26 30  1  0  0  0  0
 27  2  1  0  0  0  0
 27 26  1  0  0  0  0
 28 27  1  0  0  0  0
 31 32  1  0  0  0  0
 32 38  1  0  0  0  0
 32 33  2  0  0  0  0
 33 24  1  0  0  0  0
 34 33  1  0  0  0  0
 35 34  2  0  0  0  0
 36 31  2  0  0  0  0
 36 35  1  0  0  0  0
 37 31  1  0  0  0  0
 39 35  1  0  0  0  0
M  END
>  <minimizedAffinity>
-5.8023715

$$$$

 OpenBabel03252508303D

 39 42  0  0  1  0  0  0  0  0999 V2000
   39.1060   31.7340   40.1910 N   0  0  0  0  0  0  0  0  0  0  0  0
   40.1030   32.7760   40.4460 C   0  0  2  0  0  0  0  0  0  0  0  0
   39.5200   34.0900   40.7230 C   0  0  0  0  0  0  0  0  0  0  0  0
   38.0670   34.1610   40.6770 N   0  0  0  0  0  0  0  0  0  0  0  0
   37.4020   33.3040   39.7710 C   0  0  0  0  0  0  0  0  0  0  0  0
   38.3040   32.2720   39.1270 C   0  0  2  0  0  0  0  0  0  0  0  0
   39.6740   30.9130   39.9230 H   0  0  0  0  0  0  0  0  0  0  0  0
   40.7070   32.3280   41.2980 H   0  0  0  0  0  0  0  0  0  0  0  0
   39.7000   34.2370   41.8480 H   0  0  0  0  0  0  0  0  0  0  0  0
   39.9600   34.9960   40.3390 H   0  0  0  0  0  0  0  0  0  0  0  0
   37.6030   34.0560   41.6040 H   0  0  0  0  0  0  0  0  0  0  0  0
   36.9850   33.9450   38.9530 H   0  0  0  0  0  0  0  0  0  0  0  0
   36.5410   32.7490   40.2160 H   0  0  0  0  0  0  0  0  0  0  0  0
   38.9360   32.7680   38.3800 H   0  0  0  0  0  0  0  0  0  0  0  0
   37.4920   31.2570   38.4250 C   0  0  0  0  0  0  0  0  0  0  0  0
   37.6580   31.0490   37.0500 C   0  0  0  0  0  0  0  0  0  0  0  0
   38.3810   31.6200   36.4610 H   0  0  0  0  0  0  0  0  0  0  0  0
   36.8970   30.0990   36.3990 C   0  0  0  0  0  3  0  0  0  0  0  0
   35.9600   29.3400   37.1000 C   0  0  0  0  0  0  0  0  0  0  0  0
   35.3670   28.5970   36.5800 H   0  0  0  0  0  0  0  0  0  0  0  0
   35.8110   29.5540   38.4350 C   0  0  0  0  0  0  0  0  0  0  0  0
   35.0760   28.9480   38.9420 H   0  0  0  0  0  0  0  0  0  0  0  0
   36.5530   30.4860   39.0920 C   0  0  0  0  0  3  0  0  0  0  0  0
   42.4640   32.3310   37.7760 C   0  0  0  0  0  0  0  0  0  0  0  0
   42.2230   33.6850   37.7480 C   0  0  0  0  0  0  0  0  0  0  0  0
   41.2890   33.9800   38.7630 C   0  0  0  0  0  0  0  0  0  0  0  0
   41.0160   32.8190   39.3460 N   0  0  0  0  0  0  0  0  0  0  0  0
   41.6930   31.8540   38.7800 N   0  0  0  0  0  0  0  0  0  0  0  0
   42.7290   34.3180   37.0180 H   0  0  0  0  0  0  0  0  0  0  0  0
   41.0620   35.0400   38.7790 H   0  0  0  0  0  0  0  0  0  0  0  0
   45.5090   31.0960   35.9340 C   0  0  0  0  0  0  0  0  0  0  0  0
   44.7190   31.8610   36.8310 C   0  0  0  0  0  0  0  0  0  0  0  0
   43.3520   31.5830   36.8860 C   0  0  0  0  0  0  0  0  0  0  0  0
   42.8440   30.6200   36.1020 N   0  0  0  0  0  0  0  0  0  0  0  0
   43.6170   29.9000   35.2490 C   0  0  0  0  0  0  0  0  0  0  0  0
   44.9280   30.1490   35.1820 N   0  0  0  0  0  0  0  0  0  0  0  0
   46.5480   31.3970   35.9780 H   0  0  0  0  0  0  0  0  0  0  0  0
   45.0680   32.6330   37.4730 H   0  0  0  0  0  0  0  0  0  0  0  0
   43.2060   29.1230   34.6170 H   0  0  0  0  0  0  0  0  0  0  0  0
  1  2  1  0  0  0  0
  2  3  1  0  0  0  0
  2  8  1  1  0  0  0
  3  9  1  0  0  0  0
  4  3  1  0  0  0  0
  4 11  1  0  0  0  0
  5 13  1  0  0  0  0
  5  4  1  0  0  0  0
  6 14  1  6  0  0  0
  6  5  1  0  0  0  0
  6  1  1  0  0  0  0
  7  1  1  0  0  0  0
 10  3  1  0  0  0  0
 12  5  1  0  0  0  0
 15 23  1  0  0  0  0
 15  6  1  0  0  0  0
 16 15  2  0  0  0  0
 17 16  1  0  0  0  0
 18 16  1  0  0  0  0
 18 19  2  0  0  0  0
 19 21  1  0  0  0  0
 20 19  1  0  0  0  0
 21 22  1  0  0  0  0
 21 23  2  0  0  0  0
 24 28  2  0  0  0  0
 25 24  1  0  0  0  0
 25 26  2  0  0  0  0
 26 30  1  0  0  0  0
 26 27  1  0  0  0  0
 27  2  1  0  0  0  0
 28 27  1  0  0  0  0
 29 25  1  0  0  0  0
 31 37  1  0  0  0  0
 31 32  1  0  0  0  0
 32 33  2  0  0  0  0
 32 38  1  0  0  0  0
 33 24  1  0  0  0  0
 34 33  1  0  0  0  0
 35 34  2  0  0  0  0
 36 35  1  0  0  0  0
 36 31  2  0  0  0  0
 39 35  1  0  0  0  0
M  END
>  <minimizedAffinity>
-5.7423048

$$$$

 OpenBabel03252508303D

 39 42  0  0  1  0  0  0  0  0999 V2000
   39.1490   31.2100   39.6520 N   0  0  0  0  0  0  0  0  0  0  0  0
   37.7670   30.7360   39.5420 C   0  0  2  0  0  0  0  0  0  0  0  0
   36.7690   31.7720   39.8120 C   0  0  0  0  0  0  0  0  0  0  0  0
   37.2940   33.0820   40.1660 N   0  0  0  0  0  0  0  0  0  0  0  0
   38.5180   33.1230   40.8720 C   0  0  0  0  0  0  0  0  0  0  0  0
   39.2160   31.7830   40.9680 C   0  0  2  0  0  0  0  0  0  0  0  0
   39.7120   30.3530   39.5310 H   0  0  0  0  0  0  0  0  0  0  0  0
   37.7440   30.3070   38.4900 H   0  0  0  0  0  0  0  0  0  0  0  0
   36.3250   31.9990   38.7770 H   0  0  0  0  0  0  0  0  0  0  0  0
   35.8680   31.5580   40.3630 H   0  0  0  0  0  0  0  0  0  0  0  0
   37.3740   33.7440   39.3650 H   0  0  0  0  0  0  0  0  0  0  0  0
   38.2880   33.4580   41.9160 H   0  0  0  0  0  0  0  0  0  0  0  0
   39.2600   33.8460   40.4580 H   0  0  0  0  0  0  0  0  0  0  0  0
   38.6830   31.1540   41.6900 H   0  0  0  0  0  0  0  0  0  0  0  0
   40.5960   31.9650   41.4650 C   0  0  0  0  0  0  0  0  0  0  0  0
   41.4360   32.9200   40.8790 C   0  0  0  0  0  0  0  0  0  0  0  0
   41.1060   33.5520   40.0500 H   0  0  0  0  0  0  0  0  0  0  0  0
   42.7240   33.0860   41.3480 C   0  0  0  0  0  3  0  0  0  0  0  0
   43.2000   32.3080   42.4030 C   0  0  0  0  0  0  0  0  0  0  0  0
   44.2130   32.4450   42.7630 H   0  0  0  0  0  0  0  0  0  0  0  0
   42.3710   31.3840   42.9610 C   0  0  0  0  0  0  0  0  0  0  0  0
   42.7760   30.8020   43.7740 H   0  0  0  0  0  0  0  0  0  0  0  0
   41.0990   31.2080   42.5120 C   0  0  0  0  0  3  0  0  0  0  0  0
   37.8820   27.7540   41.5410 C   0  0  0  0  0  0  0  0  0  0  0  0
   36.5880   28.1890   41.7150 C   0  0  0  0  0  0  0  0  0  0  0  0
   36.4270   29.3770   40.9720 C   0  0  0  0  0  0  0  0  0  0  0  0
   37.6020   29.6000   40.3940 N   0  0  0  0  0  0  0  0  0  0  0  0
   38.4540   28.6630   40.7190 N   0  0  0  0  0  0  0  0  0  0  0  0
   35.8990   27.6250   42.3450 H   0  0  0  0  0  0  0  0  0  0  0  0
   35.4200   29.7640   41.0810 H   0  0  0  0  0  0  0  0  0  0  0  0
   40.0010   25.4910   43.6800 C   0  0  0  0  0  0  0  0  0  0  0  0
   39.4510   26.6880   43.1530 C   0  0  0  0  0  0  0  0  0  0  0  0
   38.4930   26.5700   42.1450 C   0  0  0  0  0  0  0  0  0  0  0  0
   38.1340   25.3500   41.7170 N   0  0  0  0  0  0  0  0  0  0  0  0
   38.6740   24.2160   42.2320 C   0  0  0  0  0  0  0  0  0  0  0  0
   39.5920   24.3070   43.2000 N   0  0  0  0  0  0  0  0  0  0  0  0
   40.7290   25.7050   44.4520 H   0  0  0  0  0  0  0  0  0  0  0  0
   39.6970   27.6780   43.4540 H   0  0  0  0  0  0  0  0  0  0  0  0
   38.3830   23.2320   41.8860 H   0  0  0  0  0  0  0  0  0  0  0  0
  1  6  1  0  0  0  0
  2  8  1  6  0  0  0
  2  1  1  0  0  0  0
  2  3  1  0  0  0  0
  2 27  1  0  0  0  0
  3  4  1  0  0  0  0
  3 10  1  0  0  0  0
  4  5  1  0  0  0  0
  5  6  1  0  0  0  0
  5 12  1  0  0  0  0
  6 15  1  0  0  0  0
  6 14  1  1  0  0  0
  7  1  1  0  0  0  0
  9  3  1  0  0  0  0
 11  4  1  0  0  0  0
 13  5  1  0  0  0  0
 15 23  1  0  0  0  0
 16 18  1  0  0  0  0
 16 15  2  0  0  0  0
 17 16  1  0  0  0  0
 18 19  2  0  0  0  0
 19 20  1  0  0  0  0
 19 21  1  0  0  0  0
 21 22  1  0  0  0  0
 23 21  2  0  0  0  0
 24 25  1  0  0  0  0
 24 33  1  0  0  0  0
 25 29  1  0  0  0  0
 26 30  1  0  0  0  0
 26 25  2  0  0  0  0
 27 28  1  0  0  0  0
 27 26  1  0  0  0  0
 28 24  2  0  0  0  0
 31 37  1  0  0  0  0
 32 38  1  0  0  0  0
 32 31  2  0  0  0  0
 33 32  1  0  0  0  0
 34 33  2  0  0  0  0
 34 35  1  0  0  0  0
 35 36  2  0  0  0  0
 36 31  1  0  0  0  0
 39 35  1  0  0  0  0
M  END
>  <minimizedAffinity>
-5.72627974

$$$$

 OpenBabel03252508303D

 39 42  0  0  1  0  0  0  0  0999 V2000
   36.2070   31.1470   40.0580 N   0  0  0  0  0  0  0  0  0  0  0  0
   37.2240   31.5300   41.0410 C   0  0  2  0  0  0  0  0  0  0  0  0
   38.1550   32.5490   40.5540 C   0  0  0  0  0  0  0  0  0  0  0  0
   37.9450   32.9980   39.1860 N   0  0  0  0  0  0  0  0  0  0  0  0
   37.4320   32.0570   38.2650 C   0  0  0  0  0  0  0  0  0  0  0  0
   36.9680   30.7640   38.9020 C   0  0  2  0  0  0  0  0  0  0  0  0
   35.7060   30.3680   40.5160 H   0  0  0  0  0  0  0  0  0  0  0  0
   36.5910   31.8420   41.9320 H   0  0  0  0  0  0  0  0  0  0  0  0
   37.8500   33.4950   41.1320 H   0  0  0  0  0  0  0  0  0  0  0  0
   39.2060   32.5130   40.7890 H   0  0  0  0  0  0  0  0  0  0  0  0
   37.3710   33.8640   39.1010 H   0  0  0  0  0  0  0  0  0  0  0  0
   38.2590   31.8050   37.5520 H   0  0  0  0  0  0  0  0  0  0  0  0
   36.5820   32.4380   37.6490 H   0  0  0  0  0  0  0  0  0  0  0  0
   37.8460   30.1760   39.1950 H   0  0  0  0  0  0  0  0  0  0  0  0
   36.2000   29.9650   37.9250 C   0  0  0  0  0  0  0  0  0  0  0  0
   35.0620   29.2570   38.3320 C   0  0  0  0  0  0  0  0  0  0  0  0
   34.7110   29.2720   39.3670 H   0  0  0  0  0  0  0  0  0  0  0  0
   34.3480   28.5120   37.4150 C   0  0  0  0  0  3  0  0  0  0  0  0
   34.7500   28.4560   36.0800 C   0  0  0  0  0  0  0  0  0  0  0  0
   34.1830   27.8680   35.3680 H   0  0  0  0  0  0  0  0  0  0  0  0
   35.8570   29.1500   35.7010 C   0  0  0  0  0  0  0  0  0  0  0  0
   36.1360   29.0820   34.6610 H   0  0  0  0  0  0  0  0  0  0  0  0
   36.5730   29.8890   36.5920 C   0  0  0  0  0  3  0  0  0  0  0  0
   38.4540   28.3020   42.0230 C   0  0  0  0  0  0  0  0  0  0  0  0
   39.5060   29.1350   42.3280 C   0  0  0  0  0  0  0  0  0  0  0  0
   39.1340   30.4490   41.9720 C   0  0  0  0  0  0  0  0  0  0  0  0
   37.9040   30.3520   41.4820 N   0  0  0  0  0  0  0  0  0  0  0  0
   37.5000   29.1090   41.5060 N   0  0  0  0  0  0  0  0  0  0  0  0
   40.4180   28.7300   42.7680 H   0  0  0  0  0  0  0  0  0  0  0  0
   39.9350   31.1460   42.1900 H   0  0  0  0  0  0  0  0  0  0  0  0
   37.2970   24.7190   42.1070 C   0  0  0  0  0  0  0  0  0  0  0  0
   37.2620   26.1210   41.8920 C   0  0  0  0  0  0  0  0  0  0  0  0
   38.4090   26.8510   42.2060 C   0  0  0  0  0  0  0  0  0  0  0  0
   39.4840   26.2120   42.6920 N   0  0  0  0  0  0  0  0  0  0  0  0
   39.4970   24.8700   42.8920 C   0  0  0  0  0  0  0  0  0  0  0  0
   38.4100   24.1510   42.5960 N   0  0  0  0  0  0  0  0  0  0  0  0
   36.3570   24.2590   41.8290 H   0  0  0  0  0  0  0  0  0  0  0  0
   36.4400   26.6760   41.5110 H   0  0  0  0  0  0  0  0  0  0  0  0
   40.3660   24.3550   43.2840 H   0  0  0  0  0  0  0  0  0  0  0  0
  1  7  1  0  0  0  0
  1  2  1  0  0  0  0
  2 27  1  0  0  0  0
  2  8  1  1  0  0  0
  3 10  1  0  0  0  0
  3  2  1  0  0  0  0
  3  9  1  0  0  0  0
  4  3  1  0  0  0  0
  5  6  1  0  0  0  0
  5  4  1  0  0  0  0
  6 14  1  1  0  0  0
  6  1  1  0  0  0  0
 11  4  1  0  0  0  0
 12  5  1  0  0  0  0
 13  5  1  0  0  0  0
 15 16  1  0  0  0  0
 15  6  1  0  0  0  0
 16 17  1  0  0  0  0
 18 16  2  0  0  0  0
 19 18  1  0  0  0  0
 20 19  1  0  0  0  0
 21 19  2  0  0  0  0
 21 23  1  0  0  0  0
 22 21  1  0  0  0  0
 23 15  2  0  0  0  0
 24 33  1  0  0  0  0
 24 25  1  0  0  0  0
 25 29  1  0  0  0  0
 26 30  1  0  0  0  0
 26 25  2  0  0  0  0
 27 28  1  0  0  0  0
 27 26  1  0  0  0  0
 28 24  2  0  0  0  0
 31 36  1  0  0  0  0
 32 31  2  0  0  0  0
 32 33  1  0  0  0  0
 33 34  2  0  0  0  0
 34 35  1  0  0  0  0
 35 39  1  0  0  0  0
 36 35  2  0  0  0  0
 37 31  1  0  0  0  0
 38 32  1  0  0  0  0
M  END
>  <minimizedAffinity>
-5.72579432

$$$$

 OpenBabel03252508303D

 39 42  0  0  1  0  0  0  0  0999 V2000
   36.6470   29.8940   41.8840 N   0  0  0  0  0  0  0  0  0  0  0  0
   36.3840   28.4590   41.7610 C   0  0  2  0  0  0  0  0  0  0  0  0
   37.5030   27.6190   42.1930 C   0  0  0  0  0  0  0  0  0  0  0  0
   38.6900   28.3280   42.6450 N   0  0  0  0  0  0  0  0  0  0  0  0
   38.9750   29.5730   42.0390 C   0  0  0  0  0  0  0  0  0  0  0  0
   37.8650   30.0890   41.1480 C   0  0  2  0  0  0  0  0  0  0  0  0
   35.8160   30.3330   41.4560 H   0  0  0  0  0  0  0  0  0  0  0  0
   35.4300   28.3370   42.3650 H   0  0  0  0  0  0  0  0  0  0  0  0
   37.1390   27.1690   43.1850 H   0  0  0  0  0  0  0  0  0  0  0  0
   37.7720   26.7200   41.6630 H   0  0  0  0  0  0  0  0  0  0  0  0
   38.7430   28.4640   43.6770 H   0  0  0  0  0  0  0  0  0  0  0  0
   39.8830   29.4310   41.3990 H   0  0  0  0  0  0  0  0  0  0  0  0
   39.2150   30.3880   42.7620 H   0  0  0  0  0  0  0  0  0  0  0  0
   37.8530   29.5060   40.2190 H   0  0  0  0  0  0  0  0  0  0  0  0
   38.1200   31.5000   40.7860 C   0  0  0  0  0  0  0  0  0  0  0  0
   37.1920   32.2080   40.0140 C   0  0  0  0  0  0  0  0  0  0  0  0
   36.2640   31.7510   39.6590 H   0  0  0  0  0  0  0  0  0  0  0  0
   37.4350   33.5250   39.6790 C   0  0  0  0  0  3  0  0  0  0  0  0
   38.6030   34.1600   40.1040 C   0  0  0  0  0  0  0  0  0  0  0  0
   38.7850   35.1940   39.8360 H   0  0  0  0  0  0  0  0  0  0  0  0
   39.4940   33.4580   40.8540 C   0  0  0  0  0  0  0  0  0  0  0  0
   40.3840   33.9830   41.1630 H   0  0  0  0  0  0  0  0  0  0  0  0
   39.2700   32.1590   41.1930 C   0  0  0  0  0  3  0  0  0  0  0  0
   35.0810   28.2110   38.4230 C   0  0  0  0  0  0  0  0  0  0  0  0
   35.8660   27.0860   38.5290 C   0  0  0  0  0  0  0  0  0  0  0  0
   36.4440   27.0810   39.8160 C   0  0  0  0  0  0  0  0  0  0  0  0
   35.9930   28.1760   40.4150 N   0  0  0  0  0  0  0  0  0  0  0  0
   35.2010   28.8400   39.6150 N   0  0  0  0  0  0  0  0  0  0  0  0
   35.9460   26.3910   37.6920 H   0  0  0  0  0  0  0  0  0  0  0  0
   37.0790   26.2120   39.9480 H   0  0  0  0  0  0  0  0  0  0  0  0
   32.2900   29.3930   36.1870 C   0  0  0  0  0  0  0  0  0  0  0  0
   32.9710   29.0080   37.3710 C   0  0  0  0  0  0  0  0  0  0  0  0
   34.3090   28.6300   37.2530 C   0  0  0  0  0  0  0  0  0  0  0  0
   34.8940   28.6430   36.0460 N   0  0  0  0  0  0  0  0  0  0  0  0
   34.2250   29.0130   34.9240 C   0  0  0  0  0  0  0  0  0  0  0  0
   32.9430   29.3800   35.0140 N   0  0  0  0  0  0  0  0  0  0  0  0
   31.2650   29.6640   36.3980 H   0  0  0  0  0  0  0  0  0  0  0  0
   32.5580   28.9790   38.3500 H   0  0  0  0  0  0  0  0  0  0  0  0
   34.6980   29.0240   33.9500 H   0  0  0  0  0  0  0  0  0  0  0  0
  2  1  1  0  0  0  0
  2  3  1  0  0  0  0
  2  8  1  1  0  0  0
  3  4  1  0  0  0  0
  3  9  1  0  0  0  0
  4 11  1  0  0  0  0
  5  4  1  0  0  0  0
  5 13  1  0  0  0  0
  6 14  1  6  0  0  0
  6  1  1  0  0  0  0
  6  5  1  0  0  0  0
  7  1  1  0  0  0  0
 10  3  1  0  0  0  0
 12  5  1  0  0  0  0
 15  6  1  0  0  0  0
 15 23  1  0  0  0  0
 16 15  2  0  0  0  0
 17 16  1  0  0  0  0
 18 16  1  0  0  0  0
 18 19  2  0  0  0  0
 19 21  1  0  0  0  0
 20 19  1  0  0  0  0
 21 22  1  0  0  0  0
 21 23  2  0  0  0  0
 24 25  1  0  0  0  0
 24 28  2  0  0  0  0
 25 26  2  0  0  0  0
 26 30  1  0  0  0  0
 26 27  1  0  0  0  0
 27  2  1  0  0  0  0
 28 27  1  0  0  0  0
 29 25  1  0  0  0  0
 31 37  1  0  0  0  0
 31 32  1  0  0  0  0
 32 38  1  0  0  0  0
 33 32  2  0  0  0  0
 33 24  1  0  0  0  0
 34 33  1  0  0  0  0
 35 36  1  0  0  0  0
 35 34  2  0  0  0  0
 36 31  2  0  0  0  0
 39 35  1  0  0  0  0
M  END
>  <minimizedAffinity>
-5.68330717

$$$$

 OpenBabel03252508303D

 39 42  0  0  1  0  0  0  0  0999 V2000
   39.2670   25.5020   40.7990 N   0  0  0  0  0  0  0  0  0  0  0  0
   39.9260   26.1440   41.9380 C   0  0  2  0  0  0  0  0  0  0  0  0
   39.8700   25.3550   43.1700 C   0  0  0  0  0  0  0  0  0  0  0  0
   39.1590   24.0890   43.0790 N   0  0  0  0  0  0  0  0  0  0  0  0
   38.0700   24.0170   42.1800 C   0  0  0  0  0  0  0  0  0  0  0  0
   37.9410   25.2240   41.2760 C   0  0  2  0  0  0  0  0  0  0  0  0
   39.3120   26.2180   40.0550 H   0  0  0  0  0  0  0  0  0  0  0  0
   40.9720   26.3340   41.5360 H   0  0  0  0  0  0  0  0  0  0  0  0
   40.9470   24.9790   43.3020 H   0  0  0  0  0  0  0  0  0  0  0  0
   39.7100   25.8160   44.1300 H   0  0  0  0  0  0  0  0  0  0  0  0
   39.7700   23.2650   42.8950 H   0  0  0  0  0  0  0  0  0  0  0  0
   37.1360   23.9540   42.7950 H   0  0  0  0  0  0  0  0  0  0  0  0
   38.0820   23.1170   41.5200 H   0  0  0  0  0  0  0  0  0  0  0  0
   37.5560   26.0680   41.8600 H   0  0  0  0  0  0  0  0  0  0  0  0
   36.9690   24.9480   40.1970 C   0  0  0  0  0  0  0  0  0  0  0  0
   36.7340   25.9010   39.1980 C   0  0  0  0  0  0  0  0  0  0  0  0
   37.2520   26.8640   39.1830 H   0  0  0  0  0  0  0  0  0  0  0  0
   35.8250   25.6370   38.1930 C   0  0  0  0  0  3  0  0  0  0  0  0
   35.1350   24.4250   38.1620 C   0  0  0  0  0  0  0  0  0  0  0  0
   34.4240   24.2270   37.3690 H   0  0  0  0  0  0  0  0  0  0  0  0
   35.3750   23.5100   39.1390 C   0  0  0  0  0  0  0  0  0  0  0  0
   34.8230   22.5850   39.0800 H   0  0  0  0  0  0  0  0  0  0  0  0
   36.2680   23.7530   40.1370 C   0  0  0  0  0  3  0  0  0  0  0  0
   38.6800   29.5110   41.8460 C   0  0  0  0  0  0  0  0  0  0  0  0
   38.4530   29.1370   43.1510 C   0  0  0  0  0  0  0  0  0  0  0  0
   38.9020   27.8090   43.3040 C   0  0  0  0  0  0  0  0  0  0  0  0
   39.3710   27.4500   42.1150 N   0  0  0  0  0  0  0  0  0  0  0  0
   39.2450   28.4310   41.2610 N   0  0  0  0  0  0  0  0  0  0  0  0
   37.9970   29.8380   43.8520 H   0  0  0  0  0  0  0  0  0  0  0  0
   38.7400   27.4640   44.3200 H   0  0  0  0  0  0  0  0  0  0  0  0
   36.9490   32.2420   39.9140 C   0  0  0  0  0  0  0  0  0  0  0  0
   37.1920   30.9620   40.4760 C   0  0  0  0  0  0  0  0  0  0  0  0
   38.3500   30.8000   41.2380 C   0  0  0  0  0  0  0  0  0  0  0  0
   39.1780   31.8420   41.4070 N   0  0  0  0  0  0  0  0  0  0  0  0
   38.9300   33.0590   40.8590 C   0  0  0  0  0  0  0  0  0  0  0  0
   37.8250   33.2360   40.1270 N   0  0  0  0  0  0  0  0  0  0  0  0
   36.0270   32.2500   39.3470 H   0  0  0  0  0  0  0  0  0  0  0  0
   36.5710   30.1050   40.3750 H   0  0  0  0  0  0  0  0  0  0  0  0
   39.5990   33.8990   40.9970 H   0  0  0  0  0  0  0  0  0  0  0  0
  1  6  1  0  0  0  0
  1  2  1  0  0  0  0
  2  8  1  6  0  0  0
  2 27  1  0  0  0  0
  2  3  1  0  0  0  0
  3  9  1  0  0  0  0
  3 10  1  0  0  0  0
  4  3  1  0  0  0  0
  5 12  1  0  0  0  0
  5  4  1  0  0  0  0
  6 14  1  1  0  0  0
  6  5  1  0  0  0  0
  7  1  1  0  0  0  0
 11  4  1  0  0  0  0
 13  5  1  0  0  0  0
 15  6  1  0  0  0  0
 16 15  2  0  0  0  0
 17 16  1  0  0  0  0
 18 16  1  0  0  0  0
 19 18  2  0  0  0  0
 19 21  1  0  0  0  0
 20 19  1  0  0  0  0
 21 23  2  0  0  0  0
 22 21  1  0  0  0  0
 23 15  1  0  0  0  0
 24 25  1  0  0  0  0
 25 26  2  0  0  0  0
 25 29  1  0  0  0  0
 26 30  1  0  0  0  0
 27 26  1  0  0  0  0
 28 24  2  0  0  0  0
 28 27  1  0  0  0  0
 31 36  2  0  0  0  0
 31 32  1  0  0  0  0
 32 33  2  0  0  0  0
 33 34  1  0  0  0  0
 33 24  1  0  0  0  0
 35 39  1  0  0  0  0
 35 34  2  0  0  0  0
 36 35  1  0  0  0  0
 37 31  1  0  0  0  0
 38 32  1  0  0  0  0
M  END
>  <minimizedAffinity>
-5.62240076

$$$$
