
 OpenBabel03252508553D

 43 46  0  0  1  0  0  0  0  0999 V2000
   43.3780   34.5030   40.7690 C   0  0  0  0  0  0  0  0  0  0  0  0
   43.3290   35.7510   40.4890 O   0  0  0  0  0  0  0  0  0  0  0  0
   42.0180   34.1210   40.4460 N   0  0  0  0  0  0  0  0  0  0  0  0
   41.6390   34.3410   39.0650 C   0  0  0  0  0  0  0  0  0  0  0  0
   40.8350   35.6570   39.0840 C   0  0  0  0  0  0  0  0  0  0  0  0
   40.0530   35.6650   40.4080 C   0  0  0  0  0  0  0  0  0  0  0  0
   39.7090   34.2560   40.8400 C   0  0  0  0  0  0  0  0  0  0  0  0
   40.9860   33.5560   41.2940 C   0  0  1  0  0  0  0  0  0  0  0  0
   42.4980   34.4070   38.3760 H   0  0  0  0  0  0  0  0  0  0  0  0
   40.9260   33.5620   38.6950 H   0  0  0  0  0  0  0  0  0  0  0  0
   41.5140   36.5370   39.1060 H   0  0  0  0  0  0  0  0  0  0  0  0
   40.1750   35.7220   38.2100 H   0  0  0  0  0  0  0  0  0  0  0  0
   40.6470   36.1240   41.2120 H   0  0  0  0  0  0  0  0  0  0  0  0
   39.0710   36.1740   40.2410 H   0  0  0  0  0  0  0  0  0  0  0  0
   39.2590   33.7790   39.9500 H   0  0  0  0  0  0  0  0  0  0  0  0
   39.0100   34.3580   41.6910 H   0  0  0  0  0  0  0  0  0  0  0  0
   41.1850   33.9270   42.3230 H   0  0  0  0  0  0  0  0  0  0  0  0
   40.8810   32.0970   41.2440 C   0  0  0  0  0  0  0  0  0  0  0  0
   41.7840   31.3970   42.0250 C   0  0  0  0  0  0  0  0  0  0  0  0
   42.5300   31.8670   42.6440 H   0  0  0  0  0  0  0  0  0  0  0  0
   41.8120   30.0250   42.0890 C   0  0  0  0  0  3  0  0  0  0  0  0
   40.9100   29.2880   41.3480 C   0  0  0  0  0  0  0  0  0  0  0  0
   40.9190   28.2040   41.3860 H   0  0  0  0  0  0  0  0  0  0  0  0
   39.9840   29.9570   40.5460 C   0  0  0  0  0  0  0  0  0  0  0  0
   39.2600   29.4150   39.9510 H   0  0  0  0  0  0  0  0  0  0  0  0
   39.9940   31.3360   40.5160 C   0  0  0  0  0  3  0  0  0  0  0  0
   44.4550   33.8200   41.2340 O   0  0  0  0  0  0  0  0  0  0  0  0
   45.7820   34.1380   41.0880 C   0  0  0  0  0  0  0  0  0  0  0  0
   46.4130   34.7560   42.1790 C   0  0  0  0  0  0  0  0  0  0  0  0
   47.7730   35.0720   42.0060 C   0  0  0  0  0  0  0  0  0  0  0  0
   48.3790   34.7650   40.8190 N   0  0  0  0  0  0  0  0  0  0  0  0
   47.7210   34.1790   39.8280 C   0  0  0  0  0  0  0  0  0  0  0  0
   46.4230   33.8620   39.9540 N   0  0  0  0  0  0  0  0  0  0  0  0
   48.2430   35.5430   42.8450 H   0  0  0  0  0  0  0  0  0  0  0  0
   48.2710   33.9720   38.9300 H   0  0  0  0  0  0  0  0  0  0  0  0
   45.6780   35.0360   43.3900 C   0  0  0  0  0  0  0  0  0  0  0  0
   45.0360   36.2470   43.6250 C   0  0  0  0  0  0  0  0  0  0  0  0
   44.4760   36.0840   44.8650 C   0  0  0  0  0  0  0  0  0  0  0  0
   44.7550   34.8590   45.3550 N   0  0  0  0  0  0  0  0  0  0  0  0
   45.4750   34.2580   44.4460 N   0  0  0  0  0  0  0  0  0  0  0  0
   45.0120   37.1000   42.9510 H   0  0  0  0  0  0  0  0  0  0  0  0
   43.8870   36.8350   45.3900 H   0  0  0  0  0  0  0  0  0  0  0  0
   44.4930   34.4040   46.2570 H   0  0  0  0  0  0  0  0  0  0  0  0
  1 27  1  0  0  0  0
  2  1  2  0  0  0  0
  3  1  1  0  0  0  0
  3  8  1  0  0  0  0
  4  5  1  0  0  0  0
  4  3  1  0  0  0  0
  5 11  1  0  0  0  0
  5  6  1  0  0  0  0
  6  7  1  0  0  0  0
  6 13  1  0  0  0  0
  7  8  1  0  0  0  0
  7 16  1  0  0  0  0
  8 17  1  1  0  0  0
  9  4  1  0  0  0  0
 10  4  1  0  0  0  0
 12  5  1  0  0  0  0
 14  6  1  0  0  0  0
 15  7  1  0  0  0  0
 18  8  1  0  0  0  0
 18 19  1  0  0  0  0
 19 21  2  0  0  0  0
 19 20  1  0  0  0  0
 22 23  1  0  0  0  0
 22 21  1  0  0  0  0
 24 22  2  0  0  0  0
 25 24  1  0  0  0  0
 26 24  1  0  0  0  0
 26 18  2  0  0  0  0
 28 27  1  0  0  0  0
 28 29  1  0  0  0  0
 29 36  1  0  0  0  0
 30 29  2  0  0  0  0
 30 34  1  0  0  0  0
 31 30  1  0  0  0  0
 32 33  1  0  0  0  0
 32 31  2  0  0  0  0
 33 28  2  0  0  0  0
 35 32  1  0  0  0  0
 36 37  1  0  0  0  0
 36 40  2  0  0  0  0
 37 38  2  0  0  0  0
 38 39  1  0  0  0  0
 38 42  1  0  0  0  0
 39 43  1  0  0  0  0
 40 39  1  0  0  0  0
 41 37  1  0  0  0  0
M  END
>  <minimizedAffinity>
-6.64461899

>  <minimizedRMSD>
0.237741947

$$$$
