
 OpenBabel03252506303D

 47 51  0  0  0  0  0  0  0  0999 V2000
   37.6850   32.1080   40.6100 C   0  0  0  0  0  0  0  0  0  0  0  0
   37.0980   32.8420   39.5640 C   0  0  0  0  0  0  0  0  0  0  0  0
   37.6450   34.0730   39.5300 C   0  0  0  0  0  0  0  0  0  0  0  0
   38.5390   34.1060   40.5180 N   0  0  0  0  0  0  0  0  0  0  0  0
   38.5810   32.9470   41.1760 N   0  0  0  0  0  0  0  0  0  0  0  0
   36.3270   32.4530   38.9020 H   0  0  0  0  0  0  0  0  0  0  0  0
   37.4320   34.8980   38.8560 H   0  0  0  0  0  0  0  0  0  0  0  0
   35.9030   28.9370   41.0060 C   0  0  0  0  0  0  0  0  0  0  0  0
   36.8390   28.1520   41.6940 C   0  0  0  0  0  0  0  0  0  0  0  0
   38.0710   28.7190   42.0140 C   0  0  0  0  0  0  0  0  0  0  0  0
   38.2410   29.9900   41.6220 N   0  0  0  0  0  0  0  0  0  0  0  0
   37.3670   30.7390   40.9750 C   0  0  0  0  0  0  0  0  0  0  0  0
   36.1870   30.2060   40.6650 N   0  0  0  0  0  0  0  0  0  0  0  0
   34.9550   28.5070   40.7580 H   0  0  0  0  0  0  0  0  0  0  0  0
   36.6110   27.1310   41.9710 H   0  0  0  0  0  0  0  0  0  0  0  0
   39.0960   27.9940   42.7190 C   0  0  0  0  0  0  0  0  0  0  0  0
   38.9210   26.8050   43.3530 C   0  0  0  0  0  0  0  0  0  0  0  0
   37.9570   26.3370   43.3510 H   0  0  0  0  0  0  0  0  0  0  0  0
   39.9700   26.1860   44.0040 C   0  0  0  0  0  3  0  0  0  0  0  0
   41.2200   26.7380   44.0380 C   0  0  0  0  0  0  0  0  0  0  0  0
   42.0850   26.3030   44.5310 H   0  0  0  0  0  0  0  0  0  0  0  0
   41.4360   27.9440   43.4050 C   0  0  0  0  0  0  0  0  0  0  0  0
   42.3980   28.4180   43.4030 H   0  0  0  0  0  0  0  0  0  0  0  0
   40.3670   28.5240   42.7720 C   0  0  0  0  0  3  0  0  0  0  0  0
   39.3730   35.2510   40.8530 C   0  0  0  0  0  0  0  0  0  0  0  0
   40.0320   34.9610   41.6980 H   0  0  0  0  0  0  0  0  0  0  0  0
   38.7630   36.1010   41.1570 H   0  0  0  0  0  0  0  0  0  0  0  0
   40.2530   35.6110   39.7060 C   0  0  0  0  0  0  0  0  0  0  0  0
   39.6930   35.3350   38.7660 H   0  0  0  0  0  0  0  0  0  0  0  0
   40.3230   36.7190   39.6700 H   0  0  0  0  0  0  0  0  0  0  0  0
   42.3690   34.5610   40.6960 C   0  0  0  0  0  0  0  0  0  0  0  0
   41.5550   34.9800   39.6620 C   0  0  0  0  0  0  0  0  0  0  0  0
   42.0520   34.7670   38.3720 C   0  0  0  0  0  0  0  0  0  0  0  0
   43.2710   34.1790   38.1410 C   0  0  0  0  0  0  0  0  0  0  0  0
   43.9790   33.8590   37.0430 N   0  0  0  0  0  0  0  0  0  0  0  0
   45.1440   33.2850   37.3610 C   0  0  0  0  0  0  0  0  0  0  0  0
   45.2370   33.2110   38.7440 C   0  0  0  0  0  0  0  0  0  0  0  0
   44.0610   33.7720   39.1870 C   0  0  0  0  0  0  0  0  0  0  0  0
   43.5890   33.9740   40.4650 C   0  0  0  0  0  0  0  0  0  0  0  0
   41.9540   34.7420   41.6790 H   0  0  0  0  0  0  0  0  0  0  0  0
   41.5160   35.0460   37.4730 H   0  0  0  0  0  0  0  0  0  0  0  0
   43.6400   34.0450   36.0590 H   0  0  0  0  0  0  0  0  0  0  0  0
   45.8620   32.9520   36.6230 H   0  0  0  0  0  0  0  0  0  0  0  0
   46.0610   32.7980   39.2840 H   0  0  0  0  0  0  0  0  0  0  0  0
   44.3990   33.5560   41.6020 C   0  0  0  0  0  0  0  0  0  0  0  0
   43.8940   32.8940   42.5480 O   0  0  0  0  0  0  0  0  0  0  0  0
   45.4510   33.8000   41.6640 H   0  0  0  0  0  0  0  0  0  0  0  0
  1 12  1  0  0  0  0
  1  5  2  0  0  0  0
  2  1  1  0  0  0  0
  3  2  2  0  0  0  0
  3  4  1  0  0  0  0
  4 25  1  0  0  0  0
  4  5  1  0  0  0  0
  6  2  1  0  0  0  0
  7  3  1  0  0  0  0
  8  9  1  0  0  0  0
  9 15  1  0  0  0  0
  9 10  2  0  0  0  0
 10 16  1  0  0  0  0
 11 10  1  0  0  0  0
 12 11  2  0  0  0  0
 13 12  1  0  0  0  0
 13  8  2  0  0  0  0
 14  8  1  0  0  0  0
 16 24  2  0  0  0  0
 16 17  1  0  0  0  0
 17 19  2  0  0  0  0
 18 17  1  0  0  0  0
 19 20  1  0  0  0  0
 20 21  1  0  0  0  0
 22 20  2  0  0  0  0
 23 22  1  0  0  0  0
 24 22  1  0  0  0  0
 25 27  1  0  0  0  0
 25 26  1  0  0  0  0
 28 25  1  0  0  0  0
 29 28  1  0  0  0  0
 30 28  1  0  0  0  0
 31 40  1  0  0  0  0
 32 28  1  0  0  0  0
 32 31  2  0  0  0  0
 33 32  1  0  0  0  0
 34 33  2  0  0  0  0
 34 38  1  0  0  0  0
 35 36  1  0  0  0  0
 35 34  1  0  0  0  0
 36 37  2  0  0  0  0
 37 38  1  0  0  0  0
 37 44  1  0  0  0  0
 38 39  2  0  0  0  0
 39 31  1  0  0  0  0
 39 45  1  0  0  0  0
 41 33  1  0  0  0  0
 42 35  1  0  0  0  0
 43 36  1  0  0  0  0
 45 47  1  0  0  0  0
 45 46  2  0  0  0  0
M  END
>  <minimizedAffinity>
-7.19782734

$$$$

 OpenBabel03252506303D

 47 51  0  0  0  0  0  0  0  0999 V2000
   37.6830   32.1310   40.5410 C   0  0  0  0  0  0  0  0  0  0  0  0
   37.0260   32.8000   39.4920 C   0  0  0  0  0  0  0  0  0  0  0  0
   37.5260   34.0470   39.3850 C   0  0  0  0  0  0  0  0  0  0  0  0
   38.4590   34.1520   40.3300 N   0  0  0  0  0  0  0  0  0  0  0  0
   38.5710   33.0240   41.0320 N   0  0  0  0  0  0  0  0  0  0  0  0
   36.2420   32.3570   38.8810 H   0  0  0  0  0  0  0  0  0  0  0  0
   37.2540   34.8340   38.6880 H   0  0  0  0  0  0  0  0  0  0  0  0
   36.0320   28.9240   41.1520 C   0  0  0  0  0  0  0  0  0  0  0  0
   37.0290   28.1970   41.8200 C   0  0  0  0  0  0  0  0  0  0  0  0
   38.2550   28.8160   42.0520 C   0  0  0  0  0  0  0  0  0  0  0  0
   38.3620   30.0750   41.6030 N   0  0  0  0  0  0  0  0  0  0  0  0
   37.4310   30.7680   40.9740 C   0  0  0  0  0  0  0  0  0  0  0  0
   36.2550   30.1860   40.7480 N   0  0  0  0  0  0  0  0  0  0  0  0
   35.0880   28.4540   40.9720 H   0  0  0  0  0  0  0  0  0  0  0  0
   36.8500   27.1810   42.1470 H   0  0  0  0  0  0  0  0  0  0  0  0
   39.3400   28.1520   42.7280 C   0  0  0  0  0  0  0  0  0  0  0  0
   40.6310   28.5730   42.7420 C   0  0  0  0  0  0  0  0  0  0  0  0
   40.9050   29.4680   42.2200 H   0  0  0  0  0  0  0  0  0  0  0  0
   41.6020   27.8650   43.4220 C   0  0  0  0  0  3  0  0  0  0  0  0
   41.3090   26.7180   44.1040 C   0  0  0  0  0  0  0  0  0  0  0  0
   42.0240   26.1160   44.6580 H   0  0  0  0  0  0  0  0  0  0  0  0
   40.0080   26.2590   44.1140 C   0  0  0  0  0  0  0  0  0  0  0  0
   39.7280   25.3650   44.6350 H   0  0  0  0  0  0  0  0  0  0  0  0
   39.0760   26.9930   43.4260 C   0  0  0  0  0  3  0  0  0  0  0  0
   39.2650   35.3380   40.5810 C   0  0  0  0  0  0  0  0  0  0  0  0
   39.6610   35.2720   41.6160 H   0  0  0  0  0  0  0  0  0  0  0  0
   38.6640   36.2420   40.4900 H   0  0  0  0  0  0  0  0  0  0  0  0
   40.4350   35.3810   39.6600 C   0  0  0  0  0  0  0  0  0  0  0  0
   40.1890   34.7070   38.7880 H   0  0  0  0  0  0  0  0  0  0  0  0
   40.4780   36.3990   39.2180 H   0  0  0  0  0  0  0  0  0  0  0  0
   42.6550   34.1050   39.6900 C   0  0  0  0  0  0  0  0  0  0  0  0
   41.7100   34.9700   40.2070 C   0  0  0  0  0  0  0  0  0  0  0  0
   42.0220   35.5430   41.4430 C   0  0  0  0  0  0  0  0  0  0  0  0
   43.1910   35.2680   42.1080 C   0  0  0  0  0  0  0  0  0  0  0  0
   43.7370   35.6600   43.2730 N   0  0  0  0  0  0  0  0  0  0  0  0
   44.9290   35.0880   43.4730 C   0  0  0  0  0  0  0  0  0  0  0  0
   45.2110   34.2640   42.3930 C   0  0  0  0  0  0  0  0  0  0  0  0
   44.1140   34.4040   41.5730 C   0  0  0  0  0  0  0  0  0  0  0  0
   43.8250   33.8290   40.3550 C   0  0  0  0  0  0  0  0  0  0  0  0
   42.3810   33.6800   38.7320 H   0  0  0  0  0  0  0  0  0  0  0  0
   41.3710   36.2380   41.9590 H   0  0  0  0  0  0  0  0  0  0  0  0
   43.2670   36.3380   43.9350 H   0  0  0  0  0  0  0  0  0  0  0  0
   45.5350   35.2710   44.3520 H   0  0  0  0  0  0  0  0  0  0  0  0
   46.0970   33.6790   42.2800 H   0  0  0  0  0  0  0  0  0  0  0  0
   44.7790   32.9060   39.7540 C   0  0  0  0  0  0  0  0  0  0  0  0
   44.5840   31.6610   39.7870 O   0  0  0  0  0  0  0  0  0  0  0  0
   45.6750   33.2620   39.2650 H   0  0  0  0  0  0  0  0  0  0  0  0
  1 12  1  0  0  0  0
  1  5  2  0  0  0  0
  2  1  1  0  0  0  0
  3  2  2  0  0  0  0
  3  4  1  0  0  0  0
  4 25  1  0  0  0  0
  4  5  1  0  0  0  0
  6  2  1  0  0  0  0
  7  3  1  0  0  0  0
  8  9  1  0  0  0  0
  9 10  2  0  0  0  0
  9 15  1  0  0  0  0
 10 16  1  0  0  0  0
 11 10  1  0  0  0  0
 12 11  2  0  0  0  0
 13 12  1  0  0  0  0
 13  8  2  0  0  0  0
 14  8  1  0  0  0  0
 16 17  2  0  0  0  0
 16 24  1  0  0  0  0
 17 19  1  0  0  0  0
 18 17  1  0  0  0  0
 19 20  2  0  0  0  0
 20 22  1  0  0  0  0
 20 21  1  0  0  0  0
 22 23  1  0  0  0  0
 24 22  2  0  0  0  0
 25 26  1  0  0  0  0
 27 25  1  0  0  0  0
 28 32  1  0  0  0  0
 28 25  1  0  0  0  0
 29 28  1  0  0  0  0
 30 28  1  0  0  0  0
 31 32  2  0  0  0  0
 31 39  1  0  0  0  0
 32 33  1  0  0  0  0
 33 41  1  0  0  0  0
 33 34  2  0  0  0  0
 34 35  1  0  0  0  0
 35 36  1  0  0  0  0
 35 42  1  0  0  0  0
 36 43  1  0  0  0  0
 37 36  2  0  0  0  0
 38 34  1  0  0  0  0
 38 37  1  0  0  0  0
 39 38  2  0  0  0  0
 40 31  1  0  0  0  0
 44 37  1  0  0  0  0
 45 46  2  0  0  0  0
 45 39  1  0  0  0  0
 47 45  1  0  0  0  0
M  END
>  <minimizedAffinity>
-7.07792807

$$$$

 OpenBabel03252506303D

 47 51  0  0  0  0  0  0  0  0999 V2000
   38.5780   31.8980   39.7960 C   0  0  0  0  0  0  0  0  0  0  0  0
   39.0950   30.8990   38.9510 C   0  0  0  0  0  0  0  0  0  0  0  0
   38.2930   29.8170   39.0080 C   0  0  0  0  0  0  0  0  0  0  0  0
   37.3130   30.1300   39.8560 N   0  0  0  0  0  0  0  0  0  0  0  0
   37.4610   31.3640   40.3390 N   0  0  0  0  0  0  0  0  0  0  0  0
   40.0000   31.0090   38.3570 H   0  0  0  0  0  0  0  0  0  0  0  0
   38.3870   28.8690   38.4890 H   0  0  0  0  0  0  0  0  0  0  0  0
   38.9300   35.5180   40.1920 C   0  0  0  0  0  0  0  0  0  0  0  0
   40.3050   35.6610   40.4280 C   0  0  0  0  0  0  0  0  0  0  0  0
   41.0950   34.5140   40.4490 C   0  0  0  0  0  0  0  0  0  0  0  0
   40.4450   33.3610   40.2360 N   0  0  0  0  0  0  0  0  0  0  0  0
   39.1530   33.2140   40.0120 C   0  0  0  0  0  0  0  0  0  0  0  0
   38.3890   34.3040   39.9900 N   0  0  0  0  0  0  0  0  0  0  0  0
   38.3180   36.3960   40.1750 H   0  0  0  0  0  0  0  0  0  0  0  0
   40.7410   36.6380   40.5900 H   0  0  0  0  0  0  0  0  0  0  0  0
   42.5150   34.5590   40.6840 C   0  0  0  0  0  0  0  0  0  0  0  0
   43.4630   34.0330   39.8640 C   0  0  0  0  0  0  0  0  0  0  0  0
   43.1700   33.5380   38.9600 H   0  0  0  0  0  0  0  0  0  0  0  0
   44.8040   34.1270   40.1780 C   0  0  0  0  0  3  0  0  0  0  0  0
   45.2340   34.7470   41.3170 C   0  0  0  0  0  0  0  0  0  0  0  0
   46.2720   34.8540   41.6200 H   0  0  0  0  0  0  0  0  0  0  0  0
   44.3010   35.2930   42.1730 C   0  0  0  0  0  0  0  0  0  0  0  0
   44.5880   35.7900   43.0800 H   0  0  0  0  0  0  0  0  0  0  0  0
   42.9810   35.1770   41.8240 C   0  0  0  0  0  3  0  0  0  0  0  0
   36.2130   29.2500   40.2230 C   0  0  0  0  0  0  0  0  0  0  0  0
   36.3170   28.3090   39.6430 H   0  0  0  0  0  0  0  0  0  0  0  0
   35.2540   29.7070   39.9850 H   0  0  0  0  0  0  0  0  0  0  0  0
   36.2880   28.8930   41.6680 C   0  0  0  0  0  0  0  0  0  0  0  0
   36.6590   29.8100   42.2120 H   0  0  0  0  0  0  0  0  0  0  0  0
   35.2490   28.7550   42.0350 H   0  0  0  0  0  0  0  0  0  0  0  0
   36.9720   26.4270   41.7890 C   0  0  0  0  0  0  0  0  0  0  0  0
   37.1430   27.7790   42.0190 C   0  0  0  0  0  0  0  0  0  0  0  0
   38.3160   28.1380   42.6900 C   0  0  0  0  0  0  0  0  0  0  0  0
   39.2440   27.2120   43.0980 C   0  0  0  0  0  0  0  0  0  0  0  0
   40.4230   27.2680   43.7420 N   0  0  0  0  0  0  0  0  0  0  0  0
   40.9510   26.0500   43.9040 C   0  0  0  0  0  0  0  0  0  0  0  0
   40.0900   25.1160   43.3440 C   0  0  0  0  0  0  0  0  0  0  0  0
   39.0500   25.8740   42.8580 C   0  0  0  0  0  0  0  0  0  0  0  0
   37.9000   25.5000   42.1980 C   0  0  0  0  0  0  0  0  0  0  0  0
   36.0540   26.1860   41.2680 H   0  0  0  0  0  0  0  0  0  0  0  0
   38.5740   29.1610   42.9330 H   0  0  0  0  0  0  0  0  0  0  0  0
   40.8620   28.1710   44.0710 H   0  0  0  0  0  0  0  0  0  0  0  0
   41.8980   25.8750   44.3990 H   0  0  0  0  0  0  0  0  0  0  0  0
   40.2540   24.0610   43.3260 H   0  0  0  0  0  0  0  0  0  0  0  0
   37.6570   24.0900   41.9240 C   0  0  0  0  0  0  0  0  0  0  0  0
   36.9090   23.7340   40.9750 O   0  0  0  0  0  0  0  0  0  0  0  0
   38.1110   23.3140   42.5250 H   0  0  0  0  0  0  0  0  0  0  0  0
  1 12  1  0  0  0  0
  1  5  2  0  0  0  0
  2  3  2  0  0  0  0
  2  1  1  0  0  0  0
  3  4  1  0  0  0  0
  4 25  1  0  0  0  0
  4  5  1  0  0  0  0
  6  2  1  0  0  0  0
  7  3  1  0  0  0  0
  8  9  1  0  0  0  0
  9 10  2  0  0  0  0
  9 15  1  0  0  0  0
 10 16  1  0  0  0  0
 11 10  1  0  0  0  0
 12 11  2  0  0  0  0
 13 12  1  0  0  0  0
 13  8  2  0  0  0  0
 14  8  1  0  0  0  0
 16 24  1  0  0  0  0
 17 19  1  0  0  0  0
 17 16  2  0  0  0  0
 18 17  1  0  0  0  0
 19 20  2  0  0  0  0
 20 21  1  0  0  0  0
 20 22  1  0  0  0  0
 22 23  1  0  0  0  0
 24 22  2  0  0  0  0
 25 28  1  0  0  0  0
 26 25  1  0  0  0  0
 27 25  1  0  0  0  0
 28 32  1  0  0  0  0
 28 30  1  0  0  0  0
 28 29  1  0  0  0  0
 31 32  2  0  0  0  0
 31 39  1  0  0  0  0
 32 33  1  0  0  0  0
 33 41  1  0  0  0  0
 33 34  2  0  0  0  0
 34 35  1  0  0  0  0
 35 36  1  0  0  0  0
 35 42  1  0  0  0  0
 36 43  1  0  0  0  0
 37 36  2  0  0  0  0
 38 34  1  0  0  0  0
 38 37  1  0  0  0  0
 39 38  2  0  0  0  0
 40 31  1  0  0  0  0
 44 37  1  0  0  0  0
 45 39  1  0  0  0  0
 45 47  1  0  0  0  0
 46 45  2  0  0  0  0
M  END
>  <minimizedAffinity>
-6.84277058

$$$$

 OpenBabel03252506303D

 47 51  0  0  0  0  0  0  0  0999 V2000
   41.4940   30.9760   41.8800 C   0  0  0  0  0  0  0  0  0  0  0  0
   42.4140   32.0180   42.0940 C   0  0  0  0  0  0  0  0  0  0  0  0
   42.0990   33.0550   41.2920 C   0  0  0  0  0  0  0  0  0  0  0  0
   41.0220   32.6740   40.6050 N   0  0  0  0  0  0  0  0  0  0  0  0
   40.6430   31.4390   40.9370 N   0  0  0  0  0  0  0  0  0  0  0  0
   43.2410   31.9680   42.8000 H   0  0  0  0  0  0  0  0  0  0  0  0
   42.5910   34.0180   41.1950 H   0  0  0  0  0  0  0  0  0  0  0  0
   42.4980   28.1280   43.9460 C   0  0  0  0  0  0  0  0  0  0  0  0
   41.4200   27.2460   43.7820 C   0  0  0  0  0  0  0  0  0  0  0  0
   40.3620   27.6380   42.9660 C   0  0  0  0  0  0  0  0  0  0  0  0
   40.4830   28.8500   42.4040 N   0  0  0  0  0  0  0  0  0  0  0  0
   41.4920   29.6880   42.5500 C   0  0  0  0  0  0  0  0  0  0  0  0
   42.5090   29.3220   43.3290 N   0  0  0  0  0  0  0  0  0  0  0  0
   43.3140   27.8310   44.5720 H   0  0  0  0  0  0  0  0  0  0  0  0
   41.4100   26.2840   44.2770 H   0  0  0  0  0  0  0  0  0  0  0  0
   39.2120   26.8020   42.7360 C   0  0  0  0  0  0  0  0  0  0  0  0
   37.9260   27.2350   42.6780 C   0  0  0  0  0  0  0  0  0  0  0  0
   37.7080   28.2770   42.8080 H   0  0  0  0  0  0  0  0  0  0  0  0
   36.8880   26.3530   42.4530 C   0  0  0  0  0  3  0  0  0  0  0  0
   37.1080   25.0150   42.2810 C   0  0  0  0  0  0  0  0  0  0  0  0
   36.3370   24.2700   42.1000 H   0  0  0  0  0  0  0  0  0  0  0  0
   38.4000   24.5380   42.3320 C   0  0  0  0  0  0  0  0  0  0  0  0
   38.6250   23.4970   42.2030 H   0  0  0  0  0  0  0  0  0  0  0  0
   39.4000   25.4480   42.5580 C   0  0  0  0  0  3  0  0  0  0  0  0
   40.3330   33.4860   39.6140 C   0  0  0  0  0  0  0  0  0  0  0  0
   40.4310   32.9840   38.6290 H   0  0  0  0  0  0  0  0  0  0  0  0
   40.7760   34.4790   39.5490 H   0  0  0  0  0  0  0  0  0  0  0  0
   38.8780   33.5720   39.9260 C   0  0  0  0  0  0  0  0  0  0  0  0
   38.7910   33.6760   41.0470 H   0  0  0  0  0  0  0  0  0  0  0  0
   38.5050   34.5400   39.5290 H   0  0  0  0  0  0  0  0  0  0  0  0
   37.9570   31.8470   38.2720 C   0  0  0  0  0  0  0  0  0  0  0  0
   38.0550   32.4580   39.5080 C   0  0  0  0  0  0  0  0  0  0  0  0
   37.2440   31.9260   40.5140 C   0  0  0  0  0  0  0  0  0  0  0  0
   36.4000   30.8660   40.2970 C   0  0  0  0  0  0  0  0  0  0  0  0
   35.5320   30.1700   41.0530 N   0  0  0  0  0  0  0  0  0  0  0  0
   34.9370   29.2010   40.3510 C   0  0  0  0  0  0  0  0  0  0  0  0
   35.4200   29.2360   39.0500 C   0  0  0  0  0  0  0  0  0  0  0  0
   36.3210   30.2770   39.0590 C   0  0  0  0  0  0  0  0  0  0  0  0
   37.1130   30.7860   38.0540 C   0  0  0  0  0  0  0  0  0  0  0  0
   38.5990   32.2840   37.5170 H   0  0  0  0  0  0  0  0  0  0  0  0
   37.2230   32.3090   41.5270 H   0  0  0  0  0  0  0  0  0  0  0  0
   35.3570   30.3780   42.0750 H   0  0  0  0  0  0  0  0  0  0  0  0
   34.2030   28.5260   40.7740 H   0  0  0  0  0  0  0  0  0  0  0  0
   35.1220   28.5770   38.2650 H   0  0  0  0  0  0  0  0  0  0  0  0
   37.0570   30.1890   36.7250 C   0  0  0  0  0  0  0  0  0  0  0  0
   37.7040   29.1410   36.4590 O   0  0  0  0  0  0  0  0  0  0  0  0
   36.4610   30.6270   35.9370 H   0  0  0  0  0  0  0  0  0  0  0  0
  1  2  1  0  0  0  0
  1 12  1  0  0  0  0
  2  6  1  0  0  0  0
  3  2  2  0  0  0  0
  4  5  1  0  0  0  0
  4  3  1  0  0  0  0
  5  1  2  0  0  0  0
  7  3  1  0  0  0  0
  8 14  1  0  0  0  0
  9  8  1  0  0  0  0
  9 15  1  0  0  0  0
 10  9  2  0  0  0  0
 11 12  2  0  0  0  0
 11 10  1  0  0  0  0
 12 13  1  0  0  0  0
 13  8  2  0  0  0  0
 16 10  1  0  0  0  0
 17 16  1  0  0  0  0
 17 18  1  0  0  0  0
 19 17  2  0  0  0  0
 20 22  2  0  0  0  0
 20 19  1  0  0  0  0
 21 20  1  0  0  0  0
 22 24  1  0  0  0  0
 23 22  1  0  0  0  0
 24 16  2  0  0  0  0
 25 28  1  0  0  0  0
 25  4  1  0  0  0  0
 26 25  1  0  0  0  0
 27 25  1  0  0  0  0
 28 29  1  0  0  0  0
 30 28  1  0  0  0  0
 31 32  1  0  0  0  0
 32 28  1  0  0  0  0
 32 33  2  0  0  0  0
 33 41  1  0  0  0  0
 34 33  1  0  0  0  0
 34 35  1  0  0  0  0
 35 42  1  0  0  0  0
 36 43  1  0  0  0  0
 36 35  1  0  0  0  0
 37 38  1  0  0  0  0
 37 36  2  0  0  0  0
 38 34  2  0  0  0  0
 39 31  2  0  0  0  0
 39 38  1  0  0  0  0
 40 31  1  0  0  0  0
 44 37  1  0  0  0  0
 45 39  1  0  0  0  0
 46 45  2  0  0  0  0
 47 45  1  0  0  0  0
M  END
>  <minimizedAffinity>
-6.83320284

$$$$

 OpenBabel03252506303D

 47 51  0  0  0  0  0  0  0  0999 V2000
   38.0060   32.2370   39.7920 C   0  0  0  0  0  0  0  0  0  0  0  0
   37.4060   31.6730   38.6520 C   0  0  0  0  0  0  0  0  0  0  0  0
   36.6610   30.6130   39.0250 C   0  0  0  0  0  0  0  0  0  0  0  0
   36.7920   30.5200   40.3480 N   0  0  0  0  0  0  0  0  0  0  0  0
   37.5870   31.4750   40.8290 N   0  0  0  0  0  0  0  0  0  0  0  0
   37.5390   32.0520   37.6400 H   0  0  0  0  0  0  0  0  0  0  0  0
   36.0640   29.9470   38.4100 H   0  0  0  0  0  0  0  0  0  0  0  0
   39.2400   35.6600   40.1640 C   0  0  0  0  0  0  0  0  0  0  0  0
   40.5950   35.5280   39.8250 C   0  0  0  0  0  0  0  0  0  0  0  0
   41.0680   34.2660   39.4730 C   0  0  0  0  0  0  0  0  0  0  0  0
   40.1590   33.2810   39.4950 N   0  0  0  0  0  0  0  0  0  0  0  0
   38.8830   33.3930   39.8110 C   0  0  0  0  0  0  0  0  0  0  0  0
   38.4200   34.5960   40.1490 N   0  0  0  0  0  0  0  0  0  0  0  0
   38.8700   36.6280   40.4350 H   0  0  0  0  0  0  0  0  0  0  0  0
   41.2550   36.3850   39.8360 H   0  0  0  0  0  0  0  0  0  0  0  0
   42.4420   34.0310   39.1100 C   0  0  0  0  0  0  0  0  0  0  0  0
   42.9040   33.8840   37.8410 C   0  0  0  0  0  0  0  0  0  0  0  0
   42.2230   33.9420   37.0160 H   0  0  0  0  0  0  0  0  0  0  0  0
   44.2440   33.6590   37.5950 C   0  0  0  0  0  3  0  0  0  0  0  0
   45.1560   33.5750   38.6080 C   0  0  0  0  0  0  0  0  0  0  0  0
   46.2220   33.4010   38.4820 H   0  0  0  0  0  0  0  0  0  0  0  0
   44.7250   33.7200   39.9100 C   0  0  0  0  0  0  0  0  0  0  0  0
   45.4020   33.6620   40.7400 H   0  0  0  0  0  0  0  0  0  0  0  0
   43.3870   33.9410   40.1100 C   0  0  0  0  0  3  0  0  0  0  0  0
   36.1550   29.5100   41.1820 C   0  0  0  0  0  0  0  0  0  0  0  0
   36.0910   28.5700   40.5950 H   0  0  0  0  0  0  0  0  0  0  0  0
   35.1500   29.8180   41.4660 H   0  0  0  0  0  0  0  0  0  0  0  0
   36.9860   29.2260   42.3860 C   0  0  0  0  0  0  0  0  0  0  0  0
   37.7730   30.0340   42.4380 H   0  0  0  0  0  0  0  0  0  0  0  0
   36.3510   29.4020   43.2810 H   0  0  0  0  0  0  0  0  0  0  0  0
   38.7850   27.5580   43.1180 C   0  0  0  0  0  0  0  0  0  0  0  0
   37.6490   27.9410   42.4320 C   0  0  0  0  0  0  0  0  0  0  0  0
   37.0380   26.9460   41.6640 C   0  0  0  0  0  0  0  0  0  0  0  0
   37.5290   25.6660   41.5900 C   0  0  0  0  0  0  0  0  0  0  0  0
   37.1610   24.5420   40.9510 N   0  0  0  0  0  0  0  0  0  0  0  0
   37.9970   23.5320   41.2150 C   0  0  0  0  0  0  0  0  0  0  0  0
   38.9870   23.9900   42.0740 C   0  0  0  0  0  0  0  0  0  0  0  0
   38.6610   25.3110   42.2810 C   0  0  0  0  0  0  0  0  0  0  0  0
   39.2780   26.2780   43.0440 C   0  0  0  0  0  0  0  0  0  0  0  0
   39.2320   28.3530   43.7020 H   0  0  0  0  0  0  0  0  0  0  0  0
   36.1410   27.1110   41.0780 H   0  0  0  0  0  0  0  0  0  0  0  0
   36.3120   24.4820   40.3240 H   0  0  0  0  0  0  0  0  0  0  0  0
   37.8780   22.5390   40.7990 H   0  0  0  0  0  0  0  0  0  0  0  0
   39.7920   23.4010   42.4540 H   0  0  0  0  0  0  0  0  0  0  0  0
   40.4820   25.9400   43.7920 C   0  0  0  0  0  0  0  0  0  0  0  0
   41.1390   26.8280   44.3980 O   0  0  0  0  0  0  0  0  0  0  0  0
   40.8420   24.9210   43.8480 H   0  0  0  0  0  0  0  0  0  0  0  0
  1 12  1  0  0  0  0
  1  5  2  0  0  0  0
  2  3  2  0  0  0  0
  2  1  1  0  0  0  0
  3  4  1  0  0  0  0
  4  5  1  0  0  0  0
  4 25  1  0  0  0  0
  6  2  1  0  0  0  0
  7  3  1  0  0  0  0
  8 14  1  0  0  0  0
  9 15  1  0  0  0  0
  9  8  2  0  0  0  0
 10 11  2  0  0  0  0
 10  9  1  0  0  0  0
 11 12  1  0  0  0  0
 12 13  2  0  0  0  0
 13  8  1  0  0  0  0
 16 10  1  0  0  0  0
 16 24  1  0  0  0  0
 17 16  2  0  0  0  0
 18 17  1  0  0  0  0
 19 17  1  0  0  0  0
 19 20  2  0  0  0  0
 20 22  1  0  0  0  0
 21 20  1  0  0  0  0
 22 24  2  0  0  0  0
 22 23  1  0  0  0  0
 25 27  1  0  0  0  0
 25 28  1  0  0  0  0
 26 25  1  0  0  0  0
 28 32  1  0  0  0  0
 28 29  1  0  0  0  0
 28 30  1  0  0  0  0
 31 40  1  0  0  0  0
 32 31  2  0  0  0  0
 33 32  1  0  0  0  0
 34 33  2  0  0  0  0
 34 38  1  0  0  0  0
 35 36  1  0  0  0  0
 35 34  1  0  0  0  0
 36 37  2  0  0  0  0
 37 38  1  0  0  0  0
 37 44  1  0  0  0  0
 38 39  2  0  0  0  0
 39 31  1  0  0  0  0
 39 45  1  0  0  0  0
 41 33  1  0  0  0  0
 42 35  1  0  0  0  0
 43 36  1  0  0  0  0
 45 47  1  0  0  0  0
 45 46  2  0  0  0  0
M  END
>  <minimizedAffinity>
-6.75787449

$$$$

 OpenBabel03252506303D

 47 51  0  0  0  0  0  0  0  0999 V2000
   36.4090   29.7380   39.7670 C   0  0  0  0  0  0  0  0  0  0  0  0
   35.1780   29.3030   40.2900 C   0  0  0  0  0  0  0  0  0  0  0  0
   34.3540   28.9900   39.2710 C   0  0  0  0  0  0  0  0  0  0  0  0
   35.0450   29.2200   38.1550 N   0  0  0  0  0  0  0  0  0  0  0  0
   36.2710   29.6660   38.4240 N   0  0  0  0  0  0  0  0  0  0  0  0
   34.9540   29.2400   41.3540 H   0  0  0  0  0  0  0  0  0  0  0  0
   33.3320   28.6230   39.3070 H   0  0  0  0  0  0  0  0  0  0  0  0
   39.0260   31.8230   41.2470 C   0  0  0  0  0  0  0  0  0  0  0  0
   39.7430   30.8990   42.0200 C   0  0  0  0  0  0  0  0  0  0  0  0
   39.3210   29.5710   42.0250 C   0  0  0  0  0  0  0  0  0  0  0  0
   38.2440   29.3040   41.2710 N   0  0  0  0  0  0  0  0  0  0  0  0
   37.5620   30.1650   40.5400 C   0  0  0  0  0  0  0  0  0  0  0  0
   37.9580   31.4370   40.5280 N   0  0  0  0  0  0  0  0  0  0  0  0
   39.3460   32.8450   41.2390 H   0  0  0  0  0  0  0  0  0  0  0  0
   40.6040   31.2080   42.5990 H   0  0  0  0  0  0  0  0  0  0  0  0
   39.9920   28.5500   42.7870 C   0  0  0  0  0  0  0  0  0  0  0  0
   39.3960   27.4570   43.3300 C   0  0  0  0  0  0  0  0  0  0  0  0
   38.3420   27.3060   43.2020 H   0  0  0  0  0  0  0  0  0  0  0  0
   40.1280   26.5310   44.0460 C   0  0  0  0  0  3  0  0  0  0  0  0
   41.4730   26.6730   44.2390 C   0  0  0  0  0  0  0  0  0  0  0  0
   42.1050   25.9820   44.7920 H   0  0  0  0  0  0  0  0  0  0  0  0
   42.1130   27.7690   43.7030 C   0  0  0  0  0  0  0  0  0  0  0  0
   43.1670   27.9260   43.8270 H   0  0  0  0  0  0  0  0  0  0  0  0
   41.3490   28.6640   42.9990 C   0  0  0  0  0  3  0  0  0  0  0  0
   34.5420   29.0170   36.8040 C   0  0  0  0  0  0  0  0  0  0  0  0
   35.1340   28.2040   36.3350 H   0  0  0  0  0  0  0  0  0  0  0  0
   34.6510   29.9220   36.2080 H   0  0  0  0  0  0  0  0  0  0  0  0
   33.1200   28.5700   36.8360 C   0  0  0  0  0  0  0  0  0  0  0  0
   33.0140   27.7640   36.0530 H   0  0  0  0  0  0  0  0  0  0  0  0
   32.9550   28.0420   37.7990 H   0  0  0  0  0  0  0  0  0  0  0  0
   31.2400   30.1900   37.4690 C   0  0  0  0  0  0  0  0  0  0  0  0
   32.1140   29.5800   36.5890 C   0  0  0  0  0  0  0  0  0  0  0  0
   32.0250   29.9950   35.2570 C   0  0  0  0  0  0  0  0  0  0  0  0
   31.1270   30.9470   34.8410 C   0  0  0  0  0  0  0  0  0  0  0  0
   30.8280   31.5210   33.6620 N   0  0  0  0  0  0  0  0  0  0  0  0
   29.8460   32.4190   33.7890 C   0  0  0  0  0  0  0  0  0  0  0  0
   29.4530   32.4600   35.1200 C   0  0  0  0  0  0  0  0  0  0  0  0
   30.2690   31.5380   35.7350 C   0  0  0  0  0  0  0  0  0  0  0  0
   30.3420   31.1420   37.0530 C   0  0  0  0  0  0  0  0  0  0  0  0
   31.3380   29.8450   38.4900 H   0  0  0  0  0  0  0  0  0  0  0  0
   32.6500   29.6000   34.4670 H   0  0  0  0  0  0  0  0  0  0  0  0
   31.3200   31.2800   32.7580 H   0  0  0  0  0  0  0  0  0  0  0  0
   29.4550   32.9940   32.9590 H   0  0  0  0  0  0  0  0  0  0  0  0
   28.6860   33.0880   35.5170 H   0  0  0  0  0  0  0  0  0  0  0  0
   29.4470   31.7450   38.0330 C   0  0  0  0  0  0  0  0  0  0  0  0
   28.7300   31.0290   38.7810 O   0  0  0  0  0  0  0  0  0  0  0  0
   29.3760   32.8180   38.1440 H   0  0  0  0  0  0  0  0  0  0  0  0
  1  2  1  0  0  0  0
  1 12  1  0  0  0  0
  2  6  1  0  0  0  0
  3  7  1  0  0  0  0
  3  2  2  0  0  0  0
  4  5  1  0  0  0  0
  4  3  1  0  0  0  0
  5  1  2  0  0  0  0
  8  9  1  0  0  0  0
  9 10  2  0  0  0  0
  9 15  1  0  0  0  0
 10 16  1  0  0  0  0
 11 10  1  0  0  0  0
 12 11  2  0  0  0  0
 13 12  1  0  0  0  0
 13  8  2  0  0  0  0
 14  8  1  0  0  0  0
 16 24  2  0  0  0  0
 16 17  1  0  0  0  0
 17 19  2  0  0  0  0
 18 17  1  0  0  0  0
 19 20  1  0  0  0  0
 20 21  1  0  0  0  0
 22 23  1  0  0  0  0
 22 20  2  0  0  0  0
 24 22  1  0  0  0  0
 25 28  1  0  0  0  0
 25  4  1  0  0  0  0
 26 25  1  0  0  0  0
 27 25  1  0  0  0  0
 28 30  1  0  0  0  0
 29 28  1  0  0  0  0
 31 40  1  0  0  0  0
 32 28  1  0  0  0  0
 32 31  2  0  0  0  0
 33 32  1  0  0  0  0
 34 33  2  0  0  0  0
 34 38  1  0  0  0  0
 35 36  1  0  0  0  0
 35 34  1  0  0  0  0
 36 37  2  0  0  0  0
 37 44  1  0  0  0  0
 37 38  1  0  0  0  0
 38 39  2  0  0  0  0
 39 31  1  0  0  0  0
 39 45  1  0  0  0  0
 41 33  1  0  0  0  0
 42 35  1  0  0  0  0
 43 36  1  0  0  0  0
 45 47  1  0  0  0  0
 45 46  2  0  0  0  0
M  END
>  <minimizedAffinity>
-6.66463566

$$$$

 OpenBabel03252506303D

 47 51  0  0  0  0  0  0  0  0999 V2000
   37.9810   31.8890   39.0140 C   0  0  0  0  0  0  0  0  0  0  0  0
   38.1510   31.2330   37.7820 C   0  0  0  0  0  0  0  0  0  0  0  0
   37.2770   30.2100   37.7030 C   0  0  0  0  0  0  0  0  0  0  0  0
   36.5870   30.2270   38.8440 N   0  0  0  0  0  0  0  0  0  0  0  0
   36.9880   31.2180   39.6410 N   0  0  0  0  0  0  0  0  0  0  0  0
   38.8810   31.5260   37.0300 H   0  0  0  0  0  0  0  0  0  0  0  0
   37.1310   29.4960   36.8990 H   0  0  0  0  0  0  0  0  0  0  0  0
   38.8200   35.1280   40.4920 C   0  0  0  0  0  0  0  0  0  0  0  0
   40.2130   35.1780   40.3310 C   0  0  0  0  0  0  0  0  0  0  0  0
   40.8470   34.1010   39.7180 C   0  0  0  0  0  0  0  0  0  0  0  0
   40.0430   33.0990   39.3330 N   0  0  0  0  0  0  0  0  0  0  0  0
   38.7320   33.0410   39.4800 C   0  0  0  0  0  0  0  0  0  0  0  0
   38.1160   34.0660   40.0650 N   0  0  0  0  0  0  0  0  0  0  0  0
   38.3280   35.9540   40.9630 H   0  0  0  0  0  0  0  0  0  0  0  0
   40.7810   36.0330   40.6740 H   0  0  0  0  0  0  0  0  0  0  0  0
   42.2710   34.0600   39.5070 C   0  0  0  0  0  0  0  0  0  0  0  0
   43.2080   34.0080   40.4890 C   0  0  0  0  0  0  0  0  0  0  0  0
   42.9030   33.9940   41.5170 H   0  0  0  0  0  0  0  0  0  0  0  0
   44.5550   33.9720   40.1850 C   0  0  0  0  0  3  0  0  0  0  0  0
   45.0000   33.9880   38.8940 C   0  0  0  0  0  0  0  0  0  0  0  0
   46.0420   33.9620   38.5880 H   0  0  0  0  0  0  0  0  0  0  0  0
   44.0780   34.0390   37.8700 C   0  0  0  0  0  0  0  0  0  0  0  0
   44.3770   34.0530   36.8390 H   0  0  0  0  0  0  0  0  0  0  0  0
   42.7520   34.0740   38.2150 C   0  0  0  0  0  3  0  0  0  0  0  0
   35.5280   29.2930   39.1940 C   0  0  0  0  0  0  0  0  0  0  0  0
   34.8120   29.2500   38.3460 H   0  0  0  0  0  0  0  0  0  0  0  0
   34.9980   29.6220   40.0860 H   0  0  0  0  0  0  0  0  0  0  0  0
   36.0800   27.9210   39.3790 C   0  0  0  0  0  0  0  0  0  0  0  0
   35.2050   27.2080   39.3360 H   0  0  0  0  0  0  0  0  0  0  0  0
   36.6810   27.6750   38.4780 H   0  0  0  0  0  0  0  0  0  0  0  0
   36.5730   28.1410   41.8830 C   0  0  0  0  0  0  0  0  0  0  0  0
   36.8090   27.6720   40.6050 C   0  0  0  0  0  0  0  0  0  0  0  0
   37.9140   26.8280   40.4610 C   0  0  0  0  0  0  0  0  0  0  0  0
   38.7190   26.4830   41.5170 C   0  0  0  0  0  0  0  0  0  0  0  0
   39.8140   25.7160   41.6670 N   0  0  0  0  0  0  0  0  0  0  0  0
   40.2330   25.7020   42.9370 C   0  0  0  0  0  0  0  0  0  0  0  0
   39.3840   26.5010   43.6910 C   0  0  0  0  0  0  0  0  0  0  0  0
   38.4640   26.9630   42.7780 C   0  0  0  0  0  0  0  0  0  0  0  0
   37.3790   27.7960   42.9400 C   0  0  0  0  0  0  0  0  0  0  0  0
   35.7100   28.7910   41.9570 H   0  0  0  0  0  0  0  0  0  0  0  0
   38.2110   26.3910   39.5150 H   0  0  0  0  0  0  0  0  0  0  0  0
   40.2720   25.1950   40.8700 H   0  0  0  0  0  0  0  0  0  0  0  0
   41.0990   25.1450   43.2710 H   0  0  0  0  0  0  0  0  0  0  0  0
   39.4750   26.6770   44.7410 H   0  0  0  0  0  0  0  0  0  0  0  0
   37.0750   28.3260   44.2630 C   0  0  0  0  0  0  0  0  0  0  0  0
   36.2010   27.7860   44.9920 O   0  0  0  0  0  0  0  0  0  0  0  0
   37.5890   29.1940   44.6530 H   0  0  0  0  0  0  0  0  0  0  0  0
  1 12  1  0  0  0  0
  1  5  2  0  0  0  0
  2  1  1  0  0  0  0
  3  2  2  0  0  0  0
  3  4  1  0  0  0  0
  4 25  1  0  0  0  0
  4  5  1  0  0  0  0
  6  2  1  0  0  0  0
  7  3  1  0  0  0  0
  8 14  1  0  0  0  0
  9  8  1  0  0  0  0
  9 15  1  0  0  0  0
 10  9  2  0  0  0  0
 11 12  2  0  0  0  0
 11 10  1  0  0  0  0
 12 13  1  0  0  0  0
 13  8  2  0  0  0  0
 16 10  1  0  0  0  0
 16 17  1  0  0  0  0
 17 18  1  0  0  0  0
 19 17  2  0  0  0  0
 20 19  1  0  0  0  0
 21 20  1  0  0  0  0
 22 24  1  0  0  0  0
 22 20  2  0  0  0  0
 23 22  1  0  0  0  0
 24 16  2  0  0  0  0
 25 28  1  0  0  0  0
 25 27  1  0  0  0  0
 26 25  1  0  0  0  0
 28 32  1  0  0  0  0
 29 28  1  0  0  0  0
 30 28  1  0  0  0  0
 31 40  1  0  0  0  0
 31 39  1  0  0  0  0
 32 31  2  0  0  0  0
 33 32  1  0  0  0  0
 33 34  2  0  0  0  0
 34 35  1  0  0  0  0
 34 38  1  0  0  0  0
 35 36  1  0  0  0  0
 36 43  1  0  0  0  0
 36 37  2  0  0  0  0
 37 44  1  0  0  0  0
 38 39  2  0  0  0  0
 38 37  1  0  0  0  0
 39 45  1  0  0  0  0
 41 33  1  0  0  0  0
 42 35  1  0  0  0  0
 45 47  1  0  0  0  0
 45 46  2  0  0  0  0
M  END
>  <minimizedAffinity>
-6.63760138

$$$$

 OpenBabel03252506303D

 47 51  0  0  0  0  0  0  0  0999 V2000
   39.1300   31.9630   39.1280 C   0  0  0  0  0  0  0  0  0  0  0  0
   37.9480   31.9940   38.3660 C   0  0  0  0  0  0  0  0  0  0  0  0
   36.9740   31.3490   39.0370 C   0  0  0  0  0  0  0  0  0  0  0  0
   37.5270   30.9310   40.1760 N   0  0  0  0  0  0  0  0  0  0  0  0
   38.8100   31.2840   40.2530 N   0  0  0  0  0  0  0  0  0  0  0  0
   37.8620   32.4710   37.3910 H   0  0  0  0  0  0  0  0  0  0  0  0
   35.9410   31.1810   38.7490 H   0  0  0  0  0  0  0  0  0  0  0  0
   42.0150   33.0400   37.1540 C   0  0  0  0  0  0  0  0  0  0  0  0
   42.8170   33.6710   38.1170 C   0  0  0  0  0  0  0  0  0  0  0  0
   42.3590   33.7190   39.4310 C   0  0  0  0  0  0  0  0  0  0  0  0
   41.1670   33.1430   39.6490 N   0  0  0  0  0  0  0  0  0  0  0  0
   40.4040   32.5470   38.7520 C   0  0  0  0  0  0  0  0  0  0  0  0
   40.8340   32.4960   37.4930 N   0  0  0  0  0  0  0  0  0  0  0  0
   42.3630   33.0000   36.1420 H   0  0  0  0  0  0  0  0  0  0  0  0
   43.7690   34.1080   37.8450 H   0  0  0  0  0  0  0  0  0  0  0  0
   43.1100   34.3430   40.4890 C   0  0  0  0  0  0  0  0  0  0  0  0
   42.5820   35.1020   41.4840 C   0  0  0  0  0  0  0  0  0  0  0  0
   41.5240   35.2730   41.5200 H   0  0  0  0  0  0  0  0  0  0  0  0
   43.3890   35.6600   42.4560 C   0  0  0  0  0  3  0  0  0  0  0  0
   44.7420   35.4760   42.4590 C   0  0  0  0  0  0  0  0  0  0  0  0
   45.4310   35.8870   43.1930 H   0  0  0  0  0  0  0  0  0  0  0  0
   45.3150   34.7110   41.4650 C   0  0  0  0  0  0  0  0  0  0  0  0
   46.3730   34.5370   41.4230 H   0  0  0  0  0  0  0  0  0  0  0  0
   44.4780   34.1760   40.5200 C   0  0  0  0  0  3  0  0  0  0  0  0
   36.8350   30.1820   41.2150 C   0  0  0  0  0  0  0  0  0  0  0  0
   36.5380   29.2000   40.7920 H   0  0  0  0  0  0  0  0  0  0  0  0
   35.9410   30.7090   41.5450 H   0  0  0  0  0  0  0  0  0  0  0  0
   37.7480   29.9140   42.3620 C   0  0  0  0  0  0  0  0  0  0  0  0
   38.6540   30.5720   42.2190 H   0  0  0  0  0  0  0  0  0  0  0  0
   37.2610   30.3090   43.2790 H   0  0  0  0  0  0  0  0  0  0  0  0
   39.3490   28.0660   43.1250 C   0  0  0  0  0  0  0  0  0  0  0  0
   38.2000   28.5490   42.5300 C   0  0  0  0  0  0  0  0  0  0  0  0
   37.3330   27.5840   42.0090 C   0  0  0  0  0  0  0  0  0  0  0  0
   37.6000   26.2390   42.0790 C   0  0  0  0  0  0  0  0  0  0  0  0
   36.9690   25.1220   41.6760 N   0  0  0  0  0  0  0  0  0  0  0  0
   37.6650   24.0250   41.9930 C   0  0  0  0  0  0  0  0  0  0  0  0
   38.8290   24.4110   42.6420 C   0  0  0  0  0  0  0  0  0  0  0  0
   38.7510   25.7850   42.6760 C   0  0  0  0  0  0  0  0  0  0  0  0
   39.6170   26.7210   43.1950 C   0  0  0  0  0  0  0  0  0  0  0  0
   39.9960   28.8410   43.5170 H   0  0  0  0  0  0  0  0  0  0  0  0
   36.3980   27.8250   41.5180 H   0  0  0  0  0  0  0  0  0  0  0  0
   36.0390   25.1300   41.1740 H   0  0  0  0  0  0  0  0  0  0  0  0
   37.3310   23.0220   41.7570 H   0  0  0  0  0  0  0  0  0  0  0  0
   39.5790   23.7450   43.0110 H   0  0  0  0  0  0  0  0  0  0  0  0
   40.8500   26.2780   43.8360 C   0  0  0  0  0  0  0  0  0  0  0  0
   41.4830   27.0390   44.6150 O   0  0  0  0  0  0  0  0  0  0  0  0
   41.2500   25.2890   43.6610 H   0  0  0  0  0  0  0  0  0  0  0  0
  1  5  2  0  0  0  0
  2  3  2  0  0  0  0
  2  1  1  0  0  0  0
  3  4  1  0  0  0  0
  4  5  1  0  0  0  0
  4 25  1  0  0  0  0
  6  2  1  0  0  0  0
  7  3  1  0  0  0  0
  8 13  2  0  0  0  0
  8  9  1  0  0  0  0
  9 10  2  0  0  0  0
 10 11  1  0  0  0  0
 10 16  1  0  0  0  0
 12  1  1  0  0  0  0
 12 11  2  0  0  0  0
 13 12  1  0  0  0  0
 14  8  1  0  0  0  0
 15  9  1  0  0  0  0
 16 24  2  0  0  0  0
 16 17  1  0  0  0  0
 17 18  1  0  0  0  0
 17 19  2  0  0  0  0
 19 20  1  0  0  0  0
 20 21  1  0  0  0  0
 22 20  2  0  0  0  0
 23 22  1  0  0  0  0
 24 22  1  0  0  0  0
 25 27  1  0  0  0  0
 25 28  1  0  0  0  0
 26 25  1  0  0  0  0
 28 32  1  0  0  0  0
 28 30  1  0  0  0  0
 29 28  1  0  0  0  0
 31 39  1  0  0  0  0
 31 40  1  0  0  0  0
 32 31  2  0  0  0  0
 33 34  2  0  0  0  0
 33 32  1  0  0  0  0
 34 38  1  0  0  0  0
 35 36  1  0  0  0  0
 35 34  1  0  0  0  0
 36 37  2  0  0  0  0
 37 38  1  0  0  0  0
 37 44  1  0  0  0  0
 38 39  2  0  0  0  0
 39 45  1  0  0  0  0
 41 33  1  0  0  0  0
 42 35  1  0  0  0  0
 43 36  1  0  0  0  0
 45 46  2  0  0  0  0
 47 45  1  0  0  0  0
M  END
>  <minimizedAffinity>
-6.63225842

$$$$

 OpenBabel03252506303D

 47 51  0  0  0  0  0  0  0  0999 V2000
   38.1440   31.6420   40.9680 C   0  0  0  0  0  0  0  0  0  0  0  0
   37.3360   32.1810   39.9510 C   0  0  0  0  0  0  0  0  0  0  0  0
   37.6460   33.4820   39.7860 C   0  0  0  0  0  0  0  0  0  0  0  0
   38.6110   33.7450   40.6660 N   0  0  0  0  0  0  0  0  0  0  0  0
   38.9250   32.6650   41.3830 N   0  0  0  0  0  0  0  0  0  0  0  0
   36.5870   31.6140   39.4010 H   0  0  0  0  0  0  0  0  0  0  0  0
   37.2240   34.2020   39.0920 H   0  0  0  0  0  0  0  0  0  0  0  0
   38.5840   28.6810   43.0710 C   0  0  0  0  0  0  0  0  0  0  0  0
   38.0290   27.6660   42.2780 C   0  0  0  0  0  0  0  0  0  0  0  0
   37.5100   28.0100   41.0320 C   0  0  0  0  0  0  0  0  0  0  0  0
   37.5960   29.3080   40.7080 N   0  0  0  0  0  0  0  0  0  0  0  0
   38.1160   30.2710   41.4450 C   0  0  0  0  0  0  0  0  0  0  0  0
   38.6150   29.9530   42.6380 N   0  0  0  0  0  0  0  0  0  0  0  0
   38.9850   28.4230   44.0290 H   0  0  0  0  0  0  0  0  0  0  0  0
   38.0040   26.6420   42.6250 H   0  0  0  0  0  0  0  0  0  0  0  0
   36.9190   27.0390   40.1470 C   0  0  0  0  0  0  0  0  0  0  0  0
   36.9080   25.6960   40.3500 C   0  0  0  0  0  0  0  0  0  0  0  0
   37.3640   25.2860   41.2290 H   0  0  0  0  0  0  0  0  0  0  0  0
   36.3140   24.8450   39.4390 C   0  0  0  0  0  3  0  0  0  0  0  0
   35.7190   25.3120   38.3020 C   0  0  0  0  0  0  0  0  0  0  0  0
   35.2360   24.6970   37.5470 H   0  0  0  0  0  0  0  0  0  0  0  0
   35.7100   26.6700   38.0610 C   0  0  0  0  0  0  0  0  0  0  0  0
   35.2550   27.0860   37.1830 H   0  0  0  0  0  0  0  0  0  0  0  0
   36.3100   27.4790   38.9910 C   0  0  0  0  0  3  0  0  0  0  0  0
   39.2540   35.0390   40.8400 C   0  0  0  0  0  0  0  0  0  0  0  0
   39.9220   34.9760   41.7240 H   0  0  0  0  0  0  0  0  0  0  0  0
   38.5150   35.8200   41.0130 H   0  0  0  0  0  0  0  0  0  0  0  0
   40.1060   35.3640   39.6610 C   0  0  0  0  0  0  0  0  0  0  0  0
   39.5490   35.0030   38.7480 H   0  0  0  0  0  0  0  0  0  0  0  0
   40.1240   36.4690   39.5540 H   0  0  0  0  0  0  0  0  0  0  0  0
   42.2230   34.3520   40.6870 C   0  0  0  0  0  0  0  0  0  0  0  0
   41.4350   34.7910   39.6410 C   0  0  0  0  0  0  0  0  0  0  0  0
   41.9920   34.6670   38.3650 C   0  0  0  0  0  0  0  0  0  0  0  0
   43.2440   34.1440   38.1560 C   0  0  0  0  0  0  0  0  0  0  0  0
   44.0090   33.9120   37.0750 N   0  0  0  0  0  0  0  0  0  0  0  0
   45.1850   33.3710   37.4130 C   0  0  0  0  0  0  0  0  0  0  0  0
   45.2250   33.2270   38.7930 C   0  0  0  0  0  0  0  0  0  0  0  0
   44.0080   33.7150   39.2130 C   0  0  0  0  0  0  0  0  0  0  0  0
   43.4760   33.8290   40.4780 C   0  0  0  0  0  0  0  0  0  0  0  0
   41.7600   34.4640   41.6590 H   0  0  0  0  0  0  0  0  0  0  0  0
   41.4820   34.9710   37.4590 H   0  0  0  0  0  0  0  0  0  0  0  0
   43.7030   34.1360   36.0880 H   0  0  0  0  0  0  0  0  0  0  0  0
   45.9470   33.1080   36.6900 H   0  0  0  0  0  0  0  0  0  0  0  0
   46.0430   32.8210   39.3460 H   0  0  0  0  0  0  0  0  0  0  0  0
   44.2560   33.3860   41.6270 C   0  0  0  0  0  0  0  0  0  0  0  0
   43.7300   33.2840   42.7670 O   0  0  0  0  0  0  0  0  0  0  0  0
   45.3030   33.1320   41.5310 H   0  0  0  0  0  0  0  0  0  0  0  0
  1  5  2  0  0  0  0
  1 12  1  0  0  0  0
  2  1  1  0  0  0  0
  3  2  2  0  0  0  0
  3  4  1  0  0  0  0
  4 25  1  0  0  0  0
  4  5  1  0  0  0  0
  6  2  1  0  0  0  0
  7  3  1  0  0  0  0
  8 14  1  0  0  0  0
  9 15  1  0  0  0  0
  9  8  2  0  0  0  0
 10  9  1  0  0  0  0
 11 10  2  0  0  0  0
 11 12  1  0  0  0  0
 12 13  2  0  0  0  0
 13  8  1  0  0  0  0
 16 17  1  0  0  0  0
 16 10  1  0  0  0  0
 17 18  1  0  0  0  0
 19 17  2  0  0  0  0
 20 19  1  0  0  0  0
 21 20  1  0  0  0  0
 22 20  2  0  0  0  0
 22 24  1  0  0  0  0
 23 22  1  0  0  0  0
 24 16  2  0  0  0  0
 25 27  1  0  0  0  0
 25 26  1  0  0  0  0
 28 25  1  0  0  0  0
 29 28  1  0  0  0  0
 30 28  1  0  0  0  0
 31 40  1  0  0  0  0
 32 28  1  0  0  0  0
 32 31  2  0  0  0  0
 33 32  1  0  0  0  0
 34 33  2  0  0  0  0
 34 38  1  0  0  0  0
 35 36  1  0  0  0  0
 35 34  1  0  0  0  0
 36 37  2  0  0  0  0
 37 38  1  0  0  0  0
 37 44  1  0  0  0  0
 38 39  2  0  0  0  0
 39 31  1  0  0  0  0
 39 45  1  0  0  0  0
 41 33  1  0  0  0  0
 42 35  1  0  0  0  0
 43 36  1  0  0  0  0
 45 46  2  0  0  0  0
 47 45  1  0  0  0  0
M  END
>  <minimizedAffinity>
-6.59868622

$$$$
