
 OpenBabel03252508193D

 47 51  0  0  1  0  0  0  0  0999 V2000
   38.9510   32.0620   40.9880 C   0  0  0  0  0  0  0  0  0  0  0  0
   39.8220   32.4600   40.5120 H   0  0  0  0  0  0  0  0  0  0  0  0
   39.0230   32.3830   42.0730 H   0  0  0  0  0  0  0  0  0  0  0  0
   37.6270   32.5330   40.5200 C   0  0  1  0  0  0  0  0  0  0  0  0
   37.6700   33.8000   39.7340 C   0  0  0  0  0  0  0  0  0  0  0  0
   37.2960   32.5450   39.0750 C   0  0  1  0  0  0  0  0  0  0  0  0
   36.7440   32.5270   41.1750 H   0  0  0  0  0  0  0  0  0  0  0  0
   36.9420   34.6130   39.9190 H   0  0  0  0  0  0  0  0  0  0  0  0
   38.6660   34.2300   39.4390 H   0  0  0  0  0  0  0  0  0  0  0  0
   36.2280   32.5310   38.7640 H   0  0  0  0  0  0  0  0  0  0  0  0
   38.2030   31.8310   38.1560 C   0  0  2  0  0  0  0  0  0  0  0  0
   37.6850   31.6870   36.7060 C   0  0  0  0  0  0  0  0  0  0  0  0
   37.7300   30.4970   37.5600 C   0  0  2  0  0  0  0  0  0  0  0  0
   39.2910   31.9870   38.1450 H   0  0  0  0  0  0  0  0  0  0  0  0
   38.4200   31.6960   35.8760 H   0  0  0  0  0  0  0  0  0  0  0  0
   36.7500   32.1770   36.4510 H   0  0  0  0  0  0  0  0  0  0  0  0
   38.5440   29.7300   37.5330 H   0  0  0  0  0  0  0  0  0  0  0  0
   36.4420   29.9200   37.9840 C   0  0  0  0  0  0  0  0  0  0  0  0
   35.9760   29.7440   39.2710 C   0  0  0  0  0  0  0  0  0  0  0  0
   36.5940   30.0740   40.0880 H   0  0  0  0  0  0  0  0  0  0  0  0
   34.7790   29.1930   39.6110 C   0  0  0  0  0  3  0  0  0  0  0  0
   33.9220   28.7560   38.6230 C   0  0  0  0  0  0  0  0  0  0  0  0
   32.9890   28.3270   38.8920 H   0  0  0  0  0  0  0  0  0  0  0  0
   34.3000   28.8900   37.3040 C   0  0  0  0  0  0  0  0  0  0  0  0
   33.6520   28.5590   36.5110 H   0  0  0  0  0  0  0  0  0  0  0  0
   35.5250   29.4580   37.0360 C   0  0  0  0  0  3  0  0  0  0  0  0
   38.3910   30.0930   42.1410 C   0  0  0  0  0  2  0  0  0  0  0  0
   39.0040   30.5530   41.1030 C   0  0  0  0  0  2  0  0  0  0  0  0
   39.2680   26.7980   43.5070 C   0  0  0  0  0  0  0  0  0  0  0  0
   38.6030   25.9090   42.6780 C   0  0  0  0  0  0  0  0  0  0  0  0
   37.8510   26.4630   41.6890 C   0  0  0  0  0  0  0  0  0  0  0  0
   37.7700   27.8140   41.5350 N   0  0  0  0  0  0  0  0  0  0  0  0
   38.4220   28.6620   42.3470 C   0  0  0  0  0  0  0  0  0  0  0  0
   39.1540   28.1140   43.3150 N   0  0  0  0  0  0  0  0  0  0  0  0
   39.8920   26.4610   44.3250 H   0  0  0  0  0  0  0  0  0  0  0  0
   38.6850   24.8410   42.8190 H   0  0  0  0  0  0  0  0  0  0  0  0
   37.0960   25.6450   40.7510 C   0  0  0  0  0  0  0  0  0  0  0  0
   36.6820   24.3490   41.0130 C   0  0  0  0  0  0  0  0  0  0  0  0
   35.9670   23.5720   40.1300 C   0  0  0  0  0  0  0  0  0  0  0  0
   35.6260   24.0810   38.9030 C   0  0  0  0  0  0  0  0  0  0  0  0
   36.0080   25.3560   38.5860 C   0  0  0  0  0  0  0  0  0  0  0  0
   36.7240   26.0900   39.5110 C   0  0  0  0  0  0  0  0  0  0  0  0
   36.9390   23.9090   41.9890 H   0  0  0  0  0  0  0  0  0  0  0  0
   35.6700   22.5610   40.3940 H   0  0  0  0  0  0  0  0  0  0  0  0
   35.0630   23.4370   38.2350 H   0  0  0  0  0  0  0  0  0  0  0  0
   35.7460   25.7730   37.6170 H   0  0  0  0  0  0  0  0  0  0  0  0
   37.0040   27.1070   39.2030 H   0  0  0  0  0  0  0  0  0  0  0  0
  1 28  1  0  0  0  0
  1  3  1  0  0  0  0
  2  1  1  0  0  0  0
  4  1  1  0  0  0  0
  4  7  1  1  0  0  0
  5  8  1  0  0  0  0
  5  4  1  0  0  0  0
  6 10  1  6  0  0  0
  6  5  1  0  0  0  0
  6  4  1  0  0  0  0
  9  5  1  0  0  0  0
 11 14  1  1  0  0  0
 11  6  1  0  0  0  0
 12 13  1  0  0  0  0
 12 11  1  0  0  0  0
 13 17  1  6  0  0  0
 13 18  1  0  0  0  0
 13 11  1  0  0  0  0
 15 12  1  0  0  0  0
 16 12  1  0  0  0  0
 18 19  1  0  0  0  0
 19 21  2  0  0  0  0
 19 20  1  0  0  0  0
 22 23  1  0  0  0  0
 22 21  1  0  0  0  0
 24 22  2  0  0  0  0
 25 24  1  0  0  0  0
 26 24  1  0  0  0  0
 26 18  2  0  0  0  0
 27 33  1  0  0  0  0
 28 27  1  0  0  0  0
 29 35  1  0  0  0  0
 30 36  1  0  0  0  0
 30 29  2  0  0  0  0
 31 30  1  0  0  0  0
 32 31  2  0  0  0  0
 32 33  1  0  0  0  0
 33 34  2  0  0  0  0
 34 29  1  0  0  0  0
 37 38  1  0  0  0  0
 37 31  1  0  0  0  0
 38 43  1  0  0  0  0
 39 44  1  0  0  0  0
 39 38  2  0  0  0  0
 40 39  1  0  0  0  0
 41 40  2  0  0  0  0
 41 42  1  0  0  0  0
 42 37  2  0  0  0  0
 45 40  1  0  0  0  0
 46 41  1  0  0  0  0
 47 42  1  0  0  0  0
M  END
>  <minimizedAffinity>
-6.48024368

$$$$

 OpenBabel03252508193D

 47 51  0  0  1  0  0  0  0  0999 V2000
   36.4230   29.8320   37.3950 C   0  0  0  0  0  0  0  0  0  0  0  0
   36.8110   29.0020   36.8440 H   0  0  0  0  0  0  0  0  0  0  0  0
   35.8150   30.4340   36.6520 H   0  0  0  0  0  0  0  0  0  0  0  0
   35.5080   29.5480   38.5250 C   0  0  1  0  0  0  0  0  0  0  0  0
   34.3750   28.6400   38.1830 C   0  0  0  0  0  0  0  0  0  0  0  0
   35.4210   28.1880   39.1060 C   0  0  1  0  0  0  0  0  0  0  0  0
   35.1620   30.3420   39.2040 H   0  0  0  0  0  0  0  0  0  0  0  0
   33.3430   28.8610   38.5170 H   0  0  0  0  0  0  0  0  0  0  0  0
   34.3590   28.1380   37.1770 H   0  0  0  0  0  0  0  0  0  0  0  0
   35.0450   28.0650   40.1450 H   0  0  0  0  0  0  0  0  0  0  0  0
   36.4520   27.2070   38.7150 C   0  0  2  0  0  0  0  0  0  0  0  0
   36.4530   25.8970   39.5390 C   0  0  0  0  0  0  0  0  0  0  0  0
   37.5430   26.8560   39.7380 C   0  0  2  0  0  0  0  0  0  0  0  0
   36.7040   26.9850   37.6690 H   0  0  0  0  0  0  0  0  0  0  0  0
   36.7460   24.9540   39.0350 H   0  0  0  0  0  0  0  0  0  0  0  0
   35.6660   25.7600   40.2740 H   0  0  0  0  0  0  0  0  0  0  0  0
   38.5550   26.7700   39.2680 H   0  0  0  0  0  0  0  0  0  0  0  0
   37.5930   27.5640   41.0300 C   0  0  0  0  0  0  0  0  0  0  0  0
   38.1860   28.7790   41.3060 C   0  0  0  0  0  0  0  0  0  0  0  0
   38.6640   29.3100   40.5010 H   0  0  0  0  0  0  0  0  0  0  0  0
   38.2150   29.3860   42.5240 C   0  0  0  0  0  3  0  0  0  0  0  0
   37.6150   28.7770   43.6060 C   0  0  0  0  0  0  0  0  0  0  0  0
   37.6400   29.2540   44.5540 H   0  0  0  0  0  0  0  0  0  0  0  0
   36.9950   27.5590   43.4280 C   0  0  0  0  0  0  0  0  0  0  0  0
   36.5190   27.0600   44.2540 H   0  0  0  0  0  0  0  0  0  0  0  0
   37.0060   27.0050   42.1680 C   0  0  0  0  0  3  0  0  0  0  0  0
   37.2290   31.5010   38.8390 C   0  0  0  0  0  2  0  0  0  0  0  0
   37.5090   30.8150   37.7820 C   0  0  0  0  0  2  0  0  0  0  0  0
   38.6890   34.4820   40.4110 C   0  0  0  0  0  0  0  0  0  0  0  0
   40.0040   34.4750   39.9740 C   0  0  0  0  0  0  0  0  0  0  0  0
   40.3630   33.4350   39.1740 C   0  0  0  0  0  0  0  0  0  0  0  0
   39.4680   32.4670   38.8300 N   0  0  0  0  0  0  0  0  0  0  0  0
   38.1960   32.4900   39.2610 C   0  0  0  0  0  0  0  0  0  0  0  0
   37.8530   33.5090   40.0460 N   0  0  0  0  0  0  0  0  0  0  0  0
   38.3030   35.2640   41.0520 H   0  0  0  0  0  0  0  0  0  0  0  0
   40.6950   35.2540   40.2600 H   0  0  0  0  0  0  0  0  0  0  0  0
   41.7140   33.3000   38.6500 C   0  0  0  0  0  0  0  0  0  0  0  0
   42.7760   34.1030   39.0330 C   0  0  0  0  0  0  0  0  0  0  0  0
   44.0560   33.9790   38.5410 C   0  0  0  0  0  0  0  0  0  0  0  0
   44.3330   33.0120   37.6110 C   0  0  0  0  0  0  0  0  0  0  0  0
   43.3230   32.1870   37.1920 C   0  0  0  0  0  0  0  0  0  0  0  0
   42.0590   32.3570   37.7200 C   0  0  0  0  0  0  0  0  0  0  0  0
   42.5890   34.8910   39.7790 H   0  0  0  0  0  0  0  0  0  0  0  0
   44.8480   34.6400   38.8820 H   0  0  0  0  0  0  0  0  0  0  0  0
   45.3530   32.9470   37.2470 H   0  0  0  0  0  0  0  0  0  0  0  0
   43.5270   31.4150   36.4540 H   0  0  0  0  0  0  0  0  0  0  0  0
   41.2880   31.6670   37.3480 H   0  0  0  0  0  0  0  0  0  0  0  0
  1 28  1  0  0  0  0
  1  4  1  0  0  0  0
  2  1  1  0  0  0  0
  3  1  1  0  0  0  0
  4  6  1  0  0  0  0
  4  7  1  1  0  0  0
  5  8  1  0  0  0  0
  5  4  1  0  0  0  0
  5  6  1  0  0  0  0
  6 10  1  1  0  0  0
  9  5  1  0  0  0  0
 11 14  1  6  0  0  0
 11  6  1  0  0  0  0
 11 12  1  0  0  0  0
 11 13  1  0  0  0  0
 12 13  1  0  0  0  0
 12 16  1  0  0  0  0
 13 17  1  6  0  0  0
 13 18  1  0  0  0  0
 15 12  1  0  0  0  0
 18 19  2  0  0  0  0
 18 26  1  0  0  0  0
 19 21  1  0  0  0  0
 20 19  1  0  0  0  0
 21 22  2  0  0  0  0
 22 23  1  0  0  0  0
 24 22  1  0  0  0  0
 24 25  1  0  0  0  0
 26 24  2  0  0  0  0
 27 33  1  0  0  0  0
 28 27  1  0  0  0  0
 29 35  1  0  0  0  0
 30 36  1  0  0  0  0
 30 29  2  0  0  0  0
 31 30  1  0  0  0  0
 32 31  2  0  0  0  0
 32 33  1  0  0  0  0
 33 34  2  0  0  0  0
 34 29  1  0  0  0  0
 37 38  1  0  0  0  0
 37 31  1  0  0  0  0
 38 43  1  0  0  0  0
 39 44  1  0  0  0  0
 39 38  2  0  0  0  0
 40 39  1  0  0  0  0
 41 40  2  0  0  0  0
 41 42  1  0  0  0  0
 42 37  2  0  0  0  0
 45 40  1  0  0  0  0
 46 41  1  0  0  0  0
 47 42  1  0  0  0  0
M  END
>  <minimizedAffinity>
-6.35777903

$$$$

 OpenBabel03252508193D

 47 51  0  0  1  0  0  0  0  0999 V2000
   40.9820   28.3860   42.0990 C   0  0  0  0  0  0  0  0  0  0  0  0
   40.9650   29.1860   42.8080 H   0  0  0  0  0  0  0  0  0  0  0  0
   42.0580   28.3120   41.7490 H   0  0  0  0  0  0  0  0  0  0  0  0
   40.6210   27.0300   42.5740 C   0  0  1  0  0  0  0  0  0  0  0  0
   40.6880   26.8610   44.0550 C   0  0  0  0  0  0  0  0  0  0  0  0
   39.3920   26.8100   43.3720 C   0  0  1  0  0  0  0  0  0  0  0  0
   40.9930   26.1230   42.0750 H   0  0  0  0  0  0  0  0  0  0  0  0
   41.1570   25.9670   44.5080 H   0  0  0  0  0  0  0  0  0  0  0  0
   40.8650   27.7630   44.7030 H   0  0  0  0  0  0  0  0  0  0  0  0
   38.9380   25.7940   43.3990 H   0  0  0  0  0  0  0  0  0  0  0  0
   38.4130   27.9120   43.4450 C   0  0  2  0  0  0  0  0  0  0  0  0
   37.0440   27.5300   44.0540 C   0  0  0  0  0  0  0  0  0  0  0  0
   37.1260   27.7940   42.6150 C   0  0  2  0  0  0  0  0  0  0  0  0
   38.6810   28.9330   43.7490 H   0  0  0  0  0  0  0  0  0  0  0  0
   36.4920   28.2940   44.6390 H   0  0  0  0  0  0  0  0  0  0  0  0
   36.9260   26.5250   44.4480 H   0  0  0  0  0  0  0  0  0  0  0  0
   36.8410   28.7630   42.1320 H   0  0  0  0  0  0  0  0  0  0  0  0
   36.9410   26.6490   41.7060 C   0  0  0  0  0  0  0  0  0  0  0  0
   36.7990   25.3180   42.0390 C   0  0  0  0  0  0  0  0  0  0  0  0
   36.8010   25.0480   43.0820 H   0  0  0  0  0  0  0  0  0  0  0  0
   36.6430   24.2940   41.1560 C   0  0  0  0  0  3  0  0  0  0  0  0
   36.6170   24.5550   39.8030 C   0  0  0  0  0  0  0  0  0  0  0  0
   36.4950   23.7530   39.1180 H   0  0  0  0  0  0  0  0  0  0  0  0
   36.7510   25.8580   39.3720 C   0  0  0  0  0  0  0  0  0  0  0  0
   36.7350   26.0920   38.3220 H   0  0  0  0  0  0  0  0  0  0  0  0
   36.9050   26.8410   40.3220 C   0  0  0  0  0  3  0  0  0  0  0  0
   40.0650   30.0140   40.6730 C   0  0  0  0  0  2  0  0  0  0  0  0
   40.2580   28.7450   40.8180 C   0  0  0  0  0  2  0  0  0  0  0  0
   39.1520   31.9050   37.6600 C   0  0  0  0  0  0  0  0  0  0  0  0
   37.9250   31.3730   37.2960 C   0  0  0  0  0  0  0  0  0  0  0  0
   37.4560   30.3630   38.0770 C   0  0  0  0  0  0  0  0  0  0  0  0
   38.1620   29.9140   39.1510 N   0  0  0  0  0  0  0  0  0  0  0  0
   39.3490   30.4420   39.4920 C   0  0  0  0  0  0  0  0  0  0  0  0
   39.8040   31.4280   38.7220 N   0  0  0  0  0  0  0  0  0  0  0  0
   39.6140   32.7110   37.1050 H   0  0  0  0  0  0  0  0  0  0  0  0
   37.3830   31.7460   36.4390 H   0  0  0  0  0  0  0  0  0  0  0  0
   36.1840   29.7090   37.8030 C   0  0  0  0  0  0  0  0  0  0  0  0
   35.2270   29.4440   38.7690 C   0  0  0  0  0  0  0  0  0  0  0  0
   34.0220   28.8270   38.5160 C   0  0  0  0  0  0  0  0  0  0  0  0
   33.7180   28.4360   37.2380 C   0  0  0  0  0  0  0  0  0  0  0  0
   34.6250   28.6710   36.2400 C   0  0  0  0  0  0  0  0  0  0  0  0
   35.8170   29.2940   36.5520 C   0  0  0  0  0  0  0  0  0  0  0  0
   35.4390   29.7440   39.8080 H   0  0  0  0  0  0  0  0  0  0  0  0
   33.3120   28.6470   39.3180 H   0  0  0  0  0  0  0  0  0  0  0  0
   32.7600   27.9530   37.0800 H   0  0  0  0  0  0  0  0  0  0  0  0
   34.3980   28.3670   35.2220 H   0  0  0  0  0  0  0  0  0  0  0  0
   36.5070   29.4570   35.7120 H   0  0  0  0  0  0  0  0  0  0  0  0
  1  4  1  0  0  0  0
  1  2  1  0  0  0  0
  3  1  1  0  0  0  0
  4  7  1  6  0  0  0
  4  6  1  0  0  0  0
  4  5  1  0  0  0  0
  5  8  1  0  0  0  0
  5  9  1  0  0  0  0
  6 10  1  6  0  0  0
  6 11  1  0  0  0  0
  6  5  1  0  0  0  0
 11 14  1  1  0  0  0
 11 12  1  0  0  0  0
 12 16  1  0  0  0  0
 12 15  1  0  0  0  0
 13 17  1  6  0  0  0
 13 11  1  0  0  0  0
 13 12  1  0  0  0  0
 18 19  1  0  0  0  0
 18 13  1  0  0  0  0
 19 20  1  0  0  0  0
 21 19  2  0  0  0  0
 22 21  1  0  0  0  0
 23 22  1  0  0  0  0
 24 22  2  0  0  0  0
 24 26  1  0  0  0  0
 25 24  1  0  0  0  0
 26 18  2  0  0  0  0
 27 28  1  0  0  0  0
 28  1  1  0  0  0  0
 29 34  1  0  0  0  0
 30 29  2  0  0  0  0
 30 31  1  0  0  0  0
 31 32  2  0  0  0  0
 32 33  1  0  0  0  0
 33 27  1  0  0  0  0
 34 33  2  0  0  0  0
 35 29  1  0  0  0  0
 36 30  1  0  0  0  0
 37 31  1  0  0  0  0
 37 38  1  0  0  0  0
 38 43  1  0  0  0  0
 39 38  2  0  0  0  0
 39 44  1  0  0  0  0
 40 39  1  0  0  0  0
 41 42  1  0  0  0  0
 41 40  2  0  0  0  0
 42 37  2  0  0  0  0
 45 40  1  0  0  0  0
 46 41  1  0  0  0  0
 47 42  1  0  0  0  0
M  END
>  <minimizedAffinity>
-6.25257492

$$$$

 OpenBabel03252508193D

 47 51  0  0  1  0  0  0  0  0999 V2000
   36.9160   30.0850   37.6840 C   0  0  0  0  0  0  0  0  0  0  0  0
   37.1080   29.3250   36.9580 H   0  0  0  0  0  0  0  0  0  0  0  0
   36.5370   30.9790   37.0980 H   0  0  0  0  0  0  0  0  0  0  0  0
   35.8850   29.8170   38.7140 C   0  0  1  0  0  0  0  0  0  0  0  0
   34.7220   29.0220   38.2240 C   0  0  0  0  0  0  0  0  0  0  0  0
   35.6450   28.4380   39.2030 C   0  0  1  0  0  0  0  0  0  0  0  0
   35.5410   30.5980   39.4080 H   0  0  0  0  0  0  0  0  0  0  0  0
   33.6840   29.3070   38.4830 H   0  0  0  0  0  0  0  0  0  0  0  0
   34.7560   28.5770   37.1920 H   0  0  0  0  0  0  0  0  0  0  0  0
   35.1700   28.2910   40.1980 H   0  0  0  0  0  0  0  0  0  0  0  0
   36.6290   27.4000   38.8420 C   0  0  2  0  0  0  0  0  0  0  0  0
   36.4270   26.0360   39.5440 C   0  0  0  0  0  0  0  0  0  0  0  0
   37.5630   26.8730   39.9420 C   0  0  2  0  0  0  0  0  0  0  0  0
   36.9810   27.2370   37.8140 H   0  0  0  0  0  0  0  0  0  0  0  0
   36.6980   25.1120   38.9950 H   0  0  0  0  0  0  0  0  0  0  0  0
   35.5530   25.9160   40.1760 H   0  0  0  0  0  0  0  0  0  0  0  0
   38.6110   26.7310   39.5780 H   0  0  0  0  0  0  0  0  0  0  0  0
   37.5220   27.4720   41.2880 C   0  0  0  0  0  0  0  0  0  0  0  0
   38.1870   28.5950   41.7350 C   0  0  0  0  0  0  0  0  0  0  0  0
   38.8050   29.1350   41.0380 H   0  0  0  0  0  0  0  0  0  0  0  0
   38.1250   29.1020   42.9970 C   0  0  0  0  0  3  0  0  0  0  0  0
   37.3460   28.4770   43.9470 C   0  0  0  0  0  0  0  0  0  0  0  0
   37.3010   28.8750   44.9300 H   0  0  0  0  0  0  0  0  0  0  0  0
   36.6430   27.3450   43.5950 C   0  0  0  0  0  0  0  0  0  0  0  0
   36.0270   26.8360   44.3150 H   0  0  0  0  0  0  0  0  0  0  0  0
   36.7540   26.8900   42.3000 C   0  0  0  0  0  3  0  0  0  0  0  0
   37.9900   31.5070   39.2160 C   0  0  0  0  0  2  0  0  0  0  0  0
   38.1930   30.6270   38.2940 C   0  0  0  0  0  2  0  0  0  0  0  0
   40.6750   33.8940   39.9790 C   0  0  0  0  0  0  0  0  0  0  0  0
   41.4700   33.2170   40.8900 C   0  0  0  0  0  0  0  0  0  0  0  0
   41.0510   31.9710   41.2380 C   0  0  0  0  0  0  0  0  0  0  0  0
   39.9150   31.4340   40.7110 N   0  0  0  0  0  0  0  0  0  0  0  0
   39.1560   32.1030   39.8280 C   0  0  0  0  0  0  0  0  0  0  0  0
   39.5710   33.3240   39.4930 N   0  0  0  0  0  0  0  0  0  0  0  0
   40.9190   34.8920   39.6360 H   0  0  0  0  0  0  0  0  0  0  0  0
   42.3670   33.6640   41.2930 H   0  0  0  0  0  0  0  0  0  0  0  0
   41.7880   31.1520   42.1900 C   0  0  0  0  0  0  0  0  0  0  0  0
   41.6360   29.7800   42.3110 C   0  0  0  0  0  0  0  0  0  0  0  0
   42.3310   29.0010   43.2090 C   0  0  0  0  0  0  0  0  0  0  0  0
   43.2370   29.5870   44.0530 C   0  0  0  0  0  0  0  0  0  0  0  0
   43.4310   30.9410   43.9810 C   0  0  0  0  0  0  0  0  0  0  0  0
   42.7060   31.6720   43.0610 C   0  0  0  0  0  0  0  0  0  0  0  0
   40.9150   29.2760   41.6470 H   0  0  0  0  0  0  0  0  0  0  0  0
   42.1680   27.9280   43.2550 H   0  0  0  0  0  0  0  0  0  0  0  0
   43.7640   28.9400   44.7460 H   0  0  0  0  0  0  0  0  0  0  0  0
   44.1460   31.4200   44.6440 H   0  0  0  0  0  0  0  0  0  0  0  0
   42.9020   32.7530   43.0470 H   0  0  0  0  0  0  0  0  0  0  0  0
  1 28  1  0  0  0  0
  1  4  1  0  0  0  0
  2  1  1  0  0  0  0
  3  1  1  0  0  0  0
  4  6  1  0  0  0  0
  4  7  1  1  0  0  0
  5  8  1  0  0  0  0
  5  4  1  0  0  0  0
  5  6  1  0  0  0  0
  6 10  1  1  0  0  0
  9  5  1  0  0  0  0
 11 14  1  6  0  0  0
 11  6  1  0  0  0  0
 11 12  1  0  0  0  0
 11 13  1  0  0  0  0
 12 13  1  0  0  0  0
 12 16  1  0  0  0  0
 13 17  1  6  0  0  0
 13 18  1  0  0  0  0
 15 12  1  0  0  0  0
 18 19  2  0  0  0  0
 18 26  1  0  0  0  0
 19 21  1  0  0  0  0
 20 19  1  0  0  0  0
 21 22  2  0  0  0  0
 22 23  1  0  0  0  0
 24 22  1  0  0  0  0
 24 25  1  0  0  0  0
 26 24  2  0  0  0  0
 27 33  1  0  0  0  0
 28 27  1  0  0  0  0
 29 30  1  0  0  0  0
 30 31  2  0  0  0  0
 30 36  1  0  0  0  0
 31 37  1  0  0  0  0
 32 31  1  0  0  0  0
 33 32  2  0  0  0  0
 34 33  1  0  0  0  0
 34 29  2  0  0  0  0
 35 29  1  0  0  0  0
 37 38  2  0  0  0  0
 37 42  1  0  0  0  0
 38 39  1  0  0  0  0
 39 44  1  0  0  0  0
 39 40  2  0  0  0  0
 40 45  1  0  0  0  0
 41 40  1  0  0  0  0
 41 46  1  0  0  0  0
 42 41  2  0  0  0  0
 43 38  1  0  0  0  0
 47 42  1  0  0  0  0
M  END
>  <minimizedAffinity>
-5.95802593

$$$$

 OpenBabel03252508193D

 47 51  0  0  1  0  0  0  0  0999 V2000
   38.0700   24.9100   39.1270 C   0  0  0  0  0  0  0  0  0  0  0  0
   39.0460   24.4920   39.2570 H   0  0  0  0  0  0  0  0  0  0  0  0
   37.5460   24.2350   38.3820 H   0  0  0  0  0  0  0  0  0  0  0  0
   37.1780   24.9700   40.3080 C   0  0  1  0  0  0  0  0  0  0  0  0
   36.8470   23.6390   40.8950 C   0  0  0  0  0  0  0  0  0  0  0  0
   37.6730   24.5860   41.6510 C   0  0  1  0  0  0  0  0  0  0  0  0
   36.2930   25.6230   40.3330 H   0  0  0  0  0  0  0  0  0  0  0  0
   35.8110   23.3860   41.1910 H   0  0  0  0  0  0  0  0  0  0  0  0
   37.3760   22.7240   40.5130 H   0  0  0  0  0  0  0  0  0  0  0  0
   37.1520   24.9770   42.5530 H   0  0  0  0  0  0  0  0  0  0  0  0
   39.1270   24.4070   41.8220 C   0  0  2  0  0  0  0  0  0  0  0  0
   39.6340   24.5280   43.2790 C   0  0  0  0  0  0  0  0  0  0  0  0
   39.9490   25.6010   42.3320 C   0  0  2  0  0  0  0  0  0  0  0  0
   39.7040   23.6350   41.2940 H   0  0  0  0  0  0  0  0  0  0  0  0
   40.5000   23.9110   43.5920 H   0  0  0  0  0  0  0  0  0  0  0  0
   38.8940   24.6530   44.0640 H   0  0  0  0  0  0  0  0  0  0  0  0
   40.9260   25.7050   41.7960 H   0  0  0  0  0  0  0  0  0  0  0  0
   39.2960   26.9040   42.5450 C   0  0  0  0  0  0  0  0  0  0  0  0
   38.3590   27.2360   43.5020 C   0  0  0  0  0  0  0  0  0  0  0  0
   38.0600   26.4800   44.2080 H   0  0  0  0  0  0  0  0  0  0  0  0
   37.7750   28.4560   43.6490 C   0  0  0  0  0  3  0  0  0  0  0  0
   38.1130   29.4830   42.7930 C   0  0  0  0  0  0  0  0  0  0  0  0
   37.6550   30.4340   42.9110 H   0  0  0  0  0  0  0  0  0  0  0  0
   39.0420   29.2480   41.8020 C   0  0  0  0  0  0  0  0  0  0  0  0
   39.3250   30.0300   41.1200 H   0  0  0  0  0  0  0  0  0  0  0  0
   39.5910   27.9890   41.7140 C   0  0  0  0  0  3  0  0  0  0  0  0
   37.2780   27.1040   38.8410 C   0  0  0  0  0  2  0  0  0  0  0  0
   38.1110   26.2290   38.3840 C   0  0  0  0  0  2  0  0  0  0  0  0
   36.8420   29.6250   36.2060 C   0  0  0  0  0  0  0  0  0  0  0  0
   37.2440   30.8060   36.8090 C   0  0  0  0  0  0  0  0  0  0  0  0
   37.6290   30.7110   38.1110 C   0  0  0  0  0  0  0  0  0  0  0  0
   37.6160   29.5170   38.7660 N   0  0  0  0  0  0  0  0  0  0  0  0
   37.2250   28.3810   38.1660 C   0  0  0  0  0  0  0  0  0  0  0  0
   36.8470   28.4810   36.8940 N   0  0  0  0  0  0  0  0  0  0  0  0
   36.5160   29.5910   35.1740 H   0  0  0  0  0  0  0  0  0  0  0  0
   37.2460   31.7410   36.2680 H   0  0  0  0  0  0  0  0  0  0  0  0
   38.0680   31.8750   38.8670 C   0  0  0  0  0  0  0  0  0  0  0  0
   37.2550   32.9570   39.1650 C   0  0  0  0  0  0  0  0  0  0  0  0
   37.6650   34.0590   39.8800 C   0  0  0  0  0  0  0  0  0  0  0  0
   38.9540   34.1240   40.3420 C   0  0  0  0  0  0  0  0  0  0  0  0
   39.8060   33.0860   40.0790 C   0  0  0  0  0  0  0  0  0  0  0  0
   39.3390   32.0050   39.3570 C   0  0  0  0  0  0  0  0  0  0  0  0
   36.2130   32.9370   38.8080 H   0  0  0  0  0  0  0  0  0  0  0  0
   36.9790   34.8770   40.0820 H   0  0  0  0  0  0  0  0  0  0  0  0
   39.2390   35.0090   40.9010 H   0  0  0  0  0  0  0  0  0  0  0  0
   40.8310   33.1230   40.4390 H   0  0  0  0  0  0  0  0  0  0  0  0
   40.0660   31.2000   39.1760 H   0  0  0  0  0  0  0  0  0  0  0  0
  1  2  1  0  0  0  0
  1  4  1  0  0  0  0
  3  1  1  0  0  0  0
  4  7  1  6  0  0  0
  4  5  1  0  0  0  0
  4  6  1  0  0  0  0
  5  8  1  0  0  0  0
  5  6  1  0  0  0  0
  6 11  1  0  0  0  0
  6 10  1  1  0  0  0
  9  5  1  0  0  0  0
 11 14  1  6  0  0  0
 11 13  1  0  0  0  0
 11 12  1  0  0  0  0
 12 15  1  0  0  0  0
 12 16  1  0  0  0  0
 13 17  1  6  0  0  0
 13 18  1  0  0  0  0
 13 12  1  0  0  0  0
 18 19  1  0  0  0  0
 19 21  2  0  0  0  0
 19 20  1  0  0  0  0
 22 23  1  0  0  0  0
 22 21  1  0  0  0  0
 24 22  2  0  0  0  0
 25 24  1  0  0  0  0
 26 24  1  0  0  0  0
 26 18  2  0  0  0  0
 28 27  1  0  0  0  0
 28  1  1  0  0  0  0
 29 30  2  0  0  0  0
 29 34  1  0  0  0  0
 30 31  1  0  0  0  0
 31 32  2  0  0  0  0
 31 37  1  0  0  0  0
 33 32  1  0  0  0  0
 33 27  1  0  0  0  0
 34 33  2  0  0  0  0
 35 29  1  0  0  0  0
 36 30  1  0  0  0  0
 37 38  2  0  0  0  0
 37 42  1  0  0  0  0
 38 39  1  0  0  0  0
 39 44  1  0  0  0  0
 39 40  2  0  0  0  0
 40 45  1  0  0  0  0
 41 40  1  0  0  0  0
 41 46  1  0  0  0  0
 42 41  2  0  0  0  0
 43 38  1  0  0  0  0
 47 42  1  0  0  0  0
M  END
>  <minimizedAffinity>
-5.9461689

$$$$

 OpenBabel03252508193D

 47 51  0  0  1  0  0  0  0  0999 V2000
   36.3840   29.7940   37.5530 C   0  0  0  0  0  0  0  0  0  0  0  0
   36.8260   29.0680   36.9050 H   0  0  0  0  0  0  0  0  0  0  0  0
   35.7960   30.4890   36.8770 H   0  0  0  0  0  0  0  0  0  0  0  0
   35.4210   29.3200   38.5730 C   0  0  1  0  0  0  0  0  0  0  0  0
   34.4310   28.3260   38.0660 C   0  0  0  0  0  0  0  0  0  0  0  0
   35.4450   27.9140   39.0410 C   0  0  1  0  0  0  0  0  0  0  0  0
   34.9320   30.0110   39.2760 H   0  0  0  0  0  0  0  0  0  0  0  0
   33.3570   28.4050   38.3230 H   0  0  0  0  0  0  0  0  0  0  0  0
   34.5520   27.9110   37.0280 H   0  0  0  0  0  0  0  0  0  0  0  0
   35.0040   27.6640   40.0320 H   0  0  0  0  0  0  0  0  0  0  0  0
   36.6090   27.0860   38.6720 C   0  0  2  0  0  0  0  0  0  0  0  0
   36.7020   25.7250   39.4000 C   0  0  0  0  0  0  0  0  0  0  0  0
   37.6550   26.7800   39.7550 C   0  0  2  0  0  0  0  0  0  0  0  0
   36.9640   26.9760   37.6370 H   0  0  0  0  0  0  0  0  0  0  0  0
   37.1400   24.8620   38.8590 H   0  0  0  0  0  0  0  0  0  0  0  0
   35.8840   25.4450   40.0570 H   0  0  0  0  0  0  0  0  0  0  0  0
   38.7020   26.8440   39.3660 H   0  0  0  0  0  0  0  0  0  0  0  0
   37.5250   27.3870   41.0920 C   0  0  0  0  0  0  0  0  0  0  0  0
   36.9500   26.8370   42.2190 C   0  0  0  0  0  0  0  0  0  0  0  0
   36.5550   25.8380   42.1560 H   0  0  0  0  0  0  0  0  0  0  0  0
   36.8440   27.4470   43.4310 C   0  0  0  0  0  3  0  0  0  0  0  0
   37.3370   28.7240   43.6000 C   0  0  0  0  0  0  0  0  0  0  0  0
   37.2520   29.1960   44.5470 H   0  0  0  0  0  0  0  0  0  0  0  0
   37.9310   29.3570   42.5290 C   0  0  0  0  0  0  0  0  0  0  0  0
   38.3240   30.3530   42.6310 H   0  0  0  0  0  0  0  0  0  0  0  0
   38.0020   28.6790   41.3340 C   0  0  0  0  0  3  0  0  0  0  0  0
   36.9420   31.5070   39.0630 C   0  0  0  0  0  2  0  0  0  0  0  0
   37.4160   30.7310   38.1460 C   0  0  0  0  0  2  0  0  0  0  0  0
   38.4880   34.6920   40.0370 C   0  0  0  0  0  0  0  0  0  0  0  0
   39.6540   34.3100   40.6800 C   0  0  0  0  0  0  0  0  0  0  0  0
   39.8680   32.9710   40.7850 C   0  0  0  0  0  0  0  0  0  0  0  0
   38.9770   32.0720   40.2800 N   0  0  0  0  0  0  0  0  0  0  0  0
   37.8510   32.4590   39.6590 C   0  0  0  0  0  0  0  0  0  0  0  0
   37.6470   33.7710   39.5620 N   0  0  0  0  0  0  0  0  0  0  0  0
   38.2230   35.7330   39.9020 H   0  0  0  0  0  0  0  0  0  0  0  0
   40.3460   35.0420   41.0710 H   0  0  0  0  0  0  0  0  0  0  0  0
   41.0500   32.4310   41.4410 C   0  0  0  0  0  0  0  0  0  0  0  0
   42.3260   32.9490   41.2860 C   0  0  0  0  0  0  0  0  0  0  0  0
   43.4470   32.4430   41.9050 C   0  0  0  0  0  0  0  0  0  0  0  0
   43.3290   31.3590   42.7340 C   0  0  0  0  0  0  0  0  0  0  0  0
   42.0940   30.8020   42.9280 C   0  0  0  0  0  0  0  0  0  0  0  0
   41.0050   31.3520   42.2810 C   0  0  0  0  0  0  0  0  0  0  0  0
   42.4560   33.8210   40.6250 H   0  0  0  0  0  0  0  0  0  0  0  0
   44.4210   32.8940   41.7430 H   0  0  0  0  0  0  0  0  0  0  0  0
   44.2360   30.9890   43.2030 H   0  0  0  0  0  0  0  0  0  0  0  0
   41.9850   29.9420   43.5820 H   0  0  0  0  0  0  0  0  0  0  0  0
   40.0380   30.8650   42.4730 H   0  0  0  0  0  0  0  0  0  0  0  0
  1 28  1  0  0  0  0
  1  4  1  0  0  0  0
  2  1  1  0  0  0  0
  3  1  1  0  0  0  0
  4  6  1  0  0  0  0
  4  7  1  1  0  0  0
  5  8  1  0  0  0  0
  5  4  1  0  0  0  0
  5  6  1  0  0  0  0
  6 10  1  1  0  0  0
  9  5  1  0  0  0  0
 11 14  1  6  0  0  0
 11  6  1  0  0  0  0
 11 12  1  0  0  0  0
 11 13  1  0  0  0  0
 12 13  1  0  0  0  0
 12 16  1  0  0  0  0
 13 17  1  6  0  0  0
 13 18  1  0  0  0  0
 15 12  1  0  0  0  0
 18 26  2  0  0  0  0
 18 19  1  0  0  0  0
 19 21  2  0  0  0  0
 20 19  1  0  0  0  0
 21 22  1  0  0  0  0
 22 23  1  0  0  0  0
 24 25  1  0  0  0  0
 24 22  2  0  0  0  0
 26 24  1  0  0  0  0
 27 33  1  0  0  0  0
 28 27  1  0  0  0  0
 29 30  1  0  0  0  0
 30 31  2  0  0  0  0
 30 36  1  0  0  0  0
 31 37  1  0  0  0  0
 32 31  1  0  0  0  0
 33 32  2  0  0  0  0
 34 33  1  0  0  0  0
 34 29  2  0  0  0  0
 35 29  1  0  0  0  0
 37 42  1  0  0  0  0
 38 37  2  0  0  0  0
 38 39  1  0  0  0  0
 39 40  2  0  0  0  0
 40 41  1  0  0  0  0
 40 45  1  0  0  0  0
 41 46  1  0  0  0  0
 42 47  1  0  0  0  0
 42 41  2  0  0  0  0
 43 38  1  0  0  0  0
 44 39  1  0  0  0  0
M  END
>  <minimizedAffinity>
-5.93014336

$$$$

 OpenBabel03252508193D

 47 51  0  0  1  0  0  0  0  0999 V2000
   36.5580   23.2910   39.1400 C   0  0  0  0  0  0  0  0  0  0  0  0
   37.1890   23.1190   38.2950 H   0  0  0  0  0  0  0  0  0  0  0  0
   35.7200   22.5330   39.0560 H   0  0  0  0  0  0  0  0  0  0  0  0
   37.1380   23.0970   40.4890 C   0  0  1  0  0  0  0  0  0  0  0  0
   38.2540   22.1080   40.5410 C   0  0  0  0  0  0  0  0  0  0  0  0
   38.5240   23.5280   40.7870 C   0  0  1  0  0  0  0  0  0  0  0  0
   36.5050   22.9960   41.3840 H   0  0  0  0  0  0  0  0  0  0  0  0
   38.3070   21.3450   41.3420 H   0  0  0  0  0  0  0  0  0  0  0  0
   38.6620   21.6910   39.5800 H   0  0  0  0  0  0  0  0  0  0  0  0
   38.8150   23.7270   41.8420 H   0  0  0  0  0  0  0  0  0  0  0  0
   39.2040   24.3880   39.8000 C   0  0  2  0  0  0  0  0  0  0  0  0
   40.4980   25.0680   40.3050 C   0  0  0  0  0  0  0  0  0  0  0  0
   39.3040   25.8920   40.0950 C   0  0  2  0  0  0  0  0  0  0  0  0
   39.3210   24.1110   38.7420 H   0  0  0  0  0  0  0  0  0  0  0  0
   41.3210   25.2450   39.5830 H   0  0  0  0  0  0  0  0  0  0  0  0
   40.8500   24.8100   41.2990 H   0  0  0  0  0  0  0  0  0  0  0  0
   39.1190   26.5180   39.1860 H   0  0  0  0  0  0  0  0  0  0  0  0
   38.6490   26.4500   41.2920 C   0  0  0  0  0  0  0  0  0  0  0  0
   37.3370   26.8560   41.4260 C   0  0  0  0  0  0  0  0  0  0  0  0
   36.6790   26.7510   40.5800 H   0  0  0  0  0  0  0  0  0  0  0  0
   36.7820   27.3780   42.5540 C   0  0  0  0  0  3  0  0  0  0  0  0
   37.5530   27.5350   43.6860 C   0  0  0  0  0  0  0  0  0  0  0  0
   37.1160   27.9420   44.5640 H   0  0  0  0  0  0  0  0  0  0  0  0
   38.8780   27.1560   43.6490 C   0  0  0  0  0  0  0  0  0  0  0  0
   39.5040   27.2660   44.5170 H   0  0  0  0  0  0  0  0  0  0  0  0
   39.3700   26.6360   42.4740 C   0  0  0  0  0  3  0  0  0  0  0  0
   36.1760   25.3260   38.0290 C   0  0  0  0  0  2  0  0  0  0  0  0
   35.8090   24.6030   39.0330 C   0  0  0  0  0  2  0  0  0  0  0  0
   33.8470   27.9320   36.9000 C   0  0  0  0  0  0  0  0  0  0  0  0
   34.3650   29.0960   37.4450 C   0  0  0  0  0  0  0  0  0  0  0  0
   35.4830   28.9540   38.2070 C   0  0  0  0  0  0  0  0  0  0  0  0
   36.0490   27.7320   38.4090 N   0  0  0  0  0  0  0  0  0  0  0  0
   35.5360   26.6130   37.8720 C   0  0  0  0  0  0  0  0  0  0  0  0
   34.4400   26.7590   37.1300 N   0  0  0  0  0  0  0  0  0  0  0  0
   32.9600   27.9350   36.2800 H   0  0  0  0  0  0  0  0  0  0  0  0
   33.8980   30.0540   37.2700 H   0  0  0  0  0  0  0  0  0  0  0  0
   36.1270   30.0930   38.8440 C   0  0  0  0  0  0  0  0  0  0  0  0
   36.8550   31.0540   38.1610 C   0  0  0  0  0  0  0  0  0  0  0  0
   37.4650   32.1330   38.7590 C   0  0  0  0  0  0  0  0  0  0  0  0
   37.3670   32.2990   40.1160 C   0  0  0  0  0  0  0  0  0  0  0  0
   36.6610   31.3810   40.8470 C   0  0  0  0  0  0  0  0  0  0  0  0
   36.0690   30.3190   40.1930 C   0  0  0  0  0  0  0  0  0  0  0  0
   36.9530   30.9510   37.0680 H   0  0  0  0  0  0  0  0  0  0  0  0
   38.0220   32.8540   38.1680 H   0  0  0  0  0  0  0  0  0  0  0  0
   37.8620   33.1610   40.5500 H   0  0  0  0  0  0  0  0  0  0  0  0
   36.5750   31.4990   41.9240 H   0  0  0  0  0  0  0  0  0  0  0  0
   35.5150   29.6130   40.8290 H   0  0  0  0  0  0  0  0  0  0  0  0
  1  4  1  0  0  0  0
  2  1  1  0  0  0  0
  3  1  1  0  0  0  0
  4  5  1  0  0  0  0
  4  6  1  0  0  0  0
  4  7  1  1  0  0  0
  5  6  1  0  0  0  0
  5  8  1  0  0  0  0
  6 10  1  1  0  0  0
  9  5  1  0  0  0  0
 11 14  1  6  0  0  0
 11 13  1  0  0  0  0
 11 12  1  0  0  0  0
 11  6  1  0  0  0  0
 12 16  1  0  0  0  0
 13 17  1  6  0  0  0
 13 12  1  0  0  0  0
 13 18  1  0  0  0  0
 15 12  1  0  0  0  0
 18 19  2  0  0  0  0
 18 26  1  0  0  0  0
 19 21  1  0  0  0  0
 20 19  1  0  0  0  0
 21 22  2  0  0  0  0
 22 23  1  0  0  0  0
 24 22  1  0  0  0  0
 24 25  1  0  0  0  0
 26 24  2  0  0  0  0
 27 28  1  0  0  0  0
 28  1  1  0  0  0  0
 29 34  2  0  0  0  0
 29 30  1  0  0  0  0
 30 31  2  0  0  0  0
 31 32  1  0  0  0  0
 31 37  1  0  0  0  0
 33 27  1  0  0  0  0
 33 32  2  0  0  0  0
 34 33  1  0  0  0  0
 35 29  1  0  0  0  0
 36 30  1  0  0  0  0
 37 42  1  0  0  0  0
 38 39  1  0  0  0  0
 38 37  2  0  0  0  0
 39 40  2  0  0  0  0
 40 45  1  0  0  0  0
 40 41  1  0  0  0  0
 41 46  1  0  0  0  0
 42 47  1  0  0  0  0
 42 41  2  0  0  0  0
 43 38  1  0  0  0  0
 44 39  1  0  0  0  0
M  END
>  <minimizedAffinity>
-5.90531588

$$$$

 OpenBabel03252508193D

 47 51  0  0  1  0  0  0  0  0999 V2000
   37.9300   26.8900   38.2810 C   0  0  0  0  0  0  0  0  0  0  0  0
   38.7530   26.2160   38.3870 H   0  0  0  0  0  0  0  0  0  0  0  0
   37.6780   26.8920   37.1750 H   0  0  0  0  0  0  0  0  0  0  0  0
   36.6660   26.5570   38.9780 C   0  0  1  0  0  0  0  0  0  0  0  0
   35.9790   25.3400   38.4540 C   0  0  0  0  0  0  0  0  0  0  0  0
   36.5560   25.3300   39.8020 C   0  0  1  0  0  0  0  0  0  0  0  0
   35.9230   27.3280   39.2310 H   0  0  0  0  0  0  0  0  0  0  0  0
   34.8870   25.3320   38.2760 H   0  0  0  0  0  0  0  0  0  0  0  0
   36.5020   24.7000   37.6930 H   0  0  0  0  0  0  0  0  0  0  0  0
   35.7780   25.2780   40.5960 H   0  0  0  0  0  0  0  0  0  0  0  0
   37.8000   24.6060   40.1260 C   0  0  2  0  0  0  0  0  0  0  0  0
   37.7930   23.8690   41.4860 C   0  0  0  0  0  0  0  0  0  0  0  0
   38.6150   25.0730   41.3420 C   0  0  2  0  0  0  0  0  0  0  0  0
   38.3600   24.0150   39.3880 H   0  0  0  0  0  0  0  0  0  0  0  0
   38.3620   22.9220   41.5790 H   0  0  0  0  0  0  0  0  0  0  0  0
   36.8700   23.8690   42.0570 H   0  0  0  0  0  0  0  0  0  0  0  0
   39.7170   25.0680   41.1430 H   0  0  0  0  0  0  0  0  0  0  0  0
   38.1960   26.2720   42.0890 C   0  0  0  0  0  0  0  0  0  0  0  0
   37.0310   26.4590   42.8040 C   0  0  0  0  0  0  0  0  0  0  0  0
   36.3270   25.6460   42.8580 H   0  0  0  0  0  0  0  0  0  0  0  0
   36.6850   27.5950   43.4690 C   0  0  0  0  0  3  0  0  0  0  0  0
   37.5360   28.6800   43.4600 C   0  0  0  0  0  0  0  0  0  0  0  0
   37.2620   29.5640   43.9800 H   0  0  0  0  0  0  0  0  0  0  0  0
   38.7270   28.5880   42.7720 C   0  0  0  0  0  0  0  0  0  0  0  0
   39.4110   29.4180   42.7470 H   0  0  0  0  0  0  0  0  0  0  0  0
   39.0100   27.4080   42.1230 C   0  0  0  0  0  3  0  0  0  0  0  0
   37.5020   28.9920   39.2390 C   0  0  0  0  0  2  0  0  0  0  0  0
   38.3390   28.3300   38.5140 C   0  0  0  0  0  2  0  0  0  0  0  0
   37.1410   32.4790   40.3350 C   0  0  0  0  0  0  0  0  0  0  0  0
   38.2800   33.0980   39.8460 C   0  0  0  0  0  0  0  0  0  0  0  0
   39.1540   32.2990   39.1760 C   0  0  0  0  0  0  0  0  0  0  0  0
   38.9070   30.9710   39.0040 N   0  0  0  0  0  0  0  0  0  0  0  0
   37.7970   30.3860   39.4830 C   0  0  0  0  0  0  0  0  0  0  0  0
   36.9470   31.1730   40.1400 N   0  0  0  0  0  0  0  0  0  0  0  0
   36.3830   33.0240   40.8830 H   0  0  0  0  0  0  0  0  0  0  0  0
   38.4540   34.1540   39.9950 H   0  0  0  0  0  0  0  0  0  0  0  0
   40.3940   32.8180   38.6160 C   0  0  0  0  0  0  0  0  0  0  0  0
   41.1090   32.1930   37.6070 C   0  0  0  0  0  0  0  0  0  0  0  0
   42.2800   32.6800   37.0730 C   0  0  0  0  0  0  0  0  0  0  0  0
   42.8020   33.8550   37.5470 C   0  0  0  0  0  0  0  0  0  0  0  0
   42.1410   34.5190   38.5450 C   0  0  0  0  0  0  0  0  0  0  0  0
   40.9690   33.9840   39.0420 C   0  0  0  0  0  0  0  0  0  0  0  0
   40.7170   31.2450   37.2030 H   0  0  0  0  0  0  0  0  0  0  0  0
   42.7950   32.1430   36.2810 H   0  0  0  0  0  0  0  0  0  0  0  0
   43.7270   34.2050   37.1010 H   0  0  0  0  0  0  0  0  0  0  0  0
   42.5430   35.4520   38.9310 H   0  0  0  0  0  0  0  0  0  0  0  0
   40.4810   34.5590   39.8410 H   0  0  0  0  0  0  0  0  0  0  0  0
  1  2  1  0  0  0  0
  1 28  1  0  0  0  0
  1  4  1  0  0  0  0
  3  1  1  0  0  0  0
  4  7  1  1  0  0  0
  4  6  1  0  0  0  0
  5  4  1  0  0  0  0
  5  6  1  0  0  0  0
  6 11  1  0  0  0  0
  6 10  1  1  0  0  0
  8  5  1  0  0  0  0
  9  5  1  0  0  0  0
 11 14  1  6  0  0  0
 11 13  1  0  0  0  0
 11 12  1  0  0  0  0
 12 15  1  0  0  0  0
 12 16  1  0  0  0  0
 13 17  1  6  0  0  0
 13 12  1  0  0  0  0
 13 18  1  0  0  0  0
 18 26  2  0  0  0  0
 18 19  1  0  0  0  0
 19 20  1  0  0  0  0
 19 21  2  0  0  0  0
 22 21  1  0  0  0  0
 22 23  1  0  0  0  0
 24 22  2  0  0  0  0
 25 24  1  0  0  0  0
 26 24  1  0  0  0  0
 27 33  1  0  0  0  0
 28 27  1  0  0  0  0
 29 35  1  0  0  0  0
 30 36  1  0  0  0  0
 30 29  2  0  0  0  0
 31 30  1  0  0  0  0
 32 31  2  0  0  0  0
 32 33  1  0  0  0  0
 33 34  2  0  0  0  0
 34 29  1  0  0  0  0
 37 42  1  0  0  0  0
 37 31  1  0  0  0  0
 38 37  2  0  0  0  0
 39 40  2  0  0  0  0
 39 38  1  0  0  0  0
 40 41  1  0  0  0  0
 41 46  1  0  0  0  0
 41 42  2  0  0  0  0
 42 47  1  0  0  0  0
 43 38  1  0  0  0  0
 44 39  1  0  0  0  0
 45 40  1  0  0  0  0
M  END
>  <minimizedAffinity>
-5.88584757

$$$$

 OpenBabel03252508193D

 47 51  0  0  1  0  0  0  0  0999 V2000
   36.3820   29.8650   37.8030 C   0  0  0  0  0  0  0  0  0  0  0  0
   35.5870   30.4950   38.1400 H   0  0  0  0  0  0  0  0  0  0  0  0
   36.0450   29.4590   36.7990 H   0  0  0  0  0  0  0  0  0  0  0  0
   37.7040   30.4860   37.5580 C   0  0  1  0  0  0  0  0  0  0  0  0
   37.6670   31.6730   36.6570 C   0  0  0  0  0  0  0  0  0  0  0  0
   38.0110   31.8420   38.0720 C   0  0  1  0  0  0  0  0  0  0  0  0
   38.5990   29.8810   37.3460 H   0  0  0  0  0  0  0  0  0  0  0  0
   38.4100   31.8000   35.8460 H   0  0  0  0  0  0  0  0  0  0  0  0
   36.6720   32.0920   36.3410 H   0  0  0  0  0  0  0  0  0  0  0  0
   39.0730   32.1390   38.2180 H   0  0  0  0  0  0  0  0  0  0  0  0
   37.0770   32.4340   39.0490 C   0  0  2  0  0  0  0  0  0  0  0  0
   37.5730   33.7360   39.7210 C   0  0  0  0  0  0  0  0  0  0  0  0
   37.5170   32.5080   40.5190 C   0  0  2  0  0  0  0  0  0  0  0  0
   35.9920   32.4940   38.8830 H   0  0  0  0  0  0  0  0  0  0  0  0
   36.8260   34.5070   39.9980 H   0  0  0  0  0  0  0  0  0  0  0  0
   38.5140   34.1560   39.3790 H   0  0  0  0  0  0  0  0  0  0  0  0
   36.6880   32.2490   41.2250 H   0  0  0  0  0  0  0  0  0  0  0  0
   38.7990   31.9100   40.9320 C   0  0  0  0  0  0  0  0  0  0  0  0
   39.0130   30.6670   41.4910 C   0  0  0  0  0  0  0  0  0  0  0  0
   38.1650   30.0210   41.6420 H   0  0  0  0  0  0  0  0  0  0  0  0
   40.2210   30.1660   41.8680 C   0  0  0  0  0  3  0  0  0  0  0  0
   41.3590   30.9250   41.6980 C   0  0  0  0  0  0  0  0  0  0  0  0
   42.2990   30.5300   41.9930 H   0  0  0  0  0  0  0  0  0  0  0  0
   41.2470   32.1830   41.1450 C   0  0  0  0  0  0  0  0  0  0  0  0
   42.1170   32.7980   41.0000 H   0  0  0  0  0  0  0  0  0  0  0  0
   39.9930   32.6230   40.7890 C   0  0  0  0  0  3  0  0  0  0  0  0
   36.5010   28.8180   39.9030 C   0  0  0  0  0  2  0  0  0  0  0  0
   36.4970   28.6020   38.6310 C   0  0  0  0  0  2  0  0  0  0  0  0
   37.0110   26.7820   42.9160 C   0  0  0  0  0  0  0  0  0  0  0  0
   37.0540   25.4830   42.4340 C   0  0  0  0  0  0  0  0  0  0  0  0
   36.8810   25.3380   41.0930 C   0  0  0  0  0  0  0  0  0  0  0  0
   36.6810   26.4170   40.2860 N   0  0  0  0  0  0  0  0  0  0  0  0
   36.6440   27.6690   40.7690 C   0  0  0  0  0  0  0  0  0  0  0  0
   36.8110   27.8040   42.0830 N   0  0  0  0  0  0  0  0  0  0  0  0
   37.1360   27.0060   43.9680 H   0  0  0  0  0  0  0  0  0  0  0  0
   37.2150   24.6440   43.0950 H   0  0  0  0  0  0  0  0  0  0  0  0
   36.8960   24.0300   40.4540 C   0  0  0  0  0  0  0  0  0  0  0  0
   35.9290   23.5910   39.5650 C   0  0  0  0  0  0  0  0  0  0  0  0
   35.9390   22.3560   38.9580 C   0  0  0  0  0  0  0  0  0  0  0  0
   36.9560   21.4780   39.2290 C   0  0  0  0  0  0  0  0  0  0  0  0
   37.9420   21.8540   40.1010 C   0  0  0  0  0  0  0  0  0  0  0  0
   37.8800   23.1060   40.6800 C   0  0  0  0  0  0  0  0  0  0  0  0
   35.0970   24.2720   39.3240 H   0  0  0  0  0  0  0  0  0  0  0  0
   35.1510   22.0690   38.2670 H   0  0  0  0  0  0  0  0  0  0  0  0
   36.9280   20.5140   38.7320 H   0  0  0  0  0  0  0  0  0  0  0  0
   38.7540   21.1680   40.3260 H   0  0  0  0  0  0  0  0  0  0  0  0
   38.6970   23.3550   41.3720 H   0  0  0  0  0  0  0  0  0  0  0  0
  1  2  1  0  0  0  0
  1 28  1  0  0  0  0
  3  1  1  0  0  0  0
  4  7  1  6  0  0  0
  4  1  1  0  0  0  0
  4  6  1  0  0  0  0
  5  4  1  0  0  0  0
  5  6  1  0  0  0  0
  6 10  1  1  0  0  0
  6 11  1  0  0  0  0
  8  5  1  0  0  0  0
  9  5  1  0  0  0  0
 11 14  1  6  0  0  0
 11 12  1  0  0  0  0
 11 13  1  0  0  0  0
 12 15  1  0  0  0  0
 12 13  1  0  0  0  0
 13 18  1  0  0  0  0
 13 17  1  1  0  0  0
 16 12  1  0  0  0  0
 18 19  1  0  0  0  0
 19 20  1  0  0  0  0
 19 21  2  0  0  0  0
 22 21  1  0  0  0  0
 22 23  1  0  0  0  0
 24 22  2  0  0  0  0
 25 24  1  0  0  0  0
 26 18  2  0  0  0  0
 26 24  1  0  0  0  0
 27 33  1  0  0  0  0
 28 27  1  0  0  0  0
 29 35  1  0  0  0  0
 30 29  1  0  0  0  0
 30 36  1  0  0  0  0
 31 30  2  0  0  0  0
 32 33  2  0  0  0  0
 32 31  1  0  0  0  0
 33 34  1  0  0  0  0
 34 29  2  0  0  0  0
 37 42  1  0  0  0  0
 37 31  1  0  0  0  0
 38 37  2  0  0  0  0
 39 40  2  0  0  0  0
 39 38  1  0  0  0  0
 40 41  1  0  0  0  0
 41 46  1  0  0  0  0
 41 42  2  0  0  0  0
 42 47  1  0  0  0  0
 43 38  1  0  0  0  0
 44 39  1  0  0  0  0
 45 40  1  0  0  0  0
M  END
>  <minimizedAffinity>
-5.87749863

$$$$
