
 OpenBabel03252505413D

 28 30  0  0  1  0  0  0  0  0999 V2000
   36.9030   25.3870   42.4110 C   0  0  1  0  0  0  0  0  0  0  0  0
   37.0870   24.7130   41.0430 C   0  0  0  0  0  0  0  0  0  0  0  0
   38.0080   24.4530   42.1810 C   0  0  1  0  0  0  0  0  0  0  0  0
   35.9900   25.0040   42.9600 H   0  0  0  0  0  0  0  0  0  0  0  0
   36.3600   23.8940   40.8140 H   0  0  0  0  0  0  0  0  0  0  0  0
   37.3750   25.3520   40.1970 H   0  0  0  0  0  0  0  0  0  0  0  0
   37.9320   23.4670   42.7310 H   0  0  0  0  0  0  0  0  0  0  0  0
   39.4000   24.8370   41.8930 C   0  0  0  0  0  0  0  0  0  0  0  0
   40.3110   24.7720   42.9550 C   0  0  0  0  0  0  0  0  0  0  0  0
   40.0160   24.4640   43.9590 H   0  0  0  0  0  0  0  0  0  0  0  0
   41.6680   25.0900   42.8500 C   0  0  0  0  0  3  0  0  0  0  0  0
   42.1500   25.4930   41.6230 C   0  0  0  0  0  0  0  0  0  0  0  0
   43.1700   25.7580   41.4380 H   0  0  0  0  0  0  0  0  0  0  0  0
   41.2820   25.5680   40.5530 C   0  0  0  0  0  0  0  0  0  0  0  0
   41.6480   25.8830   39.5840 H   0  0  0  0  0  0  0  0  0  0  0  0
   39.9500   25.2470   40.6960 C   0  0  0  0  0  3  0  0  0  0  0  0
   37.0600   26.8560   42.4060 C   0  0  0  0  0  0  0  0  0  0  0  0
   37.8830   27.4120   43.4170 C   0  0  0  0  0  0  0  0  0  0  0  0
   38.0620   28.7820   43.4220 C   0  0  0  0  0  0  0  0  0  0  0  0
   37.4400   29.5210   42.4600 N   0  0  0  0  0  0  0  0  0  0  0  0
   36.6630   28.9510   41.5140 C   0  0  0  0  0  0  0  0  0  0  0  0
   36.4790   27.6140   41.4950 N   0  0  0  0  0  0  0  0  0  0  0  0
   38.3910   26.8700   44.2040 H   0  0  0  0  0  0  0  0  0  0  0  0
   38.6750   29.2770   44.1610 H   0  0  0  0  0  0  0  0  0  0  0  0
   36.0720   29.9340   40.5500 C   0  0  0  0  0  0  0  0  0  0  0  0
   36.8490   30.0770   39.4250 F   0  0  0  0  0  0  0  0  0  0  0  0
   35.9460   31.1830   41.1630 F   0  0  0  0  0  0  0  0  0  0  0  0
   34.7760   29.5300   40.2310 F   0  0  0  0  0  0  0  0  0  0  0  0
  1  4  1  1  0  0  0
  2  3  1  0  0  0  0
  2  1  1  0  0  0  0
  3  1  1  0  0  0  0
  3  7  1  1  0  0  0
  5  2  1  0  0  0  0
  6  2  1  0  0  0  0
  8  3  1  0  0  0  0
  8  9  1  0  0  0  0
  9 10  1  0  0  0  0
 11  9  2  0  0  0  0
 12 11  1  0  0  0  0
 13 12  1  0  0  0  0
 14 16  1  0  0  0  0
 14 12  2  0  0  0  0
 15 14  1  0  0  0  0
 16  8  2  0  0  0  0
 17  1  1  0  0  0  0
 17 18  1  0  0  0  0
 18 19  2  0  0  0  0
 18 23  1  0  0  0  0
 19 24  1  0  0  0  0
 20 19  1  0  0  0  0
 21 20  2  0  0  0  0
 22 21  1  0  0  0  0
 22 17  2  0  0  0  0
 25 27  1  0  0  0  0
 25 21  1  0  0  0  0
 26 25  1  0  0  0  0
 28 25  1  0  0  0  0
M  END
>  <minimizedAffinity>
-5.46885967

$$$$

 OpenBabel03252505413D

 28 30  0  0  1  0  0  0  0  0999 V2000
   38.8920   28.9210   42.9170 C   0  0  1  0  0  0  0  0  0  0  0  0
   37.5420   28.6040   43.5800 C   0  0  0  0  0  0  0  0  0  0  0  0
   38.6580   27.6220   43.5530 C   0  0  1  0  0  0  0  0  0  0  0  0
   39.4830   29.6950   43.4940 H   0  0  0  0  0  0  0  0  0  0  0  0
   37.3660   29.1060   44.5650 H   0  0  0  0  0  0  0  0  0  0  0  0
   36.6660   28.5060   42.9260 H   0  0  0  0  0  0  0  0  0  0  0  0
   39.2440   27.4330   44.5020 H   0  0  0  0  0  0  0  0  0  0  0  0
   38.3100   26.3780   42.8430 C   0  0  0  0  0  0  0  0  0  0  0  0
   39.3320   25.4350   42.6760 C   0  0  0  0  0  0  0  0  0  0  0  0
   40.3470   25.6030   43.0390 H   0  0  0  0  0  0  0  0  0  0  0  0
   39.1690   24.2020   42.0390 C   0  0  0  0  0  3  0  0  0  0  0  0
   37.9230   23.8850   41.5400 C   0  0  0  0  0  0  0  0  0  0  0  0
   37.6950   22.9690   41.0370 H   0  0  0  0  0  0  0  0  0  0  0  0
   36.8920   24.7900   41.6880 C   0  0  0  0  0  0  0  0  0  0  0  0
   35.9090   24.5530   41.3010 H   0  0  0  0  0  0  0  0  0  0  0  0
   37.0920   25.9970   42.3220 C   0  0  0  0  0  3  0  0  0  0  0  0
   38.8300   29.1390   41.4570 C   0  0  0  0  0  0  0  0  0  0  0  0
   39.8450   28.5300   40.6790 C   0  0  0  0  0  0  0  0  0  0  0  0
   39.7990   28.7030   39.3080 C   0  0  0  0  0  0  0  0  0  0  0  0
   38.7850   29.4480   38.7830 N   0  0  0  0  0  0  0  0  0  0  0  0
   37.8370   30.0110   39.5620 C   0  0  0  0  0  0  0  0  0  0  0  0
   37.8680   29.8510   40.9020 N   0  0  0  0  0  0  0  0  0  0  0  0
   40.6720   27.9390   41.0490 H   0  0  0  0  0  0  0  0  0  0  0  0
   40.5380   28.2690   38.6510 H   0  0  0  0  0  0  0  0  0  0  0  0
   36.8110   30.7870   38.7920 C   0  0  0  0  0  0  0  0  0  0  0  0
   35.6720   30.0500   38.5720 F   0  0  0  0  0  0  0  0  0  0  0  0
   37.3360   31.1710   37.5560 F   0  0  0  0  0  0  0  0  0  0  0  0
   36.5330   31.9700   39.4760 F   0  0  0  0  0  0  0  0  0  0  0  0
  1  4  1  1  0  0  0
  1  3  1  0  0  0  0
  1  2  1  0  0  0  0
  2  5  1  0  0  0  0
  3  2  1  0  0  0  0
  3  7  1  1  0  0  0
  6  2  1  0  0  0  0
  8  3  1  0  0  0  0
  9  8  1  0  0  0  0
  9 10  1  0  0  0  0
 11  9  2  0  0  0  0
 12 14  2  0  0  0  0
 12 11  1  0  0  0  0
 13 12  1  0  0  0  0
 14 16  1  0  0  0  0
 15 14  1  0  0  0  0
 16  8  2  0  0  0  0
 17  1  1  0  0  0  0
 18 23  1  0  0  0  0
 18 17  2  0  0  0  0
 19 18  1  0  0  0  0
 20 19  2  0  0  0  0
 20 21  1  0  0  0  0
 21 22  2  0  0  0  0
 22 17  1  0  0  0  0
 24 19  1  0  0  0  0
 25 28  1  0  0  0  0
 25 21  1  0  0  0  0
 26 25  1  0  0  0  0
 27 25  1  0  0  0  0
M  END
>  <minimizedAffinity>
-5.31088352

$$$$

 OpenBabel03252505413D

 28 30  0  0  1  0  0  0  0  0999 V2000
   37.9550   28.3720   43.5330 C   0  0  1  0  0  0  0  0  0  0  0  0
   38.8100   29.4890   42.9150 C   0  0  0  0  0  0  0  0  0  0  0  0
   37.3590   29.3520   42.6210 C   0  0  1  0  0  0  0  0  0  0  0  0
   37.7960   28.5170   44.6440 H   0  0  0  0  0  0  0  0  0  0  0  0
   39.0850   30.3200   43.6120 H   0  0  0  0  0  0  0  0  0  0  0  0
   39.5800   29.1960   42.1890 H   0  0  0  0  0  0  0  0  0  0  0  0
   36.6340   30.0790   43.0950 H   0  0  0  0  0  0  0  0  0  0  0  0
   37.0820   29.1240   41.1920 C   0  0  0  0  0  0  0  0  0  0  0  0
   35.7440   28.9330   40.8270 C   0  0  0  0  0  0  0  0  0  0  0  0
   34.9330   28.9380   41.5560 H   0  0  0  0  0  0  0  0  0  0  0  0
   35.3080   28.7170   39.5160 C   0  0  0  0  0  3  0  0  0  0  0  0
   36.2510   28.6910   38.5110 C   0  0  0  0  0  0  0  0  0  0  0  0
   36.0210   28.5340   37.4780 H   0  0  0  0  0  0  0  0  0  0  0  0
   37.5800   28.8770   38.8330 C   0  0  0  0  0  0  0  0  0  0  0  0
   38.3300   28.8590   38.0540 H   0  0  0  0  0  0  0  0  0  0  0  0
   37.9710   29.0860   40.1380 C   0  0  0  0  0  3  0  0  0  0  0  0
   38.3350   27.0030   43.1270 C   0  0  0  0  0  0  0  0  0  0  0  0
   39.5320   26.4840   43.6800 C   0  0  0  0  0  0  0  0  0  0  0  0
   39.9000   25.1980   43.3310 C   0  0  0  0  0  0  0  0  0  0  0  0
   39.0940   24.5030   42.4780 N   0  0  0  0  0  0  0  0  0  0  0  0
   37.9610   25.0360   41.9740 C   0  0  0  0  0  0  0  0  0  0  0  0
   37.5880   26.2900   42.3060 N   0  0  0  0  0  0  0  0  0  0  0  0
   40.2060   26.9970   44.3530 H   0  0  0  0  0  0  0  0  0  0  0  0
   40.7980   24.7360   43.7120 H   0  0  0  0  0  0  0  0  0  0  0  0
   37.2180   24.1100   41.0580 C   0  0  0  0  0  0  0  0  0  0  0  0
   37.2070   24.5740   39.7640 F   0  0  0  0  0  0  0  0  0  0  0  0
   35.8980   23.9720   41.4910 F   0  0  0  0  0  0  0  0  0  0  0  0
   37.7860   22.8400   41.1430 F   0  0  0  0  0  0  0  0  0  0  0  0
  1  4  1  1  0  0  0
  2  1  1  0  0  0  0
  2  5  1  0  0  0  0
  3  2  1  0  0  0  0
  3  7  1  1  0  0  0
  3  1  1  0  0  0  0
  6  2  1  0  0  0  0
  8  3  1  0  0  0  0
  9  8  1  0  0  0  0
  9 10  1  0  0  0  0
 11  9  2  0  0  0  0
 12 14  2  0  0  0  0
 12 11  1  0  0  0  0
 13 12  1  0  0  0  0
 14 16  1  0  0  0  0
 15 14  1  0  0  0  0
 16  8  2  0  0  0  0
 17  1  1  0  0  0  0
 17 18  1  0  0  0  0
 18 23  1  0  0  0  0
 19 18  2  0  0  0  0
 19 24  1  0  0  0  0
 20 19  1  0  0  0  0
 21 22  1  0  0  0  0
 21 20  2  0  0  0  0
 22 17  2  0  0  0  0
 25 28  1  0  0  0  0
 25 27  1  0  0  0  0
 25 21  1  0  0  0  0
 26 25  1  0  0  0  0
M  END
>  <minimizedAffinity>
-5.27217054

$$$$

 OpenBabel03252505413D

 28 30  0  0  1  0  0  0  0  0999 V2000
   35.7540   30.3860   40.4210 C   0  0  1  0  0  0  0  0  0  0  0  0
   35.7550   29.3180   39.3160 C   0  0  0  0  0  0  0  0  0  0  0  0
   35.4280   28.9900   40.7290 C   0  0  1  0  0  0  0  0  0  0  0  0
   34.8980   31.1180   40.3100 H   0  0  0  0  0  0  0  0  0  0  0  0
   34.8830   29.3560   38.6160 H   0  0  0  0  0  0  0  0  0  0  0  0
   36.7220   29.0530   38.8670 H   0  0  0  0  0  0  0  0  0  0  0  0
   34.3500   28.7940   41.0090 H   0  0  0  0  0  0  0  0  0  0  0  0
   36.3570   28.0120   41.3210 C   0  0  0  0  0  0  0  0  0  0  0  0
   37.0690   27.1930   40.4350 C   0  0  0  0  0  0  0  0  0  0  0  0
   36.9450   27.2570   39.3540 H   0  0  0  0  0  0  0  0  0  0  0  0
   37.9960   26.2250   40.8300 C   0  0  0  0  0  3  0  0  0  0  0  0
   38.2320   26.0580   42.1780 C   0  0  0  0  0  0  0  0  0  0  0  0
   38.9200   25.3460   42.5820 H   0  0  0  0  0  0  0  0  0  0  0  0
   37.5490   26.8480   43.0800 C   0  0  0  0  0  0  0  0  0  0  0  0
   37.7250   26.7270   44.1420 H   0  0  0  0  0  0  0  0  0  0  0  0
   36.6410   27.7920   42.6520 C   0  0  0  0  0  3  0  0  0  0  0  0
   37.0710   30.9970   40.6950 C   0  0  0  0  0  0  0  0  0  0  0  0
   37.2700   32.3180   40.2220 C   0  0  0  0  0  0  0  0  0  0  0  0
   38.4870   32.9200   40.4820 C   0  0  0  0  0  0  0  0  0  0  0  0
   39.4250   32.2120   41.1750 N   0  0  0  0  0  0  0  0  0  0  0  0
   39.1940   30.9540   41.6070 C   0  0  0  0  0  0  0  0  0  0  0  0
   38.0100   30.3530   41.3610 N   0  0  0  0  0  0  0  0  0  0  0  0
   36.5620   32.9160   39.6640 H   0  0  0  0  0  0  0  0  0  0  0  0
   38.7110   33.9240   40.1540 H   0  0  0  0  0  0  0  0  0  0  0  0
   40.3500   30.3530   42.3470 C   0  0  0  0  0  0  0  0  0  0  0  0
   39.9830   29.2170   43.0300 F   0  0  0  0  0  0  0  0  0  0  0  0
   40.8590   31.2750   43.2630 F   0  0  0  0  0  0  0  0  0  0  0  0
   41.3810   30.0970   41.4440 F   0  0  0  0  0  0  0  0  0  0  0  0
  1  4  1  6  0  0  0
  1 17  1  0  0  0  0
  1  3  1  0  0  0  0
  2  1  1  0  0  0  0
  2  3  1  0  0  0  0
  3  7  1  1  0  0  0
  3  8  1  0  0  0  0
  5  2  1  0  0  0  0
  6  2  1  0  0  0  0
  8 16  1  0  0  0  0
  9 11  1  0  0  0  0
  9  8  2  0  0  0  0
 10  9  1  0  0  0  0
 11 12  2  0  0  0  0
 12 13  1  0  0  0  0
 12 14  1  0  0  0  0
 14 15  1  0  0  0  0
 16 14  2  0  0  0  0
 17 22  1  0  0  0  0
 18 19  1  0  0  0  0
 18 17  2  0  0  0  0
 19 20  2  0  0  0  0
 20 21  1  0  0  0  0
 21 25  1  0  0  0  0
 22 21  2  0  0  0  0
 23 18  1  0  0  0  0
 24 19  1  0  0  0  0
 25 26  1  0  0  0  0
 25 27  1  0  0  0  0
 28 25  1  0  0  0  0
M  END
>  <minimizedAffinity>
-5.25480747

$$$$

 OpenBabel03252505413D

 28 30  0  0  1  0  0  0  0  0999 V2000
   37.4800   29.7090   42.0350 C   0  0  1  0  0  0  0  0  0  0  0  0
   37.8970   30.8380   41.0790 C   0  0  0  0  0  0  0  0  0  0  0  0
   36.4780   30.4240   41.2390 C   0  0  1  0  0  0  0  0  0  0  0  0
   37.6000   30.0010   43.1220 H   0  0  0  0  0  0  0  0  0  0  0  0
   38.1770   31.8020   41.5730 H   0  0  0  0  0  0  0  0  0  0  0  0
   38.4870   30.5620   40.1940 H   0  0  0  0  0  0  0  0  0  0  0  0
   35.7770   31.0900   41.8260 H   0  0  0  0  0  0  0  0  0  0  0  0
   35.8790   29.9320   39.9860 C   0  0  0  0  0  0  0  0  0  0  0  0
   36.5740   30.1980   38.8010 C   0  0  0  0  0  0  0  0  0  0  0  0
   37.5130   30.7540   38.7870 H   0  0  0  0  0  0  0  0  0  0  0  0
   36.1520   29.7930   37.5320 C   0  0  0  0  0  3  0  0  0  0  0  0
   34.9760   29.0810   37.4320 C   0  0  0  0  0  0  0  0  0  0  0  0
   34.5670   28.7260   36.5090 H   0  0  0  0  0  0  0  0  0  0  0  0
   34.2640   28.7990   38.5800 C   0  0  0  0  0  0  0  0  0  0  0  0
   33.3380   28.2410   38.5150 H   0  0  0  0  0  0  0  0  0  0  0  0
   34.7130   29.2170   39.8140 C   0  0  0  0  0  3  0  0  0  0  0  0
   38.0020   28.3720   41.6830 C   0  0  0  0  0  0  0  0  0  0  0  0
   39.3410   28.3130   41.2240 C   0  0  0  0  0  0  0  0  0  0  0  0
   39.8600   27.0720   40.9060 C   0  0  0  0  0  0  0  0  0  0  0  0
   39.0580   25.9780   41.0500 N   0  0  0  0  0  0  0  0  0  0  0  0
   37.7850   26.0800   41.4900 C   0  0  0  0  0  0  0  0  0  0  0  0
   37.2650   27.2850   41.8050 N   0  0  0  0  0  0  0  0  0  0  0  0
   40.0130   29.1500   41.0880 H   0  0  0  0  0  0  0  0  0  0  0  0
   40.8720   26.9480   40.5510 H   0  0  0  0  0  0  0  0  0  0  0  0
   37.0740   24.7640   41.5770 C   0  0  0  0  0  0  0  0  0  0  0  0
   36.2990   24.6770   42.7090 F   0  0  0  0  0  0  0  0  0  0  0  0
   38.0030   23.7220   41.5950 F   0  0  0  0  0  0  0  0  0  0  0  0
   36.3150   24.5830   40.4220 F   0  0  0  0  0  0  0  0  0  0  0  0
  1  4  1  1  0  0  0
  2  3  1  0  0  0  0
  2  5  1  0  0  0  0
  2  1  1  0  0  0  0
  3  7  1  1  0  0  0
  3  1  1  0  0  0  0
  6  2  1  0  0  0  0
  8  3  1  0  0  0  0
  9  8  2  0  0  0  0
 10  9  1  0  0  0  0
 11  9  1  0  0  0  0
 12 11  2  0  0  0  0
 12 14  1  0  0  0  0
 13 12  1  0  0  0  0
 14 16  2  0  0  0  0
 15 14  1  0  0  0  0
 16  8  1  0  0  0  0
 17 22  1  0  0  0  0
 17  1  1  0  0  0  0
 18 17  2  0  0  0  0
 19 20  2  0  0  0  0
 19 18  1  0  0  0  0
 20 21  1  0  0  0  0
 21 25  1  0  0  0  0
 21 22  2  0  0  0  0
 23 18  1  0  0  0  0
 24 19  1  0  0  0  0
 25 27  1  0  0  0  0
 25 26  1  0  0  0  0
 28 25  1  0  0  0  0
M  END
>  <minimizedAffinity>
-5.24477768

$$$$

 OpenBabel03252505413D

 28 30  0  0  1  0  0  0  0  0999 V2000
   35.6680   30.0030   39.7110 C   0  0  1  0  0  0  0  0  0  0  0  0
   35.5380   28.5050   39.3950 C   0  0  0  0  0  0  0  0  0  0  0  0
   35.5100   29.0220   40.7890 C   0  0  1  0  0  0  0  0  0  0  0  0
   34.7560   30.5910   39.3920 H   0  0  0  0  0  0  0  0  0  0  0  0
   34.5480   28.1900   38.9780 H   0  0  0  0  0  0  0  0  0  0  0  0
   36.4180   27.9940   38.9820 H   0  0  0  0  0  0  0  0  0  0  0  0
   34.5220   29.0600   41.3380 H   0  0  0  0  0  0  0  0  0  0  0  0
   36.6030   28.4890   41.6210 C   0  0  0  0  0  0  0  0  0  0  0  0
   37.0230   27.1800   41.3560 C   0  0  0  0  0  0  0  0  0  0  0  0
   36.5650   26.5650   40.5810 H   0  0  0  0  0  0  0  0  0  0  0  0
   38.0530   26.5290   42.0420 C   0  0  0  0  0  3  0  0  0  0  0  0
   38.7030   27.2150   43.0460 C   0  0  0  0  0  0  0  0  0  0  0  0
   39.5030   26.8080   43.6290 H   0  0  0  0  0  0  0  0  0  0  0  0
   38.3170   28.5080   43.3340 C   0  0  0  0  0  0  0  0  0  0  0  0
   38.8190   29.0580   44.1190 H   0  0  0  0  0  0  0  0  0  0  0  0
   37.2960   29.1160   42.6350 C   0  0  0  0  0  3  0  0  0  0  0  0
   36.9650   30.6050   39.3390 C   0  0  0  0  0  0  0  0  0  0  0  0
   37.5960   30.0890   38.1800 C   0  0  0  0  0  0  0  0  0  0  0  0
   38.8020   30.6490   37.7990 C   0  0  0  0  0  0  0  0  0  0  0  0
   39.3140   31.6600   38.5560 N   0  0  0  0  0  0  0  0  0  0  0  0
   38.6800   32.1210   39.6540 C   0  0  0  0  0  0  0  0  0  0  0  0
   37.5020   31.5860   40.0390 N   0  0  0  0  0  0  0  0  0  0  0  0
   37.2340   29.2860   37.5520 H   0  0  0  0  0  0  0  0  0  0  0  0
   39.3400   30.3090   36.9270 H   0  0  0  0  0  0  0  0  0  0  0  0
   39.4080   33.2350   40.3450 C   0  0  0  0  0  0  0  0  0  0  0  0
   38.5600   34.0040   41.1060 F   0  0  0  0  0  0  0  0  0  0  0  0
   40.0240   34.0570   39.4000 F   0  0  0  0  0  0  0  0  0  0  0  0
   40.4370   32.6930   41.1130 F   0  0  0  0  0  0  0  0  0  0  0  0
  1  4  1  6  0  0  0
  1  3  1  0  0  0  0
  2  1  1  0  0  0  0
  2  3  1  0  0  0  0
  3  7  1  1  0  0  0
  3  8  1  0  0  0  0
  5  2  1  0  0  0  0
  6  2  1  0  0  0  0
  8 16  1  0  0  0  0
  9  8  2  0  0  0  0
  9 11  1  0  0  0  0
 10  9  1  0  0  0  0
 11 12  2  0  0  0  0
 12 14  1  0  0  0  0
 12 13  1  0  0  0  0
 14 15  1  0  0  0  0
 16 14  2  0  0  0  0
 17  1  1  0  0  0  0
 17 22  1  0  0  0  0
 18 17  2  0  0  0  0
 19 18  1  0  0  0  0
 19 20  2  0  0  0  0
 20 21  1  0  0  0  0
 21 22  2  0  0  0  0
 21 25  1  0  0  0  0
 23 18  1  0  0  0  0
 24 19  1  0  0  0  0
 25 26  1  0  0  0  0
 25 28  1  0  0  0  0
 27 25  1  0  0  0  0
M  END
>  <minimizedAffinity>
-5.19977236

$$$$

 OpenBabel03252505413D

 28 30  0  0  1  0  0  0  0  0999 V2000
   37.9840   29.4480   37.9740 C   0  0  1  0  0  0  0  0  0  0  0  0
   37.3300   30.4960   37.0610 C   0  0  0  0  0  0  0  0  0  0  0  0
   38.6570   30.7190   37.6920 C   0  0  1  0  0  0  0  0  0  0  0  0
   38.3230   28.5310   37.4030 H   0  0  0  0  0  0  0  0  0  0  0  0
   37.3500   30.2550   35.9690 H   0  0  0  0  0  0  0  0  0  0  0  0
   36.4210   30.9920   37.4280 H   0  0  0  0  0  0  0  0  0  0  0  0
   39.5870   30.6450   37.0520 H   0  0  0  0  0  0  0  0  0  0  0  0
   38.6770   31.8870   38.5900 C   0  0  0  0  0  0  0  0  0  0  0  0
   37.4810   32.6000   38.7320 C   0  0  0  0  0  0  0  0  0  0  0  0
   36.5690   32.3230   38.2010 H   0  0  0  0  0  0  0  0  0  0  0  0
   37.3250   33.7220   39.5510 C   0  0  0  0  0  3  0  0  0  0  0  0
   38.4160   34.1610   40.2710 C   0  0  0  0  0  0  0  0  0  0  0  0
   38.4010   35.0080   40.9250 H   0  0  0  0  0  0  0  0  0  0  0  0
   39.6120   33.4820   40.1560 C   0  0  0  0  0  0  0  0  0  0  0  0
   40.4760   33.8160   40.7160 H   0  0  0  0  0  0  0  0  0  0  0  0
   39.7260   32.3800   39.3370 C   0  0  0  0  0  3  0  0  0  0  0  0
   37.2510   29.1710   39.2270 C   0  0  0  0  0  0  0  0  0  0  0  0
   35.8370   29.1850   39.1520 C   0  0  0  0  0  0  0  0  0  0  0  0
   35.1270   28.9100   40.3070 C   0  0  0  0  0  0  0  0  0  0  0  0
   35.8240   28.6440   41.4480 N   0  0  0  0  0  0  0  0  0  0  0  0
   37.1740   28.6420   41.4750 C   0  0  0  0  0  0  0  0  0  0  0  0
   37.8810   28.9080   40.3560 N   0  0  0  0  0  0  0  0  0  0  0  0
   35.2390   29.3960   38.2750 H   0  0  0  0  0  0  0  0  0  0  0  0
   34.0470   28.9020   40.3270 H   0  0  0  0  0  0  0  0  0  0  0  0
   37.7470   28.3260   42.8230 C   0  0  0  0  0  0  0  0  0  0  0  0
   38.3010   29.4360   43.4160 F   0  0  0  0  0  0  0  0  0  0  0  0
   38.7350   27.3480   42.7020 F   0  0  0  0  0  0  0  0  0  0  0  0
   36.7470   27.7660   43.6180 F   0  0  0  0  0  0  0  0  0  0  0  0
  1  4  1  6  0  0  0
  1 17  1  0  0  0  0
  2  6  1  0  0  0  0
  2  3  1  0  0  0  0
  2  1  1  0  0  0  0
  3  7  1  6  0  0  0
  3  1  1  0  0  0  0
  3  8  1  0  0  0  0
  5  2  1  0  0  0  0
  8  9  2  0  0  0  0
  8 16  1  0  0  0  0
  9 11  1  0  0  0  0
 10  9  1  0  0  0  0
 11 12  2  0  0  0  0
 12 13  1  0  0  0  0
 14 12  1  0  0  0  0
 14 15  1  0  0  0  0
 16 14  2  0  0  0  0
 17 22  1  0  0  0  0
 18 17  2  0  0  0  0
 18 19  1  0  0  0  0
 19 24  1  0  0  0  0
 19 20  2  0  0  0  0
 20 21  1  0  0  0  0
 21 25  1  0  0  0  0
 22 21  2  0  0  0  0
 23 18  1  0  0  0  0
 25 26  1  0  0  0  0
 25 28  1  0  0  0  0
 27 25  1  0  0  0  0
M  END
>  <minimizedAffinity>
-5.19195461

$$$$

 OpenBabel03252505413D

 28 30  0  0  1  0  0  0  0  0999 V2000
   37.2610   28.6430   43.4460 C   0  0  1  0  0  0  0  0  0  0  0  0
   36.6450   27.4310   42.7290 C   0  0  0  0  0  0  0  0  0  0  0  0
   37.7800   27.2920   43.6800 C   0  0  1  0  0  0  0  0  0  0  0  0
   36.5630   29.0840   44.2210 H   0  0  0  0  0  0  0  0  0  0  0  0
   35.6480   27.1030   43.1180 H   0  0  0  0  0  0  0  0  0  0  0  0
   36.7850   27.3590   41.6420 H   0  0  0  0  0  0  0  0  0  0  0  0
   37.5820   26.8670   44.7090 H   0  0  0  0  0  0  0  0  0  0  0  0
   38.9870   26.7260   43.0530 C   0  0  0  0  0  0  0  0  0  0  0  0
   38.8680   26.2800   41.7310 C   0  0  0  0  0  0  0  0  0  0  0  0
   37.9290   26.3320   41.1800 H   0  0  0  0  0  0  0  0  0  0  0  0
   39.9170   25.7300   40.9880 C   0  0  0  0  0  3  0  0  0  0  0  0
   41.1520   25.6170   41.5890 C   0  0  0  0  0  0  0  0  0  0  0  0
   42.0170   25.2100   41.1070 H   0  0  0  0  0  0  0  0  0  0  0  0
   41.3070   26.0460   42.8910 C   0  0  0  0  0  0  0  0  0  0  0  0
   42.2720   25.9630   43.3740 H   0  0  0  0  0  0  0  0  0  0  0  0
   40.2490   26.5830   43.5910 C   0  0  0  0  0  3  0  0  0  0  0  0
   37.9110   29.6260   42.5560 C   0  0  0  0  0  0  0  0  0  0  0  0
   39.2110   30.0540   42.9230 C   0  0  0  0  0  0  0  0  0  0  0  0
   39.8500   30.9600   42.0970 C   0  0  0  0  0  0  0  0  0  0  0  0
   39.1960   31.3890   40.9790 N   0  0  0  0  0  0  0  0  0  0  0  0
   37.9570   30.9560   40.6660 C   0  0  0  0  0  0  0  0  0  0  0  0
   37.3200   30.0710   41.4630 N   0  0  0  0  0  0  0  0  0  0  0  0
   39.7660   29.7490   43.8000 H   0  0  0  0  0  0  0  0  0  0  0  0
   40.8410   31.3310   42.3110 H   0  0  0  0  0  0  0  0  0  0  0  0
   37.4160   31.5460   39.4000 C   0  0  0  0  0  0  0  0  0  0  0  0
   38.3730   31.6040   38.4140 F   0  0  0  0  0  0  0  0  0  0  0  0
   36.9490   32.8400   39.6400 F   0  0  0  0  0  0  0  0  0  0  0  0
   36.3070   30.8060   38.9940 F   0  0  0  0  0  0  0  0  0  0  0  0
  1  3  1  0  0  0  0
  1  4  1  1  0  0  0
  2  5  1  0  0  0  0
  2  1  1  0  0  0  0
  2  3  1  0  0  0  0
  3  7  1  1  0  0  0
  6  2  1  0  0  0  0
  8 16  1  0  0  0  0
  8  3  1  0  0  0  0
  9  8  2  0  0  0  0
 10  9  1  0  0  0  0
 11 12  2  0  0  0  0
 11  9  1  0  0  0  0
 12 14  1  0  0  0  0
 13 12  1  0  0  0  0
 14 15  1  0  0  0  0
 14 16  2  0  0  0  0
 17 18  1  0  0  0  0
 17  1  1  0  0  0  0
 18 23  1  0  0  0  0
 19 24  1  0  0  0  0
 19 18  2  0  0  0  0
 20 19  1  0  0  0  0
 21 20  2  0  0  0  0
 21 22  1  0  0  0  0
 22 17  2  0  0  0  0
 25 27  1  0  0  0  0
 25 21  1  0  0  0  0
 26 25  1  0  0  0  0
 28 25  1  0  0  0  0
M  END
>  <minimizedAffinity>
-5.12081957

$$$$

 OpenBabel03252505413D

 28 30  0  0  1  0  0  0  0  0999 V2000
   40.2070   30.7010   41.3210 C   0  0  1  0  0  0  0  0  0  0  0  0
   40.0450   30.9380   42.8310 C   0  0  0  0  0  0  0  0  0  0  0  0
   40.1930   29.5740   42.2580 C   0  0  1  0  0  0  0  0  0  0  0  0
   41.2090   31.0560   40.9350 H   0  0  0  0  0  0  0  0  0  0  0  0
   40.9500   31.3440   43.3480 H   0  0  0  0  0  0  0  0  0  0  0  0
   39.0770   31.3180   43.1840 H   0  0  0  0  0  0  0  0  0  0  0  0
   41.1790   29.0330   42.3820 H   0  0  0  0  0  0  0  0  0  0  0  0
   39.0330   28.7080   42.5300 C   0  0  0  0  0  0  0  0  0  0  0  0
   38.9700   27.4930   41.8370 C   0  0  0  0  0  0  0  0  0  0  0  0
   39.7320   27.1910   41.1170 H   0  0  0  0  0  0  0  0  0  0  0  0
   37.9460   26.5530   41.9860 C   0  0  0  0  0  3  0  0  0  0  0  0
   36.9280   26.8320   42.8730 C   0  0  0  0  0  0  0  0  0  0  0  0
   36.1000   26.1800   43.0600 H   0  0  0  0  0  0  0  0  0  0  0  0
   36.9570   28.0200   43.5740 C   0  0  0  0  0  0  0  0  0  0  0  0
   36.1640   28.2520   44.2740 H   0  0  0  0  0  0  0  0  0  0  0  0
   37.9840   28.9230   43.3990 C   0  0  0  0  0  3  0  0  0  0  0  0
   39.0420   31.0960   40.5020 C   0  0  0  0  0  0  0  0  0  0  0  0
   38.5260   32.3980   40.7180 C   0  0  0  0  0  0  0  0  0  0  0  0
   37.4480   32.8000   39.9520 C   0  0  0  0  0  0  0  0  0  0  0  0
   36.9440   31.9260   39.0350 N   0  0  0  0  0  0  0  0  0  0  0  0
   37.4670   30.6940   38.8610 C   0  0  0  0  0  0  0  0  0  0  0  0
   38.5190   30.2860   39.6020 N   0  0  0  0  0  0  0  0  0  0  0  0
   38.8850   33.1230   41.4360 H   0  0  0  0  0  0  0  0  0  0  0  0
   37.0010   33.7770   40.0600 H   0  0  0  0  0  0  0  0  0  0  0  0
   36.7700   29.8890   37.8050 C   0  0  0  0  0  0  0  0  0  0  0  0
   37.2840   28.6170   37.7100 F   0  0  0  0  0  0  0  0  0  0  0  0
   36.9060   30.5150   36.5650 F   0  0  0  0  0  0  0  0  0  0  0  0
   35.4040   29.8710   38.0800 F   0  0  0  0  0  0  0  0  0  0  0  0
  1  4  1  6  0  0  0
  1  3  1  0  0  0  0
  1  2  1  0  0  0  0
  2  6  1  0  0  0  0
  2  5  1  0  0  0  0
  3  7  1  1  0  0  0
  3  8  1  0  0  0  0
  3  2  1  0  0  0  0
  8 16  1  0  0  0  0
  9 11  1  0  0  0  0
  9  8  2  0  0  0  0
 10  9  1  0  0  0  0
 11 12  2  0  0  0  0
 12 13  1  0  0  0  0
 12 14  1  0  0  0  0
 14 15  1  0  0  0  0
 16 14  2  0  0  0  0
 17 18  1  0  0  0  0
 17  1  1  0  0  0  0
 18 23  1  0  0  0  0
 19 24  1  0  0  0  0
 19 18  2  0  0  0  0
 20 19  1  0  0  0  0
 21 20  2  0  0  0  0
 21 22  1  0  0  0  0
 22 17  2  0  0  0  0
 25 28  1  0  0  0  0
 25 21  1  0  0  0  0
 26 25  1  0  0  0  0
 27 25  1  0  0  0  0
M  END
>  <minimizedAffinity>
-5.11716747

$$$$
