
 OpenBabel03252505403D

 28 30  0  0  1  0  0  0  0  0999 V2000
   44.6190   34.3670   43.9090 C   0  0  1  0  0  0  0  0  0  0  0  0
   45.1100   35.8210   43.9850 C   0  0  0  0  0  0  0  0  0  0  0  0
   44.9800   35.0990   42.6920 C   0  0  1  0  0  0  0  0  0  0  0  0
   43.5200   34.2710   44.1640 H   0  0  0  0  0  0  0  0  0  0  0  0
   44.3170   36.5820   44.1940 H   0  0  0  0  0  0  0  0  0  0  0  0
   46.0870   36.0030   44.4530 H   0  0  0  0  0  0  0  0  0  0  0  0
   44.1170   35.3560   42.0060 H   0  0  0  0  0  0  0  0  0  0  0  0
   46.2590   34.9730   41.9720 C   0  0  0  0  0  0  0  0  0  0  0  0
   46.2460   34.2520   40.7720 C   0  0  0  0  0  0  0  0  0  0  0  0
   45.3400   33.7880   40.3800 H   0  0  0  0  0  0  0  0  0  0  0  0
   47.3670   34.0490   39.9630 C   0  0  0  0  0  0  0  0  0  0  0  0
   48.5680   34.5930   40.3640 C   0  0  0  0  0  0  0  0  0  0  0  0
   49.4830   34.4960   39.8170 H   0  0  0  0  0  0  0  0  0  0  0  0
   48.6190   35.3120   41.5410 C   0  0  0  0  0  0  0  0  0  0  0  0
   49.5560   35.7440   41.8670 H   0  0  0  0  0  0  0  0  0  0  0  0
   47.4920   35.4890   42.3130 C   0  0  0  0  0  0  0  0  0  0  0  0
   45.5030   33.3790   44.5610 C   0  0  0  0  0  0  0  0  0  0  0  0
   46.1690   32.4630   43.7100 C   0  0  0  0  0  0  0  0  0  0  0  0
   47.0170   31.5390   44.2930 C   0  0  0  0  0  0  0  0  0  0  0  0
   47.1640   31.5610   45.6480 N   0  0  0  0  0  0  0  0  0  0  0  0
   46.5090   32.4510   46.4230 C   0  0  0  0  0  0  0  0  0  0  0  0
   45.6780   33.3590   45.8680 N   0  0  0  0  0  0  0  0  0  0  0  0
   46.0800   32.4010   42.6330 H   0  0  0  0  0  0  0  0  0  0  0  0
   47.5590   30.8110   43.7090 H   0  0  0  0  0  0  0  0  0  0  0  0
   46.8080   32.3090   47.8850 C   0  0  0  0  0  0  0  0  0  0  0  0
   45.8050   32.8360   48.6640 F   0  0  0  0  0  0  0  0  0  0  0  0
   48.0000   32.9670   48.1920 F   0  0  0  0  0  0  0  0  0  0  0  0
   47.0260   30.9620   48.1720 F   0  0  0  0  0  0  0  0  0  0  0  0
  1  2  1  0  0  0  0
  1  4  1  1  0  0  0
  1 17  1  0  0  0  0
  2  5  1  0  0  0  0
  2  6  1  0  0  0  0
  3  7  1  6  0  0  0
  3  1  1  0  0  0  0
  3  2  1  0  0  0  0
  8 16  1  0  0  0  0
  8  3  1  0  0  0  0
  9  8  2  0  0  0  0
 10  9  1  0  0  0  0
 11 12  2  0  0  0  0
 11  9  1  0  0  0  0
 12 14  1  0  0  0  0
 13 12  1  0  0  0  0
 14 15  1  0  0  0  0
 14 16  2  0  0  0  0
 17 22  1  0  0  0  0
 18 19  1  0  0  0  0
 18 17  2  0  0  0  0
 19 20  2  0  0  0  0
 20 21  1  0  0  0  0
 21 25  1  0  0  0  0
 22 21  2  0  0  0  0
 23 18  1  0  0  0  0
 24 19  1  0  0  0  0
 25 28  1  0  0  0  0
 25 27  1  0  0  0  0
 25 26  1  0  0  0  0
M  END
>  <minimizedAffinity>
-5.33382988

>  <minimizedRMSD>
1.38506484

$$$$
