
 OpenBabel03252501423D

 45 48  0  0  0  0  0  0  0  0999 V2000
   44.6940   33.0690   42.2290 C   0  0  0  0  0  0  0  0  0  0  0  0
   44.2000   32.2530   43.0910 O   0  0  0  0  0  0  0  0  0  0  0  0
   45.5700   34.0280   42.8260 N   0  0  0  0  0  0  0  0  0  0  0  0
   46.0760   34.7380   42.3060 H   0  0  0  0  0  0  0  0  0  0  0  0
   45.5990   33.8060   44.2590 C   0  0  0  0  0  0  0  0  0  0  0  0
   44.9490   34.5430   45.2000 C   0  0  0  0  0  0  0  0  0  0  0  0
   45.0920   34.1840   46.5130 C   0  0  0  0  0  0  0  0  0  0  0  0
   45.8700   33.1200   46.7880 N   0  0  0  0  0  0  0  0  0  0  0  0
   46.5110   32.3980   45.8350 C   0  0  0  0  0  0  0  0  0  0  0  0
   46.3740   32.7460   44.5390 N   0  0  0  0  0  0  0  0  0  0  0  0
   44.5800   34.7630   47.2600 H   0  0  0  0  0  0  0  0  0  0  0  0
   47.3510   31.2390   46.2130 C   0  0  0  0  0  0  0  0  0  0  0  0
   47.6400   31.0510   47.5460 C   0  0  0  0  0  0  0  0  0  0  0  0
   47.2920   31.6950   48.3440 H   0  0  0  0  0  0  0  0  0  0  0  0
   48.4190   29.9750   47.9000 C   0  0  0  0  0  0  0  0  0  0  0  0
   48.8990   29.1070   46.9270 C   0  0  0  0  0  0  0  0  0  0  0  0
   49.5270   28.2240   47.1080 H   0  0  0  0  0  0  0  0  0  0  0  0
   48.5970   29.3150   45.5940 C   0  0  0  0  0  0  0  0  0  0  0  0
   48.9300   28.6880   44.7750 H   0  0  0  0  0  0  0  0  0  0  0  0
   47.8160   30.3880   45.2190 C   0  0  0  0  0  0  0  0  0  0  0  0
   44.1680   35.6340   44.7380 N   0  0  0  0  0  0  0  0  0  0  0  0
   44.5160   36.5220   44.2940 H   0  0  0  0  0  0  0  0  0  0  0  0
   43.1130   35.5700   44.8400 H   0  0  0  0  0  0  0  0  0  0  0  0
   44.4630   33.0930   40.8510 O   0  0  0  0  0  0  0  0  0  0  0  0
   42.4550   30.9060   40.6630 Cl  0  0  0  0  0  0  0  0  0  0  0  0
   42.2050   32.5970   40.2910 C   0  0  0  0  0  0  0  0  0  0  0  0
   43.2100   33.5530   40.4100 C   0  0  0  0  0  0  0  0  0  0  0  0
   42.9600   34.8600   40.1060 C   0  0  0  0  0  0  0  0  0  0  0  0
   41.7290   35.3060   39.6720 C   0  0  0  0  0  0  0  0  0  0  0  0
   40.6950   34.3600   39.5450 C   0  0  0  0  0  0  0  0  0  0  0  0
   39.0970   34.8430   38.9990 Cl  0  0  0  0  0  0  0  0  0  0  0  0
   40.9850   33.0470   39.8600 C   0  0  0  0  0  0  0  0  0  0  0  0
   43.8130   35.5200   40.2340 H   0  0  0  0  0  0  0  0  0  0  0  0
   41.5610   36.3320   39.4430 H   0  0  0  0  0  0  0  0  0  0  0  0
   39.3230   32.5550   41.9560 F   0  0  0  0  0  0  0  0  0  0  0  0
   39.0930   31.8310   40.8070 C   0  0  0  0  0  0  0  0  0  0  0  0
   39.9180   32.0580   39.7300 C   0  0  0  0  0  0  0  0  0  0  0  0
   39.6560   31.3030   38.5780 C   0  0  0  0  0  0  0  0  0  0  0  0
   38.6110   30.3960   38.5850 C   0  0  0  0  0  0  0  0  0  0  0  0
   37.8110   30.2140   39.7190 C   0  0  0  0  0  0  0  0  0  0  0  0
   38.0450   30.9480   40.8790 C   0  0  0  0  0  0  0  0  0  0  0  0
   40.3010   31.4810   37.7340 H   0  0  0  0  0  0  0  0  0  0  0  0
   38.4130   29.8160   37.6930 H   0  0  0  0  0  0  0  0  0  0  0  0
   36.9930   29.5040   39.7240 H   0  0  0  0  0  0  0  0  0  0  0  0
   37.4500   30.8360   41.7730 H   0  0  0  0  0  0  0  0  0  0  0  0
  1  3  1  0  0  0  0
  1  2  2  0  0  0  0
  3  5  1  0  0  0  0
  4  3  1  0  0  0  0
  5 10  2  0  0  0  0
  5  6  1  0  0  0  0
  6  7  2  0  0  0  0
  7  8  1  0  0  0  0
  7 11  1  0  0  0  0
  9 12  1  0  0  0  0
  9  8  2  0  0  0  0
 10  9  1  0  0  0  0
 12 13  1  0  0  0  0
 13 15  2  0  0  0  0
 13 14  1  0  0  0  0
 16 17  1  0  0  0  0
 16 15  1  0  0  0  0
 18 16  2  0  0  0  0
 19 18  1  0  0  0  0
 20 18  1  0  0  0  0
 20 12  2  0  0  0  0
 21 23  1  0  0  0  0
 21  6  1  0  0  0  0
 22 21  1  0  0  0  0
 24  1  1  0  0  0  0
 26 27  1  0  0  0  0
 26 25  1  0  0  0  0
 27 24  1  0  0  0  0
 28 33  1  0  0  0  0
 28 27  2  0  0  0  0
 29 28  1  0  0  0  0
 30 29  2  0  0  0  0
 30 32  1  0  0  0  0
 31 30  1  0  0  0  0
 32 26  2  0  0  0  0
 34 29  1  0  0  0  0
 36 41  1  0  0  0  0
 36 35  1  0  0  0  0
 37 32  1  0  0  0  0
 37 36  2  0  0  0  0
 38 39  2  0  0  0  0
 38 37  1  0  0  0  0
 39 40  1  0  0  0  0
 40 44  1  0  0  0  0
 40 41  2  0  0  0  0
 41 45  1  0  0  0  0
 42 38  1  0  0  0  0
 43 39  1  0  0  0  0
M  END
>  <minimizedAffinity>
-6.52878284

>  <minimizedRMSD>
1.7505554

$$$$
