
 OpenBabel03252505253D

 43 46  0  0  1  0  0  0  0  0999 V2000
   46.5840   33.2340   44.8580 F   0  0  0  0  0  0  0  0  0  0  0  0
   47.2700   32.0670   44.7150 C   0  0  0  0  0  0  0  0  0  0  0  0
   48.1230   31.9440   43.6350 C   0  0  0  0  0  0  0  0  0  0  0  0
   48.8040   30.7650   43.5050 C   0  0  0  0  0  0  0  0  0  0  0  0
   48.6260   29.7550   44.4300 C   0  0  0  0  0  0  0  0  0  0  0  0
   47.7800   29.8760   45.5010 C   0  0  0  0  0  0  0  0  0  0  0  0
   47.0830   31.0830   45.6340 C   0  0  0  0  0  0  0  0  0  0  0  0
   49.4880   30.6210   42.6690 H   0  0  0  0  0  0  0  0  0  0  0  0
   49.1790   28.8300   44.3030 H   0  0  0  0  0  0  0  0  0  0  0  0
   47.6550   29.0720   46.2150 H   0  0  0  0  0  0  0  0  0  0  0  0
   46.2200   31.1590   46.7570 N   0  0  0  0  0  0  0  0  0  0  0  0
   45.0920   30.3630   47.1450 C   0  0  0  0  0  0  0  0  0  0  0  0
   45.3940   30.0200   48.6070 C   0  0  0  0  0  0  0  0  0  0  0  0
   46.3240   31.1240   49.0380 C   0  0  0  0  0  0  0  0  0  0  0  0
   46.2260   32.0950   47.8780 C   0  0  2  0  0  0  0  0  0  0  0  0
   45.1510   29.3870   46.5840 H   0  0  0  0  0  0  0  0  0  0  0  0
   44.1250   30.8530   47.0070 H   0  0  0  0  0  0  0  0  0  0  0  0
   44.4470   30.1530   49.1840 H   0  0  0  0  0  0  0  0  0  0  0  0
   45.8140   29.0120   48.7300 H   0  0  0  0  0  0  0  0  0  0  0  0
   47.3500   30.7540   49.1220 H   0  0  0  0  0  0  0  0  0  0  0  0
   45.9770   31.6160   49.9760 H   0  0  0  0  0  0  0  0  0  0  0  0
   47.1800   32.6660   47.8540 H   0  0  0  0  0  0  0  0  0  0  0  0
   45.0430   32.9880   47.9210 C   0  0  0  0  0  0  0  0  0  0  0  0
   45.3980   34.0390   47.9900 H   0  0  0  0  0  0  0  0  0  0  0  0
   44.5090   32.8880   46.9540 H   0  0  0  0  0  0  0  0  0  0  0  0
   44.3300   32.7790   48.7430 H   0  0  0  0  0  0  0  0  0  0  0  0
   49.0700   35.1570   42.1510 C   0  0  0  0  0  0  0  0  0  0  0  0
   48.5130   35.0710   40.8500 C   0  0  0  0  0  0  0  0  0  0  0  0
   47.8320   33.9000   40.5430 C   0  0  0  0  0  0  0  0  0  0  0  0
   47.7390   32.9340   41.4710 N   0  0  0  0  0  0  0  0  0  0  0  0
   48.2730   33.0420   42.6890 C   0  0  0  0  0  0  0  0  0  0  0  0
   48.9330   34.1400   43.0330 N   0  0  0  0  0  0  0  0  0  0  0  0
   49.6070   36.0750   42.4010 H   0  0  0  0  0  0  0  0  0  0  0  0
   48.5970   35.8540   40.1170 H   0  0  0  0  0  0  0  0  0  0  0  0
   47.2050   33.6610   39.2510 C   0  0  0  0  0  0  0  0  0  0  0  0
   45.9100   33.1900   39.2160 C   0  0  0  0  0  0  0  0  0  0  0  0
   45.3640   32.9980   40.1240 H   0  0  0  0  0  0  0  0  0  0  0  0
   45.2470   32.9370   38.0230 C   0  0  0  0  0  0  0  0  0  0  0  0
   45.8910   33.1610   36.8050 C   0  0  0  0  0  0  0  0  0  0  0  0
   45.4580   32.9950   35.8260 H   0  0  0  0  0  0  0  0  0  0  0  0
   47.1900   33.6330   36.8240 C   0  0  0  0  0  0  0  0  0  0  0  0
   47.7140   33.8170   35.8790 H   0  0  0  0  0  0  0  0  0  0  0  0
   47.8140   33.8720   38.0320 C   0  0  0  0  0  0  0  0  0  0  0  0
  2  1  1  0  0  0  0
  2  7  1  0  0  0  0
  3  2  2  0  0  0  0
  4  3  1  0  0  0  0
  4  5  2  0  0  0  0
  5  6  1  0  0  0  0
  6  7  2  0  0  0  0
  6 10  1  0  0  0  0
  7 11  1  0  0  0  0
  8  4  1  0  0  0  0
  9  5  1  0  0  0  0
 11 12  1  0  0  0  0
 11 15  1  0  0  0  0
 12 13  1  0  0  0  0
 13 19  1  0  0  0  0
 13 14  1  0  0  0  0
 13 18  1  0  0  0  0
 14 20  1  0  0  0  0
 14 21  1  0  0  0  0
 15 22  1  6  0  0  0
 15 23  1  0  0  0  0
 15 14  1  0  0  0  0
 16 12  1  0  0  0  0
 17 12  1  0  0  0  0
 23 24  1  0  0  0  0
 23 26  1  0  0  0  0
 25 23  1  0  0  0  0
 27 33  1  0  0  0  0
 27 32  1  0  0  0  0
 28 27  2  0  0  0  0
 29 28  1  0  0  0  0
 29 30  2  0  0  0  0
 30 31  1  0  0  0  0
 31 32  2  0  0  0  0
 31  3  1  0  0  0  0
 34 28  1  0  0  0  0
 35 29  1  0  0  0  0
 36 35  1  0  0  0  0
 36 37  1  0  0  0  0
 38 36  2  0  0  0  0
 39 41  2  0  0  0  0
 39 38  1  0  0  0  0
 40 39  1  0  0  0  0
 41 43  1  0  0  0  0
 42 41  1  0  0  0  0
 43 35  2  0  0  0  0
M  END
>  <minimizedAffinity>
-5.63341856

>  <minimizedRMSD>
0.937964797

$$$$
