
 OpenBabel03252509113D

 31 34  0  0  0  0  0  0  0  0999 V2000
   43.7520   26.8710   42.3030 C   0  0  0  0  0  0  0  0  0  0  0  0
   44.4410   27.4200   43.3550 C   0  0  0  0  0  0  0  0  0  0  0  0
   43.9560   27.3770   44.6490 C   0  0  0  0  0  0  0  0  0  0  0  0
   42.7400   26.7680   44.9330 C   0  0  0  0  0  0  0  0  0  0  0  0
   41.9820   26.5460   46.0400 N   0  0  0  0  0  0  0  0  0  0  0  0
   40.8610   25.8780   45.6640 C   0  0  0  0  0  0  0  0  0  0  0  0
   40.9350   25.6940   44.3320 N   0  0  0  0  0  0  0  0  0  0  0  0
   42.0770   26.2300   43.8520 C   0  0  0  0  0  0  0  0  0  0  0  0
   42.5230   26.2510   42.5550 C   0  0  0  0  0  0  0  0  0  0  0  0
   44.1620   26.9230   41.2960 H   0  0  0  0  0  0  0  0  0  0  0  0
   42.3450   26.8980   46.9630 H   0  0  0  0  0  0  0  0  0  0  0  0
   40.1070   25.5940   46.3920 H   0  0  0  0  0  0  0  0  0  0  0  0
   41.9780   25.8190   41.7300 H   0  0  0  0  0  0  0  0  0  0  0  0
   46.9840   29.9980   42.7060 C   0  0  0  0  0  0  0  0  0  0  0  0
   48.1710   29.2650   42.7020 C   0  0  0  0  0  0  0  0  0  0  0  0
   48.0850   27.8840   42.9230 C   0  0  0  0  0  0  0  0  0  0  0  0
   46.8480   27.3350   43.1310 N   0  0  0  0  0  0  0  0  0  0  0  0
   45.7200   28.0720   43.1290 C   0  0  0  0  0  0  0  0  0  0  0  0
   45.7780   29.4050   42.9180 N   0  0  0  0  0  0  0  0  0  0  0  0
   46.9800   31.0820   42.5390 H   0  0  0  0  0  0  0  0  0  0  0  0
   49.1030   29.7790   42.5290 H   0  0  0  0  0  0  0  0  0  0  0  0
   48.9880   27.2900   42.9250 H   0  0  0  0  0  0  0  0  0  0  0  0
   44.6980   27.9650   45.7650 C   0  0  0  0  0  0  0  0  0  0  0  0
   44.3720   29.2360   46.2130 C   0  0  0  0  0  0  0  0  0  0  0  0
   43.5670   29.7730   45.7190 H   0  0  0  0  0  0  0  0  0  0  0  0
   45.0000   29.8660   47.2390 C   0  0  0  0  0  3  0  0  0  0  0  0
   46.0330   29.1670   47.8640 C   0  0  0  0  0  0  0  0  0  0  0  0
   46.5840   29.5850   48.6810 H   0  0  0  0  0  0  0  0  0  0  0  0
   46.3940   27.8810   47.4440 C   0  0  0  0  0  0  0  0  0  0  0  0
   47.1880   27.3110   47.9050 H   0  0  0  0  0  0  0  0  0  0  0  0
   45.7300   27.2820   46.4000 C   0  0  0  0  0  3  0  0  0  0  0  0
  1  9  2  0  0  0  0
  1  2  1  0  0  0  0
  2  3  2  0  0  0  0
  3  4  1  0  0  0  0
  3 23  1  0  0  0  0
  4  5  1  0  0  0  0
  5 11  1  0  0  0  0
  6  5  1  0  0  0  0
  6 12  1  0  0  0  0
  7  6  2  0  0  0  0
  8  7  1  0  0  0  0
  8  4  2  0  0  0  0
  9  8  1  0  0  0  0
 10  1  1  0  0  0  0
 13  9  1  0  0  0  0
 14 19  1  0  0  0  0
 15 14  2  0  0  0  0
 15 16  1  0  0  0  0
 16 22  1  0  0  0  0
 16 17  2  0  0  0  0
 18 17  1  0  0  0  0
 18  2  1  0  0  0  0
 19 18  2  0  0  0  0
 20 14  1  0  0  0  0
 21 15  1  0  0  0  0
 23 24  2  0  0  0  0
 23 31  1  0  0  0  0
 24 26  1  0  0  0  0
 25 24  1  0  0  0  0
 26 27  2  0  0  0  0
 27 28  1  0  0  0  0
 29 27  1  0  0  0  0
 29 30  1  0  0  0  0
 31 29  2  0  0  0  0
M  END
>  <minimizedAffinity>
-2.22800756

>  <minimizedRMSD>
6.98980093

$$$$
