
 OpenBabel03252509163D

 25 27  0  0  0  0  0  0  0  0999 V2000
   41.6730   30.6710   42.6360 C   0  0  0  0  0  0  0  0  0  0  0  0
   40.4590   30.4070   43.3230 C   0  0  0  0  0  0  0  0  0  0  0  0
   40.4550   29.4350   44.2540 C   0  0  0  0  0  0  0  0  0  0  0  0
   41.6410   28.7130   44.5180 C   0  0  0  0  0  0  0  0  0  0  0  0
   42.8350   29.4730   43.3640 S   0  0  0  0  0  0  0  0  0  0  0  0
   39.5730   30.9820   43.0910 H   0  0  0  0  0  0  0  0  0  0  0  0
   39.6150   29.1360   44.8390 H   0  0  0  0  0  0  0  0  0  0  0  0
   41.2660   32.9150   39.7240 C   0  0  0  0  0  0  0  0  0  0  0  0
   42.4570   33.6820   39.8440 C   0  0  0  0  0  0  0  0  0  0  0  0
   43.3320   33.4030   40.8980 C   0  0  0  0  0  0  0  0  0  0  0  0
   42.9810   32.3980   41.7530 N   0  0  0  0  0  0  0  0  0  0  0  0
   41.8370   31.6940   41.6000 C   0  0  0  0  0  0  0  0  0  0  0  0
   40.9730   31.9490   40.5850 N   0  0  0  0  0  0  0  0  0  0  0  0
   40.5920   33.1420   38.9000 H   0  0  0  0  0  0  0  0  0  0  0  0
   42.7150   34.4770   39.1500 H   0  0  0  0  0  0  0  0  0  0  0  0
   44.2540   33.9330   41.0620 H   0  0  0  0  0  0  0  0  0  0  0  0
   41.9580   27.6340   45.4370 C   0  0  0  0  0  0  0  0  0  0  0  0
   43.2720   27.5340   45.8290 C   0  0  0  0  0  0  0  0  0  0  0  0
   44.0410   28.2090   45.4860 H   0  0  0  0  0  0  0  0  0  0  0  0
   43.5350   26.4830   46.7140 C   0  0  0  0  0  3  0  0  0  0  0  0
   42.5070   25.6300   47.1340 C   0  0  0  0  0  0  0  0  0  0  0  0
   42.8170   24.8500   47.8180 H   0  0  0  0  0  0  0  0  0  0  0  0
   41.2050   25.8010   46.6890 C   0  0  0  0  0  0  0  0  0  0  0  0
   40.4390   25.1240   47.0350 H   0  0  0  0  0  0  0  0  0  0  0  0
   40.9000   26.8410   45.8030 C   0  0  0  0  0  3  0  0  0  0  0  0
  1  2  2  0  0  0  0
  1  5  1  0  0  0  0
  2  3  1  0  0  0  0
  3  4  2  0  0  0  0
  3  7  1  0  0  0  0
  4 17  1  0  0  0  0
  5  4  1  0  0  0  0
  6  2  1  0  0  0  0
  8  9  2  0  0  0  0
  8 13  1  0  0  0  0
  9 10  1  0  0  0  0
 10 16  1  0  0  0  0
 10 11  2  0  0  0  0
 12 11  1  0  0  0  0
 12  1  1  0  0  0  0
 13 12  2  0  0  0  0
 14  8  1  0  0  0  0
 15  9  1  0  0  0  0
 17 25  2  0  0  0  0
 17 18  1  0  0  0  0
 18 20  2  0  0  0  0
 19 18  1  0  0  0  0
 20 21  1  0  0  0  0
 21 22  1  0  0  0  0
 23 24  1  0  0  0  0
 23 21  2  0  0  0  0
 25 23  1  0  0  0  0
M  END
>  <minimizedAffinity>
-4.05376625

>  <minimizedRMSD>
6.50897932

$$$$
