
 OpenBabel03252505583D

 36 38  0  0  0  0  0  0  0  0999 V2000
   45.0100   34.9320   44.8070 C   0  0  0  0  0  0  0  0  0  0  0  0
   45.8770   34.6150   43.7670 C   0  0  0  0  0  0  0  0  0  0  0  0
   46.8130   33.6130   44.0220 C   0  0  0  0  0  0  0  0  0  0  0  0
   46.8530   33.0050   45.2130 N   0  0  0  0  0  0  0  0  0  0  0  0
   45.9820   33.3550   46.1920 C   0  0  0  0  0  0  0  0  0  0  0  0
   45.0740   34.3050   45.9870 N   0  0  0  0  0  0  0  0  0  0  0  0
   44.2630   35.7030   44.6620 H   0  0  0  0  0  0  0  0  0  0  0  0
   47.7850   33.1540   43.0500 C   0  0  0  0  0  0  0  0  0  0  0  0
   48.9900   33.8640   43.1010 C   0  0  0  0  0  0  0  0  0  0  0  0
   49.1750   34.6960   43.7980 H   0  0  0  0  0  0  0  0  0  0  0  0
   50.0820   33.5980   42.2820 C   0  0  0  0  0  0  0  0  0  0  0  0
   49.9910   32.5870   41.3660 C   0  0  0  0  0  0  0  0  0  0  0  0
   50.7530   32.2720   40.6700 H   0  0  0  0  0  0  0  0  0  0  0  0
   48.8130   31.8780   41.3010 C   0  0  0  0  0  0  0  0  0  0  0  0
   48.6790   31.0550   40.5870 H   0  0  0  0  0  0  0  0  0  0  0  0
   47.7300   32.1390   42.1120 C   0  0  0  0  0  0  0  0  0  0  0  0
   45.7840   35.3430   42.4690 C   0  0  0  0  0  0  0  0  0  0  0  0
   44.8100   36.3100   42.6980 F   0  0  0  0  0  0  0  0  0  0  0  0
   45.3040   34.4330   41.5470 F   0  0  0  0  0  0  0  0  0  0  0  0
   46.9740   35.8920   42.1520 F   0  0  0  0  0  0  0  0  0  0  0  0
   45.9850   32.7540   47.4400 O   0  0  0  0  0  0  0  0  0  0  0  0
   45.5080   31.4340   47.6110 C   0  0  0  0  0  0  0  0  0  0  0  0
   44.9850   31.1200   46.6630 H   0  0  0  0  0  0  0  0  0  0  0  0
   44.7970   31.3410   48.4550 H   0  0  0  0  0  0  0  0  0  0  0  0
   46.6690   30.5600   47.7850 C   0  0  0  0  0  0  0  0  0  0  0  0
   46.8970   29.2670   47.3230 C   0  0  0  0  0  0  0  0  0  0  0  0
   48.0870   28.6750   47.6390 C   0  0  0  0  0  0  0  0  0  0  0  0
   49.0150   29.2840   48.3570 N   0  0  0  0  0  0  0  0  0  0  0  0
   48.7870   30.5350   48.7990 C   0  0  0  0  0  0  0  0  0  0  0  0
   47.6220   31.1820   48.5210 N   0  0  0  0  0  0  0  0  0  0  0  0
   46.0560   28.8870   46.7490 H   0  0  0  0  0  0  0  0  0  0  0  0
   48.2020   27.6630   47.2470 H   0  0  0  0  0  0  0  0  0  0  0  0
   49.8870   31.1370   49.5970 C   0  0  0  0  0  0  0  0  0  0  0  0
   49.8710   32.5060   49.5170 F   0  0  0  0  0  0  0  0  0  0  0  0
   51.1330   30.6720   49.1220 F   0  0  0  0  0  0  0  0  0  0  0  0
   49.8040   30.7850   50.9280 F   0  0  0  0  0  0  0  0  0  0  0  0
  1  6  1  0  0  0  0
  2  3  1  0  0  0  0
  2  1  2  0  0  0  0
  3  4  2  0  0  0  0
  4  5  1  0  0  0  0
  5 21  1  0  0  0  0
  6  5  2  0  0  0  0
  7  1  1  0  0  0  0
  8  9  1  0  0  0  0
  8  3  1  0  0  0  0
  9 10  1  0  0  0  0
 11  9  2  0  0  0  0
 12 11  1  0  0  0  0
 13 12  1  0  0  0  0
 14 12  2  0  0  0  0
 14 16  1  0  0  0  0
 15 14  1  0  0  0  0
 16  8  2  0  0  0  0
 17 18  1  0  0  0  0
 17  2  1  0  0  0  0
 19 17  1  0  0  0  0
 20 17  1  0  0  0  0
 21 22  1  0  0  0  0
 22 25  1  0  0  0  0
 22 24  1  0  0  0  0
 23 22  1  0  0  0  0
 25 30  1  0  0  0  0
 26 27  1  0  0  0  0
 26 25  2  0  0  0  0
 27 28  2  0  0  0  0
 28 29  1  0  0  0  0
 29 33  1  0  0  0  0
 30 29  2  0  0  0  0
 31 26  1  0  0  0  0
 32 27  1  0  0  0  0
 33 36  1  0  0  0  0
 34 33  1  0  0  0  0
 35 33  1  0  0  0  0
M  END
>  <minimizedAffinity>
-6.15750551

>  <minimizedRMSD>
0.644687176

$$$$
