
 OpenBabel03252507273D

 27 29  0  0  0  0  0  0  0  0999 V2000
   37.5450   28.1950   41.6070 C   0  0  0  0  0  0  0  0  0  0  0  0
   36.2150   27.9400   41.2720 C   0  0  0  0  0  0  0  0  0  0  0  0
   35.4740   28.9960   40.6920 C   0  0  0  0  0  0  0  0  0  0  0  0
   36.0860   30.2150   40.4870 N   0  0  0  0  0  0  0  0  0  0  0  0
   37.3820   30.3810   40.8410 C   0  0  0  0  0  0  0  0  0  0  0  0
   38.1210   29.3990   41.3940 N   0  0  0  0  0  0  0  0  0  0  0  0
   35.7620   26.9960   41.4370 H   0  0  0  0  0  0  0  0  0  0  0  0
   34.4390   28.8720   40.4070 H   0  0  0  0  0  0  0  0  0  0  0  0
   38.0000   31.6830   40.6100 C   0  0  0  0  0  0  0  0  0  0  0  0
   37.3020   32.6880   39.9820 C   0  0  0  0  0  0  0  0  0  0  0  0
   37.7660   33.9520   39.7040 C   0  0  0  0  0  0  0  0  0  0  0  0
   39.0740   34.1610   40.1250 C   0  0  0  0  0  0  0  0  0  0  0  0
   39.8220   33.1600   40.7710 C   0  0  0  0  0  0  0  0  0  0  0  0
   39.2600   31.9340   40.9980 N   0  0  0  0  0  0  0  0  0  0  0  0
   36.2700   32.4520   39.6750 H   0  0  0  0  0  0  0  0  0  0  0  0
   37.1980   34.7120   39.2150 H   0  0  0  0  0  0  0  0  0  0  0  0
   39.5680   35.1190   39.9700 H   0  0  0  0  0  0  0  0  0  0  0  0
   40.8490   33.3780   41.0830 H   0  0  0  0  0  0  0  0  0  0  0  0
   38.3830   27.1670   42.2080 C   0  0  0  0  0  0  0  0  0  0  0  0
   38.1850   25.8500   41.8520 C   0  0  0  0  0  0  0  0  0  0  0  0
   37.4330   25.5100   41.1410 H   0  0  0  0  0  0  0  0  0  0  0  0
   38.9580   24.8280   42.3950 C   0  0  0  0  0  3  0  0  0  0  0  0
   39.9540   25.0980   43.3110 C   0  0  0  0  0  0  0  0  0  0  0  0
   40.5890   24.3470   43.7700 H   0  0  0  0  0  0  0  0  0  0  0  0
   40.1650   26.4200   43.6800 C   0  0  0  0  0  0  0  0  0  0  0  0
   40.9340   26.6580   44.3920 H   0  0  0  0  0  0  0  0  0  0  0  0
   39.3830   27.3870   43.1210 C   0  0  0  0  0  3  0  0  0  0  0  0
  1 19  1  0  0  0  0
  2  7  1  0  0  0  0
  2  1  2  0  0  0  0
  3  2  1  0  0  0  0
  4  3  2  0  0  0  0
  4  5  1  0  0  0  0
  5  6  2  0  0  0  0
  6  1  1  0  0  0  0
  8  3  1  0  0  0  0
  9  5  1  0  0  0  0
  9 14  1  0  0  0  0
 10  9  2  0  0  0  0
 11 10  1  0  0  0  0
 11 12  2  0  0  0  0
 12 13  1  0  0  0  0
 13 14  2  0  0  0  0
 13 18  1  0  0  0  0
 15 10  1  0  0  0  0
 16 11  1  0  0  0  0
 17 12  1  0  0  0  0
 19 27  1  0  0  0  0
 20 19  2  0  0  0  0
 20 22  1  0  0  0  0
 21 20  1  0  0  0  0
 22 23  2  0  0  0  0
 23 25  1  0  0  0  0
 23 24  1  0  0  0  0
 25 26  1  0  0  0  0
 27 25  2  0  0  0  0
M  END
>  <minimizedAffinity>
-5.41979933

$$$$

 OpenBabel03252507273D

 27 29  0  0  0  0  0  0  0  0999 V2000
   37.3960   30.5150   40.7900 C   0  0  0  0  0  0  0  0  0  0  0  0
   36.0530   30.3690   40.4420 C   0  0  0  0  0  0  0  0  0  0  0  0
   35.4500   29.1120   40.6810 C   0  0  0  0  0  0  0  0  0  0  0  0
   36.2030   28.0990   41.2380 N   0  0  0  0  0  0  0  0  0  0  0  0
   37.5010   28.3220   41.5480 C   0  0  0  0  0  0  0  0  0  0  0  0
   38.1110   29.5050   41.3370 N   0  0  0  0  0  0  0  0  0  0  0  0
   35.4920   31.1590   40.0140 H   0  0  0  0  0  0  0  0  0  0  0  0
   34.4140   28.9250   40.4360 H   0  0  0  0  0  0  0  0  0  0  0  0
   38.2680   27.2290   42.1370 C   0  0  0  0  0  0  0  0  0  0  0  0
   39.2600   27.4850   43.0550 C   0  0  0  0  0  0  0  0  0  0  0  0
   40.0520   26.5500   43.6800 C   0  0  0  0  0  0  0  0  0  0  0  0
   39.7680   25.2450   43.2960 C   0  0  0  0  0  0  0  0  0  0  0  0
   38.7630   24.9410   42.3610 C   0  0  0  0  0  0  0  0  0  0  0  0
   38.0310   25.9520   41.8000 N   0  0  0  0  0  0  0  0  0  0  0  0
   39.4310   28.5430   43.3120 H   0  0  0  0  0  0  0  0  0  0  0  0
   40.8150   26.7820   44.3900 H   0  0  0  0  0  0  0  0  0  0  0  0
   40.3200   24.4050   43.7130 H   0  0  0  0  0  0  0  0  0  0  0  0
   38.5790   23.8960   42.0950 H   0  0  0  0  0  0  0  0  0  0  0  0
   38.0990   31.7730   40.5800 C   0  0  0  0  0  0  0  0  0  0  0  0
   39.4480   31.8390   40.8560 C   0  0  0  0  0  0  0  0  0  0  0  0
   40.0440   31.0060   41.2270 H   0  0  0  0  0  0  0  0  0  0  0  0
   40.1690   33.0160   40.6720 C   0  0  0  0  0  3  0  0  0  0  0  0
   39.5560   34.1610   40.2060 C   0  0  0  0  0  0  0  0  0  0  0  0
   40.0620   35.1070   40.0430 H   0  0  0  0  0  0  0  0  0  0  0  0
   38.1970   34.1090   39.9250 C   0  0  0  0  0  0  0  0  0  0  0  0
   37.6950   34.9870   39.5610 H   0  0  0  0  0  0  0  0  0  0  0  0
   37.5340   32.9350   40.1200 C   0  0  0  0  0  3  0  0  0  0  0  0
  1  6  1  0  0  0  0
  2  3  1  0  0  0  0
  2  1  2  0  0  0  0
  3  4  2  0  0  0  0
  4  5  1  0  0  0  0
  5  9  1  0  0  0  0
  6  5  2  0  0  0  0
  7  2  1  0  0  0  0
  8  3  1  0  0  0  0
  9 10  1  0  0  0  0
 10 15  1  0  0  0  0
 10 11  2  0  0  0  0
 11 16  1  0  0  0  0
 12 11  1  0  0  0  0
 12 17  1  0  0  0  0
 13 12  2  0  0  0  0
 14  9  2  0  0  0  0
 14 13  1  0  0  0  0
 18 13  1  0  0  0  0
 19  1  1  0  0  0  0
 19 20  1  0  0  0  0
 20 21  1  0  0  0  0
 22 20  2  0  0  0  0
 23 22  1  0  0  0  0
 24 23  1  0  0  0  0
 25 27  1  0  0  0  0
 25 23  2  0  0  0  0
 26 25  1  0  0  0  0
 27 19  2  0  0  0  0
M  END
>  <minimizedAffinity>
-5.30555582

$$$$

 OpenBabel03252507273D

 27 29  0  0  0  0  0  0  0  0999 V2000
   37.2530   27.1970   41.5450 C   0  0  0  0  0  0  0  0  0  0  0  0
   37.4710   26.9980   42.9090 C   0  0  0  0  0  0  0  0  0  0  0  0
   37.8500   28.1220   43.6790 C   0  0  0  0  0  0  0  0  0  0  0  0
   37.9860   29.3480   43.0600 N   0  0  0  0  0  0  0  0  0  0  0  0
   37.7560   29.4560   41.7310 C   0  0  0  0  0  0  0  0  0  0  0  0
   37.3920   28.4090   40.9640 N   0  0  0  0  0  0  0  0  0  0  0  0
   37.3620   26.0490   43.3660 H   0  0  0  0  0  0  0  0  0  0  0  0
   38.0370   28.0450   44.7400 H   0  0  0  0  0  0  0  0  0  0  0  0
   37.9080   30.7670   41.1070 C   0  0  0  0  0  0  0  0  0  0  0  0
   36.9940   31.2130   40.1820 C   0  0  0  0  0  0  0  0  0  0  0  0
   37.0240   32.4200   39.5240 C   0  0  0  0  0  0  0  0  0  0  0  0
   38.1100   33.2110   39.8780 C   0  0  0  0  0  0  0  0  0  0  0  0
   39.0670   32.7930   40.8190 C   0  0  0  0  0  0  0  0  0  0  0  0
   38.9400   31.5680   41.4160 N   0  0  0  0  0  0  0  0  0  0  0  0
   36.1590   30.5330   39.9500 H   0  0  0  0  0  0  0  0  0  0  0  0
   36.2970   32.7380   38.8090 H   0  0  0  0  0  0  0  0  0  0  0  0
   38.2570   34.1940   39.4330 H   0  0  0  0  0  0  0  0  0  0  0  0
   39.9040   33.4560   41.0630 H   0  0  0  0  0  0  0  0  0  0  0  0
   36.8600   26.0960   40.6750 C   0  0  0  0  0  0  0  0  0  0  0  0
   36.8580   24.8130   41.1790 C   0  0  0  0  0  0  0  0  0  0  0  0
   37.1340   24.5510   42.2010 H   0  0  0  0  0  0  0  0  0  0  0  0
   36.4910   23.7260   40.3920 C   0  0  0  0  0  3  0  0  0  0  0  0
   36.1140   23.8940   39.0760 C   0  0  0  0  0  0  0  0  0  0  0  0
   35.8180   23.0880   38.4120 H   0  0  0  0  0  0  0  0  0  0  0  0
   36.1120   25.1810   38.5540 C   0  0  0  0  0  0  0  0  0  0  0  0
   35.8230   25.3410   37.5310 H   0  0  0  0  0  0  0  0  0  0  0  0
   36.4790   26.2150   39.3630 C   0  0  0  0  0  3  0  0  0  0  0  0
  1  2  1  0  0  0  0
  2  7  1  0  0  0  0
  2  3  2  0  0  0  0
  3  8  1  0  0  0  0
  4  3  1  0  0  0  0
  5  4  2  0  0  0  0
  6  1  2  0  0  0  0
  6  5  1  0  0  0  0
  9 14  1  0  0  0  0
  9  5  1  0  0  0  0
 10  9  2  0  0  0  0
 11 12  2  0  0  0  0
 11 10  1  0  0  0  0
 12 13  1  0  0  0  0
 13 18  1  0  0  0  0
 13 14  2  0  0  0  0
 15 10  1  0  0  0  0
 16 11  1  0  0  0  0
 17 12  1  0  0  0  0
 19 20  1  0  0  0  0
 19  1  1  0  0  0  0
 20 21  1  0  0  0  0
 22 20  2  0  0  0  0
 23 22  1  0  0  0  0
 24 23  1  0  0  0  0
 25 23  2  0  0  0  0
 25 27  1  0  0  0  0
 26 25  1  0  0  0  0
 27 19  2  0  0  0  0
M  END
>  <minimizedAffinity>
-5.29813957

$$$$

 OpenBabel03252507273D

 27 29  0  0  0  0  0  0  0  0999 V2000
   36.6000   28.0530   39.4580 C   0  0  0  0  0  0  0  0  0  0  0  0
   35.9210   28.0110   38.2400 C   0  0  0  0  0  0  0  0  0  0  0  0
   35.8410   29.2100   37.4950 C   0  0  0  0  0  0  0  0  0  0  0  0
   36.4300   30.3530   37.9950 N   0  0  0  0  0  0  0  0  0  0  0  0
   37.0720   30.3100   39.1860 C   0  0  0  0  0  0  0  0  0  0  0  0
   37.1690   29.1870   39.9240 N   0  0  0  0  0  0  0  0  0  0  0  0
   35.4750   27.1220   37.8730 H   0  0  0  0  0  0  0  0  0  0  0  0
   35.3310   29.2540   36.5440 H   0  0  0  0  0  0  0  0  0  0  0  0
   37.6840   31.5370   39.6850 C   0  0  0  0  0  0  0  0  0  0  0  0
   37.1740   32.7670   39.3370 C   0  0  0  0  0  0  0  0  0  0  0  0
   37.6560   33.9910   39.7370 C   0  0  0  0  0  0  0  0  0  0  0  0
   38.7650   33.9000   40.5690 C   0  0  0  0  0  0  0  0  0  0  0  0
   39.3170   32.6630   40.9490 C   0  0  0  0  0  0  0  0  0  0  0  0
   38.7560   31.5020   40.4920 N   0  0  0  0  0  0  0  0  0  0  0  0
   36.2940   32.7630   38.6750 H   0  0  0  0  0  0  0  0  0  0  0  0
   37.2360   34.9300   39.4490 H   0  0  0  0  0  0  0  0  0  0  0  0
   39.2490   34.7930   40.9610 H   0  0  0  0  0  0  0  0  0  0  0  0
   40.1910   32.6470   41.6070 H   0  0  0  0  0  0  0  0  0  0  0  0
   36.7310   26.8660   40.2920 C   0  0  0  0  0  0  0  0  0  0  0  0
   36.9920   27.0190   41.6360 C   0  0  0  0  0  0  0  0  0  0  0  0
   37.1100   27.9810   42.1360 H   0  0  0  0  0  0  0  0  0  0  0  0
   37.1250   25.9200   42.4790 C   0  0  0  0  0  3  0  0  0  0  0  0
   37.0010   24.6330   41.9970 C   0  0  0  0  0  0  0  0  0  0  0  0
   37.0950   23.7370   42.6010 H   0  0  0  0  0  0  0  0  0  0  0  0
   36.7390   24.4640   40.6430 C   0  0  0  0  0  0  0  0  0  0  0  0
   36.6380   23.4720   40.2410 H   0  0  0  0  0  0  0  0  0  0  0  0
   36.6160   25.5700   39.8570 C   0  0  0  0  0  3  0  0  0  0  0  0
  1  6  1  0  0  0  0
  1 19  1  0  0  0  0
  2  1  2  0  0  0  0
  3  4  2  0  0  0  0
  3  2  1  0  0  0  0
  4  5  1  0  0  0  0
  5  9  1  0  0  0  0
  5  6  2  0  0  0  0
  7  2  1  0  0  0  0
  8  3  1  0  0  0  0
  9 14  1  0  0  0  0
 10  9  2  0  0  0  0
 10 11  1  0  0  0  0
 11 12  2  0  0  0  0
 12 13  1  0  0  0  0
 12 17  1  0  0  0  0
 13 18  1  0  0  0  0
 14 13  2  0  0  0  0
 15 10  1  0  0  0  0
 16 11  1  0  0  0  0
 19 20  1  0  0  0  0
 20 21  1  0  0  0  0
 20 22  2  0  0  0  0
 23 22  1  0  0  0  0
 23 24  1  0  0  0  0
 25 23  2  0  0  0  0
 26 25  1  0  0  0  0
 27 19  2  0  0  0  0
 27 25  1  0  0  0  0
M  END
>  <minimizedAffinity>
-5.19003677

$$$$

 OpenBabel03252507273D

 27 29  0  0  0  0  0  0  0  0999 V2000
   37.5230   29.7830   39.9200 C   0  0  0  0  0  0  0  0  0  0  0  0
   36.6090   29.5740   38.8870 C   0  0  0  0  0  0  0  0  0  0  0  0
   36.7920   30.3130   37.6950 C   0  0  0  0  0  0  0  0  0  0  0  0
   37.8500   31.1950   37.6050 N   0  0  0  0  0  0  0  0  0  0  0  0
   38.6930   31.3390   38.6540 C   0  0  0  0  0  0  0  0  0  0  0  0
   38.5520   30.6520   39.8060 N   0  0  0  0  0  0  0  0  0  0  0  0
   35.8030   28.8930   38.9750 H   0  0  0  0  0  0  0  0  0  0  0  0
   36.1250   30.2050   36.8530 H   0  0  0  0  0  0  0  0  0  0  0  0
   39.8010   32.2790   38.5260 C   0  0  0  0  0  0  0  0  0  0  0  0
   40.7170   32.1490   37.5080 C   0  0  0  0  0  0  0  0  0  0  0  0
   41.8010   32.9620   37.2790 C   0  0  0  0  0  0  0  0  0  0  0  0
   41.9200   33.9920   38.2040 C   0  0  0  0  0  0  0  0  0  0  0  0
   41.0060   34.1610   39.2590 C   0  0  0  0  0  0  0  0  0  0  0  0
   39.9590   33.2910   39.3950 N   0  0  0  0  0  0  0  0  0  0  0  0
   40.5600   31.3090   36.8120 H   0  0  0  0  0  0  0  0  0  0  0  0
   42.4950   32.8340   36.4770 H   0  0  0  0  0  0  0  0  0  0  0  0
   42.7340   34.7120   38.1410 H   0  0  0  0  0  0  0  0  0  0  0  0
   41.1460   34.9900   39.9600 H   0  0  0  0  0  0  0  0  0  0  0  0
   37.4110   29.0660   41.1830 C   0  0  0  0  0  0  0  0  0  0  0  0
   38.0370   29.5770   42.3000 C   0  0  0  0  0  0  0  0  0  0  0  0
   38.6220   30.4970   42.3120 H   0  0  0  0  0  0  0  0  0  0  0  0
   37.9620   28.9340   43.5320 C   0  0  0  0  0  3  0  0  0  0  0  0
   37.2570   27.7580   43.6790 C   0  0  0  0  0  0  0  0  0  0  0  0
   37.1620   27.2090   44.6110 H   0  0  0  0  0  0  0  0  0  0  0  0
   36.6220   27.2300   42.5620 C   0  0  0  0  0  0  0  0  0  0  0  0
   36.0660   26.3140   42.6490 H   0  0  0  0  0  0  0  0  0  0  0  0
   36.7220   27.8960   41.3780 C   0  0  0  0  0  3  0  0  0  0  0  0
  1 19  1  0  0  0  0
  2  7  1  0  0  0  0
  2  1  2  0  0  0  0
  3  2  1  0  0  0  0
  4  3  2  0  0  0  0
  4  5  1  0  0  0  0
  5  6  2  0  0  0  0
  6  1  1  0  0  0  0
  8  3  1  0  0  0  0
  9  5  1  0  0  0  0
  9 14  1  0  0  0  0
 10  9  2  0  0  0  0
 11 10  1  0  0  0  0
 11 12  2  0  0  0  0
 12 13  1  0  0  0  0
 13 14  2  0  0  0  0
 13 18  1  0  0  0  0
 15 10  1  0  0  0  0
 16 11  1  0  0  0  0
 17 12  1  0  0  0  0
 19 27  2  0  0  0  0
 19 20  1  0  0  0  0
 20 21  1  0  0  0  0
 20 22  2  0  0  0  0
 22 23  1  0  0  0  0
 23 24  1  0  0  0  0
 25 26  1  0  0  0  0
 25 23  2  0  0  0  0
 27 25  1  0  0  0  0
M  END
>  <minimizedAffinity>
-5.11613703

$$$$

 OpenBabel03252507273D

 27 29  0  0  0  0  0  0  0  0999 V2000
   36.9860   28.4210   41.0300 C   0  0  0  0  0  0  0  0  0  0  0  0
   35.8540   29.1970   40.7770 C   0  0  0  0  0  0  0  0  0  0  0  0
   36.0160   30.6010   40.7580 C   0  0  0  0  0  0  0  0  0  0  0  0
   37.2670   31.1380   40.9880 N   0  0  0  0  0  0  0  0  0  0  0  0
   38.3150   30.3150   41.2250 C   0  0  0  0  0  0  0  0  0  0  0  0
   38.2000   28.9730   41.2500 N   0  0  0  0  0  0  0  0  0  0  0  0
   34.9010   28.7660   40.6030 H   0  0  0  0  0  0  0  0  0  0  0  0
   35.1850   31.2650   40.5700 H   0  0  0  0  0  0  0  0  0  0  0  0
   39.6240   30.9150   41.4640 C   0  0  0  0  0  0  0  0  0  0  0  0
   40.3870   30.5270   42.5390 C   0  0  0  0  0  0  0  0  0  0  0  0
   41.6300   31.0120   42.8740 C   0  0  0  0  0  0  0  0  0  0  0  0
   42.0930   31.9860   41.9980 C   0  0  0  0  0  0  0  0  0  0  0  0
   41.3430   32.4120   40.8870 C   0  0  0  0  0  0  0  0  0  0  0  0
   40.1150   31.8600   40.6460 N   0  0  0  0  0  0  0  0  0  0  0  0
   39.9570   29.7500   43.1910 H   0  0  0  0  0  0  0  0  0  0  0  0
   42.1980   30.6880   43.7180 H   0  0  0  0  0  0  0  0  0  0  0  0
   43.0630   32.4570   42.1440 H   0  0  0  0  0  0  0  0  0  0  0  0
   41.7550   33.1830   40.2280 H   0  0  0  0  0  0  0  0  0  0  0  0
   36.9120   26.9670   41.0680 C   0  0  0  0  0  0  0  0  0  0  0  0
   36.6380   26.2810   39.9050 C   0  0  0  0  0  0  0  0  0  0  0  0
   36.4670   26.7510   38.9360 H   0  0  0  0  0  0  0  0  0  0  0  0
   36.5570   24.8920   39.8840 C   0  0  0  0  0  3  0  0  0  0  0  0
   36.7500   24.1500   41.0310 C   0  0  0  0  0  0  0  0  0  0  0  0
   36.7000   23.0660   41.0800 H   0  0  0  0  0  0  0  0  0  0  0  0
   37.0270   24.8280   42.2110 C   0  0  0  0  0  0  0  0  0  0  0  0
   37.1810   24.2750   43.1200 H   0  0  0  0  0  0  0  0  0  0  0  0
   37.0960   26.1880   42.1820 C   0  0  0  0  0  3  0  0  0  0  0  0
  1 19  1  0  0  0  0
  1  6  1  0  0  0  0
  2  1  2  0  0  0  0
  3  2  1  0  0  0  0
  3  4  2  0  0  0  0
  4  5  1  0  0  0  0
  5  6  2  0  0  0  0
  5  9  1  0  0  0  0
  7  2  1  0  0  0  0
  8  3  1  0  0  0  0
  9 10  1  0  0  0  0
 10 11  2  0  0  0  0
 10 15  1  0  0  0  0
 11 16  1  0  0  0  0
 12 17  1  0  0  0  0
 12 11  1  0  0  0  0
 13 12  2  0  0  0  0
 14 13  1  0  0  0  0
 14  9  2  0  0  0  0
 18 13  1  0  0  0  0
 19 27  1  0  0  0  0
 20 19  2  0  0  0  0
 21 20  1  0  0  0  0
 22 20  1  0  0  0  0
 22 23  2  0  0  0  0
 23 24  1  0  0  0  0
 23 25  1  0  0  0  0
 25 26  1  0  0  0  0
 27 25  2  0  0  0  0
M  END
>  <minimizedAffinity>
-5.09307432

$$$$

 OpenBabel03252507273D

 27 29  0  0  0  0  0  0  0  0999 V2000
   37.8720   29.4600   41.7710 C   0  0  0  0  0  0  0  0  0  0  0  0
   38.2040   29.2450   43.1090 C   0  0  0  0  0  0  0  0  0  0  0  0
   38.0760   27.9280   43.6090 C   0  0  0  0  0  0  0  0  0  0  0  0
   37.6360   26.9280   42.7670 N   0  0  0  0  0  0  0  0  0  0  0  0
   37.3350   27.2200   41.4800 C   0  0  0  0  0  0  0  0  0  0  0  0
   37.4440   28.4610   40.9660 N   0  0  0  0  0  0  0  0  0  0  0  0
   38.5400   30.0270   43.7400 H   0  0  0  0  0  0  0  0  0  0  0  0
   38.3140   27.6860   44.6340 H   0  0  0  0  0  0  0  0  0  0  0  0
   36.8730   26.1380   40.6160 C   0  0  0  0  0  0  0  0  0  0  0  0
   36.8430   24.8410   41.0720 C   0  0  0  0  0  0  0  0  0  0  0  0
   36.4340   23.7370   40.3620 C   0  0  0  0  0  0  0  0  0  0  0  0
   36.0260   24.0370   39.0680 C   0  0  0  0  0  0  0  0  0  0  0  0
   36.0410   25.3490   38.5630 C   0  0  0  0  0  0  0  0  0  0  0  0
   36.4680   26.3770   39.3580 N   0  0  0  0  0  0  0  0  0  0  0  0
   37.1810   24.6770   42.1080 H   0  0  0  0  0  0  0  0  0  0  0  0
   36.4220   22.7410   40.7470 H   0  0  0  0  0  0  0  0  0  0  0  0
   35.6760   23.2570   38.3950 H   0  0  0  0  0  0  0  0  0  0  0  0
   35.7080   25.5310   37.5360 H   0  0  0  0  0  0  0  0  0  0  0  0
   37.9730   30.7840   41.1710 C   0  0  0  0  0  0  0  0  0  0  0  0
   36.9740   31.2110   40.3230 C   0  0  0  0  0  0  0  0  0  0  0  0
   36.0940   30.6230   40.0600 H   0  0  0  0  0  0  0  0  0  0  0  0
   37.0190   32.4660   39.7240 C   0  0  0  0  0  3  0  0  0  0  0  0
   38.0690   33.3300   39.9570 C   0  0  0  0  0  0  0  0  0  0  0  0
   38.1620   34.3190   39.5210 H   0  0  0  0  0  0  0  0  0  0  0  0
   39.0840   32.9120   40.8090 C   0  0  0  0  0  0  0  0  0  0  0  0
   39.9140   33.5650   41.0080 H   0  0  0  0  0  0  0  0  0  0  0  0
   38.9960   31.6750   41.3730 C   0  0  0  0  0  3  0  0  0  0  0  0
  1  2  1  0  0  0  0
  2  3  2  0  0  0  0
  2  7  1  0  0  0  0
  3  8  1  0  0  0  0
  4  3  1  0  0  0  0
  5  4  2  0  0  0  0
  6  5  1  0  0  0  0
  6  1  2  0  0  0  0
  9 10  1  0  0  0  0
  9  5  1  0  0  0  0
 10 15  1  0  0  0  0
 11 16  1  0  0  0  0
 11 10  2  0  0  0  0
 12 11  1  0  0  0  0
 13 12  2  0  0  0  0
 13 14  1  0  0  0  0
 14  9  2  0  0  0  0
 17 12  1  0  0  0  0
 18 13  1  0  0  0  0
 19 27  1  0  0  0  0
 19  1  1  0  0  0  0
 20 19  2  0  0  0  0
 21 20  1  0  0  0  0
 22 23  2  0  0  0  0
 22 20  1  0  0  0  0
 23 25  1  0  0  0  0
 24 23  1  0  0  0  0
 25 26  1  0  0  0  0
 25 27  2  0  0  0  0
M  END
>  <minimizedAffinity>
-5.07451725

$$$$

 OpenBabel03252507273D

 27 29  0  0  0  0  0  0  0  0999 V2000
   35.7830   29.0940   39.5620 C   0  0  0  0  0  0  0  0  0  0  0  0
   35.9100   30.2850   40.2770 C   0  0  0  0  0  0  0  0  0  0  0  0
   36.6390   30.2450   41.4880 C   0  0  0  0  0  0  0  0  0  0  0  0
   37.1860   29.0480   41.9050 N   0  0  0  0  0  0  0  0  0  0  0  0
   37.0180   27.9360   41.1520 C   0  0  0  0  0  0  0  0  0  0  0  0
   36.3310   27.9350   39.9920 N   0  0  0  0  0  0  0  0  0  0  0  0
   35.4820   31.1940   39.9400 H   0  0  0  0  0  0  0  0  0  0  0  0
   36.7780   31.1270   42.0950 H   0  0  0  0  0  0  0  0  0  0  0  0
   37.6100   26.6880   41.6210 C   0  0  0  0  0  0  0  0  0  0  0  0
   37.0270   25.4790   41.3210 C   0  0  0  0  0  0  0  0  0  0  0  0
   37.4810   24.2380   41.7020 C   0  0  0  0  0  0  0  0  0  0  0  0
   38.6430   24.2890   42.4610 C   0  0  0  0  0  0  0  0  0  0  0  0
   39.2710   25.5030   42.7890 C   0  0  0  0  0  0  0  0  0  0  0  0
   38.7330   26.6840   42.3570 N   0  0  0  0  0  0  0  0  0  0  0  0
   36.1060   25.5150   40.7160 H   0  0  0  0  0  0  0  0  0  0  0  0
   37.0040   23.3170   41.4510 H   0  0  0  0  0  0  0  0  0  0  0  0
   39.1140   23.3780   42.8290 H   0  0  0  0  0  0  0  0  0  0  0  0
   40.1870   25.4860   43.3900 H   0  0  0  0  0  0  0  0  0  0  0  0
   35.0490   29.0410   38.3040 C   0  0  0  0  0  0  0  0  0  0  0  0
   35.7420   29.1700   37.1200 C   0  0  0  0  0  0  0  0  0  0  0  0
   36.8210   29.3100   37.0480 H   0  0  0  0  0  0  0  0  0  0  0  0
   35.0910   29.1260   35.8910 C   0  0  0  0  0  3  0  0  0  0  0  0
   33.7250   28.9520   35.8140 C   0  0  0  0  0  0  0  0  0  0  0  0
   33.1600   28.9100   34.8880 H   0  0  0  0  0  0  0  0  0  0  0  0
   33.0130   28.8220   36.9990 C   0  0  0  0  0  0  0  0  0  0  0  0
   31.9480   28.6870   36.9690 H   0  0  0  0  0  0  0  0  0  0  0  0
   33.6940   28.8710   38.1790 C   0  0  0  0  0  3  0  0  0  0  0  0
  1  6  2  0  0  0  0
  1  2  1  0  0  0  0
  2  3  2  0  0  0  0
  3  4  1  0  0  0  0
  3  8  1  0  0  0  0
  5  9  1  0  0  0  0
  5  4  2  0  0  0  0
  6  5  1  0  0  0  0
  7  2  1  0  0  0  0
  9 14  1  0  0  0  0
 10  9  2  0  0  0  0
 10 11  1  0  0  0  0
 11 12  2  0  0  0  0
 12 13  1  0  0  0  0
 12 17  1  0  0  0  0
 13 18  1  0  0  0  0
 14 13  2  0  0  0  0
 15 10  1  0  0  0  0
 16 11  1  0  0  0  0
 19  1  1  0  0  0  0
 20 19  2  0  0  0  0
 21 20  1  0  0  0  0
 22 20  1  0  0  0  0
 23 22  2  0  0  0  0
 23 25  1  0  0  0  0
 24 23  1  0  0  0  0
 25 27  2  0  0  0  0
 26 25  1  0  0  0  0
 27 19  1  0  0  0  0
M  END
>  <minimizedAffinity>
-4.99240589

$$$$

 OpenBabel03252507273D

 27 29  0  0  0  0  0  0  0  0999 V2000
   37.7540   30.3450   40.6180 C   0  0  0  0  0  0  0  0  0  0  0  0
   36.8890   31.4390   40.5920 C   0  0  0  0  0  0  0  0  0  0  0  0
   37.2210   32.5130   39.7340 C   0  0  0  0  0  0  0  0  0  0  0  0
   38.3680   32.4350   38.9710 N   0  0  0  0  0  0  0  0  0  0  0  0
   39.1550   31.3370   39.0540 C   0  0  0  0  0  0  0  0  0  0  0  0
   38.8710   30.2930   39.8590 N   0  0  0  0  0  0  0  0  0  0  0  0
   36.0120   31.4800   41.1860 H   0  0  0  0  0  0  0  0  0  0  0  0
   36.6000   33.3940   39.6620 H   0  0  0  0  0  0  0  0  0  0  0  0
   40.3600   31.2870   38.2330 C   0  0  0  0  0  0  0  0  0  0  0  0
   41.0180   32.4420   37.8840 C   0  0  0  0  0  0  0  0  0  0  0  0
   42.1570   32.5310   37.1180 C   0  0  0  0  0  0  0  0  0  0  0  0
   42.6300   31.2970   36.6920 C   0  0  0  0  0  0  0  0  0  0  0  0
   41.9870   30.0920   37.0270 C   0  0  0  0  0  0  0  0  0  0  0  0
   40.8570   30.1180   37.7970 N   0  0  0  0  0  0  0  0  0  0  0  0
   40.5870   33.3850   38.2570 H   0  0  0  0  0  0  0  0  0  0  0  0
   42.6450   33.4470   36.8640 H   0  0  0  0  0  0  0  0  0  0  0  0
   43.5260   31.2190   36.0770 H   0  0  0  0  0  0  0  0  0  0  0  0
   42.4020   29.1450   36.6650 H   0  0  0  0  0  0  0  0  0  0  0  0
   37.4910   29.1940   41.4710 C   0  0  0  0  0  0  0  0  0  0  0  0
   37.2040   27.9790   40.8860 C   0  0  0  0  0  0  0  0  0  0  0  0
   37.1570   27.8080   39.8110 H   0  0  0  0  0  0  0  0  0  0  0  0
   36.9460   26.8480   41.6540 C   0  0  0  0  0  3  0  0  0  0  0  0
   36.9680   26.9010   43.0320 C   0  0  0  0  0  0  0  0  0  0  0  0
   36.7760   26.0560   43.6850 H   0  0  0  0  0  0  0  0  0  0  0  0
   37.2560   28.1190   43.6360 C   0  0  0  0  0  0  0  0  0  0  0  0
   37.2790   28.1890   44.7080 H   0  0  0  0  0  0  0  0  0  0  0  0
   37.5020   29.1990   42.8430 C   0  0  0  0  0  3  0  0  0  0  0  0
  1 19  1  0  0  0  0
  2  1  1  0  0  0  0
  2  7  1  0  0  0  0
  3  2  2  0  0  0  0
  4  5  2  0  0  0  0
  4  3  1  0  0  0  0
  5  6  1  0  0  0  0
  6  1  2  0  0  0  0
  8  3  1  0  0  0  0
  9  5  1  0  0  0  0
 10  9  1  0  0  0  0
 10 15  1  0  0  0  0
 11 10  2  0  0  0  0
 12 13  2  0  0  0  0
 12 11  1  0  0  0  0
 13 14  1  0  0  0  0
 14  9  2  0  0  0  0
 16 11  1  0  0  0  0
 17 12  1  0  0  0  0
 18 13  1  0  0  0  0
 19 27  1  0  0  0  0
 20 19  2  0  0  0  0
 20 22  1  0  0  0  0
 21 20  1  0  0  0  0
 22 23  2  0  0  0  0
 23 25  1  0  0  0  0
 23 24  1  0  0  0  0
 25 26  1  0  0  0  0
 27 25  2  0  0  0  0
M  END
>  <minimizedAffinity>
-4.97102594

$$$$
