
 OpenBabel03252502113D

 28 30  0  0  0  0  0  0  0  0999 V2000
   46.3060   33.1580   38.2900 Cl  0  0  0  0  0  0  0  0  0  0  0  0
   46.9100   33.9710   39.7160 C   0  0  0  0  0  0  0  0  0  0  0  0
   46.1690   34.0620   40.8650 C   0  0  0  0  0  0  0  0  0  0  0  0
   46.7400   34.7200   41.9170 C   0  0  0  0  0  0  0  0  0  0  0  0
   47.9900   35.2720   41.8580 C   0  0  0  0  0  0  0  0  0  0  0  0
   48.7310   35.1770   40.6970 C   0  0  0  0  0  0  0  0  0  0  0  0
   48.1740   34.5200   39.6320 C   0  0  0  0  0  0  0  0  0  0  0  0
   48.4480   35.7960   42.6910 H   0  0  0  0  0  0  0  0  0  0  0  0
   49.7050   35.5970   40.6270 H   0  0  0  0  0  0  0  0  0  0  0  0
   48.7570   34.4450   38.7200 H   0  0  0  0  0  0  0  0  0  0  0  0
   42.4340   33.5450   40.5380 C   0  0  0  0  0  0  0  0  0  0  0  0
   43.6960   34.1490   40.5120 C   0  0  0  0  0  0  0  0  0  0  0  0
   44.8530   33.4660   40.8850 C   0  0  0  0  0  0  0  0  0  0  0  0
   44.6520   32.1840   41.2690 N   0  0  0  0  0  0  0  0  0  0  0  0
   43.4440   31.6050   41.2940 C   0  0  0  0  0  0  0  0  0  0  0  0
   42.3260   32.2800   40.9290 N   0  0  0  0  0  0  0  0  0  0  0  0
   41.5390   34.0810   40.2460 H   0  0  0  0  0  0  0  0  0  0  0  0
   43.7780   35.1830   40.1920 H   0  0  0  0  0  0  0  0  0  0  0  0
   43.4720   30.5580   41.6330 H   0  0  0  0  0  0  0  0  0  0  0  0
   46.0390   34.8630   43.1700 C   0  0  0  0  0  0  0  0  0  0  0  0
   45.2560   36.0130   43.3330 C   0  0  0  0  0  0  0  0  0  0  0  0
   45.1300   36.8110   42.5850 H   0  0  0  0  0  0  0  0  0  0  0  0
   44.5540   36.2370   44.5000 C   0  0  0  0  0  0  0  0  0  0  0  0
   44.6010   35.3330   45.5490 C   0  0  0  0  0  0  0  0  0  0  0  0
   44.0910   35.4150   46.5000 H   0  0  0  0  0  0  0  0  0  0  0  0
   45.3650   34.1940   45.4090 C   0  0  0  0  0  0  0  0  0  0  0  0
   45.4340   33.4490   46.2120 H   0  0  0  0  0  0  0  0  0  0  0  0
   46.0600   33.9870   44.2360 C   0  0  0  0  0  0  0  0  0  0  0  0
  1  2  1  0  0  0  0
  2  3  1  0  0  0  0
  3 13  1  0  0  0  0
  3  4  2  0  0  0  0
  4 20  1  0  0  0  0
  5  4  1  0  0  0  0
  5  8  1  0  0  0  0
  6  5  2  0  0  0  0
  7  2  2  0  0  0  0
  7  6  1  0  0  0  0
  9  6  1  0  0  0  0
 10  7  1  0  0  0  0
 11 16  1  0  0  0  0
 12 11  2  0  0  0  0
 12 13  1  0  0  0  0
 13 14  2  0  0  0  0
 14 15  1  0  0  0  0
 15 19  1  0  0  0  0
 16 15  2  0  0  0  0
 17 11  1  0  0  0  0
 18 12  1  0  0  0  0
 20 21  2  0  0  0  0
 20 28  1  0  0  0  0
 21 23  1  0  0  0  0
 22 21  1  0  0  0  0
 23 24  2  0  0  0  0
 24 25  1  0  0  0  0
 26 24  1  0  0  0  0
 26 27  1  0  0  0  0
 28 26  2  0  0  0  0
M  END
>  <minimizedAffinity>
-5.83382034

>  <minimizedRMSD>
3.9558661

$$$$
