
 OpenBabel03252500583D

 38 40  0  0  0  0  0  0  0  0999 V2000
   43.8970   34.8340   40.2550 O   0  0  0  0  0  0  0  0  0  0  0  0
   43.4040   34.7250   41.6920 P   0  0  1  0  0  0  0  0  0  0  0  0
   43.2620   33.0740   42.0640 O   0  0  0  0  0  0  0  0  0  0  0  0
   42.6990   32.6260   41.3980 H   0  0  0  0  0  0  0  0  0  0  0  0
   44.5570   35.3900   42.7460 O   0  0  0  0  0  0  0  0  0  0  0  0
   46.4930   34.1570   43.2790 C   0  0  0  0  0  0  0  0  0  0  0  0
   45.2970   34.7040   43.7000 C   0  0  0  0  0  0  0  0  0  0  0  0
   44.9290   34.5220   45.0520 C   0  0  0  0  0  0  0  0  0  0  0  0
   45.7750   33.8250   45.8380 N   0  0  0  0  0  0  0  0  0  0  0  0
   46.9210   33.3070   45.4130 C   0  0  0  0  0  0  0  0  0  0  0  0
   47.2770   33.4770   44.1300 N   0  0  0  0  0  0  0  0  0  0  0  0
   43.9930   34.9670   45.3170 H   0  0  0  0  0  0  0  0  0  0  0  0
   47.5390   32.7630   46.1140 H   0  0  0  0  0  0  0  0  0  0  0  0
   46.9390   34.3050   41.8960 C   0  0  0  0  0  0  0  0  0  0  0  0
   47.3340   33.3020   41.5740 H   0  0  0  0  0  0  0  0  0  0  0  0
   46.1730   34.6410   41.1950 H   0  0  0  0  0  0  0  0  0  0  0  0
   48.1060   35.2520   41.8630 C   0  0  0  0  0  0  0  0  0  0  0  0
   48.4490   35.5150   42.8940 H   0  0  0  0  0  0  0  0  0  0  0  0
   48.9680   34.8340   41.3050 H   0  0  0  0  0  0  0  0  0  0  0  0
   47.7850   36.2050   41.4020 H   0  0  0  0  0  0  0  0  0  0  0  0
   41.8760   35.4250   41.8560 O   0  0  0  0  0  0  0  0  0  0  0  0
   40.7890   34.7650   41.3130 C   0  0  0  0  0  0  0  0  0  0  0  0
   40.0310   35.4420   40.3730 C   0  0  0  0  0  0  0  0  0  0  0  0
   38.9150   34.8620   39.7670 C   0  0  0  0  0  0  0  0  0  0  0  0
   38.5800   33.6010   40.1200 N   0  0  0  0  0  0  0  0  0  0  0  0
   39.3210   32.9470   41.0340 C   0  0  0  0  0  0  0  0  0  0  0  0
   40.3770   33.5250   41.5940 N   0  0  0  0  0  0  0  0  0  0  0  0
   40.2560   36.4580   40.0520 H   0  0  0  0  0  0  0  0  0  0  0  0
   38.3470   35.4080   39.0440 H   0  0  0  0  0  0  0  0  0  0  0  0
   38.9600   31.5660   41.4250 C   0  0  0  0  0  0  0  0  0  0  0  0
   39.8850   30.8030   42.1230 C   0  0  0  0  0  0  0  0  0  0  0  0
   40.8340   31.2570   42.3510 H   0  0  0  0  0  0  0  0  0  0  0  0
   39.5440   29.5080   42.4890 C   0  0  0  0  0  0  0  0  0  0  0  0
   38.2910   29.0470   42.1340 C   0  0  0  0  0  0  0  0  0  0  0  0
   38.0010   28.0280   42.4120 H   0  0  0  0  0  0  0  0  0  0  0  0
   37.3370   29.7650   41.4410 C   0  0  0  0  0  0  0  0  0  0  0  0
   36.3810   29.3390   41.2000 H   0  0  0  0  0  0  0  0  0  0  0  0
   37.7010   31.0590   41.0860 C   0  0  0  0  0  0  0  0  0  0  0  0
  2  1  2  6  0  0  0
  2 21  1  0  0  0  0
  2  3  1  0  0  0  0
  2  5  1  0  0  0  0
  4  3  1  0  0  0  0
  5  7  1  0  0  0  0
  6  7  2  0  0  0  0
  6 11  1  0  0  0  0
  7  8  1  0  0  0  0
  8 12  1  0  0  0  0
  8  9  2  0  0  0  0
 10  9  1  0  0  0  0
 10 13  1  0  0  0  0
 11 10  2  0  0  0  0
 14  6  1  0  0  0  0
 15 14  1  0  0  0  0
 16 14  1  0  0  0  0
 17 14  1  0  0  0  0
 17 18  1  0  0  0  0
 19 17  1  0  0  0  0
 20 17  1  0  0  0  0
 22 27  1  0  0  0  0
 22 21  1  0  0  0  0
 23 22  2  0  0  0  0
 24 25  2  0  0  0  0
 24 23  1  0  0  0  0
 25 26  1  0  0  0  0
 26 30  1  0  0  0  0
 26 27  2  0  0  0  0
 28 23  1  0  0  0  0
 29 24  1  0  0  0  0
 30 31  1  0  0  0  0
 31 32  1  0  0  0  0
 31 33  2  0  0  0  0
 34 35  1  0  0  0  0
 34 33  1  0  0  0  0
 36 34  2  0  0  0  0
 37 36  1  0  0  0  0
 38 30  2  0  0  0  0
 38 36  1  0  0  0  0
M  END
>  <minimizedAffinity>
-6.05564928

>  <minimizedRMSD>
0.620354116

$$$$
