
 OpenBabel03252507203D

 44 47  0  0  1  0  0  0  0  0999 V2000
   46.9430   33.3260   43.0300 C   0  0  0  0  0  0  0  0  0  0  0  0
   47.9940   32.9490   43.6160 O   0  0  0  0  0  0  0  0  0  0  0  0
   46.5390   32.8890   41.7230 N   0  0  0  0  0  0  0  0  0  0  0  0
   45.2490   32.4580   41.2220 C   0  0  0  0  0  0  0  0  0  0  0  0
   44.9190   33.2500   39.9430 C   0  0  0  0  0  0  0  0  0  0  0  0
   45.9300   32.9210   38.8720 C   0  0  0  0  0  0  0  0  0  0  0  0
   47.0990   32.1940   39.4740 C   0  0  0  0  0  0  0  0  0  0  0  0
   47.5890   32.8770   40.7270 C   0  0  2  0  0  0  0  0  0  0  0  0
   45.2380   31.3990   40.9820 H   0  0  0  0  0  0  0  0  0  0  0  0
   44.4690   32.7840   41.9440 H   0  0  0  0  0  0  0  0  0  0  0  0
   43.8850   33.0050   39.6420 H   0  0  0  0  0  0  0  0  0  0  0  0
   45.0520   34.3280   40.1840 H   0  0  0  0  0  0  0  0  0  0  0  0
   46.3370   33.8320   38.3630 H   0  0  0  0  0  0  0  0  0  0  0  0
   45.4420   32.2610   38.1250 H   0  0  0  0  0  0  0  0  0  0  0  0
   46.8250   31.1360   39.6250 H   0  0  0  0  0  0  0  0  0  0  0  0
   47.9510   32.2570   38.7490 H   0  0  0  0  0  0  0  0  0  0  0  0
   47.7770   33.9340   40.4520 H   0  0  0  0  0  0  0  0  0  0  0  0
   48.8630   32.2900   41.1980 C   0  0  0  0  0  0  0  0  0  0  0  0
   49.9530   33.1210   41.4890 C   0  0  0  0  0  0  0  0  0  0  0  0
   49.7840   34.2000   41.3490 H   0  0  0  0  0  0  0  0  0  0  0  0
   51.1850   32.7340   41.9240 C   0  0  0  0  0  3  0  0  0  0  0  0
   51.3940   31.3940   42.0990 C   0  0  0  0  0  0  0  0  0  0  0  0
   52.3580   31.0530   42.4420 H   0  0  0  0  0  0  0  0  0  0  0  0
   50.3720   30.5180   41.8330 C   0  0  0  0  0  0  0  0  0  0  0  0
   50.5270   29.4370   41.9700 H   0  0  0  0  0  0  0  0  0  0  0  0
   49.1390   30.9530   41.3950 C   0  0  0  0  0  3  0  0  0  0  0  0
   45.7210   35.4500   43.0540 C   0  0  0  0  0  0  0  0  0  0  0  0
   46.0900   34.2630   43.7250 C   0  0  0  0  0  0  0  0  0  0  0  0
   45.6300   34.0380   45.0070 C   0  0  0  0  0  0  0  0  0  0  0  0
   44.8370   34.9720   45.5760 N   0  0  0  0  0  0  0  0  0  0  0  0
   44.4770   36.1160   44.9410 C   0  0  0  0  0  0  0  0  0  0  0  0
   44.9270   36.3330   43.6900 N   0  0  0  0  0  0  0  0  0  0  0  0
   46.0670   35.6550   42.0490 H   0  0  0  0  0  0  0  0  0  0  0  0
   43.8380   36.8010   45.4820 H   0  0  0  0  0  0  0  0  0  0  0  0
   46.0220   32.8170   45.6800 C   0  0  0  0  0  0  0  0  0  0  0  0
   45.5310   31.6180   45.2580 C   0  0  0  0  0  0  0  0  0  0  0  0
   45.9130   30.4650   45.9100 C   0  0  0  0  0  0  0  0  0  0  0  0
   46.7880   30.4710   46.9960 C   0  0  0  0  0  0  0  0  0  0  0  0
   47.2500   31.7180   47.3770 C   0  0  0  0  0  0  0  0  0  0  0  0
   46.8560   32.8160   46.7170 N   0  0  0  0  0  0  0  0  0  0  0  0
   44.8530   31.4460   44.4490 H   0  0  0  0  0  0  0  0  0  0  0  0
   45.5630   29.4720   45.6280 H   0  0  0  0  0  0  0  0  0  0  0  0
   47.1020   29.5820   47.5240 H   0  0  0  0  0  0  0  0  0  0  0  0
   47.9340   31.8620   48.2040 H   0  0  0  0  0  0  0  0  0  0  0  0
  1  2  2  0  0  0  0
  1 28  1  0  0  0  0
  3  1  1  0  0  0  0
  4  3  1  0  0  0  0
  4 10  1  0  0  0  0
  5 12  1  0  0  0  0
  5  4  1  0  0  0  0
  6  7  1  0  0  0  0
  6  5  1  0  0  0  0
  7 15  1  0  0  0  0
  7  8  1  0  0  0  0
  8 17  1  6  0  0  0
  8 18  1  0  0  0  0
  8  3  1  0  0  0  0
  9  4  1  0  0  0  0
 11  5  1  0  0  0  0
 13  6  1  0  0  0  0
 14  6  1  0  0  0  0
 16  7  1  0  0  0  0
 18 26  2  0  0  0  0
 18 19  1  0  0  0  0
 19 21  2  0  0  0  0
 20 19  1  0  0  0  0
 21 22  1  0  0  0  0
 22 23  1  0  0  0  0
 24 25  1  0  0  0  0
 24 22  2  0  0  0  0
 26 24  1  0  0  0  0
 27 32  2  0  0  0  0
 27 28  1  0  0  0  0
 28 29  2  0  0  0  0
 29 30  1  0  0  0  0
 29 35  1  0  0  0  0
 31 34  1  0  0  0  0
 31 30  2  0  0  0  0
 32 31  1  0  0  0  0
 33 27  1  0  0  0  0
 35 40  1  0  0  0  0
 36 35  2  0  0  0  0
 36 37  1  0  0  0  0
 37 38  2  0  0  0  0
 38 39  1  0  0  0  0
 38 43  1  0  0  0  0
 39 44  1  0  0  0  0
 40 39  2  0  0  0  0
 41 36  1  0  0  0  0
 42 37  1  0  0  0  0
M  END
>  <minimizedAffinity>
-5.42039347

>  <minimizedRMSD>
0.874353409

$$$$
