
 OpenBabel03252503573D

 20 21  0  0  0  0  0  0  0  0999 V2000
   46.2100   34.4600   43.6690 C   0  0  0  0  0  0  0  0  0  0  0  0
   45.2370   35.4490   43.7910 C   0  0  0  0  0  0  0  0  0  0  0  0
   44.5280   35.5350   44.9970 C   0  0  0  0  0  0  0  0  0  0  0  0
   44.8580   34.6300   45.9630 N   0  0  0  0  0  0  0  0  0  0  0  0
   45.8010   33.6950   45.8040 C   0  0  0  0  0  0  0  0  0  0  0  0
   46.4810   33.6070   44.6540 N   0  0  0  0  0  0  0  0  0  0  0  0
   44.9620   36.1770   43.0330 H   0  0  0  0  0  0  0  0  0  0  0  0
   43.7660   36.2910   45.1230 H   0  0  0  0  0  0  0  0  0  0  0  0
   46.0710   32.7780   46.9060 C   0  0  0  0  0  0  0  0  0  0  0  0
   45.1460   32.6360   47.9240 C   0  0  0  0  0  0  0  0  0  0  0  0
   44.2420   33.2280   47.8490 H   0  0  0  0  0  0  0  0  0  0  0  0
   45.3690   31.7850   48.9720 C   0  0  0  0  0  0  0  0  0  0  0  0
   46.5540   31.0720   48.9760 C   0  0  0  0  0  0  0  0  0  0  0  0
   46.6930   30.4070   49.8260 H   0  0  0  0  0  0  0  0  0  0  0  0
   47.4810   31.2100   47.9640 C   0  0  0  0  0  0  0  0  0  0  0  0
   48.3830   30.6040   48.0610 H   0  0  0  0  0  0  0  0  0  0  0  0
   47.2680   32.0680   46.8970 C   0  0  0  0  0  0  0  0  0  0  0  0
   46.8820   34.4550   42.3910 C   0  0  0  0  0  0  0  0  0  0  0  0
   47.6960   35.3410   41.9790 O   0  0  0  0  0  0  0  0  0  0  0  0
   46.5000   33.5390   41.9460 H   0  0  0  0  0  0  0  0  0  0  0  0
  1  2  2  0  0  0  0
  1  6  1  0  0  0  0
  2  3  1  0  0  0  0
  3  8  1  0  0  0  0
  3  4  2  0  0  0  0
  5  4  1  0  0  0  0
  5  9  1  0  0  0  0
  6  5  2  0  0  0  0
  7  2  1  0  0  0  0
  9 10  1  0  0  0  0
 10 12  2  0  0  0  0
 11 10  1  0  0  0  0
 12 13  1  0  0  0  0
 13 14  1  0  0  0  0
 15 16  1  0  0  0  0
 15 13  2  0  0  0  0
 17  9  2  0  0  0  0
 17 15  1  0  0  0  0
 18  1  1  0  0  0  0
 19 18  2  0  0  0  0
 20 18  1  0  0  0  0
M  END
>  <minimizedAffinity>
-4.91149426

>  <minimizedRMSD>
0.834225297

$$$$
