
 OpenBabel03242514143D

 34 36  0  0  0  0  0  0  0  0999 V2000
   46.3670   32.0840   43.8730 C   0  0  0  0  0  0  0  0  0  0  0  0
   47.4280   32.5100   43.0930 C   0  0  0  0  0  0  0  0  0  0  0  0
   48.4880   31.6260   43.0150 C   0  0  0  0  0  0  0  0  0  0  0  0
   48.4180   30.4450   43.6780 N   0  0  0  0  0  0  0  0  0  0  0  0
   47.4000   30.0440   44.4140 C   0  0  0  0  0  0  0  0  0  0  0  0
   46.3860   30.8850   44.4950 N   0  0  0  0  0  0  0  0  0  0  0  0
   49.4320   31.6340   42.5200 H   0  0  0  0  0  0  0  0  0  0  0  0
   47.2670   29.1300   44.9640 H   0  0  0  0  0  0  0  0  0  0  0  0
   45.2910   33.0690   44.0530 C   0  0  0  0  0  0  0  0  0  0  0  0
   44.8200   33.7600   42.9030 C   0  0  0  0  0  0  0  0  0  0  0  0
   45.2540   35.2000   42.8370 C   0  0  0  0  0  0  0  0  0  0  0  0
   44.6220   35.9440   44.0210 C   0  0  0  0  0  0  0  0  0  0  0  0
   44.7810   35.2050   45.3120 C   0  0  0  0  0  0  0  0  0  0  0  0
   45.7380   34.0520   45.1640 C   0  0  0  0  0  0  0  0  0  0  0  0
   44.5230   32.5090   44.6220 H   0  0  0  0  0  0  0  0  0  0  0  0
   43.7050   33.9460   43.1240 H   0  0  0  0  0  0  0  0  0  0  0  0
   44.6500   33.2510   41.9550 H   0  0  0  0  0  0  0  0  0  0  0  0
   46.3060   35.4220   43.0600 H   0  0  0  0  0  0  0  0  0  0  0  0
   44.8860   35.7110   41.9240 H   0  0  0  0  0  0  0  0  0  0  0  0
   43.5500   36.1210   43.7600 H   0  0  0  0  0  0  0  0  0  0  0  0
   45.0660   36.9550   44.1170 H   0  0  0  0  0  0  0  0  0  0  0  0
   43.7800   34.7150   45.5060 H   0  0  0  0  0  0  0  0  0  0  0  0
   45.1140   35.8100   46.1510 H   0  0  0  0  0  0  0  0  0  0  0  0
   46.7760   34.4120   44.9430 H   0  0  0  0  0  0  0  0  0  0  0  0
   45.8020   33.5140   46.1270 H   0  0  0  0  0  0  0  0  0  0  0  0
   47.8630   33.5500   42.2020 C   0  0  0  0  0  0  0  0  0  0  0  0
   48.6660   34.5730   42.7630 C   0  0  0  0  0  0  0  0  0  0  0  0
   48.8850   34.5380   43.8430 H   0  0  0  0  0  0  0  0  0  0  0  0
   49.2070   35.6320   42.0480 C   0  0  0  0  0  0  0  0  0  0  0  0
   48.8860   35.5980   40.7110 C   0  0  0  0  0  0  0  0  0  0  0  0
   49.2860   36.4100   40.1070 H   0  0  0  0  0  0  0  0  0  0  0  0
   48.1270   34.6740   40.0500 C   0  0  0  0  0  0  0  0  0  0  0  0
   47.9190   34.7150   38.9920 H   0  0  0  0  0  0  0  0  0  0  0  0
   47.6320   33.6630   40.8310 C   0  0  0  0  0  0  0  0  0  0  0  0
  1  9  1  0  0  0  0
  1  6  1  0  0  0  0
  2  1  2  0  0  0  0
  3  2  1  0  0  0  0
  3  4  2  0  0  0  0
  4  5  1  0  0  0  0
  5  6  2  0  0  0  0
  5  8  1  0  0  0  0
  7  3  1  0  0  0  0
  9 15  1  0  0  0  0
  9 14  1  0  0  0  0
 10 16  1  0  0  0  0
 10  9  1  0  0  0  0
 11 10  1  0  0  0  0
 11 18  1  0  0  0  0
 11 12  1  0  0  0  0
 12 21  1  0  0  0  0
 12 13  1  0  0  0  0
 13 22  1  0  0  0  0
 13 23  1  0  0  0  0
 14 13  1  0  0  0  0
 14 25  1  0  0  0  0
 17 10  1  0  0  0  0
 19 11  1  0  0  0  0
 20 12  1  0  0  0  0
 24 14  1  0  0  0  0
 26 27  1  0  0  0  0
 26  2  1  0  0  0  0
 27 28  1  0  0  0  0
 29 27  2  0  0  0  0
 30 29  1  0  0  0  0
 31 30  1  0  0  0  0
 32 30  2  0  0  0  0
 32 34  1  0  0  0  0
 33 32  1  0  0  0  0
 34 26  2  0  0  0  0
M  END
>  <minimizedAffinity>
-5.31935072

>  <minimizedRMSD>
2.60206079

$$$$
