REMARK  Name = 
REMARK  2 active torsions:
REMARK  status: ('A' for Active; 'I' for Inactive)
REMARK    1  A    between atoms: C_2  and  C_17
REMARK    2  A    between atoms: C_3  and  C_7
REMARK                            x       y       z     vdW  Elec       q    Type
REMARK                         _______ _______ _______ _____ _____    ______ ____
ROOT
ATOM      1  C   UNL     1      44.577  35.915  44.315  0.00  0.00    +0.000 A 
ATOM      2  C   UNL     1      45.346  35.901  43.108  0.00  0.00    +0.000 A 
ATOM      3  C   UNL     1      46.302  34.910  43.032  0.00  0.00    +0.000 A 
ATOM      4  N   UNL     1      46.489  34.006  44.056  0.00  0.00    +0.000 NA
ATOM      5  C   UNL     1      45.734  34.060  45.178  0.00  0.00    +0.000 A 
ATOM      6  N   UNL     1      44.780  35.016  45.305  0.00  0.00    +0.000 NA
ATOM      7  H   UNL     1      43.791  36.605  44.566  0.00  0.00    +0.000 HD
ATOM      8  H   UNL     1      46.002  33.286  45.880  0.00  0.00    +0.000 HD
ENDROOT
BRANCH   2   9
ATOM      9  C   UNL     1      44.960  36.901  42.167  0.00  0.00    +0.000 A 
ATOM     10  C   UNL     1      44.764  36.893  40.808  0.00  0.00    +0.000 A 
ATOM     11  H   UNL     1      44.894  35.925  40.352  0.00  0.00    +0.000 HD
ATOM     12  C   UNL     1      44.411  38.026  40.109  0.00  0.00    +0.000 A 
ATOM     13  C   UNL     1      44.235  39.226  40.725  0.00  0.00    +0.000 A 
ATOM     14  H   UNL     1      43.959  40.071  40.114  0.00  0.00    +0.000 HD
ATOM     15  C   UNL     1      44.419  39.289  42.090  0.00  0.00    +0.000 A 
ATOM     16  H   UNL     1      44.273  40.251  42.552  0.00  0.00    +0.000 HD
ATOM     17  C   UNL     1      44.778  38.137  42.797  0.00  0.00    +0.000 A 
ENDBRANCH   2   9
BRANCH   3  18
ATOM     18  C   UNL     1      47.079  34.811  41.743  0.00  0.00    +0.000 C 
ATOM     19  C   UNL     1      48.465  35.464  41.893  0.00  0.00    +0.000 C 
ATOM     20  C   UNL     1      48.225  33.931  41.729  0.00  0.00    +0.000 C 
ATOM     21  H   UNL     1      46.590  35.292  40.868  0.00  0.00    +0.000 HD
ATOM     22  H   UNL     1      48.776  35.820  42.870  0.00  0.00    +0.000 HD
ATOM     23  H   UNL     1      48.916  35.913  40.993  0.00  0.00    +0.000 HD
ATOM     24  H   UNL     1      48.454  33.365  42.660  0.00  0.00    +0.000 HD
ATOM     25  H   UNL     1      48.588  33.474  40.779  0.00  0.00    +0.000 HD
ENDBRANCH   3  18
TORSDOF 2
