
 OpenBabel03252507203D

 44 47  0  0  1  0  0  0  0  0999 V2000
   46.9440   33.3260   43.0260 C   0  0  0  0  0  0  0  0  0  0  0  0
   47.9940   32.9470   43.6120 O   0  0  0  0  0  0  0  0  0  0  0  0
   46.5400   32.8890   41.7190 N   0  0  0  0  0  0  0  0  0  0  0  0
   45.2500   32.4600   41.2170 C   0  0  0  0  0  0  0  0  0  0  0  0
   44.9220   33.2530   39.9380 C   0  0  0  0  0  0  0  0  0  0  0  0
   45.9330   32.9240   38.8670 C   0  0  0  0  0  0  0  0  0  0  0  0
   47.1010   32.1950   39.4700 C   0  0  0  0  0  0  0  0  0  0  0  0
   47.5910   32.8780   40.7230 C   0  0  2  0  0  0  0  0  0  0  0  0
   45.2380   31.4000   40.9760 H   0  0  0  0  0  0  0  0  0  0  0  0
   44.4700   32.7860   41.9380 H   0  0  0  0  0  0  0  0  0  0  0  0
   43.8870   33.0090   39.6360 H   0  0  0  0  0  0  0  0  0  0  0  0
   45.0560   34.3300   40.1790 H   0  0  0  0  0  0  0  0  0  0  0  0
   46.3410   33.8350   38.3600 H   0  0  0  0  0  0  0  0  0  0  0  0
   45.4450   32.2650   38.1190 H   0  0  0  0  0  0  0  0  0  0  0  0
   46.8260   31.1380   39.6190 H   0  0  0  0  0  0  0  0  0  0  0  0
   47.9540   32.2580   38.7450 H   0  0  0  0  0  0  0  0  0  0  0  0
   47.7790   33.9350   40.4490 H   0  0  0  0  0  0  0  0  0  0  0  0
   48.8640   32.2890   41.1950 C   0  0  0  0  0  0  0  0  0  0  0  0
   49.9550   33.1190   41.4860 C   0  0  0  0  0  0  0  0  0  0  0  0
   49.7880   34.1970   41.3440 H   0  0  0  0  0  0  0  0  0  0  0  0
   51.1870   32.7310   41.9200 C   0  0  0  0  0  3  0  0  0  0  0  0
   51.3930   31.3910   42.0960 C   0  0  0  0  0  0  0  0  0  0  0  0
   52.3570   31.0470   42.4390 H   0  0  0  0  0  0  0  0  0  0  0  0
   50.3710   30.5150   41.8310 C   0  0  0  0  0  0  0  0  0  0  0  0
   50.5240   29.4350   41.9690 H   0  0  0  0  0  0  0  0  0  0  0  0
   49.1390   30.9520   41.3920 C   0  0  0  0  0  3  0  0  0  0  0  0
   45.7230   35.4500   43.0510 C   0  0  0  0  0  0  0  0  0  0  0  0
   46.0910   34.2630   43.7210 C   0  0  0  0  0  0  0  0  0  0  0  0
   45.6310   34.0370   45.0030 C   0  0  0  0  0  0  0  0  0  0  0  0
   44.8380   34.9710   45.5720 N   0  0  0  0  0  0  0  0  0  0  0  0
   44.4780   36.1160   44.9370 C   0  0  0  0  0  0  0  0  0  0  0  0
   44.9290   36.3330   43.6860 N   0  0  0  0  0  0  0  0  0  0  0  0
   46.0690   35.6550   42.0450 H   0  0  0  0  0  0  0  0  0  0  0  0
   43.8400   36.8010   45.4790 H   0  0  0  0  0  0  0  0  0  0  0  0
   46.0210   32.8160   45.6760 C   0  0  0  0  0  0  0  0  0  0  0  0
   45.5280   31.6170   45.2550 C   0  0  0  0  0  0  0  0  0  0  0  0
   45.9080   30.4640   45.9070 C   0  0  0  0  0  0  0  0  0  0  0  0
   46.7870   30.4690   46.9910 C   0  0  0  0  0  0  0  0  0  0  0  0
   47.2520   31.7150   47.3700 C   0  0  0  0  0  0  0  0  0  0  0  0
   46.8580   32.8140   46.7110 N   0  0  0  0  0  0  0  0  0  0  0  0
   44.8470   31.4460   44.4480 H   0  0  0  0  0  0  0  0  0  0  0  0
   45.5560   29.4720   45.6270 H   0  0  0  0  0  0  0  0  0  0  0  0
   47.1010   29.5800   47.5190 H   0  0  0  0  0  0  0  0  0  0  0  0
   47.9390   31.8590   48.1950 H   0  0  0  0  0  0  0  0  0  0  0  0
  1  2  2  0  0  0  0
  1 28  1  0  0  0  0
  3  1  1  0  0  0  0
  4  3  1  0  0  0  0
  4 10  1  0  0  0  0
  5 12  1  0  0  0  0
  5  4  1  0  0  0  0
  6  7  1  0  0  0  0
  6  5  1  0  0  0  0
  7 15  1  0  0  0  0
  7  8  1  0  0  0  0
  8 17  1  6  0  0  0
  8 18  1  0  0  0  0
  8  3  1  0  0  0  0
  9  4  1  0  0  0  0
 11  5  1  0  0  0  0
 13  6  1  0  0  0  0
 14  6  1  0  0  0  0
 16  7  1  0  0  0  0
 18 26  2  0  0  0  0
 18 19  1  0  0  0  0
 19 21  2  0  0  0  0
 20 19  1  0  0  0  0
 21 22  1  0  0  0  0
 22 23  1  0  0  0  0
 24 25  1  0  0  0  0
 24 22  2  0  0  0  0
 26 24  1  0  0  0  0
 27 32  2  0  0  0  0
 27 28  1  0  0  0  0
 28 29  2  0  0  0  0
 29 30  1  0  0  0  0
 29 35  1  0  0  0  0
 31 34  1  0  0  0  0
 31 30  2  0  0  0  0
 32 31  1  0  0  0  0
 33 27  1  0  0  0  0
 35 40  1  0  0  0  0
 36 35  2  0  0  0  0
 36 37  1  0  0  0  0
 37 38  2  0  0  0  0
 38 39  1  0  0  0  0
 38 43  1  0  0  0  0
 39 44  1  0  0  0  0
 40 39  2  0  0  0  0
 41 36  1  0  0  0  0
 42 37  1  0  0  0  0
M  END
>  <minimizedAffinity>
-5.41505861

>  <minimizedRMSD>
0.849996984

$$$$
