REMARK  Name = 
REMARK  2 active torsions:
REMARK  status: ('A' for Active; 'I' for Inactive)
REMARK    1  A    between atoms: C_3  and  C_7
REMARK    2  A    between atoms: C_10  and  C_23
REMARK                            x       y       z     vdW  Elec       q    Type
REMARK                         _______ _______ _______ _____ _____    ______ ____
ROOT
ATOM      1  C   UNL     1      46.770  35.139  41.798  0.00  0.00    +0.000 C 
ATOM      2  C   UNL     1      46.846  33.830  41.076  0.00  0.00    +0.000 C 
ATOM      3  C   UNL     1      47.770  34.224  39.927  0.00  0.00    +0.000 C 
ATOM      4  C   UNL     1      48.731  35.226  40.542  0.00  0.00    +0.000 C 
ATOM      5  C   UNL     1      48.258  35.453  41.963  0.00  0.00    +0.000 C 
ATOM      6  H   UNL     1      46.356  35.915  41.159  0.00  0.00    +0.000 HD
ATOM      7  H   UNL     1      47.329  33.043  41.666  0.00  0.00    +0.000 HD
ATOM      8  H   UNL     1      45.863  33.506  40.661  0.00  0.00    +0.000 HD
ATOM      9  H   UNL     1      47.104  34.726  39.183  0.00  0.00    +0.000 HD
ATOM     10  H   UNL     1      48.257  33.319  39.543  0.00  0.00    +0.000 HD
ATOM     11  H   UNL     1      48.708  36.185  39.960  0.00  0.00    +0.000 HD
ATOM     12  H   UNL     1      48.757  34.794  42.688  0.00  0.00    +0.000 HD
ATOM     13  H   UNL     1      48.336  36.531  42.172  0.00  0.00    +0.000 HD
ENDROOT
BRANCH   1  16
ATOM     14  C   UNL     1      44.498  35.879  44.714  0.00  0.00    +0.000 A 
ATOM     15  C   UNL     1      45.096  36.042  43.458  0.00  0.00    +0.000 A 
ATOM     16  C   UNL     1      46.065  35.087  43.097  0.00  0.00    +0.000 A 
ATOM     17  N   UNL     1      46.379  34.062  43.964  0.00  0.00    +0.000 NA
ATOM     18  C   UNL     1      45.761  33.969  45.160  0.00  0.00    +0.000 A 
ATOM     19  N   UNL     1      44.827  34.869  45.535  0.00  0.00    +0.000 NA
ATOM     20  H   UNL     1      43.773  36.662  44.889  0.00  0.00    +0.000 HD
ATOM     21  H   UNL     1      44.901  36.804  42.745  0.00  0.00    +0.000 HD
ATOM     22  H   UNL     1      45.973  33.184  45.874  0.00  0.00    +0.000 HD
ENDBRANCH   1  16
BRANCH   4  23
ATOM     23  C   UNL     1      50.081  34.666  40.435  0.00  0.00    +0.000 A 
ATOM     24  C   UNL     1      50.439  33.799  39.428  0.00  0.00    +0.000 A 
ATOM     25  H   UNL     1      49.740  33.495  38.674  0.00  0.00    +0.000 HD
ATOM     26  C   UNL     1      51.730  33.273  39.339  0.00  0.00    +0.000 A 
ATOM     27  C   UNL     1      52.705  33.610  40.272  0.00  0.00    +0.000 A 
ATOM     28  H   UNL     1      53.716  33.252  40.275  0.00  0.00    +0.000 HD
ATOM     29  C   UNL     1      52.365  34.478  41.288  0.00  0.00    +0.000 A 
ATOM     30  H   UNL     1      53.092  34.775  42.046  0.00  0.00    +0.000 HD
ATOM     31  C   UNL     1      51.086  34.983  41.355  0.00  0.00    +0.000 A 
ENDBRANCH   4  23
TORSDOF 2
