
 OpenBabel03252502103D

 48 52  0  0  0  0  0  0  0  0999 V2000
   39.1100   30.2820   40.7080 C   0  0  0  0  0  0  0  0  0  0  0  0
   39.4210   30.2010   42.0110 N   0  0  0  0  0  0  0  0  0  0  0  0
   38.6310   29.7080   42.9570 C   0  0  0  0  0  0  0  0  0  0  0  0
   37.4040   29.2350   42.6300 N   0  0  0  0  0  0  0  0  0  0  0  0
   36.9800   29.2620   41.3680 C   0  0  0  0  0  0  0  0  0  0  0  0
   35.7320   28.7840   41.0360 C   0  0  0  0  0  0  0  0  0  0  0  0
   35.2770   28.8010   39.7430 C   0  0  0  0  0  0  0  0  0  0  0  0
   36.1200   29.3220   38.7680 C   0  0  0  0  0  0  0  0  0  0  0  0
   37.3720   29.7910   39.1680 C   0  0  0  0  0  0  0  0  0  0  0  0
   37.8420   29.7840   40.4340 C   0  0  0  0  0  0  0  0  0  0  0  0
   38.9940   29.6940   43.9800 H   0  0  0  0  0  0  0  0  0  0  0  0
   35.1350   28.3950   41.8490 H   0  0  0  0  0  0  0  0  0  0  0  0
   34.2940   28.4130   39.5480 H   0  0  0  0  0  0  0  0  0  0  0  0
   40.5200   32.9210   38.6710 C   0  0  0  0  0  0  0  0  0  0  0  0
   41.4530   32.3080   37.8280 C   0  0  0  0  0  0  0  0  0  0  0  0
   41.6200   30.9540   37.9710 C   0  0  0  0  0  0  0  0  0  0  0  0
   40.9040   30.2910   38.8790 N   0  0  0  0  0  0  0  0  0  0  0  0
   40.0200   30.8450   39.6800 C   0  0  0  0  0  0  0  0  0  0  0  0
   39.8410   32.1800   39.5600 N   0  0  0  0  0  0  0  0  0  0  0  0
   42.5370   30.2960   37.1820 N   0  0  0  0  0  0  0  0  0  0  0  0
   42.9100   28.8710   37.3650 C   0  0  0  0  0  0  0  0  0  0  0  0
   43.7090   28.4930   36.1480 C   0  0  0  0  0  0  0  0  0  0  0  0
   44.3100   29.7970   35.7340 C   0  0  0  0  0  0  0  0  0  0  0  0
   43.2860   30.8210   36.0880 C   0  0  0  0  0  0  0  0  0  0  0  0
   40.3550   33.9980   38.5970 H   0  0  0  0  0  0  0  0  0  0  0  0
   41.9380   28.3100   37.2830 H   0  0  0  0  0  0  0  0  0  0  0  0
   43.4310   28.6990   38.3080 H   0  0  0  0  0  0  0  0  0  0  0  0
   43.0710   28.1110   35.3290 H   0  0  0  0  0  0  0  0  0  0  0  0
   44.4530   27.7110   36.3780 H   0  0  0  0  0  0  0  0  0  0  0  0
   44.6070   29.8300   34.6620 H   0  0  0  0  0  0  0  0  0  0  0  0
   45.2530   29.9150   36.3060 H   0  0  0  0  0  0  0  0  0  0  0  0
   42.6820   31.0040   35.1700 H   0  0  0  0  0  0  0  0  0  0  0  0
   43.9220   31.7200   36.3560 H   0  0  0  0  0  0  0  0  0  0  0  0
   42.0810   33.0900   36.8980 N   0  0  0  0  0  0  0  0  0  0  0  0
   42.8830   33.7660   37.0650 H   0  0  0  0  0  0  0  0  0  0  0  0
   41.9200   33.1930   35.8650 H   0  0  0  0  0  0  0  0  0  0  0  0
   35.5600   29.2900   37.4450 C   0  0  0  0  0  0  0  0  0  0  0  0
   36.1740   29.4440   36.2200 C   0  0  0  0  0  0  0  0  0  0  0  0
   37.2420   29.6030   36.2660 H   0  0  0  0  0  0  0  0  0  0  0  0
   35.4880   29.3950   35.0260 C   0  0  0  0  0  3  0  0  0  0  0  0
   34.1260   29.1860   35.0000 C   0  0  0  0  0  0  0  0  0  0  0  0
   33.6520   29.1580   34.0310 H   0  0  0  0  0  0  0  0  0  0  0  0
   33.4590   29.0240   36.1900 C   0  0  0  0  0  0  0  0  0  0  0  0
   32.3910   28.8580   36.1930 H   0  0  0  0  0  0  0  0  0  0  0  0
   34.1790   29.0790   37.3600 C   0  0  0  0  0  3  0  0  0  0  0  0
   38.0940   30.2940   38.0370 N   0  0  0  0  0  0  0  0  0  0  0  0
   38.7070   29.8800   37.3080 H   0  0  0  0  0  0  0  0  0  0  0  0
   38.2110   31.2310   37.5980 H   0  0  0  0  0  0  0  0  0  0  0  0
  1  2  1  0  0  0  0
  2  3  2  0  0  0  0
  3 11  1  0  0  0  0
  4  3  1  0  0  0  0
  5  4  2  0  0  0  0
  6  5  1  0  0  0  0
  6 12  1  0  0  0  0
  7  6  2  0  0  0  0
  8  9  2  0  0  0  0
  8  7  1  0  0  0  0
  9 10  1  0  0  0  0
 10  1  2  0  0  0  0
 10  5  1  0  0  0  0
 13  7  1  0  0  0  0
 14 19  1  0  0  0  0
 15 16  1  0  0  0  0
 15 14  2  0  0  0  0
 16 17  2  0  0  0  0
 17 18  1  0  0  0  0
 18  1  1  0  0  0  0
 19 18  2  0  0  0  0
 20 21  1  0  0  0  0
 20 16  1  0  0  0  0
 21 27  1  0  0  0  0
 22 29  1  0  0  0  0
 22 21  1  0  0  0  0
 23 24  1  0  0  0  0
 23 22  1  0  0  0  0
 23 31  1  0  0  0  0
 24 33  1  0  0  0  0
 24 20  1  0  0  0  0
 25 14  1  0  0  0  0
 26 21  1  0  0  0  0
 28 22  1  0  0  0  0
 30 23  1  0  0  0  0
 32 24  1  0  0  0  0
 34 35  1  0  0  0  0
 34 15  1  0  0  0  0
 36 34  1  0  0  0  0
 37  8  1  0  0  0  0
 38 39  1  0  0  0  0
 38 37  2  0  0  0  0
 40 38  1  0  0  0  0
 41 40  2  0  0  0  0
 41 43  1  0  0  0  0
 42 41  1  0  0  0  0
 43 44  1  0  0  0  0
 43 45  2  0  0  0  0
 45 37  1  0  0  0  0
 46  9  1  0  0  0  0
 47 46  1  0  0  0  0
 48 46  1  0  0  0  0
M  END
>  <minimizedAffinity>
-6.81798553

$$$$

 OpenBabel03252502103D

 48 52  0  0  0  0  0  0  0  0999 V2000
   36.6270   29.5410   38.3970 C   0  0  0  0  0  0  0  0  0  0  0  0
   35.7320   29.6510   37.4040 N   0  0  0  0  0  0  0  0  0  0  0  0
   35.0450   28.6450   36.8770 C   0  0  0  0  0  0  0  0  0  0  0  0
   35.2280   27.3870   37.3470 N   0  0  0  0  0  0  0  0  0  0  0  0
   36.0910   27.1490   38.3330 C   0  0  0  0  0  0  0  0  0  0  0  0
   36.2780   25.8710   38.8090 C   0  0  0  0  0  0  0  0  0  0  0  0
   37.1620   25.6050   39.8230 C   0  0  0  0  0  0  0  0  0  0  0  0
   37.8710   26.6730   40.3600 C   0  0  0  0  0  0  0  0  0  0  0  0
   37.6360   27.9450   39.8330 C   0  0  0  0  0  0  0  0  0  0  0  0
   36.7720   28.2310   38.8360 C   0  0  0  0  0  0  0  0  0  0  0  0
   34.3450   28.8580   36.0740 H   0  0  0  0  0  0  0  0  0  0  0  0
   35.6920   25.0940   38.3410 H   0  0  0  0  0  0  0  0  0  0  0  0
   37.2630   24.5860   40.1510 H   0  0  0  0  0  0  0  0  0  0  0  0
   37.1910   32.2870   40.6870 C   0  0  0  0  0  0  0  0  0  0  0  0
   38.3800   32.9010   40.2760 C   0  0  0  0  0  0  0  0  0  0  0  0
   39.0190   32.3500   39.1940 C   0  0  0  0  0  0  0  0  0  0  0  0
   38.4960   31.2830   38.5900 N   0  0  0  0  0  0  0  0  0  0  0  0
   37.3790   30.6910   38.9560 C   0  0  0  0  0  0  0  0  0  0  0  0
   36.7340   31.2140   40.0220 N   0  0  0  0  0  0  0  0  0  0  0  0
   40.2020   32.8980   38.7530 N   0  0  0  0  0  0  0  0  0  0  0  0
   41.0520   32.2880   37.7000 C   0  0  0  0  0  0  0  0  0  0  0  0
   42.0740   33.3290   37.3380 C   0  0  0  0  0  0  0  0  0  0  0  0
   42.1940   34.1220   38.5990 C   0  0  0  0  0  0  0  0  0  0  0  0
   40.8290   34.1000   39.1970 C   0  0  0  0  0  0  0  0  0  0  0  0
   36.6490   32.6880   41.5450 H   0  0  0  0  0  0  0  0  0  0  0  0
   40.3750   32.1950   36.8060 H   0  0  0  0  0  0  0  0  0  0  0  0
   41.4820   31.3370   38.0190 H   0  0  0  0  0  0  0  0  0  0  0  0
   41.7270   33.9930   36.5230 H   0  0  0  0  0  0  0  0  0  0  0  0
   43.0220   32.8700   37.0080 H   0  0  0  0  0  0  0  0  0  0  0  0
   42.5840   35.1520   38.4420 H   0  0  0  0  0  0  0  0  0  0  0  0
   42.9500   33.6130   39.2310 H   0  0  0  0  0  0  0  0  0  0  0  0
   40.3150   35.0300   38.8630 H   0  0  0  0  0  0  0  0  0  0  0  0
   41.0480   34.1200   40.3080 H   0  0  0  0  0  0  0  0  0  0  0  0
   38.7800   34.0250   40.9440 N   0  0  0  0  0  0  0  0  0  0  0  0
   39.2470   34.0720   41.8960 H   0  0  0  0  0  0  0  0  0  0  0  0
   38.7180   35.0410   40.6810 H   0  0  0  0  0  0  0  0  0  0  0  0
   38.7640   26.2980   41.4210 C   0  0  0  0  0  0  0  0  0  0  0  0
   38.6460   26.4770   42.7830 C   0  0  0  0  0  0  0  0  0  0  0  0
   37.7360   26.9660   43.0970 H   0  0  0  0  0  0  0  0  0  0  0  0
   39.6070   26.0620   43.6790 C   0  0  0  0  0  3  0  0  0  0  0  0
   40.7550   25.4350   43.2470 C   0  0  0  0  0  0  0  0  0  0  0  0
   41.4650   25.1360   44.0030 H   0  0  0  0  0  0  0  0  0  0  0  0
   40.9290   25.2270   41.9000 C   0  0  0  0  0  0  0  0  0  0  0  0
   41.8220   24.7370   41.5400 H   0  0  0  0  0  0  0  0  0  0  0  0
   39.9470   25.6550   41.0380 C   0  0  0  0  0  3  0  0  0  0  0  0
   38.4560   28.9120   40.5010 N   0  0  0  0  0  0  0  0  0  0  0  0
   38.3740   29.4780   41.3690 H   0  0  0  0  0  0  0  0  0  0  0  0
   39.3910   29.3320   40.3200 H   0  0  0  0  0  0  0  0  0  0  0  0
  1 10  1  0  0  0  0
  1 18  1  0  0  0  0
  2  1  2  0  0  0  0
  3  4  2  0  0  0  0
  3  2  1  0  0  0  0
  4  5  1  0  0  0  0
  5  6  2  0  0  0  0
  5 10  1  0  0  0  0
  6  7  1  0  0  0  0
  7 13  1  0  0  0  0
  7  8  2  0  0  0  0
  8 37  1  0  0  0  0
  9  8  1  0  0  0  0
  9 46  1  0  0  0  0
 10  9  2  0  0  0  0
 11  3  1  0  0  0  0
 12  6  1  0  0  0  0
 14 25  1  0  0  0  0
 15 14  1  0  0  0  0
 15 34  1  0  0  0  0
 16 15  2  0  0  0  0
 17 18  2  0  0  0  0
 17 16  1  0  0  0  0
 18 19  1  0  0  0  0
 19 14  2  0  0  0  0
 20 16  1  0  0  0  0
 20 24  1  0  0  0  0
 21 27  1  0  0  0  0
 21 20  1  0  0  0  0
 22 21  1  0  0  0  0
 22 23  1  0  0  0  0
 23 24  1  0  0  0  0
 23 31  1  0  0  0  0
 24 33  1  0  0  0  0
 26 21  1  0  0  0  0
 28 22  1  0  0  0  0
 29 22  1  0  0  0  0
 30 23  1  0  0  0  0
 32 24  1  0  0  0  0
 34 35  1  0  0  0  0
 36 34  1  0  0  0  0
 37 38  1  0  0  0  0
 38 39  1  0  0  0  0
 38 40  2  0  0  0  0
 41 40  1  0  0  0  0
 41 42  1  0  0  0  0
 43 41  2  0  0  0  0
 44 43  1  0  0  0  0
 45 37  2  0  0  0  0
 45 43  1  0  0  0  0
 46 47  1  0  0  0  0
 48 46  1  0  0  0  0
M  END
>  <minimizedAffinity>
-6.54820871

$$$$

 OpenBabel03252502103D

 48 52  0  0  0  0  0  0  0  0999 V2000
   37.1500   27.0930   40.1850 C   0  0  0  0  0  0  0  0  0  0  0  0
   36.9480   25.9240   40.8110 N   0  0  0  0  0  0  0  0  0  0  0  0
   37.2640   25.6660   42.0740 C   0  0  0  0  0  0  0  0  0  0  0  0
   37.8390   26.6300   42.8340 N   0  0  0  0  0  0  0  0  0  0  0  0
   38.0900   27.8350   42.3250 C   0  0  0  0  0  0  0  0  0  0  0  0
   38.6750   28.8140   43.0970 C   0  0  0  0  0  0  0  0  0  0  0  0
   38.9420   30.0610   42.5930 C   0  0  0  0  0  0  0  0  0  0  0  0
   38.6030   30.3100   41.2680 C   0  0  0  0  0  0  0  0  0  0  0  0
   38.0130   29.2750   40.5390 C   0  0  0  0  0  0  0  0  0  0  0  0
   37.7410   28.0410   41.0120 C   0  0  0  0  0  0  0  0  0  0  0  0
   37.0510   24.6780   42.4710 H   0  0  0  0  0  0  0  0  0  0  0  0
   38.9090   28.5460   44.1160 H   0  0  0  0  0  0  0  0  0  0  0  0
   39.3990   30.7820   43.2450 H   0  0  0  0  0  0  0  0  0  0  0  0
   37.7310   27.1410   36.6130 C   0  0  0  0  0  0  0  0  0  0  0  0
   36.5820   27.6930   36.0370 C   0  0  0  0  0  0  0  0  0  0  0  0
   35.5690   28.0440   36.8930 C   0  0  0  0  0  0  0  0  0  0  0  0
   35.7150   27.8550   38.2040 N   0  0  0  0  0  0  0  0  0  0  0  0
   36.7870   27.3410   38.7680 C   0  0  0  0  0  0  0  0  0  0  0  0
   37.7970   26.9840   37.9440 N   0  0  0  0  0  0  0  0  0  0  0  0
   34.4050   28.5750   36.3850 N   0  0  0  0  0  0  0  0  0  0  0  0
   33.1930   28.8370   37.2010 C   0  0  0  0  0  0  0  0  0  0  0  0
   32.2790   29.6590   36.3340 C   0  0  0  0  0  0  0  0  0  0  0  0
   32.6700   29.2350   34.9550 C   0  0  0  0  0  0  0  0  0  0  0  0
   34.1320   28.9590   35.0390 C   0  0  0  0  0  0  0  0  0  0  0  0
   38.5630   26.8430   35.9720 H   0  0  0  0  0  0  0  0  0  0  0  0
   33.5430   29.5260   38.0190 H   0  0  0  0  0  0  0  0  0  0  0  0
   32.7410   27.9170   37.5750 H   0  0  0  0  0  0  0  0  0  0  0  0
   32.4580   30.7450   36.4450 H   0  0  0  0  0  0  0  0  0  0  0  0
   31.2170   29.4730   36.5740 H   0  0  0  0  0  0  0  0  0  0  0  0
   32.4110   29.9800   34.1700 H   0  0  0  0  0  0  0  0  0  0  0  0
   32.0730   28.3310   34.7130 H   0  0  0  0  0  0  0  0  0  0  0  0
   34.6550   29.8880   34.7160 H   0  0  0  0  0  0  0  0  0  0  0  0
   34.2670   28.1220   34.2870 H   0  0  0  0  0  0  0  0  0  0  0  0
   36.5790   27.8890   34.6840 N   0  0  0  0  0  0  0  0  0  0  0  0
   36.4360   27.1550   33.9300 H   0  0  0  0  0  0  0  0  0  0  0  0
   36.7110   28.7630   34.1150 H   0  0  0  0  0  0  0  0  0  0  0  0
   38.9130   31.6430   40.8330 C   0  0  0  0  0  0  0  0  0  0  0  0
   38.0780   32.7170   40.6060 C   0  0  0  0  0  0  0  0  0  0  0  0
   37.0320   32.5250   40.7950 H   0  0  0  0  0  0  0  0  0  0  0  0
   38.5350   33.9440   40.1780 C   0  0  0  0  0  3  0  0  0  0  0  0
   39.8770   34.1610   39.9510 C   0  0  0  0  0  0  0  0  0  0  0  0
   40.1660   35.1460   39.6170 H   0  0  0  0  0  0  0  0  0  0  0  0
   40.7590   33.1280   40.1620 C   0  0  0  0  0  0  0  0  0  0  0  0
   41.8150   33.2760   39.9910 H   0  0  0  0  0  0  0  0  0  0  0  0
   40.2640   31.9190   40.5890 C   0  0  0  0  0  3  0  0  0  0  0  0
   37.7420   29.7100   39.2000 N   0  0  0  0  0  0  0  0  0  0  0  0
   36.9650   30.2130   38.7290 H   0  0  0  0  0  0  0  0  0  0  0  0
   38.2530   29.6600   38.2950 H   0  0  0  0  0  0  0  0  0  0  0  0
  1  2  2  0  0  0  0
  1 10  1  0  0  0  0
  2  3  1  0  0  0  0
  3 11  1  0  0  0  0
  3  4  2  0  0  0  0
  5  4  1  0  0  0  0
  5  6  1  0  0  0  0
  6 12  1  0  0  0  0
  7  6  2  0  0  0  0
  7 13  1  0  0  0  0
  8  7  1  0  0  0  0
  9 10  1  0  0  0  0
  9  8  2  0  0  0  0
 10  5  2  0  0  0  0
 14 19  1  0  0  0  0
 15 14  2  0  0  0  0
 15 16  1  0  0  0  0
 16 17  2  0  0  0  0
 17 18  1  0  0  0  0
 18  1  1  0  0  0  0
 19 18  2  0  0  0  0
 20 16  1  0  0  0  0
 20 21  1  0  0  0  0
 21 27  1  0  0  0  0
 21 26  1  0  0  0  0
 22 28  1  0  0  0  0
 22 29  1  0  0  0  0
 22 21  1  0  0  0  0
 23 24  1  0  0  0  0
 23 22  1  0  0  0  0
 24 20  1  0  0  0  0
 25 14  1  0  0  0  0
 30 23  1  0  0  0  0
 31 23  1  0  0  0  0
 32 24  1  0  0  0  0
 33 24  1  0  0  0  0
 34 15  1  0  0  0  0
 35 34  1  0  0  0  0
 36 34  1  0  0  0  0
 37  8  1  0  0  0  0
 38 39  1  0  0  0  0
 38 37  1  0  0  0  0
 40 38  2  0  0  0  0
 41 43  2  0  0  0  0
 41 40  1  0  0  0  0
 42 41  1  0  0  0  0
 43 45  1  0  0  0  0
 44 43  1  0  0  0  0
 45 37  2  0  0  0  0
 46  9  1  0  0  0  0
 47 46  1  0  0  0  0
 48 46  1  0  0  0  0
M  END
>  <minimizedAffinity>
-6.47326565

$$$$

 OpenBabel03252502103D

 48 52  0  0  0  0  0  0  0  0999 V2000
   37.4340   27.3410   41.0770 C   0  0  0  0  0  0  0  0  0  0  0  0
   37.9000   26.7210   42.1710 N   0  0  0  0  0  0  0  0  0  0  0  0
   37.8140   25.4180   42.4090 C   0  0  0  0  0  0  0  0  0  0  0  0
   37.2160   24.6070   41.5020 N   0  0  0  0  0  0  0  0  0  0  0  0
   36.7130   25.1050   40.3740 C   0  0  0  0  0  0  0  0  0  0  0  0
   36.1040   24.2810   39.4540 C   0  0  0  0  0  0  0  0  0  0  0  0
   35.5800   24.7730   38.2860 C   0  0  0  0  0  0  0  0  0  0  0  0
   35.6810   26.1410   38.0570 C   0  0  0  0  0  0  0  0  0  0  0  0
   36.3090   26.9220   39.0300 C   0  0  0  0  0  0  0  0  0  0  0  0
   36.8320   26.4610   40.1850 C   0  0  0  0  0  0  0  0  0  0  0  0
   38.2300   25.0300   43.3340 H   0  0  0  0  0  0  0  0  0  0  0  0
   36.0630   23.2310   39.7020 H   0  0  0  0  0  0  0  0  0  0  0  0
   35.1170   24.0800   37.6080 H   0  0  0  0  0  0  0  0  0  0  0  0
   36.2780   30.7690   41.1660 C   0  0  0  0  0  0  0  0  0  0  0  0
   37.2820   31.5370   40.5650 C   0  0  0  0  0  0  0  0  0  0  0  0
   38.3980   30.8660   40.1330 C   0  0  0  0  0  0  0  0  0  0  0  0
   38.4780   29.5450   40.2920 N   0  0  0  0  0  0  0  0  0  0  0  0
   37.5460   28.8030   40.8500 C   0  0  0  0  0  0  0  0  0  0  0  0
   36.4390   29.4430   41.2880 N   0  0  0  0  0  0  0  0  0  0  0  0
   39.4280   31.5680   39.5500 N   0  0  0  0  0  0  0  0  0  0  0  0
   40.7390   30.9670   39.1960 C   0  0  0  0  0  0  0  0  0  0  0  0
   41.4470   31.9880   38.3490 C   0  0  0  0  0  0  0  0  0  0  0  0
   40.8640   33.2760   38.8340 C   0  0  0  0  0  0  0  0  0  0  0  0
   39.4540   32.9480   39.1910 C   0  0  0  0  0  0  0  0  0  0  0  0
   35.3720   31.2600   41.5290 H   0  0  0  0  0  0  0  0  0  0  0  0
   40.4840   30.1160   38.5050 H   0  0  0  0  0  0  0  0  0  0  0  0
   41.3000   30.6550   40.0780 H   0  0  0  0  0  0  0  0  0  0  0  0
   41.2220   31.8700   37.2720 H   0  0  0  0  0  0  0  0  0  0  0  0
   42.5430   31.9220   38.4660 H   0  0  0  0  0  0  0  0  0  0  0  0
   40.9450   34.1060   38.0990 H   0  0  0  0  0  0  0  0  0  0  0  0
   41.4670   33.5950   39.7090 H   0  0  0  0  0  0  0  0  0  0  0  0
   38.8300   33.1980   38.3030 H   0  0  0  0  0  0  0  0  0  0  0  0
   39.2510   33.6510   40.0560 H   0  0  0  0  0  0  0  0  0  0  0  0
   37.0520   32.8760   40.4090 N   0  0  0  0  0  0  0  0  0  0  0  0
   37.1150   33.6280   41.1550 H   0  0  0  0  0  0  0  0  0  0  0  0
   36.7760   33.4320   39.5610 H   0  0  0  0  0  0  0  0  0  0  0  0
   35.1120   26.5600   36.8070 C   0  0  0  0  0  0  0  0  0  0  0  0
   35.7160   26.7670   35.5850 C   0  0  0  0  0  0  0  0  0  0  0  0
   36.7780   26.5720   35.5660 H   0  0  0  0  0  0  0  0  0  0  0  0
   35.0230   27.1830   34.4680 C   0  0  0  0  0  3  0  0  0  0  0  0
   33.6670   27.4170   34.5220 C   0  0  0  0  0  0  0  0  0  0  0  0
   33.1880   27.7410   33.6100 H   0  0  0  0  0  0  0  0  0  0  0  0
   33.0090   27.2270   35.7130 C   0  0  0  0  0  0  0  0  0  0  0  0
   31.9450   27.4040   35.7780 H   0  0  0  0  0  0  0  0  0  0  0  0
   33.7350   26.8110   36.8040 C   0  0  0  0  0  3  0  0  0  0  0  0
   36.3140   28.2980   38.6280 N   0  0  0  0  0  0  0  0  0  0  0  0
   36.9290   28.8940   38.0400 H   0  0  0  0  0  0  0  0  0  0  0  0
   35.6910   29.1140   38.7970 H   0  0  0  0  0  0  0  0  0  0  0  0
  1  2  1  0  0  0  0
  2  3  2  0  0  0  0
  3 11  1  0  0  0  0
  4  3  1  0  0  0  0
  5  4  2  0  0  0  0
  6 12  1  0  0  0  0
  6  5  1  0  0  0  0
  7  6  2  0  0  0  0
  8  7  1  0  0  0  0
  8  9  2  0  0  0  0
  9 10  1  0  0  0  0
 10  5  1  0  0  0  0
 10  1  2  0  0  0  0
 13  7  1  0  0  0  0
 14 19  1  0  0  0  0
 14 25  1  0  0  0  0
 15 14  2  0  0  0  0
 16 17  2  0  0  0  0
 16 15  1  0  0  0  0
 17 18  1  0  0  0  0
 18  1  1  0  0  0  0
 18 19  2  0  0  0  0
 20 16  1  0  0  0  0
 21 20  1  0  0  0  0
 21 27  1  0  0  0  0
 22 29  1  0  0  0  0
 22 23  1  0  0  0  0
 22 21  1  0  0  0  0
 23 24  1  0  0  0  0
 23 31  1  0  0  0  0
 24 20  1  0  0  0  0
 24 33  1  0  0  0  0
 26 21  1  0  0  0  0
 28 22  1  0  0  0  0
 30 23  1  0  0  0  0
 32 24  1  0  0  0  0
 34 15  1  0  0  0  0
 34 35  1  0  0  0  0
 36 34  1  0  0  0  0
 37  8  1  0  0  0  0
 38 37  2  0  0  0  0
 39 38  1  0  0  0  0
 40 41  2  0  0  0  0
 40 38  1  0  0  0  0
 41 43  1  0  0  0  0
 42 41  1  0  0  0  0
 43 44  1  0  0  0  0
 43 45  2  0  0  0  0
 45 37  1  0  0  0  0
 46 48  1  0  0  0  0
 46  9  1  0  0  0  0
 47 46  1  0  0  0  0
M  END
>  <minimizedAffinity>
-6.36427689

$$$$

 OpenBabel03252502103D

 48 52  0  0  0  0  0  0  0  0999 V2000
   37.2410   30.7510   38.7770 C   0  0  0  0  0  0  0  0  0  0  0  0
   37.3710   32.0860   38.7390 N   0  0  0  0  0  0  0  0  0  0  0  0
   37.8650   32.8360   39.7170 C   0  0  0  0  0  0  0  0  0  0  0  0
   38.2840   32.2520   40.8660 N   0  0  0  0  0  0  0  0  0  0  0  0
   38.2060   30.9320   41.0250 C   0  0  0  0  0  0  0  0  0  0  0  0
   38.6310   30.3390   42.1920 C   0  0  0  0  0  0  0  0  0  0  0  0
   38.5590   28.9820   42.3760 C   0  0  0  0  0  0  0  0  0  0  0  0
   38.0390   28.2150   41.3390 C   0  0  0  0  0  0  0  0  0  0  0  0
   37.6250   28.8770   40.1810 C   0  0  0  0  0  0  0  0  0  0  0  0
   37.6860   30.2100   39.9770 C   0  0  0  0  0  0  0  0  0  0  0  0
   37.9210   33.9100   39.5700 H   0  0  0  0  0  0  0  0  0  0  0  0
   39.0220   31.0000   42.9520 H   0  0  0  0  0  0  0  0  0  0  0  0
   38.9070   28.5790   43.3090 H   0  0  0  0  0  0  0  0  0  0  0  0
   37.4110   28.7950   35.7370 C   0  0  0  0  0  0  0  0  0  0  0  0
   36.0900   28.4710   35.4060 C   0  0  0  0  0  0  0  0  0  0  0  0
   35.1120   28.9180   36.2570 C   0  0  0  0  0  0  0  0  0  0  0  0
   35.4460   29.6290   37.3340 N   0  0  0  0  0  0  0  0  0  0  0  0
   36.6790   29.9480   37.6630 C   0  0  0  0  0  0  0  0  0  0  0  0
   37.6610   29.5150   36.8410 N   0  0  0  0  0  0  0  0  0  0  0  0
   33.7950   28.6160   35.9950 N   0  0  0  0  0  0  0  0  0  0  0  0
   32.6790   28.9110   36.9300 C   0  0  0  0  0  0  0  0  0  0  0  0
   31.4140   28.6800   36.1510 C   0  0  0  0  0  0  0  0  0  0  0  0
   31.8330   27.6590   35.1430 C   0  0  0  0  0  0  0  0  0  0  0  0
   33.2550   27.9840   34.8360 C   0  0  0  0  0  0  0  0  0  0  0  0
   38.2240   28.4580   35.0910 H   0  0  0  0  0  0  0  0  0  0  0  0
   32.7380   30.0220   37.1020 H   0  0  0  0  0  0  0  0  0  0  0  0
   32.7470   28.3270   37.8490 H   0  0  0  0  0  0  0  0  0  0  0  0
   31.0730   29.5910   35.6240 H   0  0  0  0  0  0  0  0  0  0  0  0
   30.5890   28.3490   36.8050 H   0  0  0  0  0  0  0  0  0  0  0  0
   31.1860   27.6350   34.2380 H   0  0  0  0  0  0  0  0  0  0  0  0
   31.7110   26.6640   35.6190 H   0  0  0  0  0  0  0  0  0  0  0  0
   33.2500   28.6290   33.9280 H   0  0  0  0  0  0  0  0  0  0  0  0
   33.6990   26.9640   34.6220 H   0  0  0  0  0  0  0  0  0  0  0  0
   35.8750   27.7860   34.2420 N   0  0  0  0  0  0  0  0  0  0  0  0
   36.0270   26.7500   34.0710 H   0  0  0  0  0  0  0  0  0  0  0  0
   35.5310   28.1140   33.3040 H   0  0  0  0  0  0  0  0  0  0  0  0
   38.0120   26.8070   41.6200 C   0  0  0  0  0  0  0  0  0  0  0  0
   36.9490   25.9870   41.9350 C   0  0  0  0  0  0  0  0  0  0  0  0
   35.9900   26.4820   41.9630 H   0  0  0  0  0  0  0  0  0  0  0  0
   37.0910   24.6400   42.1880 C   0  0  0  0  0  3  0  0  0  0  0  0
   38.3290   24.0360   42.1380 C   0  0  0  0  0  0  0  0  0  0  0  0
   38.3680   22.9780   42.3460 H   0  0  0  0  0  0  0  0  0  0  0  0
   39.4270   24.8020   41.8270 C   0  0  0  0  0  0  0  0  0  0  0  0
   40.4070   24.3490   41.7820 H   0  0  0  0  0  0  0  0  0  0  0  0
   39.2440   26.1420   41.5810 C   0  0  0  0  0  3  0  0  0  0  0  0
   37.1140   27.9330   39.2310 N   0  0  0  0  0  0  0  0  0  0  0  0
   37.5280   27.3270   38.4950 H   0  0  0  0  0  0  0  0  0  0  0  0
   36.1700   27.5600   39.0020 H   0  0  0  0  0  0  0  0  0  0  0  0
  1 10  1  0  0  0  0
  2  1  2  0  0  0  0
  2  3  1  0  0  0  0
  3  4  2  0  0  0  0
  4  5  1  0  0  0  0
  5  6  1  0  0  0  0
  6  7  2  0  0  0  0
  6 12  1  0  0  0  0
  7 13  1  0  0  0  0
  8 37  1  0  0  0  0
  8  7  1  0  0  0  0
  9  8  2  0  0  0  0
 10  9  1  0  0  0  0
 10  5  2  0  0  0  0
 11  3  1  0  0  0  0
 14 19  1  0  0  0  0
 15 14  2  0  0  0  0
 15 16  1  0  0  0  0
 16 17  2  0  0  0  0
 17 18  1  0  0  0  0
 18  1  1  0  0  0  0
 19 18  2  0  0  0  0
 20 16  1  0  0  0  0
 20 21  1  0  0  0  0
 21 26  1  0  0  0  0
 21 27  1  0  0  0  0
 22 29  1  0  0  0  0
 22 21  1  0  0  0  0
 23 31  1  0  0  0  0
 23 22  1  0  0  0  0
 24 23  1  0  0  0  0
 24 20  1  0  0  0  0
 25 14  1  0  0  0  0
 28 22  1  0  0  0  0
 30 23  1  0  0  0  0
 32 24  1  0  0  0  0
 33 24  1  0  0  0  0
 34 15  1  0  0  0  0
 35 34  1  0  0  0  0
 36 34  1  0  0  0  0
 37 38  1  0  0  0  0
 38 39  1  0  0  0  0
 38 40  2  0  0  0  0
 41 40  1  0  0  0  0
 41 42  1  0  0  0  0
 43 41  2  0  0  0  0
 44 43  1  0  0  0  0
 45 37  2  0  0  0  0
 45 43  1  0  0  0  0
 46  9  1  0  0  0  0
 47 46  1  0  0  0  0
 48 46  1  0  0  0  0
M  END
>  <minimizedAffinity>
-6.31811476

$$$$

 OpenBabel03252502103D

 48 52  0  0  0  0  0  0  0  0999 V2000
   39.3540   31.8830   39.9130 C   0  0  0  0  0  0  0  0  0  0  0  0
   38.6220   32.9430   39.5380 N   0  0  0  0  0  0  0  0  0  0  0  0
   37.3180   33.0830   39.7400 C   0  0  0  0  0  0  0  0  0  0  0  0
   36.6260   32.1030   40.3730 N   0  0  0  0  0  0  0  0  0  0  0  0
   37.2430   31.0000   40.7930 C   0  0  0  0  0  0  0  0  0  0  0  0
   36.5400   30.0050   41.4350 C   0  0  0  0  0  0  0  0  0  0  0  0
   37.1550   28.8610   41.8760 C   0  0  0  0  0  0  0  0  0  0  0  0
   38.5220   28.7350   41.6530 C   0  0  0  0  0  0  0  0  0  0  0  0
   39.1770   29.7800   40.9970 C   0  0  0  0  0  0  0  0  0  0  0  0
   38.5930   30.9130   40.5540 C   0  0  0  0  0  0  0  0  0  0  0  0
   36.8320   33.9890   39.3910 H   0  0  0  0  0  0  0  0  0  0  0  0
   35.4820   30.1750   41.5700 H   0  0  0  0  0  0  0  0  0  0  0  0
   36.5530   28.1210   42.3690 H   0  0  0  0  0  0  0  0  0  0  0  0
   42.8610   32.2510   40.7300 C   0  0  0  0  0  0  0  0  0  0  0  0
   43.5730   31.7970   39.6140 C   0  0  0  0  0  0  0  0  0  0  0  0
   42.8330   31.3340   38.5550 C   0  0  0  0  0  0  0  0  0  0  0  0
   41.5020   31.3370   38.6270 N   0  0  0  0  0  0  0  0  0  0  0  0
   40.8120   31.7620   39.6630 C   0  0  0  0  0  0  0  0  0  0  0  0
   41.5190   32.2190   40.7200 N   0  0  0  0  0  0  0  0  0  0  0  0
   43.4760   30.8570   37.4360 N   0  0  0  0  0  0  0  0  0  0  0  0
   42.7800   30.1880   36.3070 C   0  0  0  0  0  0  0  0  0  0  0  0
   43.7920   30.0830   35.2000 C   0  0  0  0  0  0  0  0  0  0  0  0
   45.0870   30.0370   35.9450 C   0  0  0  0  0  0  0  0  0  0  0  0
   44.8710   30.8970   37.1440 C   0  0  0  0  0  0  0  0  0  0  0  0
   43.4070   32.6260   41.5980 H   0  0  0  0  0  0  0  0  0  0  0  0
   42.0170   30.9380   35.9590 H   0  0  0  0  0  0  0  0  0  0  0  0
   42.3440   29.2320   36.6010 H   0  0  0  0  0  0  0  0  0  0  0  0
   43.7850   30.9710   34.5390 H   0  0  0  0  0  0  0  0  0  0  0  0
   43.6100   29.1980   34.5660 H   0  0  0  0  0  0  0  0  0  0  0  0
   45.9630   30.3520   35.3350 H   0  0  0  0  0  0  0  0  0  0  0  0
   45.2740   28.9750   36.2040 H   0  0  0  0  0  0  0  0  0  0  0  0
   45.2520   31.9110   36.8860 H   0  0  0  0  0  0  0  0  0  0  0  0
   45.5180   30.3930   37.9250 H   0  0  0  0  0  0  0  0  0  0  0  0
   44.9360   31.9000   39.6430 N   0  0  0  0  0  0  0  0  0  0  0  0
   45.6150   31.2700   40.1600 H   0  0  0  0  0  0  0  0  0  0  0  0
   45.5830   32.5900   39.1850 H   0  0  0  0  0  0  0  0  0  0  0  0
   39.0780   27.5110   42.1570 C   0  0  0  0  0  0  0  0  0  0  0  0
   39.7600   27.2640   43.3300 C   0  0  0  0  0  0  0  0  0  0  0  0
   39.8830   28.1240   43.9700 H   0  0  0  0  0  0  0  0  0  0  0  0
   40.2430   26.0180   43.6680 C   0  0  0  0  0  3  0  0  0  0  0  0
   40.0640   24.9380   42.8320 C   0  0  0  0  0  0  0  0  0  0  0  0
   40.4670   23.9910   43.1590 H   0  0  0  0  0  0  0  0  0  0  0  0
   39.3900   25.1220   41.6480 C   0  0  0  0  0  0  0  0  0  0  0  0
   39.2380   24.2880   40.9780 H   0  0  0  0  0  0  0  0  0  0  0  0
   38.9240   26.3790   41.3470 C   0  0  0  0  0  3  0  0  0  0  0  0
   40.5690   29.4720   40.8510 N   0  0  0  0  0  0  0  0  0  0  0  0
   41.4160   29.5820   41.4430 H   0  0  0  0  0  0  0  0  0  0  0  0
   41.1500   29.0340   40.1070 H   0  0  0  0  0  0  0  0  0  0  0  0
  1 10  1  0  0  0  0
  2  3  1  0  0  0  0
  2  1  2  0  0  0  0
  3  4  2  0  0  0  0
  4  5  1  0  0  0  0
  5  6  1  0  0  0  0
  6 12  1  0  0  0  0
  6  7  2  0  0  0  0
  7 13  1  0  0  0  0
  8  7  1  0  0  0  0
  8 37  1  0  0  0  0
  9  8  2  0  0  0  0
 10  5  2  0  0  0  0
 10  9  1  0  0  0  0
 11  3  1  0  0  0  0
 14 25  1  0  0  0  0
 15 34  1  0  0  0  0
 15 14  2  0  0  0  0
 16 17  2  0  0  0  0
 16 15  1  0  0  0  0
 17 18  1  0  0  0  0
 18  1  1  0  0  0  0
 18 19  2  0  0  0  0
 19 14  1  0  0  0  0
 20 16  1  0  0  0  0
 21 27  1  0  0  0  0
 21 20  1  0  0  0  0
 22 23  1  0  0  0  0
 22 21  1  0  0  0  0
 23 31  1  0  0  0  0
 23 24  1  0  0  0  0
 24 20  1  0  0  0  0
 24 33  1  0  0  0  0
 26 21  1  0  0  0  0
 28 22  1  0  0  0  0
 29 22  1  0  0  0  0
 30 23  1  0  0  0  0
 32 24  1  0  0  0  0
 34 35  1  0  0  0  0
 36 34  1  0  0  0  0
 37 38  1  0  0  0  0
 38 40  2  0  0  0  0
 38 39  1  0  0  0  0
 41 42  1  0  0  0  0
 41 40  1  0  0  0  0
 43 41  2  0  0  0  0
 44 43  1  0  0  0  0
 45 43  1  0  0  0  0
 45 37  2  0  0  0  0
 46  9  1  0  0  0  0
 46 47  1  0  0  0  0
 48 46  1  0  0  0  0
M  END
>  <minimizedAffinity>
-6.25724983

$$$$

 OpenBabel03252502103D

 48 52  0  0  0  0  0  0  0  0999 V2000
   39.3770   28.9860   41.6550 C   0  0  0  0  0  0  0  0  0  0  0  0
   39.9850   28.5600   42.7730 N   0  0  0  0  0  0  0  0  0  0  0  0
   39.7600   27.3980   43.3730 C   0  0  0  0  0  0  0  0  0  0  0  0
   38.8520   26.5370   42.8520 N   0  0  0  0  0  0  0  0  0  0  0  0
   38.1820   26.8460   41.7430 C   0  0  0  0  0  0  0  0  0  0  0  0
   37.2580   25.9720   41.2150 C   0  0  0  0  0  0  0  0  0  0  0  0
   36.5580   26.2700   40.0740 C   0  0  0  0  0  0  0  0  0  0  0  0
   36.8090   27.4930   39.4620 C   0  0  0  0  0  0  0  0  0  0  0  0
   37.7570   28.3350   40.0470 C   0  0  0  0  0  0  0  0  0  0  0  0
   38.4580   28.0630   41.1680 C   0  0  0  0  0  0  0  0  0  0  0  0
   40.3160   27.1630   44.2750 H   0  0  0  0  0  0  0  0  0  0  0  0
   37.1180   25.0420   41.7460 H   0  0  0  0  0  0  0  0  0  0  0  0
   35.8510   25.5470   39.7110 H   0  0  0  0  0  0  0  0  0  0  0  0
   38.8130   32.5030   41.0140 C   0  0  0  0  0  0  0  0  0  0  0  0
   39.7490   32.8790   40.0450 C   0  0  0  0  0  0  0  0  0  0  0  0
   40.6130   31.9060   39.6090 C   0  0  0  0  0  0  0  0  0  0  0  0
   40.5270   30.6730   40.1080 N   0  0  0  0  0  0  0  0  0  0  0  0
   39.6530   30.2960   41.0170 C   0  0  0  0  0  0  0  0  0  0  0  0
   38.7940   31.2390   41.4650 N   0  0  0  0  0  0  0  0  0  0  0  0
   41.5690   32.2190   38.6700 N   0  0  0  0  0  0  0  0  0  0  0  0
   42.6490   31.2910   38.2510 C   0  0  0  0  0  0  0  0  0  0  0  0
   43.2820   31.9120   37.0370 C   0  0  0  0  0  0  0  0  0  0  0  0
   43.0350   33.3700   37.2500 C   0  0  0  0  0  0  0  0  0  0  0  0
   41.7190   33.4390   37.9460 C   0  0  0  0  0  0  0  0  0  0  0  0
   38.1060   33.2440   41.3940 H   0  0  0  0  0  0  0  0  0  0  0  0
   42.1100   30.3740   37.8840 H   0  0  0  0  0  0  0  0  0  0  0  0
   43.3510   31.0840   39.0610 H   0  0  0  0  0  0  0  0  0  0  0  0
   42.7910   31.5940   36.0980 H   0  0  0  0  0  0  0  0  0  0  0  0
   44.3510   31.6470   36.9560 H   0  0  0  0  0  0  0  0  0  0  0  0
   43.0650   33.9680   36.3130 H   0  0  0  0  0  0  0  0  0  0  0  0
   43.8720   33.7530   37.8710 H   0  0  0  0  0  0  0  0  0  0  0  0
   40.9460   33.5980   37.1600 H   0  0  0  0  0  0  0  0  0  0  0  0
   41.8380   34.3520   38.6060 H   0  0  0  0  0  0  0  0  0  0  0  0
   39.6960   34.1610   39.5720 N   0  0  0  0  0  0  0  0  0  0  0  0
   40.0500   35.0370   40.0560 H   0  0  0  0  0  0  0  0  0  0  0  0
   39.3130   34.5470   38.6730 H   0  0  0  0  0  0  0  0  0  0  0  0
   36.0360   27.7120   38.2720 C   0  0  0  0  0  0  0  0  0  0  0  0
   36.3230   27.4020   36.9590 C   0  0  0  0  0  0  0  0  0  0  0  0
   37.2720   26.9090   36.8080 H   0  0  0  0  0  0  0  0  0  0  0  0
   35.4690   27.6890   35.9170 C   0  0  0  0  0  3  0  0  0  0  0  0
   34.2610   28.3140   36.1420 C   0  0  0  0  0  0  0  0  0  0  0  0
   33.6410   28.5080   35.2800 H   0  0  0  0  0  0  0  0  0  0  0  0
   33.9190   28.6460   37.4300 C   0  0  0  0  0  0  0  0  0  0  0  0
   32.9760   29.1360   37.6290 H   0  0  0  0  0  0  0  0  0  0  0  0
   34.7980   28.3430   38.4430 C   0  0  0  0  0  3  0  0  0  0  0  0
   37.8770   29.5440   39.2880 N   0  0  0  0  0  0  0  0  0  0  0  0
   38.4220   29.8430   38.4550 H   0  0  0  0  0  0  0  0  0  0  0  0
   37.4410   30.4880   39.3370 H   0  0  0  0  0  0  0  0  0  0  0  0
  1  2  1  0  0  0  0
  2  3  2  0  0  0  0
  3 11  1  0  0  0  0
  4  3  1  0  0  0  0
  5  4  2  0  0  0  0
  6  5  1  0  0  0  0
  6 12  1  0  0  0  0
  7  6  2  0  0  0  0
  8  9  2  0  0  0  0
  8  7  1  0  0  0  0
  9 10  1  0  0  0  0
 10  1  2  0  0  0  0
 10  5  1  0  0  0  0
 13  7  1  0  0  0  0
 14 25  1  0  0  0  0
 14 19  1  0  0  0  0
 15 14  2  0  0  0  0
 16 15  1  0  0  0  0
 16 17  2  0  0  0  0
 17 18  1  0  0  0  0
 18 19  2  0  0  0  0
 18  1  1  0  0  0  0
 20 16  1  0  0  0  0
 21 20  1  0  0  0  0
 21 27  1  0  0  0  0
 22 23  1  0  0  0  0
 22 21  1  0  0  0  0
 23 31  1  0  0  0  0
 23 24  1  0  0  0  0
 24 33  1  0  0  0  0
 24 20  1  0  0  0  0
 26 21  1  0  0  0  0
 28 22  1  0  0  0  0
 29 22  1  0  0  0  0
 30 23  1  0  0  0  0
 32 24  1  0  0  0  0
 34 15  1  0  0  0  0
 34 35  1  0  0  0  0
 36 34  1  0  0  0  0
 37 45  1  0  0  0  0
 37  8  1  0  0  0  0
 38 37  2  0  0  0  0
 39 38  1  0  0  0  0
 40 41  2  0  0  0  0
 40 38  1  0  0  0  0
 41 43  1  0  0  0  0
 42 41  1  0  0  0  0
 43 44  1  0  0  0  0
 43 45  2  0  0  0  0
 46 48  1  0  0  0  0
 46  9  1  0  0  0  0
 47 46  1  0  0  0  0
M  END
>  <minimizedAffinity>
-6.21678209

$$$$

 OpenBabel03252502103D

 48 52  0  0  0  0  0  0  0  0999 V2000
   37.7060   29.1760   40.4100 C   0  0  0  0  0  0  0  0  0  0  0  0
   37.9610   30.2790   41.1300 N   0  0  0  0  0  0  0  0  0  0  0  0
   38.3230   30.2930   42.4070 C   0  0  0  0  0  0  0  0  0  0  0  0
   38.4600   29.1240   43.0800 N   0  0  0  0  0  0  0  0  0  0  0  0
   38.2340   27.9600   42.4730 C   0  0  0  0  0  0  0  0  0  0  0  0
   38.3720   26.7740   43.1580 C   0  0  0  0  0  0  0  0  0  0  0  0
   38.1440   25.5650   42.5520 C   0  0  0  0  0  0  0  0  0  0  0  0
   37.7660   25.5730   41.2140 C   0  0  0  0  0  0  0  0  0  0  0  0
   37.6430   26.8100   40.5760 C   0  0  0  0  0  0  0  0  0  0  0  0
   37.8620   28.0110   41.1510 C   0  0  0  0  0  0  0  0  0  0  0  0
   38.5030   31.2510   42.8850 H   0  0  0  0  0  0  0  0  0  0  0  0
   38.6680   26.8480   44.1930 H   0  0  0  0  0  0  0  0  0  0  0  0
   38.2680   24.6740   43.1390 H   0  0  0  0  0  0  0  0  0  0  0  0
   38.2750   29.3900   36.8420 C   0  0  0  0  0  0  0  0  0  0  0  0
   37.0120   29.3610   36.2410 C   0  0  0  0  0  0  0  0  0  0  0  0
   35.9320   29.2470   37.0800 C   0  0  0  0  0  0  0  0  0  0  0  0
   36.1210   29.1740   38.3970 N   0  0  0  0  0  0  0  0  0  0  0  0
   37.2980   29.2020   38.9830 C   0  0  0  0  0  0  0  0  0  0  0  0
   38.3780   29.3110   38.1780 N   0  0  0  0  0  0  0  0  0  0  0  0
   34.6630   29.1940   36.5480 N   0  0  0  0  0  0  0  0  0  0  0  0
   33.4450   28.9110   37.3470 C   0  0  0  0  0  0  0  0  0  0  0  0
   32.2780   29.2210   36.4490 C   0  0  0  0  0  0  0  0  0  0  0  0
   32.8440   28.9810   35.0870 C   0  0  0  0  0  0  0  0  0  0  0  0
   34.2750   29.3850   35.1880 C   0  0  0  0  0  0  0  0  0  0  0  0
   39.1660   29.4770   36.2150 H   0  0  0  0  0  0  0  0  0  0  0  0
   33.4380   29.7040   38.1460 H   0  0  0  0  0  0  0  0  0  0  0  0
   33.4410   27.8950   37.7450 H   0  0  0  0  0  0  0  0  0  0  0  0
   31.9560   30.2760   36.5280 H   0  0  0  0  0  0  0  0  0  0  0  0
   31.4050   28.5900   36.6880 H   0  0  0  0  0  0  0  0  0  0  0  0
   32.2970   29.5150   34.2780 H   0  0  0  0  0  0  0  0  0  0  0  0
   32.7150   27.9010   34.8680 H   0  0  0  0  0  0  0  0  0  0  0  0
   34.3380   30.4410   34.8420 H   0  0  0  0  0  0  0  0  0  0  0  0
   34.7810   28.6760   34.4640 H   0  0  0  0  0  0  0  0  0  0  0  0
   36.9490   29.5030   34.8830 N   0  0  0  0  0  0  0  0  0  0  0  0
   37.1610   28.7640   34.1510 H   0  0  0  0  0  0  0  0  0  0  0  0
   36.6910   30.3310   34.2890 H   0  0  0  0  0  0  0  0  0  0  0  0
   37.5590   24.2620   40.6650 C   0  0  0  0  0  0  0  0  0  0  0  0
   38.4410   23.2130   40.5200 C   0  0  0  0  0  0  0  0  0  0  0  0
   39.4380   23.4070   40.8870 H   0  0  0  0  0  0  0  0  0  0  0  0
   38.0860   22.0060   39.9580 C   0  0  0  0  0  3  0  0  0  0  0  0
   36.8030   21.7860   39.5050 C   0  0  0  0  0  0  0  0  0  0  0  0
   36.5930   20.8180   39.0760 H   0  0  0  0  0  0  0  0  0  0  0  0
   35.8780   22.7950   39.6230 C   0  0  0  0  0  0  0  0  0  0  0  0
   34.8660   22.6440   39.2740 H   0  0  0  0  0  0  0  0  0  0  0  0
   36.2710   23.9840   40.1890 C   0  0  0  0  0  3  0  0  0  0  0  0
   37.2410   26.6230   39.2130 N   0  0  0  0  0  0  0  0  0  0  0  0
   37.7320   26.4360   38.3170 H   0  0  0  0  0  0  0  0  0  0  0  0
   36.3290   26.6060   38.7130 H   0  0  0  0  0  0  0  0  0  0  0  0
  1  2  2  0  0  0  0
  1 10  1  0  0  0  0
  2  3  1  0  0  0  0
  3 11  1  0  0  0  0
  3  4  2  0  0  0  0
  5  4  1  0  0  0  0
  5  6  1  0  0  0  0
  6 12  1  0  0  0  0
  7 13  1  0  0  0  0
  7  6  2  0  0  0  0
  8  7  1  0  0  0  0
  9 10  1  0  0  0  0
  9  8  2  0  0  0  0
 10  5  2  0  0  0  0
 14 19  1  0  0  0  0
 15 14  2  0  0  0  0
 15 16  1  0  0  0  0
 16 17  2  0  0  0  0
 17 18  1  0  0  0  0
 18  1  1  0  0  0  0
 19 18  2  0  0  0  0
 20 16  1  0  0  0  0
 20 21  1  0  0  0  0
 21 27  1  0  0  0  0
 21 26  1  0  0  0  0
 22 28  1  0  0  0  0
 22 29  1  0  0  0  0
 22 21  1  0  0  0  0
 23 24  1  0  0  0  0
 23 22  1  0  0  0  0
 24 20  1  0  0  0  0
 25 14  1  0  0  0  0
 30 23  1  0  0  0  0
 31 23  1  0  0  0  0
 32 24  1  0  0  0  0
 33 24  1  0  0  0  0
 34 15  1  0  0  0  0
 35 34  1  0  0  0  0
 36 34  1  0  0  0  0
 37  8  1  0  0  0  0
 38 37  1  0  0  0  0
 38 39  1  0  0  0  0
 40 38  2  0  0  0  0
 41 43  2  0  0  0  0
 41 40  1  0  0  0  0
 42 41  1  0  0  0  0
 43 45  1  0  0  0  0
 44 43  1  0  0  0  0
 45 37  2  0  0  0  0
 46  9  1  0  0  0  0
 47 46  1  0  0  0  0
 48 46  1  0  0  0  0
M  END
>  <minimizedAffinity>
-6.12579203

$$$$

 OpenBabel03252502103D

 48 52  0  0  0  0  0  0  0  0999 V2000
   37.0860   27.3320   39.3440 C   0  0  0  0  0  0  0  0  0  0  0  0
   37.7130   26.2570   39.8460 N   0  0  0  0  0  0  0  0  0  0  0  0
   37.3800   24.9940   39.6080 C   0  0  0  0  0  0  0  0  0  0  0  0
   36.3290   24.7170   38.7970 N   0  0  0  0  0  0  0  0  0  0  0  0
   35.6260   25.7000   38.2370 C   0  0  0  0  0  0  0  0  0  0  0  0
   34.5580   25.4190   37.4150 C   0  0  0  0  0  0  0  0  0  0  0  0
   33.8210   26.4160   36.8290 C   0  0  0  0  0  0  0  0  0  0  0  0
   34.1870   27.7310   37.0920 C   0  0  0  0  0  0  0  0  0  0  0  0
   35.2790   27.9500   37.9340 C   0  0  0  0  0  0  0  0  0  0  0  0
   36.0190   26.9860   38.5220 C   0  0  0  0  0  0  0  0  0  0  0  0
   37.9650   24.2070   40.0720 H   0  0  0  0  0  0  0  0  0  0  0  0
   34.3350   24.3740   37.2590 H   0  0  0  0  0  0  0  0  0  0  0  0
   33.0000   26.1320   36.1970 H   0  0  0  0  0  0  0  0  0  0  0  0
   36.8990   30.4940   41.0930 C   0  0  0  0  0  0  0  0  0  0  0  0
   37.8390   31.3340   40.4850 C   0  0  0  0  0  0  0  0  0  0  0  0
   38.5730   30.7980   39.4580 C   0  0  0  0  0  0  0  0  0  0  0  0
   38.3660   29.5350   39.0840 N   0  0  0  0  0  0  0  0  0  0  0  0
   37.4860   28.7290   39.6390 C   0  0  0  0  0  0  0  0  0  0  0  0
   36.7530   29.2340   40.6570 N   0  0  0  0  0  0  0  0  0  0  0  0
   39.5270   31.5680   38.8320 N   0  0  0  0  0  0  0  0  0  0  0  0
   40.4810   31.0420   37.8240 C   0  0  0  0  0  0  0  0  0  0  0  0
   41.1390   32.2450   37.2070 C   0  0  0  0  0  0  0  0  0  0  0  0
   41.0650   33.2560   38.3060 C   0  0  0  0  0  0  0  0  0  0  0  0
   39.7880   32.9580   39.0160 C   0  0  0  0  0  0  0  0  0  0  0  0
   36.2930   30.8750   41.9180 H   0  0  0  0  0  0  0  0  0  0  0  0
   39.8300   30.6000   37.0190 H   0  0  0  0  0  0  0  0  0  0  0  0
   41.1820   30.3260   38.2560 H   0  0  0  0  0  0  0  0  0  0  0  0
   40.5840   32.6230   36.3280 H   0  0  0  0  0  0  0  0  0  0  0  0
   42.1680   32.0210   36.8760 H   0  0  0  0  0  0  0  0  0  0  0  0
   41.1300   34.3080   37.9480 H   0  0  0  0  0  0  0  0  0  0  0  0
   41.9590   33.1060   38.9450 H   0  0  0  0  0  0  0  0  0  0  0  0
   39.0130   33.6280   38.5800 H   0  0  0  0  0  0  0  0  0  0  0  0
   40.0310   33.2420   40.0850 H   0  0  0  0  0  0  0  0  0  0  0  0
   37.9150   32.6270   40.9230 N   0  0  0  0  0  0  0  0  0  0  0  0
   38.3810   32.9770   41.8100 H   0  0  0  0  0  0  0  0  0  0  0  0
   37.5480   33.5180   40.5020 H   0  0  0  0  0  0  0  0  0  0  0  0
   33.3640   28.7030   36.4280 C   0  0  0  0  0  0  0  0  0  0  0  0
   33.4810   29.2490   35.1680 C   0  0  0  0  0  0  0  0  0  0  0  0
   34.3140   28.8790   34.5900 H   0  0  0  0  0  0  0  0  0  0  0  0
   32.6020   30.1900   34.6740 C   0  0  0  0  0  3  0  0  0  0  0  0
   31.5440   30.6380   35.4340 C   0  0  0  0  0  0  0  0  0  0  0  0
   30.8940   31.3750   34.9850 H   0  0  0  0  0  0  0  0  0  0  0  0
   31.3750   30.1290   36.6990 C   0  0  0  0  0  0  0  0  0  0  0  0
   30.5510   30.4660   37.3120 H   0  0  0  0  0  0  0  0  0  0  0  0
   32.2720   29.1920   37.1550 C   0  0  0  0  0  3  0  0  0  0  0  0
   35.5020   29.3570   38.0950 N   0  0  0  0  0  0  0  0  0  0  0  0
   36.0190   30.0880   37.5680 H   0  0  0  0  0  0  0  0  0  0  0  0
   35.2010   30.0730   38.7870 H   0  0  0  0  0  0  0  0  0  0  0  0
  1 18  1  0  0  0  0
  1  2  1  0  0  0  0
  3  2  2  0  0  0  0
  3 11  1  0  0  0  0
  4  3  1  0  0  0  0
  5 10  1  0  0  0  0
  5  4  2  0  0  0  0
  6  5  1  0  0  0  0
  7  8  1  0  0  0  0
  7  6  2  0  0  0  0
  8  9  2  0  0  0  0
  9 46  1  0  0  0  0
  9 10  1  0  0  0  0
 10  1  2  0  0  0  0
 12  6  1  0  0  0  0
 13  7  1  0  0  0  0
 14 25  1  0  0  0  0
 15 34  1  0  0  0  0
 15 14  2  0  0  0  0
 16 15  1  0  0  0  0
 17 16  2  0  0  0  0
 17 18  1  0  0  0  0
 18 19  2  0  0  0  0
 19 14  1  0  0  0  0
 20 24  1  0  0  0  0
 20 16  1  0  0  0  0
 21 27  1  0  0  0  0
 21 20  1  0  0  0  0
 22 21  1  0  0  0  0
 22 23  1  0  0  0  0
 23 31  1  0  0  0  0
 23 24  1  0  0  0  0
 24 33  1  0  0  0  0
 26 21  1  0  0  0  0
 28 22  1  0  0  0  0
 29 22  1  0  0  0  0
 30 23  1  0  0  0  0
 32 24  1  0  0  0  0
 34 35  1  0  0  0  0
 36 34  1  0  0  0  0
 37  8  1  0  0  0  0
 37 45  1  0  0  0  0
 38 37  2  0  0  0  0
 39 38  1  0  0  0  0
 40 38  1  0  0  0  0
 40 41  2  0  0  0  0
 41 43  1  0  0  0  0
 42 41  1  0  0  0  0
 43 45  2  0  0  0  0
 43 44  1  0  0  0  0
 46 48  1  0  0  0  0
 47 46  1  0  0  0  0
M  END
>  <minimizedAffinity>
-6.09480381

$$$$
