
 OpenBabel03242520253D

 24 25  0  0  0  0  0  0  0  0999 V2000
   44.9740   34.6190   45.4160 C   0  0  0  0  0  0  0  0  0  0  0  0
   46.0440   33.7800   45.0700 C   0  0  0  0  0  0  0  0  0  0  0  0
   46.6980   34.0350   43.8750 C   0  0  0  0  0  0  0  0  0  0  0  0
   46.2830   35.0790   43.0890 N   0  0  0  0  0  0  0  0  0  0  0  0
   45.2450   35.8590   43.4690 C   0  0  0  0  0  0  0  0  0  0  0  0
   44.5930   35.6340   44.6210 N   0  0  0  0  0  0  0  0  0  0  0  0
   44.4560   34.4340   46.3400 H   0  0  0  0  0  0  0  0  0  0  0  0
   45.0760   36.6210   42.7170 H   0  0  0  0  0  0  0  0  0  0  0  0
   46.3920   32.7020   45.9890 C   0  0  0  0  0  0  0  0  0  0  0  0
   47.0880   32.8280   47.1750 C   0  0  0  0  0  0  0  0  0  0  0  0
   47.3810   33.8340   47.4060 H   0  0  0  0  0  0  0  0  0  0  0  0
   47.3510   31.7200   47.9530 C   0  0  0  0  0  0  0  0  0  0  0  0
   46.9310   30.4670   47.5730 C   0  0  0  0  0  0  0  0  0  0  0  0
   47.1240   29.5980   48.1570 H   0  0  0  0  0  0  0  0  0  0  0  0
   46.2350   30.3150   46.3930 C   0  0  0  0  0  0  0  0  0  0  0  0
   45.9070   29.3140   46.1030 H   0  0  0  0  0  0  0  0  0  0  0  0
   45.9760   31.4260   45.6210 C   0  0  0  0  0  0  0  0  0  0  0  0
   47.7620   33.2060   43.5260 O   0  0  0  0  0  0  0  0  0  0  0  0
   49.6330   34.9420   42.8870 O   0  0  0  0  0  0  0  0  0  0  0  0
   48.8730   33.7420   42.3280 P   0  0  0  0  0  0  0  0  0  0  0  0
   49.9090   32.4750   41.9580 O   0  0  0  0  0  0  0  0  0  0  0  0
   50.3490   32.6490   41.0730 H   0  0  0  0  0  0  0  0  0  0  0  0
   47.9850   34.2520   40.9910 O   0  0  0  0  0  0  0  0  0  0  0  0
   48.4580   34.1540   40.1260 H   0  0  0  0  0  0  0  0  0  0  0  0
  1  7  1  0  0  0  0
  2  1  1  0  0  0  0
  2  9  1  0  0  0  0
  3  2  2  0  0  0  0
  4  5  2  0  0  0  0
  4  3  1  0  0  0  0
  5  6  1  0  0  0  0
  6  1  2  0  0  0  0
  8  5  1  0  0  0  0
  9 10  1  0  0  0  0
 10 11  1  0  0  0  0
 10 12  2  0  0  0  0
 13 12  1  0  0  0  0
 13 14  1  0  0  0  0
 15 13  2  0  0  0  0
 16 15  1  0  0  0  0
 17  9  2  0  0  0  0
 17 15  1  0  0  0  0
 18  3  1  0  0  0  0
 20 19  2  0  0  0  0
 20 18  1  0  0  0  0
 21 20  1  0  0  0  0
 22 21  1  0  0  0  0
 23 20  1  0  0  0  0
 24 23  1  0  0  0  0
M  END
>  <minimizedAffinity>
-4.62163544

>  <minimizedRMSD>
5.72009134

$$$$
