
 OpenBabel03252506583D

 38 42  0  0  0  0  0  0  0  0999 V2000
   36.9490   25.7080   40.6380 C   0  0  0  0  0  0  0  0  0  0  0  0
   37.4050   24.4240   40.9320 C   0  0  0  0  0  0  0  0  0  0  0  0
   38.3530   24.1610   41.8900 C   0  0  0  0  0  0  0  0  0  0  0  0
   38.9020   25.2050   42.6180 C   0  0  0  0  0  0  0  0  0  0  0  0
   39.8300   25.3310   43.6120 N   0  0  0  0  0  0  0  0  0  0  0  0
   39.9470   26.6480   43.9270 C   0  0  0  0  0  0  0  0  0  0  0  0
   39.0970   27.3230   43.1300 N   0  0  0  0  0  0  0  0  0  0  0  0
   38.4480   26.4700   42.3240 C   0  0  0  0  0  0  0  0  0  0  0  0
   37.5000   26.7560   41.3690 C   0  0  0  0  0  0  0  0  0  0  0  0
   36.1950   25.8970   39.8740 H   0  0  0  0  0  0  0  0  0  0  0  0
   38.7030   23.1570   42.1130 H   0  0  0  0  0  0  0  0  0  0  0  0
   40.3360   24.5050   44.0240 H   0  0  0  0  0  0  0  0  0  0  0  0
   40.6230   27.0470   44.6960 H   0  0  0  0  0  0  0  0  0  0  0  0
   37.0950   21.1500   39.2690 C   0  0  0  0  0  0  0  0  0  0  0  0
   35.7850   21.1920   38.7640 C   0  0  0  0  0  0  0  0  0  0  0  0
   35.0290   22.3360   38.9990 C   0  0  0  0  0  0  0  0  0  0  0  0
   35.5870   23.3680   39.7070 N   0  0  0  0  0  0  0  0  0  0  0  0
   36.8430   23.2980   40.1780 C   0  0  0  0  0  0  0  0  0  0  0  0
   37.5990   22.1990   39.9640 N   0  0  0  0  0  0  0  0  0  0  0  0
   37.7050   20.2750   39.1020 H   0  0  0  0  0  0  0  0  0  0  0  0
   35.3940   20.3510   38.2120 H   0  0  0  0  0  0  0  0  0  0  0  0
   34.0120   22.4100   38.6260 H   0  0  0  0  0  0  0  0  0  0  0  0
   37.0750   28.1410   41.1250 C   0  0  0  0  0  0  0  0  0  0  0  0
   35.7680   28.5520   41.0290 C   0  0  0  0  0  0  0  0  0  0  0  0
   35.8630   29.9360   40.7950 C   0  0  0  0  0  0  0  0  0  0  0  0
   37.2100   30.2720   40.7640 C   0  0  0  0  0  0  0  0  0  0  0  0
   37.8730   29.1530   40.9680 O   0  0  0  0  0  0  0  0  0  0  0  0
   34.8460   27.9790   41.1080 H   0  0  0  0  0  0  0  0  0  0  0  0
   35.0300   30.6210   40.6620 H   0  0  0  0  0  0  0  0  0  0  0  0
   37.8010   31.6110   40.5470 C   0  0  0  0  0  0  0  0  0  0  0  0
   37.0260   32.5130   39.8480 C   0  0  0  0  0  0  0  0  0  0  0  0
   36.0430   32.2410   39.4850 H   0  0  0  0  0  0  0  0  0  0  0  0
   37.6030   33.7730   39.6540 C   0  0  0  0  0  3  0  0  0  0  0  0
   38.8630   34.0780   40.1350 C   0  0  0  0  0  0  0  0  0  0  0  0
   39.2660   35.0690   39.9590 H   0  0  0  0  0  0  0  0  0  0  0  0
   39.5750   33.1170   40.8260 C   0  0  0  0  0  0  0  0  0  0  0  0
   40.5770   33.3370   41.2180 H   0  0  0  0  0  0  0  0  0  0  0  0
   39.0620   31.8350   41.0590 C   0  0  0  0  0  3  0  0  0  0  0  0
  1  2  2  0  0  0  0
  1  9  1  0  0  0  0
  2  3  1  0  0  0  0
  3 11  1  0  0  0  0
  3  4  2  0  0  0  0
  4  5  1  0  0  0  0
  5  6  1  0  0  0  0
  5 12  1  0  0  0  0
  6 13  1  0  0  0  0
  7  6  2  0  0  0  0
  8  4  1  0  0  0  0
  8  7  1  0  0  0  0
  9  8  2  0  0  0  0
 10  1  1  0  0  0  0
 14 19  1  0  0  0  0
 15 16  1  0  0  0  0
 15 14  2  0  0  0  0
 16 17  2  0  0  0  0
 17 18  1  0  0  0  0
 18  2  1  0  0  0  0
 19 18  2  0  0  0  0
 20 14  1  0  0  0  0
 21 15  1  0  0  0  0
 22 16  1  0  0  0  0
 23  9  1  0  0  0  0
 24 28  1  0  0  0  0
 24 23  2  0  0  0  0
 25 24  1  0  0  0  0
 26 25  2  0  0  0  0
 26 27  1  0  0  0  0
 27 23  1  0  0  0  0
 29 25  1  0  0  0  0
 30 26  1  0  0  0  0
 30 38  1  0  0  0  0
 31 30  2  0  0  0  0
 32 31  1  0  0  0  0
 33 31  1  0  0  0  0
 33 34  2  0  0  0  0
 34 36  1  0  0  0  0
 35 34  1  0  0  0  0
 36 38  2  0  0  0  0
 36 37  1  0  0  0  0
M  END
>  <minimizedAffinity>
-6.56917858

$$$$

 OpenBabel03252506583D

 38 42  0  0  0  0  0  0  0  0999 V2000
   41.0770   30.5130   39.0100 C   0  0  0  0  0  0  0  0  0  0  0  0
   41.6340   31.5300   38.2370 C   0  0  0  0  0  0  0  0  0  0  0  0
   41.2360   32.8420   38.3140 C   0  0  0  0  0  0  0  0  0  0  0  0
   40.2310   33.2040   39.1970 C   0  0  0  0  0  0  0  0  0  0  0  0
   39.5930   34.3610   39.5410 N   0  0  0  0  0  0  0  0  0  0  0  0
   38.6700   34.0760   40.4980 C   0  0  0  0  0  0  0  0  0  0  0  0
   38.7430   32.7520   40.7360 N   0  0  0  0  0  0  0  0  0  0  0  0
   39.6850   32.1970   39.9590 C   0  0  0  0  0  0  0  0  0  0  0  0
   40.0680   30.8770   39.8970 C   0  0  0  0  0  0  0  0  0  0  0  0
   41.4060   29.4780   38.9360 H   0  0  0  0  0  0  0  0  0  0  0  0
   41.6750   33.6280   37.7070 H   0  0  0  0  0  0  0  0  0  0  0  0
   39.8240   35.2890   39.1020 H   0  0  0  0  0  0  0  0  0  0  0  0
   38.0070   34.8170   40.9650 H   0  0  0  0  0  0  0  0  0  0  0  0
   43.4130   29.9710   35.4110 C   0  0  0  0  0  0  0  0  0  0  0  0
   44.7020   30.5200   35.5270 C   0  0  0  0  0  0  0  0  0  0  0  0
   44.9410   31.4130   36.5660 C   0  0  0  0  0  0  0  0  0  0  0  0
   43.9220   31.7190   37.4290 N   0  0  0  0  0  0  0  0  0  0  0  0
   42.7000   31.1780   37.2920 C   0  0  0  0  0  0  0  0  0  0  0  0
   42.4400   30.3080   36.2920 N   0  0  0  0  0  0  0  0  0  0  0  0
   43.1990   29.2750   34.6140 H   0  0  0  0  0  0  0  0  0  0  0  0
   45.4690   30.2450   34.8190 H   0  0  0  0  0  0  0  0  0  0  0  0
   45.9220   31.8610   36.6920 H   0  0  0  0  0  0  0  0  0  0  0  0
   39.4260   29.8690   40.7520 C   0  0  0  0  0  0  0  0  0  0  0  0
   39.3050   29.9640   42.1170 C   0  0  0  0  0  0  0  0  0  0  0  0
   38.6330   28.7830   42.4820 C   0  0  0  0  0  0  0  0  0  0  0  0
   38.3930   28.0540   41.3250 C   0  0  0  0  0  0  0  0  0  0  0  0
   38.8920   28.7620   40.3340 O   0  0  0  0  0  0  0  0  0  0  0  0
   39.6350   30.7490   42.7970 H   0  0  0  0  0  0  0  0  0  0  0  0
   38.3520   28.4930   43.4910 H   0  0  0  0  0  0  0  0  0  0  0  0
   37.7140   26.7450   41.2100 C   0  0  0  0  0  0  0  0  0  0  0  0
   37.2140   26.4250   39.9640 C   0  0  0  0  0  0  0  0  0  0  0  0
   37.3210   27.1040   39.1280 H   0  0  0  0  0  0  0  0  0  0  0  0
   36.5760   25.1820   39.8770 C   0  0  0  0  0  3  0  0  0  0  0  0
   36.4620   24.3450   40.9720 C   0  0  0  0  0  0  0  0  0  0  0  0
   35.9590   23.3930   40.8520 H   0  0  0  0  0  0  0  0  0  0  0  0
   36.9890   24.7410   42.1850 C   0  0  0  0  0  0  0  0  0  0  0  0
   36.9110   24.0920   43.0670 H   0  0  0  0  0  0  0  0  0  0  0  0
   37.6410   25.9690   42.3480 C   0  0  0  0  0  3  0  0  0  0  0  0
  1  9  1  0  0  0  0
  2  3  1  0  0  0  0
  2  1  2  0  0  0  0
  3  4  2  0  0  0  0
  4  5  1  0  0  0  0
  4  8  1  0  0  0  0
  5  6  1  0  0  0  0
  6  7  2  0  0  0  0
  6 13  1  0  0  0  0
  8  7  1  0  0  0  0
  9  8  2  0  0  0  0
  9 23  1  0  0  0  0
 10  1  1  0  0  0  0
 11  3  1  0  0  0  0
 12  5  1  0  0  0  0
 14 15  2  0  0  0  0
 14 19  1  0  0  0  0
 15 16  1  0  0  0  0
 16 22  1  0  0  0  0
 16 17  2  0  0  0  0
 18 17  1  0  0  0  0
 18  2  1  0  0  0  0
 19 18  2  0  0  0  0
 20 14  1  0  0  0  0
 21 15  1  0  0  0  0
 23 24  2  0  0  0  0
 24 25  1  0  0  0  0
 24 28  1  0  0  0  0
 25 29  1  0  0  0  0
 26 25  2  0  0  0  0
 27 23  1  0  0  0  0
 27 26  1  0  0  0  0
 30 26  1  0  0  0  0
 30 38  1  0  0  0  0
 31 30  2  0  0  0  0
 32 31  1  0  0  0  0
 33 31  1  0  0  0  0
 33 34  2  0  0  0  0
 34 36  1  0  0  0  0
 35 34  1  0  0  0  0
 36 38  2  0  0  0  0
 36 37  1  0  0  0  0
M  END
>  <minimizedAffinity>
-6.40755701

$$$$

 OpenBabel03252506583D

 38 42  0  0  0  0  0  0  0  0999 V2000
   40.7780   31.5210   41.5190 C   0  0  0  0  0  0  0  0  0  0  0  0
   41.2630   32.7210   41.0030 C   0  0  0  0  0  0  0  0  0  0  0  0
   40.4960   33.5910   40.2660 C   0  0  0  0  0  0  0  0  0  0  0  0
   39.1690   33.2850   40.0070 C   0  0  0  0  0  0  0  0  0  0  0  0
   38.1360   33.8780   39.3400 N   0  0  0  0  0  0  0  0  0  0  0  0
   37.0430   33.0740   39.4370 C   0  0  0  0  0  0  0  0  0  0  0  0
   37.4080   31.9970   40.1600 N   0  0  0  0  0  0  0  0  0  0  0  0
   38.6960   32.1000   40.5200 C   0  0  0  0  0  0  0  0  0  0  0  0
   39.4460   31.2150   41.2590 C   0  0  0  0  0  0  0  0  0  0  0  0
   41.4020   30.8440   42.1020 H   0  0  0  0  0  0  0  0  0  0  0  0
   40.8820   34.5240   39.8670 H   0  0  0  0  0  0  0  0  0  0  0  0
   38.2320   34.8040   38.8500 H   0  0  0  0  0  0  0  0  0  0  0  0
   36.0630   33.2980   38.9940 H   0  0  0  0  0  0  0  0  0  0  0  0
   44.5200   33.0490   42.6950 C   0  0  0  0  0  0  0  0  0  0  0  0
   45.2890   33.7330   41.7390 C   0  0  0  0  0  0  0  0  0  0  0  0
   44.6840   34.0700   40.5330 C   0  0  0  0  0  0  0  0  0  0  0  0
   43.3730   33.7270   40.3260 N   0  0  0  0  0  0  0  0  0  0  0  0
   42.6640   33.0720   41.2600 C   0  0  0  0  0  0  0  0  0  0  0  0
   43.2270   32.7320   42.4400 N   0  0  0  0  0  0  0  0  0  0  0  0
   44.9630   32.7750   43.6410 H   0  0  0  0  0  0  0  0  0  0  0  0
   46.3180   33.9800   41.9520 H   0  0  0  0  0  0  0  0  0  0  0  0
   45.2420   34.5990   39.7660 H   0  0  0  0  0  0  0  0  0  0  0  0
   38.8530   29.9710   41.7670 C   0  0  0  0  0  0  0  0  0  0  0  0
   38.6380   29.6920   43.0950 C   0  0  0  0  0  0  0  0  0  0  0  0
   38.0620   28.4080   43.0840 C   0  0  0  0  0  0  0  0  0  0  0  0
   37.9660   27.9950   41.7620 C   0  0  0  0  0  0  0  0  0  0  0  0
   38.4560   28.9760   41.0340 O   0  0  0  0  0  0  0  0  0  0  0  0
   38.8480   30.2910   43.9790 H   0  0  0  0  0  0  0  0  0  0  0  0
   37.7490   27.8400   43.9560 H   0  0  0  0  0  0  0  0  0  0  0  0
   37.4260   26.7140   41.2550 C   0  0  0  0  0  0  0  0  0  0  0  0
   37.3570   25.6790   42.1640 C   0  0  0  0  0  0  0  0  0  0  0  0
   37.6840   25.8120   43.1880 H   0  0  0  0  0  0  0  0  0  0  0  0
   36.8430   24.4770   41.6640 C   0  0  0  0  0  3  0  0  0  0  0  0
   36.4370   24.3510   40.3480 C   0  0  0  0  0  0  0  0  0  0  0  0
   36.0460   23.3990   40.0100 H   0  0  0  0  0  0  0  0  0  0  0  0
   36.5400   25.4370   39.5010 C   0  0  0  0  0  0  0  0  0  0  0  0
   36.2230   25.3600   38.4530 H   0  0  0  0  0  0  0  0  0  0  0  0
   37.0430   26.6710   39.9300 C   0  0  0  0  0  3  0  0  0  0  0  0
  1 10  1  0  0  0  0
  2 18  1  0  0  0  0
  2  1  2  0  0  0  0
  3  2  1  0  0  0  0
  4  3  2  0  0  0  0
  4  8  1  0  0  0  0
  5  6  1  0  0  0  0
  5  4  1  0  0  0  0
  6  7  2  0  0  0  0
  7  8  1  0  0  0  0
  8  9  2  0  0  0  0
  9  1  1  0  0  0  0
  9 23  1  0  0  0  0
 11  3  1  0  0  0  0
 12  5  1  0  0  0  0
 13  6  1  0  0  0  0
 14 20  1  0  0  0  0
 15 21  1  0  0  0  0
 15 14  2  0  0  0  0
 16 15  1  0  0  0  0
 17 16  2  0  0  0  0
 17 18  1  0  0  0  0
 18 19  2  0  0  0  0
 19 14  1  0  0  0  0
 22 16  1  0  0  0  0
 23 24  2  0  0  0  0
 24 28  1  0  0  0  0
 25 24  1  0  0  0  0
 25 29  1  0  0  0  0
 26 25  2  0  0  0  0
 27 26  1  0  0  0  0
 27 23  1  0  0  0  0
 30 26  1  0  0  0  0
 30 31  1  0  0  0  0
 31 32  1  0  0  0  0
 33 31  2  0  0  0  0
 34 33  1  0  0  0  0
 35 34  1  0  0  0  0
 36 38  1  0  0  0  0
 36 34  2  0  0  0  0
 37 36  1  0  0  0  0
 38 30  2  0  0  0  0
M  END
>  <minimizedAffinity>
-6.37917805

$$$$

 OpenBabel03252506583D

 38 42  0  0  0  0  0  0  0  0999 V2000
   40.0150   31.3500   40.8310 C   0  0  0  0  0  0  0  0  0  0  0  0
   40.7660   32.3390   40.1970 C   0  0  0  0  0  0  0  0  0  0  0  0
   40.5440   32.7430   38.9040 C   0  0  0  0  0  0  0  0  0  0  0  0
   39.5290   32.1540   38.1650 C   0  0  0  0  0  0  0  0  0  0  0  0
   39.0280   32.2860   36.9020 N   0  0  0  0  0  0  0  0  0  0  0  0
   37.9990   31.4100   36.7530 C   0  0  0  0  0  0  0  0  0  0  0  0
   37.8730   30.7460   37.9180 N   0  0  0  0  0  0  0  0  0  0  0  0
   38.7910   31.1790   38.7950 C   0  0  0  0  0  0  0  0  0  0  0  0
   38.9960   30.7600   40.0890 C   0  0  0  0  0  0  0  0  0  0  0  0
   40.2050   31.0440   41.8590 H   0  0  0  0  0  0  0  0  0  0  0  0
   41.1340   33.5140   38.4180 H   0  0  0  0  0  0  0  0  0  0  0  0
   39.4170   32.9720   36.2050 H   0  0  0  0  0  0  0  0  0  0  0  0
   37.4060   31.2950   35.8350 H   0  0  0  0  0  0  0  0  0  0  0  0
   43.0730   34.9090   41.4820 C   0  0  0  0  0  0  0  0  0  0  0  0
   43.8750   34.1760   42.3710 C   0  0  0  0  0  0  0  0  0  0  0  0
   43.6160   32.8180   42.5180 C   0  0  0  0  0  0  0  0  0  0  0  0
   42.5980   32.2520   41.7960 N   0  0  0  0  0  0  0  0  0  0  0  0
   41.8470   32.9800   40.9530 C   0  0  0  0  0  0  0  0  0  0  0  0
   42.0770   34.3010   40.7920 N   0  0  0  0  0  0  0  0  0  0  0  0
   43.2510   35.9660   41.3470 H   0  0  0  0  0  0  0  0  0  0  0  0
   44.6660   34.6710   42.9160 H   0  0  0  0  0  0  0  0  0  0  0  0
   44.2130   32.2140   43.1960 H   0  0  0  0  0  0  0  0  0  0  0  0
   38.1550   29.7100   40.6800 C   0  0  0  0  0  0  0  0  0  0  0  0
   37.2680   29.9050   41.7100 C   0  0  0  0  0  0  0  0  0  0  0  0
   36.7080   28.6320   41.9230 C   0  0  0  0  0  0  0  0  0  0  0  0
   37.2870   27.7540   41.0170 C   0  0  0  0  0  0  0  0  0  0  0  0
   38.1380   28.4660   40.3090 O   0  0  0  0  0  0  0  0  0  0  0  0
   37.0240   30.8120   42.2610 H   0  0  0  0  0  0  0  0  0  0  0  0
   35.9560   28.3810   42.6670 H   0  0  0  0  0  0  0  0  0  0  0  0
   37.0140   26.3090   40.8630 C   0  0  0  0  0  0  0  0  0  0  0  0
   36.5740   25.9000   39.6210 C   0  0  0  0  0  0  0  0  0  0  0  0
   36.4410   26.6090   38.8140 H   0  0  0  0  0  0  0  0  0  0  0  0
   36.3220   24.5290   39.4970 C   0  0  0  0  0  3  0  0  0  0  0  0
   36.5060   23.6570   40.5550 C   0  0  0  0  0  0  0  0  0  0  0  0
   36.2970   22.6040   40.4080 H   0  0  0  0  0  0  0  0  0  0  0  0
   36.9500   24.1480   41.7670 C   0  0  0  0  0  0  0  0  0  0  0  0
   37.1030   23.4740   42.6210 H   0  0  0  0  0  0  0  0  0  0  0  0
   37.2220   25.5060   41.9660 C   0  0  0  0  0  3  0  0  0  0  0  0
  1 10  1  0  0  0  0
  2  1  1  0  0  0  0
  2 18  1  0  0  0  0
  3  2  2  0  0  0  0
  4  8  2  0  0  0  0
  4  3  1  0  0  0  0
  5  4  1  0  0  0  0
  6  5  1  0  0  0  0
  6  7  2  0  0  0  0
  7  8  1  0  0  0  0
  8  9  1  0  0  0  0
  9 23  1  0  0  0  0
  9  1  2  0  0  0  0
 11  3  1  0  0  0  0
 12  5  1  0  0  0  0
 13  6  1  0  0  0  0
 14 15  1  0  0  0  0
 15 16  2  0  0  0  0
 15 21  1  0  0  0  0
 16 22  1  0  0  0  0
 17 16  1  0  0  0  0
 18 17  2  0  0  0  0
 19 18  1  0  0  0  0
 19 14  2  0  0  0  0
 20 14  1  0  0  0  0
 23 24  2  0  0  0  0
 24 25  1  0  0  0  0
 24 28  1  0  0  0  0
 25 29  1  0  0  0  0
 26 25  2  0  0  0  0
 27 23  1  0  0  0  0
 27 26  1  0  0  0  0
 30 26  1  0  0  0  0
 30 38  1  0  0  0  0
 31 30  2  0  0  0  0
 32 31  1  0  0  0  0
 33 31  1  0  0  0  0
 33 34  2  0  0  0  0
 34 36  1  0  0  0  0
 35 34  1  0  0  0  0
 36 38  2  0  0  0  0
 36 37  1  0  0  0  0
M  END
>  <minimizedAffinity>
-6.31349134

$$$$

 OpenBabel03252506583D

 38 42  0  0  0  0  0  0  0  0999 V2000
   41.0070   31.0660   37.9820 C   0  0  0  0  0  0  0  0  0  0  0  0
   41.9880   32.0290   37.7540 C   0  0  0  0  0  0  0  0  0  0  0  0
   41.8960   33.3230   38.2060 C   0  0  0  0  0  0  0  0  0  0  0  0
   40.7810   33.7200   38.9290 C   0  0  0  0  0  0  0  0  0  0  0  0
   40.3520   34.8740   39.5190 N   0  0  0  0  0  0  0  0  0  0  0  0
   39.1440   34.6380   40.0960 C   0  0  0  0  0  0  0  0  0  0  0  0
   38.8370   33.3480   39.8590 N   0  0  0  0  0  0  0  0  0  0  0  0
   39.8160   32.7660   39.1510 C   0  0  0  0  0  0  0  0  0  0  0  0
   39.8880   31.4660   38.7070 C   0  0  0  0  0  0  0  0  0  0  0  0
   41.0980   30.0450   37.6150 H   0  0  0  0  0  0  0  0  0  0  0  0
   42.6650   34.0670   38.0240 H   0  0  0  0  0  0  0  0  0  0  0  0
   40.9100   35.7660   39.4960 H   0  0  0  0  0  0  0  0  0  0  0  0
   38.5570   35.3880   40.6450 H   0  0  0  0  0  0  0  0  0  0  0  0
   45.4620   31.9200   36.5300 C   0  0  0  0  0  0  0  0  0  0  0  0
   45.4080   30.9050   35.5610 C   0  0  0  0  0  0  0  0  0  0  0  0
   44.1880   30.2740   35.3410 C   0  0  0  0  0  0  0  0  0  0  0  0
   43.0960   30.6640   36.0710 N   0  0  0  0  0  0  0  0  0  0  0  0
   43.1790   31.6390   36.9920 C   0  0  0  0  0  0  0  0  0  0  0  0
   44.3520   32.2680   37.2250 N   0  0  0  0  0  0  0  0  0  0  0  0
   46.3960   32.4280   36.7210 H   0  0  0  0  0  0  0  0  0  0  0  0
   46.2990   30.6360   35.0130 H   0  0  0  0  0  0  0  0  0  0  0  0
   44.1020   29.4830   34.6020 H   0  0  0  0  0  0  0  0  0  0  0  0
   38.8060   30.5140   38.9940 C   0  0  0  0  0  0  0  0  0  0  0  0
   37.6640   30.3780   38.2420 C   0  0  0  0  0  0  0  0  0  0  0  0
   36.9440   29.3620   38.8970 C   0  0  0  0  0  0  0  0  0  0  0  0
   37.6890   28.9520   39.9950 C   0  0  0  0  0  0  0  0  0  0  0  0
   38.7840   29.6810   39.9900 O   0  0  0  0  0  0  0  0  0  0  0  0
   37.3500   30.9080   37.3440 H   0  0  0  0  0  0  0  0  0  0  0  0
   35.9770   28.9690   38.5970 H   0  0  0  0  0  0  0  0  0  0  0  0
   37.3370   27.9070   40.9820 C   0  0  0  0  0  0  0  0  0  0  0  0
   37.0160   28.3500   42.2490 C   0  0  0  0  0  0  0  0  0  0  0  0
   37.0240   29.4050   42.4910 H   0  0  0  0  0  0  0  0  0  0  0  0
   36.6870   27.3450   43.1670 C   0  0  0  0  0  3  0  0  0  0  0  0
   36.6890   26.0080   42.8140 C   0  0  0  0  0  0  0  0  0  0  0  0
   36.4260   25.2690   43.5620 H   0  0  0  0  0  0  0  0  0  0  0  0
   37.0240   25.6490   41.5230 C   0  0  0  0  0  0  0  0  0  0  0  0
   37.0310   24.5940   41.2210 H   0  0  0  0  0  0  0  0  0  0  0  0
   37.3630   26.5970   40.5510 C   0  0  0  0  0  3  0  0  0  0  0  0
  1  9  1  0  0  0  0
  2  1  2  0  0  0  0
  2  3  1  0  0  0  0
  3  4  2  0  0  0  0
  4  8  1  0  0  0  0
  4  5  1  0  0  0  0
  5  6  1  0  0  0  0
  6 13  1  0  0  0  0
  7  6  2  0  0  0  0
  8  7  1  0  0  0  0
  9 23  1  0  0  0  0
  9  8  2  0  0  0  0
 10  1  1  0  0  0  0
 11  3  1  0  0  0  0
 12  5  1  0  0  0  0
 14 20  1  0  0  0  0
 14 19  1  0  0  0  0
 15 14  2  0  0  0  0
 16 15  1  0  0  0  0
 16 17  2  0  0  0  0
 17 18  1  0  0  0  0
 18 19  2  0  0  0  0
 18  2  1  0  0  0  0
 21 15  1  0  0  0  0
 22 16  1  0  0  0  0
 23 27  1  0  0  0  0
 24 25  1  0  0  0  0
 24 23  2  0  0  0  0
 25 26  2  0  0  0  0
 26 30  1  0  0  0  0
 27 26  1  0  0  0  0
 28 24  1  0  0  0  0
 29 25  1  0  0  0  0
 30 31  1  0  0  0  0
 31 32  1  0  0  0  0
 31 33  2  0  0  0  0
 34 33  1  0  0  0  0
 34 35  1  0  0  0  0
 36 34  2  0  0  0  0
 37 36  1  0  0  0  0
 38 30  2  0  0  0  0
 38 36  1  0  0  0  0
M  END
>  <minimizedAffinity>
-6.27567577

$$$$

 OpenBabel03252506583D

 38 42  0  0  0  0  0  0  0  0999 V2000
   36.5060   30.5600   38.6420 C   0  0  0  0  0  0  0  0  0  0  0  0
   35.6420   29.4690   38.7110 C   0  0  0  0  0  0  0  0  0  0  0  0
   35.5320   28.6610   39.8160 C   0  0  0  0  0  0  0  0  0  0  0  0
   36.3080   28.9190   40.9350 C   0  0  0  0  0  0  0  0  0  0  0  0
   36.4700   28.3610   42.1710 N   0  0  0  0  0  0  0  0  0  0  0  0
   37.4020   29.0800   42.8500 C   0  0  0  0  0  0  0  0  0  0  0  0
   37.8090   30.0710   42.0340 N   0  0  0  0  0  0  0  0  0  0  0  0
   37.1590   29.9970   40.8630 C   0  0  0  0  0  0  0  0  0  0  0  0
   37.2850   30.8190   39.7670 C   0  0  0  0  0  0  0  0  0  0  0  0
   36.5790   31.1900   37.7570 H   0  0  0  0  0  0  0  0  0  0  0  0
   34.8560   27.8120   39.8610 H   0  0  0  0  0  0  0  0  0  0  0  0
   35.9310   27.5140   42.4860 H   0  0  0  0  0  0  0  0  0  0  0  0
   37.7360   28.8600   43.8730 H   0  0  0  0  0  0  0  0  0  0  0  0
   34.6100   28.8920   35.2210 C   0  0  0  0  0  0  0  0  0  0  0  0
   33.2400   28.6120   35.3550 C   0  0  0  0  0  0  0  0  0  0  0  0
   32.6910   28.6240   36.6330 C   0  0  0  0  0  0  0  0  0  0  0  0
   33.5010   28.9060   37.7020 N   0  0  0  0  0  0  0  0  0  0  0  0
   34.8080   29.1700   37.5420 C   0  0  0  0  0  0  0  0  0  0  0  0
   35.3660   29.1650   36.3120 N   0  0  0  0  0  0  0  0  0  0  0  0
   35.0630   28.8900   34.2410 H   0  0  0  0  0  0  0  0  0  0  0  0
   32.6460   28.3950   34.4790 H   0  0  0  0  0  0  0  0  0  0  0  0
   31.6370   28.4110   36.7810 H   0  0  0  0  0  0  0  0  0  0  0  0
   38.2220   31.9500   39.7810 C   0  0  0  0  0  0  0  0  0  0  0  0
   37.9130   33.2170   40.2130 C   0  0  0  0  0  0  0  0  0  0  0  0
   39.1090   33.9380   40.0390 C   0  0  0  0  0  0  0  0  0  0  0  0
   40.0580   33.0690   39.5170 C   0  0  0  0  0  0  0  0  0  0  0  0
   39.4600   31.9040   39.3900 O   0  0  0  0  0  0  0  0  0  0  0  0
   36.9780   33.6140   40.6040 H   0  0  0  0  0  0  0  0  0  0  0  0
   39.2620   34.9880   40.2710 H   0  0  0  0  0  0  0  0  0  0  0  0
   41.4630   33.3740   39.1680 C   0  0  0  0  0  0  0  0  0  0  0  0
   42.3790   33.2840   40.1950 C   0  0  0  0  0  0  0  0  0  0  0  0
   42.0730   33.0050   41.1940 H   0  0  0  0  0  0  0  0  0  0  0  0
   43.7020   33.5770   39.8430 C   0  0  0  0  0  3  0  0  0  0  0  0
   44.0510   33.9300   38.5520 C   0  0  0  0  0  0  0  0  0  0  0  0
   45.0890   34.1460   38.3300 H   0  0  0  0  0  0  0  0  0  0  0  0
   43.0710   33.9970   37.5810 C   0  0  0  0  0  0  0  0  0  0  0  0
   43.3240   34.2740   36.5490 H   0  0  0  0  0  0  0  0  0  0  0  0
   41.7270   33.7180   37.8580 C   0  0  0  0  0  3  0  0  0  0  0  0
  1  2  2  0  0  0  0
  1  9  1  0  0  0  0
  2  3  1  0  0  0  0
  3 11  1  0  0  0  0
  3  4  2  0  0  0  0
  4  5  1  0  0  0  0
  5 12  1  0  0  0  0
  5  6  1  0  0  0  0
  6 13  1  0  0  0  0
  7  6  2  0  0  0  0
  8  4  1  0  0  0  0
  8  7  1  0  0  0  0
  9 23  1  0  0  0  0
  9  8  2  0  0  0  0
 10  1  1  0  0  0  0
 14 15  2  0  0  0  0
 14 19  1  0  0  0  0
 15 16  1  0  0  0  0
 16 22  1  0  0  0  0
 16 17  2  0  0  0  0
 18 17  1  0  0  0  0
 18  2  1  0  0  0  0
 19 18  2  0  0  0  0
 20 14  1  0  0  0  0
 21 15  1  0  0  0  0
 23 24  2  0  0  0  0
 24 28  1  0  0  0  0
 25 24  1  0  0  0  0
 25 29  1  0  0  0  0
 26 25  2  0  0  0  0
 27 26  1  0  0  0  0
 27 23  1  0  0  0  0
 30 26  1  0  0  0  0
 30 31  1  0  0  0  0
 31 32  1  0  0  0  0
 33 31  2  0  0  0  0
 34 33  1  0  0  0  0
 35 34  1  0  0  0  0
 36 38  1  0  0  0  0
 36 34  2  0  0  0  0
 37 36  1  0  0  0  0
 38 30  2  0  0  0  0
M  END
>  <minimizedAffinity>
-6.15807962

$$$$

 OpenBabel03252506583D

 38 42  0  0  0  0  0  0  0  0999 V2000
   33.5200   28.9920   38.3860 C   0  0  0  0  0  0  0  0  0  0  0  0
   32.8900   29.2090   37.1620 C   0  0  0  0  0  0  0  0  0  0  0  0
   33.5420   29.1490   35.9550 C   0  0  0  0  0  0  0  0  0  0  0  0
   34.8980   28.8600   35.9220 C   0  0  0  0  0  0  0  0  0  0  0  0
   35.8500   28.7190   34.9530 N   0  0  0  0  0  0  0  0  0  0  0  0
   37.0340   28.4240   35.5530 C   0  0  0  0  0  0  0  0  0  0  0  0
   36.8060   28.3850   36.8800 N   0  0  0  0  0  0  0  0  0  0  0  0
   35.5150   28.6460   37.1320 C   0  0  0  0  0  0  0  0  0  0  0  0
   34.8810   28.7020   38.3520 C   0  0  0  0  0  0  0  0  0  0  0  0
   32.9850   29.0440   39.3340 H   0  0  0  0  0  0  0  0  0  0  0  0
   33.0440   29.3200   35.0060 H   0  0  0  0  0  0  0  0  0  0  0  0
   35.6390   28.8330   33.9280 H   0  0  0  0  0  0  0  0  0  0  0  0
   37.9790   28.2560   35.0180 H   0  0  0  0  0  0  0  0  0  0  0  0
   29.4060   29.6010   36.0280 C   0  0  0  0  0  0  0  0  0  0  0  0
   28.7690   30.0970   37.1770 C   0  0  0  0  0  0  0  0  0  0  0  0
   29.5380   30.2900   38.3200 C   0  0  0  0  0  0  0  0  0  0  0  0
   30.8750   29.9910   38.2810 N   0  0  0  0  0  0  0  0  0  0  0  0
   31.4560   29.5170   37.1660 C   0  0  0  0  0  0  0  0  0  0  0  0
   30.7320   29.3210   36.0420 N   0  0  0  0  0  0  0  0  0  0  0  0
   28.8340   29.4420   35.1260 H   0  0  0  0  0  0  0  0  0  0  0  0
   27.7120   30.3170   37.1550 H   0  0  0  0  0  0  0  0  0  0  0  0
   29.0850   30.6710   39.2300 H   0  0  0  0  0  0  0  0  0  0  0  0
   35.6240   28.4580   39.5950 C   0  0  0  0  0  0  0  0  0  0  0  0
   35.7250   29.3520   40.6340 C   0  0  0  0  0  0  0  0  0  0  0  0
   36.5200   28.6830   41.5830 C   0  0  0  0  0  0  0  0  0  0  0  0
   36.8470   27.4380   41.0630 C   0  0  0  0  0  0  0  0  0  0  0  0
   36.2790   27.3740   39.8780 O   0  0  0  0  0  0  0  0  0  0  0  0
   35.3060   30.3520   40.7400 H   0  0  0  0  0  0  0  0  0  0  0  0
   36.8240   29.0730   42.5500 H   0  0  0  0  0  0  0  0  0  0  0  0
   37.6670   26.3830   41.6990 C   0  0  0  0  0  0  0  0  0  0  0  0
   38.6930   26.8170   42.5130 C   0  0  0  0  0  0  0  0  0  0  0  0
   38.8740   27.8730   42.6690 H   0  0  0  0  0  0  0  0  0  0  0  0
   39.4560   25.8030   43.1050 C   0  0  0  0  0  3  0  0  0  0  0  0
   39.1880   24.4650   42.8790 C   0  0  0  0  0  0  0  0  0  0  0  0
   39.8080   23.7190   43.3610 H   0  0  0  0  0  0  0  0  0  0  0  0
   38.1410   24.1150   42.0480 C   0  0  0  0  0  0  0  0  0  0  0  0
   37.9100   23.0590   41.8550 H   0  0  0  0  0  0  0  0  0  0  0  0
   37.3350   25.0730   41.4220 C   0  0  0  0  0  3  0  0  0  0  0  0
  1 10  1  0  0  0  0
  2 18  1  0  0  0  0
  2  1  2  0  0  0  0
  3  2  1  0  0  0  0
  4  3  2  0  0  0  0
  4  8  1  0  0  0  0
  5  6  1  0  0  0  0
  5  4  1  0  0  0  0
  6  7  2  0  0  0  0
  7  8  1  0  0  0  0
  8  9  2  0  0  0  0
  9  1  1  0  0  0  0
  9 23  1  0  0  0  0
 11  3  1  0  0  0  0
 12  5  1  0  0  0  0
 13  6  1  0  0  0  0
 14 19  2  0  0  0  0
 14 15  1  0  0  0  0
 15 16  2  0  0  0  0
 16 22  1  0  0  0  0
 17 16  1  0  0  0  0
 18 17  2  0  0  0  0
 19 18  1  0  0  0  0
 20 14  1  0  0  0  0
 21 15  1  0  0  0  0
 23 27  1  0  0  0  0
 23 24  2  0  0  0  0
 24 28  1  0  0  0  0
 24 25  1  0  0  0  0
 25 29  1  0  0  0  0
 26 25  2  0  0  0  0
 26 30  1  0  0  0  0
 27 26  1  0  0  0  0
 30 31  1  0  0  0  0
 31 32  1  0  0  0  0
 31 33  2  0  0  0  0
 34 33  1  0  0  0  0
 34 35  1  0  0  0  0
 36 34  2  0  0  0  0
 37 36  1  0  0  0  0
 38 30  2  0  0  0  0
 38 36  1  0  0  0  0
M  END
>  <minimizedAffinity>
-6.13489389

$$$$

 OpenBabel03252506583D

 38 42  0  0  0  0  0  0  0  0999 V2000
   41.2360   31.5560   40.2370 C   0  0  0  0  0  0  0  0  0  0  0  0
   41.7200   32.4820   39.3150 C   0  0  0  0  0  0  0  0  0  0  0  0
   41.0590   32.8110   38.1570 C   0  0  0  0  0  0  0  0  0  0  0  0
   39.8460   32.2060   37.8630 C   0  0  0  0  0  0  0  0  0  0  0  0
   38.9330   32.2730   36.8500 N   0  0  0  0  0  0  0  0  0  0  0  0
   37.9140   31.4180   37.1320 C   0  0  0  0  0  0  0  0  0  0  0  0
   38.2030   30.8320   38.3100 N   0  0  0  0  0  0  0  0  0  0  0  0
   39.3730   31.2930   38.7770 C   0  0  0  0  0  0  0  0  0  0  0  0
   40.0180   30.9500   39.9420 C   0  0  0  0  0  0  0  0  0  0  0  0
   41.7740   31.3090   41.1510 H   0  0  0  0  0  0  0  0  0  0  0  0
   41.4430   33.5330   37.4430 H   0  0  0  0  0  0  0  0  0  0  0  0
   39.0560   32.9020   36.0160 H   0  0  0  0  0  0  0  0  0  0  0  0
   37.0360   31.2630   36.4910 H   0  0  0  0  0  0  0  0  0  0  0  0
   45.0460   33.9910   38.8280 C   0  0  0  0  0  0  0  0  0  0  0  0
   45.4000   34.3670   40.1340 C   0  0  0  0  0  0  0  0  0  0  0  0
   44.4980   34.1000   41.1590 C   0  0  0  0  0  0  0  0  0  0  0  0
   43.3110   33.4860   40.8580 N   0  0  0  0  0  0  0  0  0  0  0  0
   43.0010   33.1380   39.5980 C   0  0  0  0  0  0  0  0  0  0  0  0
   43.8580   33.3860   38.5840 N   0  0  0  0  0  0  0  0  0  0  0  0
   45.7270   34.1850   38.0130 H   0  0  0  0  0  0  0  0  0  0  0  0
   46.3490   34.8490   40.3170 H   0  0  0  0  0  0  0  0  0  0  0  0
   44.7320   34.3760   42.1830 H   0  0  0  0  0  0  0  0  0  0  0  0
   39.4340   29.9630   40.8600 C   0  0  0  0  0  0  0  0  0  0  0  0
   38.9700   30.2460   42.1220 C   0  0  0  0  0  0  0  0  0  0  0  0
   38.5140   29.0060   42.6040 C   0  0  0  0  0  0  0  0  0  0  0  0
   38.7290   28.0580   41.6130 C   0  0  0  0  0  0  0  0  0  0  0  0
   39.2800   28.6990   40.6040 O   0  0  0  0  0  0  0  0  0  0  0  0
   38.9420   31.1920   42.6610 H   0  0  0  0  0  0  0  0  0  0  0  0
   38.0720   28.8220   43.5800 H   0  0  0  0  0  0  0  0  0  0  0  0
   38.4110   26.6140   41.6620 C   0  0  0  0  0  0  0  0  0  0  0  0
   39.3840   25.7590   41.1880 C   0  0  0  0  0  0  0  0  0  0  0  0
   40.3230   26.1380   40.8050 H   0  0  0  0  0  0  0  0  0  0  0  0
   39.0620   24.3970   41.2440 C   0  0  0  0  0  3  0  0  0  0  0  0
   37.8500   23.9560   41.7420 C   0  0  0  0  0  0  0  0  0  0  0  0
   37.6490   22.8920   41.7640 H   0  0  0  0  0  0  0  0  0  0  0  0
   36.9290   24.8790   42.1970 C   0  0  0  0  0  0  0  0  0  0  0  0
   35.9600   24.5520   42.5970 H   0  0  0  0  0  0  0  0  0  0  0  0
   37.1800   26.2560   42.1730 C   0  0  0  0  0  3  0  0  0  0  0  0
  1 10  1  0  0  0  0
  2 18  1  0  0  0  0
  2  1  2  0  0  0  0
  3  2  1  0  0  0  0
  4  3  2  0  0  0  0
  4  8  1  0  0  0  0
  5  6  1  0  0  0  0
  5  4  1  0  0  0  0
  6  7  2  0  0  0  0
  7  8  1  0  0  0  0
  8  9  2  0  0  0  0
  9  1  1  0  0  0  0
  9 23  1  0  0  0  0
 11  3  1  0  0  0  0
 12  5  1  0  0  0  0
 13  6  1  0  0  0  0
 14 15  1  0  0  0  0
 15 21  1  0  0  0  0
 15 16  2  0  0  0  0
 16 22  1  0  0  0  0
 17 16  1  0  0  0  0
 18 17  2  0  0  0  0
 19 14  2  0  0  0  0
 19 18  1  0  0  0  0
 20 14  1  0  0  0  0
 23 24  2  0  0  0  0
 24 25  1  0  0  0  0
 24 28  1  0  0  0  0
 25 29  1  0  0  0  0
 26 30  1  0  0  0  0
 26 25  2  0  0  0  0
 27 23  1  0  0  0  0
 27 26  1  0  0  0  0
 30 38  1  0  0  0  0
 31 33  1  0  0  0  0
 31 30  2  0  0  0  0
 32 31  1  0  0  0  0
 33 34  2  0  0  0  0
 34 35  1  0  0  0  0
 34 36  1  0  0  0  0
 36 37  1  0  0  0  0
 38 36  2  0  0  0  0
M  END
>  <minimizedAffinity>
-6.10862017

$$$$

 OpenBabel03252506583D

 38 42  0  0  0  0  0  0  0  0999 V2000
   40.5640   27.4260   42.3970 C   0  0  0  0  0  0  0  0  0  0  0  0
   41.2910   26.2710   42.6750 C   0  0  0  0  0  0  0  0  0  0  0  0
   40.7340   25.0160   42.7060 C   0  0  0  0  0  0  0  0  0  0  0  0
   39.3800   24.8610   42.4530 C   0  0  0  0  0  0  0  0  0  0  0  0
   38.5030   23.8150   42.3960 N   0  0  0  0  0  0  0  0  0  0  0  0
   37.2710   24.3020   42.0930 C   0  0  0  0  0  0  0  0  0  0  0  0
   37.3940   25.6370   41.9650 N   0  0  0  0  0  0  0  0  0  0  0  0
   38.6660   26.0040   42.1780 C   0  0  0  0  0  0  0  0  0  0  0  0
   39.2040   27.2690   42.1420 C   0  0  0  0  0  0  0  0  0  0  0  0
   41.0240   28.4130   42.3760 H   0  0  0  0  0  0  0  0  0  0  0  0
   41.3080   24.1210   42.9240 H   0  0  0  0  0  0  0  0  0  0  0  0
   38.7960   22.8190   42.5690 H   0  0  0  0  0  0  0  0  0  0  0  0
   36.3670   23.6870   41.9810 H   0  0  0  0  0  0  0  0  0  0  0  0
   44.6580   27.7350   42.9950 C   0  0  0  0  0  0  0  0  0  0  0  0
   45.4170   26.6470   43.4580 C   0  0  0  0  0  0  0  0  0  0  0  0
   44.7670   25.4330   43.6540 C   0  0  0  0  0  0  0  0  0  0  0  0
   43.4250   25.3450   43.3890 N   0  0  0  0  0  0  0  0  0  0  0  0
   42.7270   26.4040   42.9480 C   0  0  0  0  0  0  0  0  0  0  0  0
   43.3320   27.5950   42.7490 N   0  0  0  0  0  0  0  0  0  0  0  0
   45.1350   28.6900   42.8340 H   0  0  0  0  0  0  0  0  0  0  0  0
   46.4720   26.7700   43.6510 H   0  0  0  0  0  0  0  0  0  0  0  0
   45.3160   24.5670   44.0110 H   0  0  0  0  0  0  0  0  0  0  0  0
   38.3620   28.4340   41.8390 C   0  0  0  0  0  0  0  0  0  0  0  0
   36.9970   28.4720   41.9880 C   0  0  0  0  0  0  0  0  0  0  0  0
   36.6460   29.7730   41.5810 C   0  0  0  0  0  0  0  0  0  0  0  0
   37.8110   30.4330   41.2140 C   0  0  0  0  0  0  0  0  0  0  0  0
   38.7930   29.5750   41.3940 O   0  0  0  0  0  0  0  0  0  0  0  0
   36.3090   27.7030   42.3360 H   0  0  0  0  0  0  0  0  0  0  0  0
   35.6420   30.1860   41.5570 H   0  0  0  0  0  0  0  0  0  0  0  0
   37.9420   31.8210   40.7180 C   0  0  0  0  0  0  0  0  0  0  0  0
   39.0130   32.5430   41.2030 C   0  0  0  0  0  0  0  0  0  0  0  0
   39.7100   32.1040   41.9050 H   0  0  0  0  0  0  0  0  0  0  0  0
   39.1180   33.8530   40.7210 C   0  0  0  0  0  3  0  0  0  0  0  0
   38.2040   34.3730   39.8230 C   0  0  0  0  0  0  0  0  0  0  0  0
   38.3300   35.3930   39.4800 H   0  0  0  0  0  0  0  0  0  0  0  0
   37.1580   33.5830   39.3870 C   0  0  0  0  0  0  0  0  0  0  0  0
   36.4220   33.9750   38.6730 H   0  0  0  0  0  0  0  0  0  0  0  0
   36.9890   32.2640   39.8240 C   0  0  0  0  0  3  0  0  0  0  0  0
  1  2  1  0  0  0  0
  2  3  2  0  0  0  0
  2 18  1  0  0  0  0
  3 11  1  0  0  0  0
  4  3  1  0  0  0  0
  5  4  1  0  0  0  0
  5 12  1  0  0  0  0
  6  5  1  0  0  0  0
  7  6  2  0  0  0  0
  7  8  1  0  0  0  0
  8  4  2  0  0  0  0
  9  8  1  0  0  0  0
  9  1  2  0  0  0  0
 10  1  1  0  0  0  0
 13  6  1  0  0  0  0
 14 15  1  0  0  0  0
 15 21  1  0  0  0  0
 15 16  2  0  0  0  0
 16 22  1  0  0  0  0
 17 16  1  0  0  0  0
 18 17  2  0  0  0  0
 19 18  1  0  0  0  0
 19 14  2  0  0  0  0
 20 14  1  0  0  0  0
 23 24  2  0  0  0  0
 23  9  1  0  0  0  0
 24 28  1  0  0  0  0
 25 24  1  0  0  0  0
 26 27  1  0  0  0  0
 26 25  2  0  0  0  0
 27 23  1  0  0  0  0
 29 25  1  0  0  0  0
 30 31  1  0  0  0  0
 30 26  1  0  0  0  0
 31 32  1  0  0  0  0
 33 31  2  0  0  0  0
 34 33  1  0  0  0  0
 35 34  1  0  0  0  0
 36 34  2  0  0  0  0
 36 38  1  0  0  0  0
 37 36  1  0  0  0  0
 38 30  2  0  0  0  0
M  END
>  <minimizedAffinity>
-6.07893133

$$$$
