
 OpenBabel03252502173D

 24 25  0  0  0  0  0  0  0  0999 V2000
   40.2580   31.0130   39.3680 C   0  0  0  0  0  0  0  0  0  0  0  0
   39.3950   30.4240   40.3080 C   0  0  0  0  0  0  0  0  0  0  0  0
   39.4800   29.0460   40.5110 C   0  0  0  0  0  0  0  0  0  0  0  0
   40.3920   28.3650   39.7880 N   0  0  0  0  0  0  0  0  0  0  0  0
   41.2110   28.9290   38.8960 C   0  0  0  0  0  0  0  0  0  0  0  0
   41.1400   30.2540   38.6890 N   0  0  0  0  0  0  0  0  0  0  0  0
   40.2060   32.0710   39.1980 H   0  0  0  0  0  0  0  0  0  0  0  0
   41.9300   28.3710   38.3300 H   0  0  0  0  0  0  0  0  0  0  0  0
   38.5740   28.4570   41.4910 C   0  0  0  0  0  0  0  0  0  0  0  0
   37.4050   27.9060   40.9570 C   0  0  0  0  0  0  0  0  0  0  0  0
   37.1760   27.9050   39.9170 H   0  0  0  0  0  0  0  0  0  0  0  0
   36.5200   27.3380   41.8560 C   0  0  0  0  0  3  0  0  0  0  0  0
   36.7230   27.2880   43.2230 C   0  0  0  0  0  0  0  0  0  0  0  0
   35.9860   26.8270   43.8660 H   0  0  0  0  0  0  0  0  0  0  0  0
   37.8990   27.8520   43.6780 C   0  0  0  0  0  0  0  0  0  0  0  0
   38.0550   27.8110   44.7500 H   0  0  0  0  0  0  0  0  0  0  0  0
   38.8270   28.4330   42.8650 C   0  0  0  0  0  3  0  0  0  0  0  0
   38.5180   31.2720   40.9620 O   0  0  0  0  0  0  0  0  0  0  0  0
   36.8030   30.9810   38.9700 O   0  0  0  0  0  0  0  0  0  0  0  0
   36.9800   31.6480   40.2950 P   0  0  0  0  0  0  0  0  0  0  0  0
   35.7380   31.1020   41.3160 O   0  0  0  0  0  0  0  0  0  0  0  0
   35.8830   30.1640   41.5360 H   0  0  0  0  0  0  0  0  0  0  0  0
   36.8200   33.3230   40.0870 O   0  0  0  0  0  0  0  0  0  0  0  0
   37.6940   33.7610   40.0470 H   0  0  0  0  0  0  0  0  0  0  0  0
  1  2  1  0  0  0  0
  2  3  2  0  0  0  0
  2 18  1  0  0  0  0
  3  9  1  0  0  0  0
  4  3  1  0  0  0  0
  5  4  2  0  0  0  0
  6  5  1  0  0  0  0
  6  1  2  0  0  0  0
  7  1  1  0  0  0  0
  8  5  1  0  0  0  0
  9 17  1  0  0  0  0
 10  9  2  0  0  0  0
 10 12  1  0  0  0  0
 11 10  1  0  0  0  0
 12 13  2  0  0  0  0
 13 15  1  0  0  0  0
 13 14  1  0  0  0  0
 15 16  1  0  0  0  0
 17 15  2  0  0  0  0
 19 20  2  0  0  0  0
 20 18  1  0  0  0  0
 20 21  1  0  0  0  0
 21 22  1  0  0  0  0
 23 20  1  0  0  0  0
 24 23  1  0  0  0  0
M  END
>  <minimizedAffinity>
-5.17575979

$$$$

 OpenBabel03252502173D

 24 25  0  0  0  0  0  0  0  0999 V2000
   38.3080   29.2470   42.5800 C   0  0  0  0  0  0  0  0  0  0  0  0
   37.5910   28.2100   41.9570 C   0  0  0  0  0  0  0  0  0  0  0  0
   38.2820   27.0480   41.6080 C   0  0  0  0  0  0  0  0  0  0  0  0
   39.5980   26.9950   41.8930 N   0  0  0  0  0  0  0  0  0  0  0  0
   40.2740   27.9830   42.4850 C   0  0  0  0  0  0  0  0  0  0  0  0
   39.6250   29.1070   42.8270 N   0  0  0  0  0  0  0  0  0  0  0  0
   37.7940   30.1480   42.8540 H   0  0  0  0  0  0  0  0  0  0  0  0
   41.3230   27.9240   42.7030 H   0  0  0  0  0  0  0  0  0  0  0  0
   37.5170   25.9850   40.9630 C   0  0  0  0  0  0  0  0  0  0  0  0
   37.3220   26.1500   39.5880 C   0  0  0  0  0  0  0  0  0  0  0  0
   37.6960   26.9810   39.0360 H   0  0  0  0  0  0  0  0  0  0  0  0
   36.6020   25.1630   38.9410 C   0  0  0  0  0  3  0  0  0  0  0  0
   36.0740   24.0470   39.5640 C   0  0  0  0  0  0  0  0  0  0  0  0
   35.5210   23.3150   38.9930 H   0  0  0  0  0  0  0  0  0  0  0  0
   36.3060   23.9510   40.9230 C   0  0  0  0  0  0  0  0  0  0  0  0
   35.8910   23.0760   41.4090 H   0  0  0  0  0  0  0  0  0  0  0  0
   37.0050   24.8760   41.6410 C   0  0  0  0  0  3  0  0  0  0  0  0
   36.2430   28.4310   41.7380 O   0  0  0  0  0  0  0  0  0  0  0  0
   36.6160   29.6640   39.4280 O   0  0  0  0  0  0  0  0  0  0  0  0
   35.7070   29.6140   40.6130 P   0  0  0  0  0  0  0  0  0  0  0  0
   34.1490   29.2380   40.0510 O   0  0  0  0  0  0  0  0  0  0  0  0
   34.1280   28.3170   39.7350 H   0  0  0  0  0  0  0  0  0  0  0  0
   35.6730   31.1460   41.3380 O   0  0  0  0  0  0  0  0  0  0  0  0
   36.2580   31.1820   42.1220 H   0  0  0  0  0  0  0  0  0  0  0  0
  1  6  1  0  0  0  0
  1  7  1  0  0  0  0
  2  1  2  0  0  0  0
  3  4  2  0  0  0  0
  3  2  1  0  0  0  0
  4  5  1  0  0  0  0
  5  8  1  0  0  0  0
  5  6  2  0  0  0  0
  9  3  1  0  0  0  0
  9 17  1  0  0  0  0
 10  9  2  0  0  0  0
 11 10  1  0  0  0  0
 12 13  2  0  0  0  0
 12 10  1  0  0  0  0
 13 15  1  0  0  0  0
 14 13  1  0  0  0  0
 15 16  1  0  0  0  0
 15 17  2  0  0  0  0
 18  2  1  0  0  0  0
 19 20  2  0  0  0  0
 20 23  1  0  0  0  0
 20 18  1  0  0  0  0
 21 20  1  0  0  0  0
 22 21  1  0  0  0  0
 23 24  1  0  0  0  0
M  END
>  <minimizedAffinity>
-5.09671926

$$$$

 OpenBabel03252502173D

 24 25  0  0  0  0  0  0  0  0999 V2000
   38.6110   29.7410   42.1250 C   0  0  0  0  0  0  0  0  0  0  0  0
   37.7890   29.5180   41.0070 C   0  0  0  0  0  0  0  0  0  0  0  0
   36.7100   28.6440   41.1450 C   0  0  0  0  0  0  0  0  0  0  0  0
   36.5240   28.0670   42.3490 N   0  0  0  0  0  0  0  0  0  0  0  0
   37.3080   28.2830   43.4090 C   0  0  0  0  0  0  0  0  0  0  0  0
   38.3510   29.1210   43.2920 N   0  0  0  0  0  0  0  0  0  0  0  0
   39.4460   30.4090   42.0370 H   0  0  0  0  0  0  0  0  0  0  0  0
   37.1460   27.8140   44.3600 H   0  0  0  0  0  0  0  0  0  0  0  0
   35.8710   28.4280   39.9700 C   0  0  0  0  0  0  0  0  0  0  0  0
   36.2700   27.3710   39.1460 C   0  0  0  0  0  0  0  0  0  0  0  0
   37.1180   26.7590   39.3440 H   0  0  0  0  0  0  0  0  0  0  0  0
   35.4990   27.1350   38.0230 C   0  0  0  0  0  3  0  0  0  0  0  0
   34.3810   27.8710   37.6760 C   0  0  0  0  0  0  0  0  0  0  0  0
   33.8260   27.6290   36.7810 H   0  0  0  0  0  0  0  0  0  0  0  0
   34.0470   28.8990   38.5360 C   0  0  0  0  0  0  0  0  0  0  0  0
   33.1690   29.4740   38.2620 H   0  0  0  0  0  0  0  0  0  0  0  0
   34.7480   29.2020   39.6660 C   0  0  0  0  0  3  0  0  0  0  0  0
   38.1240   30.1920   39.8460 O   0  0  0  0  0  0  0  0  0  0  0  0
   39.1220   32.6100   40.2340 O   0  0  0  0  0  0  0  0  0  0  0  0
   37.9190   31.8930   39.7130 P   0  0  0  0  0  0  0  0  0  0  0  0
   37.7140   32.3440   38.0880 O   0  0  0  0  0  0  0  0  0  0  0  0
   38.4310   31.9630   37.5500 H   0  0  0  0  0  0  0  0  0  0  0  0
   36.5620   32.3950   40.5960 O   0  0  0  0  0  0  0  0  0  0  0  0
   36.3240   31.7420   41.2850 H   0  0  0  0  0  0  0  0  0  0  0  0
  1  6  1  0  0  0  0
  2  3  1  0  0  0  0
  2  1  2  0  0  0  0
  3  4  2  0  0  0  0
  4  5  1  0  0  0  0
  5  8  1  0  0  0  0
  6  5  2  0  0  0  0
  7  1  1  0  0  0  0
  9  3  1  0  0  0  0
 10 11  1  0  0  0  0
 10  9  2  0  0  0  0
 12 10  1  0  0  0  0
 13 12  2  0  0  0  0
 13 15  1  0  0  0  0
 14 13  1  0  0  0  0
 15 17  2  0  0  0  0
 16 15  1  0  0  0  0
 17  9  1  0  0  0  0
 18  2  1  0  0  0  0
 20 18  1  0  0  0  0
 20 19  2  0  0  0  0
 20 23  1  0  0  0  0
 21 20  1  0  0  0  0
 22 21  1  0  0  0  0
 23 24  1  0  0  0  0
M  END
>  <minimizedAffinity>
-4.97814274

$$$$

 OpenBabel03252502173D

 24 25  0  0  0  0  0  0  0  0999 V2000
   38.7380   29.8560   42.4810 C   0  0  0  0  0  0  0  0  0  0  0  0
   37.9970   28.7520   42.0220 C   0  0  0  0  0  0  0  0  0  0  0  0
   38.6840   27.5720   41.7270 C   0  0  0  0  0  0  0  0  0  0  0  0
   40.0210   27.5680   41.9050 N   0  0  0  0  0  0  0  0  0  0  0  0
   40.7190   28.6190   42.3420 C   0  0  0  0  0  0  0  0  0  0  0  0
   40.0730   29.7610   42.6280 N   0  0  0  0  0  0  0  0  0  0  0  0
   38.2270   30.7700   42.7110 H   0  0  0  0  0  0  0  0  0  0  0  0
   41.7830   28.5970   42.4760 H   0  0  0  0  0  0  0  0  0  0  0  0
   37.8940   26.4410   41.2520 C   0  0  0  0  0  0  0  0  0  0  0  0
   37.5570   25.5030   42.2340 C   0  0  0  0  0  0  0  0  0  0  0  0
   37.8450   25.5910   43.2550 H   0  0  0  0  0  0  0  0  0  0  0  0
   36.8080   24.4160   41.8220 C   0  0  0  0  0  3  0  0  0  0  0  0
   36.3850   24.2090   40.5220 C   0  0  0  0  0  0  0  0  0  0  0  0
   35.8010   23.3340   40.2720 H   0  0  0  0  0  0  0  0  0  0  0  0
   36.7550   25.1760   39.6070 C   0  0  0  0  0  0  0  0  0  0  0  0
   36.4210   25.0110   38.5890 H   0  0  0  0  0  0  0  0  0  0  0  0
   37.4910   26.2790   39.9240 C   0  0  0  0  0  3  0  0  0  0  0  0
   36.6310   28.9300   41.8960 O   0  0  0  0  0  0  0  0  0  0  0  0
   36.8080   29.7980   39.4040 O   0  0  0  0  0  0  0  0  0  0  0  0
   35.9710   29.8970   40.6390 P   0  0  0  0  0  0  0  0  0  0  0  0
   34.4050   29.3720   40.2430 O   0  0  0  0  0  0  0  0  0  0  0  0
   34.4140   28.4130   40.0760 H   0  0  0  0  0  0  0  0  0  0  0  0
   35.9000   31.5210   41.1180 O   0  0  0  0  0  0  0  0  0  0  0  0
   36.5260   31.7040   41.8470 H   0  0  0  0  0  0  0  0  0  0  0  0
  1  6  1  0  0  0  0
  1  7  1  0  0  0  0
  2  1  2  0  0  0  0
  3  4  2  0  0  0  0
  3  2  1  0  0  0  0
  4  5  1  0  0  0  0
  5  8  1  0  0  0  0
  5  6  2  0  0  0  0
  9  3  1  0  0  0  0
  9 10  1  0  0  0  0
 10 11  1  0  0  0  0
 12 10  2  0  0  0  0
 13 12  1  0  0  0  0
 14 13  1  0  0  0  0
 15 17  1  0  0  0  0
 15 13  2  0  0  0  0
 16 15  1  0  0  0  0
 17  9  2  0  0  0  0
 18  2  1  0  0  0  0
 19 20  2  0  0  0  0
 20 23  1  0  0  0  0
 20 18  1  0  0  0  0
 21 20  1  0  0  0  0
 22 21  1  0  0  0  0
 23 24  1  0  0  0  0
M  END
>  <minimizedAffinity>
-4.96701288

$$$$

 OpenBabel03252502173D

 24 25  0  0  0  0  0  0  0  0999 V2000
   39.4550   30.7740   41.6660 C   0  0  0  0  0  0  0  0  0  0  0  0
   38.3830   30.1130   41.0390 C   0  0  0  0  0  0  0  0  0  0  0  0
   37.4790   30.8780   40.2990 C   0  0  0  0  0  0  0  0  0  0  0  0
   37.6940   32.2070   40.2320 N   0  0  0  0  0  0  0  0  0  0  0  0
   38.7150   32.8290   40.8280 C   0  0  0  0  0  0  0  0  0  0  0  0
   39.5920   32.1080   41.5440 N   0  0  0  0  0  0  0  0  0  0  0  0
   40.1580   30.2030   42.2400 H   0  0  0  0  0  0  0  0  0  0  0  0
   38.8690   33.8880   40.7640 H   0  0  0  0  0  0  0  0  0  0  0  0
   36.3740   30.1700   39.6590 C   0  0  0  0  0  0  0  0  0  0  0  0
   36.5100   29.9920   38.2780 C   0  0  0  0  0  0  0  0  0  0  0  0
   37.3470   30.3390   37.7200 H   0  0  0  0  0  0  0  0  0  0  0  0
   35.4830   29.3250   37.6350 C   0  0  0  0  0  3  0  0  0  0  0  0
   34.3540   28.8370   38.2680 C   0  0  0  0  0  0  0  0  0  0  0  0
   33.5900   28.3250   37.6990 H   0  0  0  0  0  0  0  0  0  0  0  0
   34.2890   29.0500   39.6310 C   0  0  0  0  0  0  0  0  0  0  0  0
   33.4040   28.6650   40.1240 H   0  0  0  0  0  0  0  0  0  0  0  0
   35.2540   29.6960   40.3460 C   0  0  0  0  0  3  0  0  0  0  0  0
   38.3110   28.7430   41.2130 O   0  0  0  0  0  0  0  0  0  0  0  0
   39.1540   27.7020   43.4940 O   0  0  0  0  0  0  0  0  0  0  0  0
   37.9140   28.0580   42.7380 P   0  0  0  0  0  0  0  0  0  0  0  0
   37.0380   29.1670   43.6790 O   0  0  0  0  0  0  0  0  0  0  0  0
   37.5120   30.0170   43.7100 H   0  0  0  0  0  0  0  0  0  0  0  0
   36.9830   26.6570   42.5320 O   0  0  0  0  0  0  0  0  0  0  0  0
   37.1020   26.2790   41.6370 H   0  0  0  0  0  0  0  0  0  0  0  0
  1  7  1  0  0  0  0
  2 18  1  0  0  0  0
  2  1  2  0  0  0  0
  3  2  1  0  0  0  0
  4  3  2  0  0  0  0
  4  5  1  0  0  0  0
  5  6  2  0  0  0  0
  6  1  1  0  0  0  0
  8  5  1  0  0  0  0
  9  3  1  0  0  0  0
  9 17  1  0  0  0  0
 10  9  2  0  0  0  0
 11 10  1  0  0  0  0
 12 13  2  0  0  0  0
 12 10  1  0  0  0  0
 13 15  1  0  0  0  0
 14 13  1  0  0  0  0
 15 16  1  0  0  0  0
 15 17  2  0  0  0  0
 18 20  1  0  0  0  0
 20 19  2  0  0  0  0
 20 21  1  0  0  0  0
 21 22  1  0  0  0  0
 23 20  1  0  0  0  0
 24 23  1  0  0  0  0
M  END
>  <minimizedAffinity>
-4.94895601

$$$$

 OpenBabel03252502173D

 24 25  0  0  0  0  0  0  0  0999 V2000
   37.0000   28.4240   38.3080 C   0  0  0  0  0  0  0  0  0  0  0  0
   37.4960   29.5890   38.9200 C   0  0  0  0  0  0  0  0  0  0  0  0
   37.6390   30.7360   38.1360 C   0  0  0  0  0  0  0  0  0  0  0  0
   37.2890   30.6510   36.8370 N   0  0  0  0  0  0  0  0  0  0  0  0
   36.8170   29.5420   36.2620 C   0  0  0  0  0  0  0  0  0  0  0  0
   36.6740   28.4310   37.0010 N   0  0  0  0  0  0  0  0  0  0  0  0
   36.8850   27.5330   38.8940 H   0  0  0  0  0  0  0  0  0  0  0  0
   36.5440   29.4940   35.2260 H   0  0  0  0  0  0  0  0  0  0  0  0
   38.1560   31.9320   38.7930 C   0  0  0  0  0  0  0  0  0  0  0  0
   39.5490   32.0540   38.7830 C   0  0  0  0  0  0  0  0  0  0  0  0
   40.2000   31.3400   38.3360 H   0  0  0  0  0  0  0  0  0  0  0  0
   40.0780   33.1760   39.3960 C   0  0  0  0  0  3  0  0  0  0  0  0
   39.3220   34.1610   40.0040 C   0  0  0  0  0  0  0  0  0  0  0  0
   39.8040   35.0120   40.4650 H   0  0  0  0  0  0  0  0  0  0  0  0
   37.9530   33.9730   39.9750 C   0  0  0  0  0  0  0  0  0  0  0  0
   37.3630   34.7470   40.4530 H   0  0  0  0  0  0  0  0  0  0  0  0
   37.3460   32.8990   39.3940 C   0  0  0  0  0  3  0  0  0  0  0  0
   37.8080   29.5000   40.2640 O   0  0  0  0  0  0  0  0  0  0  0  0
   35.8630   28.1300   41.4190 O   0  0  0  0  0  0  0  0  0  0  0  0
   36.5770   29.4420   41.4620 P   0  0  0  0  0  0  0  0  0  0  0  0
   37.2460   29.6130   43.0130 O   0  0  0  0  0  0  0  0  0  0  0  0
   37.9750   28.9770   43.1280 H   0  0  0  0  0  0  0  0  0  0  0  0
   35.4500   30.6830   41.2110 O   0  0  0  0  0  0  0  0  0  0  0  0
   35.4720   31.0010   40.2860 H   0  0  0  0  0  0  0  0  0  0  0  0
  1  7  1  0  0  0  0
  1  2  1  0  0  0  0
  2 18  1  0  0  0  0
  3  9  1  0  0  0  0
  3  2  2  0  0  0  0
  4  3  1  0  0  0  0
  5  4  2  0  0  0  0
  5  6  1  0  0  0  0
  6  1  2  0  0  0  0
  8  5  1  0  0  0  0
  9 17  1  0  0  0  0
 10  9  2  0  0  0  0
 10 12  1  0  0  0  0
 11 10  1  0  0  0  0
 12 13  2  0  0  0  0
 13 14  1  0  0  0  0
 15 13  1  0  0  0  0
 15 16  1  0  0  0  0
 17 15  2  0  0  0  0
 18 20  1  0  0  0  0
 19 20  2  0  0  0  0
 20 21  1  0  0  0  0
 21 22  1  0  0  0  0
 23 20  1  0  0  0  0
 24 23  1  0  0  0  0
M  END
>  <minimizedAffinity>
-4.9151392

$$$$

 OpenBabel03252502173D

 24 25  0  0  0  0  0  0  0  0999 V2000
   36.5810   29.6650   37.8630 C   0  0  0  0  0  0  0  0  0  0  0  0
   37.1290   29.3950   39.1300 C   0  0  0  0  0  0  0  0  0  0  0  0
   36.8120   28.1800   39.7400 C   0  0  0  0  0  0  0  0  0  0  0  0
   35.9980   27.3400   39.0720 N   0  0  0  0  0  0  0  0  0  0  0  0
   35.4800   27.6010   37.8680 C   0  0  0  0  0  0  0  0  0  0  0  0
   35.7750   28.7650   37.2680 N   0  0  0  0  0  0  0  0  0  0  0  0
   36.8120   30.5940   37.3800 H   0  0  0  0  0  0  0  0  0  0  0  0
   34.8330   26.9200   37.3520 H   0  0  0  0  0  0  0  0  0  0  0  0
   37.3930   27.9220   41.0540 C   0  0  0  0  0  0  0  0  0  0  0  0
   36.5280   28.1340   42.1330 C   0  0  0  0  0  0  0  0  0  0  0  0
   35.5200   28.4580   42.0240 H   0  0  0  0  0  0  0  0  0  0  0  0
   37.0420   27.8990   43.3950 C   0  0  0  0  0  3  0  0  0  0  0  0
   38.3350   27.4780   43.6440 C   0  0  0  0  0  0  0  0  0  0  0  0
   38.6690   27.3150   44.6600 H   0  0  0  0  0  0  0  0  0  0  0  0
   39.1320   27.2900   42.5310 C   0  0  0  0  0  0  0  0  0  0  0  0
   40.1450   26.9590   42.7300 H   0  0  0  0  0  0  0  0  0  0  0  0
   38.7090   27.4960   41.2510 C   0  0  0  0  0  3  0  0  0  0  0  0
   37.9460   30.3700   39.6730 O   0  0  0  0  0  0  0  0  0  0  0  0
   36.9430   32.7550   39.1270 O   0  0  0  0  0  0  0  0  0  0  0  0
   37.2980   31.8490   40.2610 P   0  0  0  0  0  0  0  0  0  0  0  0
   35.8830   31.5650   41.1560 O   0  0  0  0  0  0  0  0  0  0  0  0
   35.2710   31.0150   40.6360 H   0  0  0  0  0  0  0  0  0  0  0  0
   38.4250   32.6350   41.2530 O   0  0  0  0  0  0  0  0  0  0  0  0
   39.3360   32.3270   41.0690 H   0  0  0  0  0  0  0  0  0  0  0  0
  1  2  1  0  0  0  0
  2 18  1  0  0  0  0
  2  3  2  0  0  0  0
  3  9  1  0  0  0  0
  4  3  1  0  0  0  0
  5  4  2  0  0  0  0
  6  1  2  0  0  0  0
  6  5  1  0  0  0  0
  7  1  1  0  0  0  0
  8  5  1  0  0  0  0
  9 17  2  0  0  0  0
  9 10  1  0  0  0  0
 10 12  2  0  0  0  0
 11 10  1  0  0  0  0
 12 13  1  0  0  0  0
 13 14  1  0  0  0  0
 15 16  1  0  0  0  0
 15 13  2  0  0  0  0
 17 15  1  0  0  0  0
 18 20  1  0  0  0  0
 19 20  2  0  0  0  0
 20 21  1  0  0  0  0
 20 23  1  0  0  0  0
 22 21  1  0  0  0  0
 24 23  1  0  0  0  0
M  END
>  <minimizedAffinity>
-4.74928427

$$$$

 OpenBabel03252502173D

 24 25  0  0  0  0  0  0  0  0999 V2000
   36.7390   30.0370   38.0390 C   0  0  0  0  0  0  0  0  0  0  0  0
   37.3320   29.6220   39.2450 C   0  0  0  0  0  0  0  0  0  0  0  0
   36.8280   28.4790   39.8680 C   0  0  0  0  0  0  0  0  0  0  0  0
   35.8000   27.8430   39.2700 N   0  0  0  0  0  0  0  0  0  0  0  0
   35.2420   28.2420   38.1240 C   0  0  0  0  0  0  0  0  0  0  0  0
   35.7150   29.3400   37.5130 N   0  0  0  0  0  0  0  0  0  0  0  0
   37.1120   30.9140   37.5470 H   0  0  0  0  0  0  0  0  0  0  0  0
   34.4240   27.7230   37.6630 H   0  0  0  0  0  0  0  0  0  0  0  0
   37.4590   28.0670   41.1190 C   0  0  0  0  0  0  0  0  0  0  0  0
   36.8440   28.5530   42.2770 C   0  0  0  0  0  0  0  0  0  0  0  0
   35.9810   29.1760   42.2680 H   0  0  0  0  0  0  0  0  0  0  0  0
   37.4130   28.1840   43.4820 C   0  0  0  0  0  3  0  0  0  0  0  0
   38.5320   27.3800   43.6020 C   0  0  0  0  0  0  0  0  0  0  0  0
   38.9220   27.1330   44.5800 H   0  0  0  0  0  0  0  0  0  0  0  0
   39.0850   26.9380   42.4160 C   0  0  0  0  0  0  0  0  0  0  0  0
   39.9620   26.3080   42.5140 H   0  0  0  0  0  0  0  0  0  0  0  0
   38.5910   27.2510   41.1840 C   0  0  0  0  0  3  0  0  0  0  0  0
   38.3780   30.3920   39.7210 O   0  0  0  0  0  0  0  0  0  0  0  0
   39.0550   32.4120   41.2880 O   0  0  0  0  0  0  0  0  0  0  0  0
   38.1430   32.0350   40.1650 P   0  0  0  0  0  0  0  0  0  0  0  0
   38.4850   33.0620   38.8570 O   0  0  0  0  0  0  0  0  0  0  0  0
   39.3620   32.8450   38.4920 H   0  0  0  0  0  0  0  0  0  0  0  0
   36.5410   32.2910   40.6580 O   0  0  0  0  0  0  0  0  0  0  0  0
   36.1160   31.4530   40.9340 H   0  0  0  0  0  0  0  0  0  0  0  0
  1  2  1  0  0  0  0
  2 18  1  0  0  0  0
  2  3  2  0  0  0  0
  3  9  1  0  0  0  0
  4  3  1  0  0  0  0
  5  4  2  0  0  0  0
  6  1  2  0  0  0  0
  6  5  1  0  0  0  0
  7  1  1  0  0  0  0
  8  5  1  0  0  0  0
  9 17  2  0  0  0  0
  9 10  1  0  0  0  0
 10 12  2  0  0  0  0
 11 10  1  0  0  0  0
 12 13  1  0  0  0  0
 13 14  1  0  0  0  0
 15 16  1  0  0  0  0
 15 13  2  0  0  0  0
 17 15  1  0  0  0  0
 18 20  1  0  0  0  0
 20 23  1  0  0  0  0
 20 19  2  0  0  0  0
 21 20  1  0  0  0  0
 22 21  1  0  0  0  0
 23 24  1  0  0  0  0
M  END
>  <minimizedAffinity>
-4.73107004

$$$$

 OpenBabel03252502173D

 24 25  0  0  0  0  0  0  0  0999 V2000
   35.7300   28.8500   38.3180 C   0  0  0  0  0  0  0  0  0  0  0  0
   36.1770   28.0220   39.3630 C   0  0  0  0  0  0  0  0  0  0  0  0
   36.9200   26.8870   39.0340 C   0  0  0  0  0  0  0  0  0  0  0  0
   37.1630   26.6580   37.7280 N   0  0  0  0  0  0  0  0  0  0  0  0
   36.7370   27.4480   36.7390 C   0  0  0  0  0  0  0  0  0  0  0  0
   36.0210   28.5430   37.0390 N   0  0  0  0  0  0  0  0  0  0  0  0
   35.1570   29.7260   38.5520 H   0  0  0  0  0  0  0  0  0  0  0  0
   36.9400   27.2490   35.7050 H   0  0  0  0  0  0  0  0  0  0  0  0
   37.3720   26.0430   40.1350 C   0  0  0  0  0  0  0  0  0  0  0  0
   36.5760   24.9200   40.3830 C   0  0  0  0  0  0  0  0  0  0  0  0
   35.7030   24.6830   39.8220 H   0  0  0  0  0  0  0  0  0  0  0  0
   36.9730   24.0950   41.4200 C   0  0  0  0  0  3  0  0  0  0  0  0
   38.0880   24.3150   42.2080 C   0  0  0  0  0  0  0  0  0  0  0  0
   38.3370   23.6260   43.0030 H   0  0  0  0  0  0  0  0  0  0  0  0
   38.8260   25.4430   41.9050 C   0  0  0  0  0  0  0  0  0  0  0  0
   39.6990   25.6120   42.5240 H   0  0  0  0  0  0  0  0  0  0  0  0
   38.5090   26.3110   40.9020 C   0  0  0  0  0  3  0  0  0  0  0  0
   35.8360   28.4060   40.6480 O   0  0  0  0  0  0  0  0  0  0  0  0
   37.9300   30.0180   40.7580 O   0  0  0  0  0  0  0  0  0  0  0  0
   36.6230   29.7220   41.4220 P   0  0  0  0  0  0  0  0  0  0  0  0
   35.6700   31.1250   41.3300 O   0  0  0  0  0  0  0  0  0  0  0  0
   35.4020   31.2780   40.4060 H   0  0  0  0  0  0  0  0  0  0  0  0
   36.9120   29.3620   43.0530 O   0  0  0  0  0  0  0  0  0  0  0  0
   36.9080   28.3960   43.2100 H   0  0  0  0  0  0  0  0  0  0  0  0
  1  7  1  0  0  0  0
  1  2  1  0  0  0  0
  2 18  1  0  0  0  0
  3  2  2  0  0  0  0
  3  9  1  0  0  0  0
  4  3  1  0  0  0  0
  5  6  1  0  0  0  0
  5  4  2  0  0  0  0
  6  1  2  0  0  0  0
  8  5  1  0  0  0  0
  9 10  2  0  0  0  0
  9 17  1  0  0  0  0
 10 12  1  0  0  0  0
 11 10  1  0  0  0  0
 12 13  2  0  0  0  0
 13 14  1  0  0  0  0
 15 13  1  0  0  0  0
 15 16  1  0  0  0  0
 17 15  2  0  0  0  0
 18 20  1  0  0  0  0
 19 20  2  0  0  0  0
 20 23  1  0  0  0  0
 21 20  1  0  0  0  0
 22 21  1  0  0  0  0
 23 24  1  0  0  0  0
M  END
>  <minimizedAffinity>
-4.68718147

$$$$
