
 OpenBabel03242522513D

 24 24  0  0  0  0  0  0  0  0999 V2000
   45.3060   30.7040   47.5670 O   0  0  0  0  0  0  0  0  0  0  0  0
   45.8100   31.9490   48.3230 P   0  0  2  0  0  0  0  0  0  0  0  0
   45.2310   31.8000   49.8990 O   0  0  0  0  0  0  0  0  0  0  0  0
   45.8570   32.2140   50.5450 H   0  0  0  0  0  0  0  0  0  0  0  0
   45.1330   33.3170   47.5900 O   0  0  0  0  0  0  0  0  0  0  0  0
   46.9050   33.3100   44.4170 C   0  0  0  0  0  0  0  0  0  0  0  0
   46.5040   32.9790   45.7240 C   0  0  0  0  0  0  0  0  0  0  0  0
   45.4810   33.6860   46.3080 C   0  0  0  0  0  0  0  0  0  0  0  0
   44.8950   34.6800   45.5950 N   0  0  0  0  0  0  0  0  0  0  0  0
   45.2770   34.9920   44.3510 C   0  0  0  0  0  0  0  0  0  0  0  0
   46.2790   34.3160   43.7530 N   0  0  0  0  0  0  0  0  0  0  0  0
   47.6950   32.8150   43.8770 H   0  0  0  0  0  0  0  0  0  0  0  0
   47.0900   32.1670   46.1080 H   0  0  0  0  0  0  0  0  0  0  0  0
   44.7030   35.8130   43.9230 H   0  0  0  0  0  0  0  0  0  0  0  0
   47.4600   32.0330   48.2820 O   0  0  0  0  0  0  0  0  0  0  0  0
   48.4000   31.4140   49.0400 C   0  0  0  0  0  0  0  0  0  0  0  0
   49.4340   32.1300   49.2740 O   0  0  0  0  0  0  0  0  0  0  0  0
   48.9350   30.3660   49.7700 O   0  0  0  0  0  0  0  0  0  0  0  0
   50.4730   29.2800   47.9300 O   0  0  0  0  0  0  0  0  0  0  0  0
   50.3850   29.5850   49.4100 P   0  0  0  0  0  0  0  0  0  0  0  0
   51.7010   30.4780   49.9360 O   0  0  0  0  0  0  0  0  0  0  0  0
   51.5790   31.4510   49.8150 H   0  0  0  0  0  0  0  0  0  0  0  0
   50.3290   28.0850   50.2340 O   0  0  0  0  0  0  0  0  0  0  0  0
   50.0340   27.3920   49.6210 H   0  0  0  0  0  0  0  0  0  0  0  0
  2  1  2  6  0  0  0
  2  3  1  0  0  0  0
  3  4  1  0  0  0  0
  5  2  1  0  0  0  0
  6  7  1  0  0  0  0
  7 13  1  0  0  0  0
  7  8  2  0  0  0  0
  8  5  1  0  0  0  0
  9  8  1  0  0  0  0
 10  9  2  0  0  0  0
 11 10  1  0  0  0  0
 11  6  2  0  0  0  0
 12  6  1  0  0  0  0
 14 10  1  0  0  0  0
 15  2  1  0  0  0  0
 15 16  1  0  0  0  0
 16 17  2  0  0  0  0
 16 18  1  0  0  0  0
 19 20  2  0  0  0  0
 20 18  1  0  0  0  0
 20 21  1  0  0  0  0
 20 23  1  0  0  0  0
 22 21  1  0  0  0  0
 24 23  1  0  0  0  0
M  END
>  <minimizedAffinity>
-4.46605206

>  <minimizedRMSD>
0.924155772

$$$$
