
 OpenBabel03242518373D

 37 39  0  0  1  0  0  0  0  0999 V2000
   48.0430   33.6790   39.2680 C   0  0  0  0  0  0  0  0  0  0  0  0
   48.5720   34.7010   38.4670 C   0  0  0  0  0  0  0  0  0  0  0  0
   48.1970   34.4770   37.1570 C   0  0  0  0  0  0  0  0  0  0  0  0
   47.4630   33.3370   37.2190 C   0  0  0  0  0  0  0  0  0  0  0  0
   47.3780   32.8770   38.4570 O   0  0  0  0  0  0  0  0  0  0  0  0
   49.1660   35.4930   38.9030 H   0  0  0  0  0  0  0  0  0  0  0  0
   48.4660   35.1090   36.3270 H   0  0  0  0  0  0  0  0  0  0  0  0
   46.8330   32.6910   36.0450 C   0  0  2  0  0  0  0  0  0  0  0  0
   47.0710   31.2800   35.7550 C   0  0  0  0  0  0  0  0  0  0  0  0
   47.8590   32.2570   34.9620 C   0  0  1  0  0  0  0  0  0  0  0  0
   45.9210   33.1800   35.6690 H   0  0  0  0  0  0  0  0  0  0  0  0
   46.3040   30.6480   35.2430 H   0  0  0  0  0  0  0  0  0  0  0  0
   47.6480   30.6900   36.5200 H   0  0  0  0  0  0  0  0  0  0  0  0
   48.9050   32.4830   35.1620 H   0  0  0  0  0  0  0  0  0  0  0  0
   48.2900   32.9520   32.6120 C   0  0  0  0  0  0  0  0  0  0  0  0
   49.5110   33.1850   32.8460 O   0  0  0  0  0  0  0  0  0  0  0  0
   47.3790   32.5070   33.6040 N   0  0  0  0  0  0  0  0  0  0  0  0
   48.0170   33.1310   31.5730 H   0  0  0  0  0  0  0  0  0  0  0  0
   46.3790   32.3600   33.3600 H   0  0  0  0  0  0  0  0  0  0  0  0
   48.1270   33.4360   40.6640 O   0  0  0  0  0  0  0  0  0  0  0  0
   47.9100   34.5090   41.5520 C   0  0  0  0  0  0  0  0  0  0  0  0
   48.5780   35.5610   41.3220 O   0  0  0  0  0  0  0  0  0  0  0  0
   46.9790   34.3030   42.5990 C   0  0  0  0  0  0  0  0  0  0  0  0
   46.1310   35.3270   42.8690 C   0  0  0  0  0  0  0  0  0  0  0  0
   45.1950   35.1810   43.8870 C   0  0  0  0  0  0  0  0  0  0  0  0
   45.1710   34.0200   44.5620 N   0  0  0  0  0  0  0  0  0  0  0  0
   46.0110   33.0240   44.2830 C   0  0  0  0  0  0  0  0  0  0  0  0
   46.8960   33.1980   43.3020 N   0  0  0  0  0  0  0  0  0  0  0  0
   46.1440   36.2650   42.3310 H   0  0  0  0  0  0  0  0  0  0  0  0
   44.5050   36.0080   44.1100 H   0  0  0  0  0  0  0  0  0  0  0  0
   45.8570   31.9050   45.0670 O   0  0  0  0  0  0  0  0  0  0  0  0
   45.3160   31.5670   47.5930 O   0  0  0  0  0  0  0  0  0  0  0  0
   46.4580   31.9210   46.6570 P   0  0  0  0  0  0  0  0  0  0  0  0
   47.6360   30.7190   46.8510 O   0  0  0  0  0  0  0  0  0  0  0  0
   48.2370   30.7260   46.0680 H   0  0  0  0  0  0  0  0  0  0  0  0
   47.0520   33.4170   47.1340 O   0  0  0  0  0  0  0  0  0  0  0  0
   47.5560   33.8060   46.3840 H   0  0  0  0  0  0  0  0  0  0  0  0
  1 20  1  0  0  0  0
  2  6  1  0  0  0  0
  2  1  2  0  0  0  0
  3  4  2  0  0  0  0
  3  2  1  0  0  0  0
  4  5  1  0  0  0  0
  5  1  1  0  0  0  0
  7  3  1  0  0  0  0
  8 11  1  6  0  0  0
  8  4  1  0  0  0  0
  9  8  1  0  0  0  0
  9 13  1  0  0  0  0
 10 14  1  1  0  0  0
 10  9  1  0  0  0  0
 10  8  1  0  0  0  0
 12  9  1  0  0  0  0
 15 16  2  0  0  0  0
 15 17  1  0  0  0  0
 17 10  1  0  0  0  0
 18 15  1  0  0  0  0
 19 17  1  0  0  0  0
 20 21  1  0  0  0  0
 21 23  1  0  0  0  0
 22 21  2  0  0  0  0
 23 24  2  0  0  0  0
 23 28  1  0  0  0  0
 24 25  1  0  0  0  0
 25 30  1  0  0  0  0
 25 26  2  0  0  0  0
 27 26  1  0  0  0  0
 27 31  1  0  0  0  0
 28 27  2  0  0  0  0
 29 24  1  0  0  0  0
 31 33  1  0  0  0  0
 33 34  1  0  0  0  0
 33 36  1  0  0  0  0
 33 32  2  0  0  0  0
 35 34  1  0  0  0  0
 37 36  1  0  0  0  0
M  END
>  <minimizedAffinity>
-5.56498051

>  <minimizedRMSD>
1.34667122

$$$$
