
 OpenBabel03242516553D

 43 45  0  0  1  0  0  0  0  0999 V2000
   38.8170   24.8130   40.6180 C   0  0  1  0  0  0  0  0  0  0  0  0
   38.1970   23.6400   41.2320 C   0  0  0  0  0  0  0  0  0  0  0  0
   37.2530   23.0610   40.1790 C   0  0  0  0  0  0  0  0  0  0  0  0
   36.1030   24.0460   40.0430 C   0  0  0  0  0  0  0  0  0  0  0  0
   36.5320   25.4510   39.7350 C   0  0  0  0  0  0  0  0  0  0  0  0
   37.7990   25.9160   40.3160 C   0  0  1  0  0  0  0  0  0  0  0  0
   39.1730   24.5250   39.5810 H   0  0  0  0  0  0  0  0  0  0  0  0
   38.9700   22.8720   41.4190 H   0  0  0  0  0  0  0  0  0  0  0  0
   37.6710   23.8150   42.1790 H   0  0  0  0  0  0  0  0  0  0  0  0
   37.8040   23.0080   39.2240 H   0  0  0  0  0  0  0  0  0  0  0  0
   36.8160   22.1130   40.4980 H   0  0  0  0  0  0  0  0  0  0  0  0
   35.6090   24.0470   41.0500 H   0  0  0  0  0  0  0  0  0  0  0  0
   35.3680   23.7130   39.2970 H   0  0  0  0  0  0  0  0  0  0  0  0
   36.4870   25.5660   38.6300 H   0  0  0  0  0  0  0  0  0  0  0  0
   35.7200   26.1030   40.1270 H   0  0  0  0  0  0  0  0  0  0  0  0
   38.3130   26.5660   39.5440 H   0  0  0  0  0  0  0  0  0  0  0  0
   41.2990   25.5710   43.3660 C   0  0  0  0  0  0  0  0  0  0  0  0
   40.2230   25.0580   42.6350 C   0  0  0  0  0  0  0  0  0  0  0  0
   39.9600   25.3840   41.3000 C   0  0  0  0  0  0  0  0  0  0  0  0
   40.8160   26.2380   40.7400 N   0  0  0  0  0  0  0  0  0  0  0  0
   41.8660   26.7460   41.4370 C   0  0  0  0  0  0  0  0  0  0  0  0
   42.1130   26.4320   42.7090 N   0  0  0  0  0  0  0  0  0  0  0  0
   41.4260   25.2640   44.3950 H   0  0  0  0  0  0  0  0  0  0  0  0
   39.5630   24.3600   43.1710 H   0  0  0  0  0  0  0  0  0  0  0  0
   42.4770   27.4230   40.8630 H   0  0  0  0  0  0  0  0  0  0  0  0
   37.5980   26.7960   41.4670 C   0  0  0  0  0  0  0  0  0  0  0  0
   36.9450   26.4590   42.6630 C   0  0  0  0  0  0  0  0  0  0  0  0
   36.8900   27.4650   43.6280 C   0  0  0  0  0  0  0  0  0  0  0  0
   37.4690   28.6820   43.3390 C   0  0  0  0  0  0  0  0  0  0  0  0
   38.1050   28.9930   42.1570 C   0  0  0  0  0  0  0  0  0  0  0  0
   38.1540   28.0020   41.2180 N   0  0  0  0  0  0  0  0  0  0  0  0
   36.5520   25.4780   42.7300 H   0  0  0  0  0  0  0  0  0  0  0  0
   36.3940   27.2240   44.5510 H   0  0  0  0  0  0  0  0  0  0  0  0
   37.3980   29.4330   44.1290 H   0  0  0  0  0  0  0  0  0  0  0  0
   38.7020   30.3130   41.9290 C   0  0  0  0  0  0  0  0  0  0  0  0
   39.4380   30.7930   42.8340 O   0  0  0  0  0  0  0  0  0  0  0  0
   38.4760   31.0450   40.7470 O   0  0  0  0  0  0  0  0  0  0  0  0
   36.4950   30.7890   38.9770 O   0  0  0  0  0  0  0  0  0  0  0  0
   36.8800   31.4770   40.2590 P   0  0  0  0  0  0  0  0  0  0  0  0
   36.8550   33.1600   40.1010 O   0  0  0  0  0  0  0  0  0  0  0  0
   36.6110   33.5370   40.9800 H   0  0  0  0  0  0  0  0  0  0  0  0
   35.7390   31.0570   41.4400 O   0  0  0  0  0  0  0  0  0  0  0  0
   36.2270   30.5720   42.1500 H   0  0  0  0  0  0  0  0  0  0  0  0
  1  7  1  6  0  0  0
  1  2  1  0  0  0  0
  1 19  1  0  0  0  0
  2  8  1  0  0  0  0
  2  9  1  0  0  0  0
  3 11  1  0  0  0  0
  3  2  1  0  0  0  0
  4  3  1  0  0  0  0
  4 12  1  0  0  0  0
  5  4  1  0  0  0  0
  5 15  1  0  0  0  0
  5  6  1  0  0  0  0
  6 16  1  6  0  0  0
  6  1  1  0  0  0  0
  6 26  1  0  0  0  0
 10  3  1  0  0  0  0
 13  4  1  0  0  0  0
 14  5  1  0  0  0  0
 17 23  1  0  0  0  0
 18 24  1  0  0  0  0
 18 17  2  0  0  0  0
 19 18  1  0  0  0  0
 20 19  2  0  0  0  0
 20 21  1  0  0  0  0
 21 22  2  0  0  0  0
 22 17  1  0  0  0  0
 25 21  1  0  0  0  0
 26 27  1  0  0  0  0
 27 32  1  0  0  0  0
 27 28  2  0  0  0  0
 28 33  1  0  0  0  0
 29 28  1  0  0  0  0
 29 34  1  0  0  0  0
 30 29  2  0  0  0  0
 31 26  2  0  0  0  0
 31 30  1  0  0  0  0
 35 30  1  0  0  0  0
 35 36  2  0  0  0  0
 37 35  1  0  0  0  0
 38 39  2  0  0  0  0
 39 37  1  0  0  0  0
 39 42  1  0  0  0  0
 40 39  1  0  0  0  0
 40 41  1  0  0  0  0
 42 43  1  0  0  0  0
M  END
>  <minimizedAffinity>
-6.58192539

$$$$

 OpenBabel03242516553D

 43 45  0  0  1  0  0  0  0  0999 V2000
   36.9340   28.3710   39.3640 C   0  0  1  0  0  0  0  0  0  0  0  0
   35.4770   28.4980   39.3830 C   0  0  0  0  0  0  0  0  0  0  0  0
   35.0050   28.1550   37.9710 C   0  0  0  0  0  0  0  0  0  0  0  0
   35.4540   29.2990   37.0760 C   0  0  0  0  0  0  0  0  0  0  0  0
   36.9240   29.5920   37.1470 C   0  0  0  0  0  0  0  0  0  0  0  0
   37.5930   29.3990   38.4400 C   0  0  1  0  0  0  0  0  0  0  0  0
   37.2000   27.3910   38.8600 H   0  0  0  0  0  0  0  0  0  0  0  0
   35.0520   27.7280   40.0530 H   0  0  0  0  0  0  0  0  0  0  0  0
   35.0840   29.4700   39.7050 H   0  0  0  0  0  0  0  0  0  0  0  0
   35.5160   27.2260   37.6600 H   0  0  0  0  0  0  0  0  0  0  0  0
   33.9170   28.1130   37.9020 H   0  0  0  0  0  0  0  0  0  0  0  0
   34.9020   30.1960   37.4640 H   0  0  0  0  0  0  0  0  0  0  0  0
   35.1600   29.1380   36.0300 H   0  0  0  0  0  0  0  0  0  0  0  0
   37.4040   29.0310   36.3160 H   0  0  0  0  0  0  0  0  0  0  0  0
   37.0270   30.6650   36.8680 H   0  0  0  0  0  0  0  0  0  0  0  0
   38.6210   28.9710   38.2350 H   0  0  0  0  0  0  0  0  0  0  0  0
   37.5150   28.8040   43.0740 C   0  0  0  0  0  0  0  0  0  0  0  0
   36.9340   28.7700   41.8020 C   0  0  0  0  0  0  0  0  0  0  0  0
   37.6100   28.3700   40.6450 C   0  0  0  0  0  0  0  0  0  0  0  0
   38.8810   28.0090   40.8210 N   0  0  0  0  0  0  0  0  0  0  0  0
   39.4600   28.0370   42.0500 C   0  0  0  0  0  0  0  0  0  0  0  0
   38.8120   28.4190   43.1490 N   0  0  0  0  0  0  0  0  0  0  0  0
   36.9170   29.1280   43.9130 H   0  0  0  0  0  0  0  0  0  0  0  0
   35.8810   29.0840   41.7440 H   0  0  0  0  0  0  0  0  0  0  0  0
   40.4900   27.7210   42.0470 H   0  0  0  0  0  0  0  0  0  0  0  0
   37.8500   30.6620   39.1330 C   0  0  0  0  0  0  0  0  0  0  0  0
   36.8790   31.5310   39.6570 C   0  0  0  0  0  0  0  0  0  0  0  0
   37.3680   32.6730   40.2920 C   0  0  0  0  0  0  0  0  0  0  0  0
   38.7330   32.8550   40.3530 C   0  0  0  0  0  0  0  0  0  0  0  0
   39.6690   31.9900   39.8300 C   0  0  0  0  0  0  0  0  0  0  0  0
   39.1820   30.8740   39.2110 N   0  0  0  0  0  0  0  0  0  0  0  0
   35.8680   31.2470   39.5280 H   0  0  0  0  0  0  0  0  0  0  0  0
   36.6390   33.3500   40.7000 H   0  0  0  0  0  0  0  0  0  0  0  0
   39.0620   33.7650   40.8610 H   0  0  0  0  0  0  0  0  0  0  0  0
   41.1080   32.2540   39.9420 C   0  0  0  0  0  0  0  0  0  0  0  0
   41.7440   31.6730   40.8630 O   0  0  0  0  0  0  0  0  0  0  0  0
   41.7820   33.1250   39.0650 O   0  0  0  0  0  0  0  0  0  0  0  0
   42.7840   31.5740   37.1360 O   0  0  0  0  0  0  0  0  0  0  0  0
   41.9050   32.7720   37.3820 P   0  0  0  0  0  0  0  0  0  0  0  0
   42.5140   34.1610   36.6340 O   0  0  0  0  0  0  0  0  0  0  0  0
   41.7430   34.7260   36.3860 H   0  0  0  0  0  0  0  0  0  0  0  0
   40.3840   32.4510   36.7060 O   0  0  0  0  0  0  0  0  0  0  0  0
   39.7330   32.4600   37.4490 H   0  0  0  0  0  0  0  0  0  0  0  0
  1  7  1  6  0  0  0
  1  2  1  0  0  0  0
  1 19  1  0  0  0  0
  2  9  1  0  0  0  0
  2  8  1  0  0  0  0
  3  2  1  0  0  0  0
  4  5  1  0  0  0  0
  4 12  1  0  0  0  0
  4  3  1  0  0  0  0
  5  6  1  0  0  0  0
  6 16  1  6  0  0  0
  6 26  1  0  0  0  0
  6  1  1  0  0  0  0
 10  3  1  0  0  0  0
 11  3  1  0  0  0  0
 13  4  1  0  0  0  0
 14  5  1  0  0  0  0
 15  5  1  0  0  0  0
 17 22  1  0  0  0  0
 17 23  1  0  0  0  0
 18 17  2  0  0  0  0
 19 20  2  0  0  0  0
 19 18  1  0  0  0  0
 20 21  1  0  0  0  0
 21 22  2  0  0  0  0
 24 18  1  0  0  0  0
 25 21  1  0  0  0  0
 26 31  2  0  0  0  0
 26 27  1  0  0  0  0
 27 28  2  0  0  0  0
 28 29  1  0  0  0  0
 28 33  1  0  0  0  0
 29 34  1  0  0  0  0
 30 35  1  0  0  0  0
 30 29  2  0  0  0  0
 31 30  1  0  0  0  0
 32 27  1  0  0  0  0
 35 36  2  0  0  0  0
 37 35  1  0  0  0  0
 38 39  2  0  0  0  0
 39 37  1  0  0  0  0
 40 39  1  0  0  0  0
 41 40  1  0  0  0  0
 42 39  1  0  0  0  0
 42 43  1  0  0  0  0
M  END
>  <minimizedAffinity>
-6.20202303

$$$$

 OpenBabel03242516553D

 43 45  0  0  1  0  0  0  0  0999 V2000
   37.3400   28.1810   41.0070 C   0  0  1  0  0  0  0  0  0  0  0  0
   38.6580   27.5790   40.8110 C   0  0  0  0  0  0  0  0  0  0  0  0
   39.1070   27.0880   42.1870 C   0  0  0  0  0  0  0  0  0  0  0  0
   39.3980   28.3300   43.0150 C   0  0  0  0  0  0  0  0  0  0  0  0
   38.2570   29.3020   43.0830 C   0  0  0  0  0  0  0  0  0  0  0  0
   37.3970   29.4250   41.8990 C   0  0  1  0  0  0  0  0  0  0  0  0
   36.7130   27.4700   41.6280 H   0  0  0  0  0  0  0  0  0  0  0  0
   38.5600   26.6810   40.1730 H   0  0  0  0  0  0  0  0  0  0  0  0
   39.4180   28.2260   40.3570 H   0  0  0  0  0  0  0  0  0  0  0  0
   38.2650   26.5360   42.6410 H   0  0  0  0  0  0  0  0  0  0  0  0
   40.0380   26.5220   42.1360 H   0  0  0  0  0  0  0  0  0  0  0  0
   40.2490   28.8320   42.4830 H   0  0  0  0  0  0  0  0  0  0  0  0
   39.7260   28.0740   44.0310 H   0  0  0  0  0  0  0  0  0  0  0  0
   37.6920   29.0690   44.0130 H   0  0  0  0  0  0  0  0  0  0  0  0
   38.7220   30.2950   43.2690 H   0  0  0  0  0  0  0  0  0  0  0  0
   36.3310   29.5590   42.2580 H   0  0  0  0  0  0  0  0  0  0  0  0
   36.5290   28.8640   37.3790 C   0  0  0  0  0  0  0  0  0  0  0  0
   37.1990   28.5760   38.5730 C   0  0  0  0  0  0  0  0  0  0  0  0
   36.5690   28.4740   39.8170 C   0  0  0  0  0  0  0  0  0  0  0  0
   35.2510   28.6710   39.8080 N   0  0  0  0  0  0  0  0  0  0  0  0
   34.5850   28.9510   38.6570 C   0  0  0  0  0  0  0  0  0  0  0  0
   35.1910   29.0470   37.4740 N   0  0  0  0  0  0  0  0  0  0  0  0
   37.0980   28.9240   36.4620 H   0  0  0  0  0  0  0  0  0  0  0  0
   38.2870   28.4280   38.4930 H   0  0  0  0  0  0  0  0  0  0  0  0
   33.5250   29.0870   38.7950 H   0  0  0  0  0  0  0  0  0  0  0  0
   37.6810   30.6330   41.1230 C   0  0  0  0  0  0  0  0  0  0  0  0
   36.7370   31.5740   40.6810 C   0  0  0  0  0  0  0  0  0  0  0  0
   37.2500   32.6580   39.9680 C   0  0  0  0  0  0  0  0  0  0  0  0
   38.6120   32.7180   39.7580 C   0  0  0  0  0  0  0  0  0  0  0  0
   39.5210   31.7820   40.2000 C   0  0  0  0  0  0  0  0  0  0  0  0
   39.0100   30.7240   40.8970 N   0  0  0  0  0  0  0  0  0  0  0  0
   35.7250   31.3820   40.9260 H   0  0  0  0  0  0  0  0  0  0  0  0
   36.5420   33.3890   39.6230 H   0  0  0  0  0  0  0  0  0  0  0  0
   38.9600   33.5870   39.1950 H   0  0  0  0  0  0  0  0  0  0  0  0
   40.9580   31.9230   39.9390 C   0  0  0  0  0  0  0  0  0  0  0  0
   41.7410   31.1090   40.4980 O   0  0  0  0  0  0  0  0  0  0  0  0
   41.4720   32.9260   39.0950 O   0  0  0  0  0  0  0  0  0  0  0  0
   42.5050   31.4520   37.1240 O   0  0  0  0  0  0  0  0  0  0  0  0
   41.6500   32.6600   37.4010 P   0  0  0  0  0  0  0  0  0  0  0  0
   42.3240   34.0680   36.7520 O   0  0  0  0  0  0  0  0  0  0  0  0
   41.5780   34.6670   36.5070 H   0  0  0  0  0  0  0  0  0  0  0  0
   40.1480   32.4190   36.6530 O   0  0  0  0  0  0  0  0  0  0  0  0
   39.4700   32.4070   37.3720 H   0  0  0  0  0  0  0  0  0  0  0  0
  1  7  1  1  0  0  0
  1  6  1  0  0  0  0
  2  1  1  0  0  0  0
  2  3  1  0  0  0  0
  3 10  1  0  0  0  0
  3  4  1  0  0  0  0
  4  5  1  0  0  0  0
  4 13  1  0  0  0  0
  5 15  1  0  0  0  0
  5 14  1  0  0  0  0
  6 16  1  1  0  0  0
  6  5  1  0  0  0  0
  8  2  1  0  0  0  0
  9  2  1  0  0  0  0
 11  3  1  0  0  0  0
 12  4  1  0  0  0  0
 17 22  2  0  0  0  0
 17 18  1  0  0  0  0
 18 19  2  0  0  0  0
 19  1  1  0  0  0  0
 20 19  1  0  0  0  0
 21 25  1  0  0  0  0
 21 20  2  0  0  0  0
 22 21  1  0  0  0  0
 23 17  1  0  0  0  0
 24 18  1  0  0  0  0
 26  6  1  0  0  0  0
 27 32  1  0  0  0  0
 27 26  2  0  0  0  0
 28 27  1  0  0  0  0
 29 28  2  0  0  0  0
 29 30  1  0  0  0  0
 30 31  2  0  0  0  0
 31 26  1  0  0  0  0
 33 28  1  0  0  0  0
 34 29  1  0  0  0  0
 35 30  1  0  0  0  0
 35 36  2  0  0  0  0
 37 35  1  0  0  0  0
 38 39  2  0  0  0  0
 39 37  1  0  0  0  0
 40 39  1  0  0  0  0
 41 40  1  0  0  0  0
 42 43  1  0  0  0  0
 42 39  1  0  0  0  0
M  END
>  <minimizedAffinity>
-6.17923307

$$$$

 OpenBabel03242516553D

 43 45  0  0  1  0  0  0  0  0999 V2000
   36.6520   30.4760   39.1690 C   0  0  1  0  0  0  0  0  0  0  0  0
   36.8230   29.5190   38.0780 C   0  0  0  0  0  0  0  0  0  0  0  0
   35.4320   29.3000   37.4850 C   0  0  0  0  0  0  0  0  0  0  0  0
   34.6370   28.5240   38.5230 C   0  0  0  0  0  0  0  0  0  0  0  0
   34.6020   29.1700   39.8760 C   0  0  0  0  0  0  0  0  0  0  0  0
   35.7940   29.9120   40.3060 C   0  0  1  0  0  0  0  0  0  0  0  0
   36.0140   31.3350   38.7930 H   0  0  0  0  0  0  0  0  0  0  0  0
   37.4370   29.9780   37.2810 H   0  0  0  0  0  0  0  0  0  0  0  0
   37.2910   28.5640   38.3460 H   0  0  0  0  0  0  0  0  0  0  0  0
   34.9680   30.2920   37.3360 H   0  0  0  0  0  0  0  0  0  0  0  0
   35.4620   28.6810   36.5870 H   0  0  0  0  0  0  0  0  0  0  0  0
   35.1780   27.5450   38.6200 H   0  0  0  0  0  0  0  0  0  0  0  0
   33.6130   28.3220   38.1830 H   0  0  0  0  0  0  0  0  0  0  0  0
   33.6700   29.7750   39.9200 H   0  0  0  0  0  0  0  0  0  0  0  0
   34.4400   28.3390   40.5980 H   0  0  0  0  0  0  0  0  0  0  0  0
   35.4450   30.8290   40.8730 H   0  0  0  0  0  0  0  0  0  0  0  0
   38.9170   32.9590   40.8980 C   0  0  0  0  0  0  0  0  0  0  0  0
   37.8030   32.3160   40.3480 C   0  0  0  0  0  0  0  0  0  0  0  0
   37.8530   31.0680   39.7190 C   0  0  0  0  0  0  0  0  0  0  0  0
   39.0590   30.5020   39.6670 N   0  0  0  0  0  0  0  0  0  0  0  0
   40.1510   31.1130   40.1960 C   0  0  0  0  0  0  0  0  0  0  0  0
   40.0980   32.3020   40.7950 N   0  0  0  0  0  0  0  0  0  0  0  0
   38.7850   33.9240   41.3660 H   0  0  0  0  0  0  0  0  0  0  0  0
   36.8460   32.8520   40.4330 H   0  0  0  0  0  0  0  0  0  0  0  0
   41.0590   30.5450   40.0840 H   0  0  0  0  0  0  0  0  0  0  0  0
   36.6010   29.1660   41.2720 C   0  0  0  0  0  0  0  0  0  0  0  0
   37.3000   29.7090   42.3620 C   0  0  0  0  0  0  0  0  0  0  0  0
   37.9900   28.7930   43.1560 C   0  0  0  0  0  0  0  0  0  0  0  0
   37.9330   27.4580   42.8160 C   0  0  0  0  0  0  0  0  0  0  0  0
   37.2410   26.9460   41.7410 C   0  0  0  0  0  0  0  0  0  0  0  0
   36.5690   27.8500   40.9690 N   0  0  0  0  0  0  0  0  0  0  0  0
   37.2440   30.7580   42.4870 H   0  0  0  0  0  0  0  0  0  0  0  0
   38.5310   29.1910   43.9960 H   0  0  0  0  0  0  0  0  0  0  0  0
   38.4900   26.7840   43.4720 H   0  0  0  0  0  0  0  0  0  0  0  0
   37.2260   25.5080   41.4500 C   0  0  0  0  0  0  0  0  0  0  0  0
   36.7140   24.7380   42.3080 O   0  0  0  0  0  0  0  0  0  0  0  0
   37.7610   24.9770   40.2600 O   0  0  0  0  0  0  0  0  0  0  0  0
   38.0230   23.0480   38.4340 O   0  0  0  0  0  0  0  0  0  0  0  0
   37.4350   23.3520   39.7870 P   0  0  0  0  0  0  0  0  0  0  0  0
   35.7540   23.1660   39.7970 O   0  0  0  0  0  0  0  0  0  0  0  0
   35.4930   22.8780   40.7040 H   0  0  0  0  0  0  0  0  0  0  0  0
   38.0790   22.2440   40.8970 O   0  0  0  0  0  0  0  0  0  0  0  0
   38.5840   22.7700   41.5640 H   0  0  0  0  0  0  0  0  0  0  0  0
  1  7  1  6  0  0  0
  1 19  1  0  0  0  0
  1  6  1  0  0  0  0
  2  9  1  0  0  0  0
  2  1  1  0  0  0  0
  3  2  1  0  0  0  0
  3  4  1  0  0  0  0
  4 12  1  0  0  0  0
  4  5  1  0  0  0  0
  5 14  1  0  0  0  0
  5  6  1  0  0  0  0
  5 15  1  0  0  0  0
  6 16  1  1  0  0  0
  6 26  1  0  0  0  0
  8  2  1  0  0  0  0
 10  3  1  0  0  0  0
 11  3  1  0  0  0  0
 13  4  1  0  0  0  0
 17 23  1  0  0  0  0
 18 24  1  0  0  0  0
 18 17  2  0  0  0  0
 19 18  1  0  0  0  0
 20 19  2  0  0  0  0
 20 21  1  0  0  0  0
 21 22  2  0  0  0  0
 22 17  1  0  0  0  0
 25 21  1  0  0  0  0
 26 27  1  0  0  0  0
 27 32  1  0  0  0  0
 27 28  2  0  0  0  0
 28 33  1  0  0  0  0
 29 28  1  0  0  0  0
 29 34  1  0  0  0  0
 30 29  2  0  0  0  0
 31 26  2  0  0  0  0
 31 30  1  0  0  0  0
 35 30  1  0  0  0  0
 35 36  2  0  0  0  0
 37 35  1  0  0  0  0
 38 39  2  0  0  0  0
 39 40  1  0  0  0  0
 39 37  1  0  0  0  0
 39 42  1  0  0  0  0
 40 41  1  0  0  0  0
 42 43  1  0  0  0  0
M  END
>  <minimizedAffinity>
-5.90756369

$$$$

 OpenBabel03242516553D

 43 45  0  0  1  0  0  0  0  0999 V2000
   38.9140   24.8550   40.8940 C   0  0  1  0  0  0  0  0  0  0  0  0
   38.1370   23.7570   41.4660 C   0  0  0  0  0  0  0  0  0  0  0  0
   37.2500   23.2340   40.3370 C   0  0  0  0  0  0  0  0  0  0  0  0
   36.2100   24.3100   40.0720 C   0  0  0  0  0  0  0  0  0  0  0  0
   36.7890   25.6640   39.7820 C   0  0  0  0  0  0  0  0  0  0  0  0
   38.0300   26.0340   40.4730 C   0  0  1  0  0  0  0  0  0  0  0  0
   39.3400   24.5100   39.9010 H   0  0  0  0  0  0  0  0  0  0  0  0
   38.8180   22.9310   41.7410 H   0  0  0  0  0  0  0  0  0  0  0  0
   37.5410   24.0020   42.3540 H   0  0  0  0  0  0  0  0  0  0  0  0
   37.8820   23.1080   39.4410 H   0  0  0  0  0  0  0  0  0  0  0  0
   36.7020   22.3360   40.6290 H   0  0  0  0  0  0  0  0  0  0  0  0
   35.6240   24.3810   41.0270 H   0  0  0  0  0  0  0  0  0  0  0  0
   35.5230   24.0220   39.2650 H   0  0  0  0  0  0  0  0  0  0  0  0
   36.8590   25.7530   38.6760 H   0  0  0  0  0  0  0  0  0  0  0  0
   36.0030   26.3940   40.0810 H   0  0  0  0  0  0  0  0  0  0  0  0
   38.6710   26.6160   39.7440 H   0  0  0  0  0  0  0  0  0  0  0  0
   42.2200   26.4890   41.7230 C   0  0  0  0  0  0  0  0  0  0  0  0
   41.1010   25.9940   41.0450 C   0  0  0  0  0  0  0  0  0  0  0  0
   40.0330   25.3440   41.6720 C   0  0  0  0  0  0  0  0  0  0  0  0
   40.1390   25.2150   42.9940 N   0  0  0  0  0  0  0  0  0  0  0  0
   41.2200   25.6900   43.6670 C   0  0  0  0  0  0  0  0  0  0  0  0
   42.2340   26.3090   43.0650 N   0  0  0  0  0  0  0  0  0  0  0  0
   42.9990   26.9790   41.1560 H   0  0  0  0  0  0  0  0  0  0  0  0
   41.0920   26.1420   39.9550 H   0  0  0  0  0  0  0  0  0  0  0  0
   41.1750   25.5180   44.7300 H   0  0  0  0  0  0  0  0  0  0  0  0
   37.8000   26.9580   41.5840 C   0  0  0  0  0  0  0  0  0  0  0  0
   37.0420   26.6960   42.7360 C   0  0  0  0  0  0  0  0  0  0  0  0
   36.9780   27.7320   43.6680 C   0  0  0  0  0  0  0  0  0  0  0  0
   37.6490   28.9040   43.3910 C   0  0  0  0  0  0  0  0  0  0  0  0
   38.3880   29.1410   42.2530 C   0  0  0  0  0  0  0  0  0  0  0  0
   38.4450   28.1220   41.3460 N   0  0  0  0  0  0  0  0  0  0  0  0
   36.5870   25.7430   42.7980 H   0  0  0  0  0  0  0  0  0  0  0  0
   36.4020   27.5490   44.5570 H   0  0  0  0  0  0  0  0  0  0  0  0
   37.5670   29.6810   44.1550 H   0  0  0  0  0  0  0  0  0  0  0  0
   39.0790   30.4170   42.0370 C   0  0  0  0  0  0  0  0  0  0  0  0
   39.6400   30.9590   43.0270 O   0  0  0  0  0  0  0  0  0  0  0  0
   39.1290   31.0390   40.7740 O   0  0  0  0  0  0  0  0  0  0  0  0
   39.7630   33.0610   39.1510 O   0  0  0  0  0  0  0  0  0  0  0  0
   39.7070   32.6530   40.5990 P   0  0  0  0  0  0  0  0  0  0  0  0
   41.2330   32.7080   41.3270 O   0  0  0  0  0  0  0  0  0  0  0  0
   41.1000   32.9350   42.2780 H   0  0  0  0  0  0  0  0  0  0  0  0
   38.7120   33.7570   41.4150 O   0  0  0  0  0  0  0  0  0  0  0  0
   37.9450   33.2430   41.7680 H   0  0  0  0  0  0  0  0  0  0  0  0
  1  7  1  6  0  0  0
  1  2  1  0  0  0  0
  1 19  1  0  0  0  0
  2  8  1  0  0  0  0
  2  9  1  0  0  0  0
  3 11  1  0  0  0  0
  3  2  1  0  0  0  0
  4  3  1  0  0  0  0
  4 12  1  0  0  0  0
  5  4  1  0  0  0  0
  5 15  1  0  0  0  0
  5  6  1  0  0  0  0
  6 16  1  6  0  0  0
  6  1  1  0  0  0  0
  6 26  1  0  0  0  0
 10  3  1  0  0  0  0
 13  4  1  0  0  0  0
 14  5  1  0  0  0  0
 17 22  1  0  0  0  0
 18 19  1  0  0  0  0
 18 17  2  0  0  0  0
 19 20  2  0  0  0  0
 20 21  1  0  0  0  0
 21 25  1  0  0  0  0
 22 21  2  0  0  0  0
 23 17  1  0  0  0  0
 24 18  1  0  0  0  0
 26 27  1  0  0  0  0
 27 32  1  0  0  0  0
 27 28  2  0  0  0  0
 28 33  1  0  0  0  0
 29 28  1  0  0  0  0
 29 34  1  0  0  0  0
 30 29  2  0  0  0  0
 31 26  2  0  0  0  0
 31 30  1  0  0  0  0
 35 30  1  0  0  0  0
 35 36  2  0  0  0  0
 37 35  1  0  0  0  0
 38 39  2  0  0  0  0
 39 37  1  0  0  0  0
 39 40  1  0  0  0  0
 39 42  1  0  0  0  0
 40 41  1  0  0  0  0
 42 43  1  0  0  0  0
M  END
>  <minimizedAffinity>
-5.90218306

$$$$

 OpenBabel03242516553D

 43 45  0  0  1  0  0  0  0  0999 V2000
   36.6220   30.6630   38.8810 C   0  0  1  0  0  0  0  0  0  0  0  0
   36.8890   29.7220   37.7940 C   0  0  0  0  0  0  0  0  0  0  0  0
   35.5320   29.1530   37.3830 C   0  0  0  0  0  0  0  0  0  0  0  0
   35.0730   28.2620   38.5260 C   0  0  0  0  0  0  0  0  0  0  0  0
   35.0420   28.9450   39.8620 C   0  0  0  0  0  0  0  0  0  0  0  0
   36.0630   29.9670   40.1260 C   0  0  1  0  0  0  0  0  0  0  0  0
   35.7570   31.3280   38.5710 H   0  0  0  0  0  0  0  0  0  0  0  0
   37.2780   30.2750   36.9190 H   0  0  0  0  0  0  0  0  0  0  0  0
   37.6010   28.9180   38.0190 H   0  0  0  0  0  0  0  0  0  0  0  0
   34.8290   29.9990   37.2760 H   0  0  0  0  0  0  0  0  0  0  0  0
   35.6050   28.5170   36.5000 H   0  0  0  0  0  0  0  0  0  0  0  0
   35.8400   27.4440   38.5730 H   0  0  0  0  0  0  0  0  0  0  0  0
   34.0950   27.8080   38.3200 H   0  0  0  0  0  0  0  0  0  0  0  0
   34.0040   29.3130   40.0100 H   0  0  0  0  0  0  0  0  0  0  0  0
   35.1700   28.1340   40.6130 H   0  0  0  0  0  0  0  0  0  0  0  0
   35.5730   30.8010   40.7150 H   0  0  0  0  0  0  0  0  0  0  0  0
   38.4100   33.7090   40.2260 C   0  0  0  0  0  0  0  0  0  0  0  0
   37.4260   32.7950   39.8340 C   0  0  0  0  0  0  0  0  0  0  0  0
   37.7020   31.5470   39.2650 C   0  0  0  0  0  0  0  0  0  0  0  0
   38.9950   31.2620   39.1110 N   0  0  0  0  0  0  0  0  0  0  0  0
   39.9620   32.1390   39.4860 C   0  0  0  0  0  0  0  0  0  0  0  0
   39.6940   33.3270   40.0270 N   0  0  0  0  0  0  0  0  0  0  0  0
   38.1050   34.6520   40.6570 H   0  0  0  0  0  0  0  0  0  0  0  0
   36.3840   33.1080   39.9960 H   0  0  0  0  0  0  0  0  0  0  0  0
   40.9620   31.7810   39.3040 H   0  0  0  0  0  0  0  0  0  0  0  0
   37.1330   29.4790   40.9970 C   0  0  0  0  0  0  0  0  0  0  0  0
   37.5980   30.1020   42.1660 C   0  0  0  0  0  0  0  0  0  0  0  0
   38.6210   29.4360   42.8420 C   0  0  0  0  0  0  0  0  0  0  0  0
   39.0850   28.2470   42.3200 C   0  0  0  0  0  0  0  0  0  0  0  0
   38.6150   27.6530   41.1690 C   0  0  0  0  0  0  0  0  0  0  0  0
   37.6130   28.3110   40.5150 N   0  0  0  0  0  0  0  0  0  0  0  0
   37.1350   31.0150   42.4330 H   0  0  0  0  0  0  0  0  0  0  0  0
   38.9890   29.8980   43.7400 H   0  0  0  0  0  0  0  0  0  0  0  0
   39.8850   27.7680   42.8880 H   0  0  0  0  0  0  0  0  0  0  0  0
   39.1600   26.3810   40.6830 C   0  0  0  0  0  0  0  0  0  0  0  0
   40.4080   26.2960   40.5240 O   0  0  0  0  0  0  0  0  0  0  0  0
   38.3380   25.2740   40.3940 O   0  0  0  0  0  0  0  0  0  0  0  0
   36.6590   24.4500   42.2980 O   0  0  0  0  0  0  0  0  0  0  0  0
   37.9520   24.1110   41.6060 P   0  0  0  0  0  0  0  0  0  0  0  0
   39.2530   24.0800   42.6870 O   0  0  0  0  0  0  0  0  0  0  0  0
   39.8990   23.4120   42.3530 H   0  0  0  0  0  0  0  0  0  0  0  0
   37.7990   22.5580   40.9450 O   0  0  0  0  0  0  0  0  0  0  0  0
   37.8920   22.6540   39.9660 H   0  0  0  0  0  0  0  0  0  0  0  0
  1  7  1  6  0  0  0
  1 19  1  0  0  0  0
  1  6  1  0  0  0  0
  2  9  1  0  0  0  0
  2  1  1  0  0  0  0
  3  2  1  0  0  0  0
  3  4  1  0  0  0  0
  4 12  1  0  0  0  0
  4  5  1  0  0  0  0
  5 14  1  0  0  0  0
  5  6  1  0  0  0  0
  5 15  1  0  0  0  0
  6 16  1  1  0  0  0
  6 26  1  0  0  0  0
  8  2  1  0  0  0  0
 10  3  1  0  0  0  0
 11  3  1  0  0  0  0
 13  4  1  0  0  0  0
 17 23  1  0  0  0  0
 18 24  1  0  0  0  0
 18 17  2  0  0  0  0
 19 18  1  0  0  0  0
 20 19  2  0  0  0  0
 20 21  1  0  0  0  0
 21 22  2  0  0  0  0
 22 17  1  0  0  0  0
 25 21  1  0  0  0  0
 26 27  1  0  0  0  0
 27 32  1  0  0  0  0
 27 28  2  0  0  0  0
 28 33  1  0  0  0  0
 29 28  1  0  0  0  0
 29 34  1  0  0  0  0
 30 29  2  0  0  0  0
 31 26  2  0  0  0  0
 31 30  1  0  0  0  0
 35 30  1  0  0  0  0
 36 35  2  0  0  0  0
 37 35  1  0  0  0  0
 37 39  1  0  0  0  0
 39 38  2  0  0  0  0
 39 40  1  0  0  0  0
 41 40  1  0  0  0  0
 42 39  1  0  0  0  0
 43 42  1  0  0  0  0
M  END
>  <minimizedAffinity>
-5.84684849

$$$$

 OpenBabel03242516553D

 43 45  0  0  1  0  0  0  0  0999 V2000
   39.5490   24.6150   40.2230 C   0  0  1  0  0  0  0  0  0  0  0  0
   40.4820   25.4070   39.4240 C   0  0  0  0  0  0  0  0  0  0  0  0
   41.8800   25.0480   39.9260 C   0  0  0  0  0  0  0  0  0  0  0  0
   42.0040   25.6430   41.3190 C   0  0  0  0  0  0  0  0  0  0  0  0
   40.9170   25.2240   42.2640 C   0  0  0  0  0  0  0  0  0  0  0  0
   39.5770   25.0060   41.7040 C   0  0  1  0  0  0  0  0  0  0  0  0
   39.9230   23.5450   40.2520 H   0  0  0  0  0  0  0  0  0  0  0  0
   40.4310   25.0790   38.3690 H   0  0  0  0  0  0  0  0  0  0  0  0
   40.3250   26.4930   39.4390 H   0  0  0  0  0  0  0  0  0  0  0  0
   41.9420   23.9470   39.9920 H   0  0  0  0  0  0  0  0  0  0  0  0
   42.6630   25.5050   39.3200 H   0  0  0  0  0  0  0  0  0  0  0  0
   41.9200   26.7510   41.1630 H   0  0  0  0  0  0  0  0  0  0  0  0
   42.9840   25.4300   41.7670 H   0  0  0  0  0  0  0  0  0  0  0  0
   41.3030   24.3480   42.8310 H   0  0  0  0  0  0  0  0  0  0  0  0
   40.8420   26.0420   43.0140 H   0  0  0  0  0  0  0  0  0  0  0  0
   39.1210   24.1160   42.2360 H   0  0  0  0  0  0  0  0  0  0  0  0
   36.0130   23.3670   39.7500 C   0  0  0  0  0  0  0  0  0  0  0  0
   37.3450   23.5010   40.1530 C   0  0  0  0  0  0  0  0  0  0  0  0
   38.1760   24.5570   39.7650 C   0  0  0  0  0  0  0  0  0  0  0  0
   37.6150   25.4620   38.9640 N   0  0  0  0  0  0  0  0  0  0  0  0
   36.3220   25.3460   38.5630 C   0  0  0  0  0  0  0  0  0  0  0  0
   35.5340   24.3380   38.9350 N   0  0  0  0  0  0  0  0  0  0  0  0
   35.4440   22.5160   40.0990 H   0  0  0  0  0  0  0  0  0  0  0  0
   37.7320   22.7100   40.8140 H   0  0  0  0  0  0  0  0  0  0  0  0
   35.9980   26.1460   37.9180 H   0  0  0  0  0  0  0  0  0  0  0  0
   38.6640   26.1130   41.9880 C   0  0  0  0  0  0  0  0  0  0  0  0
   37.4590   26.0300   42.7040 C   0  0  0  0  0  0  0  0  0  0  0  0
   36.7630   27.2300   42.8600 C   0  0  0  0  0  0  0  0  0  0  0  0
   37.3000   28.3750   42.3120 C   0  0  0  0  0  0  0  0  0  0  0  0
   38.4850   28.4340   41.6110 C   0  0  0  0  0  0  0  0  0  0  0  0
   39.1590   27.2550   41.4630 N   0  0  0  0  0  0  0  0  0  0  0  0
   37.1840   25.0730   43.0610 H   0  0  0  0  0  0  0  0  0  0  0  0
   35.8380   27.1860   43.4070 H   0  0  0  0  0  0  0  0  0  0  0  0
   36.7160   29.2850   42.4640 H   0  0  0  0  0  0  0  0  0  0  0  0
   38.9920   29.6970   41.0630 C   0  0  0  0  0  0  0  0  0  0  0  0
   40.0130   29.6510   40.3240 O   0  0  0  0  0  0  0  0  0  0  0  0
   38.3790   30.9340   41.3380 O   0  0  0  0  0  0  0  0  0  0  0  0
   36.9150   30.7860   39.1110 O   0  0  0  0  0  0  0  0  0  0  0  0
   36.9920   31.4550   40.4580 P   0  0  0  0  0  0  0  0  0  0  0  0
   37.1040   33.1370   40.3180 O   0  0  0  0  0  0  0  0  0  0  0  0
   36.6610   33.5300   41.1080 H   0  0  0  0  0  0  0  0  0  0  0  0
   35.5610   31.1060   41.2970 O   0  0  0  0  0  0  0  0  0  0  0  0
   35.8200   30.5970   42.1030 H   0  0  0  0  0  0  0  0  0  0  0  0
  1  7  1  6  0  0  0
  1  6  1  0  0  0  0
  2  9  1  0  0  0  0
  2  3  1  0  0  0  0
  2  1  1  0  0  0  0
  3 10  1  0  0  0  0
  3  4  1  0  0  0  0
  4 13  1  0  0  0  0
  4  5  1  0  0  0  0
  5 14  1  0  0  0  0
  5 15  1  0  0  0  0
  6 26  1  0  0  0  0
  6 16  1  1  0  0  0
  6  5  1  0  0  0  0
  8  2  1  0  0  0  0
 11  3  1  0  0  0  0
 12  4  1  0  0  0  0
 17 23  1  0  0  0  0
 17 18  1  0  0  0  0
 18 24  1  0  0  0  0
 19 18  2  0  0  0  0
 19  1  1  0  0  0  0
 20 19  1  0  0  0  0
 21 22  1  0  0  0  0
 21 20  2  0  0  0  0
 22 17  2  0  0  0  0
 25 21  1  0  0  0  0
 26 27  1  0  0  0  0
 27 28  2  0  0  0  0
 27 32  1  0  0  0  0
 28 33  1  0  0  0  0
 29 34  1  0  0  0  0
 29 28  1  0  0  0  0
 30 29  2  0  0  0  0
 31 30  1  0  0  0  0
 31 26  2  0  0  0  0
 35 37  1  0  0  0  0
 35 30  1  0  0  0  0
 36 35  2  0  0  0  0
 38 39  2  0  0  0  0
 39 42  1  0  0  0  0
 39 37  1  0  0  0  0
 40 39  1  0  0  0  0
 40 41  1  0  0  0  0
 42 43  1  0  0  0  0
M  END
>  <minimizedAffinity>
-5.72880077

$$$$

 OpenBabel03242516553D

 43 45  0  0  1  0  0  0  0  0999 V2000
   38.3200   25.4760   41.2820 C   0  0  1  0  0  0  0  0  0  0  0  0
   37.3100   24.4610   41.5750 C   0  0  0  0  0  0  0  0  0  0  0  0
   37.8670   23.1420   41.0420 C   0  0  0  0  0  0  0  0  0  0  0  0
   37.8440   23.2450   39.5250 C   0  0  0  0  0  0  0  0  0  0  0  0
   38.5590   24.4470   38.9810 C   0  0  0  0  0  0  0  0  0  0  0  0
   38.5160   25.6810   39.7760 C   0  0  1  0  0  0  0  0  0  0  0  0
   39.3310   25.0750   41.6020 H   0  0  0  0  0  0  0  0  0  0  0  0
   37.2160   24.3440   42.6710 H   0  0  0  0  0  0  0  0  0  0  0  0
   36.3060   24.6540   41.1770 H   0  0  0  0  0  0  0  0  0  0  0  0
   38.9130   23.0540   41.3860 H   0  0  0  0  0  0  0  0  0  0  0  0
   37.2350   22.2930   41.3070 H   0  0  0  0  0  0  0  0  0  0  0  0
   36.7560   23.3420   39.2650 H   0  0  0  0  0  0  0  0  0  0  0  0
   38.2340   22.3360   39.0500 H   0  0  0  0  0  0  0  0  0  0  0  0
   39.5930   24.1200   38.7340 H   0  0  0  0  0  0  0  0  0  0  0  0
   38.0810   24.6580   37.9990 H   0  0  0  0  0  0  0  0  0  0  0  0
   39.5290   26.1810   39.6930 H   0  0  0  0  0  0  0  0  0  0  0  0
   39.2250   28.8030   42.8300 C   0  0  0  0  0  0  0  0  0  0  0  0
   39.2860   27.5540   42.2040 C   0  0  0  0  0  0  0  0  0  0  0  0
   38.1670   26.7630   41.9280 C   0  0  0  0  0  0  0  0  0  0  0  0
   36.9960   27.2770   42.3050 N   0  0  0  0  0  0  0  0  0  0  0  0
   36.9200   28.4890   42.9150 C   0  0  0  0  0  0  0  0  0  0  0  0
   37.9900   29.2390   43.1760 N   0  0  0  0  0  0  0  0  0  0  0  0
   40.1430   29.3460   43.0050 H   0  0  0  0  0  0  0  0  0  0  0  0
   40.2910   27.2020   41.9250 H   0  0  0  0  0  0  0  0  0  0  0  0
   35.9140   28.7820   43.1650 H   0  0  0  0  0  0  0  0  0  0  0  0
   37.5730   26.6620   39.2380 C   0  0  0  0  0  0  0  0  0  0  0  0
   36.2080   26.4490   38.9910 C   0  0  0  0  0  0  0  0  0  0  0  0
   35.5050   27.5450   38.4880 C   0  0  0  0  0  0  0  0  0  0  0  0
   36.1910   28.7220   38.2780 C   0  0  0  0  0  0  0  0  0  0  0  0
   37.5330   28.9090   38.5260 C   0  0  0  0  0  0  0  0  0  0  0  0
   38.2130   27.8320   39.0180 N   0  0  0  0  0  0  0  0  0  0  0  0
   35.8310   25.4840   39.2070 H   0  0  0  0  0  0  0  0  0  0  0  0
   34.4570   27.4000   38.2940 H   0  0  0  0  0  0  0  0  0  0  0  0
   35.5930   29.5470   37.8840 H   0  0  0  0  0  0  0  0  0  0  0  0
   38.1870   30.1990   38.2800 C   0  0  0  0  0  0  0  0  0  0  0  0
   39.3690   30.1860   37.8390 O   0  0  0  0  0  0  0  0  0  0  0  0
   37.5410   31.4270   38.5210 O   0  0  0  0  0  0  0  0  0  0  0  0
   38.5960   31.7790   40.9470 O   0  0  0  0  0  0  0  0  0  0  0  0
   37.3650   32.0400   40.1210 P   0  0  0  0  0  0  0  0  0  0  0  0
   35.9960   31.2980   40.7820 O   0  0  0  0  0  0  0  0  0  0  0  0
   35.2160   31.8600   40.5580 H   0  0  0  0  0  0  0  0  0  0  0  0
   37.0860   33.7130   40.1150 O   0  0  0  0  0  0  0  0  0  0  0  0
   37.1580   34.0100   39.1750 H   0  0  0  0  0  0  0  0  0  0  0  0
  1  2  1  0  0  0  0
  1  7  1  1  0  0  0
  1 19  1  0  0  0  0
  2  8  1  0  0  0  0
  3 11  1  0  0  0  0
  3 10  1  0  0  0  0
  3  2  1  0  0  0  0
  4  3  1  0  0  0  0
  5  4  1  0  0  0  0
  5  6  1  0  0  0  0
  6 16  1  6  0  0  0
  6  1  1  0  0  0  0
  9  2  1  0  0  0  0
 12  4  1  0  0  0  0
 13  4  1  0  0  0  0
 14  5  1  0  0  0  0
 15  5  1  0  0  0  0
 17 23  1  0  0  0  0
 17 22  1  0  0  0  0
 18 17  2  0  0  0  0
 19 18  1  0  0  0  0
 19 20  2  0  0  0  0
 20 21  1  0  0  0  0
 21 25  1  0  0  0  0
 21 22  2  0  0  0  0
 24 18  1  0  0  0  0
 26  6  1  0  0  0  0
 27 32  1  0  0  0  0
 27 26  2  0  0  0  0
 28 27  1  0  0  0  0
 29 28  2  0  0  0  0
 29 30  1  0  0  0  0
 30 31  2  0  0  0  0
 31 26  1  0  0  0  0
 33 28  1  0  0  0  0
 34 29  1  0  0  0  0
 35 37  1  0  0  0  0
 35 30  1  0  0  0  0
 36 35  2  0  0  0  0
 37 39  1  0  0  0  0
 39 40  1  0  0  0  0
 39 38  2  0  0  0  0
 41 40  1  0  0  0  0
 42 39  1  0  0  0  0
 43 42  1  0  0  0  0
M  END
>  <minimizedAffinity>
-5.69267702

$$$$

 OpenBabel03242516553D

 43 45  0  0  1  0  0  0  0  0999 V2000
   36.8640   30.3740   39.3880 C   0  0  1  0  0  0  0  0  0  0  0  0
   36.9070   29.4310   38.2710 C   0  0  0  0  0  0  0  0  0  0  0  0
   35.4850   29.3720   37.7140 C   0  0  0  0  0  0  0  0  0  0  0  0
   34.6420   28.6550   38.7570 C   0  0  0  0  0  0  0  0  0  0  0  0
   34.7100   29.2670   40.1250 C   0  0  0  0  0  0  0  0  0  0  0  0
   35.9830   29.8720   40.5370 C   0  0  1  0  0  0  0  0  0  0  0  0
   36.3090   31.3020   39.0500 H   0  0  0  0  0  0  0  0  0  0  0  0
   37.5440   29.8450   37.4680 H   0  0  0  0  0  0  0  0  0  0  0  0
   37.2810   28.4270   38.5050 H   0  0  0  0  0  0  0  0  0  0  0  0
   35.1230   30.4090   37.6010 H   0  0  0  0  0  0  0  0  0  0  0  0
   35.4280   28.7750   36.8020 H   0  0  0  0  0  0  0  0  0  0  0  0
   35.0810   27.6240   38.8170 H   0  0  0  0  0  0  0  0  0  0  0  0
   33.5940   28.5680   38.4430 H   0  0  0  0  0  0  0  0  0  0  0  0
   33.8460   29.9630   40.2090 H   0  0  0  0  0  0  0  0  0  0  0  0
   34.4830   28.4400   40.8330 H   0  0  0  0  0  0  0  0  0  0  0  0
   35.7450   30.8050   41.1330 H   0  0  0  0  0  0  0  0  0  0  0  0
   40.5610   30.4450   40.1700 C   0  0  0  0  0  0  0  0  0  0  0  0
   39.2990   30.0830   39.6900 C   0  0  0  0  0  0  0  0  0  0  0  0
   38.1350   30.8250   39.9160 C   0  0  0  0  0  0  0  0  0  0  0  0
   38.2950   31.9350   40.6360 N   0  0  0  0  0  0  0  0  0  0  0  0
   39.5150   32.3010   41.1100 C   0  0  0  0  0  0  0  0  0  0  0  0
   40.6210   31.5900   40.8930 N   0  0  0  0  0  0  0  0  0  0  0  0
   41.4070   29.8100   39.9470 H   0  0  0  0  0  0  0  0  0  0  0  0
   39.2530   29.1530   39.1050 H   0  0  0  0  0  0  0  0  0  0  0  0
   39.5000   33.2170   41.6760 H   0  0  0  0  0  0  0  0  0  0  0  0
   36.7340   29.0230   41.4620 C   0  0  0  0  0  0  0  0  0  0  0  0
   37.4110   29.4510   42.6150 C   0  0  0  0  0  0  0  0  0  0  0  0
   38.0460   28.4510   43.3520 C   0  0  0  0  0  0  0  0  0  0  0  0
   37.9610   27.1510   42.9000 C   0  0  0  0  0  0  0  0  0  0  0  0
   37.2920   26.7520   41.7640 C   0  0  0  0  0  0  0  0  0  0  0  0
   36.6730   27.7380   41.0490 N   0  0  0  0  0  0  0  0  0  0  0  0
   37.3810   30.4880   42.8250 H   0  0  0  0  0  0  0  0  0  0  0  0
   38.5690   28.7600   44.2390 H   0  0  0  0  0  0  0  0  0  0  0  0
   38.4750   26.4080   43.5140 H   0  0  0  0  0  0  0  0  0  0  0  0
   37.2440   25.3450   41.3540 C   0  0  0  0  0  0  0  0  0  0  0  0
   36.6310   24.5330   42.1010 O   0  0  0  0  0  0  0  0  0  0  0  0
   37.8540   24.8860   40.1710 O   0  0  0  0  0  0  0  0  0  0  0  0
   38.5710   22.9610   38.4670 O   0  0  0  0  0  0  0  0  0  0  0  0
   37.7510   23.2310   39.7000 P   0  0  0  0  0  0  0  0  0  0  0  0
   36.1130   22.8930   39.4520 O   0  0  0  0  0  0  0  0  0  0  0  0
   35.7370   22.5970   40.3160 H   0  0  0  0  0  0  0  0  0  0  0  0
   38.3050   22.2040   40.9300 O   0  0  0  0  0  0  0  0  0  0  0  0
   38.6500   22.7840   41.6520 H   0  0  0  0  0  0  0  0  0  0  0  0
  1  7  1  6  0  0  0
  1 19  1  0  0  0  0
  1  6  1  0  0  0  0
  2  9  1  0  0  0  0
  2  1  1  0  0  0  0
  3  2  1  0  0  0  0
  3  4  1  0  0  0  0
  4 12  1  0  0  0  0
  4  5  1  0  0  0  0
  5 14  1  0  0  0  0
  5  6  1  0  0  0  0
  5 15  1  0  0  0  0
  6 16  1  1  0  0  0
  6 26  1  0  0  0  0
  8  2  1  0  0  0  0
 10  3  1  0  0  0  0
 11  3  1  0  0  0  0
 13  4  1  0  0  0  0
 17 22  1  0  0  0  0
 18 19  1  0  0  0  0
 18 17  2  0  0  0  0
 19 20  2  0  0  0  0
 20 21  1  0  0  0  0
 21 25  1  0  0  0  0
 22 21  2  0  0  0  0
 23 17  1  0  0  0  0
 24 18  1  0  0  0  0
 26 27  1  0  0  0  0
 27 32  1  0  0  0  0
 27 28  2  0  0  0  0
 28 33  1  0  0  0  0
 29 28  1  0  0  0  0
 29 34  1  0  0  0  0
 30 29  2  0  0  0  0
 31 26  2  0  0  0  0
 31 30  1  0  0  0  0
 35 30  1  0  0  0  0
 35 36  2  0  0  0  0
 37 35  1  0  0  0  0
 38 39  2  0  0  0  0
 39 37  1  0  0  0  0
 39 42  1  0  0  0  0
 40 39  1  0  0  0  0
 40 41  1  0  0  0  0
 42 43  1  0  0  0  0
M  END
>  <minimizedAffinity>
-5.66573334

$$$$
