
     RDKit          3D

 43 45  0  0  0  0  0  0  0  0999 V2000
   42.8279   34.4890   38.7796 C   0  0  1  0  0  0  0  0  0  0  0  0
   42.9511   35.1699   40.1350 C   0  0  1  0  0  0  0  0  0  0  0  0
   41.6529   35.3746   40.6458 O   0  0  0  0  0  0  0  0  0  0  0  0
   40.7266   35.6900   39.6500 C   0  0  0  0  0  0  0  0  0  0  0  0
   40.4479   34.5183   38.7366 C   0  0  2  0  0  0  0  0  0  0  0  0
   41.6753   33.5461   38.8794 C   0  0  1  0  0  0  0  0  0  0  0  0
   42.6034   35.4345   37.7700 O   0  0  0  0  0  0  0  0  0  0  0  0
   40.4624   34.9310   37.4164 O   0  0  0  0  0  0  0  0  0  0  0  0
   43.4879   34.1961   40.9908 O   0  0  0  0  0  0  0  0  0  0  0  0
   44.5970   34.3437   41.7218 C   0  0  0  0  0  0  0  0  0  0  0  0
   45.8504   34.4498   41.1238 C   0  0  0  0  0  0  0  0  0  0  0  0
   46.9748   34.6021   41.9100 C   0  0  0  0  0  0  0  0  0  0  0  0
   46.8266   34.6460   43.2799 N   0  0  0  0  0  0  0  0  0  0  0  0
   45.5931   34.5400   43.8403 C   0  0  0  0  0  0  0  0  0  0  0  0
   44.4889   34.3898   43.0625 N   0  0  0  0  0  0  0  0  0  0  0  0
   48.3487   34.7015   41.3202 C   0  0  0  0  0  0  0  0  0  0  0  0
   49.0750   36.0315   41.5035 C   0  0  0  0  0  0  0  0  0  0  0  0
   49.5052   34.7034   42.1639 C   0  0  0  0  0  0  0  0  0  0  0  0
   41.5593   32.6062   37.9278 O   0  0  0  0  0  0  0  0  0  0  0  0
   40.9173   31.4143   37.9870 C   0  0  0  0  0  0  0  0  0  0  0  0
   39.6944   31.2785   37.5455 O   0  0  0  0  0  0  0  0  0  0  0  0
   43.7857   33.9608   38.5232 H   0  0  0  0  0  0  0  0  0  0  0  0
   43.5219   36.1013   40.1003 H   0  0  0  0  0  0  0  0  0  0  0  0
   41.0083   36.6050   39.0952 H   0  0  0  0  0  0  0  0  0  0  0  0
   39.7897   35.9065   40.1914 H   0  0  0  0  0  0  0  0  0  0  0  0
   39.5370   33.9476   39.0016 H   0  0  0  0  0  0  0  0  0  0  0  0
   41.4600   33.2777   39.9643 H   0  0  0  0  0  0  0  0  0  0  0  0
   42.7904   35.0186   36.9088 H   0  0  0  0  0  0  0  0  0  0  0  0
   39.7616   34.4421   36.8923 H   0  0  0  0  0  0  0  0  0  0  0  0
   45.9790   34.4173   40.0563 H   0  0  0  0  0  0  0  0  0  0  0  0
   45.4808   34.5749   44.9251 H   0  0  0  0  0  0  0  0  0  0  0  0
   48.3722   34.4011   40.2392 H   0  0  0  0  0  0  0  0  0  0  0  0
   48.5743   36.7683   42.1772 H   0  0  0  0  0  0  0  0  0  0  0  0
   49.7682   36.3957   40.7453 H   0  0  0  0  0  0  0  0  0  0  0  0
   50.4669   34.2785   41.8471 H   0  0  0  0  0  0  0  0  0  0  0  0
   49.3482   34.6256   43.2626 H   0  0  0  0  0  0  0  0  0  0  0  0
   40.3901   27.5601   38.0028 O   0  0  0  0  0  0  0  0  0  0  0  0
   40.8392   28.7994   37.2365 P   0  0  0  0  0  0  0  0  0  0  0  0
   42.1986   28.5421   36.3090 O   0  0  0  0  0  0  0  0  0  0  0  0
   39.5191   29.1699   36.2094 O   0  0  0  0  0  0  0  0  0  0  0  0
   41.0146   30.0729   38.3698 O   0  0  0  0  0  0  0  0  0  0  0  0
   42.3508   27.5743   36.0931 H   0  0  0  0  0  0  0  0  0  0  0  0
   38.6708   29.1811   36.7204 H   0  0  0  0  0  0  0  0  0  0  0  0
  1  6  1  0
  1  2  1  0
  2  3  1  0
  2  9  1  0
  4  3  1  0
  5  6  1  0
  5  4  1  0
  7  1  1  0
  8  5  1  0
  9 10  1  0
 10 15  1  0
 11 10  2  0
 11 12  1  0
 12 13  2  0
 13 14  1  0
 15 14  2  0
 16 17  1  0
 16 12  1  0
 16 18  1  0
 17 18  1  0
 19 20  1  0
 19  6  1  0
 21 20  2  0
  1 22  1  6
  2 23  1  6
  4 24  1  0
  4 25  1  0
  5 26  1  1
  6 27  1  1
  7 28  1  0
  8 29  1  0
 11 30  1  0
 14 31  1  0
 16 32  1  0
 17 33  1  0
 17 34  1  0
 18 35  1  0
 18 36  1  0
 37 38  2  0
 38 39  1  0
 38 40  1  0
 38 41  1  0
 39 42  1  0
 40 43  1  0
 20 41  1  0
M  ISO  8  22  13  23  13  24  13  25  13  26  13  27  13  28   3  29   3
M  ISO  7  30  14  31  14  32  13  33  13  34  13  35  13  36  13
M  END
>  <DihAtoms>  (1) 
18,19,40,37

>  <DihDeg>  (1) 
-179.94354137762463

$$$$
