
     RDKit          3D

 33 34  0  0  0  0  0  0  0  0999 V2000
   45.1304   34.4120   41.1888 C   0  0  0  0  0  0  0  0  0  0  0  0
   45.5504   35.0214   42.3719 C   0  0  0  0  0  0  0  0  0  0  0  0
   46.9150   35.2475   42.5504 C   0  0  0  0  0  0  0  0  0  0  0  0
   47.7990   34.8753   41.5825 C   0  0  0  0  0  0  0  0  0  0  0  0
   47.4064   34.2717   40.4060 C   0  0  0  0  0  0  0  0  0  0  0  0
   46.0365   34.0535   40.2446 C   0  0  0  0  0  0  0  0  0  0  0  0
   41.4307   34.8435   40.5824 C   0  0  0  0  0  0  0  0  0  0  0  0
   42.7988   35.1675   40.6685 C   0  0  0  0  0  0  0  0  0  0  0  0
   43.7008   34.2069   41.0621 C   0  0  0  0  0  0  0  0  0  0  0  0
   43.1982   32.9796   41.3484 N   0  0  0  0  0  0  0  0  0  0  0  0
   41.8858   32.6754   41.2639 C   0  0  0  0  0  0  0  0  0  0  0  0
   40.9964   33.6134   40.8784 N   0  0  0  0  0  0  0  0  0  0  0  0
   40.4576   35.8720   40.1596 C   0  0  0  0  0  0  0  0  0  0  0  0
   39.2284   35.2241   39.9554 F   0  0  0  0  0  0  0  0  0  0  0  0
   40.8461   36.2864   38.8776 F   0  0  0  0  0  0  0  0  0  0  0  0
   40.3212   36.9019   41.0374 F   0  0  0  0  0  0  0  0  0  0  0  0
   45.4440   32.1457   38.5646 C   0  0  0  0  0  0  0  0  0  0  0  0
   45.9378   31.1499   39.0792 O   0  0  0  0  0  0  0  0  0  0  0  0
   45.4939   33.4554   39.0873 N   0  0  0  0  0  0  0  0  0  0  0  0
   44.8406   35.3143   43.1368 H   0  0  0  0  0  0  0  0  0  0  0  0
   47.2531   35.7156   43.4556 H   0  0  0  0  0  0  0  0  0  0  0  0
   48.8525   35.0675   41.7572 H   0  0  0  0  0  0  0  0  0  0  0  0
   48.0852   33.9730   39.6364 H   0  0  0  0  0  0  0  0  0  0  0  0
   43.1747   36.1565   40.4340 H   0  0  0  0  0  0  0  0  0  0  0  0
   41.5899   31.6583   41.5169 H   0  0  0  0  0  0  0  0  0  0  0  0
   45.0367   34.2511   38.5427 H   0  0  0  0  0  0  0  0  0  0  0  0
   42.9258   30.0410   37.2402 O   0  0  0  0  0  0  0  0  0  0  0  0
   44.3664   30.3583   36.9201 P   0  0  0  0  0  0  0  0  0  0  0  0
   44.5285   30.2694   35.2202 O   0  0  0  0  0  0  0  0  0  0  0  0
   45.3927   29.2211   37.5889 O   0  0  0  0  0  0  0  0  0  0  0  0
   44.7661   31.9701   37.3433 O   0  0  0  0  0  0  0  0  0  0  0  0
   45.2769   30.8683   34.9523 H   0  0  0  0  0  0  0  0  0  0  0  0
   45.0969   28.9667   38.5119 H   0  0  0  0  0  0  0  0  0  0  0  0
  1  2  2  0
  2  3  1  0
  4  3  2  0
  5  4  1  0
  6  5  2  0
  6  1  1  0
  7  8  2  0
  7 12  1  0
  8  9  1  0
  9  1  1  0
  9 10  2  0
 11 10  1  0
 12 11  2  0
 13  7  1  0
 13 16  1  0
 14 13  1  0
 15 13  1  0
 17 18  2  0
 17 19  1  0
 19  6  1  0
  2 20  1  0
  3 21  1  0
  4 22  1  0
  5 23  1  0
  8 24  1  0
 11 25  1  0
 19 26  1  0
 27 28  2  0
 28 29  1  0
 28 30  1  0
 28 31  1  0
 29 32  1  0
 30 33  1  0
 17 31  1  0
M  ISO  6  20  14  21  14  22  14  23  14  24  14  25  14
M  END
>  <DihAtoms>  (1) 
17,16,30,27

>  <DihDeg>  (1) 
0.00024059862856594215

$$$$
