
 OpenBabel03242520013D

 28 29  0  0  0  0  0  0  0  0999 V2000
   44.8460   32.6150   41.4700 Br  0  0  0  0  0  0  0  0  0  0  0  0
   46.3870   33.7110   41.1320 C   0  0  0  0  0  0  0  0  0  0  0  0
   46.8360   34.6480   42.0250 C   0  0  0  0  0  0  0  0  0  0  0  0
   47.9580   35.3890   41.6870 C   0  0  0  0  0  0  0  0  0  0  0  0
   48.6240   35.2130   40.4960 C   0  0  0  0  0  0  0  0  0  0  0  0
   48.1850   34.2740   39.5860 C   0  0  0  0  0  0  0  0  0  0  0  0
   47.0770   33.5540   39.9380 C   0  0  0  0  0  0  0  0  0  0  0  0
   48.3100   36.1270   42.3930 H   0  0  0  0  0  0  0  0  0  0  0  0
   49.4920   35.8370   40.3170 H   0  0  0  0  0  0  0  0  0  0  0  0
   48.7130   34.1410   38.6500 H   0  0  0  0  0  0  0  0  0  0  0  0
   44.4610   35.9480   44.6860 C   0  0  0  0  0  0  0  0  0  0  0  0
   45.1660   35.8140   43.4860 C   0  0  0  0  0  0  0  0  0  0  0  0
   46.0970   34.7960   43.2700 C   0  0  0  0  0  0  0  0  0  0  0  0
   46.2600   33.9510   44.3160 N   0  0  0  0  0  0  0  0  0  0  0  0
   45.5860   34.0750   45.4710 C   0  0  0  0  0  0  0  0  0  0  0  0
   44.7010   35.0550   45.6560 N   0  0  0  0  0  0  0  0  0  0  0  0
   43.7640   36.7850   44.7240 H   0  0  0  0  0  0  0  0  0  0  0  0
   45.0150   36.5080   42.6590 H   0  0  0  0  0  0  0  0  0  0  0  0
   45.8030   33.3380   46.2340 H   0  0  0  0  0  0  0  0  0  0  0  0
   46.5740   32.5430   38.9980 C   0  0  0  0  0  0  0  0  0  0  0  0
   46.8650   31.3290   39.1700 O   0  0  0  0  0  0  0  0  0  0  0  0
   45.7720   32.9790   37.9240 O   0  0  0  0  0  0  0  0  0  0  0  0
   46.1650   31.0780   36.1080 O   0  0  0  0  0  0  0  0  0  0  0  0
   46.1840   32.5730   36.3040 P   0  0  0  0  0  0  0  0  0  0  0  0
   45.0430   33.2850   35.2810 O   0  0  0  0  0  0  0  0  0  0  0  0
   45.1890   34.2480   35.1690 H   0  0  0  0  0  0  0  0  0  0  0  0
   47.6810   33.2410   35.8990 O   0  0  0  0  0  0  0  0  0  0  0  0
   48.1250   33.7220   36.6210 H   0  0  0  0  0  0  0  0  0  0  0  0
  2  1  1  0  0  0  0
  2  3  1  0  0  0  0
  3 13  1  0  0  0  0
  4  3  2  0  0  0  0
  4  8  1  0  0  0  0
  5  4  1  0  0  0  0
  6  7  1  0  0  0  0
  6  5  2  0  0  0  0
  7  2  2  0  0  0  0
  9  5  1  0  0  0  0
 10  6  1  0  0  0  0
 11 17  1  0  0  0  0
 11 16  1  0  0  0  0
 12 11  2  0  0  0  0
 13 12  1  0  0  0  0
 13 14  2  0  0  0  0
 14 15  1  0  0  0  0
 15 16  2  0  0  0  0
 15 19  1  0  0  0  0
 18 12  1  0  0  0  0
 20 21  2  0  0  0  0
 20  7  1  0  0  0  0
 22 20  1  0  0  0  0
 23 24  2  0  0  0  0
 24 22  1  0  0  0  0
 25 24  1  0  0  0  0
 26 25  1  0  0  0  0
 27 24  1  0  0  0  0
 27 28  1  0  0  0  0
M  END
>  <minimizedAffinity>
-5.72321558

>  <minimizedRMSD>
2.57708812

$$$$
