
 OpenBabel03242518373D

 37 39  0  0  1  0  0  0  0  0999 V2000
   47.3040   33.7330   39.8320 C   0  0  0  0  0  0  0  0  0  0  0  0
   48.3000   34.3700   39.0760 C   0  0  0  0  0  0  0  0  0  0  0  0
   48.0120   34.2070   37.7360 C   0  0  0  0  0  0  0  0  0  0  0  0
   46.8620   33.4830   37.7360 C   0  0  0  0  0  0  0  0  0  0  0  0
   46.4560   33.2120   38.9650 O   0  0  0  0  0  0  0  0  0  0  0  0
   49.1210   34.8800   39.5630 H   0  0  0  0  0  0  0  0  0  0  0  0
   48.6110   34.5950   36.9300 H   0  0  0  0  0  0  0  0  0  0  0  0
   46.1520   33.0560   36.5090 C   0  0  2  0  0  0  0  0  0  0  0  0
   45.7910   31.6560   36.3080 C   0  0  0  0  0  0  0  0  0  0  0  0
   47.0060   32.1300   35.5990 C   0  0  1  0  0  0  0  0  0  0  0  0
   45.5880   33.8460   35.9900 H   0  0  0  0  0  0  0  0  0  0  0  0
   44.8900   31.3600   35.7170 H   0  0  0  0  0  0  0  0  0  0  0  0
   45.9680   30.9520   37.1690 H   0  0  0  0  0  0  0  0  0  0  0  0
   48.0180   31.9110   35.9360 H   0  0  0  0  0  0  0  0  0  0  0  0
   47.9800   32.6340   33.3660 C   0  0  0  0  0  0  0  0  0  0  0  0
   49.1620   32.6080   33.8140 O   0  0  0  0  0  0  0  0  0  0  0  0
   46.8350   32.4290   34.1790 N   0  0  0  0  0  0  0  0  0  0  0  0
   47.9370   32.8310   32.2960 H   0  0  0  0  0  0  0  0  0  0  0  0
   45.8860   32.4920   33.7610 H   0  0  0  0  0  0  0  0  0  0  0  0
   47.1230   33.6010   41.2340 O   0  0  0  0  0  0  0  0  0  0  0  0
   47.2830   34.7420   42.0470 C   0  0  0  0  0  0  0  0  0  0  0  0
   48.2510   35.5030   41.7490 O   0  0  0  0  0  0  0  0  0  0  0  0
   46.3540   34.9170   43.1020 C   0  0  0  0  0  0  0  0  0  0  0  0
   45.4430   35.9110   42.9500 C   0  0  0  0  0  0  0  0  0  0  0  0
   44.5050   36.1290   43.9550 C   0  0  0  0  0  0  0  0  0  0  0  0
   44.5450   35.3380   45.0400 N   0  0  0  0  0  0  0  0  0  0  0  0
   45.4490   34.3670   45.1720 C   0  0  0  0  0  0  0  0  0  0  0  0
   46.3320   34.1850   44.1910 N   0  0  0  0  0  0  0  0  0  0  0  0
   45.4030   36.5520   42.0810 H   0  0  0  0  0  0  0  0  0  0  0  0
   43.7640   36.9320   43.8370 H   0  0  0  0  0  0  0  0  0  0  0  0
   45.3550   33.6510   46.3420 O   0  0  0  0  0  0  0  0  0  0  0  0
   47.3690   32.3140   47.3100 O   0  0  0  0  0  0  0  0  0  0  0  0
   46.1290   32.1420   46.4510 P   0  0  0  0  0  0  0  0  0  0  0  0
   45.1350   31.0280   47.2510 O   0  0  0  0  0  0  0  0  0  0  0  0
   44.2130   31.1140   46.9100 H   0  0  0  0  0  0  0  0  0  0  0  0
   46.6280   31.5340   44.9680 O   0  0  0  0  0  0  0  0  0  0  0  0
   45.9200   31.7080   44.3060 H   0  0  0  0  0  0  0  0  0  0  0  0
  1 20  1  0  0  0  0
  2  6  1  0  0  0  0
  2  1  2  0  0  0  0
  3  2  1  0  0  0  0
  4  3  2  0  0  0  0
  4  5  1  0  0  0  0
  5  1  1  0  0  0  0
  7  3  1  0  0  0  0
  8 11  1  6  0  0  0
  8  4  1  0  0  0  0
  9  8  1  0  0  0  0
  9 13  1  0  0  0  0
 10 14  1  1  0  0  0
 10  9  1  0  0  0  0
 10  8  1  0  0  0  0
 12  9  1  0  0  0  0
 15 16  2  0  0  0  0
 15 17  1  0  0  0  0
 17 10  1  0  0  0  0
 18 15  1  0  0  0  0
 19 17  1  0  0  0  0
 20 21  1  0  0  0  0
 21 23  1  0  0  0  0
 22 21  2  0  0  0  0
 23 28  1  0  0  0  0
 24 23  2  0  0  0  0
 24 25  1  0  0  0  0
 25 26  2  0  0  0  0
 26 27  1  0  0  0  0
 27 31  1  0  0  0  0
 28 27  2  0  0  0  0
 29 24  1  0  0  0  0
 30 25  1  0  0  0  0
 31 33  1  0  0  0  0
 33 34  1  0  0  0  0
 33 32  2  0  0  0  0
 35 34  1  0  0  0  0
 36 33  1  0  0  0  0
 37 36  1  0  0  0  0
M  END
>  <minimizedAffinity>
-5.59563541

>  <minimizedRMSD>
0.348260105

$$$$
