REMARK  Name = 
REMARK  9 active torsions:
REMARK  status: ('A' for Active; 'I' for Inactive)
REMARK    1  A    between atoms: C_3  and  O_7
REMARK    2  A    between atoms: O_7  and  P_9
REMARK    3  A    between atoms: P_9  and  O_10
REMARK    4  A    between atoms: P_9  and  O_11
REMARK    5  A    between atoms: O_11  and  C_12
REMARK    6  A    between atoms: C_12  and  O_22
REMARK    7  A    between atoms: P_19  and  O_20
REMARK    8  A    between atoms: P_19  and  O_21
REMARK    9  A    between atoms: P_19  and  O_22
REMARK                            x       y       z     vdW  Elec       q    Type
REMARK                         _______ _______ _______ _____ _____    ______ ____
ROOT
ATOM      1  O   UNL     1      45.329  30.863  47.463  0.00  0.00    +0.000 OA
ATOM      2  P   UNL     1      45.810  32.089  48.264  0.00  0.00    +0.000 P 
ENDROOT
BRANCH   2   3
ATOM      3  O   UNL     1      45.316  31.827  49.854  0.00  0.00    +0.000 OA
ATOM      4  H   UNL     1      45.952  32.236  50.493  0.00  0.00    +0.000 HD
ENDBRANCH   2   3
BRANCH   2   5
ATOM      5  O   UNL     1      45.034  33.459  47.641  0.00  0.00    +0.000 OA
BRANCH   5   8
ATOM      6  C   UNL     1      46.545  33.619  44.339  0.00  0.00    +0.000 A 
ATOM      7  C   UNL     1      46.239  33.210  45.650  0.00  0.00    +0.000 A 
ATOM      8  C   UNL     1      45.291  33.905  46.362  0.00  0.00    +0.000 A 
ATOM      9  N   UNL     1      44.685  34.963  45.767  0.00  0.00    +0.000 NA
ATOM     10  C   UNL     1      44.978  35.349  44.519  0.00  0.00    +0.000 A 
ATOM     11  N   UNL     1      45.904  34.687  43.798  0.00  0.00    +0.000 NA
ATOM     12  H   UNL     1      47.272  33.139  43.705  0.00  0.00    +0.000 HD
ATOM     13  H   UNL     1      46.824  32.356  45.930  0.00  0.00    +0.000 HD
ATOM     14  H   UNL     1      44.401  36.214  44.196  0.00  0.00    +0.000 HD
ENDBRANCH   5   8
ENDBRANCH   2   5
BRANCH   2  15
ATOM     15  O   UNL     1      47.450  32.257  48.152  0.00  0.00    +0.000 OA
BRANCH  15  16
ATOM     16  C   UNL     1      48.456  31.441  48.553  0.00  0.00    +0.000 C 
ATOM     17  O   UNL     1      49.253  31.973  49.401  0.00  0.00    +0.000 OA
BRANCH  16  18
ATOM     18  O   UNL     1      49.184  30.263  48.579  0.00  0.00    +0.000 OA
BRANCH  18  20
ATOM     19  O   UNL     1      50.685  30.674  46.456  0.00  0.00    +0.000 OA
ATOM     20  P   UNL     1      50.678  30.039  47.830  0.00  0.00    +0.000 P 
BRANCH  20  21
ATOM     21  O   UNL     1      51.927  30.616  48.785  0.00  0.00    +0.000 OA
ATOM     22  H   UNL     1      51.693  31.449  49.262  0.00  0.00    +0.000 HD
ENDBRANCH  20  21
BRANCH  20  23
ATOM     23  O   UNL     1      50.844  28.348  47.608  0.00  0.00    +0.000 OA
ATOM     24  H   UNL     1      50.580  28.115  46.703  0.00  0.00    +0.000 HD
ENDBRANCH  20  23
ENDBRANCH  18  20
ENDBRANCH  16  18
ENDBRANCH  15  16
ENDBRANCH   2  15
TORSDOF 9
