
 OpenBabel03252501123D

 18 18  0  0  0  0  0  0  0  0999 V2000
   38.5120   26.7760   41.9830 C   0  0  0  0  0  0  0  0  0  0  0  0
   38.9650   28.0570   41.6630 C   0  0  0  0  0  0  0  0  0  0  0  0
   38.3430   29.1450   42.2860 C   0  0  0  0  0  0  0  0  0  0  0  0
   37.3400   28.8990   43.1640 N   0  0  0  0  0  0  0  0  0  0  0  0
   36.9290   27.6450   43.4500 C   0  0  0  0  0  0  0  0  0  0  0  0
   37.5210   26.5870   42.8550 N   0  0  0  0  0  0  0  0  0  0  0  0
   39.0040   25.9350   41.4920 H   0  0  0  0  0  0  0  0  0  0  0  0
   39.7800   28.2160   40.9450 H   0  0  0  0  0  0  0  0  0  0  0  0
   36.1210   27.5630   44.1650 H   0  0  0  0  0  0  0  0  0  0  0  0
   38.8510   30.4530   41.9170 C   0  0  0  0  0  0  0  0  0  0  0  0
   39.6110   31.1390   42.6300 O   0  0  0  0  0  0  0  0  0  0  0  0
   38.5180   31.0530   40.7040 O   0  0  0  0  0  0  0  0  0  0  0  0
   36.6680   31.0480   38.8910 O   0  0  0  0  0  0  0  0  0  0  0  0
   36.9460   31.5500   40.3050 P   0  0  0  0  0  0  0  0  0  0  0  0
   35.7700   31.0460   41.3870 O   0  0  0  0  0  0  0  0  0  0  0  0
   36.2110   30.5160   42.1110 H   0  0  0  0  0  0  0  0  0  0  0  0
   36.9280   33.2480   40.2040 O   0  0  0  0  0  0  0  0  0  0  0  0
   37.6740   33.4760   39.5630 H   0  0  0  0  0  0  0  0  0  0  0  0
  1  6  1  0  0  0  0
  2  1  2  0  0  0  0
  2  3  1  0  0  0  0
  3  4  2  0  0  0  0
  4  5  1  0  0  0  0
  5  9  1  0  0  0  0
  6  5  2  0  0  0  0
  7  1  1  0  0  0  0
  8  2  1  0  0  0  0
 10  3  1  0  0  0  0
 10 11  2  0  0  0  0
 12 10  1  0  0  0  0
 13 14  2  0  0  0  0
 14 12  1  0  0  0  0
 14 15  1  0  0  0  0
 15 16  1  0  0  0  0
 17 14  1  0  0  0  0
 18 17  1  0  0  0  0
M  END
>  <minimizedAffinity>
-4.44256115

$$$$

 OpenBabel03252501123D

 18 18  0  0  0  0  0  0  0  0999 V2000
   38.1420   24.6670   42.2510 C   0  0  0  0  0  0  0  0  0  0  0  0
   37.4540   25.8690   42.0770 C   0  0  0  0  0  0  0  0  0  0  0  0
   38.0000   27.0230   42.6510 C   0  0  0  0  0  0  0  0  0  0  0  0
   39.1610   26.9130   43.3420 N   0  0  0  0  0  0  0  0  0  0  0  0
   39.7990   25.7320   43.4900 C   0  0  0  0  0  0  0  0  0  0  0  0
   39.2820   24.6120   42.9400 N   0  0  0  0  0  0  0  0  0  0  0  0
   37.7080   23.7740   41.7990 H   0  0  0  0  0  0  0  0  0  0  0  0
   36.5160   25.9180   41.5100 H   0  0  0  0  0  0  0  0  0  0  0  0
   40.7170   25.7580   44.0600 H   0  0  0  0  0  0  0  0  0  0  0  0
   37.2450   28.2440   42.4400 C   0  0  0  0  0  0  0  0  0  0  0  0
   37.5840   29.3640   42.8750 O   0  0  0  0  0  0  0  0  0  0  0  0
   36.0550   28.2540   41.7160 O   0  0  0  0  0  0  0  0  0  0  0  0
   36.7570   29.5080   39.5610 O   0  0  0  0  0  0  0  0  0  0  0  0
   35.6440   29.4670   40.6050 P   0  0  0  0  0  0  0  0  0  0  0  0
   34.1360   29.2710   39.9000 O   0  0  0  0  0  0  0  0  0  0  0  0
   33.7200   28.4390   40.2670 H   0  0  0  0  0  0  0  0  0  0  0  0
   35.7020   30.9690   41.4000 O   0  0  0  0  0  0  0  0  0  0  0  0
   36.6210   31.0030   41.8200 H   0  0  0  0  0  0  0  0  0  0  0  0
  1  6  1  0  0  0  0
  2  1  2  0  0  0  0
  2  3  1  0  0  0  0
  3  4  2  0  0  0  0
  4  5  1  0  0  0  0
  5  9  1  0  0  0  0
  6  5  2  0  0  0  0
  7  1  1  0  0  0  0
  8  2  1  0  0  0  0
 10  3  1  0  0  0  0
 10 11  2  0  0  0  0
 12 10  1  0  0  0  0
 13 14  2  0  0  0  0
 14 17  1  0  0  0  0
 14 12  1  0  0  0  0
 15 16  1  0  0  0  0
 15 14  1  0  0  0  0
 17 18  1  0  0  0  0
M  END
>  <minimizedAffinity>
-4.42783785

$$$$

 OpenBabel03252501123D

 18 18  0  0  0  0  0  0  0  0999 V2000
   37.1220   26.9060   41.7130 C   0  0  0  0  0  0  0  0  0  0  0  0
   37.0000   28.1670   41.1260 C   0  0  0  0  0  0  0  0  0  0  0  0
   37.3850   29.2800   41.8820 C   0  0  0  0  0  0  0  0  0  0  0  0
   37.8540   29.0770   43.1380 N   0  0  0  0  0  0  0  0  0  0  0  0
   37.9580   27.8420   43.6730 C   0  0  0  0  0  0  0  0  0  0  0  0
   37.5890   26.7590   42.9530 N   0  0  0  0  0  0  0  0  0  0  0  0
   36.8190   26.0450   41.1150 H   0  0  0  0  0  0  0  0  0  0  0  0
   36.6150   28.2910   40.1060 H   0  0  0  0  0  0  0  0  0  0  0  0
   38.3440   27.7940   44.6820 H   0  0  0  0  0  0  0  0  0  0  0  0
   37.2380   30.5650   41.2240 C   0  0  0  0  0  0  0  0  0  0  0  0
   36.1540   31.1730   41.1040 O   0  0  0  0  0  0  0  0  0  0  0  0
   38.3260   31.2300   40.6640 O   0  0  0  0  0  0  0  0  0  0  0  0
   39.3200   33.0760   39.1430 O   0  0  0  0  0  0  0  0  0  0  0  0
   38.3180   32.8810   40.2780 P   0  0  0  0  0  0  0  0  0  0  0  0
   36.8060   33.4890   39.8860 O   0  0  0  0  0  0  0  0  0  0  0  0
   36.1400   32.7450   39.9470 H   0  0  0  0  0  0  0  0  0  0  0  0
   38.9470   33.7460   41.6010 O   0  0  0  0  0  0  0  0  0  0  0  0
   39.8370   33.3090   41.7950 H   0  0  0  0  0  0  0  0  0  0  0  0
  1  6  1  0  0  0  0
  2  1  2  0  0  0  0
  2  3  1  0  0  0  0
  3  4  2  0  0  0  0
  4  5  1  0  0  0  0
  5  9  1  0  0  0  0
  6  5  2  0  0  0  0
  7  1  1  0  0  0  0
  8  2  1  0  0  0  0
 10  3  1  0  0  0  0
 11 10  2  0  0  0  0
 12 10  1  0  0  0  0
 13 14  2  0  0  0  0
 14 12  1  0  0  0  0
 14 17  1  0  0  0  0
 15 16  1  0  0  0  0
 15 14  1  0  0  0  0
 17 18  1  0  0  0  0
M  END
>  <minimizedAffinity>
-4.33791447

$$$$

 OpenBabel03252501123D

 18 18  0  0  0  0  0  0  0  0999 V2000
   36.9440   27.0480   42.5620 C   0  0  0  0  0  0  0  0  0  0  0  0
   36.6470   28.2430   41.9060 C   0  0  0  0  0  0  0  0  0  0  0  0
   37.6100   29.2590   41.9320 C   0  0  0  0  0  0  0  0  0  0  0  0
   38.7730   29.0300   42.5900 N   0  0  0  0  0  0  0  0  0  0  0  0
   39.0250   27.8600   43.2140 C   0  0  0  0  0  0  0  0  0  0  0  0
   38.1040   26.8710   43.1960 N   0  0  0  0  0  0  0  0  0  0  0  0
   36.1870   26.2620   42.5360 H   0  0  0  0  0  0  0  0  0  0  0  0
   35.6940   28.3910   41.3840 H   0  0  0  0  0  0  0  0  0  0  0  0
   39.9840   27.7830   43.7080 H   0  0  0  0  0  0  0  0  0  0  0  0
   37.2500   30.4800   41.2350 C   0  0  0  0  0  0  0  0  0  0  0  0
   36.1040   30.9730   41.2260 O   0  0  0  0  0  0  0  0  0  0  0  0
   38.1860   31.2090   40.5050 O   0  0  0  0  0  0  0  0  0  0  0  0
   37.1190   31.6050   38.1780 O   0  0  0  0  0  0  0  0  0  0  0  0
   37.7700   32.3620   39.3330 P   0  0  0  0  0  0  0  0  0  0  0  0
   36.7870   33.5950   39.9010 O   0  0  0  0  0  0  0  0  0  0  0  0
   36.6050   33.4350   40.8710 H   0  0  0  0  0  0  0  0  0  0  0  0
   39.2010   33.0280   38.7000 O   0  0  0  0  0  0  0  0  0  0  0  0
   39.7480   32.2310   38.4070 H   0  0  0  0  0  0  0  0  0  0  0  0
  1  6  1  0  0  0  0
  2  3  1  0  0  0  0
  2  1  2  0  0  0  0
  3  4  2  0  0  0  0
  4  5  1  0  0  0  0
  5  9  1  0  0  0  0
  6  5  2  0  0  0  0
  7  1  1  0  0  0  0
  8  2  1  0  0  0  0
 10  3  1  0  0  0  0
 11 10  2  0  0  0  0
 12 10  1  0  0  0  0
 13 14  2  0  0  0  0
 14 15  1  0  0  0  0
 14 12  1  0  0  0  0
 15 16  1  0  0  0  0
 17 14  1  0  0  0  0
 18 17  1  0  0  0  0
M  END
>  <minimizedAffinity>
-4.1892643

$$$$

 OpenBabel03252501123D

 18 18  0  0  0  0  0  0  0  0999 V2000
   39.2870   25.1950   40.8000 C   0  0  0  0  0  0  0  0  0  0  0  0
   38.6620   26.3340   41.3100 C   0  0  0  0  0  0  0  0  0  0  0  0
   37.4410   26.1680   41.9730 C   0  0  0  0  0  0  0  0  0  0  0  0
   36.9320   24.9160   42.0850 N   0  0  0  0  0  0  0  0  0  0  0  0
   37.5650   23.8370   41.5790 C   0  0  0  0  0  0  0  0  0  0  0  0
   38.7450   23.9840   40.9360 N   0  0  0  0  0  0  0  0  0  0  0  0
   40.2390   25.3350   40.2850 H   0  0  0  0  0  0  0  0  0  0  0  0
   39.1060   27.3310   41.1990 H   0  0  0  0  0  0  0  0  0  0  0  0
   37.0710   22.8860   41.7240 H   0  0  0  0  0  0  0  0  0  0  0  0
   36.8350   27.3840   42.4830 C   0  0  0  0  0  0  0  0  0  0  0  0
   36.8850   27.7470   43.6760 O   0  0  0  0  0  0  0  0  0  0  0  0
   36.1350   28.2570   41.6530 O   0  0  0  0  0  0  0  0  0  0  0  0
   37.1630   29.6670   39.7400 O   0  0  0  0  0  0  0  0  0  0  0  0
   36.7160   29.7830   41.1950 P   0  0  0  0  0  0  0  0  0  0  0  0
   35.6170   31.0300   41.4110 O   0  0  0  0  0  0  0  0  0  0  0  0
   34.7730   30.6480   41.7870 H   0  0  0  0  0  0  0  0  0  0  0  0
   38.1250   30.1130   42.0870 O   0  0  0  0  0  0  0  0  0  0  0  0
   38.7220   29.3130   41.9310 H   0  0  0  0  0  0  0  0  0  0  0  0
  1  6  2  0  0  0  0
  1  2  1  0  0  0  0
  2  3  2  0  0  0  0
  3  4  1  0  0  0  0
  3 10  1  0  0  0  0
  5  9  1  0  0  0  0
  5  4  2  0  0  0  0
  6  5  1  0  0  0  0
  7  1  1  0  0  0  0
  8  2  1  0  0  0  0
 10 11  2  0  0  0  0
 12 10  1  0  0  0  0
 13 14  2  0  0  0  0
 14 15  1  0  0  0  0
 14 12  1  0  0  0  0
 14 17  1  0  0  0  0
 15 16  1  0  0  0  0
 18 17  1  0  0  0  0
M  END
>  <minimizedAffinity>
-3.94651985

$$$$

 OpenBabel03252501123D

 18 18  0  0  0  0  0  0  0  0999 V2000
   41.6010   29.9290   37.8260 C   0  0  0  0  0  0  0  0  0  0  0  0
   40.8650   30.0980   39.0000 C   0  0  0  0  0  0  0  0  0  0  0  0
   40.3250   31.3640   39.2550 C   0  0  0  0  0  0  0  0  0  0  0  0
   40.5430   32.3530   38.3540 N   0  0  0  0  0  0  0  0  0  0  0  0
   41.2600   32.1520   37.2280 C   0  0  0  0  0  0  0  0  0  0  0  0
   41.7870   30.9350   36.9700 N   0  0  0  0  0  0  0  0  0  0  0  0
   42.0170   28.9380   37.6360 H   0  0  0  0  0  0  0  0  0  0  0  0
   40.7110   29.2720   39.7050 H   0  0  0  0  0  0  0  0  0  0  0  0
   41.3730   33.0090   36.5780 H   0  0  0  0  0  0  0  0  0  0  0  0
   39.5700   31.4850   40.4890 C   0  0  0  0  0  0  0  0  0  0  0  0
   39.9090   32.2020   41.4530 O   0  0  0  0  0  0  0  0  0  0  0  0
   38.3800   30.7900   40.6900 O   0  0  0  0  0  0  0  0  0  0  0  0
   36.5290   31.0240   38.8930 O   0  0  0  0  0  0  0  0  0  0  0  0
   36.8500   31.4270   40.3300 P   0  0  0  0  0  0  0  0  0  0  0  0
   35.6420   30.9580   41.3920 O   0  0  0  0  0  0  0  0  0  0  0  0
   36.0440   30.3580   42.0840 H   0  0  0  0  0  0  0  0  0  0  0  0
   36.9620   33.1250   40.3190 O   0  0  0  0  0  0  0  0  0  0  0  0
   37.7210   33.3280   39.6850 H   0  0  0  0  0  0  0  0  0  0  0  0
  1  2  1  0  0  0  0
  2  3  2  0  0  0  0
  2  8  1  0  0  0  0
  3 10  1  0  0  0  0
  4  3  1  0  0  0  0
  5  4  2  0  0  0  0
  6  5  1  0  0  0  0
  6  1  2  0  0  0  0
  7  1  1  0  0  0  0
  9  5  1  0  0  0  0
 10 12  1  0  0  0  0
 10 11  2  0  0  0  0
 13 14  2  0  0  0  0
 14 12  1  0  0  0  0
 14 15  1  0  0  0  0
 15 16  1  0  0  0  0
 17 14  1  0  0  0  0
 18 17  1  0  0  0  0
M  END
>  <minimizedAffinity>
-3.8941288

$$$$

 OpenBabel03252501123D

 18 18  0  0  0  0  0  0  0  0999 V2000
   42.0370   28.8250   41.5080 C   0  0  0  0  0  0  0  0  0  0  0  0
   40.8050   29.4800   41.4720 C   0  0  0  0  0  0  0  0  0  0  0  0
   39.8080   29.0450   42.3530 C   0  0  0  0  0  0  0  0  0  0  0  0
   40.0890   28.0170   43.1910 N   0  0  0  0  0  0  0  0  0  0  0  0
   41.2940   27.4070   43.1970 C   0  0  0  0  0  0  0  0  0  0  0  0
   42.2640   27.8170   42.3520 N   0  0  0  0  0  0  0  0  0  0  0  0
   42.8070   29.1710   40.8180 H   0  0  0  0  0  0  0  0  0  0  0  0
   40.6150   30.3090   40.7790 H   0  0  0  0  0  0  0  0  0  0  0  0
   41.4110   26.5980   43.9050 H   0  0  0  0  0  0  0  0  0  0  0  0
   38.5480   29.7600   42.2740 C   0  0  0  0  0  0  0  0  0  0  0  0
   37.5030   29.4100   42.8600 O   0  0  0  0  0  0  0  0  0  0  0  0
   38.4100   30.9210   41.5160 O   0  0  0  0  0  0  0  0  0  0  0  0
   37.1390   30.6070   39.2810 O   0  0  0  0  0  0  0  0  0  0  0  0
   37.0140   31.3050   40.6330 P   0  0  0  0  0  0  0  0  0  0  0  0
   35.5810   30.9120   41.4070 O   0  0  0  0  0  0  0  0  0  0  0  0
   35.8010   30.5000   42.2920 H   0  0  0  0  0  0  0  0  0  0  0  0
   37.0320   32.9720   40.2950 O   0  0  0  0  0  0  0  0  0  0  0  0
   37.9290   33.1370   39.8590 H   0  0  0  0  0  0  0  0  0  0  0  0
  1  6  1  0  0  0  0
  2  1  2  0  0  0  0
  2  3  1  0  0  0  0
  3  4  2  0  0  0  0
  4  5  1  0  0  0  0
  5  9  1  0  0  0  0
  6  5  2  0  0  0  0
  7  1  1  0  0  0  0
  8  2  1  0  0  0  0
 10  3  1  0  0  0  0
 10 11  2  0  0  0  0
 12 10  1  0  0  0  0
 13 14  2  0  0  0  0
 14 15  1  0  0  0  0
 14 12  1  0  0  0  0
 15 16  1  0  0  0  0
 17 14  1  0  0  0  0
 18 17  1  0  0  0  0
M  END
>  <minimizedAffinity>
-3.86533117

$$$$

 OpenBabel03252501123D

 18 18  0  0  0  0  0  0  0  0999 V2000
   36.7050   23.7830   39.7000 C   0  0  0  0  0  0  0  0  0  0  0  0
   36.5420   25.1640   39.5800 C   0  0  0  0  0  0  0  0  0  0  0  0
   36.9430   25.9650   40.6540 C   0  0  0  0  0  0  0  0  0  0  0  0
   37.4680   25.3620   41.7490 N   0  0  0  0  0  0  0  0  0  0  0  0
   37.6110   24.0220   41.8300 C   0  0  0  0  0  0  0  0  0  0  0  0
   37.2270   23.2370   40.7990 N   0  0  0  0  0  0  0  0  0  0  0  0
   36.3890   23.1670   38.8560 H   0  0  0  0  0  0  0  0  0  0  0  0
   36.1120   25.6150   38.6760 H   0  0  0  0  0  0  0  0  0  0  0  0
   38.0410   23.6450   42.7480 H   0  0  0  0  0  0  0  0  0  0  0  0
   36.7510   27.3920   40.4770 C   0  0  0  0  0  0  0  0  0  0  0  0
   35.7800   27.9020   39.8810 O   0  0  0  0  0  0  0  0  0  0  0  0
   37.6630   28.3220   40.9740 O   0  0  0  0  0  0  0  0  0  0  0  0
   38.3300   30.7390   41.6230 O   0  0  0  0  0  0  0  0  0  0  0  0
   37.2090   29.7210   41.8180 P   0  0  0  0  0  0  0  0  0  0  0  0
   35.7190   30.3420   41.3690 O   0  0  0  0  0  0  0  0  0  0  0  0
   35.3360   29.7600   40.6510 H   0  0  0  0  0  0  0  0  0  0  0  0
   37.1930   29.3650   43.4810 O   0  0  0  0  0  0  0  0  0  0  0  0
   38.1050   28.9730   43.6690 H   0  0  0  0  0  0  0  0  0  0  0  0
  1  6  1  0  0  0  0
  2  1  2  0  0  0  0
  2  3  1  0  0  0  0
  3  4  2  0  0  0  0
  4  5  1  0  0  0  0
  5  9  1  0  0  0  0
  6  5  2  0  0  0  0
  7  1  1  0  0  0  0
  8  2  1  0  0  0  0
 10  3  1  0  0  0  0
 10 12  1  0  0  0  0
 11 10  2  0  0  0  0
 12 14  1  0  0  0  0
 13 14  2  0  0  0  0
 14 17  1  0  0  0  0
 15 14  1  0  0  0  0
 16 15  1  0  0  0  0
 17 18  1  0  0  0  0
M  END
>  <minimizedAffinity>
-3.76917148

$$$$

 OpenBabel03252501123D

 18 18  0  0  0  0  0  0  0  0999 V2000
   35.0820   28.6680   35.0880 C   0  0  0  0  0  0  0  0  0  0  0  0
   35.0170   29.2010   36.3770 C   0  0  0  0  0  0  0  0  0  0  0  0
   36.1690   29.1350   37.1690 C   0  0  0  0  0  0  0  0  0  0  0  0
   37.2810   28.5620   36.6460 N   0  0  0  0  0  0  0  0  0  0  0  0
   37.3060   28.0580   35.3940 C   0  0  0  0  0  0  0  0  0  0  0  0
   36.2010   28.1150   34.6200 N   0  0  0  0  0  0  0  0  0  0  0  0
   34.1780   28.7250   34.4790 H   0  0  0  0  0  0  0  0  0  0  0  0
   34.0980   29.6560   36.7650 H   0  0  0  0  0  0  0  0  0  0  0  0
   38.2450   27.6240   35.0770 H   0  0  0  0  0  0  0  0  0  0  0  0
   36.0470   29.7020   38.4990 C   0  0  0  0  0  0  0  0  0  0  0  0
   35.5160   29.1190   39.4660 O   0  0  0  0  0  0  0  0  0  0  0  0
   36.5280   30.9750   38.8000 O   0  0  0  0  0  0  0  0  0  0  0  0
   38.1190   30.6960   40.8240 O   0  0  0  0  0  0  0  0  0  0  0  0
   36.8970   31.4910   40.3720 P   0  0  0  0  0  0  0  0  0  0  0  0
   37.1410   33.1430   40.5150 O   0  0  0  0  0  0  0  0  0  0  0  0
   37.0250   33.5590   39.6130 H   0  0  0  0  0  0  0  0  0  0  0  0
   35.6310   31.0170   41.4050 O   0  0  0  0  0  0  0  0  0  0  0  0
   35.5250   30.0260   41.2450 H   0  0  0  0  0  0  0  0  0  0  0  0
  1  2  1  0  0  0  0
  2  8  1  0  0  0  0
  2  3  2  0  0  0  0
  3 10  1  0  0  0  0
  4  3  1  0  0  0  0
  5  4  2  0  0  0  0
  6  1  2  0  0  0  0
  6  5  1  0  0  0  0
  7  1  1  0  0  0  0
  9  5  1  0  0  0  0
 10 12  1  0  0  0  0
 10 11  2  0  0  0  0
 12 14  1  0  0  0  0
 14 15  1  0  0  0  0
 14 13  2  0  0  0  0
 14 17  1  0  0  0  0
 16 15  1  0  0  0  0
 18 17  1  0  0  0  0
M  END
>  <minimizedAffinity>
-3.72413564

$$$$
