
 OpenBabel03252508003D

 27 28  0  0  1  0  0  0  0  0999 V2000
   45.9070   34.6740   43.4850 C   0  0  0  0  0  0  0  0  0  0  0  0
   45.0610   35.6810   43.9890 C   0  0  0  0  0  0  0  0  0  0  0  0
   44.5850   35.5320   45.2960 C   0  0  0  0  0  0  0  0  0  0  0  0
   44.9710   34.4270   45.9860 N   0  0  0  0  0  0  0  0  0  0  0  0
   45.7950   33.4870   45.4340 C   0  0  0  0  0  0  0  0  0  0  0  0
   46.2740   33.5800   44.2010 N   0  0  0  0  0  0  0  0  0  0  0  0
   44.7890   36.5320   43.4000 H   0  0  0  0  0  0  0  0  0  0  0  0
   43.9410   36.2800   45.7100 H   0  0  0  0  0  0  0  0  0  0  0  0
   46.1880   32.3060   46.2680 C   0  0  1  0  0  0  0  0  0  0  0  0
   47.1040   32.5130   47.4510 C   0  0  0  0  0  0  0  0  0  0  0  0
   45.6240   32.3070   47.6330 C   0  0  1  0  0  0  0  0  0  0  0  0
   46.3390   31.3530   45.7510 H   0  0  0  0  0  0  0  0  0  0  0  0
   47.7660   31.6700   47.7260 H   0  0  0  0  0  0  0  0  0  0  0  0
   47.5610   33.5130   47.5580 H   0  0  0  0  0  0  0  0  0  0  0  0
   45.3370   31.4120   48.1800 H   0  0  0  0  0  0  0  0  0  0  0  0
   44.9770   33.5240   48.1430 N   0  0  0  0  0  0  0  0  0  0  0  0
   45.3580   33.6890   49.1090 H   0  0  0  0  0  0  0  0  0  0  0  0
   43.9450   33.3670   48.2620 H   0  0  0  0  0  0  0  0  0  0  0  0
   46.3750   34.8920   42.1370 C   0  0  0  0  0  0  0  0  0  0  0  0
   47.5590   35.2860   41.8480 O   0  0  0  0  0  0  0  0  0  0  0  0
   45.4990   34.6670   41.0570 O   0  0  0  0  0  0  0  0  0  0  0  0
   43.7780   33.1720   39.6550 O   0  0  0  0  0  0  0  0  0  0  0  0
   44.5730   33.2210   40.9270 P   0  0  0  0  0  0  0  0  0  0  0  0
   45.6890   31.9360   40.9970 O   0  0  0  0  0  0  0  0  0  0  0  0
   46.4100   32.1560   41.6390 H   0  0  0  0  0  0  0  0  0  0  0  0
   43.5650   33.0460   42.2820 O   0  0  0  0  0  0  0  0  0  0  0  0
   44.1370   32.7380   43.0400 H   0  0  0  0  0  0  0  0  0  0  0  0
  1  2  2  0  0  0  0
  1  6  1  0  0  0  0
  2  3  1  0  0  0  0
  3  8  1  0  0  0  0
  3  4  2  0  0  0  0
  5  4  1  0  0  0  0
  5  9  1  0  0  0  0
  6  5  2  0  0  0  0
  7  2  1  0  0  0  0
  9 12  1  6  0  0  0
  9 10  1  0  0  0  0
  9 11  1  0  0  0  0
 10 14  1  0  0  0  0
 10 11  1  0  0  0  0
 10 13  1  0  0  0  0
 11 16  1  0  0  0  0
 11 15  1  1  0  0  0
 16 18  1  0  0  0  0
 16 17  1  0  0  0  0
 19  1  1  0  0  0  0
 20 19  2  0  0  0  0
 21 19  1  0  0  0  0
 22 23  2  0  0  0  0
 23 24  1  0  0  0  0
 23 21  1  0  0  0  0
 23 26  1  0  0  0  0
 24 25  1  0  0  0  0
 26 27  1  0  0  0  0
M  END
>  <minimizedAffinity>
-4.92780781

>  <minimizedRMSD>
0.652008057

$$$$
