
 OpenBabel03242522513D

 24 24  0  0  0  0  0  0  0  0999 V2000
   45.3890   30.8070   47.5290 O   0  0  0  0  0  0  0  0  0  0  0  0
   45.7900   32.0430   48.3580 P   0  0  2  0  0  0  0  0  0  0  0  0
   45.1830   31.7790   49.9080 O   0  0  0  0  0  0  0  0  0  0  0  0
   45.7630   32.2000   50.5910 H   0  0  0  0  0  0  0  0  0  0  0  0
   45.0420   33.3990   47.6730 O   0  0  0  0  0  0  0  0  0  0  0  0
   46.7000   33.4950   44.4390 C   0  0  0  0  0  0  0  0  0  0  0  0
   46.3440   33.1190   45.7480 C   0  0  0  0  0  0  0  0  0  0  0  0
   45.3470   33.8110   46.3930 C   0  0  0  0  0  0  0  0  0  0  0  0
   44.7430   34.8340   45.7370 N   0  0  0  0  0  0  0  0  0  0  0  0
   45.0840   35.1880   44.4920 C   0  0  0  0  0  0  0  0  0  0  0  0
   46.0580   34.5280   43.8350 N   0  0  0  0  0  0  0  0  0  0  0  0
   47.4670   33.0140   43.8550 H   0  0  0  0  0  0  0  0  0  0  0  0
   46.9360   32.2900   46.0810 H   0  0  0  0  0  0  0  0  0  0  0  0
   44.5010   36.0270   44.1150 H   0  0  0  0  0  0  0  0  0  0  0  0
   47.4310   32.2360   48.3680 O   0  0  0  0  0  0  0  0  0  0  0  0
   48.4150   31.4480   48.8670 C   0  0  0  0  0  0  0  0  0  0  0  0
   49.4430   32.0910   49.2770 O   0  0  0  0  0  0  0  0  0  0  0  0
   49.0040   30.2450   49.2200 O   0  0  0  0  0  0  0  0  0  0  0  0
   48.0900   28.7980   47.2220 O   0  0  0  0  0  0  0  0  0  0  0  0
   49.2630   28.9550   48.1670 P   0  0  0  0  0  0  0  0  0  0  0  0
   50.7080   29.1270   47.3390 O   0  0  0  0  0  0  0  0  0  0  0  0
   50.8950   30.0630   47.0860 H   0  0  0  0  0  0  0  0  0  0  0  0
   49.3130   27.5500   49.1480 O   0  0  0  0  0  0  0  0  0  0  0  0
   48.4430   27.1220   49.1420 H   0  0  0  0  0  0  0  0  0  0  0  0
  2  1  2  6  0  0  0
  2 15  1  0  0  0  0
  2  3  1  0  0  0  0
  3  4  1  0  0  0  0
  5  2  1  0  0  0  0
  6  7  1  0  0  0  0
  7 13  1  0  0  0  0
  7  8  2  0  0  0  0
  8  5  1  0  0  0  0
  9  8  1  0  0  0  0
 10  9  2  0  0  0  0
 11  6  2  0  0  0  0
 11 10  1  0  0  0  0
 12  6  1  0  0  0  0
 14 10  1  0  0  0  0
 15 16  1  0  0  0  0
 16 18  1  0  0  0  0
 16 17  2  0  0  0  0
 19 20  2  0  0  0  0
 20 23  1  0  0  0  0
 20 18  1  0  0  0  0
 21 20  1  0  0  0  0
 22 21  1  0  0  0  0
 24 23  1  0  0  0  0
M  END
>  <minimizedAffinity>
-4.50171566

>  <minimizedRMSD>
0.6413728

$$$$
