
 OpenBabel03242522513D

 24 24  0  0  0  0  0  0  0  0999 V2000
   45.3020   30.8250   47.4930 O   0  0  0  0  0  0  0  0  0  0  0  0
   45.7530   32.0260   48.3470 P   0  0  2  0  0  0  0  0  0  0  0  0
   45.1320   31.7560   49.8910 O   0  0  0  0  0  0  0  0  0  0  0  0
   45.7280   32.1380   50.5830 H   0  0  0  0  0  0  0  0  0  0  0  0
   45.0630   33.4250   47.6890 O   0  0  0  0  0  0  0  0  0  0  0  0
   46.6920   33.5010   44.4410 C   0  0  0  0  0  0  0  0  0  0  0  0
   46.3510   33.1360   45.7560 C   0  0  0  0  0  0  0  0  0  0  0  0
   45.3530   33.8270   46.4020 C   0  0  0  0  0  0  0  0  0  0  0  0
   44.7350   34.8370   45.7410 N   0  0  0  0  0  0  0  0  0  0  0  0
   45.0620   35.1810   44.4890 C   0  0  0  0  0  0  0  0  0  0  0  0
   46.0370   34.5230   43.8310 N   0  0  0  0  0  0  0  0  0  0  0  0
   47.4590   33.0210   43.8550 H   0  0  0  0  0  0  0  0  0  0  0  0
   46.9530   32.3160   46.0930 H   0  0  0  0  0  0  0  0  0  0  0  0
   44.4690   36.0110   44.1080 H   0  0  0  0  0  0  0  0  0  0  0  0
   47.4010   32.1510   48.3630 O   0  0  0  0  0  0  0  0  0  0  0  0
   48.3410   31.4150   49.0060 C   0  0  0  0  0  0  0  0  0  0  0  0
   49.4390   32.0390   49.2150 O   0  0  0  0  0  0  0  0  0  0  0  0
   48.8460   30.2820   49.6220 O   0  0  0  0  0  0  0  0  0  0  0  0
   49.7900   29.1170   47.4590 O   0  0  0  0  0  0  0  0  0  0  0  0
   50.0050   29.2580   48.9510 P   0  0  0  0  0  0  0  0  0  0  0  0
   51.5550   29.7830   49.3050 O   0  0  0  0  0  0  0  0  0  0  0  0
   51.6420   30.7660   49.2850 H   0  0  0  0  0  0  0  0  0  0  0  0
   49.7330   27.7170   49.6500 O   0  0  0  0  0  0  0  0  0  0  0  0
   49.1970   27.1810   49.0450 H   0  0  0  0  0  0  0  0  0  0  0  0
  2  1  2  6  0  0  0
  2 15  1  0  0  0  0
  2  3  1  0  0  0  0
  3  4  1  0  0  0  0
  5  2  1  0  0  0  0
  6  7  1  0  0  0  0
  7 13  1  0  0  0  0
  7  8  2  0  0  0  0
  8  5  1  0  0  0  0
  9  8  1  0  0  0  0
 10  9  2  0  0  0  0
 11  6  2  0  0  0  0
 11 10  1  0  0  0  0
 12  6  1  0  0  0  0
 14 10  1  0  0  0  0
 15 16  1  0  0  0  0
 16 17  2  0  0  0  0
 16 18  1  0  0  0  0
 19 20  2  0  0  0  0
 20 21  1  0  0  0  0
 20 18  1  0  0  0  0
 20 23  1  0  0  0  0
 22 21  1  0  0  0  0
 24 23  1  0  0  0  0
M  END
>  <minimizedAffinity>
-4.52305222

>  <minimizedRMSD>
0.925459027

$$$$
