
 OpenBabel03242518373D

 37 39  0  0  1  0  0  0  0  0999 V2000
   47.3690   33.7350   39.7620 C   0  0  0  0  0  0  0  0  0  0  0  0
   48.2980   34.4570   38.9970 C   0  0  0  0  0  0  0  0  0  0  0  0
   48.0160   34.2630   37.6600 C   0  0  0  0  0  0  0  0  0  0  0  0
   46.9380   33.4360   37.6700 C   0  0  0  0  0  0  0  0  0  0  0  0
   46.5670   33.1340   38.9040 O   0  0  0  0  0  0  0  0  0  0  0  0
   49.0720   35.0430   39.4760 H   0  0  0  0  0  0  0  0  0  0  0  0
   48.5720   34.7000   36.8480 H   0  0  0  0  0  0  0  0  0  0  0  0
   46.2620   32.9400   36.4500 C   0  0  2  0  0  0  0  0  0  0  0  0
   46.0470   31.5100   36.2480 C   0  0  0  0  0  0  0  0  0  0  0  0
   47.1970   32.1120   35.5260 C   0  0  1  0  0  0  0  0  0  0  0  0
   45.6120   33.6680   35.9410 H   0  0  0  0  0  0  0  0  0  0  0  0
   45.1750   31.1240   35.6670 H   0  0  0  0  0  0  0  0  0  0  0  0
   46.3080   30.8270   37.1040 H   0  0  0  0  0  0  0  0  0  0  0  0
   48.2310   31.9990   35.8510 H   0  0  0  0  0  0  0  0  0  0  0  0
   48.0960   32.5740   33.2530 C   0  0  0  0  0  0  0  0  0  0  0  0
   49.2940   32.5370   33.6580 O   0  0  0  0  0  0  0  0  0  0  0  0
   46.9790   32.3950   34.1100 N   0  0  0  0  0  0  0  0  0  0  0  0
   48.0170   32.7580   32.1820 H   0  0  0  0  0  0  0  0  0  0  0  0
   46.0160   32.4660   33.7250 H   0  0  0  0  0  0  0  0  0  0  0  0
   47.2110   33.5940   41.1660 O   0  0  0  0  0  0  0  0  0  0  0  0
   47.3420   34.7380   41.9810 C   0  0  0  0  0  0  0  0  0  0  0  0
   48.2480   35.5560   41.6430 O   0  0  0  0  0  0  0  0  0  0  0  0
   46.4560   34.8510   43.0800 C   0  0  0  0  0  0  0  0  0  0  0  0
   45.5880   35.8930   43.0550 C   0  0  0  0  0  0  0  0  0  0  0  0
   44.6940   36.0560   44.1090 C   0  0  0  0  0  0  0  0  0  0  0  0
   44.7300   35.1630   45.1110 N   0  0  0  0  0  0  0  0  0  0  0  0
   45.5900   34.1450   45.1190 C   0  0  0  0  0  0  0  0  0  0  0  0
   46.4330   34.0190   44.0950 N   0  0  0  0  0  0  0  0  0  0  0  0
   45.5510   36.6160   42.2530 H   0  0  0  0  0  0  0  0  0  0  0  0
   43.9880   36.8980   44.0940 H   0  0  0  0  0  0  0  0  0  0  0  0
   45.4990   33.3240   46.2180 O   0  0  0  0  0  0  0  0  0  0  0  0
   47.4050   31.5510   46.1250 O   0  0  0  0  0  0  0  0  0  0  0  0
   45.8950   31.6790   46.0560 P   0  0  0  0  0  0  0  0  0  0  0  0
   45.2710   30.7940   47.3600 O   0  0  0  0  0  0  0  0  0  0  0  0
   44.3470   31.0900   47.5390 H   0  0  0  0  0  0  0  0  0  0  0  0
   45.4020   31.0120   44.5960 O   0  0  0  0  0  0  0  0  0  0  0  0
   44.5040   31.3540   44.3840 H   0  0  0  0  0  0  0  0  0  0  0  0
  1 20  1  0  0  0  0
  2  6  1  0  0  0  0
  2  1  2  0  0  0  0
  3  4  2  0  0  0  0
  3  2  1  0  0  0  0
  4  5  1  0  0  0  0
  5  1  1  0  0  0  0
  7  3  1  0  0  0  0
  8 11  1  6  0  0  0
  8  4  1  0  0  0  0
  9  8  1  0  0  0  0
  9 13  1  0  0  0  0
 10 14  1  1  0  0  0
 10  9  1  0  0  0  0
 10  8  1  0  0  0  0
 12  9  1  0  0  0  0
 15 16  2  0  0  0  0
 15 17  1  0  0  0  0
 17 10  1  0  0  0  0
 18 15  1  0  0  0  0
 19 17  1  0  0  0  0
 20 21  1  0  0  0  0
 21 23  1  0  0  0  0
 22 21  2  0  0  0  0
 23 28  1  0  0  0  0
 24 23  2  0  0  0  0
 24 25  1  0  0  0  0
 25 26  2  0  0  0  0
 26 27  1  0  0  0  0
 27 31  1  0  0  0  0
 28 27  2  0  0  0  0
 29 24  1  0  0  0  0
 30 25  1  0  0  0  0
 33 32  2  0  0  0  0
 33 31  1  0  0  0  0
 33 34  1  0  0  0  0
 34 35  1  0  0  0  0
 36 33  1  0  0  0  0
 37 36  1  0  0  0  0
M  END
>  <minimizedAffinity>
-5.4340663

>  <minimizedRMSD>
0.0636208281

$$$$
