
 OpenBabel03242522513D

 24 24  0  0  0  0  0  0  0  0999 V2000
   45.5100   30.8000   47.5460 O   0  0  0  0  0  0  0  0  0  0  0  0
   45.8340   32.0780   48.3450 P   0  0  2  0  0  0  0  0  0  0  0  0
   45.2510   31.8100   49.9040 O   0  0  0  0  0  0  0  0  0  0  0  0
   45.8050   32.2830   50.5740 H   0  0  0  0  0  0  0  0  0  0  0  0
   44.9960   33.3660   47.6340 O   0  0  0  0  0  0  0  0  0  0  0  0
   46.6690   33.5300   44.4110 C   0  0  0  0  0  0  0  0  0  0  0  0
   46.3010   33.1220   45.7060 C   0  0  0  0  0  0  0  0  0  0  0  0
   45.3130   33.8110   46.3680 C   0  0  0  0  0  0  0  0  0  0  0  0
   44.7290   34.8620   45.7400 N   0  0  0  0  0  0  0  0  0  0  0  0
   45.0810   35.2470   44.5070 C   0  0  0  0  0  0  0  0  0  0  0  0
   46.0470   34.5910   43.8350 N   0  0  0  0  0  0  0  0  0  0  0  0
   47.4310   33.0540   43.8150 H   0  0  0  0  0  0  0  0  0  0  0  0
   46.8790   32.2740   46.0180 H   0  0  0  0  0  0  0  0  0  0  0  0
   44.5130   36.1060   44.1520 H   0  0  0  0  0  0  0  0  0  0  0  0
   47.4590   32.3770   48.3420 O   0  0  0  0  0  0  0  0  0  0  0  0
   48.5150   31.5460   48.5190 C   0  0  0  0  0  0  0  0  0  0  0  0
   49.4420   32.0300   49.2570 O   0  0  0  0  0  0  0  0  0  0  0  0
   49.2350   30.3750   48.3500 O   0  0  0  0  0  0  0  0  0  0  0  0
   51.4580   29.5450   49.4880 O   0  0  0  0  0  0  0  0  0  0  0  0
   49.9490   29.4950   49.5980 P   0  0  0  0  0  0  0  0  0  0  0  0
   49.4200   30.0260   51.0950 O   0  0  0  0  0  0  0  0  0  0  0  0
   49.3060   31.0070   51.1360 H   0  0  0  0  0  0  0  0  0  0  0  0
   49.4770   27.8660   49.3530 O   0  0  0  0  0  0  0  0  0  0  0  0
   50.1830   27.3920   48.8840 H   0  0  0  0  0  0  0  0  0  0  0  0
  2  1  2  6  0  0  0
  2  3  1  0  0  0  0
  3  4  1  0  0  0  0
  5  2  1  0  0  0  0
  6  7  1  0  0  0  0
  7 13  1  0  0  0  0
  7  8  2  0  0  0  0
  8  5  1  0  0  0  0
  9  8  1  0  0  0  0
 10  9  2  0  0  0  0
 11  6  2  0  0  0  0
 11 10  1  0  0  0  0
 12  6  1  0  0  0  0
 14 10  1  0  0  0  0
 15  2  1  0  0  0  0
 15 16  1  0  0  0  0
 16 17  2  0  0  0  0
 18 16  1  0  0  0  0
 18 20  1  0  0  0  0
 19 20  2  0  0  0  0
 20 21  1  0  0  0  0
 21 22  1  0  0  0  0
 23 20  1  0  0  0  0
 24 23  1  0  0  0  0
M  END
>  <minimizedAffinity>
-4.73131132

>  <minimizedRMSD>
0.780326426

$$$$
