
 OpenBabel03242510513D

 20 20  0  0  0  0  0  0  0  0999 V2000
   44.6710   36.1420   43.9230 C   0  0  0  0  0  0  0  0  0  0  0  0
   45.5950   35.6650   42.9800 C   0  0  0  0  0  0  0  0  0  0  0  0
   46.3480   34.5280   43.3290 C   0  0  0  0  0  0  0  0  0  0  0  0
   46.1480   33.9560   44.5430 N   0  0  0  0  0  0  0  0  0  0  0  0
   45.2440   34.4530   45.4180 C   0  0  0  0  0  0  0  0  0  0  0  0
   44.4990   35.5490   45.1170 N   0  0  0  0  0  0  0  0  0  0  0  0
   46.0850   32.8750   47.0580 C   0  0  0  0  0  0  0  0  0  0  0  0
   47.0880   32.5840   46.3830 O   0  0  0  0  0  0  0  0  0  0  0  0
   45.0840   33.8050   46.6730 N   0  0  0  0  0  0  0  0  0  0  0  0
   44.0380   37.0040   43.7680 H   0  0  0  0  0  0  0  0  0  0  0  0
   45.6820   36.1910   42.0390 H   0  0  0  0  0  0  0  0  0  0  0  0
   47.0590   34.1640   42.6000 H   0  0  0  0  0  0  0  0  0  0  0  0
   44.2450   34.0330   47.2620 H   0  0  0  0  0  0  0  0  0  0  0  0
   45.8710   32.2700   48.3030 O   0  0  0  0  0  0  0  0  0  0  0  0
   46.6950   29.9180   47.3090 O   0  0  0  0  0  0  0  0  0  0  0  0
   46.3520   30.6480   48.5700 P   0  0  0  0  0  0  0  0  0  0  0  0
   47.6770   30.7240   49.6380 O   0  0  0  0  0  0  0  0  0  0  0  0
   48.2000   31.5390   49.4360 H   0  0  0  0  0  0  0  0  0  0  0  0
   45.0900   29.8690   49.4100 O   0  0  0  0  0  0  0  0  0  0  0  0
   45.4430   29.2170   50.0630 H   0  0  0  0  0  0  0  0  0  0  0  0
  1  6  1  0  0  0  0
  2  3  1  0  0  0  0
  2  1  2  0  0  0  0
  3  4  2  0  0  0  0
  4  5  1  0  0  0  0
  5  9  1  0  0  0  0
  6  5  2  0  0  0  0
  7 14  1  0  0  0  0
  8  7  2  0  0  0  0
  9  7  1  0  0  0  0
  9 13  1  0  0  0  0
 10  1  1  0  0  0  0
 11  2  1  0  0  0  0
 12  3  1  0  0  0  0
 14 16  1  0  0  0  0
 15 16  2  0  0  0  0
 16 19  1  0  0  0  0
 16 17  1  0  0  0  0
 18 17  1  0  0  0  0
 19 20  1  0  0  0  0
M  END
>  <minimizedAffinity>
-5.28003025

>  <minimizedRMSD>
0.894098043

$$$$
