
 OpenBabel03242522513D

 24 24  0  0  0  0  0  0  0  0999 V2000
   45.3860   30.8060   47.5270 O   0  0  0  0  0  0  0  0  0  0  0  0
   45.7870   32.0420   48.3560 P   0  0  2  0  0  0  0  0  0  0  0  0
   45.1810   31.7780   49.9060 O   0  0  0  0  0  0  0  0  0  0  0  0
   45.7610   32.1990   50.5880 H   0  0  0  0  0  0  0  0  0  0  0  0
   45.0390   33.3970   47.6700 O   0  0  0  0  0  0  0  0  0  0  0  0
   46.6980   33.4960   44.4380 C   0  0  0  0  0  0  0  0  0  0  0  0
   46.3410   33.1190   45.7450 C   0  0  0  0  0  0  0  0  0  0  0  0
   45.3450   33.8110   46.3910 C   0  0  0  0  0  0  0  0  0  0  0  0
   44.7430   34.8360   45.7360 N   0  0  0  0  0  0  0  0  0  0  0  0
   45.0850   35.1920   44.4920 C   0  0  0  0  0  0  0  0  0  0  0  0
   46.0590   34.5310   43.8350 N   0  0  0  0  0  0  0  0  0  0  0  0
   47.4650   33.0150   43.8530 H   0  0  0  0  0  0  0  0  0  0  0  0
   46.9320   32.2880   46.0780 H   0  0  0  0  0  0  0  0  0  0  0  0
   44.5040   36.0320   44.1160 H   0  0  0  0  0  0  0  0  0  0  0  0
   47.4280   32.2350   48.3650 O   0  0  0  0  0  0  0  0  0  0  0  0
   48.4130   31.4480   48.8650 C   0  0  0  0  0  0  0  0  0  0  0  0
   49.4400   32.0930   49.2740 O   0  0  0  0  0  0  0  0  0  0  0  0
   49.0020   30.2460   49.2210 O   0  0  0  0  0  0  0  0  0  0  0  0
   48.0940   28.7950   47.2220 O   0  0  0  0  0  0  0  0  0  0  0  0
   49.2640   28.9560   48.1690 P   0  0  0  0  0  0  0  0  0  0  0  0
   50.7100   29.1300   47.3420 O   0  0  0  0  0  0  0  0  0  0  0  0
   50.8960   30.0670   47.0880 H   0  0  0  0  0  0  0  0  0  0  0  0
   49.3160   27.5520   49.1510 O   0  0  0  0  0  0  0  0  0  0  0  0
   48.4460   27.1220   49.1450 H   0  0  0  0  0  0  0  0  0  0  0  0
  2  1  2  6  0  0  0
  2 15  1  0  0  0  0
  2  3  1  0  0  0  0
  3  4  1  0  0  0  0
  5  2  1  0  0  0  0
  6  7  1  0  0  0  0
  7 13  1  0  0  0  0
  7  8  2  0  0  0  0
  8  5  1  0  0  0  0
  9  8  1  0  0  0  0
 10  9  2  0  0  0  0
 11  6  2  0  0  0  0
 11 10  1  0  0  0  0
 12  6  1  0  0  0  0
 14 10  1  0  0  0  0
 15 16  1  0  0  0  0
 16 18  1  0  0  0  0
 16 17  2  0  0  0  0
 19 20  2  0  0  0  0
 20 23  1  0  0  0  0
 20 18  1  0  0  0  0
 21 20  1  0  0  0  0
 22 21  1  0  0  0  0
 24 23  1  0  0  0  0
M  END
>  <minimizedAffinity>
-4.50169754

>  <minimizedRMSD>
0.772369742

$$$$
