
 OpenBabel03242523553D

 43 45  0  0  1  0  0  0  0  0999 V2000
   42.8140   34.5470   38.7320 C   0  0  1  0  0  0  0  0  0  0  0  0
   42.9440   35.1900   40.1040 C   0  0  1  0  0  0  0  0  0  0  0  0
   41.6490   35.3800   40.6280 O   0  0  0  0  0  0  0  0  0  0  0  0
   40.7170   35.7220   39.6470 C   0  0  0  0  0  0  0  0  0  0  0  0
   40.4340   34.5750   38.7030 C   0  0  2  0  0  0  0  0  0  0  0  0
   41.6620   33.6010   38.8110 C   0  0  1  0  0  0  0  0  0  0  0  0
   43.7710   34.0280   38.4550 H   0  0  0  0  0  0  0  0  0  0  0  0
   43.5150   36.1220   40.0920 H   0  0  0  0  0  0  0  0  0  0  0  0
   40.9940   36.6520   39.1160 H   0  0  0  0  0  0  0  0  0  0  0  0
   39.7830   35.9230   40.1990 H   0  0  0  0  0  0  0  0  0  0  0  0
   39.5250   33.9970   38.9570 H   0  0  0  0  0  0  0  0  0  0  0  0
   41.4540   33.3020   39.8890 H   0  0  0  0  0  0  0  0  0  0  0  0
   42.5830   35.5200   37.7500 O   0  0  0  0  0  0  0  0  0  0  0  0
   42.7650   35.1290   36.8760 H   0  0  0  0  0  0  0  0  0  0  0  0
   40.4400   35.0250   37.3940 O   0  0  0  0  0  0  0  0  0  0  0  0
   39.7370   34.5500   36.8610 H   0  0  0  0  0  0  0  0  0  0  0  0
   43.4870   34.1930   40.9300 O   0  0  0  0  0  0  0  0  0  0  0  0
   44.5860   34.3300   41.6770 C   0  0  0  0  0  0  0  0  0  0  0  0
   45.8480   34.4360   41.0980 C   0  0  0  0  0  0  0  0  0  0  0  0
   46.9630   34.5770   41.9010 C   0  0  0  0  0  0  0  0  0  0  0  0
   46.7960   34.6090   43.2690 N   0  0  0  0  0  0  0  0  0  0  0  0
   45.5540   34.5030   43.8110 C   0  0  0  0  0  0  0  0  0  0  0  0
   44.4600   34.3650   43.0160 N   0  0  0  0  0  0  0  0  0  0  0  0
   45.9920   34.4120   40.0310 H   0  0  0  0  0  0  0  0  0  0  0  0
   45.4270   34.5290   44.8940 H   0  0  0  0  0  0  0  0  0  0  0  0
   48.3450   34.6760   41.3310 C   0  0  0  0  0  0  0  0  0  0  0  0
   49.0620   36.0110   41.5110 C   0  0  0  0  0  0  0  0  0  0  0  0
   49.4880   34.6920   42.1920 C   0  0  0  0  0  0  0  0  0  0  0  0
   48.3860   34.3630   40.2540 H   0  0  0  0  0  0  0  0  0  0  0  0
   48.5480   36.7530   42.1680 H   0  0  0  0  0  0  0  0  0  0  0  0
   49.7650   36.3700   40.7580 H   0  0  0  0  0  0  0  0  0  0  0  0
   50.4570   34.2690   41.8950 H   0  0  0  0  0  0  0  0  0  0  0  0
   49.3140   34.6260   43.2890 H   0  0  0  0  0  0  0  0  0  0  0  0
   41.5420   32.6880   37.8350 O   0  0  0  0  0  0  0  0  0  0  0  0
   40.8950   31.4970   37.8620 C   0  0  0  0  0  0  0  0  0  0  0  0
   39.6250   31.4070   37.5680 O   0  0  0  0  0  0  0  0  0  0  0  0
   41.0210   30.1250   38.1010 O   0  0  0  0  0  0  0  0  0  0  0  0
   40.6690   27.6880   37.2200 O   0  0  0  0  0  0  0  0  0  0  0  0
   41.3120   29.0140   36.8290 P   0  0  0  0  0  0  0  0  0  0  0  0
   42.9230   28.8700   36.4270 O   0  0  0  0  0  0  0  0  0  0  0  0
   43.1800   27.9380   36.1600 H   0  0  0  0  0  0  0  0  0  0  0  0
   40.4320   29.5280   35.4520 O   0  0  0  0  0  0  0  0  0  0  0  0
   39.4580   29.4790   35.6210 H   0  0  0  0  0  0  0  0  0  0  0  0
  1  7  1  6  0  0  0
  1  6  1  0  0  0  0
  1  2  1  0  0  0  0
  2  8  1  6  0  0  0
  2  3  1  0  0  0  0
  2 17  1  0  0  0  0
  4 10  1  0  0  0  0
  4  3  1  0  0  0  0
  5  6  1  0  0  0  0
  5 11  1  1  0  0  0
  5  4  1  0  0  0  0
  6 12  1  1  0  0  0
  9  4  1  0  0  0  0
 13  1  1  0  0  0  0
 14 13  1  0  0  0  0
 15  5  1  0  0  0  0
 16 15  1  0  0  0  0
 17 18  1  0  0  0  0
 18 23  1  0  0  0  0
 19 18  2  0  0  0  0
 19 20  1  0  0  0  0
 20 21  2  0  0  0  0
 21 22  1  0  0  0  0
 22 25  1  0  0  0  0
 23 22  2  0  0  0  0
 24 19  1  0  0  0  0
 26 27  1  0  0  0  0
 26 20  1  0  0  0  0
 26 28  1  0  0  0  0
 27 30  1  0  0  0  0
 27 28  1  0  0  0  0
 28 33  1  0  0  0  0
 29 26  1  0  0  0  0
 31 27  1  0  0  0  0
 32 28  1  0  0  0  0
 34 35  1  0  0  0  0
 34  6  1  0  0  0  0
 35 37  1  0  0  0  0
 36 35  2  0  0  0  0
 39 38  2  0  0  0  0
 39 37  1  0  0  0  0
 40 39  1  0  0  0  0
 41 40  1  0  0  0  0
 42 43  1  0  0  0  0
 42 39  1  0  0  0  0
M  END
>  <minimizedAffinity>
-5.45789862

>  <minimizedRMSD>
0.367849767

$$$$
