
 OpenBabel03252502283D

 33 34  0  0  0  0  0  0  0  0999 V2000
   45.1730   34.3120   41.0110 C   0  0  0  0  0  0  0  0  0  0  0  0
   45.5790   34.8370   42.2380 C   0  0  0  0  0  0  0  0  0  0  0  0
   46.9410   35.0570   42.4440 C   0  0  0  0  0  0  0  0  0  0  0  0
   47.8360   34.7580   41.4610 C   0  0  0  0  0  0  0  0  0  0  0  0
   47.4560   34.2390   40.2410 C   0  0  0  0  0  0  0  0  0  0  0  0
   46.0890   34.0260   40.0520 C   0  0  0  0  0  0  0  0  0  0  0  0
   44.8620   35.0710   43.0160 H   0  0  0  0  0  0  0  0  0  0  0  0
   47.2690   35.4600   43.3850 H   0  0  0  0  0  0  0  0  0  0  0  0
   48.8860   34.9430   41.6580 H   0  0  0  0  0  0  0  0  0  0  0  0
   48.1430   33.9990   39.4570 H   0  0  0  0  0  0  0  0  0  0  0  0
   41.4760   34.7690   40.4090 C   0  0  0  0  0  0  0  0  0  0  0  0
   42.8410   35.0930   40.5310 C   0  0  0  0  0  0  0  0  0  0  0  0
   43.7460   34.1100   40.8570 C   0  0  0  0  0  0  0  0  0  0  0  0
   43.2480   32.8620   41.0440 N   0  0  0  0  0  0  0  0  0  0  0  0
   41.9380   32.5570   40.9260 C   0  0  0  0  0  0  0  0  0  0  0  0
   41.0460   33.5180   40.6060 N   0  0  0  0  0  0  0  0  0  0  0  0
   43.2130   36.1000   40.3760 H   0  0  0  0  0  0  0  0  0  0  0  0
   41.6460   31.5230   41.0970 H   0  0  0  0  0  0  0  0  0  0  0  0
   40.5000   35.8220   40.0590 C   0  0  0  0  0  0  0  0  0  0  0  0
   39.2680   35.1890   39.8260 F   0  0  0  0  0  0  0  0  0  0  0  0
   40.8770   36.3130   38.8010 F   0  0  0  0  0  0  0  0  0  0  0  0
   40.3730   36.7970   40.9980 F   0  0  0  0  0  0  0  0  0  0  0  0
   45.3920   32.2220   38.3000 C   0  0  0  0  0  0  0  0  0  0  0  0
   45.7310   31.1690   38.8250 O   0  0  0  0  0  0  0  0  0  0  0  0
   45.5600   33.5100   38.8490 N   0  0  0  0  0  0  0  0  0  0  0  0
   45.2370   34.3600   38.2920 H   0  0  0  0  0  0  0  0  0  0  0  0
   44.7820   32.1420   37.0330 O   0  0  0  0  0  0  0  0  0  0  0  0
   46.2990   30.9360   35.1980 O   0  0  0  0  0  0  0  0  0  0  0  0
   45.8220   32.2860   35.6780 P   0  0  0  0  0  0  0  0  0  0  0  0
   44.8640   32.9470   34.4260 O   0  0  0  0  0  0  0  0  0  0  0  0
   44.2090   33.5720   34.8390 H   0  0  0  0  0  0  0  0  0  0  0  0
   47.1090   33.3200   35.9340 O   0  0  0  0  0  0  0  0  0  0  0  0
   47.8750   32.8420   36.3690 H   0  0  0  0  0  0  0  0  0  0  0  0
  1  2  1  0  0  0  0
  2  3  2  0  0  0  0
  2  7  1  0  0  0  0
  3  8  1  0  0  0  0
  4  9  1  0  0  0  0
  4  3  1  0  0  0  0
  5  4  2  0  0  0  0
  6  5  1  0  0  0  0
  6  1  2  0  0  0  0
 10  5  1  0  0  0  0
 11 12  2  0  0  0  0
 11 16  1  0  0  0  0
 12 13  1  0  0  0  0
 13  1  1  0  0  0  0
 13 14  2  0  0  0  0
 15 14  1  0  0  0  0
 15 18  1  0  0  0  0
 16 15  2  0  0  0  0
 17 12  1  0  0  0  0
 19 11  1  0  0  0  0
 19 22  1  0  0  0  0
 20 19  1  0  0  0  0
 21 19  1  0  0  0  0
 23 24  2  0  0  0  0
 23 25  1  0  0  0  0
 25  6  1  0  0  0  0
 26 25  1  0  0  0  0
 27 23  1  0  0  0  0
 28 29  2  0  0  0  0
 29 32  1  0  0  0  0
 29 27  1  0  0  0  0
 30 31  1  0  0  0  0
 30 29  1  0  0  0  0
 32 33  1  0  0  0  0
M  END
>  <minimizedAffinity>
-6.50482655

>  <minimizedRMSD>
0.253129959

$$$$
