
 OpenBabel03242523553D

 43 45  0  0  1  0  0  0  0  0999 V2000
   42.8020   34.2770   39.0330 C   0  0  1  0  0  0  0  0  0  0  0  0
   43.0650   35.1800   40.2290 C   0  0  1  0  0  0  0  0  0  0  0  0
   41.8320   35.7090   40.6620 O   0  0  0  0  0  0  0  0  0  0  0  0
   40.9620   35.9810   39.6040 C   0  0  0  0  0  0  0  0  0  0  0  0
   40.4650   34.7200   38.9340 C   0  0  2  0  0  0  0  0  0  0  0  0
   41.5010   33.5930   39.2910 C   0  0  1  0  0  0  0  0  0  0  0  0
   43.6470   33.5470   38.9050 H   0  0  0  0  0  0  0  0  0  0  0  0
   43.7920   35.9690   40.0240 H   0  0  0  0  0  0  0  0  0  0  0  0
   41.3940   36.7030   38.8860 H   0  0  0  0  0  0  0  0  0  0  0  0
   40.0870   36.4630   40.0720 H   0  0  0  0  0  0  0  0  0  0  0  0
   39.4710   34.3850   39.2870 H   0  0  0  0  0  0  0  0  0  0  0  0
   41.2580   33.5870   40.4030 H   0  0  0  0  0  0  0  0  0  0  0  0
   42.7350   35.0290   37.8520 O   0  0  0  0  0  0  0  0  0  0  0  0
   42.8320   34.4260   37.0940 H   0  0  0  0  0  0  0  0  0  0  0  0
   40.5340   34.8550   37.5580 O   0  0  0  0  0  0  0  0  0  0  0  0
   39.7500   34.4040   37.1260 H   0  0  0  0  0  0  0  0  0  0  0  0
   43.4320   34.3140   41.2720 O   0  0  0  0  0  0  0  0  0  0  0  0
   44.5860   34.3670   41.9430 C   0  0  0  0  0  0  0  0  0  0  0  0
   45.8030   34.5080   41.2810 C   0  0  0  0  0  0  0  0  0  0  0  0
   46.9770   34.5600   42.0060 C   0  0  0  0  0  0  0  0  0  0  0  0
   46.9130   34.4700   43.3800 N   0  0  0  0  0  0  0  0  0  0  0  0
   45.7130   34.3320   44.0030 C   0  0  0  0  0  0  0  0  0  0  0  0
   44.5600   34.2820   43.2850 N   0  0  0  0  0  0  0  0  0  0  0  0
   45.8660   34.5800   40.2090 H   0  0  0  0  0  0  0  0  0  0  0  0
   45.6680   34.2610   45.0910 H   0  0  0  0  0  0  0  0  0  0  0  0
   48.3150   34.6920   41.3440 C   0  0  0  0  0  0  0  0  0  0  0  0
   49.0440   36.0180   41.5380 C   0  0  0  0  0  0  0  0  0  0  0  0
   49.5170   34.6680   42.1200 C   0  0  0  0  0  0  0  0  0  0  0  0
   48.2780   34.4330   40.2520 H   0  0  0  0  0  0  0  0  0  0  0  0
   48.5780   36.7250   42.2660 H   0  0  0  0  0  0  0  0  0  0  0  0
   49.6910   36.4160   40.7560 H   0  0  0  0  0  0  0  0  0  0  0  0
   50.4610   34.2630   41.7340 H   0  0  0  0  0  0  0  0  0  0  0  0
   49.4230   34.5480   43.2230 H   0  0  0  0  0  0  0  0  0  0  0  0
   41.2050   32.5190   38.5410 O   0  0  0  0  0  0  0  0  0  0  0  0
   40.1080   31.7260   38.5910 C   0  0  0  0  0  0  0  0  0  0  0  0
   39.3900   31.4930   37.5230 O   0  0  0  0  0  0  0  0  0  0  0  0
   39.2970   30.9340   39.4100 O   0  0  0  0  0  0  0  0  0  0  0  0
   37.6340   30.5090   41.3830 O   0  0  0  0  0  0  0  0  0  0  0  0
   38.6500   31.5290   40.8800 P   0  0  0  0  0  0  0  0  0  0  0  0
   38.0290   33.0710   40.7590 O   0  0  0  0  0  0  0  0  0  0  0  0
   37.2160   33.2130   41.3290 H   0  0  0  0  0  0  0  0  0  0  0  0
   39.8910   31.5140   42.0610 O   0  0  0  0  0  0  0  0  0  0  0  0
   40.1750   30.5860   42.2590 H   0  0  0  0  0  0  0  0  0  0  0  0
  1  7  1  6  0  0  0
  1  6  1  0  0  0  0
  1  2  1  0  0  0  0
  2  8  1  6  0  0  0
  2  3  1  0  0  0  0
  2 17  1  0  0  0  0
  4 10  1  0  0  0  0
  4  3  1  0  0  0  0
  5 11  1  1  0  0  0
  5  6  1  0  0  0  0
  5  4  1  0  0  0  0
  6 12  1  1  0  0  0
  9  4  1  0  0  0  0
 13  1  1  0  0  0  0
 14 13  1  0  0  0  0
 15  5  1  0  0  0  0
 16 15  1  0  0  0  0
 17 18  1  0  0  0  0
 18 23  1  0  0  0  0
 19 18  2  0  0  0  0
 19 20  1  0  0  0  0
 20 21  2  0  0  0  0
 21 22  1  0  0  0  0
 22 25  1  0  0  0  0
 23 22  2  0  0  0  0
 24 19  1  0  0  0  0
 26 27  1  0  0  0  0
 26 20  1  0  0  0  0
 26 28  1  0  0  0  0
 27 28  1  0  0  0  0
 27 30  1  0  0  0  0
 28 33  1  0  0  0  0
 29 26  1  0  0  0  0
 31 27  1  0  0  0  0
 32 28  1  0  0  0  0
 34 35  1  0  0  0  0
 34  6  1  0  0  0  0
 35 37  1  0  0  0  0
 36 35  2  0  0  0  0
 37 39  1  0  0  0  0
 39 38  2  0  0  0  0
 39 42  1  0  0  0  0
 40 39  1  0  0  0  0
 40 41  1  0  0  0  0
 42 43  1  0  0  0  0
M  END
>  <minimizedAffinity>
-6.37068605

>  <minimizedRMSD>
1.64172173

$$$$
