
 OpenBabel03252508003D

 27 28  0  0  1  0  0  0  0  0999 V2000
   46.4300   34.7400   43.1780 C   0  0  0  0  0  0  0  0  0  0  0  0
   45.4220   35.6840   43.4580 C   0  0  0  0  0  0  0  0  0  0  0  0
   44.6860   35.5160   44.6360 C   0  0  0  0  0  0  0  0  0  0  0  0
   44.9930   34.4540   45.4260 N   0  0  0  0  0  0  0  0  0  0  0  0
   45.9850   33.5740   45.0920 C   0  0  0  0  0  0  0  0  0  0  0  0
   46.7120   33.6880   43.9900 N   0  0  0  0  0  0  0  0  0  0  0  0
   45.2220   36.5030   42.7990 H   0  0  0  0  0  0  0  0  0  0  0  0
   43.9140   36.2160   44.8790 H   0  0  0  0  0  0  0  0  0  0  0  0
   46.2740   32.4390   46.0270 C   0  0  1  0  0  0  0  0  0  0  0  0
   47.0010   32.7190   47.3210 C   0  0  0  0  0  0  0  0  0  0  0  0
   45.5140   32.4820   47.2930 C   0  0  1  0  0  0  0  0  0  0  0  0
   46.5190   31.4700   45.5810 H   0  0  0  0  0  0  0  0  0  0  0  0
   47.6310   31.9060   47.7290 H   0  0  0  0  0  0  0  0  0  0  0  0
   47.4160   33.7350   47.4500 H   0  0  0  0  0  0  0  0  0  0  0  0
   45.1670   31.6030   47.8320 H   0  0  0  0  0  0  0  0  0  0  0  0
   44.7750   33.7010   47.6480 N   0  0  0  0  0  0  0  0  0  0  0  0
   45.0060   33.9160   48.6510 H   0  0  0  0  0  0  0  0  0  0  0  0
   43.7400   33.5220   47.6210 H   0  0  0  0  0  0  0  0  0  0  0  0
   47.1610   34.9760   41.9570 C   0  0  0  0  0  0  0  0  0  0  0  0
   48.2510   35.6470   41.8970 O   0  0  0  0  0  0  0  0  0  0  0  0
   46.6710   34.4510   40.7450 O   0  0  0  0  0  0  0  0  0  0  0  0
   47.0880   32.1700   39.4090 O   0  0  0  0  0  0  0  0  0  0  0  0
   47.6680   33.5250   39.6900 P   0  0  0  0  0  0  0  0  0  0  0  0
   47.8160   34.4340   38.2570 O   0  0  0  0  0  0  0  0  0  0  0  0
   47.8710   35.3980   38.4780 H   0  0  0  0  0  0  0  0  0  0  0  0
   49.2370   33.3940   40.3280 O   0  0  0  0  0  0  0  0  0  0  0  0
   49.6950   34.2660   40.1710 H   0  0  0  0  0  0  0  0  0  0  0  0
  1  2  2  0  0  0  0
  1  6  1  0  0  0  0
  2  3  1  0  0  0  0
  3  8  1  0  0  0  0
  3  4  2  0  0  0  0
  5  4  1  0  0  0  0
  5  9  1  0  0  0  0
  6  5  2  0  0  0  0
  7  2  1  0  0  0  0
  9 12  1  6  0  0  0
  9 11  1  0  0  0  0
  9 10  1  0  0  0  0
 10 14  1  0  0  0  0
 10 13  1  0  0  0  0
 11 10  1  0  0  0  0
 11 16  1  0  0  0  0
 11 15  1  1  0  0  0
 16 17  1  0  0  0  0
 18 16  1  0  0  0  0
 19  1  1  0  0  0  0
 20 19  2  0  0  0  0
 21 19  1  0  0  0  0
 22 23  2  0  0  0  0
 23 26  1  0  0  0  0
 23 21  1  0  0  0  0
 24 25  1  0  0  0  0
 24 23  1  0  0  0  0
 27 26  1  0  0  0  0
M  END
>  <minimizedAffinity>
-5.42302656

>  <minimizedRMSD>
0.493169278

$$$$
