
 OpenBabel03252508283D

 37 39  0  0  1  0  0  0  0  0999 V2000
   40.5010   32.8260   39.2880 N   0  0  0  0  0  0  0  0  0  0  0  0
   40.6690   32.6040   40.7270 C   0  0  2  0  0  0  0  0  0  0  0  0
   39.4650   32.9630   41.5120 C   0  0  0  0  0  0  0  0  0  0  0  0
   38.3080   33.2200   40.6700 N   0  0  0  0  0  0  0  0  0  0  0  0
   38.5290   34.1020   39.5820 C   0  0  0  0  0  0  0  0  0  0  0  0
   39.9860   34.2120   39.1920 C   0  0  2  0  0  0  0  0  0  0  0  0
   39.7570   32.2020   38.9270 H   0  0  0  0  0  0  0  0  0  0  0  0
   40.9980   31.5380   40.8560 H   0  0  0  0  0  0  0  0  0  0  0  0
   39.4970   33.8870   42.1080 H   0  0  0  0  0  0  0  0  0  0  0  0
   39.1830   32.0720   42.1220 H   0  0  0  0  0  0  0  0  0  0  0  0
   37.5050   33.4270   41.2760 H   0  0  0  0  0  0  0  0  0  0  0  0
   38.0850   35.0960   39.8220 H   0  0  0  0  0  0  0  0  0  0  0  0
   38.0110   33.6770   38.6970 H   0  0  0  0  0  0  0  0  0  0  0  0
   40.4930   34.8870   39.8920 H   0  0  0  0  0  0  0  0  0  0  0  0
   43.7980   34.0990   41.7280 C   0  0  0  0  0  0  0  0  0  0  0  0
   42.8700   35.1330   41.8590 C   0  0  0  0  0  0  0  0  0  0  0  0
   41.6090   34.6920   41.5130 C   0  0  0  0  0  0  0  0  0  0  0  0
   41.7910   33.4160   41.1790 N   0  0  0  0  0  0  0  0  0  0  0  0
   43.0650   33.0700   41.3040 N   0  0  0  0  0  0  0  0  0  0  0  0
   43.2320   36.1220   42.2040 H   0  0  0  0  0  0  0  0  0  0  0  0
   40.8830   35.4890   41.6190 H   0  0  0  0  0  0  0  0  0  0  0  0
   47.5220   34.5630   41.5390 C   0  0  0  0  0  0  0  0  0  0  0  0
   46.1700   34.4840   41.0750 C   0  0  0  0  0  0  0  0  0  0  0  0
   45.2240   34.2090   42.0290 C   0  0  0  0  0  0  0  0  0  0  0  0
   45.5940   34.0280   43.3370 N   0  0  0  0  0  0  0  0  0  0  0  0
   46.8880   34.1130   43.7270 C   0  0  0  0  0  0  0  0  0  0  0  0
   47.8210   34.3790   42.8180 N   0  0  0  0  0  0  0  0  0  0  0  0
   48.2130   34.7830   40.7290 H   0  0  0  0  0  0  0  0  0  0  0  0
   45.8380   34.6180   40.0710 H   0  0  0  0  0  0  0  0  0  0  0  0
   47.1450   33.9650   44.7650 H   0  0  0  0  0  0  0  0  0  0  0  0
   40.1250   34.6080   37.8640 O   0  0  0  0  0  0  0  0  0  0  0  0
   41.1080   36.8800   38.8190 O   0  0  0  0  0  0  0  0  0  0  0  0
   41.2230   35.8830   37.6970 P   0  0  0  0  0  0  0  0  0  0  0  0
   41.0310   36.6380   36.1760 O   0  0  0  0  0  0  0  0  0  0  0  0
   40.4960   36.0130   35.6230 H   0  0  0  0  0  0  0  0  0  0  0  0
   42.7880   35.2290   37.7380 O   0  0  0  0  0  0  0  0  0  0  0  0
   43.1040   34.9280   36.8420 H   0  0  0  0  0  0  0  0  0  0  0  0
  1  2  1  0  0  0  0
  2  8  1  1  0  0  0
  2 18  1  0  0  0  0
  2  3  1  0  0  0  0
  3  9  1  0  0  0  0
  3 10  1  0  0  0  0
  4 11  1  0  0  0  0
  4  3  1  0  0  0  0
  5 12  1  0  0  0  0
  5  4  1  0  0  0  0
  6  1  1  0  0  0  0
  6  5  1  0  0  0  0
  6 14  1  1  0  0  0
  7  1  1  0  0  0  0
 13  5  1  0  0  0  0
 15 16  1  0  0  0  0
 15 24  1  0  0  0  0
 16 20  1  0  0  0  0
 17 21  1  0  0  0  0
 17 16  2  0  0  0  0
 18 19  1  0  0  0  0
 18 17  1  0  0  0  0
 19 15  2  0  0  0  0
 22 27  1  0  0  0  0
 23 22  2  0  0  0  0
 23 24  1  0  0  0  0
 24 25  2  0  0  0  0
 25 26  1  0  0  0  0
 26 30  1  0  0  0  0
 27 26  2  0  0  0  0
 28 22  1  0  0  0  0
 29 23  1  0  0  0  0
 31  6  1  0  0  0  0
 33 36  1  0  0  0  0
 33 31  1  0  0  0  0
 33 32  2  0  0  0  0
 34 33  1  0  0  0  0
 35 34  1  0  0  0  0
 37 36  1  0  0  0  0
M  END
>  <minimizedAffinity>
-5.38137197

>  <minimizedRMSD>
2.32447171

$$$$
