
 OpenBabel03252509353D

 42 43  0  0  1  0  0  0  0  0999 V2000
   43.2450   31.9340   42.2810 O   0  0  0  0  0  0  0  0  0  0  0  0
   44.6970   31.5070   42.3940 P   0  0  1  0  0  0  0  0  0  0  0  0
   45.1770   30.6340   41.0260 O   0  0  0  0  0  0  0  0  0  0  0  0
   44.7650   31.0130   40.1970 H   0  0  0  0  0  0  0  0  0  0  0  0
   45.6270   32.8850   42.5450 O   0  0  0  0  0  0  0  0  0  0  0  0
   46.5810   32.9250   41.5220 C   0  0  1  0  0  0  0  0  0  0  0  0
   46.4430   34.2290   40.7320 C   0  0  0  0  0  0  0  0  0  0  0  0
   47.7170   34.1950   39.9220 C   0  0  0  0  0  0  0  0  0  0  0  0
   48.7190   33.3970   40.7430 C   0  0  0  0  0  0  0  0  0  0  0  0
   47.9840   33.0630   42.0240 C   0  0  1  0  0  0  0  0  0  0  0  0
   46.4930   32.1150   40.8020 H   0  0  0  0  0  0  0  0  0  0  0  0
   45.5840   34.1090   40.0350 H   0  0  0  0  0  0  0  0  0  0  0  0
   46.3090   35.1090   41.3530 H   0  0  0  0  0  0  0  0  0  0  0  0
   47.5150   33.6970   38.9290 H   0  0  0  0  0  0  0  0  0  0  0  0
   48.1070   35.2260   39.7810 H   0  0  0  0  0  0  0  0  0  0  0  0
   49.6470   33.9600   40.9210 H   0  0  0  0  0  0  0  0  0  0  0  0
   48.8730   32.4320   40.2210 H   0  0  0  0  0  0  0  0  0  0  0  0
   48.3100   32.0920   42.4380 H   0  0  0  0  0  0  0  0  0  0  0  0
   48.1370   34.1400   43.0630 C   0  0  0  0  0  0  0  0  0  0  0  0
   47.5570   35.0680   42.8410 H   0  0  0  0  0  0  0  0  0  0  0  0
   49.2150   34.4540   43.1580 H   0  0  0  0  0  0  0  0  0  0  0  0
   47.7150   33.7280   44.3060 O   0  0  0  0  0  0  0  0  0  0  0  0
   47.6690   32.7410   44.3250 H   0  0  0  0  0  0  0  0  0  0  0  0
   44.9130   30.4940   43.7020 O   0  0  0  0  0  0  0  0  0  0  0  0
   45.6200   31.1470   44.6600 C   0  0  0  0  0  0  0  0  0  0  0  0
   44.9000   31.8110   45.2170 H   0  0  0  0  0  0  0  0  0  0  0  0
   46.4350   31.7960   44.3510 H   0  0  0  0  0  0  0  0  0  0  0  0
   48.0550   29.3020   46.7870 C   0  0  0  0  0  0  0  0  0  0  0  0
   47.5670   30.1770   45.8130 C   0  0  0  0  0  0  0  0  0  0  0  0
   46.1730   30.2350   45.6810 C   0  0  0  0  0  0  0  0  0  0  0  0
   45.3850   29.4590   46.4850 N   0  0  0  0  0  0  0  0  0  0  0  0
   45.8970   28.6270   47.4150 C   0  0  0  0  0  0  0  0  0  0  0  0
   47.2280   28.5550   47.5580 N   0  0  0  0  0  0  0  0  0  0  0  0
   49.1290   29.2150   46.9350 H   0  0  0  0  0  0  0  0  0  0  0  0
   48.2500   30.7580   45.2150 H   0  0  0  0  0  0  0  0  0  0  0  0
   44.9500   27.9170   48.1400 O   0  0  0  0  0  0  0  0  0  0  0  0
   45.4250   25.5780   47.1000 O   0  0  0  0  0  0  0  0  0  0  0  0
   44.3040   26.4330   47.6560 P   0  0  0  0  0  0  0  0  0  0  0  0
   43.1520   26.6100   46.4200 O   0  0  0  0  0  0  0  0  0  0  0  0
   43.6560   26.8120   45.5950 H   0  0  0  0  0  0  0  0  0  0  0  0
   43.6080   25.5800   48.9400 O   0  0  0  0  0  0  0  0  0  0  0  0
   42.8430   25.0820   48.5850 H   0  0  0  0  0  0  0  0  0  0  0  0
  2  1  2  6  0  0  0
  2  5  1  0  0  0  0
  2 24  1  0  0  0  0
  3  2  1  0  0  0  0
  4  3  1  0  0  0  0
  6 11  1  6  0  0  0
  6 10  1  0  0  0  0
  6  5  1  0  0  0  0
  7 13  1  0  0  0  0
  7  6  1  0  0  0  0
  8  7  1  0  0  0  0
  8  9  1  0  0  0  0
  9 16  1  0  0  0  0
  9 10  1  0  0  0  0
 10 18  1  1  0  0  0
 10 19  1  0  0  0  0
 12  7  1  0  0  0  0
 14  8  1  0  0  0  0
 15  8  1  0  0  0  0
 17  9  1  0  0  0  0
 19 21  1  0  0  0  0
 19 22  1  0  0  0  0
 20 19  1  0  0  0  0
 22 23  1  0  0  0  0
 24 25  1  0  0  0  0
 25 26  1  0  0  0  0
 25 30  1  0  0  0  0
 27 25  1  0  0  0  0
 28 34  1  0  0  0  0
 28 33  1  0  0  0  0
 29 28  2  0  0  0  0
 30 29  1  0  0  0  0
 30 31  2  0  0  0  0
 31 32  1  0  0  0  0
 32 33  2  0  0  0  0
 32 36  1  0  0  0  0
 35 29  1  0  0  0  0
 37 38  2  0  0  0  0
 38 36  1  0  0  0  0
 38 41  1  0  0  0  0
 39 38  1  0  0  0  0
 40 39  1  0  0  0  0
 42 41  1  0  0  0  0
M  END
>  <minimizedAffinity>
-3.69218349

>  <minimizedRMSD>
2.79358554

$$$$
