
 OpenBabel03242513113D

 18 18  0  0  0  0  0  0  0  0999 V2000
   44.6000   35.7380   44.6940 C   0  0  0  0  0  0  0  0  0  0  0  0
   45.3060   35.5520   43.5010 C   0  0  0  0  0  0  0  0  0  0  0  0
   46.1840   34.4650   43.4720 C   0  0  0  0  0  0  0  0  0  0  0  0
   46.3100   33.6580   44.5760 N   0  0  0  0  0  0  0  0  0  0  0  0
   45.6030   33.8950   45.6880 C   0  0  0  0  0  0  0  0  0  0  0  0
   44.7540   34.9310   45.7380 N   0  0  0  0  0  0  0  0  0  0  0  0
   43.9140   36.5950   44.7010 H   0  0  0  0  0  0  0  0  0  0  0  0
   45.2030   36.1900   42.6350 H   0  0  0  0  0  0  0  0  0  0  0  0
   46.7710   34.2380   42.6060 H   0  0  0  0  0  0  0  0  0  0  0  0
   45.7210   33.0510   46.8710 C   0  0  0  0  0  0  0  0  0  0  0  0
   44.8060   32.9710   47.7240 O   0  0  0  0  0  0  0  0  0  0  0  0
   46.9000   32.3240   47.0290 O   0  0  0  0  0  0  0  0  0  0  0  0
   48.6340   31.7770   48.8730 O   0  0  0  0  0  0  0  0  0  0  0  0
   47.2030   31.4450   48.4600 P   0  0  0  0  0  0  0  0  0  0  0  0
   47.1490   29.7630   48.1760 O   0  0  0  0  0  0  0  0  0  0  0  0
   47.9070   29.4880   47.6190 H   0  0  0  0  0  0  0  0  0  0  0  0
   46.1960   31.8510   49.7260 O   0  0  0  0  0  0  0  0  0  0  0  0
   45.2910   31.4940   49.5780 H   0  0  0  0  0  0  0  0  0  0  0  0
  1  7  1  0  0  0  0
  1  6  1  0  0  0  0
  2  1  2  0  0  0  0
  3  2  1  0  0  0  0
  3  4  2  0  0  0  0
  4  5  1  0  0  0  0
  5  6  2  0  0  0  0
  5 10  1  0  0  0  0
  8  2  1  0  0  0  0
  9  3  1  0  0  0  0
 10 12  1  0  0  0  0
 10 11  2  0  0  0  0
 12 14  1  0  0  0  0
 14 13  2  0  0  0  0
 14 17  1  0  0  0  0
 15 14  1  0  0  0  0
 16 15  1  0  0  0  0
 18 17  1  0  0  0  0
M  END
>  <minimizedAffinity>
-4.46315479

>  <minimizedRMSD>
1.70378256

$$$$
