
 OpenBabel03252508423D

 29 30  0  0  0  0  0  0  0  0999 V2000
   46.7940   34.7690   42.1510 C   0  0  0  0  0  0  0  0  0  0  0  0
   46.1210   34.1630   41.0920 C   0  0  0  0  0  0  0  0  0  0  0  0
   46.7620   34.0530   39.8790 C   0  0  0  0  0  0  0  0  0  0  0  0
   48.0380   34.5380   39.7360 C   0  0  0  0  0  0  0  0  0  0  0  0
   48.7240   35.1370   40.7520 C   0  0  0  0  0  0  0  0  0  0  0  0
   48.0470   35.2340   41.9680 C   0  0  0  0  0  0  0  0  0  0  0  0
   46.1980   33.5690   39.0700 H   0  0  0  0  0  0  0  0  0  0  0  0
   48.4330   34.3890   38.7240 H   0  0  0  0  0  0  0  0  0  0  0  0
   49.7150   35.4970   40.5880 H   0  0  0  0  0  0  0  0  0  0  0  0
   48.5840   35.7100   42.7960 H   0  0  0  0  0  0  0  0  0  0  0  0
   45.3870   34.0960   45.6010 C   0  0  0  0  0  0  0  0  0  0  0  0
   46.1400   33.9200   44.4160 C   0  0  0  0  0  0  0  0  0  0  0  0
   46.0640   34.8570   43.4050 C   0  0  0  0  0  0  0  0  0  0  0  0
   45.2520   35.9110   43.6250 N   0  0  0  0  0  0  0  0  0  0  0  0
   44.5270   36.1010   44.7460 C   0  0  0  0  0  0  0  0  0  0  0  0
   44.5990   35.1890   45.7280 N   0  0  0  0  0  0  0  0  0  0  0  0
   45.4290   33.3820   46.4020 H   0  0  0  0  0  0  0  0  0  0  0  0
   46.7640   33.0730   44.2880 H   0  0  0  0  0  0  0  0  0  0  0  0
   43.9130   37.0030   44.7840 H   0  0  0  0  0  0  0  0  0  0  0  0
   44.7390   33.6520   41.2620 C   0  0  0  0  0  0  0  0  0  0  0  0
   44.8050   32.5560   41.4050 H   0  0  0  0  0  0  0  0  0  0  0  0
   44.3140   34.0910   42.1910 H   0  0  0  0  0  0  0  0  0  0  0  0
   43.8730   34.0150   40.2490 O   0  0  0  0  0  0  0  0  0  0  0  0
   41.9340   32.8880   41.5180 O   0  0  0  0  0  0  0  0  0  0  0  0
   42.3680   34.2730   41.0260 P   0  0  0  0  0  0  0  0  0  0  0  0
   42.4980   35.3560   42.2930 O   0  0  0  0  0  0  0  0  0  0  0  0
   41.8130   35.0810   42.9800 H   0  0  0  0  0  0  0  0  0  0  0  0
   41.2430   34.8720   39.9150 O   0  0  0  0  0  0  0  0  0  0  0  0
   40.7540   34.1390   39.4600 H   0  0  0  0  0  0  0  0  0  0  0  0
  1 13  1  0  0  0  0
  2 20  1  0  0  0  0
  2  1  2  0  0  0  0
  3  2  1  0  0  0  0
  4  3  2  0  0  0  0
  4  5  1  0  0  0  0
  5  6  2  0  0  0  0
  6  1  1  0  0  0  0
  6 10  1  0  0  0  0
  7  3  1  0  0  0  0
  8  4  1  0  0  0  0
  9  5  1  0  0  0  0
 11 16  1  0  0  0  0
 11 17  1  0  0  0  0
 12 11  2  0  0  0  0
 13 14  2  0  0  0  0
 13 12  1  0  0  0  0
 14 15  1  0  0  0  0
 15 19  1  0  0  0  0
 15 16  2  0  0  0  0
 18 12  1  0  0  0  0
 20 21  1  0  0  0  0
 20 22  1  0  0  0  0
 23 25  1  0  0  0  0
 23 20  1  0  0  0  0
 25 24  2  0  0  0  0
 25 26  1  0  0  0  0
 26 27  1  0  0  0  0
 28 25  1  0  0  0  0
 29 28  1  0  0  0  0
M  END
>  <minimizedAffinity>
-5.56461906

>  <minimizedRMSD>
4.77500629

$$$$
