REMARK  Name = 
REMARK  6 active torsions:
REMARK  status: ('A' for Active; 'I' for Inactive)
REMARK    1  A    between atoms: C_2  and  N_10
REMARK    2  A    between atoms: C_3  and  C_7
REMARK    3  A    between atoms: C_9  and  O_23
REMARK    4  A    between atoms: P_20  and  O_21
REMARK    5  A    between atoms: P_20  and  O_22
REMARK    6  A    between atoms: P_20  and  O_23
REMARK                            x       y       z     vdW  Elec       q    Type
REMARK                         _______ _______ _______ _____ _____    ______ ____
ROOT
ATOM      1  C   UNL     1      46.534  34.971  41.937  0.00  0.00    +0.000 C 
ATOM      2  C   UNL     1      48.055  35.267  41.921  0.00  0.00    +0.000 C 
ATOM      3  C   UNL     1      47.404  33.983  41.411  0.00  0.00    +0.000 C 
ATOM      4  H   UNL     1      45.942  35.677  41.330  0.00  0.00    +0.000 HD
ATOM      5  H   UNL     1      48.316  36.061  41.236  0.00  0.00    +0.000 HD
ATOM      6  H   UNL     1      48.619  35.257  42.850  0.00  0.00    +0.000 HD
ATOM      7  H   UNL     1      47.666  33.108  42.044  0.00  0.00    +0.000 HD
ENDROOT
BRANCH   1  10
ATOM      8  C   UNL     1      44.633  35.456  45.131  0.00  0.00    +0.000 A 
ATOM      9  C   UNL     1      45.099  35.721  43.799  0.00  0.00    +0.000 A 
ATOM     10  C   UNL     1      46.041  34.827  43.364  0.00  0.00    +0.000 A 
ATOM     11  N   UNL     1      46.487  33.779  44.144  0.00  0.00    +0.000 NA
ATOM     12  C   UNL     1      46.010  33.588  45.382  0.00  0.00    +0.000 A 
ATOM     13  N   UNL     1      45.074  34.434  45.878  0.00  0.00    +0.000 NA
ATOM     14  H   UNL     1      43.887  36.130  45.530  0.00  0.00    +0.000 HD
ATOM     15  H   UNL     1      46.472  32.726  45.835  0.00  0.00    +0.000 HD
BRANCH   9  16
ATOM     16  N   UNL     1      44.646  36.814  43.021  0.00  0.00    +0.000 N 
ATOM     17  H   UNL     1      45.172  37.636  43.392  0.00  0.00    +0.000 HD
ATOM     18  H   UNL     1      43.947  36.854  42.241  0.00  0.00    +0.000 HD
ENDBRANCH   9  16
ENDBRANCH   1  10
BRANCH   3  19
ATOM     19  O   UNL     1      47.358  33.677  40.087  0.00  0.00    +0.000 OA
BRANCH  19  21
ATOM     20  O   UNL     1      46.190  31.311  40.437  0.00  0.00    +0.000 OA
ATOM     21  P   UNL     1      46.284  32.528  39.597  0.00  0.00    +0.000 P 
BRANCH  21  22
ATOM     22  O   UNL     1      44.726  33.217  39.543  0.00  0.00    +0.000 OA
ATOM     23  H   UNL     1      44.048  32.552  39.271  0.00  0.00    +0.000 HD
ENDBRANCH  21  22
BRANCH  21  24
ATOM     24  O   UNL     1      46.626  32.168  37.963  0.00  0.00    +0.000 OA
ATOM     25  H   UNL     1      47.012  32.919  37.491  0.00  0.00    +0.000 HD
ENDBRANCH  21  24
ENDBRANCH  19  21
ENDBRANCH   3  19
TORSDOF 6
