
 OpenBabel03252500593D

 23 24  0  0  1  0  0  0  0  0999 V2000
   48.0210   35.6190   42.0300 C   0  0  1  0  0  0  0  0  0  0  0  0
   49.4340   35.1070   41.9780 C   0  0  0  0  0  0  0  0  0  0  0  0
   48.5720   35.1910   40.7430 C   0  0  1  0  0  0  0  0  0  0  0  0
   47.9120   36.6450   42.4070 H   0  0  0  0  0  0  0  0  0  0  0  0
   49.6650   34.1820   42.4730 H   0  0  0  0  0  0  0  0  0  0  0  0
   50.2370   35.8670   42.0710 H   0  0  0  0  0  0  0  0  0  0  0  0
   48.8670   35.9900   40.0030 H   0  0  0  0  0  0  0  0  0  0  0  0
   46.5780   32.8300   44.1250 C   0  0  0  0  0  0  0  0  0  0  0  0
   47.5520   33.6510   43.5280 C   0  0  0  0  0  0  0  0  0  0  0  0
   47.0740   34.6680   42.7090 C   0  0  0  0  0  0  0  0  0  0  0  0
   45.7210   34.8250   42.5230 N   0  0  0  0  0  0  0  0  0  0  0  0
   44.8210   34.0210   43.1120 C   0  0  0  0  0  0  0  0  0  0  0  0
   45.2570   33.0230   43.9140 N   0  0  0  0  0  0  0  0  0  0  0  0
   46.9670   32.0430   44.7590 H   0  0  0  0  0  0  0  0  0  0  0  0
   48.6050   33.5330   43.6690 H   0  0  0  0  0  0  0  0  0  0  0  0
   43.7640   34.1660   42.9510 H   0  0  0  0  0  0  0  0  0  0  0  0
   48.0030   34.1250   40.1510 O   0  0  0  0  0  0  0  0  0  0  0  0
   48.7100   32.5290   38.1310 O   0  0  0  0  0  0  0  0  0  0  0  0
   48.1880   33.8720   38.5460 P   0  0  0  0  0  0  0  0  0  0  0  0
   49.1480   35.0390   37.7780 O   0  0  0  0  0  0  0  0  0  0  0  0
   49.3310   34.6860   36.8640 H   0  0  0  0  0  0  0  0  0  0  0  0
   46.6490   34.0000   37.8200 O   0  0  0  0  0  0  0  0  0  0  0  0
   46.1300   34.6660   38.3280 H   0  0  0  0  0  0  0  0  0  0  0  0
  1  4  1  1  0  0  0
  1 10  1  0  0  0  0
  2  1  1  0  0  0  0
  2  6  1  0  0  0  0
  2  5  1  0  0  0  0
  3  7  1  6  0  0  0
  3  2  1  0  0  0  0
  3  1  1  0  0  0  0
  8 14  1  0  0  0  0
  9 15  1  0  0  0  0
  9  8  2  0  0  0  0
 10  9  1  0  0  0  0
 11 10  2  0  0  0  0
 11 12  1  0  0  0  0
 12 13  2  0  0  0  0
 13  8  1  0  0  0  0
 16 12  1  0  0  0  0
 17  3  1  0  0  0  0
 18 19  2  0  0  0  0
 19 17  1  0  0  0  0
 20 19  1  0  0  0  0
 21 20  1  0  0  0  0
 22 23  1  0  0  0  0
 22 19  1  0  0  0  0
M  END
>  <minimizedAffinity>
-4.19974709

>  <minimizedRMSD>
3.89658594

$$$$
