
 OpenBabel03252508513D

 26 27  0  0  0  0  0  0  0  0999 V2000
   45.9170   34.1220   41.0260 C   0  0  0  0  0  0  0  0  0  0  0  0
   46.5090   34.7800   42.1000 C   0  0  0  0  0  0  0  0  0  0  0  0
   47.8460   35.1690   41.9540 C   0  0  0  0  0  0  0  0  0  0  0  0
   48.4720   34.8830   40.7850 N   0  0  0  0  0  0  0  0  0  0  0  0
   47.8690   34.2490   39.7740 C   0  0  0  0  0  0  0  0  0  0  0  0
   46.5790   33.8660   39.8990 N   0  0  0  0  0  0  0  0  0  0  0  0
   48.3350   35.6860   42.7780 H   0  0  0  0  0  0  0  0  0  0  0  0
   48.4770   34.0840   38.9070 H   0  0  0  0  0  0  0  0  0  0  0  0
   45.7390   35.0380   43.3160 C   0  0  0  0  0  0  0  0  0  0  0  0
   45.0440   36.2040   43.5390 C   0  0  0  0  0  0  0  0  0  0  0  0
   44.4810   36.0120   44.7830 C   0  0  0  0  0  0  0  0  0  0  0  0
   44.8140   34.8000   45.2890 N   0  0  0  0  0  0  0  0  0  0  0  0
   45.5730   34.2350   44.3810 N   0  0  0  0  0  0  0  0  0  0  0  0
   44.9180   37.0890   42.9520 H   0  0  0  0  0  0  0  0  0  0  0  0
   43.8400   36.6540   45.3980 H   0  0  0  0  0  0  0  0  0  0  0  0
   44.6040   34.2920   46.1610 H   0  0  0  0  0  0  0  0  0  0  0  0
   44.5970   33.7310   41.1560 O   0  0  0  0  0  0  0  0  0  0  0  0
   43.5170   34.3390   40.5740 C   0  0  0  0  0  0  0  0  0  0  0  0
   43.2210   35.5770   40.5580 O   0  0  0  0  0  0  0  0  0  0  0  0
   42.4200   33.8350   39.8340 O   0  0  0  0  0  0  0  0  0  0  0  0
   40.0850   34.4890   40.8020 O   0  0  0  0  0  0  0  0  0  0  0  0
   41.0060   33.2980   40.6390 P   0  0  0  0  0  0  0  0  0  0  0  0
   40.2260   32.1680   39.6620 O   0  0  0  0  0  0  0  0  0  0  0  0
   39.6920   32.6580   38.9610 H   0  0  0  0  0  0  0  0  0  0  0  0
   41.3290   32.6770   42.1770 O   0  0  0  0  0  0  0  0  0  0  0  0
   40.9760   31.7650   42.3230 H   0  0  0  0  0  0  0  0  0  0  0  0
  1 17  1  0  0  0  0
  1  2  1  0  0  0  0
  2  9  1  0  0  0  0
  3  2  2  0  0  0  0
  3  7  1  0  0  0  0
  4  3  1  0  0  0  0
  5  6  1  0  0  0  0
  5  4  2  0  0  0  0
  6  1  2  0  0  0  0
  8  5  1  0  0  0  0
  9 10  1  0  0  0  0
  9 13  2  0  0  0  0
 10 11  2  0  0  0  0
 11 12  1  0  0  0  0
 11 15  1  0  0  0  0
 12 16  1  0  0  0  0
 13 12  1  0  0  0  0
 14 10  1  0  0  0  0
 18 17  1  0  0  0  0
 19 18  2  0  0  0  0
 20 18  1  0  0  0  0
 20 22  1  0  0  0  0
 22 21  2  0  0  0  0
 22 25  1  0  0  0  0
 23 22  1  0  0  0  0
 24 23  1  0  0  0  0
 25 26  1  0  0  0  0
M  END
>  <minimizedAffinity>
-4.99480343

>  <minimizedRMSD>
0.405293703

$$$$
