
 OpenBabel03252508513D

 26 27  0  0  0  0  0  0  0  0999 V2000
   46.1170   34.1670   41.0630 C   0  0  0  0  0  0  0  0  0  0  0  0
   46.6360   34.8610   42.1510 C   0  0  0  0  0  0  0  0  0  0  0  0
   47.9520   35.3270   42.0450 C   0  0  0  0  0  0  0  0  0  0  0  0
   48.6300   35.0750   40.8970 N   0  0  0  0  0  0  0  0  0  0  0  0
   48.0960   34.4040   39.8710 C   0  0  0  0  0  0  0  0  0  0  0  0
   46.8270   33.9470   39.9580 N   0  0  0  0  0  0  0  0  0  0  0  0
   48.3840   35.8740   42.8820 H   0  0  0  0  0  0  0  0  0  0  0  0
   48.7390   34.2720   39.0240 H   0  0  0  0  0  0  0  0  0  0  0  0
   45.8140   35.0770   43.3420 C   0  0  0  0  0  0  0  0  0  0  0  0
   45.0490   36.2030   43.5390 C   0  0  0  0  0  0  0  0  0  0  0  0
   44.4590   35.9820   44.7650 C   0  0  0  0  0  0  0  0  0  0  0  0
   44.8420   34.7910   45.2860 N   0  0  0  0  0  0  0  0  0  0  0  0
   45.6600   34.2680   44.4040 N   0  0  0  0  0  0  0  0  0  0  0  0
   44.8910   37.0790   42.9450 H   0  0  0  0  0  0  0  0  0  0  0  0
   43.7630   36.5870   45.3580 H   0  0  0  0  0  0  0  0  0  0  0  0
   44.6340   34.2730   46.1520 H   0  0  0  0  0  0  0  0  0  0  0  0
   44.8180   33.7010   41.1530 O   0  0  0  0  0  0  0  0  0  0  0  0
   43.7510   34.1440   40.4190 C   0  0  0  0  0  0  0  0  0  0  0  0
   43.2060   35.2950   40.4340 O   0  0  0  0  0  0  0  0  0  0  0  0
   42.9310   33.5180   39.4500 O   0  0  0  0  0  0  0  0  0  0  0  0
   44.5490   31.6600   38.5860 O   0  0  0  0  0  0  0  0  0  0  0  0
   43.6330   32.7570   38.0850 P   0  0  0  0  0  0  0  0  0  0  0  0
   42.4080   32.0340   37.1810 O   0  0  0  0  0  0  0  0  0  0  0  0
   42.1700   31.1510   37.6050 H   0  0  0  0  0  0  0  0  0  0  0  0
   44.5570   33.8180   37.1500 O   0  0  0  0  0  0  0  0  0  0  0  0
   44.3000   33.8380   36.1960 H   0  0  0  0  0  0  0  0  0  0  0  0
  1 17  1  0  0  0  0
  1  2  1  0  0  0  0
  2  9  1  0  0  0  0
  3  2  2  0  0  0  0
  3  7  1  0  0  0  0
  4  3  1  0  0  0  0
  5  6  1  0  0  0  0
  5  4  2  0  0  0  0
  6  1  2  0  0  0  0
  8  5  1  0  0  0  0
  9 10  1  0  0  0  0
  9 13  2  0  0  0  0
 10 11  2  0  0  0  0
 11 12  1  0  0  0  0
 11 15  1  0  0  0  0
 12 16  1  0  0  0  0
 13 12  1  0  0  0  0
 14 10  1  0  0  0  0
 18 19  2  0  0  0  0
 18 17  1  0  0  0  0
 20 18  1  0  0  0  0
 22 21  2  0  0  0  0
 22 20  1  0  0  0  0
 23 24  1  0  0  0  0
 23 22  1  0  0  0  0
 25 22  1  0  0  0  0
 26 25  1  0  0  0  0
M  END
>  <minimizedAffinity>
-5.00942612

>  <minimizedRMSD>
0.429890037

$$$$
