
 OpenBabel03252507523D

 36 38  0  0  1  0  0  0  0  0999 V2000
   47.0470   34.8030   41.9460 C   0  0  2  0  0  0  0  0  0  0  0  0
   46.3090   34.1990   40.7760 C   0  0  0  0  0  0  0  0  0  0  0  0
   47.5060   33.9990   39.8310 C   0  0  0  0  0  0  0  0  0  0  0  0
   48.6600   33.6440   40.7380 C   0  0  1  0  0  0  0  0  0  0  0  0
   48.1140   33.7350   42.1330 C   0  0  0  0  0  0  0  0  0  0  0  0
   47.5020   35.7440   41.6500 H   0  0  0  0  0  0  0  0  0  0  0  0
   45.9110   33.2310   41.1190 H   0  0  0  0  0  0  0  0  0  0  0  0
   45.5710   34.8620   40.3270 H   0  0  0  0  0  0  0  0  0  0  0  0
   47.6400   34.9320   39.2680 H   0  0  0  0  0  0  0  0  0  0  0  0
   47.3040   33.1260   39.1840 H   0  0  0  0  0  0  0  0  0  0  0  0
   49.4410   34.4120   40.6480 H   0  0  0  0  0  0  0  0  0  0  0  0
   47.4180   32.8970   42.4050 H   0  0  0  0  0  0  0  0  0  0  0  0
   48.8510   33.9540   42.8990 H   0  0  0  0  0  0  0  0  0  0  0  0
   44.5350   35.9850   44.5050 C   0  0  0  0  0  0  0  0  0  0  0  0
   45.2700   35.9600   43.3140 C   0  0  0  0  0  0  0  0  0  0  0  0
   46.1960   34.9240   43.1600 C   0  0  0  0  0  0  0  0  0  0  0  0
   46.3550   33.9790   44.1680 N   0  0  0  0  0  0  0  0  0  0  0  0
   45.6130   34.0630   45.2980 C   0  0  0  0  0  0  0  0  0  0  0  0
   44.7130   35.0570   45.4610 N   0  0  0  0  0  0  0  0  0  0  0  0
   43.8160   36.7830   44.6340 H   0  0  0  0  0  0  0  0  0  0  0  0
   45.1570   36.6890   42.5190 H   0  0  0  0  0  0  0  0  0  0  0  0
   45.7830   33.2960   46.0480 H   0  0  0  0  0  0  0  0  0  0  0  0
   49.1490   32.2360   40.5640 C   0  0  2  0  0  0  0  0  0  0  0  0
   49.7180   31.5610   41.7130 C   0  0  0  0  0  0  0  0  0  0  0  0
   50.5440   31.8840   40.4830 C   0  0  1  0  0  0  0  0  0  0  0  0
   48.4540   31.6460   39.9350 H   0  0  0  0  0  0  0  0  0  0  0  0
   49.4560   30.4650   41.8540 H   0  0  0  0  0  0  0  0  0  0  0  0
   50.2950   31.8790   42.5670 H   0  0  0  0  0  0  0  0  0  0  0  0
   51.2690   32.6970   40.4510 H   0  0  0  0  0  0  0  0  0  0  0  0
   50.9640   30.7710   39.7400 O   0  0  0  0  0  0  0  0  0  0  0  0
   52.0370   30.2040   37.4180 O   0  0  0  0  0  0  0  0  0  0  0  0
   51.8700   31.3140   38.4180 P   0  0  0  0  0  0  0  0  0  0  0  0
   51.1050   32.6230   37.6460 O   0  0  0  0  0  0  0  0  0  0  0  0
   50.6240   32.3630   36.8340 H   0  0  0  0  0  0  0  0  0  0  0  0
   53.3960   31.8390   38.8870 O   0  0  0  0  0  0  0  0  0  0  0  0
   53.7670   32.3720   38.1330 H   0  0  0  0  0  0  0  0  0  0  0  0
  1  6  1  6  0  0  0
  1  5  1  0  0  0  0
  1 16  1  0  0  0  0
  2  7  1  0  0  0  0
  2  1  1  0  0  0  0
  3  4  1  0  0  0  0
  3  2  1  0  0  0  0
  4 11  1  6  0  0  0
  4  5  1  0  0  0  0
  5 12  1  0  0  0  0
  5 13  1  0  0  0  0
  8  2  1  0  0  0  0
  9  3  1  0  0  0  0
 10  3  1  0  0  0  0
 14 20  1  0  0  0  0
 14 19  1  0  0  0  0
 15 14  2  0  0  0  0
 16 15  1  0  0  0  0
 16 17  2  0  0  0  0
 17 18  1  0  0  0  0
 18 19  2  0  0  0  0
 18 22  1  0  0  0  0
 21 15  1  0  0  0  0
 23 26  1  6  0  0  0
 23  4  1  0  0  0  0
 23 24  1  0  0  0  0
 24 27  1  0  0  0  0
 24 28  1  0  0  0  0
 25 29  1  1  0  0  0
 25 23  1  0  0  0  0
 25 24  1  0  0  0  0
 30 25  1  0  0  0  0
 31 32  2  0  0  0  0
 32 35  1  0  0  0  0
 32 30  1  0  0  0  0
 33 32  1  0  0  0  0
 34 33  1  0  0  0  0
 36 35  1  0  0  0  0
M  END
>  <minimizedAffinity>
-5.31912565

>  <minimizedRMSD>
1.70259881

$$$$
