
 OpenBabel03252508513D

 26 27  0  0  0  0  0  0  0  0999 V2000
   45.9730   34.1850   41.0580 C   0  0  0  0  0  0  0  0  0  0  0  0
   46.5500   34.8240   42.1510 C   0  0  0  0  0  0  0  0  0  0  0  0
   47.8920   35.2060   42.0340 C   0  0  0  0  0  0  0  0  0  0  0  0
   48.5370   34.9310   40.8720 N   0  0  0  0  0  0  0  0  0  0  0  0
   47.9470   34.3150   39.8420 C   0  0  0  0  0  0  0  0  0  0  0  0
   46.6520   33.9400   39.9390 N   0  0  0  0  0  0  0  0  0  0  0  0
   48.3710   35.7070   42.8740 H   0  0  0  0  0  0  0  0  0  0  0  0
   48.5690   34.1580   38.9830 H   0  0  0  0  0  0  0  0  0  0  0  0
   45.7610   35.0710   43.3570 C   0  0  0  0  0  0  0  0  0  0  0  0
   45.0490   36.2280   43.5730 C   0  0  0  0  0  0  0  0  0  0  0  0
   44.4730   36.0280   44.8080 C   0  0  0  0  0  0  0  0  0  0  0  0
   44.8140   34.8190   45.3180 N   0  0  0  0  0  0  0  0  0  0  0  0
   45.5910   34.2650   44.4190 N   0  0  0  0  0  0  0  0  0  0  0  0
   44.9190   37.1120   42.9850 H   0  0  0  0  0  0  0  0  0  0  0  0
   43.8150   36.6600   45.4160 H   0  0  0  0  0  0  0  0  0  0  0  0
   44.5980   34.3070   46.1860 H   0  0  0  0  0  0  0  0  0  0  0  0
   44.6470   33.8030   41.1600 O   0  0  0  0  0  0  0  0  0  0  0  0
   43.5910   34.3820   40.5100 C   0  0  0  0  0  0  0  0  0  0  0  0
   43.0970   35.5420   40.6830 O   0  0  0  0  0  0  0  0  0  0  0  0
   42.7310   33.9210   39.4840 O   0  0  0  0  0  0  0  0  0  0  0  0
   42.2330   31.3620   39.6390 O   0  0  0  0  0  0  0  0  0  0  0  0
   42.9690   32.3740   38.7860 P   0  0  0  0  0  0  0  0  0  0  0  0
   42.2720   32.3620   37.2520 O   0  0  0  0  0  0  0  0  0  0  0  0
   41.2790   32.2140   37.3470 H   0  0  0  0  0  0  0  0  0  0  0  0
   44.5970   31.9250   38.7350 O   0  0  0  0  0  0  0  0  0  0  0  0
   44.9130   31.6650   37.8360 H   0  0  0  0  0  0  0  0  0  0  0  0
  1 17  1  0  0  0  0
  1  2  1  0  0  0  0
  2  9  1  0  0  0  0
  3  2  2  0  0  0  0
  3  7  1  0  0  0  0
  4  3  1  0  0  0  0
  5  6  1  0  0  0  0
  5  4  2  0  0  0  0
  6  1  2  0  0  0  0
  8  5  1  0  0  0  0
  9 10  1  0  0  0  0
  9 13  2  0  0  0  0
 10 11  2  0  0  0  0
 11 12  1  0  0  0  0
 11 15  1  0  0  0  0
 12 16  1  0  0  0  0
 13 12  1  0  0  0  0
 14 10  1  0  0  0  0
 18 19  2  0  0  0  0
 18 17  1  0  0  0  0
 20 18  1  0  0  0  0
 22 20  1  0  0  0  0
 22 21  2  0  0  0  0
 23 24  1  0  0  0  0
 23 22  1  0  0  0  0
 25 22  1  0  0  0  0
 26 25  1  0  0  0  0
M  END
>  <minimizedAffinity>
-4.64575243

>  <minimizedRMSD>
0.336613297

$$$$
