
 OpenBabel03252509353D

 42 43  0  0  1  0  0  0  0  0999 V2000
   44.5310   35.4550   44.0870 O   0  0  0  0  0  0  0  0  0  0  0  0
   45.3940   34.2420   44.3840 P   0  0  1  0  0  0  0  0  0  0  0  0
   44.7220   32.8440   43.7080 O   0  0  0  0  0  0  0  0  0  0  0  0
   44.3150   33.0380   42.8150 H   0  0  0  0  0  0  0  0  0  0  0  0
   46.9070   34.5170   43.7360 O   0  0  0  0  0  0  0  0  0  0  0  0
   47.0330   33.8320   42.5220 C   0  0  1  0  0  0  0  0  0  0  0  0
   46.4430   34.6720   41.3860 C   0  0  0  0  0  0  0  0  0  0  0  0
   46.9520   33.9080   40.1870 C   0  0  0  0  0  0  0  0  0  0  0  0
   48.2440   33.2380   40.6300 C   0  0  0  0  0  0  0  0  0  0  0  0
   48.4490   33.7060   42.0560 C   0  0  1  0  0  0  0  0  0  0  0  0
   46.5190   32.8740   42.4990 H   0  0  0  0  0  0  0  0  0  0  0  0
   45.3370   34.5600   41.4270 H   0  0  0  0  0  0  0  0  0  0  0  0
   46.7220   35.7200   41.4230 H   0  0  0  0  0  0  0  0  0  0  0  0
   46.1820   33.1430   39.8770 H   0  0  0  0  0  0  0  0  0  0  0  0
   47.1760   34.6100   39.3550 H   0  0  0  0  0  0  0  0  0  0  0  0
   49.0880   33.4960   39.9730 H   0  0  0  0  0  0  0  0  0  0  0  0
   48.0420   32.1500   40.6940 H   0  0  0  0  0  0  0  0  0  0  0  0
   48.9570   32.9390   42.6660 H   0  0  0  0  0  0  0  0  0  0  0  0
   49.2110   35.0010   42.1220 C   0  0  0  0  0  0  0  0  0  0  0  0
   48.5600   35.9070   42.1680 H   0  0  0  0  0  0  0  0  0  0  0  0
   49.8680   35.1270   41.2150 H   0  0  0  0  0  0  0  0  0  0  0  0
   50.0210   35.0710   43.2330 O   0  0  0  0  0  0  0  0  0  0  0  0
   50.1540   34.1630   43.5980 H   0  0  0  0  0  0  0  0  0  0  0  0
   45.4880   33.9740   46.0280 O   0  0  0  0  0  0  0  0  0  0  0  0
   46.4090   33.0060   46.2710 C   0  0  0  0  0  0  0  0  0  0  0  0
   47.2810   33.4930   46.7910 H   0  0  0  0  0  0  0  0  0  0  0  0
   46.8350   32.4730   45.4250 H   0  0  0  0  0  0  0  0  0  0  0  0
   45.3240   31.3460   49.4210 C   0  0  0  0  0  0  0  0  0  0  0  0
   45.7860   32.3440   48.5590 C   0  0  0  0  0  0  0  0  0  0  0  0
   45.9210   31.9790   47.2120 C   0  0  0  0  0  0  0  0  0  0  0  0
   45.6020   30.7080   46.8210 N   0  0  0  0  0  0  0  0  0  0  0  0
   45.1580   29.7750   47.6870 C   0  0  0  0  0  0  0  0  0  0  0  0
   45.0230   30.1020   48.9800 N   0  0  0  0  0  0  0  0  0  0  0  0
   45.2010   31.5720   50.4790 H   0  0  0  0  0  0  0  0  0  0  0  0
   46.0190   33.3250   48.9390 H   0  0  0  0  0  0  0  0  0  0  0  0
   44.8830   28.5390   47.1160 O   0  0  0  0  0  0  0  0  0  0  0  0
   46.0520   26.3250   47.8290 O   0  0  0  0  0  0  0  0  0  0  0  0
   44.7570   27.0980   47.9880 P   0  0  0  0  0  0  0  0  0  0  0  0
   43.5100   26.1050   47.4030 O   0  0  0  0  0  0  0  0  0  0  0  0
   43.8330   25.7190   46.5530 H   0  0  0  0  0  0  0  0  0  0  0  0
   44.5250   27.3600   49.6420 O   0  0  0  0  0  0  0  0  0  0  0  0
   43.9550   26.6380   49.9800 H   0  0  0  0  0  0  0  0  0  0  0  0
  2  1  2  6  0  0  0
  2 24  1  0  0  0  0
  3  2  1  0  0  0  0
  4  3  1  0  0  0  0
  5  2  1  0  0  0  0
  6 11  1  1  0  0  0
  6  5  1  0  0  0  0
  7 13  1  0  0  0  0
  7 12  1  0  0  0  0
  7  6  1  0  0  0  0
  8  9  1  0  0  0  0
  8  7  1  0  0  0  0
  9 17  1  0  0  0  0
  9 10  1  0  0  0  0
 10 19  1  0  0  0  0
 10  6  1  0  0  0  0
 10 18  1  1  0  0  0
 14  8  1  0  0  0  0
 15  8  1  0  0  0  0
 16  9  1  0  0  0  0
 19 20  1  0  0  0  0
 19 22  1  0  0  0  0
 21 19  1  0  0  0  0
 22 23  1  0  0  0  0
 24 25  1  0  0  0  0
 25 26  1  0  0  0  0
 25 30  1  0  0  0  0
 27 25  1  0  0  0  0
 28 34  1  0  0  0  0
 29 35  1  0  0  0  0
 29 28  2  0  0  0  0
 30 29  1  0  0  0  0
 31 30  2  0  0  0  0
 31 32  1  0  0  0  0
 32 33  2  0  0  0  0
 33 28  1  0  0  0  0
 36 32  1  0  0  0  0
 36 38  1  0  0  0  0
 37 38  2  0  0  0  0
 38 41  1  0  0  0  0
 39 38  1  0  0  0  0
 40 39  1  0  0  0  0
 41 42  1  0  0  0  0
M  END
>  <minimizedAffinity>
-5.9188633

>  <minimizedRMSD>
0.970732093

$$$$
