
 OpenBabel03252509183D

 39 41  0  0  1  0  0  0  0  0999 V2000
   40.2880   32.4730   41.0310 C   0  0  1  0  0  0  0  0  0  0  0  0
   40.6900   31.3900   41.9690 C   0  0  0  0  0  0  0  0  0  0  0  0
   42.1650   31.1550   42.0740 C   0  0  0  0  0  0  0  0  0  0  0  0
   42.9650   32.4340   42.1310 C   0  0  0  0  0  0  0  0  0  0  0  0
   42.5050   33.4610   41.1380 C   0  0  0  0  0  0  0  0  0  0  0  0
   41.5190   32.8190   40.1610 C   0  0  2  0  0  0  0  0  0  0  0  0
   40.0660   33.3920   41.6390 H   0  0  0  0  0  0  0  0  0  0  0  0
   40.2030   30.4480   41.6310 H   0  0  0  0  0  0  0  0  0  0  0  0
   40.3070   31.5570   43.0020 H   0  0  0  0  0  0  0  0  0  0  0  0
   42.3530   30.6070   43.0370 H   0  0  0  0  0  0  0  0  0  0  0  0
   42.5200   30.4840   41.2530 H   0  0  0  0  0  0  0  0  0  0  0  0
   44.0340   32.1520   41.9440 H   0  0  0  0  0  0  0  0  0  0  0  0
   42.9240   32.7890   43.1890 H   0  0  0  0  0  0  0  0  0  0  0  0
   41.9940   34.3080   41.6840 H   0  0  0  0  0  0  0  0  0  0  0  0
   43.3810   33.8700   40.6010 H   0  0  0  0  0  0  0  0  0  0  0  0
   41.9680   31.8770   39.8170 H   0  0  0  0  0  0  0  0  0  0  0  0
   37.2820   30.8840   38.7450 C   0  0  0  0  0  0  0  0  0  0  0  0
   37.0200   32.2050   39.1340 C   0  0  0  0  0  0  0  0  0  0  0  0
   37.9380   32.8400   39.8860 C   0  0  0  0  0  0  0  0  0  0  0  0
   39.1220   32.1760   40.2590 C   0  0  0  0  0  0  0  0  0  0  0  0
   38.9210   30.5400   39.4910 S   0  0  0  0  0  0  0  0  0  0  0  0
   36.1110   32.7120   38.8470 H   0  0  0  0  0  0  0  0  0  0  0  0
   37.9180   33.8360   40.2760 H   0  0  0  0  0  0  0  0  0  0  0  0
   34.5980   28.6380   37.4880 C   0  0  0  0  0  0  0  0  0  0  0  0
   34.9480   28.6020   36.1110 C   0  0  0  0  0  0  0  0  0  0  0  0
   36.0610   29.3350   35.6880 C   0  0  0  0  0  0  0  0  0  0  0  0
   36.7600   30.0500   36.6220 N   0  0  0  0  0  0  0  0  0  0  0  0
   36.3850   30.0550   37.9360 C   0  0  0  0  0  0  0  0  0  0  0  0
   35.3080   29.3540   38.3740 N   0  0  0  0  0  0  0  0  0  0  0  0
   33.7370   28.0800   37.8490 H   0  0  0  0  0  0  0  0  0  0  0  0
   34.3560   28.0150   35.4120 H   0  0  0  0  0  0  0  0  0  0  0  0
   36.3590   29.3330   34.6560 H   0  0  0  0  0  0  0  0  0  0  0  0
   41.2070   33.6290   39.1030 O   0  0  0  0  0  0  0  0  0  0  0  0
   42.5600   31.8330   37.7820 O   0  0  0  0  0  0  0  0  0  0  0  0
   41.6090   32.9990   37.6110 P   0  0  0  0  0  0  0  0  0  0  0  0
   40.2360   32.4790   36.7800 O   0  0  0  0  0  0  0  0  0  0  0  0
   39.9780   31.5550   37.0140 H   0  0  0  0  0  0  0  0  0  0  0  0
   42.4550   34.1590   36.7090 O   0  0  0  0  0  0  0  0  0  0  0  0
   43.0890   34.5980   37.3290 H   0  0  0  0  0  0  0  0  0  0  0  0
  1  7  1  1  0  0  0
  1  2  1  0  0  0  0
  2  3  1  0  0  0  0
  2  9  1  0  0  0  0
  3  4  1  0  0  0  0
  3 10  1  0  0  0  0
  4 13  1  0  0  0  0
  5 14  1  0  0  0  0
  5  4  1  0  0  0  0
  6 16  1  6  0  0  0
  6  1  1  0  0  0  0
  6  5  1  0  0  0  0
  8  2  1  0  0  0  0
 11  3  1  0  0  0  0
 12  4  1  0  0  0  0
 15  5  1  0  0  0  0
 17 18  2  0  0  0  0
 17 21  1  0  0  0  0
 18 19  1  0  0  0  0
 19 20  2  0  0  0  0
 19 23  1  0  0  0  0
 20  1  1  0  0  0  0
 21 20  1  0  0  0  0
 22 18  1  0  0  0  0
 24 30  1  0  0  0  0
 24 29  1  0  0  0  0
 25 24  2  0  0  0  0
 26 25  1  0  0  0  0
 26 27  2  0  0  0  0
 27 28  1  0  0  0  0
 28 29  2  0  0  0  0
 28 17  1  0  0  0  0
 31 25  1  0  0  0  0
 32 26  1  0  0  0  0
 33  6  1  0  0  0  0
 35 34  2  0  0  0  0
 35 33  1  0  0  0  0
 36 37  1  0  0  0  0
 36 35  1  0  0  0  0
 38 39  1  0  0  0  0
 38 35  1  0  0  0  0
M  END
>  <minimizedAffinity>
-5.53270674

$$$$

 OpenBabel03252509183D

 39 41  0  0  1  0  0  0  0  0999 V2000
   38.7420   31.9210   40.9470 C   0  0  1  0  0  0  0  0  0  0  0  0
   40.0600   31.7750   41.6230 C   0  0  0  0  0  0  0  0  0  0  0  0
   41.2010   32.4710   40.9480 C   0  0  0  0  0  0  0  0  0  0  0  0
   40.8420   33.8500   40.4520 C   0  0  0  0  0  0  0  0  0  0  0  0
   39.5100   33.9010   39.7650 C   0  0  0  0  0  0  0  0  0  0  0  0
   39.0040   32.4770   39.5280 C   0  0  2  0  0  0  0  0  0  0  0  0
   38.1600   32.7140   41.4910 H   0  0  0  0  0  0  0  0  0  0  0  0
   40.2920   30.6890   41.6850 H   0  0  0  0  0  0  0  0  0  0  0  0
   40.0370   32.1250   42.6810 H   0  0  0  0  0  0  0  0  0  0  0  0
   42.0180   32.5980   41.7090 H   0  0  0  0  0  0  0  0  0  0  0  0
   41.6250   31.8360   40.1310 H   0  0  0  0  0  0  0  0  0  0  0  0
   41.6610   34.1610   39.7520 H   0  0  0  0  0  0  0  0  0  0  0  0
   40.9170   34.5350   41.3310 H   0  0  0  0  0  0  0  0  0  0  0  0
   38.7730   34.4560   40.4170 H   0  0  0  0  0  0  0  0  0  0  0  0
   39.6090   34.4470   38.8090 H   0  0  0  0  0  0  0  0  0  0  0  0
   39.8330   31.9060   39.0860 H   0  0  0  0  0  0  0  0  0  0  0  0
   37.1800   28.1360   40.8110 C   0  0  0  0  0  0  0  0  0  0  0  0
   36.2090   29.1080   41.0870 C   0  0  0  0  0  0  0  0  0  0  0  0
   36.5980   30.3950   41.1520 C   0  0  0  0  0  0  0  0  0  0  0  0
   37.9500   30.7320   40.9450 C   0  0  0  0  0  0  0  0  0  0  0  0
   38.7210   29.1140   40.6360 S   0  0  0  0  0  0  0  0  0  0  0  0
   35.1730   28.8470   41.2450 H   0  0  0  0  0  0  0  0  0  0  0  0
   36.0120   31.2670   41.3490 H   0  0  0  0  0  0  0  0  0  0  0  0
   36.3080   24.6930   39.7100 C   0  0  0  0  0  0  0  0  0  0  0  0
   36.5400   23.9920   40.9250 C   0  0  0  0  0  0  0  0  0  0  0  0
   36.9770   24.7170   42.0380 C   0  0  0  0  0  0  0  0  0  0  0  0
   37.1580   26.0660   41.9030 N   0  0  0  0  0  0  0  0  0  0  0  0
   36.9220   26.6970   40.7140 C   0  0  0  0  0  0  0  0  0  0  0  0
   36.4990   26.0180   39.6170 N   0  0  0  0  0  0  0  0  0  0  0  0
   35.9680   24.1580   38.8260 H   0  0  0  0  0  0  0  0  0  0  0  0
   36.3780   22.9180   40.9760 H   0  0  0  0  0  0  0  0  0  0  0  0
   37.1630   24.2250   42.9750 H   0  0  0  0  0  0  0  0  0  0  0  0
   37.8950   32.4270   38.7270 O   0  0  0  0  0  0  0  0  0  0  0  0
   36.9890   30.4670   37.2670 O   0  0  0  0  0  0  0  0  0  0  0  0
   38.0820   31.5110   37.3460 P   0  0  0  0  0  0  0  0  0  0  0  0
   38.0310   32.4750   35.9630 O   0  0  0  0  0  0  0  0  0  0  0  0
   37.1100   32.6300   35.6420 H   0  0  0  0  0  0  0  0  0  0  0  0
   39.5410   30.6500   37.4250 O   0  0  0  0  0  0  0  0  0  0  0  0
   39.6220   30.3060   38.3490 H   0  0  0  0  0  0  0  0  0  0  0  0
  1  7  1  1  0  0  0
  1  2  1  0  0  0  0
  2  8  1  0  0  0  0
  2  9  1  0  0  0  0
  3  2  1  0  0  0  0
  3 10  1  0  0  0  0
  4  3  1  0  0  0  0
  4 13  1  0  0  0  0
  5 14  1  0  0  0  0
  5  4  1  0  0  0  0
  6 16  1  6  0  0  0
  6  5  1  0  0  0  0
  6  1  1  0  0  0  0
 11  3  1  0  0  0  0
 12  4  1  0  0  0  0
 15  5  1  0  0  0  0
 17 18  2  0  0  0  0
 18 19  1  0  0  0  0
 18 22  1  0  0  0  0
 19 23  1  0  0  0  0
 20  1  1  0  0  0  0
 20 19  2  0  0  0  0
 21 17  1  0  0  0  0
 21 20  1  0  0  0  0
 24 25  1  0  0  0  0
 25 31  1  0  0  0  0
 25 26  2  0  0  0  0
 26 32  1  0  0  0  0
 27 26  1  0  0  0  0
 28 17  1  0  0  0  0
 28 27  2  0  0  0  0
 29 24  2  0  0  0  0
 29 28  1  0  0  0  0
 30 24  1  0  0  0  0
 33  6  1  0  0  0  0
 34 35  2  0  0  0  0
 35 38  1  0  0  0  0
 35 33  1  0  0  0  0
 36 35  1  0  0  0  0
 37 36  1  0  0  0  0
 38 39  1  0  0  0  0
M  END
>  <minimizedAffinity>
-5.51691484

$$$$

 OpenBabel03252509183D

 39 41  0  0  1  0  0  0  0  0999 V2000
   36.6230   30.9960   39.0070 C   0  0  1  0  0  0  0  0  0  0  0  0
   36.7410   30.3780   37.6580 C   0  0  0  0  0  0  0  0  0  0  0  0
   36.3190   28.9440   37.5770 C   0  0  0  0  0  0  0  0  0  0  0  0
   35.0540   28.6550   38.3480 C   0  0  0  0  0  0  0  0  0  0  0  0
   35.0300   29.2980   39.7030 C   0  0  0  0  0  0  0  0  0  0  0  0
   36.4180   29.8530   40.0280 C   0  0  2  0  0  0  0  0  0  0  0  0
   35.6790   31.6060   39.0260 H   0  0  0  0  0  0  0  0  0  0  0  0
   37.8030   30.4550   37.3390 H   0  0  0  0  0  0  0  0  0  0  0  0
   36.1670   30.9360   36.8820 H   0  0  0  0  0  0  0  0  0  0  0  0
   36.1050   28.7140   36.4980 H   0  0  0  0  0  0  0  0  0  0  0  0
   37.1530   28.2670   37.8860 H   0  0  0  0  0  0  0  0  0  0  0  0
   34.9820   27.5390   38.4370 H   0  0  0  0  0  0  0  0  0  0  0  0
   34.2030   28.9640   37.6930 H   0  0  0  0  0  0  0  0  0  0  0  0
   34.2800   30.1420   39.7040 H   0  0  0  0  0  0  0  0  0  0  0  0
   34.7180   28.5530   40.4580 H   0  0  0  0  0  0  0  0  0  0  0  0
   37.1460   29.0610   39.8030 H   0  0  0  0  0  0  0  0  0  0  0  0
   40.1880   32.9050   39.6620 C   0  0  0  0  0  0  0  0  0  0  0  0
   39.0870   33.6710   40.0680 C   0  0  0  0  0  0  0  0  0  0  0  0
   37.8570   33.1470   39.9100 C   0  0  0  0  0  0  0  0  0  0  0  0
   37.7050   31.8650   39.3490 C   0  0  0  0  0  0  0  0  0  0  0  0
   39.4230   31.3650   39.0250 S   0  0  0  0  0  0  0  0  0  0  0  0
   39.2070   34.6530   40.4980 H   0  0  0  0  0  0  0  0  0  0  0  0
   36.9070   33.5730   40.1550 H   0  0  0  0  0  0  0  0  0  0  0  0
   43.7310   33.8340   39.0150 C   0  0  0  0  0  0  0  0  0  0  0  0
   44.1330   34.1600   40.3390 C   0  0  0  0  0  0  0  0  0  0  0  0
   43.1920   34.0500   41.3660 C   0  0  0  0  0  0  0  0  0  0  0  0
   41.9290   33.6330   41.0470 N   0  0  0  0  0  0  0  0  0  0  0  0
   41.5870   33.3310   39.7590 C   0  0  0  0  0  0  0  0  0  0  0  0
   42.4800   33.4290   38.7410 N   0  0  0  0  0  0  0  0  0  0  0  0
   44.4390   33.9080   38.1930 H   0  0  0  0  0  0  0  0  0  0  0  0
   45.1520   34.4860   40.5350 H   0  0  0  0  0  0  0  0  0  0  0  0
   43.4560   34.2870   42.3800 H   0  0  0  0  0  0  0  0  0  0  0  0
   36.5380   30.2740   41.3250 O   0  0  0  0  0  0  0  0  0  0  0  0
   38.0550   28.1610   41.4940 O   0  0  0  0  0  0  0  0  0  0  0  0
   37.6560   29.4250   42.2250 P   0  0  0  0  0  0  0  0  0  0  0  0
   39.0320   30.3540   42.5220 O   0  0  0  0  0  0  0  0  0  0  0  0
   39.6930   30.2970   41.7910 H   0  0  0  0  0  0  0  0  0  0  0  0
   36.9490   28.9150   43.6800 O   0  0  0  0  0  0  0  0  0  0  0  0
   36.0380   28.5980   43.4610 H   0  0  0  0  0  0  0  0  0  0  0  0
  1  7  1  1  0  0  0
  1 20  1  0  0  0  0
  1  6  1  0  0  0  0
  2  1  1  0  0  0  0
  3  2  1  0  0  0  0
  3 11  1  0  0  0  0
  3  4  1  0  0  0  0
  4 12  1  0  0  0  0
  4  5  1  0  0  0  0
  5 14  1  0  0  0  0
  5  6  1  0  0  0  0
  5 15  1  0  0  0  0
  6 16  1  6  0  0  0
  6 33  1  0  0  0  0
  8  2  1  0  0  0  0
  9  2  1  0  0  0  0
 10  3  1  0  0  0  0
 13  4  1  0  0  0  0
 17 28  1  0  0  0  0
 17 18  2  0  0  0  0
 18 22  1  0  0  0  0
 19 18  1  0  0  0  0
 19 23  1  0  0  0  0
 20 19  2  0  0  0  0
 21 20  1  0  0  0  0
 21 17  1  0  0  0  0
 24 25  1  0  0  0  0
 25 31  1  0  0  0  0
 25 26  2  0  0  0  0
 26 32  1  0  0  0  0
 27 26  1  0  0  0  0
 28 27  2  0  0  0  0
 29 24  2  0  0  0  0
 29 28  1  0  0  0  0
 30 24  1  0  0  0  0
 33 35  1  0  0  0  0
 34 35  2  0  0  0  0
 35 36  1  0  0  0  0
 35 38  1  0  0  0  0
 37 36  1  0  0  0  0
 39 38  1  0  0  0  0
M  END
>  <minimizedAffinity>
-5.45790434

$$$$

 OpenBabel03252509183D

 39 41  0  0  1  0  0  0  0  0999 V2000
   37.6480   26.4380   41.9600 C   0  0  1  0  0  0  0  0  0  0  0  0
   36.7910   26.2210   40.7630 C   0  0  0  0  0  0  0  0  0  0  0  0
   37.0090   24.9210   40.0520 C   0  0  0  0  0  0  0  0  0  0  0  0
   37.1680   23.7520   40.9930 C   0  0  0  0  0  0  0  0  0  0  0  0
   38.0640   24.0520   42.1580 C   0  0  0  0  0  0  0  0  0  0  0  0
   38.7790   25.3840   41.9210 C   0  0  2  0  0  0  0  0  0  0  0  0
   37.0330   26.2050   42.8720 H   0  0  0  0  0  0  0  0  0  0  0  0
   36.9840   27.0530   40.0500 H   0  0  0  0  0  0  0  0  0  0  0  0
   35.7040   26.2910   40.9980 H   0  0  0  0  0  0  0  0  0  0  0  0
   36.0960   24.7190   39.4290 H   0  0  0  0  0  0  0  0  0  0  0  0
   37.8670   24.9980   39.3400 H   0  0  0  0  0  0  0  0  0  0  0  0
   37.5800   22.9050   40.3830 H   0  0  0  0  0  0  0  0  0  0  0  0
   36.1390   23.4400   41.2920 H   0  0  0  0  0  0  0  0  0  0  0  0
   37.4450   24.1220   43.1000 H   0  0  0  0  0  0  0  0  0  0  0  0
   38.7950   23.2310   42.2810 H   0  0  0  0  0  0  0  0  0  0  0  0
   39.1860   25.3590   40.9010 H   0  0  0  0  0  0  0  0  0  0  0  0
   38.9980   30.2830   41.5450 C   0  0  0  0  0  0  0  0  0  0  0  0
   38.8770   29.8990   42.8870 C   0  0  0  0  0  0  0  0  0  0  0  0
   38.4470   28.6520   43.1540 C   0  0  0  0  0  0  0  0  0  0  0  0
   38.1330   27.7750   42.0980 C   0  0  0  0  0  0  0  0  0  0  0  0
   38.4720   28.7870   40.6260 S   0  0  0  0  0  0  0  0  0  0  0  0
   39.1190   30.5730   43.6950 H   0  0  0  0  0  0  0  0  0  0  0  0
   38.2920   28.1810   44.1020 H   0  0  0  0  0  0  0  0  0  0  0  0
   40.9510   33.2870   40.5480 C   0  0  0  0  0  0  0  0  0  0  0  0
   39.8820   34.1550   40.1940 C   0  0  0  0  0  0  0  0  0  0  0  0
   38.5730   33.6790   40.3100 C   0  0  0  0  0  0  0  0  0  0  0  0
   38.3850   32.4010   40.7590 N   0  0  0  0  0  0  0  0  0  0  0  0
   39.4440   31.6020   41.0870 C   0  0  0  0  0  0  0  0  0  0  0  0
   40.7250   32.0370   40.9840 N   0  0  0  0  0  0  0  0  0  0  0  0
   41.9810   33.6270   40.4690 H   0  0  0  0  0  0  0  0  0  0  0  0
   40.0910   35.1640   39.8440 H   0  0  0  0  0  0  0  0  0  0  0  0
   37.7370   34.3040   40.0540 H   0  0  0  0  0  0  0  0  0  0  0  0
   39.7660   25.6340   42.8370 O   0  0  0  0  0  0  0  0  0  0  0  0
   41.3000   25.0840   40.8020 O   0  0  0  0  0  0  0  0  0  0  0  0
   41.3060   25.6730   42.1970 P   0  0  0  0  0  0  0  0  0  0  0  0
   41.8990   27.2500   42.1320 O   0  0  0  0  0  0  0  0  0  0  0  0
   41.6290   27.7240   41.3090 H   0  0  0  0  0  0  0  0  0  0  0  0
   42.3310   24.6810   43.1140 O   0  0  0  0  0  0  0  0  0  0  0  0
   41.8230   23.8570   43.3220 H   0  0  0  0  0  0  0  0  0  0  0  0
  1 20  1  0  0  0  0
  1  7  1  1  0  0  0
  2  9  1  0  0  0  0
  2  1  1  0  0  0  0
  3  2  1  0  0  0  0
  3  4  1  0  0  0  0
  4 13  1  0  0  0  0
  4  5  1  0  0  0  0
  5 15  1  0  0  0  0
  5 14  1  0  0  0  0
  6 16  1  6  0  0  0
  6  1  1  0  0  0  0
  6  5  1  0  0  0  0
  6 33  1  0  0  0  0
  8  2  1  0  0  0  0
 10  3  1  0  0  0  0
 11  3  1  0  0  0  0
 12  4  1  0  0  0  0
 17 18  2  0  0  0  0
 18 19  1  0  0  0  0
 18 22  1  0  0  0  0
 19 23  1  0  0  0  0
 20 19  2  0  0  0  0
 21 17  1  0  0  0  0
 21 20  1  0  0  0  0
 24 29  1  0  0  0  0
 25 26  1  0  0  0  0
 25 24  2  0  0  0  0
 26 27  2  0  0  0  0
 27 28  1  0  0  0  0
 28 17  1  0  0  0  0
 29 28  2  0  0  0  0
 30 24  1  0  0  0  0
 31 25  1  0  0  0  0
 32 26  1  0  0  0  0
 34 35  2  0  0  0  0
 35 33  1  0  0  0  0
 35 38  1  0  0  0  0
 36 35  1  0  0  0  0
 37 36  1  0  0  0  0
 38 39  1  0  0  0  0
M  END
>  <minimizedAffinity>
-5.4377532

$$$$

 OpenBabel03252509183D

 39 41  0  0  1  0  0  0  0  0999 V2000
   40.9270   31.8430   41.2040 C   0  0  1  0  0  0  0  0  0  0  0  0
   42.1070   31.4730   40.3740 C   0  0  0  0  0  0  0  0  0  0  0  0
   42.3350   32.3380   39.1730 C   0  0  0  0  0  0  0  0  0  0  0  0
   42.1370   33.8070   39.4560 C   0  0  0  0  0  0  0  0  0  0  0  0
   40.9150   34.0900   40.2780 C   0  0  0  0  0  0  0  0  0  0  0  0
   40.0630   32.8220   40.3760 C   0  0  2  0  0  0  0  0  0  0  0  0
   41.2980   32.4240   42.0910 H   0  0  0  0  0  0  0  0  0  0  0  0
   41.9700   30.4230   40.0360 H   0  0  0  0  0  0  0  0  0  0  0  0
   43.0550   31.4650   40.9610 H   0  0  0  0  0  0  0  0  0  0  0  0
   43.4060   32.2050   38.8590 H   0  0  0  0  0  0  0  0  0  0  0  0
   41.7080   31.9960   38.3130 H   0  0  0  0  0  0  0  0  0  0  0  0
   42.0720   34.3190   38.4600 H   0  0  0  0  0  0  0  0  0  0  0  0
   43.0830   34.1720   39.9240 H   0  0  0  0  0  0  0  0  0  0  0  0
   41.2260   34.4120   41.3150 H   0  0  0  0  0  0  0  0  0  0  0  0
   40.3410   34.9130   39.8140 H   0  0  0  0  0  0  0  0  0  0  0  0
   39.9650   32.4160   39.3600 H   0  0  0  0  0  0  0  0  0  0  0  0
   39.1110   28.2530   41.9770 C   0  0  0  0  0  0  0  0  0  0  0  0
   38.8480   29.2110   42.9660 C   0  0  0  0  0  0  0  0  0  0  0  0
   39.3870   30.4370   42.8210 C   0  0  0  0  0  0  0  0  0  0  0  0
   40.1880   30.7250   41.6990 C   0  0  0  0  0  0  0  0  0  0  0  0
   40.1760   29.1520   40.7870 S   0  0  0  0  0  0  0  0  0  0  0  0
   38.2340   28.9880   43.8240 H   0  0  0  0  0  0  0  0  0  0  0  0
   39.3020   31.2900   43.4610 H   0  0  0  0  0  0  0  0  0  0  0  0
   37.0470   25.1630   41.8170 C   0  0  0  0  0  0  0  0  0  0  0  0
   38.0480   24.1970   42.1110 C   0  0  0  0  0  0  0  0  0  0  0  0
   39.3540   24.6410   42.3430 C   0  0  0  0  0  0  0  0  0  0  0  0
   39.6030   25.9850   42.2760 N   0  0  0  0  0  0  0  0  0  0  0  0
   38.6080   26.8760   41.9900 C   0  0  0  0  0  0  0  0  0  0  0  0
   37.3330   26.4740   41.7590 N   0  0  0  0  0  0  0  0  0  0  0  0
   36.0220   24.8510   41.6320 H   0  0  0  0  0  0  0  0  0  0  0  0
   37.7930   23.1410   42.1520 H   0  0  0  0  0  0  0  0  0  0  0  0
   40.1390   23.9430   42.5690 H   0  0  0  0  0  0  0  0  0  0  0  0
   38.8330   33.0440   40.9350 O   0  0  0  0  0  0  0  0  0  0  0  0
   38.0080   31.8620   38.7630 O   0  0  0  0  0  0  0  0  0  0  0  0
   37.5480   32.7180   39.9240 P   0  0  0  0  0  0  0  0  0  0  0  0
   36.3120   31.9190   40.7470 O   0  0  0  0  0  0  0  0  0  0  0  0
   36.4410   30.9400   40.7700 H   0  0  0  0  0  0  0  0  0  0  0  0
   36.9790   34.1610   39.2390 O   0  0  0  0  0  0  0  0  0  0  0  0
   37.7750   34.6950   38.9910 H   0  0  0  0  0  0  0  0  0  0  0  0
  1 20  1  0  0  0  0
  1  7  1  1  0  0  0
  2  9  1  0  0  0  0
  2  1  1  0  0  0  0
  3  4  1  0  0  0  0
  3  2  1  0  0  0  0
  4 13  1  0  0  0  0
  4  5  1  0  0  0  0
  5  6  1  0  0  0  0
  5 14  1  0  0  0  0
  6 16  1  6  0  0  0
  6 33  1  0  0  0  0
  6  1  1  0  0  0  0
  8  2  1  0  0  0  0
 10  3  1  0  0  0  0
 11  3  1  0  0  0  0
 12  4  1  0  0  0  0
 15  5  1  0  0  0  0
 17 28  1  0  0  0  0
 17 18  2  0  0  0  0
 18 22  1  0  0  0  0
 19 18  1  0  0  0  0
 19 23  1  0  0  0  0
 20 19  2  0  0  0  0
 21 20  1  0  0  0  0
 21 17  1  0  0  0  0
 24 25  1  0  0  0  0
 25 31  1  0  0  0  0
 25 26  2  0  0  0  0
 26 32  1  0  0  0  0
 27 26  1  0  0  0  0
 28 27  2  0  0  0  0
 29 24  2  0  0  0  0
 29 28  1  0  0  0  0
 30 24  1  0  0  0  0
 34 35  2  0  0  0  0
 35 36  1  0  0  0  0
 35 33  1  0  0  0  0
 36 37  1  0  0  0  0
 38 35  1  0  0  0  0
 39 38  1  0  0  0  0
M  END
>  <minimizedAffinity>
-5.37962627

$$$$

 OpenBabel03252509183D

 39 41  0  0  1  0  0  0  0  0999 V2000
   38.9520   27.8750   41.2910 C   0  0  1  0  0  0  0  0  0  0  0  0
   39.2860   27.4310   42.6720 C   0  0  0  0  0  0  0  0  0  0  0  0
   38.1930   27.6130   43.6790 C   0  0  0  0  0  0  0  0  0  0  0  0
   36.8330   27.2260   43.1530 C   0  0  0  0  0  0  0  0  0  0  0  0
   36.5730   27.7320   41.7650 C   0  0  0  0  0  0  0  0  0  0  0  0
   37.6650   28.7290   41.3740 C   0  0  2  0  0  0  0  0  0  0  0  0
   38.6850   26.9640   40.6900 H   0  0  0  0  0  0  0  0  0  0  0  0
   40.1780   28.0040   43.0070 H   0  0  0  0  0  0  0  0  0  0  0  0
   39.5990   26.3620   42.7120 H   0  0  0  0  0  0  0  0  0  0  0  0
   38.4160   26.9320   44.5460 H   0  0  0  0  0  0  0  0  0  0  0  0
   38.1970   28.6540   44.0860 H   0  0  0  0  0  0  0  0  0  0  0  0
   36.0810   27.6410   43.8740 H   0  0  0  0  0  0  0  0  0  0  0  0
   36.7600   26.1150   43.2420 H   0  0  0  0  0  0  0  0  0  0  0  0
   36.5810   26.8650   41.0410 H   0  0  0  0  0  0  0  0  0  0  0  0
   35.5750   28.2080   41.7280 H   0  0  0  0  0  0  0  0  0  0  0  0
   37.7770   29.4340   42.2090 H   0  0  0  0  0  0  0  0  0  0  0  0
   41.7450   29.3800   38.6990 C   0  0  0  0  0  0  0  0  0  0  0  0
   41.8730   29.9070   39.9920 C   0  0  0  0  0  0  0  0  0  0  0  0
   41.0140   29.4850   40.9370 C   0  0  0  0  0  0  0  0  0  0  0  0
   40.0220   28.5390   40.6150 C   0  0  0  0  0  0  0  0  0  0  0  0
   40.3290   28.2260   38.8500 S   0  0  0  0  0  0  0  0  0  0  0  0
   42.6340   30.6320   40.2360 H   0  0  0  0  0  0  0  0  0  0  0  0
   40.9530   29.7670   41.9670 H   0  0  0  0  0  0  0  0  0  0  0  0
   43.3390   29.7370   35.3580 C   0  0  0  0  0  0  0  0  0  0  0  0
   44.3890   30.6350   35.6940 C   0  0  0  0  0  0  0  0  0  0  0  0
   44.4970   31.0670   37.0190 C   0  0  0  0  0  0  0  0  0  0  0  0
   43.5860   30.6030   37.9290 N   0  0  0  0  0  0  0  0  0  0  0  0
   42.5930   29.7400   37.5590 C   0  0  0  0  0  0  0  0  0  0  0  0
   42.4640   29.3050   36.2800 N   0  0  0  0  0  0  0  0  0  0  0  0
   43.2280   29.3820   34.3360 H   0  0  0  0  0  0  0  0  0  0  0  0
   45.0860   30.9710   34.9290 H   0  0  0  0  0  0  0  0  0  0  0  0
   45.2760   31.7450   37.3140 H   0  0  0  0  0  0  0  0  0  0  0  0
   37.3950   29.3920   40.2070 O   0  0  0  0  0  0  0  0  0  0  0  0
   38.0920   31.7180   41.1550 O   0  0  0  0  0  0  0  0  0  0  0  0
   36.9920   30.9990   40.4040 P   0  0  0  0  0  0  0  0  0  0  0  0
   36.7500   31.7530   38.9150 O   0  0  0  0  0  0  0  0  0  0  0  0
   37.5890   32.0920   38.5200 H   0  0  0  0  0  0  0  0  0  0  0  0
   35.6080   31.1260   41.3750 O   0  0  0  0  0  0  0  0  0  0  0  0
   35.7120   30.4720   42.1110 H   0  0  0  0  0  0  0  0  0  0  0  0
  1  7  1  6  0  0  0
  1  6  1  0  0  0  0
  1  2  1  0  0  0  0
  2  9  1  0  0  0  0
  2  8  1  0  0  0  0
  2  3  1  0  0  0  0
  3 11  1  0  0  0  0
  3 10  1  0  0  0  0
  4 13  1  0  0  0  0
  4  3  1  0  0  0  0
  4 12  1  0  0  0  0
  5  4  1  0  0  0  0
  6  5  1  0  0  0  0
  6 16  1  1  0  0  0
 14  5  1  0  0  0  0
 15  5  1  0  0  0  0
 17 21  1  0  0  0  0
 17 18  2  0  0  0  0
 18 22  1  0  0  0  0
 18 19  1  0  0  0  0
 19 23  1  0  0  0  0
 20 19  2  0  0  0  0
 20  1  1  0  0  0  0
 21 20  1  0  0  0  0
 24 25  2  0  0  0  0
 24 29  1  0  0  0  0
 25 26  1  0  0  0  0
 26 32  1  0  0  0  0
 26 27  2  0  0  0  0
 28 27  1  0  0  0  0
 28 17  1  0  0  0  0
 29 28  2  0  0  0  0
 30 24  1  0  0  0  0
 31 25  1  0  0  0  0
 33 35  1  0  0  0  0
 33  6  1  0  0  0  0
 35 34  2  0  0  0  0
 35 38  1  0  0  0  0
 36 35  1  0  0  0  0
 37 36  1  0  0  0  0
 38 39  1  0  0  0  0
M  END
>  <minimizedAffinity>
-5.19840622

$$$$

 OpenBabel03252509183D

 39 41  0  0  1  0  0  0  0  0999 V2000
   39.2990   28.7710   42.8340 C   0  0  1  0  0  0  0  0  0  0  0  0
   40.7650   28.5170   42.7810 C   0  0  0  0  0  0  0  0  0  0  0  0
   41.5830   29.6310   42.2070 C   0  0  0  0  0  0  0  0  0  0  0  0
   41.1480   30.9940   42.6890 C   0  0  0  0  0  0  0  0  0  0  0  0
   39.6580   31.1700   42.6890 C   0  0  0  0  0  0  0  0  0  0  0  0
   39.0070   30.0030   41.9460 C   0  0  2  0  0  0  0  0  0  0  0  0
   39.0390   29.0730   43.8850 H   0  0  0  0  0  0  0  0  0  0  0  0
   40.9300   27.6020   42.1690 H   0  0  0  0  0  0  0  0  0  0  0  0
   41.1920   28.2740   43.7820 H   0  0  0  0  0  0  0  0  0  0  0  0
   42.6430   29.4850   42.5500 H   0  0  0  0  0  0  0  0  0  0  0  0
   41.6010   29.5760   41.0910 H   0  0  0  0  0  0  0  0  0  0  0  0
   41.6360   31.7430   42.0130 H   0  0  0  0  0  0  0  0  0  0  0  0
   41.6140   31.1410   43.6940 H   0  0  0  0  0  0  0  0  0  0  0  0
   39.2830   31.1910   43.7540 H   0  0  0  0  0  0  0  0  0  0  0  0
   39.4020   32.1330   42.2100 H   0  0  0  0  0  0  0  0  0  0  0  0
   39.5500   29.8760   40.9990 H   0  0  0  0  0  0  0  0  0  0  0  0
   37.5510   25.4000   41.2970 C   0  0  0  0  0  0  0  0  0  0  0  0
   36.8670   25.8970   42.4150 C   0  0  0  0  0  0  0  0  0  0  0  0
   37.3430   27.0080   43.0070 C   0  0  0  0  0  0  0  0  0  0  0  0
   38.4960   27.6370   42.5010 C   0  0  0  0  0  0  0  0  0  0  0  0
   38.9360   26.5820   41.0870 S   0  0  0  0  0  0  0  0  0  0  0  0
   35.9830   25.4130   42.8010 H   0  0  0  0  0  0  0  0  0  0  0  0
   36.9650   27.5310   43.8600 H   0  0  0  0  0  0  0  0  0  0  0  0
   35.8880   22.8780   39.1280 C   0  0  0  0  0  0  0  0  0  0  0  0
   36.7820   21.7870   39.3090 C   0  0  0  0  0  0  0  0  0  0  0  0
   37.8880   21.9650   40.1450 C   0  0  0  0  0  0  0  0  0  0  0  0
   38.0550   23.1810   40.7490 N   0  0  0  0  0  0  0  0  0  0  0  0
   37.1690   24.2010   40.5450 C   0  0  0  0  0  0  0  0  0  0  0  0
   36.0870   24.0570   39.7380 N   0  0  0  0  0  0  0  0  0  0  0  0
   35.0180   22.7720   38.4840 H   0  0  0  0  0  0  0  0  0  0  0  0
   36.5990   20.8410   38.8030 H   0  0  0  0  0  0  0  0  0  0  0  0
   38.5870   21.1660   40.3080 H   0  0  0  0  0  0  0  0  0  0  0  0
   37.6690   30.1870   41.7220 O   0  0  0  0  0  0  0  0  0  0  0  0
   36.1220   30.3590   39.6310 O   0  0  0  0  0  0  0  0  0  0  0  0
   37.3120   31.0020   40.3100 P   0  0  0  0  0  0  0  0  0  0  0  0
   36.9700   32.6250   40.6130 O   0  0  0  0  0  0  0  0  0  0  0  0
   36.0220   32.7750   40.8480 H   0  0  0  0  0  0  0  0  0  0  0  0
   38.6040   30.8520   39.2220 O   0  0  0  0  0  0  0  0  0  0  0  0
   38.9160   29.9150   39.2730 H   0  0  0  0  0  0  0  0  0  0  0  0
  1  7  1  1  0  0  0
  2  1  1  0  0  0  0
  2  9  1  0  0  0  0
  3 10  1  0  0  0  0
  3  4  1  0  0  0  0
  3  2  1  0  0  0  0
  4 13  1  0  0  0  0
  5  4  1  0  0  0  0
  5 14  1  0  0  0  0
  6 16  1  6  0  0  0
  6  5  1  0  0  0  0
  6  1  1  0  0  0  0
  8  2  1  0  0  0  0
 11  3  1  0  0  0  0
 12  4  1  0  0  0  0
 15  5  1  0  0  0  0
 17 18  2  0  0  0  0
 18 22  1  0  0  0  0
 18 19  1  0  0  0  0
 19 23  1  0  0  0  0
 20  1  1  0  0  0  0
 20 19  2  0  0  0  0
 21 17  1  0  0  0  0
 21 20  1  0  0  0  0
 24 25  2  0  0  0  0
 24 29  1  0  0  0  0
 25 26  1  0  0  0  0
 26 32  1  0  0  0  0
 26 27  2  0  0  0  0
 28 27  1  0  0  0  0
 28 17  1  0  0  0  0
 29 28  2  0  0  0  0
 30 24  1  0  0  0  0
 31 25  1  0  0  0  0
 33  6  1  0  0  0  0
 34 35  2  0  0  0  0
 35 36  1  0  0  0  0
 35 33  1  0  0  0  0
 36 37  1  0  0  0  0
 38 39  1  0  0  0  0
 38 35  1  0  0  0  0
M  END
>  <minimizedAffinity>
-5.19201422

$$$$

 OpenBabel03252509183D

 39 41  0  0  1  0  0  0  0  0999 V2000
   39.2240   28.5570   41.8960 C   0  0  1  0  0  0  0  0  0  0  0  0
   39.0870   27.9680   43.2570 C   0  0  0  0  0  0  0  0  0  0  0  0
   37.6830   27.6640   43.6780 C   0  0  0  0  0  0  0  0  0  0  0  0
   36.8590   27.0350   42.5810 C   0  0  0  0  0  0  0  0  0  0  0  0
   37.0420   27.7040   41.2510 C   0  0  0  0  0  0  0  0  0  0  0  0
   37.8170   29.0090   41.4400 C   0  0  2  0  0  0  0  0  0  0  0  0
   39.5320   27.7360   41.1940 H   0  0  0  0  0  0  0  0  0  0  0  0
   39.5300   28.6840   43.9830 H   0  0  0  0  0  0  0  0  0  0  0  0
   39.6800   27.0320   43.3770 H   0  0  0  0  0  0  0  0  0  0  0  0
   37.7360   26.9170   44.5170 H   0  0  0  0  0  0  0  0  0  0  0  0
   37.1880   28.5740   44.0960 H   0  0  0  0  0  0  0  0  0  0  0  0
   35.7880   27.0950   42.9120 H   0  0  0  0  0  0  0  0  0  0  0  0
   37.1150   25.9480   42.5720 H   0  0  0  0  0  0  0  0  0  0  0  0
   37.6210   27.0210   40.5640 H   0  0  0  0  0  0  0  0  0  0  0  0
   36.0520   27.8980   40.7980 H   0  0  0  0  0  0  0  0  0  0  0  0
   37.3470   29.5510   42.2720 H   0  0  0  0  0  0  0  0  0  0  0  0
   42.1380   31.2490   40.8750 C   0  0  0  0  0  0  0  0  0  0  0  0
   41.6390   31.4630   42.1670 C   0  0  0  0  0  0  0  0  0  0  0  0
   40.6780   30.6370   42.6210 C   0  0  0  0  0  0  0  0  0  0  0  0
   40.2030   29.5930   41.8030 C   0  0  0  0  0  0  0  0  0  0  0  0
   41.1870   29.7960   40.2870 S   0  0  0  0  0  0  0  0  0  0  0  0
   42.0050   32.2630   42.7910 H   0  0  0  0  0  0  0  0  0  0  0  0
   40.1780   30.6400   43.5660 H   0  0  0  0  0  0  0  0  0  0  0  0
   44.1110   33.4780   38.6450 C   0  0  0  0  0  0  0  0  0  0  0  0
   45.3590   33.4460   39.3260 C   0  0  0  0  0  0  0  0  0  0  0  0
   45.4610   32.6800   40.4920 C   0  0  0  0  0  0  0  0  0  0  0  0
   44.3550   31.9990   40.9190 N   0  0  0  0  0  0  0  0  0  0  0  0
   43.1760   32.0600   40.2310 C   0  0  0  0  0  0  0  0  0  0  0  0
   43.0470   32.7950   39.0980 N   0  0  0  0  0  0  0  0  0  0  0  0
   43.9980   34.0640   37.7360 H   0  0  0  0  0  0  0  0  0  0  0  0
   46.2070   34.0070   38.9400 H   0  0  0  0  0  0  0  0  0  0  0  0
   46.3870   32.6300   41.0350 H   0  0  0  0  0  0  0  0  0  0  0  0
   37.8510   29.7820   40.3100 O   0  0  0  0  0  0  0  0  0  0  0  0
   36.6780   31.7470   39.0610 O   0  0  0  0  0  0  0  0  0  0  0  0
   37.0300   31.2280   40.4390 P   0  0  0  0  0  0  0  0  0  0  0  0
   35.6180   31.0480   41.3430 O   0  0  0  0  0  0  0  0  0  0  0  0
   34.8520   30.7510   40.7940 H   0  0  0  0  0  0  0  0  0  0  0  0
   38.0420   32.4000   41.1310 O   0  0  0  0  0  0  0  0  0  0  0  0
   38.9340   32.2890   40.7180 H   0  0  0  0  0  0  0  0  0  0  0  0
  1  7  1  6  0  0  0
  1  2  1  0  0  0  0
  2  9  1  0  0  0  0
  2  3  1  0  0  0  0
  2  8  1  0  0  0  0
  3 11  1  0  0  0  0
  3 10  1  0  0  0  0
  4 12  1  0  0  0  0
  4  3  1  0  0  0  0
  5  6  1  0  0  0  0
  5  4  1  0  0  0  0
  6  1  1  0  0  0  0
  6 16  1  1  0  0  0
 13  4  1  0  0  0  0
 14  5  1  0  0  0  0
 15  5  1  0  0  0  0
 17 18  2  0  0  0  0
 18 19  1  0  0  0  0
 18 22  1  0  0  0  0
 19 23  1  0  0  0  0
 20  1  1  0  0  0  0
 20 19  2  0  0  0  0
 21 17  1  0  0  0  0
 21 20  1  0  0  0  0
 24 29  2  0  0  0  0
 24 25  1  0  0  0  0
 25 26  2  0  0  0  0
 26 27  1  0  0  0  0
 26 32  1  0  0  0  0
 28 17  1  0  0  0  0
 28 27  2  0  0  0  0
 29 28  1  0  0  0  0
 30 24  1  0  0  0  0
 31 25  1  0  0  0  0
 33 35  1  0  0  0  0
 33  6  1  0  0  0  0
 34 35  2  0  0  0  0
 35 38  1  0  0  0  0
 35 36  1  0  0  0  0
 37 36  1  0  0  0  0
 39 38  1  0  0  0  0
M  END
>  <minimizedAffinity>
-5.17475462

$$$$

 OpenBabel03252509183D

 39 41  0  0  1  0  0  0  0  0999 V2000
   36.5790   28.1810   41.4840 C   0  0  1  0  0  0  0  0  0  0  0  0
   37.4280   26.9590   41.5070 C   0  0  0  0  0  0  0  0  0  0  0  0
   38.8020   27.1510   42.0700 C   0  0  0  0  0  0  0  0  0  0  0  0
   38.8190   28.0110   43.3100 C   0  0  0  0  0  0  0  0  0  0  0  0
   37.9530   29.2310   43.1910 C   0  0  0  0  0  0  0  0  0  0  0  0
   37.5010   29.3950   41.7390 C   0  0  2  0  0  0  0  0  0  0  0  0
   35.8780   28.1300   42.3610 H   0  0  0  0  0  0  0  0  0  0  0  0
   37.5200   26.5890   40.4620 H   0  0  0  0  0  0  0  0  0  0  0  0
   36.9540   26.1210   42.0680 H   0  0  0  0  0  0  0  0  0  0  0  0
   39.1900   26.1380   42.3680 H   0  0  0  0  0  0  0  0  0  0  0  0
   39.5000   27.5400   41.2880 H   0  0  0  0  0  0  0  0  0  0  0  0
   39.8880   28.2990   43.4840 H   0  0  0  0  0  0  0  0  0  0  0  0
   38.5380   27.3470   44.1630 H   0  0  0  0  0  0  0  0  0  0  0  0
   37.0470   29.1130   43.8540 H   0  0  0  0  0  0  0  0  0  0  0  0
   38.5200   30.1180   43.5290 H   0  0  0  0  0  0  0  0  0  0  0  0
   38.3920   29.2850   41.1060 H   0  0  0  0  0  0  0  0  0  0  0  0
   34.7670   27.9780   37.8160 C   0  0  0  0  0  0  0  0  0  0  0  0
   34.1640   28.9210   38.6600 C   0  0  0  0  0  0  0  0  0  0  0  0
   34.6750   29.0840   39.8950 C   0  0  0  0  0  0  0  0  0  0  0  0
   35.7840   28.3190   40.3050 C   0  0  0  0  0  0  0  0  0  0  0  0
   36.1270   27.2990   38.8390 S   0  0  0  0  0  0  0  0  0  0  0  0
   33.3150   29.5060   38.3440 H   0  0  0  0  0  0  0  0  0  0  0  0
   34.3570   29.7450   40.6740 H   0  0  0  0  0  0  0  0  0  0  0  0
   34.5450   27.2410   34.1770 C   0  0  0  0  0  0  0  0  0  0  0  0
   33.1340   27.1250   34.0470 C   0  0  0  0  0  0  0  0  0  0  0  0
   32.3440   27.2990   35.1870 C   0  0  0  0  0  0  0  0  0  0  0  0
   32.9690   27.5740   36.3730 N   0  0  0  0  0  0  0  0  0  0  0  0
   34.3290   27.6760   36.4500 C   0  0  0  0  0  0  0  0  0  0  0  0
   35.1210   27.5110   35.3600 N   0  0  0  0  0  0  0  0  0  0  0  0
   35.1880   27.1110   33.3090 H   0  0  0  0  0  0  0  0  0  0  0  0
   32.6910   26.9060   33.0780 H   0  0  0  0  0  0  0  0  0  0  0  0
   31.2740   27.2200   35.1310 H   0  0  0  0  0  0  0  0  0  0  0  0
   36.8780   30.5910   41.5030 O   0  0  0  0  0  0  0  0  0  0  0  0
   38.0030   30.9540   39.1790 O   0  0  0  0  0  0  0  0  0  0  0  0
   37.7270   31.6260   40.5070 P   0  0  0  0  0  0  0  0  0  0  0  0
   36.8710   33.0540   40.2410 O   0  0  0  0  0  0  0  0  0  0  0  0
   36.2330   32.9800   39.4900 H   0  0  0  0  0  0  0  0  0  0  0  0
   39.2460   31.9530   41.1850 O   0  0  0  0  0  0  0  0  0  0  0  0
   39.5920   31.0970   41.5420 H   0  0  0  0  0  0  0  0  0  0  0  0
  1  2  1  0  0  0  0
  1  6  1  0  0  0  0
  1  7  1  1  0  0  0
  2  9  1  0  0  0  0
  2  3  1  0  0  0  0
  3 10  1  0  0  0  0
  3  4  1  0  0  0  0
  4 12  1  0  0  0  0
  4 13  1  0  0  0  0
  5  4  1  0  0  0  0
  5 15  1  0  0  0  0
  5 14  1  0  0  0  0
  6 16  1  6  0  0  0
  6  5  1  0  0  0  0
  8  2  1  0  0  0  0
 11  3  1  0  0  0  0
 17 18  2  0  0  0  0
 17 21  1  0  0  0  0
 18 19  1  0  0  0  0
 19 20  2  0  0  0  0
 19 23  1  0  0  0  0
 20  1  1  0  0  0  0
 21 20  1  0  0  0  0
 22 18  1  0  0  0  0
 24 29  1  0  0  0  0
 25 24  2  0  0  0  0
 25 26  1  0  0  0  0
 26 27  2  0  0  0  0
 27 28  1  0  0  0  0
 28 17  1  0  0  0  0
 29 28  2  0  0  0  0
 30 24  1  0  0  0  0
 31 25  1  0  0  0  0
 32 26  1  0  0  0  0
 33  6  1  0  0  0  0
 34 35  2  0  0  0  0
 35 38  1  0  0  0  0
 35 33  1  0  0  0  0
 36 35  1  0  0  0  0
 37 36  1  0  0  0  0
 38 39  1  0  0  0  0
M  END
>  <minimizedAffinity>
-5.15435123

$$$$
