
 OpenBabel03252509133D

 43 46  0  0  1  0  0  0  0  0999 V2000
   47.4540   32.5510   44.2800 C   0  0  0  0  0  0  0  0  0  0  0  0
   46.7630   33.5290   43.5640 C   0  0  0  0  0  0  0  0  0  0  0  0
   45.7350   34.2810   44.1130 C   0  0  0  0  0  0  0  0  0  0  0  0
   45.3600   34.0580   45.4510 C   0  0  0  0  0  0  0  0  0  0  0  0
   44.4480   34.5730   46.2860 N   0  0  0  0  0  0  0  0  0  0  0  0
   44.5350   33.9670   47.4840 C   0  0  0  0  0  0  0  0  0  0  0  0
   45.5260   33.0630   47.3680 N   0  0  0  0  0  0  0  0  0  0  0  0
   46.0490   33.0970   46.1320 C   0  0  0  0  0  0  0  0  0  0  0  0
   47.0890   32.3230   45.6120 C   0  0  0  0  0  0  0  0  0  0  0  0
   48.2500   31.9930   43.8030 H   0  0  0  0  0  0  0  0  0  0  0  0
   43.8090   35.3380   45.9430 H   0  0  0  0  0  0  0  0  0  0  0  0
   43.8500   34.2900   48.2570 H   0  0  0  0  0  0  0  0  0  0  0  0
   47.6020   31.5800   46.1820 H   0  0  0  0  0  0  0  0  0  0  0  0
   46.9770   33.2100   39.9250 C   0  0  0  0  0  0  0  0  0  0  0  0
   47.8310   34.2460   39.5650 C   0  0  0  0  0  0  0  0  0  0  0  0
   48.3300   35.0550   40.5840 C   0  0  0  0  0  0  0  0  0  0  0  0
   47.9680   34.8020   41.8840 N   0  0  0  0  0  0  0  0  0  0  0  0
   47.1320   33.7760   42.1810 C   0  0  0  0  0  0  0  0  0  0  0  0
   46.6200   32.9620   41.2220 N   0  0  0  0  0  0  0  0  0  0  0  0
   46.5920   32.5830   39.1240 H   0  0  0  0  0  0  0  0  0  0  0  0
   48.0960   34.4170   38.5320 H   0  0  0  0  0  0  0  0  0  0  0  0
   48.9980   35.8790   40.3750 H   0  0  0  0  0  0  0  0  0  0  0  0
   44.8710   35.5160   43.1850 S   0  0  0  0  0  0  0  0  0  0  0  0
   42.3360   35.4620   42.5080 N   0  0  0  0  0  0  0  0  0  0  0  0
   43.5950   34.8480   42.0990 C   0  0  1  0  0  0  0  0  0  0  0  0
   43.9710   35.2750   40.6840 C   0  0  0  0  0  0  0  0  0  0  0  0
   42.9090   35.2500   39.8000 O   0  0  0  0  0  0  0  0  0  0  0  0
   41.7670   34.6600   40.2580 C   0  0  0  0  0  0  0  0  0  0  0  0
   41.3090   35.3780   41.5070 C   0  0  1  0  0  0  0  0  0  0  0  0
   42.0670   34.9500   43.3780 H   0  0  0  0  0  0  0  0  0  0  0  0
   43.4720   33.7630   42.1650 H   0  0  0  0  0  0  0  0  0  0  0  0
   44.4350   36.2840   40.6990 H   0  0  0  0  0  0  0  0  0  0  0  0
   44.6740   34.5510   40.2780 H   0  0  0  0  0  0  0  0  0  0  0  0
   41.9970   33.6150   40.5540 H   0  0  0  0  0  0  0  0  0  0  0  0
   40.9990   34.7410   39.4910 H   0  0  0  0  0  0  0  0  0  0  0  0
   40.9530   36.3750   41.1760 H   0  0  0  0  0  0  0  0  0  0  0  0
   40.1920   34.7480   42.0800 O   0  0  0  0  0  0  0  0  0  0  0  0
   40.6170   32.1700   41.9760 O   0  0  0  0  0  0  0  0  0  0  0  0
   39.9330   33.3150   41.2570 P   0  0  0  0  0  0  0  0  0  0  0  0
   40.4760   33.3500   39.6640 O   0  0  0  0  0  0  0  0  0  0  0  0
   41.2460   32.7720   39.4800 H   0  0  0  0  0  0  0  0  0  0  0  0
   38.2770   32.9230   41.1810 O   0  0  0  0  0  0  0  0  0  0  0  0
   37.7830   33.7610   41.0110 H   0  0  0  0  0  0  0  0  0  0  0  0
  1  9  1  0  0  0  0
  2  3  1  0  0  0  0
  2  1  2  0  0  0  0
  3  4  2  0  0  0  0
  4  8  1  0  0  0  0
  4  5  1  0  0  0  0
  5  6  1  0  0  0  0
  6 12  1  0  0  0  0
  7  6  2  0  0  0  0
  8  7  1  0  0  0  0
  9  8  2  0  0  0  0
  9 13  1  0  0  0  0
 10  1  1  0  0  0  0
 11  5  1  0  0  0  0
 14 19  1  0  0  0  0
 15 14  2  0  0  0  0
 15 16  1  0  0  0  0
 16 17  2  0  0  0  0
 17 18  1  0  0  0  0
 18  2  1  0  0  0  0
 19 18  2  0  0  0  0
 20 14  1  0  0  0  0
 21 15  1  0  0  0  0
 22 16  1  0  0  0  0
 23  3  1  0  0  0  0
 24 30  1  0  0  0  0
 25 31  1  1  0  0  0
 25 24  1  0  0  0  0
 25 23  1  0  0  0  0
 26 32  1  0  0  0  0
 26 25  1  0  0  0  0
 27 28  1  0  0  0  0
 27 26  1  0  0  0  0
 28 34  1  0  0  0  0
 28 29  1  0  0  0  0
 29 36  1  6  0  0  0
 29 37  1  0  0  0  0
 29 24  1  0  0  0  0
 33 26  1  0  0  0  0
 35 28  1  0  0  0  0
 39 38  2  0  0  0  0
 39 37  1  0  0  0  0
 40 39  1  0  0  0  0
 41 40  1  0  0  0  0
 42 39  1  0  0  0  0
 43 42  1  0  0  0  0
M  END
>  <minimizedAffinity>
-6.73325491

>  <minimizedRMSD>
0.328860819

$$$$
