
 OpenBabel03252508513D

 26 27  0  0  0  0  0  0  0  0999 V2000
   46.0170   34.1680   41.0460 C   0  0  0  0  0  0  0  0  0  0  0  0
   46.5730   34.8430   42.1270 C   0  0  0  0  0  0  0  0  0  0  0  0
   47.8990   35.2760   42.0000 C   0  0  0  0  0  0  0  0  0  0  0  0
   48.5500   35.0110   40.8390 N   0  0  0  0  0  0  0  0  0  0  0  0
   47.9810   34.3590   39.8200 C   0  0  0  0  0  0  0  0  0  0  0  0
   46.7020   33.9340   39.9270 N   0  0  0  0  0  0  0  0  0  0  0  0
   48.3590   35.8070   42.8310 H   0  0  0  0  0  0  0  0  0  0  0  0
   48.6050   34.2150   38.9610 H   0  0  0  0  0  0  0  0  0  0  0  0
   45.7790   35.0750   43.3330 C   0  0  0  0  0  0  0  0  0  0  0  0
   45.0400   36.2160   43.5460 C   0  0  0  0  0  0  0  0  0  0  0  0
   44.4690   36.0060   44.7820 C   0  0  0  0  0  0  0  0  0  0  0  0
   44.8380   34.8070   45.2950 N   0  0  0  0  0  0  0  0  0  0  0  0
   45.6280   34.2680   44.3980 N   0  0  0  0  0  0  0  0  0  0  0  0
   44.8890   37.0950   42.9560 H   0  0  0  0  0  0  0  0  0  0  0  0
   43.7970   36.6250   45.3880 H   0  0  0  0  0  0  0  0  0  0  0  0
   44.6350   34.2930   46.1650 H   0  0  0  0  0  0  0  0  0  0  0  0
   44.7080   33.7350   41.1570 O   0  0  0  0  0  0  0  0  0  0  0  0
   43.6530   34.1600   40.3970 C   0  0  0  0  0  0  0  0  0  0  0  0
   43.0780   35.2960   40.4070 O   0  0  0  0  0  0  0  0  0  0  0  0
   42.8780   33.5250   39.3970 O   0  0  0  0  0  0  0  0  0  0  0  0
   44.4330   31.5460   38.6990 O   0  0  0  0  0  0  0  0  0  0  0  0
   43.6420   32.6950   38.1070 P   0  0  0  0  0  0  0  0  0  0  0  0
   42.4530   32.0430   37.1060 O   0  0  0  0  0  0  0  0  0  0  0  0
   42.1180   31.1860   37.5150 H   0  0  0  0  0  0  0  0  0  0  0  0
   44.7160   33.6750   37.2480 O   0  0  0  0  0  0  0  0  0  0  0  0
   44.5450   33.6980   36.2730 H   0  0  0  0  0  0  0  0  0  0  0  0
  1 17  1  0  0  0  0
  1  2  1  0  0  0  0
  2  9  1  0  0  0  0
  3  2  2  0  0  0  0
  3  7  1  0  0  0  0
  4  3  1  0  0  0  0
  5  6  1  0  0  0  0
  5  4  2  0  0  0  0
  6  1  2  0  0  0  0
  8  5  1  0  0  0  0
  9 10  1  0  0  0  0
  9 13  2  0  0  0  0
 10 11  2  0  0  0  0
 11 12  1  0  0  0  0
 11 15  1  0  0  0  0
 12 16  1  0  0  0  0
 13 12  1  0  0  0  0
 14 10  1  0  0  0  0
 18 19  2  0  0  0  0
 18 17  1  0  0  0  0
 20 18  1  0  0  0  0
 22 21  2  0  0  0  0
 22 20  1  0  0  0  0
 23 24  1  0  0  0  0
 23 22  1  0  0  0  0
 25 22  1  0  0  0  0
 26 25  1  0  0  0  0
M  END
>  <minimizedAffinity>
-4.97330475

>  <minimizedRMSD>
0.318315923

$$$$
