REMARK  Name = 
REMARK  9 active torsions:
REMARK  status: ('A' for Active; 'I' for Inactive)
REMARK    1  A    between atoms: C_1  and  C_14
REMARK    2  A    between atoms: C_3  and  C_8
REMARK    3  A    between atoms: C_7  and  O_12
REMARK    4  A    between atoms: C_11  and  O_13
REMARK    5  A    between atoms: C_14  and  N_17
REMARK    6  A    between atoms: C_15  and  O_34
REMARK    7  A    between atoms: P_31  and  O_32
REMARK    8  A    between atoms: P_31  and  O_33
REMARK    9  A    between atoms: P_31  and  O_34
REMARK                            x       y       z     vdW  Elec       q    Type
REMARK                         _______ _______ _______ _____ _____    ______ ____
ROOT
ATOM      1  C   UNL     1      45.281  35.614  44.217  0.00  0.00    +0.000 A 
ATOM      2  C   UNL     1      46.244  34.859  43.525  0.00  0.00    +0.000 A 
ATOM      3  C   UNL     1      46.709  33.664  44.083  0.00  0.00    +0.000 A 
ATOM      4  N   UNL     1      46.201  33.303  45.260  0.00  0.00    +0.000 NA
ATOM      5  C   UNL     1      45.275  34.039  45.914  0.00  0.00    +0.000 A 
ATOM      6  N   UNL     1      44.809  35.199  45.397  0.00  0.00    +0.000 NA
ATOM      7  H   UNL     1      46.579  35.257  42.576  0.00  0.00    +0.000 HD
ATOM      8  H   UNL     1      44.906  33.684  46.869  0.00  0.00    +0.000 HD
ENDROOT
BRANCH   3  10
ATOM      9  C   UNL     1      48.687  33.772  42.582  0.00  0.00    +0.000 C 
ATOM     10  C   UNL     1      47.700  32.935  43.316  0.00  0.00    +0.000 C 
ATOM     11  O   UNL     1      47.163  32.154  42.250  0.00  0.00    +0.000 OA
ATOM     12  C   UNL     1      48.297  31.681  41.621  0.00  0.00    +0.000 C 
ATOM     13  C   UNL     1      49.428  32.643  41.838  0.00  0.00    +0.000 C 
ATOM     14  H   UNL     1      48.207  34.353  41.743  0.00  0.00    +0.000 HD
ATOM     15  H   UNL     1      48.264  32.244  44.003  0.00  0.00    +0.000 HD
ATOM     16  H   UNL     1      48.571  30.685  42.022  0.00  0.00    +0.000 HD
ATOM     17  H   UNL     1      48.119  31.592  40.538  0.00  0.00    +0.000 HD
ATOM     18  H   UNL     1      50.206  32.267  42.513  0.00  0.00    +0.000 HD
BRANCH   9  19
ATOM     19  O   UNL     1      49.494  34.538  43.366  0.00  0.00    +0.000 OA
ATOM     20  H   UNL     1      49.472  35.501  43.135  0.00  0.00    +0.000 HD
ENDBRANCH   9  19
BRANCH  13  21
ATOM     21  O   UNL     1      49.953  33.161  40.656  0.00  0.00    +0.000 OA
ATOM     22  H   UNL     1      50.540  33.913  40.920  0.00  0.00    +0.000 HD
ENDBRANCH  13  21
ENDBRANCH   3  10
BRANCH   1  23
ATOM     23  C   UNL     1      44.807  36.902  43.598  0.00  0.00    +0.000 C 
ATOM     24  H   UNL     1      43.745  36.776  43.347  0.00  0.00    +0.000 HD
ATOM     25  H   UNL     1      45.423  37.138  42.727  0.00  0.00    +0.000 HD
BRANCH  23  28
ATOM     26  C   UNL     1      45.338  39.262  44.464  0.00  0.00    +0.000 C 
ATOM     27  O   UNL     1      45.620  39.617  43.285  0.00  0.00    +0.000 OA
ATOM     28  N   UNL     1      44.923  37.913  44.640  0.00  0.00    +0.000 N 
ATOM     29  H   UNL     1      44.674  37.621  45.630  0.00  0.00    +0.000 HD
BRANCH  26  30
ATOM     30  O   UNL     1      45.421  40.125  45.550  0.00  0.00    +0.000 OA
BRANCH  30  32
ATOM     31  O   UNL     1      42.789  40.272  45.959  0.00  0.00    +0.000 OA
ATOM     32  P   UNL     1      44.124  40.150  46.699  0.00  0.00    +0.000 P 
BRANCH  32  33
ATOM     33  O   UNL     1      44.339  41.403  47.789  0.00  0.00    +0.000 OA
ATOM     34  H   UNL     1      43.460  41.883  47.851  0.00  0.00    +0.000 HD
ENDBRANCH  32  33
BRANCH  32  35
ATOM     35  O   UNL     1      44.101  38.644  47.450  0.00  0.00    +0.000 OA
ATOM     36  H   UNL     1      43.462  38.004  47.003  0.00  0.00    +0.000 HD
ENDBRANCH  32  35
ENDBRANCH  30  32
ENDBRANCH  26  30
ENDBRANCH  23  28
ENDBRANCH   1  23
TORSDOF 9
