
 OpenBabel03252507393D

 17 17  0  0  0  0  0  0  0  0999 V2000
   44.9990   35.0340   43.3250 C   0  0  0  0  0  0  0  0  0  0  0  0
   45.8310   33.9340   43.6400 C   0  0  0  0  0  0  0  0  0  0  0  0
   46.0000   33.5660   44.9750 C   0  0  0  0  0  0  0  0  0  0  0  0
   45.3450   34.2980   45.9170 N   0  0  0  0  0  0  0  0  0  0  0  0
   44.5600   35.3390   45.5810 C   0  0  0  0  0  0  0  0  0  0  0  0
   44.3810   35.7130   44.3150 N   0  0  0  0  0  0  0  0  0  0  0  0
   46.6330   32.7270   45.2360 H   0  0  0  0  0  0  0  0  0  0  0  0
   44.0620   35.8900   46.3520 H   0  0  0  0  0  0  0  0  0  0  0  0
   46.6460   33.0410   42.3200 S   0  0  0  0  0  0  0  0  0  0  0  0
   47.5980   33.8440   41.6720 H   0  0  0  0  0  0  0  0  0  0  0  0
   44.8750   35.3460   41.9770 O   0  0  0  0  0  0  0  0  0  0  0  0
   42.9900   33.5430   41.4470 O   0  0  0  0  0  0  0  0  0  0  0  0
   43.3800   34.9900   41.2460 P   0  0  0  0  0  0  0  0  0  0  0  0
   43.3780   35.3690   39.5970 O   0  0  0  0  0  0  0  0  0  0  0  0
   42.4030   35.4150   39.3450 H   0  0  0  0  0  0  0  0  0  0  0  0
   42.2170   35.9400   42.0600 O   0  0  0  0  0  0  0  0  0  0  0  0
   42.5630   36.8820   42.0680 H   0  0  0  0  0  0  0  0  0  0  0  0
  1  2  2  0  0  0  0
  1  6  1  0  0  0  0
  2  3  1  0  0  0  0
  3  7  1  0  0  0  0
  3  4  2  0  0  0  0
  5  4  1  0  0  0  0
  5  8  1  0  0  0  0
  6  5  2  0  0  0  0
  9  2  1  0  0  0  0
 10  9  1  0  0  0  0
 11  1  1  0  0  0  0
 13 12  2  0  0  0  0
 13 11  1  0  0  0  0
 13 16  1  0  0  0  0
 14 13  1  0  0  0  0
 15 14  1  0  0  0  0
 16 17  1  0  0  0  0
M  END
>  <minimizedAffinity>
-3.84779191

>  <minimizedRMSD>
2.92690516

$$$$
