
 OpenBabel03242511513D

 25 26  0  0  1  0  0  0  0  0999 V2000
   47.2100   34.8330   41.6520 C   0  0  1  0  0  0  0  0  0  0  0  0
   48.6290   34.8420   41.2180 C   0  0  2  0  0  0  0  0  0  0  0  0
   47.5850   34.3990   40.2750 C   0  0  0  0  0  0  0  0  0  0  0  0
   46.7710   35.8340   41.8220 H   0  0  0  0  0  0  0  0  0  0  0  0
   49.0360   35.8790   41.0330 H   0  0  0  0  0  0  0  0  0  0  0  0
   47.4800   33.3050   40.0520 H   0  0  0  0  0  0  0  0  0  0  0  0
   47.3020   35.0070   39.3930 H   0  0  0  0  0  0  0  0  0  0  0  0
   46.9770   34.0160   43.9820 C   0  0  0  0  0  0  0  0  0  0  0  0
   46.7130   33.8160   42.6270 C   0  0  0  0  0  0  0  0  0  0  0  0
   45.9910   32.6750   42.2350 C   0  0  0  0  0  0  0  0  0  0  0  0
   45.5790   31.8080   43.2220 N   0  0  0  0  0  0  0  0  0  0  0  0
   45.8620   32.0500   44.5190 C   0  0  0  0  0  0  0  0  0  0  0  0
   46.5610   33.1500   44.9200 N   0  0  0  0  0  0  0  0  0  0  0  0
   47.5200   34.8560   44.3810 H   0  0  0  0  0  0  0  0  0  0  0  0
   45.7850   32.5210   41.1860 H   0  0  0  0  0  0  0  0  0  0  0  0
   45.4550   31.2510   45.1590 H   0  0  0  0  0  0  0  0  0  0  0  0
   49.5270   33.8290   41.7860 C   0  0  0  0  0  0  0  0  0  0  0  0
   50.2740   34.1650   42.6490 O   0  0  0  0  0  0  0  0  0  0  0  0
   49.4330   32.5420   41.2670 O   0  0  0  0  0  0  0  0  0  0  0  0
   50.8540   31.5340   39.2230 O   0  0  0  0  0  0  0  0  0  0  0  0
   50.8510   31.7060   40.7250 P   0  0  0  0  0  0  0  0  0  0  0  0
   52.2400   32.5330   41.2210 O   0  0  0  0  0  0  0  0  0  0  0  0
   52.9800   32.4380   40.5740 H   0  0  0  0  0  0  0  0  0  0  0  0
   50.8390   30.1510   41.4230 O   0  0  0  0  0  0  0  0  0  0  0  0
   50.1830   29.5720   40.9590 H   0  0  0  0  0  0  0  0  0  0  0  0
  1  4  1  1  0  0  0
  1  9  1  0  0  0  0
  2  5  1  6  0  0  0
  2  1  1  0  0  0  0
  2 17  1  0  0  0  0
  3  2  1  0  0  0  0
  3  1  1  0  0  0  0
  6  3  1  0  0  0  0
  7  3  1  0  0  0  0
  8 14  1  0  0  0  0
  8 13  1  0  0  0  0
  9  8  2  0  0  0  0
 10  9  1  0  0  0  0
 10 11  2  0  0  0  0
 11 12  1  0  0  0  0
 12 13  2  0  0  0  0
 12 16  1  0  0  0  0
 15 10  1  0  0  0  0
 17 18  2  0  0  0  0
 19 17  1  0  0  0  0
 20 21  2  0  0  0  0
 21 22  1  0  0  0  0
 21 19  1  0  0  0  0
 21 24  1  0  0  0  0
 23 22  1  0  0  0  0
 25 24  1  0  0  0  0
M  END
>  <minimizedAffinity>
-3.86702394

>  <minimizedRMSD>
2.93808126

$$$$
