
 OpenBabel03252509343D

 41 42  0  0  1  0  0  0  0  0999 V2000
   46.2950   33.3710   41.9420 C   0  0  1  0  0  0  0  0  0  0  0  0
   45.8600   34.2700   40.8040 C   0  0  0  0  0  0  0  0  0  0  0  0
   45.7080   33.2470   39.6810 C   0  0  0  0  0  0  0  0  0  0  0  0
   46.6990   32.1520   39.9930 C   0  0  0  0  0  0  0  0  0  0  0  0
   47.4040   32.6010   41.2590 C   0  0  1  0  0  0  0  0  0  0  0  0
   45.4810   32.6930   42.1630 H   0  0  0  0  0  0  0  0  0  0  0  0
   46.5730   35.0730   40.5660 H   0  0  0  0  0  0  0  0  0  0  0  0
   44.8760   34.7370   40.9450 H   0  0  0  0  0  0  0  0  0  0  0  0
   44.6880   32.7810   39.7990 H   0  0  0  0  0  0  0  0  0  0  0  0
   45.8390   33.7040   38.6940 H   0  0  0  0  0  0  0  0  0  0  0  0
   47.4730   32.1920   39.1720 H   0  0  0  0  0  0  0  0  0  0  0  0
   46.2470   31.1600   40.0910 H   0  0  0  0  0  0  0  0  0  0  0  0
   47.7070   31.7540   41.8900 H   0  0  0  0  0  0  0  0  0  0  0  0
   48.6230   33.4280   40.9720 C   0  0  0  0  0  0  0  0  0  0  0  0
   48.5150   34.1610   40.1760 H   0  0  0  0  0  0  0  0  0  0  0  0
   48.8960   33.9410   41.9020 H   0  0  0  0  0  0  0  0  0  0  0  0
   49.6300   32.5230   40.5720 O   0  0  0  0  0  0  0  0  0  0  0  0
   50.9530   33.6400   42.5830 O   0  0  0  0  0  0  0  0  0  0  0  0
   50.8570   32.4240   41.7140 P   0  0  0  0  0  0  0  0  0  0  0  0
   50.6890   31.0800   42.7380 O   0  0  0  0  0  0  0  0  0  0  0  0
   50.0230   30.4530   42.3900 H   0  0  0  0  0  0  0  0  0  0  0  0
   52.3240   32.2240   40.8890 O   0  0  0  0  0  0  0  0  0  0  0  0
   53.0880   32.2010   41.5200 H   0  0  0  0  0  0  0  0  0  0  0  0
   46.7720   34.1090   43.0300 O   0  0  0  0  0  0  0  0  0  0  0  0
   44.9980   35.4450   44.3550 O   0  0  0  0  0  0  0  0  0  0  0  0
   45.6240   34.0800   44.2560 P   0  0  1  0  0  0  0  0  0  0  0  0
   44.4810   32.8810   43.9810 O   0  0  0  0  0  0  0  0  0  0  0  0
   44.7070   32.2070   43.3260 H   0  0  0  0  0  0  0  0  0  0  0  0
   46.3800   33.6900   45.7050 O   0  0  0  0  0  0  0  0  0  0  0  0
   46.6640   32.3600   45.7130 C   0  0  0  0  0  0  0  0  0  0  0  0
   46.4280   31.7750   44.8290 H   0  0  0  0  0  0  0  0  0  0  0  0
   47.7850   32.2880   45.8350 H   0  0  0  0  0  0  0  0  0  0  0  0
   45.5900   31.6610   49.2070 C   0  0  0  0  0  0  0  0  0  0  0  0
   46.1250   32.3350   48.1020 C   0  0  0  0  0  0  0  0  0  0  0  0
   46.1060   31.6680   46.8870 C   0  0  0  0  0  0  0  0  0  0  0  0
   45.5750   30.4050   46.8220 N   0  0  0  0  0  0  0  0  0  0  0  0
   45.0650   29.7830   47.9070 C   0  0  0  0  0  0  0  0  0  0  0  0
   45.0770   30.4120   49.0850 N   0  0  0  0  0  0  0  0  0  0  0  0
   45.5650   32.1060   50.1920 H   0  0  0  0  0  0  0  0  0  0  0  0
   46.5190   33.3270   48.2640 H   0  0  0  0  0  0  0  0  0  0  0  0
   44.6780   28.7900   47.7190 H   0  0  0  0  0  0  0  0  0  0  0  0
  1  6  1  1  0  0  0
  1 24  1  0  0  0  0
  2  8  1  0  0  0  0
  2  1  1  0  0  0  0
  3  9  1  0  0  0  0
  3  4  1  0  0  0  0
  3  2  1  0  0  0  0
  4 12  1  0  0  0  0
  4  5  1  0  0  0  0
  5 13  1  1  0  0  0
  5  1  1  0  0  0  0
  7  2  1  0  0  0  0
 10  3  1  0  0  0  0
 11  4  1  0  0  0  0
 14  5  1  0  0  0  0
 14 16  1  0  0  0  0
 15 14  1  0  0  0  0
 17 14  1  0  0  0  0
 17 19  1  0  0  0  0
 19 18  2  0  0  0  0
 19 20  1  0  0  0  0
 21 20  1  0  0  0  0
 22 23  1  0  0  0  0
 22 19  1  0  0  0  0
 24 26  1  0  0  0  0
 26 25  2  1  0  0  0
 26 29  1  0  0  0  0
 27 26  1  0  0  0  0
 28 27  1  0  0  0  0
 29 30  1  0  0  0  0
 30 32  1  0  0  0  0
 30 35  1  0  0  0  0
 31 30  1  0  0  0  0
 33 39  1  0  0  0  0
 34 40  1  0  0  0  0
 34 33  2  0  0  0  0
 35 34  1  0  0  0  0
 36 35  2  0  0  0  0
 36 37  1  0  0  0  0
 37 38  2  0  0  0  0
 38 33  1  0  0  0  0
 41 37  1  0  0  0  0
M  END
>  <minimizedAffinity>
-4.91213465

>  <minimizedRMSD>
1.69470561

$$$$
