
 OpenBabel03252508513D

 26 27  0  0  0  0  0  0  0  0999 V2000
   45.8960   34.1240   41.0080 C   0  0  0  0  0  0  0  0  0  0  0  0
   46.4920   34.7860   42.0760 C   0  0  0  0  0  0  0  0  0  0  0  0
   47.8260   35.1840   41.9200 C   0  0  0  0  0  0  0  0  0  0  0  0
   48.4450   34.9010   40.7460 N   0  0  0  0  0  0  0  0  0  0  0  0
   47.8380   34.2620   39.7400 C   0  0  0  0  0  0  0  0  0  0  0  0
   46.5510   33.8710   39.8760 N   0  0  0  0  0  0  0  0  0  0  0  0
   48.3180   35.7040   42.7400 H   0  0  0  0  0  0  0  0  0  0  0  0
   48.4400   34.1010   38.8680 H   0  0  0  0  0  0  0  0  0  0  0  0
   45.7300   35.0400   43.2980 C   0  0  0  0  0  0  0  0  0  0  0  0
   45.0450   36.2100   43.5340 C   0  0  0  0  0  0  0  0  0  0  0  0
   44.4870   36.0120   44.7790 C   0  0  0  0  0  0  0  0  0  0  0  0
   44.8140   34.7940   45.2750 N   0  0  0  0  0  0  0  0  0  0  0  0
   45.5640   34.2310   44.3580 N   0  0  0  0  0  0  0  0  0  0  0  0
   44.9210   37.1000   42.9540 H   0  0  0  0  0  0  0  0  0  0  0  0
   43.8530   36.6530   45.4020 H   0  0  0  0  0  0  0  0  0  0  0  0
   44.6050   34.2810   46.1430 H   0  0  0  0  0  0  0  0  0  0  0  0
   44.5790   33.7250   41.1480 O   0  0  0  0  0  0  0  0  0  0  0  0
   43.4920   34.3250   40.5730 C   0  0  0  0  0  0  0  0  0  0  0  0
   43.1020   35.5310   40.6880 O   0  0  0  0  0  0  0  0  0  0  0  0
   42.4820   33.8430   39.7060 O   0  0  0  0  0  0  0  0  0  0  0  0
   42.5080   35.7730   37.9470 O   0  0  0  0  0  0  0  0  0  0  0  0
   41.5510   34.9350   38.7700 P   0  0  0  0  0  0  0  0  0  0  0  0
   40.5900   34.0500   37.7060 O   0  0  0  0  0  0  0  0  0  0  0  0
   41.1500   33.7800   36.9120 H   0  0  0  0  0  0  0  0  0  0  0  0
   40.6290   35.9850   39.7210 O   0  0  0  0  0  0  0  0  0  0  0  0
   39.6660   35.9850   39.4970 H   0  0  0  0  0  0  0  0  0  0  0  0
  1 17  1  0  0  0  0
  1  2  1  0  0  0  0
  2  9  1  0  0  0  0
  3  2  2  0  0  0  0
  3  7  1  0  0  0  0
  4  3  1  0  0  0  0
  5  6  1  0  0  0  0
  5  4  2  0  0  0  0
  6  1  2  0  0  0  0
  8  5  1  0  0  0  0
  9 10  1  0  0  0  0
  9 13  2  0  0  0  0
 10 11  2  0  0  0  0
 11 12  1  0  0  0  0
 11 15  1  0  0  0  0
 12 16  1  0  0  0  0
 13 12  1  0  0  0  0
 14 10  1  0  0  0  0
 18 19  2  0  0  0  0
 18 17  1  0  0  0  0
 20 18  1  0  0  0  0
 21 22  2  0  0  0  0
 22 20  1  0  0  0  0
 22 25  1  0  0  0  0
 23 22  1  0  0  0  0
 24 23  1  0  0  0  0
 26 25  1  0  0  0  0
M  END
>  <minimizedAffinity>
-5.139925

>  <minimizedRMSD>
0.407678962

$$$$
