
 OpenBabel03252508513D

 26 27  0  0  0  0  0  0  0  0999 V2000
   46.0220   34.2000   41.0180 C   0  0  0  0  0  0  0  0  0  0  0  0
   46.5890   34.8210   42.1260 C   0  0  0  0  0  0  0  0  0  0  0  0
   47.9350   35.1960   42.0310 C   0  0  0  0  0  0  0  0  0  0  0  0
   48.5930   34.9330   40.8740 N   0  0  0  0  0  0  0  0  0  0  0  0
   48.0130   34.3340   39.8290 C   0  0  0  0  0  0  0  0  0  0  0  0
   46.7150   33.9650   39.9040 N   0  0  0  0  0  0  0  0  0  0  0  0
   48.4050   35.6840   42.8830 H   0  0  0  0  0  0  0  0  0  0  0  0
   48.6450   34.1840   38.9760 H   0  0  0  0  0  0  0  0  0  0  0  0
   45.7860   35.0570   43.3240 C   0  0  0  0  0  0  0  0  0  0  0  0
   45.0770   36.2160   43.5450 C   0  0  0  0  0  0  0  0  0  0  0  0
   44.4830   36.0030   44.7710 C   0  0  0  0  0  0  0  0  0  0  0  0
   44.8110   34.7860   45.2690 N   0  0  0  0  0  0  0  0  0  0  0  0
   45.5970   34.2390   44.3740 N   0  0  0  0  0  0  0  0  0  0  0  0
   44.9600   37.1080   42.9670 H   0  0  0  0  0  0  0  0  0  0  0  0
   43.8210   36.6310   45.3780 H   0  0  0  0  0  0  0  0  0  0  0  0
   44.5810   34.2640   46.1280 H   0  0  0  0  0  0  0  0  0  0  0  0
   44.6940   33.8240   41.0970 O   0  0  0  0  0  0  0  0  0  0  0  0
   43.6410   34.4560   40.4920 C   0  0  0  0  0  0  0  0  0  0  0  0
   43.2770   35.6710   40.6080 O   0  0  0  0  0  0  0  0  0  0  0  0
   42.6500   34.0090   39.5860 O   0  0  0  0  0  0  0  0  0  0  0  0
   40.3520   33.4140   40.6740 O   0  0  0  0  0  0  0  0  0  0  0  0
   41.5630   32.7640   40.0360 P   0  0  0  0  0  0  0  0  0  0  0  0
   41.0490   31.9670   38.6430 O   0  0  0  0  0  0  0  0  0  0  0  0
   40.3180   32.5070   38.2100 H   0  0  0  0  0  0  0  0  0  0  0  0
   42.2290   31.6930   41.1600 O   0  0  0  0  0  0  0  0  0  0  0  0
   42.1840   30.7440   40.8850 H   0  0  0  0  0  0  0  0  0  0  0  0
  1 17  1  0  0  0  0
  1  2  1  0  0  0  0
  2  9  1  0  0  0  0
  3  2  2  0  0  0  0
  3  7  1  0  0  0  0
  4  3  1  0  0  0  0
  5  6  1  0  0  0  0
  5  4  2  0  0  0  0
  6  1  2  0  0  0  0
  8  5  1  0  0  0  0
  9 10  1  0  0  0  0
  9 13  2  0  0  0  0
 10 11  2  0  0  0  0
 11 12  1  0  0  0  0
 11 15  1  0  0  0  0
 12 16  1  0  0  0  0
 13 12  1  0  0  0  0
 14 10  1  0  0  0  0
 18 19  2  0  0  0  0
 18 17  1  0  0  0  0
 20 22  1  0  0  0  0
 20 18  1  0  0  0  0
 22 21  2  0  0  0  0
 22 25  1  0  0  0  0
 23 22  1  0  0  0  0
 24 23  1  0  0  0  0
 26 25  1  0  0  0  0
M  END
>  <minimizedAffinity>
-4.66373014

>  <minimizedRMSD>
0.291646391

$$$$
