
 OpenBabel03252508513D

 26 27  0  0  0  0  0  0  0  0999 V2000
   45.9700   34.1840   41.0300 C   0  0  0  0  0  0  0  0  0  0  0  0
   46.5500   34.8140   42.1270 C   0  0  0  0  0  0  0  0  0  0  0  0
   47.8940   35.1890   42.0130 C   0  0  0  0  0  0  0  0  0  0  0  0
   48.5390   34.9170   40.8500 N   0  0  0  0  0  0  0  0  0  0  0  0
   47.9470   34.3110   39.8160 C   0  0  0  0  0  0  0  0  0  0  0  0
   46.6500   33.9420   39.9100 N   0  0  0  0  0  0  0  0  0  0  0  0
   48.3740   35.6830   42.8560 H   0  0  0  0  0  0  0  0  0  0  0  0
   48.5680   34.1550   38.9570 H   0  0  0  0  0  0  0  0  0  0  0  0
   45.7610   35.0580   43.3330 C   0  0  0  0  0  0  0  0  0  0  0  0
   45.0650   36.2230   43.5600 C   0  0  0  0  0  0  0  0  0  0  0  0
   44.4820   36.0170   44.7920 C   0  0  0  0  0  0  0  0  0  0  0  0
   44.8040   34.7980   45.2890 N   0  0  0  0  0  0  0  0  0  0  0  0
   45.5770   34.2430   44.3860 N   0  0  0  0  0  0  0  0  0  0  0  0
   44.9490   37.1150   42.9820 H   0  0  0  0  0  0  0  0  0  0  0  0
   43.8310   36.6510   45.4050 H   0  0  0  0  0  0  0  0  0  0  0  0
   44.5790   34.2790   46.1500 H   0  0  0  0  0  0  0  0  0  0  0  0
   44.6430   33.8080   41.1280 O   0  0  0  0  0  0  0  0  0  0  0  0
   43.5830   34.4330   40.5270 C   0  0  0  0  0  0  0  0  0  0  0  0
   43.1660   35.6230   40.6990 O   0  0  0  0  0  0  0  0  0  0  0  0
   42.6400   34.0000   39.5640 O   0  0  0  0  0  0  0  0  0  0  0  0
   40.6580   32.6940   40.6530 O   0  0  0  0  0  0  0  0  0  0  0  0
   41.8510   32.4890   39.7430 P   0  0  0  0  0  0  0  0  0  0  0  0
   41.2750   32.0000   38.2370 O   0  0  0  0  0  0  0  0  0  0  0  0
   40.4080   32.4790   38.0490 H   0  0  0  0  0  0  0  0  0  0  0  0
   42.8430   31.3160   40.4440 O   0  0  0  0  0  0  0  0  0  0  0  0
   42.9140   30.4830   39.9150 H   0  0  0  0  0  0  0  0  0  0  0  0
  1 17  1  0  0  0  0
  1  2  1  0  0  0  0
  2  9  1  0  0  0  0
  3  2  2  0  0  0  0
  3  7  1  0  0  0  0
  4  3  1  0  0  0  0
  5  6  1  0  0  0  0
  5  4  2  0  0  0  0
  6  1  2  0  0  0  0
  8  5  1  0  0  0  0
  9 10  1  0  0  0  0
  9 13  2  0  0  0  0
 10 11  2  0  0  0  0
 11 12  1  0  0  0  0
 11 15  1  0  0  0  0
 12 16  1  0  0  0  0
 13 12  1  0  0  0  0
 14 10  1  0  0  0  0
 18 19  2  0  0  0  0
 18 17  1  0  0  0  0
 20 22  1  0  0  0  0
 20 18  1  0  0  0  0
 22 25  1  0  0  0  0
 22 21  2  0  0  0  0
 23 22  1  0  0  0  0
 24 23  1  0  0  0  0
 26 25  1  0  0  0  0
M  END
>  <minimizedAffinity>
-4.58916378

>  <minimizedRMSD>
0.298811734

$$$$
